drugbank_target|Q56310 Chemotaxis protein CheA (DB02524; DB03909; DB04395)
 OpenBabel12092119543D

  0  0  0     0  0            999 V3000
M  V30 BEGIN CTAB
M  V30 COUNTS 10772 10827 0 0 0
M  V30 BEGIN ATOM
M  V30 1 H -0.908 1.98254 -0.117106 0
M  V30 2 N 0 1.576 0 0
M  V30 3 C 0.933 2.03868 1.02534 0
M  V30 4 C 1.911 0.928543 1.3348 0
M  V30 5 O 3.095 1.19667 1.45644 0
M  V30 6 C 0.222 2.43627 2.35294 0
M  V30 7 C -0.732 3.65373 2.2001 0
M  V30 8 S 0.101 5.13292 1.52614 0
M  V30 9 C 1.257 5.56322 2.86805 0
M  V30 10 H 1.49 2.90518 0.631377 0
M  V30 11 H -0.977 1.52953 0.210867 0
M  V30 12 H 0.981 2.67203 3.11629 0
M  V30 13 H -0.358 1.57376 2.7183 0
M  V30 14 H -1.165 3.90944 3.18086 0
M  V30 15 H -1.563 3.418 1.51819 0
M  V30 16 H 0.729 5.58782 3.83104 0
M  V30 17 H 1.672 6.56266 2.65933 0
M  V30 18 H 2.08 4.83886 2.90714 0
M  V30 19 N 1.4781 -0.272755 1.55222 0
M  V30 20 C 2.4111 -1.3627 1.83046 0
M  V30 21 C 3.3891 -1.47536 0.683521 0
M  V30 22 O 4.5731 -1.64157 0.926545 0
M  V30 23 C 1.7001 -2.73908 1.99229 0
M  V30 24 C 0.7461 -2.79925 3.21783 0
M  V30 25 S 1.5791 -2.39146 4.79134 0
M  V30 26 C 2.7351 -3.78758 4.9829 0
M  V30 27 H 2.9681 -1.12464 2.75207 0
M  V30 28 H 0.5011 -0.472398 1.46996 0
M  V30 29 H 2.4591 -3.53171 2.09238 0
M  V30 30 H 1.1201 -2.94965 1.07956 0
M  V30 31 H 0.3131 -3.80946 3.29994 0
M  V30 32 H -0.0849 -2.08683 3.10367 0
M  V30 33 H 2.2071 -4.7403 4.84047 0
M  V30 34 H 3.1501 -3.75499 6.00338 0
M  V30 35 H 3.5581 -3.70072 4.26271 0
M  V30 36 N 2.9562 -1.48159 -0.537278 0
M  V30 37 C 3.8662 -1.64807 -1.6696 0
M  V30 38 C 4.8822 -0.530651 -1.65711 0
M  V30 39 O 6.0582 -0.800784 -1.84796 0
M  V30 40 C 3.1232 -1.67708 -3.03438 0
M  V30 41 C 2.1842 -2.91025 -3.156 0
M  V30 42 C 1.4172 -2.93778 -4.45567 0
M  V30 43 O 1.6402 -2.05153 -5.3223 0
M  V30 44 O 0.5742 -3.85868 -4.61941 0
M  V30 45 H 4.4002 -2.6066 -1.55853 0
M  V30 46 H 1.9852 -1.31475 -0.709549 0
M  V30 47 H 3.8672 -1.7218 -3.84619 0
M  V30 48 H 2.5422 -0.750278 -3.14885 0
M  V30 49 H 1.4492 -2.92089 -2.33741 0
M  V30 50 H 2.7822 -3.83065 -3.09066 0
M  V30 51 N 4.4343 0.785586 -1.36625 0
M  V30 52 C 5.3443 1.92964 -1.33425 0
M  V30 53 C 6.3603 1.72394 -0.235851 0
M  V30 54 O 7.5363 1.95866 -0.468878 0
M  V30 55 C 4.6013 3.27884 -1.12662 0
M  V30 56 C 3.6623 3.61204 -2.32013 0
M  V30 57 C 2.8953 4.89687 -2.12231 0
M  V30 58 O 3.1183 5.59704 -1.09945 0
M  V30 59 O 2.0523 5.21752 -3.00098 0
M  V30 60 H 5.8783 1.98613 -2.29753 0
M  V30 61 H 3.4633 0.926384 -1.17211 0
M  V30 62 H 5.3453 4.08614 -1.03016 0
M  V30 63 H 4.0203 3.23118 -0.193991 0
M  V30 64 H 2.9273 2.80765 -2.47228 0
M  V30 65 H 4.2603 3.70698 -3.23796 0
M  V30 66 N 5.9124 1.20967 1.01018 0
M  V30 67 C 7.1424 1.04803 1.78044 0
M  V30 68 C 7.5504 -0.405462 1.84804 0
M  V30 69 O 6.8934 -1.2932 1.30468 0
M  V30 70 C 6.9554 1.56377 3.23707 0
M  V30 71 C 6.6194 3.04767 3.40538 0
M  V30 72 C 7.6164 4.02366 3.29239 0
M  V30 73 C 5.3014 3.43862 3.66147 0
M  V30 74 C 7.2954 5.37049 3.43304 0
M  V30 75 C 4.9824 4.78699 3.79855 0
M  V30 76 C 5.9804 5.75101 3.68439 0
M  V30 77 O 5.6684 7.07493 3.81719 0
M  V30 78 H 5.4004 0.368778 0.56655 0
M  V30 79 H 7.9544 1.60642 1.27997 0
M  V30 80 H 6.1844 0.949297 3.74867 0
M  V30 81 H 7.8734 1.36136 3.8239 0
M  V30 82 H 8.6394 3.73506 3.09384 0
M  V30 83 H 4.5184 2.69364 3.74118 0
M  V30 84 H 8.0624 6.12277 3.34309 0
M  V30 85 H 3.9594 5.07247 3.99213 0
M  V30 86 H 4.7274 7.1483 3.98697 0
M  V30 87 N 7.3905 -1.2043 1.01659 0
M  V30 88 C 8.3205 -2.25466 0.607226 0
M  V30 89 C 9.3015 -1.65853 -0.377716 0
M  V30 90 O 10.4865 -1.92409 -0.263149 0
M  V30 91 C 7.6165 -3.47256 -0.0552949 0
M  V30 92 C 6.5705 -4.19462 0.850632 0
M  V30 93 C 5.8965 -5.34673 0.0538859 0
M  V30 94 C 7.1965 -4.75603 2.15868 0
M  V30 95 H 8.8905 -2.59962 1.48526 0
M  V30 96 H 6.4365 -1.2496 0.715605 0
M  V30 97 H 8.3895 -4.19917 -0.353233 0
M  V30 98 H 7.1135 -3.11924 -0.968045 0
M  V30 99 H 5.7725 -3.48667 1.13257 0
M  V30 100 H 5.4205 -4.95585 -0.860514 0
M  V30 101 H 5.1205 -5.83913 0.657192 0
M  V30 102 H 6.6445 -6.10138 -0.237598 0
M  V30 103 H 8.0585 -5.40083 1.92311 0
M  V30 104 H 6.4555 -5.3528 2.71284 0
M  V30 105 H 7.5255 -3.94346 2.82169 0
M  V30 106 N 8.8686 -0.792821 -1.36206 0
M  V30 107 C 10.1166 -0.366062 -1.98757 0
M  V30 108 C 10.4376 1.0668 -1.63231 0
M  V30 109 O 9.7076 1.73587 -0.907978 0
M  V30 110 H 8.2876 -0.132364 -0.735179 0
M  V30 111 H 10.9496 -1.01562 -1.66347 0
M  V30 112 H 10.0456 -0.460638 -3.08682 0
M  V30 113 N 10.3467 1.47872 -0.545128 0
M  V30 114 C 11.5927 2.02793 -0.0166104 0
M  V30 115 C 11.9257 1.41987 1.32489 0
M  V30 116 O 11.2007 0.571045 1.85928 0
M  V30 117 C 11.4837 3.59989 0.0893294 0
M  V30 118 C 11.3367 4.3125 -1.27841 0
M  V30 119 C 12.6557 4.32606 0.808724 0
M  V30 120 H 9.7747 0.736962 -0.00751035 0
M  V30 121 H 12.4167 1.76433 -0.705085 0
M  V30 122 H 10.5667 3.82579 0.675681 0
M  V30 123 H 12.2387 4.20035 -1.90704 0
M  V30 124 H 10.4817 3.92076 -1.85632 0
M  V30 125 H 11.1527 5.39736 -1.15713 0
M  V30 126 H 13.6287 4.14936 0.310992 0
M  V30 127 H 12.5047 5.42251 0.851782 0
M  V30 128 H 12.7657 4.00963 1.86229 0
M  V30 129 N 11.8248 0.280983 1.55075 0
M  V30 130 C 13.0718 -0.334115 1.99725 0
M  V30 131 C 13.3998 -1.5542 1.1694 0
M  V30 132 O 12.6548 -1.94361 0.228531 0
M  V30 133 C 12.9538 -0.754656 3.49342 0
M  V30 134 C 12.6198 0.361445 4.49449 0
M  V30 135 C 11.2818 0.667893 4.76542 0
M  V30 136 C 13.6338 1.11322 5.09173 0
M  V30 137 C 10.9618 1.7296 5.60626 0
M  V30 138 C 13.3138 2.1647 5.9441 0
M  V30 139 C 11.9778 2.47742 6.19822 0
M  V30 140 H 11.2478 -0.122261 0.730844 0
M  V30 141 H 13.8948 0.395917 1.87363 0
M  V30 142 H 12.1998 -1.56446 3.5921 0
M  V30 143 H 13.8968 -1.24142 3.813 0
M  V30 144 H 10.4868 0.112481 4.28452 0
M  V30 145 H 14.6708 0.88973 4.8826 0
M  V30 146 H 9.9268 1.97684 5.78559 0
M  V30 147 H 14.1008 2.75193 6.3972 0
M  V30 148 H 11.7278 3.30145 6.84769 0
M  V30 149 N 13.3029 -1.57598 0.00835791 0
M  V30 150 C 14.5489 -1.91211 -0.675732 0
M  V30 151 C 14.8819 -0.883139 -1.72958 0
M  V30 152 O 14.1569 0.097016 -1.94258 0
M  V30 153 C 14.4399 -3.35379 -1.31123 0
M  V30 154 C 14.2929 -4.48999 -0.268356 0
M  V30 155 C 15.6119 -3.7912 -2.23508 0
M  V30 156 H 12.7309 -0.695374 -0.244179 0
M  V30 157 H 15.3729 -1.89901 0.0613655 0
M  V30 158 H 13.5229 -3.36626 -1.93946 0
M  V30 159 H 15.1949 -4.59887 0.360844 0
M  V30 160 H 13.4379 -4.31873 0.408482 0
M  V30 161 H 14.1089 -5.46851 -0.752218 0
M  V30 162 H 16.5849 -3.79477 -1.70693 0
M  V30 163 H 15.4609 -4.80729 -2.64936 0
M  V30 164 H 15.7219 -3.13455 -3.11766 0
M  V30 165 N 14.781 0.264519 -1.55364 0
M  V30 166 C 16.058 1.01677 -1.67096 0
M  V30 167 C 16.438 2.03996 -0.543015 0
M  V30 168 O 15.786 2.23907 0.45585 0
M  V30 169 C 15.996 1.66596 -3.0667 0
M  V30 170 C 17.344 2.17442 -3.64697 0
M  V30 171 O 18.368 1.76568 -3.09358 0
M  V30 172 O 17.227 2.92439 -4.61673 0
M  V30 173 H 14.321 0.472161 -0.678965 0
M  V30 174 H 16.867 0.259703 -1.67701 0
M  V30 175 H 15.639 0.924962 -3.80211 0
M  V30 176 H 15.262 2.48968 -3.10001 0
M  V30 177 N 16.2591 1.48442 0.529413 0
M  V30 178 C 17.1691 1.6569 1.66084 0
M  V30 179 C 18.1851 0.539432 1.65427 0
M  V30 180 O 19.3611 0.810572 1.84368 0
M  V30 181 C 16.4261 1.69315 3.02545 0
M  V30 182 C 15.4871 2.92694 3.14052 0
M  V30 183 C 14.7201 2.96137 4.44003 0
M  V30 184 O 14.9431 2.07973 5.31134 0
M  V30 185 O 13.8771 3.88312 4.59888 0
M  V30 186 H 17.7031 2.61483 1.54469 0
M  V30 187 H 15.2881 1.3185 0.702567 0
M  V30 188 H 17.1701 1.74217 3.83701 0
M  V30 189 H 15.8451 0.766966 3.14483 0
M  V30 190 H 14.7521 2.93324 2.32189 0
M  V30 191 H 16.0851 3.84699 3.0703 0
M  V30 192 N 17.7372 -0.778329 1.37039 0
M  V30 193 C 18.9652 -1.56734 1.35063 0
M  V30 194 C 19.3802 -1.88686 -0.0655597 0
M  V30 195 O 18.7372 -1.5096 -1.02554 0
M  V30 196 C 18.7882 -2.88163 2.18276 0
M  V30 197 O 18.5092 -2.57583 3.54376 0
M  V30 198 C 20.0102 -3.82422 2.24206 0
M  V30 199 H 17.2302 -0.485778 0.462883 0
M  V30 200 H 19.7742 -0.965185 1.8029 0
M  V30 201 H 17.9292 -3.44818 1.76576 0
M  V30 202 H 18.3432 -3.41699 3.97922 0
M  V30 203 H 19.8172 -4.71667 2.86765 0
M  V30 204 H 20.2942 -4.21078 1.24861 0
M  V30 205 H 20.9002 -3.31697 2.6619 0
M  V30 206 N 19.2153 -1.21501 -1.00376 0
M  V30 207 C 20.1623 -0.975387 -2.09177 0
M  V30 208 C 21.1323 0.0990615 -1.65804 0
M  V30 209 O 22.3173 -0.0483147 -1.90739 0
M  V30 210 C 19.4573 -0.547507 -3.40729 0
M  V30 211 C 18.5703 -1.69153 -3.97506 0
M  V30 212 C 17.7053 -1.2127 -5.17172 0
M  V30 213 C 16.7443 -2.32897 -5.66061 0
M  V30 214 N 15.8813 -1.86138 -6.76976 0
M  V30 215 H 20.7213 -1.9068 -2.29009 0
M  V30 216 H 18.2583 -0.950257 -1.12288 0
M  V30 217 H 20.2163 -0.280667 -4.16255 0
M  V30 218 H 18.8463 0.346904 -3.20931 0
M  V30 219 H 17.8983 -2.07298 -3.18954 0
M  V30 220 H 19.2103 -2.5316 -4.29781 0
M  V30 221 H 18.3643 -0.902591 -5.99948 0
M  V30 222 H 17.1033 -0.342692 -4.86495 0
M  V30 223 H 16.1083 -2.64709 -4.81881 0
M  V30 224 H 17.3333 -3.20396 -5.98768 0
M  V30 225 H 15.2793 -1.01484 -6.48103 0
M  V30 226 H 15.1963 -2.63717 -7.08512 0
M  V30 227 H 16.4643 -1.58165 -7.63285 0
M  V30 228 N 20.6934 1.19889 -1.02296 0
M  V30 229 C 21.6034 2.26571 -0.608508 0
M  V30 230 C 22.6194 1.70299 0.356964 0
M  V30 231 O 23.7954 2.00235 0.216326 0
M  V30 232 C 20.8604 3.46677 0.0402814 0
M  V30 233 C 19.9214 4.18153 -0.97194 0
M  V30 234 C 19.1544 5.32525 -0.354016 0
M  V30 235 O 19.3774 5.64112 0.844604 0
M  V30 236 O 18.3114 5.92242 -1.07391 0
M  V30 237 H 22.1374 2.64251 -1.49684 0
M  V30 238 H 19.7224 1.26629 -0.792809 0
M  V30 239 H 21.6044 4.19475 0.402324 0
M  V30 240 H 20.2794 3.10858 0.902707 0
M  V30 241 H 19.1864 3.47499 -1.38546 0
M  V30 242 H 20.5194 4.57927 -1.80454 0
M  V30 243 N 22.1715 0.800033 1.35784 0
M  V30 244 C 23.4015 0.389041 2.02904 0
M  V30 245 C 23.8095 -1.0027 1.60445 0
M  V30 246 O 23.1525 -1.65633 0.794453 0
M  V30 247 C 23.2145 0.385495 3.57427 0
M  V30 248 C 22.8785 1.72662 4.23127 0
M  V30 249 C 23.8755 2.68385 4.4527 0
M  V30 250 C 21.5605 2.00883 4.60381 0
M  V30 251 C 23.5545 3.90517 5.03761 0
M  V30 252 C 21.2415 3.2328 5.18588 0
M  V30 253 C 22.2395 4.17915 5.40218 0
M  V30 254 O 21.9275 5.38153 5.97199 0
M  V30 255 H 21.6595 0.157032 0.657508 0
M  V30 256 H 24.2135 1.08311 1.74522 0
M  V30 257 H 22.4435 -0.365128 3.84972 0
M  V30 258 H 24.1325 -0.00228296 4.059 0
M  V30 259 H 24.8985 2.47872 4.16874 0
M  V30 260 H 20.7775 1.28037 4.42863 0
M  V30 261 H 24.3215 4.64395 5.2056 0
M  V30 262 H 20.2185 3.43667 5.4641 0
M  V30 263 H 20.9865 5.3936 6.15656 0
M  V30 264 N 23.6496 -1.47581 0.552962 0
M  V30 265 C 24.5796 -2.32762 -0.185451 0
M  V30 266 C 25.5606 -1.43527 -0.912905 0
M  V30 267 O 26.7456 -1.72388 -0.894201 0
M  V30 268 C 23.8756 -3.25219 -1.21859 0
M  V30 269 C 22.8296 -4.23661 -0.607864 0
M  V30 270 C 22.1556 -5.05413 -1.74533 0
M  V30 271 C 23.4556 -5.20481 0.435582 0
M  V30 272 H 25.1496 -2.94749 0.525684 0
M  V30 273 H 22.6956 -1.41738 0.254251 0
M  V30 274 H 24.6486 -3.8365 -1.7433 0
M  V30 275 H 23.3726 -2.61279 -1.95961 0
M  V30 276 H 22.0316 -3.66451 -0.104489 0
M  V30 277 H 21.6796 -4.3788 -2.47529 0
M  V30 278 H 21.3796 -5.72059 -1.34249 0
M  V30 279 H 22.9036 -5.66701 -2.27338 0
M  V30 280 H 24.3176 -5.733 -0.00290157 0
M  V30 281 H 22.7146 -5.95305 0.757067 0
M  V30 282 H 23.7846 -4.66217 1.33303 0
M  V30 283 N 25.1277 -0.289203 -1.54924 0
M  V30 284 C 26.0597 0.625583 -2.20497 0
M  V30 285 C 27.0727 1.10667 -1.19402 0
M  V30 286 O 28.2617 1.02615 -1.46056 0
M  V30 287 C 25.3617 1.86702 -2.82835 0
M  V30 288 C 24.5347 1.5304 -4.09753 0
M  V30 289 C 23.5937 2.62576 -4.56005 0
M  V30 290 O 22.6197 2.28167 -5.21468 0
M  V30 291 N 23.8217 3.92901 -4.27328 0
M  V30 292 H 26.5867 0.0642801 -2.99631 0
M  V30 293 H 24.1477 -0.110896 -1.6152 0
M  V30 294 H 26.1397 2.59304 -3.10715 0
M  V30 295 H 24.7097 2.33702 -2.07611 0
M  V30 296 H 23.9297 0.637564 -3.8901 0
M  V30 297 H 25.2177 1.28072 -4.92418 0
M  V30 298 H 24.6157 4.23671 -3.74859 0
M  V30 299 H 23.1727 4.61837 -4.59946 0
M  V30 300 N 26.6058 1.57591 -0.0167156 0
M  V30 301 C 27.5538 2.10604 0.987353 0
M  V30 302 C 28.5478 1.02977 1.34507 0
M  V30 303 O 29.7538 1.21425 1.32875 0
M  V30 304 H 26.1288 0.672695 0.336134 0
M  V30 305 H 28.0998 2.93925 0.514817 0
M  V30 306 C 26.8488 2.6382 2.26483 0
M  V30 307 H 26.1718 3.46278 1.99829 0
M  V30 308 H 27.6118 3.04573 2.94977 0
M  V30 309 C 26.0708 1.55992 2.9861 0
M  V30 310 O 26.6008 0.952521 3.90243 0
M  V30 311 N 24.8068 1.28335 2.60727 0
M  V30 312 H 24.3538 1.77914 1.86291 0
M  V30 313 H 24.3118 0.564115 3.09298 0
M  V30 314 N 28.0839 -0.256276 1.55502 0
M  V30 315 C 29.0139 -1.32102 1.92539 0
M  V30 316 C 29.9949 -1.50684 0.789194 0
M  V30 317 O 31.1799 -1.63449 1.04872 0
M  V30 318 C 28.3099 -2.67752 2.21192 0
M  V30 319 C 27.2639 -2.63878 3.36975 0
M  V30 320 C 26.5899 -4.03236 3.51147 0
M  V30 321 C 27.8899 -2.21682 4.72921 0
M  V30 322 H 29.5839 -1.01351 2.81724 0
M  V30 323 H 27.1299 -0.486105 1.35547 0
M  V30 324 H 29.0829 -3.42365 2.45691 0
M  V30 325 H 27.8069 -3.0012 1.28824 0
M  V30 326 H 26.4659 -1.91722 3.12471 0
M  V30 327 H 26.1139 -4.32854 2.56216 0
M  V30 328 H 25.8139 -4.01535 4.29003 0
M  V30 329 H 27.3379 -4.79563 3.77957 0
M  V30 330 H 28.7519 -2.86023 4.96854 0
M  V30 331 H 27.1489 -2.3111 5.53812 0
M  V30 332 H 28.2189 -1.16833 4.70615 0
M  V30 333 N 29.562 -1.4872 -0.521534 0
M  V30 334 C 30.51 -1.64328 -1.64618 0
M  V30 335 C 31.504 -0.50953 -1.61555 0
M  V30 336 O 32.71 -0.688525 -1.66311 0
M  V30 337 H 29.085 -0.517805 -0.545328 0
M  V30 338 H 31.056 -2.58767 -1.48601 0
M  V30 339 C 29.805 -1.70805 -3.02855 0
M  V30 340 H 29.128 -2.5741 -3.05909 0
M  V30 341 H 30.568 -1.85766 -3.81139 0
M  V30 342 C 29.027 -0.448479 -3.33902 0
M  V30 343 O 29.557 0.434928 -3.99339 0
M  V30 344 N 27.763 -0.317616 -2.88859 0
M  V30 345 H 27.31 -1.03748 -2.35784 0
M  V30 346 H 27.268 0.524113 -3.10001 0
M  V30 347 N 31.0401 0.771051 -1.3745 0
M  V30 348 C 32.3171 1.519 -1.23231 0
M  V30 349 C 32.6971 2.10383 0.173809 0
M  V30 350 O 32.0451 1.95583 1.18151 0
M  V30 351 C 32.2551 2.59933 -2.32886 0
M  V30 352 C 33.6031 3.27316 -2.70461 0
M  V30 353 O 34.6271 2.70228 -2.32068 0
M  V30 354 O 33.4861 4.30531 -3.36608 0
M  V30 355 H 30.5801 0.672803 -0.480901 0
M  V30 356 H 33.1261 0.807957 -1.49232 0
M  V30 357 H 31.8981 2.14842 -3.27045 0
M  V30 358 H 31.5211 3.38637 -2.08353 0
M  V30 359 N 32.5182 1.22032 0.997298 0
M  V30 360 C 33.7462 1.06841 1.7718 0
M  V30 361 C 34.1612 -0.381325 1.84909 0
M  V30 362 O 33.5182 -1.26437 1.31605 0
M  V30 363 C 33.5692 1.66814 3.20711 0
M  V30 364 O 33.2902 3.06116 3.13408 0
M  V30 365 C 34.7912 1.56838 4.14628 0
M  V30 366 H 32.0112 0.374782 0.556578 0
M  V30 367 H 34.5552 1.61532 1.2541 0
M  V30 368 H 32.7102 1.16196 3.69564 0
M  V30 369 H 33.1242 3.34926 4.0364 0
M  V30 370 H 34.5982 2.03532 5.13107 0
M  V30 371 H 35.0752 0.524155 4.36061 0
M  V30 372 H 35.6812 2.06741 3.7167 0
M  V30 373 N 33.9963 -1.19345 1.0293 0
M  V30 374 C 34.9263 -2.2481 0.631105 0
M  V30 375 C 35.9073 -1.66245 -0.360104 0
M  V30 376 O 37.0923 -1.92677 -0.242726 0
M  V30 377 C 34.2223 -3.47295 -0.0184607 0
M  V30 378 C 33.1763 -4.18536 0.895073 0
M  V30 379 C 32.5023 -5.34586 0.110592 0
M  V30 380 C 33.8023 -4.73287 2.209 0
M  V30 381 H 35.4963 -2.58372 1.51275 0
M  V30 382 H 33.0423 -1.24194 0.728818 0
M  V30 383 H 34.9953 -4.20268 -0.308675 0
M  V30 384 H 33.7193 -3.12933 -0.934907 0
M  V30 385 H 32.3783 -3.47446 1.16949 0
M  V30 386 H 32.0263 -4.96469 -0.807902 0
M  V30 387 H 31.7263 -5.83183 0.719087 0
M  V30 388 H 33.2503 -6.10355 -0.172871 0
M  V30 389 H 34.6643 -5.38013 1.98028 0
M  V30 390 H 33.0613 -5.32373 2.76946 0
M  V30 391 H 34.1313 -3.91331 2.86336 0
M  V30 392 N 35.4744 -0.807222 -1.35358 0
M  V30 393 C 36.4044 -0.232509 -2.3234 0
M  V30 394 C 37.3854 0.642386 -1.57504 0
M  V30 395 O 38.5704 0.572526 -1.85569 0
M  V30 396 C 35.7004 0.619238 -3.41735 0
M  V30 397 C 34.6544 -0.157215 -4.27711 0
M  V30 398 C 33.9804 0.816273 -5.28433 0
M  V30 399 C 35.2804 -1.35656 -5.04376 0
M  V30 400 H 36.9744 -1.04276 -2.80654 0
M  V30 401 H 34.5204 -0.50288 -1.34934 0
M  V30 402 H 36.4734 1.03137 -4.08584 0
M  V30 403 H 35.1974 1.46239 -2.92031 0
M  V30 404 H 33.8564 -0.550525 -3.62443 0
M  V30 405 H 33.5044 1.65494 -4.74996 0
M  V30 406 H 33.2044 0.301067 -5.86828 0
M  V30 407 H 34.7284 1.22659 -5.98153 0
M  V30 408 H 36.1424 -1.01927 -5.64166 0
M  V30 409 H 34.5394 -1.8063 -5.7227 0
M  V30 410 H 35.6094 -2.14288 -4.34981 0
M  V30 411 N 36.9525 1.47285 -0.560781 0
M  V30 412 C 37.8625 2.33846 0.187954 0
M  V30 413 C 38.8785 1.48412 0.908293 0
M  V30 414 O 40.0545 1.81332 0.876388 0
M  V30 415 C 37.1195 3.25178 1.2025 0
M  V30 416 C 36.1805 4.26504 0.489208 0
M  V30 417 C 35.4135 5.13472 1.45542 0
M  V30 418 O 35.6365 5.02959 2.6905 0
M  V30 419 O 34.5705 5.93902 0.977963 0
M  V30 420 H 38.3965 2.99177 -0.522177 0
M  V30 421 H 35.9815 1.45903 -0.321364 0
M  V30 422 H 37.8635 3.81584 1.78805 0
M  V30 423 H 36.5385 2.6247 1.89449 0
M  V30 424 H 35.4455 3.73847 -0.137627 0
M  V30 425 H 36.7785 4.91935 -0.161399 0
M  V30 426 N 38.4306 0.297415 1.54768 0
M  V30 427 C 39.3606 -0.573494 2.26348 0
M  V30 428 C 40.3416 -1.14085 1.26169 0
M  V30 429 O 41.5266 -1.17086 1.54934 0
M  V30 430 C 38.6566 -1.74716 3.00153 0
M  V30 431 C 37.6106 -1.31032 4.07449 0
M  V30 432 C 36.9366 -2.56887 4.68949 0
M  V30 433 C 38.2366 -0.444183 5.20408 0
M  V30 434 H 39.9306 0.0235131 2.99391 0
M  V30 435 H 37.4766 0.0127488 1.43994 0
M  V30 436 H 39.4296 -2.3625 3.48947 0
M  V30 437 H 38.1536 -2.37035 2.24682 0
M  V30 438 H 36.8126 -0.718066 3.59499 0
M  V30 439 H 36.4606 -3.17512 3.90122 0
M  V30 440 H 36.1606 -2.2836 5.41411 0
M  V30 441 H 37.6846 -3.19229 5.20505 0
M  V30 442 H 39.0986 -0.9651 5.65118 0
M  V30 443 H 37.4956 -0.252846 5.99567 0
M  V30 444 H 38.5656 0.531609 4.81977 0
M  V30 445 N 39.9087 -1.5758 0.0250728 0
M  V30 446 C 40.8187 -2.1343 -0.973905 0
M  V30 447 C 41.8347 -1.08556 -1.35984 0
M  V30 448 O 43.0107 -1.40592 -1.44207 0
M  V30 449 C 40.0757 -2.64703 -2.23904 0
M  V30 450 C 39.1367 -3.84276 -1.91391 0
M  V30 451 C 38.3697 -4.33095 -3.11873 0
M  V30 452 O 38.5927 -3.81107 -4.24398 0
M  V30 453 O 37.5267 -5.24984 -2.94406 0
M  V30 454 H 41.3527 -2.99057 -0.529036 0
M  V30 455 H 38.9377 -1.48118 -0.195288 0
M  V30 456 H 40.8197 -2.97769 -2.98181 0
M  V30 457 H 39.4947 -1.82161 -2.6758 0
M  V30 458 H 38.4017 -3.56143 -1.14511 0
M  V30 459 H 39.7347 -4.67968 -1.52534 0
M  V30 460 N 41.3868 0.248026 -1.55636 0
M  V30 461 C 42.3338 1.30707 -1.90222 0
M  V30 462 C 43.3038 1.47881 -0.756332 0
M  V30 463 O 44.4888 1.61883 -1.00988 0
M  V30 464 C 41.6288 2.65769 -2.20138 0
M  V30 465 C 40.7418 2.56612 -3.47526 0
M  V30 466 C 39.8768 3.8402 -3.67017 0
M  V30 467 C 38.9158 3.69476 -4.8801 0
M  V30 468 N 38.0528 4.88774 -5.04029 0
M  V30 469 H 42.8928 1.00512 -2.80538 0
M  V30 470 H 40.4298 0.485055 -1.38873 0
M  V30 471 H 42.3878 3.44386 -2.35487 0
M  V30 472 H 41.0178 2.94115 -1.33027 0
M  V30 473 H 40.0698 1.69571 -3.40514 0
M  V30 474 H 41.3818 2.41774 -4.36287 0
M  V30 475 H 40.5358 4.7108 -3.8232 0
M  V30 476 H 39.2748 4.01754 -2.76487 0
M  V30 477 H 38.2798 2.80799 -4.72686 0
M  V30 478 H 39.5048 3.53238 -5.8 0
M  V30 479 H 37.4508 5.0687 -4.16435 0
M  V30 480 H 37.3678 4.76562 -5.86877 0
M  V30 481 H 38.6358 5.77335 -5.23741 0
M  V30 482 N 42.8649 1.48995 0.513639 0
M  V30 483 C 43.8129 1.65199 1.63744 0
M  V30 484 C 44.8069 0.51809 1.61283 0
M  V30 485 O 46.0129 0.697335 1.65943 0
M  V30 486 H 42.3879 0.52069 0.542574 0
M  V30 487 H 44.3589 2.59552 1.47226 0
M  V30 488 C 43.1079 1.72409 3.01945 0
M  V30 489 H 42.4309 2.59029 3.04539 0
M  V30 490 H 43.8709 1.87785 3.80148 0
M  V30 491 C 42.3299 0.46618 3.33659 0
M  V30 492 O 42.8599 -0.413744 3.99564 0
M  V30 493 N 41.0659 0.332931 2.88687 0
M  V30 494 H 40.6129 1.04996 2.35231 0
M  V30 495 H 40.5709 -0.507665 3.10274 0
M  V30 496 N 44.343 -0.763751 1.37857 0
M  V30 497 C 45.754 -1.3405 1.29952 0
M  V30 498 C 46.105 -1.96138 -0.0492898 0
M  V30 499 O 45.23 -1.94372 -0.951239 0
M  V30 500 C 45.825 -2.43729 2.35333 0
M  V30 501 C 44.384 -2.97151 2.31037 0
M  V30 502 C 43.531 -1.70438 2.18738 0
M  V30 503 H 46.482 -0.563396 1.48363 0
M  V30 504 H 46.503 -3.23412 2.00462 0
M  V30 505 H 46.015 -1.9851 3.33489 0
M  V30 506 H 44.116 -3.46724 1.3643 0
M  V30 507 H 44.229 -3.52221 3.24772 0
M  V30 508 H 42.593 -1.93673 1.65418 0
M  V30 509 H 43.376 -1.27312 3.18821 0
M  V30 510 N 45.8211 -1.22559 -0.990812 0
M  V30 511 C 46.7311 -1.01394 -2.11557 0
M  V30 512 C 47.7471 0.0383962 -1.73958 0
M  V30 513 O 48.9231 -0.154787 -2.00804 0
M  V30 514 C 45.9881 -0.596569 -3.41529 0
M  V30 515 C 45.0491 -1.72276 -3.93217 0
M  V30 516 C 44.2821 -1.32521 -5.16985 0
M  V30 517 O 44.5051 -0.204909 -5.70032 0
M  V30 518 O 43.4391 -2.14247 -5.62478 0
M  V30 519 H 47.2651 -1.95633 -2.32296 0
M  V30 520 H 44.8501 -1.01172 -1.0993 0
M  V30 521 H 46.7321 -0.374263 -4.19735 0
M  V30 522 H 45.4071 0.316939 -3.22145 0
M  V30 523 H 44.3141 -1.99961 -3.16174 0
M  V30 524 H 45.6471 -2.61421 -4.17037 0
M  V30 525 N 47.2992 1.18797 -1.03562 0
M  V30 526 C 48.5762 1.84469 -0.650434 0
M  V30 527 C 48.9562 1.92319 0.870433 0
M  V30 528 O 48.3042 1.44528 1.76986 0
M  V30 529 C 48.5142 3.2306 -1.32036 0
M  V30 530 C 49.8622 3.9915 -1.44792 0
M  V30 531 O 50.8862 3.32481 -1.27806 0
M  V30 532 O 49.7452 5.18587 -1.72423 0
M  V30 533 H 46.8392 0.795251 -0.226946 0
M  V30 534 H 49.3852 1.26231 -1.13419 0
M  V30 535 H 48.1572 3.1222 -2.3587 0
M  V30 536 H 47.7802 3.88949 -0.8249 0
M  V30 537 N 48.7773 0.814389 1.34928 0
M  V30 538 C 49.7103 0.175641 2.27523 0
M  V30 539 C 50.6883 -0.662953 1.48471 0
M  V30 540 O 51.8723 -0.628545 1.77712 0
M  V30 541 C 48.9993 -0.755516 3.30166 0
M  V30 542 C 48.0453 0.00445305 4.265 0
M  V30 543 S 48.8783 1.34582 5.18313 0
M  V30 544 C 50.0343 0.419315 6.24494 0
M  V30 545 H 50.2673 0.960691 2.8135 0
M  V30 546 H 47.8003 0.609846 1.41846 0
M  V30 547 H 49.7583 -1.28723 3.89796 0
M  V30 548 H 48.4193 -1.51402 2.75202 0
M  V30 549 H 47.6123 -0.703077 4.99072 0
M  V30 550 H 47.2143 0.466447 3.7108 0
M  V30 551 H 49.5063 -0.392432 6.76362 0
M  V30 552 H 50.4493 1.11446 6.99275 0
M  V30 553 H 50.8573 0.0115389 5.64499 0
M  V30 554 N 50.2554 -1.46986 0.568584 0
M  V30 555 C 51.1654 -2.33942 -0.17555 0
M  V30 556 C 52.1814 -1.48891 -0.90041 0
M  V30 557 O 53.3574 -1.81794 -0.86676 0
M  V30 558 C 50.4224 -3.25811 -1.18524 0
M  V30 559 C 49.4834 -4.26757 -0.466582 0
M  V30 560 C 48.7164 -5.14236 -1.42817 0
M  V30 561 O 48.9394 -5.04379 -2.66379 0
M  V30 562 O 47.8734 -5.94412 -0.946453 0
M  V30 563 H 51.6994 -2.98896 0.538036 0
M  V30 564 H 49.2844 -1.4573 0.329097 0
M  V30 565 H 51.1664 -3.82527 -1.76779 0
M  V30 566 H 49.8414 -2.63471 -1.88055 0
M  V30 567 H 48.7484 -3.73769 0.157451 0
M  V30 568 H 50.0814 -4.91843 0.187485 0
M  V30 569 N 51.7335 -0.305618 -1.54608 0
M  V30 570 C 52.6635 0.561482 -2.26649 0
M  V30 571 C 53.6445 1.13415 -1.26772 0
M  V30 572 O 54.8295 1.16262 -1.55553 0
M  V30 573 C 51.9595 1.73122 -3.01075 0
M  V30 574 C 50.9135 1.2887 -4.08138 0
M  V30 575 C 50.2395 2.54396 -4.70305 0
M  V30 576 C 51.5395 0.416578 -5.20636 0
M  V30 577 H 53.2335 -0.0393902 -2.99374 0
M  V30 578 H 50.7795 -0.020385 -1.43986 0
M  V30 579 H 52.7325 2.34396 -3.50195 0
M  V30 580 H 51.4565 2.3584 -2.25936 0
M  V30 581 H 50.1155 0.698991 -3.59875 0
M  V30 582 H 49.7635 3.15439 -3.918 0
M  V30 583 H 49.4635 2.25486 -5.42614 0
M  V30 584 H 50.9875 3.16464 -5.2219 0
M  V30 585 H 52.4015 0.935116 -5.65622 0
M  V30 586 H 50.7985 0.221046 -5.99693 0
M  V30 587 H 51.8685 -0.557162 -4.81688 0
M  V30 588 N 53.2116 1.57565 -0.0334293 0
M  V30 589 C 54.4606 1.91155 0.643639 0
M  V30 590 C 54.7736 0.91192 1.73042 0
M  V30 591 O 55.9796 1.13923 2.46442 0
M  V30 592 C 54.4356 3.39443 1.1961 0
M  V30 593 C 54.0436 4.47774 0.142381 0
M  V30 594 C 55.7876 3.82094 1.84944 0
M  V30 595 C 53.6946 5.87162 0.706727 0
M  V30 596 H 52.6246 0.713368 0.244176 0
M  V30 597 H 55.2756 1.8323 -0.0994323 0
M  V30 598 H 53.6576 3.42313 1.99092 0
M  V30 599 H 54.8316 4.56469 -0.630296 0
M  V30 600 H 53.1466 4.14352 -0.412446 0
M  V30 601 H 55.7436 4.83591 2.2813 0
M  V30 602 H 56.0866 3.17386 2.69392 0
M  V30 603 H 56.6196 3.81665 1.12145 0
M  V30 604 H 53.3586 6.55424 -0.0997178 0
M  V30 605 H 52.8786 5.82064 1.44779 0
M  V30 606 H 54.5576 6.35866 1.19514 0
M  V30 607 N 54.6897 -0.239769 1.55765 0
M  V30 608 C 55.6377 -1.31668 1.91745 0
M  V30 609 C 56.6317 -1.49462 0.797338 0
M  V30 610 O 57.8377 -1.50852 0.982021 0
M  V30 611 H 54.2127 -0.441048 0.609082 0
M  V30 612 H 56.1837 -0.985923 2.81642 0
M  V30 613 C 54.9327 -2.66368 2.2348 0
M  V30 614 H 54.2557 -2.53478 3.09175 0
M  V30 615 H 55.6957 -3.40578 2.52553 0
M  V30 616 C 54.1547 -3.20002 1.05359 0
M  V30 617 O 54.6847 -4.00538 0.305261 0
M  V30 618 N 52.8907 -2.78126 0.842292 0
M  V30 619 H 52.4377 -2.12742 1.45253 0
M  V30 620 H 52.3957 -3.14354 0.053652 0
M  V30 621 N 56.1678 -1.49265 -0.50573 0
M  V30 622 C 57.0778 -1.68312 -1.63427 0
M  V30 623 C 58.0938 -0.565682 -1.64548 0
M  V30 624 O 59.2698 -0.839801 -1.83055 0
M  V30 625 C 56.3348 -1.74107 -2.99813 0
M  V30 626 C 55.3958 -2.97653 -3.09356 0
M  V30 627 C 54.6288 -3.03163 -4.39236 0
M  V30 628 O 54.8518 -2.16396 -5.27758 0
M  V30 629 O 53.7858 -3.9558 -4.53652 0
M  V30 630 H 57.6118 -2.63907 -1.50289 0
M  V30 631 H 55.1968 -1.32951 -0.681502 0
M  V30 632 H 57.0788 -1.803 -3.80881 0
M  V30 633 H 55.7538 -0.816901 -3.13223 0
M  V30 634 H 54.6608 -2.96981 -2.27493 0
M  V30 635 H 55.9938 -3.89535 -3.00871 0
M  V30 636 N 57.6459 0.756429 -1.3826 0
M  V30 637 C 58.6089 1.85176 -1.35065 0
M  V30 638 C 59.6089 1.58818 -0.251703 0
M  V30 639 O 60.7989 1.66615 -0.508433 0
M  V30 640 C 57.9309 3.22596 -1.10201 0
M  V30 641 H 59.1239 1.89417 -2.3251 0
M  V30 642 H 56.6769 0.95783 -1.23512 0
M  V30 643 H 57.4119 3.24025 -0.133504 0
M  V30 644 H 57.1969 3.43122 -1.89762 0
M  V30 645 H 58.6869 4.02673 -1.10654 0
M  V30 646 N 59.124 1.23083 0.984299 0
M  V30 647 C 60.371 1.06057 1.72505 0
M  V30 648 C 60.699 -0.403105 1.90277 0
M  V30 649 O 59.954 -1.3149 1.44944 0
M  V30 650 C 60.253 1.72673 3.1292 0
M  V30 651 C 59.919 3.22586 3.15038 0
M  V30 652 C 58.581 3.63489 3.15324 0
M  V30 653 C 60.933 4.185 3.10657 0
M  V30 654 C 58.261 4.98772 3.08939 0
M  V30 655 C 60.613 5.53769 3.05814 0
M  V30 656 C 59.277 5.94041 3.04419 0
M  V30 657 H 58.547 0.388091 0.631242 0
M  V30 658 H 61.194 1.52963 1.15215 0
M  V30 659 H 59.499 1.18116 3.73572 0
M  V30 660 H 61.196 1.56982 3.68996 0
M  V30 661 H 57.786 2.90022 3.15571 0
M  V30 662 H 61.97 3.87911 3.09579 0
M  V30 663 H 57.226 5.29193 3.0621 0
M  V30 664 H 61.4 6.27808 3.0138 0
M  V30 665 H 59.027 6.98833 2.99227 0
M  V30 666 N 60.6021 -1.18246 1.0419 0
M  V30 667 C 62.0181 -1.40269 0.761366 0
M  V30 668 C 62.2181 -1.90777 -0.648578 0
M  V30 669 O 61.2741 -2.0929 -1.41258 0
M  V30 670 C 62.5871 -2.40237 1.8085 0
M  V30 671 C 64.1351 -2.53961 1.82955 0
M  V30 672 C 64.6101 -3.57194 2.86664 0
M  V30 673 N 66.1011 -3.64702 2.85563 0
M  V30 674 C 66.8361 -4.44309 3.6246 0
M  V30 675 N 66.3321 -5.27514 4.49111 0
M  V30 676 N 68.1251 -4.39084 3.50944 0
M  V30 677 H 60.2761 -0.837882 1.95175 0
M  V30 678 H 62.5391 -0.430608 0.84456 0
M  V30 679 H 62.2451 -2.10176 2.81991 0
M  V30 680 H 62.1191 -3.39601 1.64168 0
M  V30 681 H 64.5061 -2.83338 0.824855 0
M  V30 682 H 64.5871 -1.54706 2.03715 0
M  V30 683 H 64.2311 -3.28558 3.87314 0
M  V30 684 H 64.1611 -4.5613 2.6316 0
M  V30 685 H 66.6521 -3.05289 2.22727 0
M  V30 686 H 66.9651 -5.85411 5.04493 0
M  V30 687 H 65.3101 -5.2693 4.53178 0
M  V30 688 H 68.5011 -3.7313 2.82651 0
M  V30 689 H 68.6741 -5.00883 4.11121 0
M  V30 690 N 62.0802 -0.821533 -1.34494 0
M  V30 691 C 63.0432 -0.247847 -2.27856 0
M  V30 692 C 64.0432 0.573453 -1.50227 0
M  V30 693 O 65.2332 0.389759 -1.69784 0
M  V30 694 C 62.3652 0.652698 -3.34593 0
M  V30 695 H 63.5582 -1.07146 -2.80107 0
M  V30 696 H 61.1112 -0.593291 -1.44602 0
M  V30 697 H 61.8462 1.49943 -2.87555 0
M  V30 698 H 61.6312 0.065292 -3.92046 0
M  V30 699 H 63.1212 1.04793 -4.04238 0
M  V30 700 N 63.5583 1.46682 -0.576371 0
M  V30 701 C 64.4883 2.33028 0.148397 0
M  V30 702 C 65.4693 1.44961 0.889956 0
M  V30 703 O 66.6543 1.73789 0.866662 0
M  V30 704 C 63.7843 3.27117 1.1667 0
M  V30 705 C 62.7383 4.24575 0.540386 0
M  V30 706 C 62.0643 5.08126 1.6647 0
M  V30 707 C 63.3643 5.19722 -0.518331 0
M  V30 708 H 65.0583 2.93875 -0.572509 0
M  V30 709 H 62.6043 1.41315 -0.276768 0
M  V30 710 H 64.5573 3.86374 1.68204 0
M  V30 711 H 63.2813 2.64364 1.9178 0
M  V30 712 H 61.9403 3.66571 0.0461769 0
M  V30 713 H 61.5883 4.41762 2.40531 0
M  V30 714 H 61.2883 5.74122 1.25131 0
M  V30 715 H 62.8123 5.70246 2.18293 0
M  V30 716 H 64.2263 5.73232 -0.0883058 0
M  V30 717 H 62.6233 5.94026 -0.851679 0
M  V30 718 H 63.6933 4.64037 -1.40703 0
M  V30 719 N 65.0364 0.313813 1.54444 0
M  V30 720 C 65.9864 -0.571898 2.20711 0
M  V30 721 C 66.9704 -1.08913 1.18435 0
M  V30 722 O 68.1624 -1.02777 1.44104 0
M  V30 723 C 65.2914 -1.7371 2.96108 0
M  V30 724 C 64.3774 -1.23522 4.05713 0
M  V30 725 N 64.7684 -0.452288 5.03774 0
M  V30 726 C 63.0664 -1.51482 4.19487 0
M  V30 727 C 63.7674 -0.183438 5.81411 0
M  V30 728 N 62.7434 -0.766845 5.38164 0
M  V30 729 H 66.5454 0.0336802 2.93881 0
M  V30 730 H 64.0594 0.119192 1.61962 0
M  V30 731 H 66.0564 -2.38329 3.4206 0
M  V30 732 H 64.7164 -2.34625 2.24458 0
M  V30 733 H 65.7274 -0.0960131 5.17811 0
M  V30 734 H 62.4044 -2.13053 3.59047 0
M  V30 735 H 63.7944 0.446216 6.70417 0
M  V30 736 N 66.5145 -1.57545 0.0417849 0
M  V30 737 C 67.7425 -1.96624 -0.643928 0
M  V30 738 C 68.1575 -0.918897 -1.64929 0
M  V30 739 O 67.5145 0.0979323 -1.82237 0
M  V30 740 C 67.5655 -3.35781 -1.33914 0
M  V30 741 O 67.2865 -4.365 -0.374048 0
M  V30 742 C 68.7875 -3.89566 -2.1155 0
M  V30 743 H 66.0075 -0.647316 -0.176702 0
M  V30 744 H 68.5515 -2.04229 0.105304 0
M  V30 745 H 66.7065 -3.29357 -2.03968 0
M  V30 746 H 67.1205 -5.17248 -0.869179 0
M  V30 747 H 68.5945 -4.89242 -2.55628 0
M  V30 748 H 69.0715 -3.24488 -2.9598 0
M  V30 749 H 69.6775 -3.99298 -1.46427 0
M  V30 750 N 67.9926 0.231505 -1.5589 0
M  V30 751 C 68.9226 1.29022 -1.94617 0
M  V30 752 C 69.9036 1.4941 -0.813067 0
M  V30 753 O 71.0886 1.6176 -1.07459 0
M  V30 754 C 68.2186 2.64199 -2.25424 0
M  V30 755 C 67.1726 2.58484 -3.41131 0
M  V30 756 C 66.4986 3.97599 -3.57518 0
M  V30 757 C 67.7986 2.1413 -4.76388 0
M  V30 758 H 69.4926 0.968563 -2.83301 0
M  V30 759 H 67.0386 0.464479 -1.36303 0
M  V30 760 H 68.9916 3.38413 -2.51107 0
M  V30 761 H 67.7156 2.98032 -1.33583 0
M  V30 762 H 66.3746 1.86727 -3.15481 0
M  V30 763 H 66.0226 4.28723 -2.6307 0
M  V30 764 H 65.7226 3.94659 -4.35337 0
M  V30 765 H 67.2466 4.7349 -3.85538 0
M  V30 766 H 68.6606 2.78083 -5.01341 0
M  V30 767 H 67.0576 2.2227 -5.57419 0
M  V30 768 H 68.1276 1.09331 -4.72414 0
M  V30 769 N 69.4707 1.49531 0.497807 0
M  V30 770 C 70.4177 1.66436 1.59899 0
M  V30 771 C 71.3877 0.505793 1.58212 0
M  V30 772 O 72.5727 0.733202 1.7615 0
M  V30 773 C 69.7127 1.7399 2.98029 0
M  V30 774 C 68.8257 3.01172 3.09708 0
M  V30 775 C 67.9607 2.99686 4.38591 0
M  V30 776 C 66.9997 4.21434 4.43914 0
M  V30 777 N 66.1367 4.1784 5.64229 0
M  V30 778 H 70.9767 2.60459 1.44793 0
M  V30 779 H 68.5137 1.29137 0.704423 0
M  V30 780 H 70.4717 1.76352 3.78095 0
M  V30 781 H 69.1017 0.834301 3.11832 0
M  V30 782 H 68.1537 3.08408 2.22685 0
M  V30 783 H 69.4657 3.91165 3.09502 0
M  V30 784 H 68.6197 3.00628 5.2698 0
M  V30 785 H 67.3587 2.07477 4.41367 0
M  V30 786 H 66.3637 4.20733 3.53926 0
M  V30 787 H 67.5887 5.14839 4.42851 0
M  V30 788 H 65.5347 3.28469 5.67841 0
M  V30 789 H 65.4517 5.01571 5.65652 0
M  V30 790 H 66.7197 4.22889 6.54817 0
M  V30 791 N 70.9488 -0.749086 1.3866 0
M  V30 792 C 72.1968 -1.50535 1.34847 0
M  V30 793 C 72.5178 -1.94909 -0.0595016 0
M  V30 794 O 71.7878 -1.67973 -1.00806 0
M  V30 795 H 70.3678 -0.558395 0.49619 0
M  V30 796 H 73.0298 -0.890165 1.73384 0
M  V30 797 H 72.1258 -2.39413 2.00219 0
M  V30 798 N 72.4269 -1.23603 -0.977757 0
M  V30 799 C 73.3599 -0.962772 -2.06896 0
M  V30 800 C 74.3379 0.0998743 -1.62293 0
M  V30 801 O 75.5219 -0.0349421 -1.88468 0
M  V30 802 C 72.6489 -0.45095 -3.35685 0
M  V30 803 C 71.6949 -1.50061 -3.99229 0
M  V30 804 S 72.5279 -3.07884 -4.38142 0
M  V30 805 C 73.6839 -2.58378 -5.7008 0
M  V30 806 H 73.9169 -1.88677 -2.29757 0
M  V30 807 H 71.4499 -1.06876 -1.11431 0
M  V30 808 H 73.4079 -0.162261 -4.10179 0
M  V30 809 H 72.0689 0.452179 -3.10828 0
M  V30 810 H 71.2619 -1.09269 -4.92013 0
M  V30 811 H 70.8639 -1.73878 -3.31123 0
M  V30 812 H 73.1559 -2.00563 -6.47133 0
M  V30 813 H 74.0989 -3.49711 -6.15717 0
M  V30 814 H 74.5069 -1.99143 -5.28207 0
M  V30 815 N 73.905 1.17692 -1.04816 0
M  V30 816 C 74.868 2.19787 -0.650117 0
M  V30 817 C 75.868 1.58044 0.296427 0
M  V30 818 O 77.058 1.74012 0.0808097 0
M  V30 819 C 74.19 3.40869 0.0456987 0
M  V30 820 H 75.383 2.56516 -1.5537 0
M  V30 821 H 72.936 1.31708 -0.841594 0
M  V30 822 H 73.671 3.09681 0.962726 0
M  V30 823 H 73.456 3.86928 -0.634727 0
M  V30 824 H 74.946 4.16445 0.310432 0
M  V30 825 N 75.3831 0.828654 1.34056 0
M  V30 826 C 76.6311 0.41863 1.97717 0
M  V30 827 C 76.9521 -1.02314 1.66002 0
M  V30 828 O 76.2221 -1.71119 0.953683 0
M  V30 829 H 74.8021 0.151809 0.731412 0
M  V30 830 H 77.4641 1.05936 1.63596 0
M  V30 831 H 76.5601 0.542318 3.07352 0
M  V30 832 N 76.8612 -1.46375 0.584142 0
M  V30 833 C 78.0892 -2.06761 0.0759296 0
M  V30 834 C 78.5042 -1.43266 -1.22965 0
M  V30 835 O 77.8612 -0.538458 -1.74376 0
M  V30 836 C 77.9122 -3.61375 -0.0950384 0
M  V30 837 O 77.6332 -4.22495 1.15887 0
M  V30 838 C 79.1342 -4.38693 -0.637434 0
M  V30 839 H 76.3542 -0.668479 0.0581075 0
M  V30 840 H 78.8982 -1.8798 0.805218 0
M  V30 841 H 77.0532 -3.79578 -0.774554 0
M  V30 842 H 77.4672 -5.15385 0.973598 0
M  V30 843 H 78.9412 -5.47464 -0.706237 0
M  V30 844 H 79.4182 -4.06836 -1.65472 0
M  V30 845 H 80.0242 -4.25299 0.00725967 0
M  V30 846 N 78.3393 -0.321999 -1.54275 0
M  V30 847 C 79.2723 0.58718 -2.20516 0
M  V30 848 C 80.2503 1.11693 -1.18167 0
M  V30 849 O 81.4343 1.18122 -1.46899 0
M  V30 850 C 78.5613 1.80554 -2.86562 0
M  V30 851 C 77.6073 1.40718 -4.02617 0
M  V30 852 S 78.4403 0.445218 -5.33646 0
M  V30 853 C 79.5963 1.6709 -6.03185 0
M  V30 854 H 79.8293 0.0244875 -2.9729 0
M  V30 855 H 77.3623 -0.106087 -1.54035 0
M  V30 856 H 79.3203 2.50462 -3.25237 0
M  V30 857 H 77.9813 2.33942 -2.09595 0
M  V30 858 H 77.1743 2.31501 -4.47687 0
M  V30 859 H 76.7763 0.78782 -3.65608 0
M  V30 860 H 79.0683 2.60856 -6.25268 0
M  V30 861 H 80.0113 1.26239 -6.96756 0
M  V30 862 H 80.4193 1.85716 -5.33076 0
M  V30 863 N 79.8174 1.5752 -0.0501392 0
M  V30 864 C 81.0654 1.9227 0.622642 0
M  V30 865 C 81.3864 0.929083 1.71444 0
M  V30 866 O 80.6564 -0.0262186 1.95882 0
M  V30 867 H 79.2364 0.709739 0.232981 0
M  V30 868 H 81.8984 1.94628 -0.102898 0
M  V30 869 H 80.9944 2.93479 1.06191 0
M  V30 870 N 81.2955 -0.223234 1.56011 0
M  V30 871 C 82.5425 -0.947875 1.78946 0
M  V30 872 C 82.8705 -1.844 0.618608 0
M  V30 873 O 82.1255 -1.91629 -0.397093 0
M  V30 874 C 82.4245 -1.81948 3.0762 0
M  V30 875 C 82.0905 -1.07672 4.37856 0
M  V30 876 C 80.7525 -0.871544 4.73242 0
M  V30 877 C 83.1045 -0.552081 5.18268 0
M  V30 878 C 80.4325 -0.129791 5.86556 0
M  V30 879 C 82.7845 0.17632 6.32354 0
M  V30 880 C 81.4485 0.39277 6.66343 0
M  V30 881 H 80.7185 -0.346852 0.654809 0
M  V30 882 H 83.3655 -0.216171 1.90276 0
M  V30 883 H 81.6705 -2.61899 2.91404 0
M  V30 884 H 83.3675 -2.38227 3.22566 0
M  V30 885 H 79.9575 -1.24662 4.1007 0
M  V30 886 H 84.1415 -0.698076 4.91366 0
M  V30 887 H 79.3975 0.048153 6.11381 0
M  V30 888 H 83.5715 0.590367 6.93893 0
M  V30 889 H 81.1985 0.969466 7.53993 0
M  V30 890 N 82.7736 -1.49793 -0.48987 0
M  V30 891 C 83.9986 -1.63836 -1.27172 0
M  V30 892 C 84.4236 -0.31402 -1.8546 0
M  V30 893 O 83.7816 0.719803 -1.66399 0
M  V30 894 C 83.8296 -2.71797 -2.36978 0
M  V30 895 O 82.9336 -2.31744 -3.41128 0
M  V30 896 H 82.2746 -0.547997 -0.37496 0
M  V30 897 H 84.8046 -1.96053 -0.585191 0
M  V30 898 H 84.8146 -2.94305 -2.82575 0
M  V30 899 H 83.4896 -3.67923 -1.93921 0
M  V30 900 H 82.0666 -2.1961 -3.01373 0
M  V30 901 N 84.2517 0.741722 -1.39055 0
M  V30 902 C 85.4767 1.53607 -1.39354 0
M  V30 903 C 85.9017 1.88096 0.0116905 0
M  V30 904 O 85.2597 1.5143 0.996924 0
M  V30 905 C 85.3077 2.80441 -2.26682 0
M  V30 906 O 84.4117 3.76088 -1.69208 0
M  V30 907 H 83.7527 0.464142 -0.474835 0
M  V30 908 H 86.2827 0.915665 -1.82967 0
M  V30 909 H 86.2927 3.29246 -2.40959 0
M  V30 910 H 84.9677 2.5467 -3.2881 0
M  V30 911 H 83.5447 3.34833 -1.64138 0
M  V30 912 N 85.7298 1.2412 0.971189 0
M  V30 913 C 86.6628 0.97373 2.06382 0
M  V30 914 C 87.6408 -0.0912662 1.62344 0
M  V30 915 O 88.8248 0.0449365 1.88446 0
M  V30 916 C 85.9518 0.468746 3.35441 0
M  V30 917 C 84.9978 1.52176 3.98428 0
M  V30 918 S 85.8308 3.10203 4.36503 0
M  V30 919 C 86.9868 2.61398 5.68702 0
M  V30 920 H 87.2198 1.89893 2.28753 0
M  V30 921 H 84.7528 1.07466 1.10862 0
M  V30 922 H 86.7108 0.184012 4.10087 0
M  V30 923 H 85.3718 -0.435688 3.11064 0
M  V30 924 H 84.5648 1.11876 4.91426 0
M  V30 925 H 84.1668 1.75632 3.30196 0
M  V30 926 H 86.4588 2.03992 6.4606 0
M  V30 927 H 87.4018 3.52972 6.13854 0
M  V30 928 H 87.8098 2.01941 5.27143 0
M  V30 929 N 87.2079 -1.17134 1.05439 0
M  V30 930 C 88.1709 -2.19439 0.661764 0
M  V30 931 C 89.1709 -1.58199 -0.288042 0
M  V30 932 O 90.3609 -1.74053 -0.0715803 0
M  V30 933 C 87.4929 -3.40889 -0.0276209 0
M  V30 934 H 88.6859 -2.55688 1.56728 0
M  V30 935 H 86.2389 -1.31259 0.848567 0
M  V30 936 H 86.9739 -3.10187 -0.94629 0
M  V30 937 H 86.7589 -3.86586 0.655238 0
M  V30 938 H 88.2489 -4.16603 -0.288342 0
M  V30 939 N 88.686 -0.835752 -1.33615 0
M  V30 940 C 89.633 -0.26473 -2.29277 0
M  V30 941 C 90.603 0.617712 -1.54187 0
M  V30 942 O 91.788 0.556641 -1.825 0
M  V30 943 C 88.928 0.556777 -3.40579 0
M  V30 944 C 88.041 -0.349339 -4.30585 0
M  V30 945 C 87.176 0.482969 -5.29 0
M  V30 946 C 86.215 -0.421732 -6.10645 0
M  V30 947 N 85.352 0.372262 -7.01112 0
M  V30 948 H 90.192 -1.08582 -2.77514 0
M  V30 949 H 87.729 -0.546927 -1.36554 0
M  V30 950 H 89.687 1.04852 -4.03809 0
M  V30 951 H 88.317 1.34286 -2.93542 0
M  V30 952 H 87.369 -0.959372 -3.68104 0
M  V30 953 H 88.681 -1.04445 -4.87742 0
M  V30 954 H 87.835 1.03866 -5.97743 0
M  V30 955 H 86.574 1.21153 -4.72412 0
M  V30 956 H 85.579 -0.989464 -5.40823 0
M  V30 957 H 86.804 -1.14861 -6.69316 0
M  V30 958 H 84.75 1.08426 -6.46977 0
M  V30 959 H 84.667 -0.264198 -7.55538 0
M  V30 960 H 85.935 0.910293 -7.74167 0
M  V30 961 N 90.1641 1.46063 -0.591896 0
M  V30 962 C 91.0941 2.33172 0.123673 0
M  V30 963 C 92.0751 1.45897 0.87453 0
M  V30 964 O 93.2601 1.74698 0.848181 0
M  V30 965 C 90.3901 3.28336 1.13194 0
M  V30 966 C 89.3441 4.25124 0.495324 0
M  V30 967 C 88.6701 5.09863 1.61071 0
M  V30 968 C 89.9701 5.19143 -0.573425 0
M  V30 969 H 91.6641 2.93252 -0.603646 0
M  V30 970 H 89.2101 1.41014 -0.291741 0
M  V30 971 H 91.1631 3.88137 1.64097 0
M  V30 972 H 89.8871 2.66383 1.88965 0
M  V30 973 H 88.5461 3.66599 0.00729452 0
M  V30 974 H 88.1941 4.44288 2.35832 0
M  V30 975 H 87.8941 5.75417 1.19035 0
M  V30 976 H 89.4181 5.72529 2.12233 0
M  V30 977 H 90.8321 5.73106 -0.1491 0
M  V30 978 H 89.2291 5.93089 -0.914636 0
M  V30 979 H 90.2991 4.62519 -1.45617 0
M  V30 980 N 91.6422 0.330177 1.54103 0
M  V30 981 C 92.8822 -0.270916 2.02597 0
M  V30 982 C 93.2462 -1.48826 1.21304 0
M  V30 983 O 94.4472 -2.16266 1.59633 0
M  V30 984 C 92.7182 -0.590328 3.52491 0
M  V30 985 S 94.2772 -1.17014 4.2291 0
M  V30 986 H 91.0952 -0.0815379 0.706309 0
M  V30 987 H 93.6972 0.464835 1.89893 0
M  V30 988 H 92.4012 0.303691 4.09275 0
M  V30 989 H 91.9322 -1.3561 3.69288 0
M  V30 990 H 93.9472 -2.45662 4.3112 0
M  V30 991 N 93.1203 -1.57491 0.0584922 0
M  V30 992 C 94.0703 -2.08474 -0.923188 0
M  V30 993 C 95.0543 -0.991479 -1.26722 0
M  V30 994 O 96.2463 -1.25473 -1.24842 0
M  V30 995 C 93.3753 -2.6392 -2.19548 0
M  V30 996 C 92.4613 -3.80227 -1.87852 0
M  V30 997 N 92.8523 -4.89714 -1.26546 0
M  V30 998 C 91.1503 -3.89271 -2.17679 0
M  V30 999 C 91.8513 -5.70689 -1.12644 0
M  V30 1000 N 90.8273 -5.18531 -1.63176 0
M  V30 1001 H 94.6293 -2.90517 -0.444653 0
M  V30 1002 H 92.1433 -1.61745 -0.145764 0
M  V30 1003 H 94.1403 -2.98752 -2.9078 0
M  V30 1004 H 92.8003 -1.83318 -2.68001 0
M  V30 1005 H 93.8113 -5.09358 -0.936757 0
M  V30 1006 H 90.4883 -3.19623 -2.68602 0
M  V30 1007 H 91.8783 -6.6875 -0.6499 0
M  V30 1008 N 94.5984 0.214957 -1.56127 0
M  V30 1009 C 95.8264 0.955092 -1.83536 0
M  V30 1010 C 96.2414 1.77677 -0.638472 0
M  V30 1011 O 95.5984 1.78219 0.392968 0
M  V30 1012 C 95.6494 1.86734 -3.09536 0
M  V30 1013 O 95.3704 1.07887 -4.24608 0
M  V30 1014 C 96.8714 2.72082 -3.4998 0
M  V30 1015 H 94.0914 0.279611 -0.609966 0
M  V30 1016 H 96.6354 0.228197 -2.03223 0
M  V30 1017 H 94.7904 2.5481 -2.91806 0
M  V30 1018 H 95.2044 1.69872 -4.9623 0
M  V30 1019 H 96.6784 3.31782 -4.41163 0
M  V30 1020 H 97.1554 3.44806 -2.7204 0
M  V30 1021 H 97.7614 2.09409 -3.70173 0
M  V30 1022 N 96.0765 1.50051 0.48192 0
M  V30 1023 C 97.0065 1.71046 1.58951 0
M  V30 1024 C 97.9875 0.559288 1.60642 0
M  V30 1025 O 99.1725 0.797243 1.77081 0
M  V30 1026 C 96.3025 1.79462 2.97339 0
M  V30 1027 C 95.2565 2.94558 3.10515 0
M  V30 1028 C 94.5825 2.88105 4.50444 0
M  V30 1029 C 95.8825 4.35227 2.88747 0
M  V30 1030 H 97.5765 2.6378 1.41635 0
M  V30 1031 H 95.1225 1.26936 0.679942 0
M  V30 1032 H 97.0755 1.92734 3.74742 0
M  V30 1033 H 95.7995 0.833412 3.15788 0
M  V30 1034 H 94.4585 2.80918 2.35543 0
M  V30 1035 H 94.1065 1.89853 4.65795 0
M  V30 1036 H 93.8065 3.65366 4.60197 0
M  V30 1037 H 95.3305 3.03412 5.29881 0
M  V30 1038 H 96.7445 4.49449 3.55905 0
M  V30 1039 H 95.1415 5.13856 3.09955 0
M  V30 1040 H 96.2115 4.48347 1.84696 0
M  V30 1041 N 97.5546 -0.734337 1.39446 0
M  V30 1042 C 98.4646 -1.87879 1.40495 0
M  V30 1043 C 99.4806 -1.714 0.299672 0
M  V30 1044 O 100.657 -1.93991 0.541249 0
M  V30 1045 C 97.7216 -3.23477 1.24754 0
M  V30 1046 C 96.7826 -3.52344 2.45259 0
M  V30 1047 C 96.0156 -4.81473 2.30259 0
M  V30 1048 O 96.2386 -5.55237 1.30643 0
M  V30 1049 O 95.1726 -5.10254 3.19256 0
M  V30 1050 H 98.9986 -1.89949 2.36966 0
M  V30 1051 H 96.5836 -0.882243 1.20569 0
M  V30 1052 H 98.4656 -4.04509 1.18111 0
M  V30 1053 H 97.1406 -3.22176 0.313781 0
M  V30 1054 H 96.0476 -2.71396 2.57478 0
M  V30 1055 H 97.3806 -3.58426 3.37331 0
M  V30 1056 N 99.0327 -1.24633 -0.964593 0
M  V30 1057 C 99.9807 -1.03917 -2.08096 0
M  V30 1058 C 100.975 0.0268581 -1.69379 0
M  V30 1059 O 102.181 -0.127952 -1.79545 0
M  V30 1060 H 98.5557 -0.319044 -0.680966 0
M  V30 1061 H 100.527 -1.98581 -2.22729 0
M  V30 1062 C 99.2757 -0.663983 -3.41301 0
M  V30 1063 H 98.5987 -1.47605 -3.71555 0
M  V30 1064 H 100.039 -0.558663 -4.20303 0
M  V30 1065 C 98.4977 0.629169 -3.30973 0
M  V30 1066 O 99.0277 1.67404 -3.65156 0
M  V30 1067 N 97.2337 0.611057 -2.84103 0
M  V30 1068 H 96.7807 -0.239593 -2.56483 0
M  V30 1069 H 96.7387 1.47647 -2.77575 0
M  V30 1070 N 100.511 1.16574 -1.06058 0
M  V30 1071 C 101.76 1.86385 -0.770944 0
M  V30 1072 C 102.073 1.82448 0.705129 0
M  V30 1073 O 103.279 2.47815 1.10905 0
M  V30 1074 C 101.735 3.34466 -1.32893 0
M  V30 1075 C 101.343 3.46883 -2.83507 0
M  V30 1076 C 103.087 4.09548 -1.11672 0
M  V30 1077 C 100.994 4.89036 -3.32562 0
M  V30 1078 H 99.9238 0.698181 -0.284709 0
M  V30 1079 H 102.575 1.31583 -1.27899 0
M  V30 1080 H 100.957 3.88859 -0.748662 0
M  V30 1081 H 102.131 3.02663 -3.47465 0
M  V30 1082 H 100.446 2.85232 -3.03368 0
M  V30 1083 H 103.043 5.14434 -1.45814 0
M  V30 1084 H 103.386 4.16264 -0.0549535 0
M  V30 1085 H 103.919 3.61387 -1.66265 0
M  V30 1086 H 100.658 4.87499 -4.38207 0
M  V30 1087 H 100.178 5.3389 -2.73351 0
M  V30 1088 H 101.857 5.57843 -3.2775 0
M  V30 1089 N 101.989 0.842826 1.3317 0
M  V30 1090 C 102.919 0.294028 2.31641 0
M  V30 1091 C 103.9 -0.600401 1.59151 0
M  V30 1092 O 105.085 -0.523124 1.87022 0
M  V30 1093 C 102.215 -0.528416 3.43257 0
M  V30 1094 C 101.169 0.27056 4.27144 0
M  V30 1095 C 100.495 -0.675881 5.30411 0
M  V30 1096 C 101.795 1.48981 5.00602 0
M  V30 1097 H 103.489 1.11681 2.77791 0
M  V30 1098 H 101.035 0.538478 1.33553 0
M  V30 1099 H 102.988 -0.922674 4.11175 0
M  V30 1100 H 101.712 -1.38445 2.95805 0
M  V30 1101 H 100.371 0.646427 3.60856 0
M  V30 1102 H 100.019 -1.52842 4.79216 0
M  V30 1103 H 99.7189 -0.145374 5.8742 0
M  V30 1104 H 101.243 -1.06757 6.01195 0
M  V30 1105 H 102.657 1.16849 5.61266 0
M  V30 1106 H 101.054 1.95739 5.6728 0
M  V30 1107 H 102.124 2.25746 4.29147 0
M  V30 1108 N 103.467 -1.45747 0.599634 0
M  V30 1109 C 104.744 -1.95585 0.0240846 0
M  V30 1110 C 105.124 -1.54217 -1.44154 0
M  V30 1111 O 104.472 -0.800903 -2.14004 0
M  V30 1112 C 104.682 -3.48344 0.21385 0
M  V30 1113 C 106.03 -4.24504 0.0904902 0
M  V30 1114 O 107.054 -3.55911 0.143558 0
M  V30 1115 O 105.913 -5.46491 -0.0310766 0
M  V30 1116 H 103.007 -0.82602 -0.0402478 0
M  V30 1117 H 105.553 -1.55951 0.669139 0
M  V30 1118 H 104.325 -3.71397 1.23206 0
M  V30 1119 H 103.948 -3.9485 -0.466842 0
M  V30 1120 N 104.945 -0.338344 -1.53925 0
M  V30 1121 C 105.892 0.520845 -2.24846 0
M  V30 1122 C 106.862 1.09976 -1.24477 0
M  V30 1123 O 108.047 1.13735 -1.53196 0
M  V30 1124 C 105.187 1.6685 -3.02084 0
M  V30 1125 C 104.3 1.11739 -4.17299 0
M  V30 1126 C 103.435 2.23193 -4.82036 0
M  V30 1127 C 102.474 1.65407 -5.89328 0
M  V30 1128 N 101.611 2.70582 -6.47866 0
M  V30 1129 H 106.451 -0.0904881 -2.97863 0
M  V30 1130 H 103.988 -0.0564282 -1.46992 0
M  V30 1131 H 105.946 2.34407 -3.45122 0
M  V30 1132 H 104.576 2.2509 -2.31375 0
M  V30 1133 H 103.628 0.332919 -3.7894 0
M  V30 1134 H 104.94 0.654677 -4.94485 0
M  V30 1135 H 104.094 2.98626 -5.28117 0
M  V30 1136 H 102.833 2.72807 -4.04262 0
M  V30 1137 H 101.838 0.884779 -5.42634 0
M  V30 1138 H 103.063 1.16652 -6.69006 0
M  V30 1139 H 101.009 3.1946 -5.72959 0
M  V30 1140 H 100.926 2.28917 -7.20509 0
M  V30 1141 H 102.194 3.45799 -6.98601 0
M  V30 1142 N 106.423 1.57458 -0.0668435 0
M  V30 1143 C 107.386 2.11323 0.887422 0
M  V30 1144 C 108.386 1.03618 1.22964 0
M  V30 1145 O 109.576 1.29626 1.16373 0
M  V30 1146 C 106.708 2.61048 2.19242 0
M  V30 1147 H 107.901 2.96942 0.420194 0
M  V30 1148 H 105.454 1.55239 0.181793 0
M  V30 1149 H 106.189 1.78868 2.70512 0
M  V30 1150 H 105.974 3.39769 1.95702 0
M  V30 1151 H 107.464 3.02814 2.87565 0
M  V30 1152 N 107.901 -0.206675 1.56239 0
M  V30 1153 C 109.317 -0.557025 1.49564 0
M  V30 1154 C 109.517 -1.86424 0.764735 0
M  V30 1155 O 108.573 -2.50584 0.310491 0
M  V30 1156 C 109.886 -0.622478 2.94186 0
M  V30 1157 C 111.434 -0.712099 3.04792 0
M  V30 1158 C 111.909 -0.808767 4.50803 0
M  V30 1159 N 113.4 -0.8726 4.54907 0
M  V30 1160 C 114.135 -0.967365 5.65181 0
M  V30 1161 N 113.631 -1.02515 6.85173 0
M  V30 1162 N 115.424 -1.00366 5.53067 0
M  V30 1163 H 107.575 0.650943 2.02179 0
M  V30 1164 H 109.838 0.230387 0.919579 0
M  V30 1165 H 109.544 0.268727 3.50672 0
M  V30 1166 H 109.418 -1.4811 3.46905 0
M  V30 1167 H 111.805 -1.59374 2.48363 0
M  V30 1168 H 111.886 0.172489 2.55218 0
M  V30 1169 H 111.53 0.0684754 5.07854 0
M  V30 1170 H 111.46 -1.70899 4.98098 0
M  V30 1171 H 113.951 -0.837657 3.68499 0
M  V30 1172 H 114.264 -1.09765 7.64965 0
M  V30 1173 H 112.609 -0.994026 6.87855 0
M  V30 1174 H 115.8 -0.95527 4.58249 0
M  V30 1175 H 115.973 -1.07405 6.39037 0
M  V30 1176 N 109.379 -1.50304 -0.473955 0
M  V30 1177 C 110.327 -1.69482 -1.59307 0
M  V30 1178 C 111.321 -0.560669 -1.59853 0
M  V30 1179 O 112.527 -0.741087 -1.64036 0
M  V30 1180 H 108.902 -0.534892 -0.528578 0
M  V30 1181 H 110.873 -2.63364 -1.40293 0
M  V30 1182 C 109.622 -1.80354 -2.97267 0
M  V30 1183 H 108.945 -2.67012 -2.97564 0
M  V30 1184 H 110.385 -1.97798 -3.75036 0
M  V30 1185 C 108.844 -0.55448 -3.32306 0
M  V30 1186 O 109.374 0.307661 -4.0052 0
M  V30 1187 N 107.58 -0.409354 -2.87702 0
M  V30 1188 H 107.127 -1.11196 -2.32364 0
M  V30 1189 H 107.085 0.425223 -3.11511 0
M  V30 1190 N 110.857 0.726932 -1.39834 0
M  V30 1191 C 112.082 1.52121 -1.40976 0
M  V30 1192 C 112.507 1.88098 -0.00826029 0
M  V30 1193 O 111.865 1.52479 0.980807 0
M  V30 1194 C 111.913 2.78021 -2.29644 0
M  V30 1195 O 111.017 3.74272 -1.73188 0
M  V30 1196 H 110.358 0.45908 -0.479731 0
M  V30 1197 H 112.888 0.896207 -1.83927 0
M  V30 1198 H 112.898 3.26671 -2.44438 0
M  V30 1199 H 111.573 2.51169 -3.31492 0
M  V30 1200 H 110.15 3.33073 -1.6768 0
M  V30 1201 N 112.336 1.25143 0.95797 0
M  V30 1202 C 113.246 1.06968 2.08794 0
M  V30 1203 C 114.262 0.00773911 1.73998 0
M  V30 1204 O 115.438 0.207972 2.00323 0
M  V30 1205 C 112.503 0.68691 3.39827 0
M  V30 1206 C 111.564 1.82641 3.88511 0
M  V30 1207 C 110.797 1.46181 5.1329 0
M  V30 1208 O 111.02 0.355971 5.69288 0
M  V30 1209 O 109.954 2.29085 5.566 0
M  V30 1210 H 113.78 2.01723 2.27027 0
M  V30 1211 H 111.365 1.04051 1.07209 0
M  V30 1212 H 113.247 0.485417 4.18595 0
M  V30 1213 H 111.922 -0.231417 3.22872 0
M  V30 1214 H 110.829 2.08274 3.10762 0
M  V30 1215 H 112.162 2.72386 4.09959 0
M  V30 1216 N 113.814 -1.1601 1.06675 0
M  V30 1217 C 115.063 -1.85973 0.780818 0
M  V30 1218 C 115.376 -1.82819 -0.695444 0
M  V30 1219 O 116.582 -2.484 -1.09589 0
M  V30 1220 C 115.038 -3.33757 1.34665 0
M  V30 1221 C 114.646 -3.45374 2.85343 0
M  V30 1222 C 116.39 -4.0895 1.13843 0
M  V30 1223 C 114.297 -4.87266 3.35151 0
M  V30 1224 H 113.227 -0.696661 0.288407 0
M  V30 1225 H 115.878 -1.30903 1.28595 0
M  V30 1226 H 114.26 -3.88456 0.769274 0
M  V30 1227 H 115.434 -3.00816 3.49065 0
M  V30 1228 H 113.749 -2.83619 3.04876 0
M  V30 1229 H 116.346 -5.13654 1.4854 0
M  V30 1230 H 116.689 -4.16229 0.0770282 0
M  V30 1231 H 117.222 -3.605 1.68179 0
M  V30 1232 H 113.961 -4.85168 4.40786 0
M  V30 1233 H 113.481 -5.32433 2.76179 0
M  V30 1234 H 115.16 -5.56097 3.30704 0
M  V30 1235 N 115.292 -0.849877 -1.32721 0
M  V30 1236 C 116.239 -0.289033 -2.28983 0
M  V30 1237 C 117.209 0.601324 -1.54833 0
M  V30 1238 O 118.394 0.537253 -1.8308 0
M  V30 1239 C 115.534 0.520623 -3.4115 0
M  V30 1240 C 114.647 -0.394989 -4.3019 0
M  V30 1241 C 113.782 0.426834 -5.29482 0
M  V30 1242 C 112.821 -0.486476 -6.10164 0
M  V30 1243 N 111.958 0.297879 -7.01468 0
M  V30 1244 H 116.798 -1.11519 -2.76347 0
M  V30 1245 H 114.335 -0.56138 -1.35967 0
M  V30 1246 H 116.293 1.00563 -4.04899 0
M  V30 1247 H 114.923 1.31165 -2.9495 0
M  V30 1248 H 113.975 -0.99836 -3.67065 0
M  V30 1249 H 115.287 -1.09612 -4.86607 0
M  V30 1250 H 114.441 0.975205 -5.98811 0
M  V30 1251 H 113.18 1.16136 -4.73671 0
M  V30 1252 H 112.185 -1.04677 -5.39743 0
M  V30 1253 H 113.41 -1.21953 -6.6806 0
M  V30 1254 H 111.356 1.01558 -6.48091 0
M  V30 1255 H 111.273 -0.344318 -7.55216 0
M  V30 1256 H 112.541 0.828131 -7.75089 0
M  V30 1257 N 116.77 1.45427 -0.607355 0
M  V30 1258 C 118.019 2.01452 -0.100036 0
M  V30 1259 C 118.332 1.48159 1.27704 0
M  V30 1260 O 119.538 1.96159 1.87707 0
M  V30 1261 C 117.994 3.59672 -0.128158 0
M  V30 1262 C 117.602 4.21962 -1.50507 0
M  V30 1263 C 119.346 4.23262 0.323932 0
M  V30 1264 C 117.253 5.72333 -1.48959 0
M  V30 1265 H 116.183 0.75325 -0.0336299 0
M  V30 1266 H 118.834 1.66901 -0.76265 0
M  V30 1267 H 117.216 3.91411 0.601105 0
M  V30 1268 H 118.39 4.01796 -2.25602 0
M  V30 1269 H 116.705 3.70565 -1.89923 0
M  V30 1270 H 119.302 5.33522 0.354691 0
M  V30 1271 H 119.645 3.93921 1.34656 0
M  V30 1272 H 120.178 3.96239 -0.352056 0
M  V30 1273 H 116.917 6.06373 -2.48981 0
M  V30 1274 H 116.437 5.94691 -0.781214 0
M  V30 1275 H 118.116 6.35525 -1.21313 0
M  V30 1276 N 118.248 0.346503 1.53744 0
M  V30 1277 C 119.476 -0.25041 2.05379 0
M  V30 1278 C 119.891 -1.43979 1.22129 0
M  V30 1279 O 119.248 -1.80677 0.257321 0
M  V30 1280 C 119.299 -0.662575 3.55376 0
M  V30 1281 O 119.02 0.479515 4.35468 0
M  V30 1282 C 120.521 -1.31989 4.23195 0
M  V30 1283 H 117.741 -0.0478198 0.669294 0
M  V30 1284 H 120.285 0.499346 1.9831 0
M  V30 1285 H 118.44 -1.36227 3.62658 0
M  V30 1286 H 118.854 0.15037 5.24284 0
M  V30 1287 H 120.328 -1.55902 5.29527 0
M  V30 1288 H 120.805 -2.27436 3.75725 0
M  V30 1289 H 121.411 -0.662154 4.20114 0
M  V30 1290 N 119.726 -1.57421 0.075193 0
M  V30 1291 C 120.951 -1.98364 -0.605515 0
M  V30 1292 C 121.376 -0.953383 -1.62149 0
M  V30 1293 O 120.734 0.0806053 -1.81121 0
M  V30 1294 C 120.782 -3.38332 -1.24756 0
M  V30 1295 O 119.886 -3.37959 -2.36342 0
M  V30 1296 H 119.227 -0.645553 -0.155428 0
M  V30 1297 H 121.757 -2.04044 0.150714 0
M  V30 1298 H 121.767 -3.75591 -1.5936 0
M  V30 1299 H 120.442 -4.12846 -0.503129 0
M  V30 1300 H 119.019 -3.12474 -2.03506 0
M  V30 1301 N 121.204 0.198386 -1.56346 0
M  V30 1302 C 122.481 0.944982 -1.71258 0
M  V30 1303 C 122.861 2.0151 -0.629048 0
M  V30 1304 O 122.209 2.25639 0.360473 0
M  V30 1305 C 122.419 1.5344 -3.1346 0
M  V30 1306 C 123.767 2.01778 -3.73591 0
M  V30 1307 O 124.791 1.63288 -3.16568 0
M  V30 1308 O 123.65 2.72594 -4.73661 0
M  V30 1309 H 120.744 0.442939 -0.69838 0
M  V30 1310 H 123.29 0.188342 -1.68652 0
M  V30 1311 H 122.062 0.762869 -3.83792 0
M  V30 1312 H 121.685 2.35596 -3.20282 0
M  V30 1313 N 122.682 1.50554 0.465978 0
M  V30 1314 C 123.612 1.72722 1.57128 0
M  V30 1315 C 124.593 0.576294 1.6004 0
M  V30 1316 O 125.778 0.81598 1.76225 0
M  V30 1317 C 122.908 1.82605 2.95419 0
M  V30 1318 C 121.862 2.97835 3.07373 0
M  V30 1319 C 121.188 2.92867 4.47363 0
M  V30 1320 C 122.488 4.38265 2.84114 0
M  V30 1321 H 124.182 2.65267 1.38829 0
M  V30 1322 H 121.728 1.2765 0.666441 0
M  V30 1323 H 123.681 1.96698 3.72677 0
M  V30 1324 H 122.405 0.866858 3.14886 0
M  V30 1325 H 121.064 2.83401 2.3255 0
M  V30 1326 H 120.712 1.94783 4.63755 0
M  V30 1327 H 120.412 3.70227 4.56296 0
M  V30 1328 H 121.936 3.09015 5.26633 0
M  V30 1329 H 123.35 4.53198 3.51118 0
M  V30 1330 H 121.747 5.17115 3.04487 0
M  V30 1331 H 122.817 4.50281 1.7993 0
M  V30 1332 N 124.16 -0.719506 1.40217 0
M  V30 1333 C 125.09 -1.8465 1.42922 0
M  V30 1334 C 126.071 -1.67599 0.29062 0
M  V30 1335 O 127.256 -1.87688 0.498677 0
M  V30 1336 C 124.386 -3.22565 1.28722 0
M  V30 1337 C 123.34 -3.54281 2.40144 0
M  V30 1338 C 122.666 -4.91298 2.11023 0
M  V30 1339 C 123.966 -3.55676 3.82481 0
M  V30 1340 H 125.66 -1.82644 2.37237 0
M  V30 1341 H 123.206 -0.877305 1.1419 0
M  V30 1342 H 125.159 -4.01095 1.29232 0
M  V30 1343 H 123.883 -3.25137 0.308811 0
M  V30 1344 H 122.542 -2.78088 2.38877 0
M  V30 1345 H 122.19 -4.90468 1.11582 0
M  V30 1346 H 121.89 -5.13485 2.8567 0
M  V30 1347 H 123.414 -5.72166 2.13209 0
M  V30 1348 H 124.828 -4.24254 3.85592 0
M  V30 1349 H 123.225 -3.89388 4.56614 0
M  V30 1350 H 124.295 -2.55144 4.12346 0
M  V30 1351 N 125.638 -1.25649 -0.95132 0
M  V30 1352 C 126.915 -1.01361 -1.67288 0
M  V30 1353 C 127.295 0.459135 -2.06046 0
M  V30 1354 O 126.643 1.43723 -1.7764 0
M  V30 1355 C 126.853 -1.95256 -2.89268 0
M  V30 1356 C 128.201 -2.23289 -3.61147 0
M  V30 1357 O 129.225 -1.93041 -2.99355 0
M  V30 1358 O 128.084 -2.74741 -4.72419 0
M  V30 1359 H 125.178 -0.38464 -0.732107 0
M  V30 1360 H 127.724 -1.36817 -1.00395 0
M  V30 1361 H 126.496 -2.94685 -2.57442 0
M  V30 1362 H 126.119 -1.60218 -3.6389 0
M  V30 1363 N 127.117 1.15442 -1.07289 0
M  V30 1364 C 128.064 2.20161 -0.692653 0
M  V30 1365 C 129.034 1.63073 0.31564 0
M  V30 1366 O 130.219 1.89725 0.202235 0
M  V30 1367 C 127.359 3.44967 -0.0959509 0
M  V30 1368 C 126.472 4.16256 -1.15564 0
M  V30 1369 C 125.607 5.28609 -0.524011 0
M  V30 1370 C 124.646 5.91715 -1.56653 0
M  V30 1371 N 123.783 6.9554 -0.957531 0
M  V30 1372 H 128.623 2.52037 -1.59002 0
M  V30 1373 H 126.16 1.2378 -0.794798 0
M  V30 1374 H 128.118 4.16341 0.267628 0
M  V30 1375 H 126.748 3.1361 0.764772 0
M  V30 1376 H 125.8 3.43385 -1.6368 0
M  V30 1377 H 127.112 4.59268 -1.94613 0
M  V30 1378 H 126.266 6.06604 -0.108032 0
M  V30 1379 H 125.005 4.86787 0.29825 0
M  V30 1380 H 124.01 5.12433 -1.9923 0
M  V30 1381 H 125.235 6.35614 -2.39107 0
M  V30 1382 H 123.181 6.55814 -0.156162 0
M  V30 1383 H 123.098 7.36977 -1.68526 0
M  V30 1384 H 124.366 7.77435 -0.567032 0
M  V30 1385 N 128.595 0.856903 1.32268 0
M  V30 1386 C 129.844 0.457599 1.96441 0
M  V30 1387 C 130.157 -0.992426 1.68553 0
M  V30 1388 O 131.363 -1.49727 2.26482 0
M  V30 1389 C 129.819 0.767358 3.51624 0
M  V30 1390 C 129.427 2.23326 3.88367 0
M  V30 1391 C 131.171 0.435887 4.22256 0
M  V30 1392 C 129.078 2.48613 5.36606 0
M  V30 1393 H 128.008 0.167387 0.735185 0
M  V30 1394 H 130.659 1.048 1.5063 0
M  V30 1395 H 129.041 0.106367 3.95857 0
M  V30 1396 H 130.215 2.93623 3.55137 0
M  V30 1397 H 128.53 2.52948 3.30766 0
M  V30 1398 H 131.127 0.602202 5.31298 0
M  V30 1399 H 131.47 -0.622672 4.11617 0
M  V30 1400 H 132.003 1.05286 3.83614 0
M  V30 1401 H 128.742 3.53101 5.52268 0
M  V30 1402 H 128.262 1.82896 5.71235 0
M  V30 1403 H 129.941 2.32676 6.03714 0
M  V30 1404 N 130.073 -1.45103 0.615059 0
M  V30 1405 C 131.32 -2.02183 0.113179 0
M  V30 1406 C 131.648 -1.48249 -1.25906 0
M  V30 1407 O 130.903 -0.650265 -1.84581 0
M  V30 1408 C 131.202 -3.57386 0.0318797 0
M  V30 1409 C 130.868 -4.30505 1.34077 0
M  V30 1410 C 129.53 -4.50197 1.69929 0
M  V30 1411 C 131.882 -4.72238 2.20546 0
M  V30 1412 C 129.21 -5.08881 2.91988 0
M  V30 1413 C 131.562 -5.32272 3.41861 0
M  V30 1414 C 130.226 -5.50187 3.77956 0
M  V30 1415 H 129.496 -0.739842 0.0414151 0
M  V30 1416 H 132.143 -1.74073 0.798168 0
M  V30 1417 H 130.448 -3.84817 -0.736409 0
M  V30 1418 H 132.145 -3.99264 -0.372712 0
M  V30 1419 H 128.735 -4.15496 1.05173 0
M  V30 1420 H 132.919 -4.56751 1.94146 0
M  V30 1421 H 128.175 -5.20939 3.2005 0
M  V30 1422 H 132.349 -5.63563 4.09109 0
M  V30 1423 H 129.976 -5.95427 4.72622 0
M  V30 1424 N 131.551 -0.354651 -1.53558 0
M  V30 1425 C 132.514 0.484566 -2.24019 0
M  V30 1426 C 133.514 1.01861 -1.24422 0
M  V30 1427 O 134.704 0.906097 -1.4878 0
M  V30 1428 C 131.836 1.67615 -2.96847 0
M  V30 1429 H 133.029 -0.131843 -2.9961 0
M  V30 1430 H 130.582 -0.106165 -1.55939 0
M  V30 1431 H 131.317 2.33095 -2.25471 0
M  V30 1432 H 131.102 1.30029 -3.69912 0
M  V30 1433 H 132.592 2.27114 -3.50441 0
M  V30 1434 N 133.029 1.57378 -0.0835403 0
M  V30 1435 C 134.277 1.93547 0.581718 0
M  V30 1436 C 134.598 0.96524 1.69435 0
M  V30 1437 O 133.868 0.0153369 1.95894 0
M  V30 1438 H 132.448 0.714521 0.217874 0
M  V30 1439 H 135.11 1.94366 -0.144158 0
M  V30 1440 H 134.206 2.95665 0.999423 0
M  V30 1441 N 134.507 -0.190092 1.56449 0
M  V30 1442 C 135.753 -0.911052 1.81184 0
M  V30 1443 C 136.086 -1.82699 0.658396 0
M  V30 1444 O 135.361 -1.91491 -0.340775 0
M  V30 1445 C 135.644 -1.72297 3.16205 0
M  V30 1446 C 135.497 -0.831419 4.42049 0
M  V30 1447 C 136.816 -2.69454 3.47969 0
M  V30 1448 H 133.935 -0.32977 0.659106 0
M  V30 1449 H 136.577 -0.178169 1.89163 0
M  V30 1450 H 134.727 -2.34778 3.09534 0
M  V30 1451 H 136.399 -0.220929 4.60771 0
M  V30 1452 H 134.642 -0.138406 4.33579 0
M  V30 1453 H 135.313 -1.43461 5.33032 0
M  V30 1454 H 137.789 -2.17104 3.54972 0
M  V30 1455 H 136.665 -3.23342 4.43555 0
M  V30 1456 H 136.926 -3.48744 2.71717 0
M  V30 1457 N 135.985 -1.50799 -0.457987 0
M  V30 1458 C 137.262 -1.52968 -1.21902 0
M  V30 1459 C 137.642 -0.281906 -2.09209 0
M  V30 1460 O 136.99 0.734076 -2.16388 0
M  V30 1461 C 137.2 -2.8326 -2.03875 0
M  V30 1462 C 138.548 -3.34425 -2.6162 0
M  V30 1463 O 139.572 -2.8467 -2.14106 0
M  V30 1464 O 138.431 -4.21188 -3.48228 0
M  V30 1465 H 135.525 -0.614129 -0.553873 0
M  V30 1466 H 138.071 -1.63098 -0.468739 0
M  V30 1467 H 136.843 -3.65543 -1.39621 0
M  V30 1468 H 136.466 -2.76195 -2.8601 0
M  V30 1469 N 137.463 0.71206 -1.40597 0
M  V30 1470 C 138.396 1.83582 -1.35546 0
M  V30 1471 C 139.374 1.61032 -0.225284 0
M  V30 1472 O 140.558 1.83998 -0.409519 0
M  V30 1473 C 137.685 3.19983 -1.11034 0
M  V30 1474 C 136.731 3.61355 -2.2655 0
M  V30 1475 S 137.564 3.68062 -3.88961 0
M  V30 1476 C 138.72 5.07216 -3.66719 0
M  V30 1477 H 138.953 1.87586 -2.30648 0
M  V30 1478 H 136.486 0.879182 -1.26924 0
M  V30 1479 H 138.444 3.98734 -0.975761 0
M  V30 1480 H 137.105 3.13608 -0.175798 0
M  V30 1481 H 136.298 4.60403 -2.0505 0
M  V30 1482 H 135.9 2.8987 -2.36329 0
M  V30 1483 H 138.192 5.94238 -3.25404 0
M  V30 1484 H 139.135 5.33753 -4.6531 0
M  V30 1485 H 139.543 4.77976 -3.00332 0
M  V30 1486 N 138.941 1.26152 0.944643 0
M  V30 1487 C 140.19 1.10883 1.68487 0
M  V30 1488 C 140.503 -0.348153 1.92477 0
M  V30 1489 O 141.709 -0.621459 2.64292 0
M  V30 1490 C 140.165 1.93624 3.03377 0
M  V30 1491 C 139.773 3.43875 2.87148 0
M  V30 1492 C 141.517 1.86954 3.81115 0
M  V30 1493 C 139.424 4.18875 4.1749 0
M  V30 1494 H 138.354 0.41135 0.631907 0
M  V30 1495 H 141.005 1.50433 1.05082 0
M  V30 1496 H 139.387 1.46904 3.67743 0
M  V30 1497 H 140.561 3.98338 2.31653 0
M  V30 1498 H 138.876 3.51744 2.22856 0
M  V30 1499 H 141.473 2.40275 4.77673 0
M  V30 1500 H 141.816 0.839518 4.07747 0
M  V30 1501 H 142.349 2.31477 3.23517 0
M  V30 1502 H 139.088 5.22332 3.96043 0
M  V30 1503 H 138.608 3.69193 4.72712 0
M  V30 1504 H 140.287 4.27134 4.85968 0
M  V30 1505 N 140.419 -1.14872 1.07899 0
M  V30 1506 C 141.647 -1.89661 0.82683 0
M  V30 1507 C 142.062 -1.78312 -0.620519 0
M  V30 1508 O 141.419 -1.13888 -1.42604 0
M  V30 1509 C 141.47 -3.39817 1.23316 0
M  V30 1510 O 141.191 -3.50845 2.62372 0
M  V30 1511 C 142.692 -4.31615 1.0111 0
M  V30 1512 H 139.912 -0.60092 0.298557 0
M  V30 1513 H 142.456 -1.4551 1.43691 0
M  V30 1514 H 140.611 -3.8161 0.667286 0
M  V30 1515 H 141.025 -4.44076 2.79101 0
M  V30 1516 H 142.499 -5.35367 1.34486 0
M  V30 1517 H 142.976 -4.39169 -0.0522168 0
M  V30 1518 H 143.582 -3.95572 1.56215 0
M  V30 1519 N 141.898 -0.863906 -1.31812 0
M  V30 1520 C 143.314 -0.555004 -1.49639 0
M  V30 1521 C 143.514 0.912266 -1.79666 0
M  V30 1522 O 142.57 1.69479 -1.87171 0
M  V30 1523 C 143.883 -1.44998 -2.63431 0
M  V30 1524 C 145.431 -1.45138 -2.77316 0
M  V30 1525 C 145.906 -2.33179 -3.94197 0
M  V30 1526 N 147.397 -2.31025 -4.01474 0
M  V30 1527 C 148.132 -2.95871 -4.9117 0
M  V30 1528 N 147.628 -3.69863 -5.8581 0
M  V30 1529 N 149.421 -2.85211 -4.84367 0
M  V30 1530 H 141.572 -1.81339 -1.10589 0
M  V30 1531 H 143.835 -0.77505 -0.545895 0
M  V30 1532 H 143.541 -2.49377 -2.48 0
M  V30 1533 H 143.415 -1.14409 -3.59431 0
M  V30 1534 H 145.802 -0.415201 -2.92164 0
M  V30 1535 H 145.883 -1.79747 -1.82001 0
M  V30 1536 H 145.527 -3.3687 -3.80107 0
M  V30 1537 H 145.457 -1.95897 -4.88807 0
M  V30 1538 H 147.948 -1.77238 -3.33759 0
M  V30 1539 H 148.261 -4.16486 -6.50968 0
M  V30 1540 H 146.606 -3.73971 -5.85808 0
M  V30 1541 H 149.797 -2.26948 -4.09405 0
M  V30 1542 H 149.97 -3.36027 -5.54066 0
M  V30 1543 N 143.376 1.44774 -0.622745 0
M  V30 1544 C 144.309 2.27792 0.136329 0
M  V30 1545 C 145.287 1.38041 0.859264 0
M  V30 1546 O 146.471 1.67478 0.86506 0
M  V30 1547 C 143.598 3.16776 1.19878 0
M  V30 1548 C 142.644 4.22575 0.57731 0
M  V30 1549 S 143.477 5.31825 -0.626294 0
M  V30 1550 C 144.633 6.24377 0.436378 0
M  V30 1551 H 144.866 2.91824 -0.567967 0
M  V30 1552 H 142.399 1.48838 -0.410677 0
M  V30 1553 H 144.357 3.68596 1.80686 0
M  V30 1554 H 143.018 2.5198 1.87523 0
M  V30 1555 H 142.211 4.84818 1.37721 0
M  V30 1556 H 141.813 3.73974 0.0440439 0
M  V30 1557 H 144.105 6.64689 1.31128 0
M  V30 1558 H 145.048 7.07941 -0.150271 0
M  V30 1559 H 145.456 5.59381 0.758513 0
M  V30 1560 N 144.854 0.36279 1.53368 0
M  V30 1561 C 146.1 -0.228113 2.01513 0
M  V30 1562 C 146.433 -1.48648 1.2497 0
M  V30 1563 O 145.708 -1.91459 0.342616 0
M  V30 1564 C 145.991 -0.522884 3.56284 0
M  V30 1565 C 145.844 0.74892 4.43521 0
M  V30 1566 C 147.163 -1.32461 4.19693 0
M  V30 1567 H 144.282 -0.0814343 0.732487 0
M  V30 1568 H 146.924 0.48713 1.83649 0
M  V30 1569 H 145.074 -1.1322 3.71636 0
M  V30 1570 H 146.746 1.38648 4.39971 0
M  V30 1571 H 144.989 1.36986 4.11603 0
M  V30 1572 H 145.66 0.497667 5.49752 0
M  V30 1573 H 148.136 -0.809203 4.08156 0
M  V30 1574 H 147.012 -1.49961 5.28018 0
M  V30 1575 H 147.273 -2.33232 3.75573 0
M  V30 1576 N 146.332 -1.57332 0.0918853 0
M  V30 1577 C 147.609 -1.85691 -0.614668 0
M  V30 1578 C 147.989 -0.988146 -1.86545 0
M  V30 1579 O 147.337 -0.0597055 -2.28422 0
M  V30 1580 C 147.547 -3.36294 -0.933126 0
M  V30 1581 C 148.895 -4.04275 -1.29796 0
M  V30 1582 O 149.919 -3.41157 -1.02424 0
M  V30 1583 O 148.778 -5.1564 -1.81047 0
M  V30 1584 H 145.872 -0.767802 -0.307261 0
M  V30 1585 H 148.418 -1.69244 0.12434 0
M  V30 1586 H 147.19 -3.91273 -0.0456404 0
M  V30 1587 H 146.813 -3.58076 -1.72822 0
M  V30 1588 N 147.81 0.181792 -1.56548 0
M  V30 1589 C 148.757 1.22521 -1.95595 0
M  V30 1590 C 149.727 1.4454 -0.818373 0
M  V30 1591 O 150.912 1.57454 -1.07763 0
M  V30 1592 C 148.052 2.56193 -2.31212 0
M  V30 1593 C 147.165 2.41641 -3.58097 0
M  V30 1594 C 146.3 3.68108 -3.82975 0
M  V30 1595 C 145.339 3.48445 -5.03242 0
M  V30 1596 N 144.476 4.66956 -5.24306 0
M  V30 1597 H 149.316 0.885226 -2.84548 0
M  V30 1598 H 146.853 0.425718 -1.40805 0
M  V30 1599 H 148.811 3.34088 -2.49882 0
M  V30 1600 H 147.441 2.88208 -1.45382 0
M  V30 1601 H 146.493 1.54976 -3.474 0
M  V30 1602 H 147.805 2.23052 -4.46149 0
M  V30 1603 H 146.959 4.54441 -4.01956 0
M  V30 1604 H 145.698 3.89666 -2.93278 0
M  V30 1605 H 144.703 2.60499 -4.8417 0
M  V30 1606 H 145.928 3.2832 -5.9446 0
M  V30 1607 H 143.874 4.88752 -4.37559 0
M  V30 1608 H 143.791 4.51242 -6.06561 0
M  V30 1609 H 145.059 5.54602 -5.47756 0
M  V30 1610 N 149.288 1.51039 0.449983 0
M  V30 1611 C 150.537 1.62317 1.19733 0
M  V30 1612 C 150.85 0.339101 1.92638 0
M  V30 1613 O 152.056 0.331069 2.69474 0
M  V30 1614 C 150.512 2.86608 2.17678 0
M  V30 1615 C 150.12 4.21972 1.50479 0
M  V30 1616 C 151.864 3.07239 2.92924 0
M  V30 1617 C 149.771 5.37426 2.46834 0
M  V30 1618 H 148.701 0.604532 0.450619 0
M  V30 1619 H 151.352 1.77494 0.465625 0
M  V30 1620 H 149.734 2.65037 2.94231 0
M  V30 1621 H 150.908 4.53878 0.795716 0
M  V30 1622 H 149.223 4.07117 0.874344 0
M  V30 1623 H 151.82 3.90668 3.65079 0
M  V30 1624 H 152.163 2.19807 3.5354 0
M  V30 1625 H 152.696 3.29091 2.23481 0
M  V30 1626 H 149.435 6.27079 1.90926 0
M  V30 1627 H 148.955 5.09912 3.15832 0
M  V30 1628 H 150.634 5.68862 3.08228 0
M  V30 1629 N 150.766 -0.704594 1.40972 0
M  V30 1630 C 152.012 -1.46675 1.40051 0
M  V30 1631 C 152.345 -1.94199 0.00641102 0
M  V30 1632 O 151.62 -1.68916 -0.964235 0
M  V30 1633 C 151.903 -2.68505 2.39952 0
M  V30 1634 C 151.756 -2.26805 3.88432 0
M  V30 1635 C 153.075 -3.70686 2.37233 0
M  V30 1636 H 150.194 -0.532015 0.510028 0
M  V30 1637 H 152.836 -0.803255 1.72185 0
M  V30 1638 H 150.986 -3.25114 2.1268 0
M  V30 1639 H 152.658 -1.75592 4.26574 0
M  V30 1640 H 150.901 -1.58685 4.03734 0
M  V30 1641 H 151.572 -3.14181 4.53866 0
M  V30 1642 H 154.048 -3.23731 2.61415 0
M  V30 1643 H 152.924 -4.53553 3.09162 0
M  V30 1644 H 153.185 -4.19754 1.38777 0
M  V30 1645 N 152.244 -1.26651 -0.937939 0
M  V30 1646 C 153.469 -1.15279 -1.72411 0
M  V30 1647 C 153.894 0.287866 -1.85884 0
M  V30 1648 O 153.252 1.20855 -1.35143 0
M  V30 1649 C 153.3 -1.83028 -3.10698 0
M  V30 1650 O 152.404 -1.12128 -3.96864 0
M  V30 1651 H 151.745 -0.401504 -0.528858 0
M  V30 1652 H 154.275 -1.67531 -1.1745 0
M  V30 1653 H 154.285 -1.89981 -3.6107 0
M  V30 1654 H 152.96 -2.87833 -3.00208 0
M  V30 1655 H 151.537 -1.13173 -3.55312 0
M  V30 1656 N 153.722 1.14298 -1.08507 0
M  V30 1657 C 154.632 2.23027 -0.727753 0
M  V30 1658 C 155.648 1.71952 0.26619 0
M  V30 1659 O 156.824 2.011 0.109882 0
M  V30 1660 C 153.889 3.46403 -0.143541 0
M  V30 1661 C 152.95 4.12413 -1.19223 0
M  V30 1662 C 152.183 5.29899 -0.635798 0
M  V30 1663 O 152.406 5.67796 0.544393 0
M  V30 1664 O 151.34 5.85717 -1.38634 0
M  V30 1665 H 155.166 2.55945 -1.63481 0
M  V30 1666 H 152.751 1.22248 -0.858817 0
M  V30 1667 H 154.633 4.21018 0.179404 0
M  V30 1668 H 153.308 3.15206 0.736659 0
M  V30 1669 H 152.215 3.39667 -1.56772 0
M  V30 1670 H 153.548 4.47718 -2.04474 0
M  V30 1671 N 155.201 0.870884 1.31352 0
M  V30 1672 C 156.449 0.48132 1.96285 0
M  V30 1673 C 156.77 -0.969813 1.69173 0
M  V30 1674 O 156.04 -1.67998 1.00764 0
M  V30 1675 H 154.62 0.175002 0.726212 0
M  V30 1676 H 157.282 1.11087 1.60143 0
M  V30 1677 H 156.378 0.639825 3.05471 0
M  V30 1678 N 156.679 -1.44442 0.630414 0
M  V30 1679 C 157.904 -2.06927 0.139944 0
M  V30 1680 C 158.329 -1.46795 -1.17613 0
M  V30 1681 O 157.687 -0.569144 -1.72135 0
M  V30 1682 C 157.735 -3.6058 0.0379581 0
M  V30 1683 O 156.839 -3.99937 -1.0062 0
M  V30 1684 H 156.18 -0.658608 0.0844483 0
M  V30 1685 H 158.71 -1.85327 0.866891 0
M  V30 1686 H 158.72 -4.07714 -0.152856 0
M  V30 1687 H 157.395 -4.03728 0.998809 0
M  V30 1688 H 155.972 -3.64436 -0.79001 0
M  V30 1689 N 158.157 -0.370918 -1.53173 0
M  V30 1690 C 159.434 0.273754 -1.93675 0
M  V30 1691 C 159.814 1.65938 -1.3049 0
M  V30 1692 O 159.162 2.23698 -0.465999 0
M  V30 1693 C 159.372 0.318602 -3.47543 0
M  V30 1694 C 160.72 0.556392 -4.20939 0
M  V30 1695 O 161.744 0.399587 -3.53952 0
M  V30 1696 O 160.603 0.862133 -5.39657 0
M  V30 1697 H 157.697 0.165448 -0.810281 0
M  V30 1698 H 160.243 -0.42409 -1.64315 0
M  V30 1699 H 159.015 -0.652687 -3.85818 0
M  V30 1700 H 158.638 1.06212 -3.83151 0
M  V30 1701 N 159.635 1.57281 -0.100228 0
M  V30 1702 C 160.912 1.86014 0.604812 0
M  V30 1703 C 161.292 0.998025 1.86018 0
M  V30 1704 O 160.64 0.0718184 2.28387 0
M  V30 1705 C 160.85 3.36784 0.915278 0
M  V30 1706 C 162.198 4.04957 1.27651 0
M  V30 1707 O 163.222 3.41695 1.00613 0
M  V30 1708 O 162.081 5.16593 1.7831 0
M  V30 1709 H 159.175 0.76942 0.303185 0
M  V30 1710 H 161.721 1.69176 -0.133313 0
M  V30 1711 H 160.493 3.91292 0.0248896 0
M  V30 1712 H 160.116 3.58987 1.70921 0
M  V30 1713 N 161.113 -0.173488 1.56642 0
M  V30 1714 C 162.362 -0.888758 1.81063 0
M  V30 1715 C 162.675 -1.83506 0.67712 0
M  V30 1716 O 163.881 -2.59254 0.806206 0
M  V30 1717 C 162.337 -1.63091 3.20826 0
M  V30 1718 C 161.945 -0.728357 4.4204 0
M  V30 1719 C 163.689 -2.33454 3.54541 0
M  V30 1720 C 161.596 -1.47062 5.72823 0
M  V30 1721 H 160.526 -0.335618 0.675186 0
M  V30 1722 H 163.177 -0.141712 1.82952 0
M  V30 1723 H 161.559 -2.42263 3.13248 0
M  V30 1724 H 162.733 0.0262449 4.60793 0
M  V30 1725 H 161.048 -0.134492 4.16183 0
M  V30 1726 H 163.645 -2.89578 4.49498 0
M  V30 1727 H 163.988 -3.08687 2.79317 0
M  V30 1728 H 164.521 -1.61227 3.63663 0
M  V30 1729 H 161.26 -0.760658 6.51072 0
M  V30 1730 H 160.78 -2.1986 5.58052 0
M  V30 1731 H 162.459 -2.01868 6.14702 0
M  V30 1732 N 162.591 -1.51276 -0.441967 0
M  V30 1733 C 163.839 -1.63392 -1.18943 0
M  V30 1734 C 164.16 -0.350159 -1.9183 0
M  V30 1735 O 163.43 0.633784 -1.85364 0
M  V30 1736 H 162.01 -0.602164 -0.442049 0
M  V30 1737 H 164.672 -1.88186 -0.507165 0
M  V30 1738 H 163.768 -2.45934 -1.92154 0
M  V30 1739 N 164.069 0.697108 -1.41344 0
M  V30 1740 C 164.979 1.84088 -1.45427 0
M  V30 1741 C 165.995 1.70545 -0.34501 0
M  V30 1742 O 167.171 1.92488 -0.592492 0
M  V30 1743 C 164.236 3.20056 -1.33286 0
M  V30 1744 C 163.297 3.45718 -2.54514 0
M  V30 1745 C 162.53 4.75199 -2.42944 0
M  V30 1746 O 162.753 5.51579 -1.45318 0
M  V30 1747 O 161.687 5.0161 -3.32672 0
M  V30 1748 H 165.513 1.836 -2.41919 0
M  V30 1749 H 163.098 0.849966 -1.22866 0
M  V30 1750 H 164.98 4.01236 -1.28794 0
M  V30 1751 H 163.655 3.2123 -0.39909 0
M  V30 1752 H 162.562 2.64474 -2.64583 0
M  V30 1753 H 163.895 3.49356 -3.46715 0
M  V30 1754 N 165.547 1.27147 0.931209 0
M  V30 1755 C 166.495 1.09398 2.05268 0
M  V30 1756 C 167.489 0.0180591 1.6939 0
M  V30 1757 O 168.695 0.17551 1.79142 0
M  V30 1758 H 165.07 0.336986 0.672268 0
M  V30 1759 H 167.041 2.04416 2.17386 0
M  V30 1760 C 165.79 0.75424 3.39421 0
M  V30 1761 H 165.113 1.57404 3.67511 0
M  V30 1762 H 166.553 0.669903 4.18674 0
M  V30 1763 C 165.012 -0.541197 3.32525 0
M  V30 1764 O 165.542 -1.57664 3.69466 0
M  V30 1765 N 163.748 -0.535517 2.85623 0
M  V30 1766 H 163.295 0.307511 2.55758 0
M  V30 1767 H 163.253 -1.40236 2.81392 0
M  V30 1768 N 167.025 -1.13721 1.09112 0
M  V30 1769 C 168.274 -1.84275 0.82009 0
M  V30 1770 C 168.587 -1.84253 -0.656509 0
M  V30 1771 O 169.793 -2.50668 -1.04296 0
M  V30 1772 C 168.249 -3.30825 1.41714 0
M  V30 1773 C 167.857 -3.39244 2.92605 0
M  V30 1774 C 169.601 -4.06443 1.22492 0
M  V30 1775 C 167.508 -4.80047 3.45411 0
M  V30 1776 H 166.438 -0.690387 0.30312 0
M  V30 1777 H 169.089 -1.28146 1.31343 0
M  V30 1778 H 167.471 -3.86737 0.851498 0
M  V30 1779 H 168.645 -2.93344 3.55367 0
M  V30 1780 H 166.96 -2.77088 3.10823 0
M  V30 1781 H 169.557 -5.10387 1.59402 0
M  V30 1782 H 169.9 -4.15972 0.165299 0
M  V30 1783 H 170.433 -3.56852 1.75788 0
M  V30 1784 H 167.172 -4.75709 4.50978 0
M  V30 1785 H 166.692 -5.26455 2.87411 0
M  V30 1786 H 168.371 -5.48957 3.42425 0
M  V30 1787 N 168.503 -0.877838 -1.30888 0
M  V30 1788 C 169.78 -0.413052 -1.91189 0
M  V30 1789 C 170.16 1.1056 -1.79832 0
M  V30 1790 O 169.508 1.93771 -1.21099 0
M  V30 1791 C 169.718 -0.903191 -3.3711 0
M  V30 1792 C 171.066 -0.93395 -4.14201 0
M  V30 1793 O 172.09 -0.849373 -3.45925 0
M  V30 1794 O 170.949 -1.05772 -5.36167 0
M  V30 1795 H 168.043 -0.125035 -0.817493 0
M  V30 1796 H 170.589 -0.966269 -1.39504 0
M  V30 1797 H 169.361 -1.94692 -3.39427 0
M  V30 1798 H 168.984 -0.328732 -3.96239 0
M  V30 1799 N 169.982 1.44106 -0.638065 0
M  V30 1800 C 171.228 2.02277 -0.145546 0
M  V30 1801 C 171.561 1.50125 1.23191 0
M  V30 1802 O 170.836 0.688133 1.8192 0
M  V30 1803 C 171.119 3.59829 -0.139791 0
M  V30 1804 C 170.972 4.22247 -1.55008 0
M  V30 1805 C 172.291 4.36873 0.531966 0
M  V30 1806 H 169.41 0.734992 -0.0543632 0
M  V30 1807 H 172.052 1.71592 -0.815863 0
M  V30 1808 H 170.202 3.86102 0.431007 0
M  V30 1809 H 171.874 4.07057 -2.1703 0
M  V30 1810 H 170.117 3.79476 -2.10191 0
M  V30 1811 H 170.788 5.31284 -1.49804 0
M  V30 1812 H 173.264 4.16074 0.0464781 0
M  V30 1813 H 172.14 5.4657 0.505206 0
M  V30 1814 H 172.401 4.11995 1.60352 0
M  V30 1815 N 171.46 0.379036 1.52974 0
M  V30 1816 C 172.707 -0.206421 2.01445 0
M  V30 1817 C 173.035 -1.47668 1.26587 0
M  V30 1818 O 172.29 -1.92514 0.351675 0
M  V30 1819 C 172.589 -0.53096 3.53434 0
M  V30 1820 C 172.255 0.646546 4.46241 0
M  V30 1821 C 170.917 0.969604 4.7133 0
M  V30 1822 C 173.269 1.43479 5.01062 0
M  V30 1823 C 170.597 2.08263 5.48492 0
M  V30 1824 C 172.949 2.53834 5.7944 0
M  V30 1825 C 171.613 2.86659 6.02812 0
M  V30 1826 H 170.883 -0.0755349 0.73714 0
M  V30 1827 H 173.53 0.514271 1.84465 0
M  V30 1828 H 171.835 -1.33285 3.68432 0
M  V30 1829 H 173.532 -0.996417 3.88423 0
M  V30 1830 H 170.122 0.384734 4.2687 0
M  V30 1831 H 174.306 1.19844 4.81613 0
M  V30 1832 H 169.562 2.34078 5.64816 0
M  V30 1833 H 173.736 3.15319 6.20924 0
M  V30 1834 H 171.363 3.73026 6.62387 0
M  V30 1835 N 172.938 -1.57226 0.108567 0
M  V30 1836 C 174.163 -1.99604 -0.563303 0
M  V30 1837 C 174.588 -0.987563 -1.6009 0
M  V30 1838 O 173.946 0.0421687 -1.81251 0
M  V30 1839 C 173.994 -3.40902 -1.17552 0
M  V30 1840 O 173.098 -3.42896 -2.2912 0
M  V30 1841 H 172.439 -0.648704 -0.1417 0
M  V30 1842 H 174.969 -2.03679 0.193961 0
M  V30 1843 H 174.979 -3.78886 -1.51357 0
M  V30 1844 H 173.654 -4.1382 -0.415445 0
M  V30 1845 H 172.231 -3.1672 -1.96832 0
M  V30 1846 N 174.416 0.165178 -1.56732 0
M  V30 1847 C 175.693 0.908443 -1.73224 0
M  V30 1848 C 176.073 2.0013 -0.67165 0
M  V30 1849 O 175.421 2.26353 0.31253 0
M  V30 1850 C 175.631 1.46756 -3.16644 0
M  V30 1851 C 176.979 1.93809 -3.77787 0
M  V30 1852 O 178.003 1.56537 -3.1996 0
M  V30 1853 O 176.862 2.62486 -4.79336 0
M  V30 1854 H 173.956 0.428025 -0.707618 0
M  V30 1855 H 176.502 0.152526 -1.69013 0
M  V30 1856 H 175.274 0.68129 -3.85323 0
M  V30 1857 H 174.897 2.28749 -3.25207 0
M  V30 1858 N 175.894 1.51508 0.433938 0
M  V30 1859 C 177.122 1.68157 1.20543 0
M  V30 1860 C 177.537 0.380362 1.84929 0
M  V30 1861 O 176.894 -0.641446 1.70856 0
M  V30 1862 C 176.945 2.79965 2.28696 0
M  V30 1863 O 176.666 4.05045 1.66943 0
M  V30 1864 C 178.167 3.07912 3.18912 0
M  V30 1865 H 175.387 0.56421 0.363191 0
M  V30 1866 H 177.931 1.97941 0.513754 0
M  V30 1867 H 176.086 2.5277 2.93574 0
M  V30 1868 H 176.5 4.67165 2.38448 0
M  V30 1869 H 177.974 3.89719 3.90926 0
M  V30 1870 H 178.451 2.20456 3.79863 0
M  V30 1871 H 179.057 3.36779 2.59731 0
M  V30 1872 N 177.372 -0.689602 1.41712 0
M  V30 1873 C 178.621 -1.44534 1.40686 0
M  V30 1874 C 178.934 -1.95588 0.0213352 0
M  V30 1875 O 180.14 -2.71271 -0.111534 0
M  V30 1876 C 178.596 -2.61387 2.47396 0
M  V30 1877 C 178.204 -2.17094 3.91885 0
M  V30 1878 C 179.948 -3.38986 2.55517 0
M  V30 1879 C 177.855 -3.3094 4.90135 0
M  V30 1880 H 176.785 -0.542925 0.52321 0
M  V30 1881 H 179.436 -0.748054 1.6756 0
M  V30 1882 H 177.818 -3.33412 2.13664 0
M  V30 1883 H 178.992 -1.52318 4.34897 0
M  V30 1884 H 177.307 -1.52473 3.8748 0
M  V30 1885 H 179.904 -4.23747 3.26102 0
M  V30 1886 H 180.247 -3.84578 1.59391 0
M  V30 1887 H 180.78 -2.74021 2.8837 0
M  V30 1888 H 177.519 -2.90355 5.87685 0
M  V30 1889 H 177.039 -3.94546 4.51767 0
M  V30 1890 H 178.718 -3.9663 5.11169 0
M  V30 1891 N 178.85 -1.27639 -0.924453 0
M  V30 1892 C 179.797 -1.10644 -2.0255 0
M  V30 1893 C 180.767 -0.00658438 -1.66099 0
M  V30 1894 O 181.952 -0.16952 -1.90045 0
M  V30 1895 C 179.092 -0.76309 -3.36557 0
M  V30 1896 C 178.205 -1.94091 -3.85944 0
M  V30 1897 C 177.34 -1.53914 -5.08413 0
M  V30 1898 C 176.379 -2.68425 -5.50104 0
M  V30 1899 N 175.516 -2.28815 -6.63768 0
M  V30 1900 H 180.356 -2.04858 -2.16419 0
M  V30 1901 H 177.893 -1.01974 -1.06017 0
M  V30 1902 H 179.851 -0.544822 -4.13627 0
M  V30 1903 H 178.481 0.142102 -3.22487 0
M  V30 1904 H 177.533 -2.27162 -3.05125 0
M  V30 1905 H 178.845 -2.7998 -4.12811 0
M  V30 1906 H 177.999 -1.28231 -5.92994 0
M  V30 1907 H 176.738 -0.651391 -4.8333 0
M  V30 1908 H 175.743 -2.94819 -4.64071 0
M  V30 1909 H 176.968 -3.57826 -5.7718 0
M  V30 1910 H 174.914 -1.42495 -6.40337 0
M  V30 1911 H 174.831 -3.08242 -6.90306 0
M  V30 1912 H 176.099 -2.06387 -7.51681 0
M  V30 1913 N 180.328 1.1314 -1.09713 0
M  V30 1914 C 181.553 1.88862 -0.857081 0
M  V30 1915 C 181.978 1.78729 0.586304 0
M  V30 1916 O 181.336 1.13692 1.41222 0
M  V30 1917 C 181.384 3.36325 -1.30069 0
M  V30 1918 O 180.488 4.09815 -0.461007 0
M  V30 1919 H 179.829 0.587108 -0.310162 0
M  V30 1920 H 182.359 1.43129 -1.46203 0
M  V30 1921 H 182.369 3.87157 -1.28738 0
M  V30 1922 H 181.044 3.43017 -2.35185 0
M  V30 1923 H 179.621 3.68986 -0.538888 0
M  V30 1924 N 181.806 0.884767 1.30421 0
M  V30 1925 C 183.053 0.503105 1.96151 0
M  V30 1926 C 183.381 -0.947676 1.69851 0
M  V30 1927 O 182.636 -1.68467 0.995861 0
M  V30 1928 C 182.935 0.724318 3.49983 0
M  V30 1929 C 182.601 2.15015 3.96332 0
M  V30 1930 C 181.263 2.54005 4.08699 0
M  V30 1931 C 183.615 3.07936 4.20505 0
M  V30 1932 C 180.943 3.85128 4.42599 0
M  V30 1933 C 183.295 4.3859 4.55874 0
M  V30 1934 C 181.959 4.77474 4.66449 0
M  V30 1935 H 181.229 0.184099 0.717766 0
M  V30 1936 H 183.876 1.12058 1.55291 0
M  V30 1937 H 182.181 0.0238086 3.91793 0
M  V30 1938 H 183.878 0.408617 3.98913 0
M  V30 1939 H 180.468 1.8375 3.87213 0
M  V30 1940 H 184.652 2.79033 4.10431 0
M  V30 1941 H 179.908 4.14996 4.48986 0
M  V30 1942 H 184.082 5.10629 4.7353 0
M  V30 1943 H 181.709 5.79115 4.92473 0
M  V30 1944 N 183.284 -1.43765 0.645699 0
M  V30 1945 C 184.247 -2.29163 -0.0409488 0
M  V30 1946 C 185.247 -1.41813 -0.757996 0
M  V30 1947 O 186.437 -1.63527 -0.600382 0
M  V30 1948 C 183.569 -3.23716 -1.06869 0
M  V30 1949 H 184.762 -2.91366 0.710345 0
M  V30 1950 H 182.315 -1.5092 0.406547 0
M  V30 1951 H 183.05 -2.66393 -1.84947 0
M  V30 1952 H 182.835 -3.88105 -0.558277 0
M  V30 1953 H 184.325 -3.87831 -1.54845 0
M  V30 1954 N 184.763 -0.387143 -1.52771 0
M  V30 1955 C 185.988 0.198407 -2.06449 0
M  V30 1956 C 186.413 1.39918 -1.25716 0
M  V30 1957 O 185.771 1.79099 -0.281657 0
M  V30 1958 C 185.819 0.548893 -3.56398 0
M  V30 1959 O 184.923 1.64315 -3.78252 0
M  V30 1960 H 184.264 0.0237731 -0.663574 0
M  V30 1961 H 186.794 -0.553989 -1.96957 0
M  V30 1962 H 186.804 0.813812 -3.99801 0
M  V30 1963 H 185.479 -0.329005 -4.14597 0
M  V30 1964 H 184.056 1.37211 -3.46738 0
M  V30 1965 N 186.241 1.57166 -0.116904 0
M  V30 1966 C 187.466 1.999 0.55271 0
M  V30 1967 C 187.891 0.996039 1.59564 0
M  V30 1968 O 187.249 -0.032556 1.81271 0
M  V30 1969 C 187.297 3.4152 1.15742 0
M  V30 1970 O 186.401 3.44106 2.27299 0
M  V30 1971 H 185.742 0.649447 0.138258 0
M  V30 1972 H 188.272 2.03573 -0.204759 0
M  V30 1973 H 188.282 3.79684 1.49346 0
M  V30 1974 H 186.957 4.14034 0.393493 0
M  V30 1975 H 185.534 3.17759 1.9515 0
M  V30 1976 N 187.719 -0.156864 1.56817 0
M  V30 1977 C 188.967 -0.869404 1.82444 0
M  V30 1978 C 189.288 -1.82147 0.69623 0
M  V30 1979 O 188.558 -1.93847 -0.28287 0
M  V30 1980 H 187.138 -0.324043 0.673056 0
M  V30 1981 H 189.8 -0.153224 1.94297 0
M  V30 1982 H 188.896 -1.43761 2.77019 0
M  V30 1983 N 189.197 -1.51736 -0.425897 0
M  V30 1984 C 190.144 -1.73875 -1.51776 0
M  V30 1985 C 191.114 -0.580702 -1.55618 0
M  V30 1986 O 192.299 -0.81641 -1.72451 0
M  V30 1987 C 189.439 -1.88012 -2.89388 0
M  V30 1988 C 188.552 -3.15606 -2.94986 0
M  V30 1989 C 187.687 -3.20271 -4.23793 0
M  V30 1990 C 186.726 -4.42134 -4.23302 0
M  V30 1991 N 185.863 -4.44284 -5.43651 0
M  V30 1992 H 190.703 -2.67071 -1.32201 0
M  V30 1993 H 188.24 -1.32351 -0.642008 0
M  V30 1994 H 190.198 -1.9419 -3.69251 0
M  V30 1995 H 188.828 -0.98213 -3.07496 0
M  V30 1996 H 187.88 -3.18681 -2.07717 0
M  V30 1997 H 189.192 -4.05486 -2.90486 0
M  V30 1998 H 188.346 -3.25428 -5.12036 0
M  V30 1999 H 187.085 -2.28299 -4.30965 0
M  V30 2000 H 186.09 -4.3714 -3.3345 0
M  V30 2001 H 187.315 -5.35382 -4.17783 0
M  V30 2002 H 185.261 -3.55188 -5.51523 0
M  V30 2003 H 185.178 -5.27988 -5.41078 0
M  V30 2004 H 186.446 -4.53649 -6.33895 0
M  V30 2005 N 190.675 0.682077 -1.42076 0
M  V30 2006 C 191.585 1.82535 -1.47371 0
M  V30 2007 C 192.601 1.7017 -0.363079 0
M  V30 2008 O 193.777 1.91848 -0.612875 0
M  V30 2009 C 190.842 3.18624 -1.36674 0
M  V30 2010 C 189.903 3.42999 -2.58167 0
M  V30 2011 C 189.136 4.72595 -2.4797 0
M  V30 2012 O 189.359 5.50006 -1.5116 0
M  V30 2013 O 188.293 4.98054 -3.37974 0
M  V30 2014 H 192.119 1.81023 -2.43853 0
M  V30 2015 H 189.704 0.836887 -1.2376 0
M  V30 2016 H 191.586 3.99847 -1.33043 0
M  V30 2017 H 190.261 3.20789 -0.433138 0
M  V30 2018 H 189.168 2.61653 -2.67373 0
M  V30 2019 H 190.501 3.45659 -3.50401 0
M  V30 2020 N 192.153 1.28127 0.917671 0
M  V30 2021 C 193.1 1.11717 2.0196 0
M  V30 2022 C 194.07 0.0153929 1.66093 0
M  V30 2023 O 195.255 0.179596 1.89953 0
M  V30 2024 C 192.395 0.780927 3.36148 0
M  V30 2025 C 191.508 1.96135 3.84909 0
M  V30 2026 C 190.643 1.56609 5.0759 0
M  V30 2027 C 189.682 2.71339 5.48673 0
M  V30 2028 N 188.819 2.32332 6.62545 0
M  V30 2029 H 193.659 2.06003 2.15329 0
M  V30 2030 H 191.196 1.02535 1.05475 0
M  V30 2031 H 193.154 0.56675 4.13333 0
M  V30 2032 H 191.784 -0.124998 3.22558 0
M  V30 2033 H 190.836 2.28777 3.03916 0
M  V30 2034 H 192.148 2.82165 4.1132 0
M  V30 2035 H 191.302 1.31374 5.92305 0
M  V30 2036 H 190.041 0.677014 4.82978 0
M  V30 2037 H 189.046 2.97276 4.62501 0
M  V30 2038 H 190.271 3.60882 5.75274 0
M  V30 2039 H 188.217 1.45889 6.39572 0
M  V30 2040 H 188.134 3.11899 6.88662 0
M  V30 2041 H 189.402 2.10371 7.50576 0
M  V30 2042 N 193.631 -1.12557 1.10312 0
M  V30 2043 C 195.042 -1.65574 0.862678 0
M  V30 2044 C 195.393 -1.86566 -0.607256 0
M  V30 2045 O 194.518 -1.59121 -1.46662 0
M  V30 2046 C 195.113 -3.00776 1.55947 0
M  V30 2047 C 193.672 -3.50748 1.36576 0
M  V30 2048 C 192.819 -2.25797 1.60968 0
M  V30 2049 H 195.77 -0.963552 1.26101 0
M  V30 2050 H 195.791 -3.67185 0.997753 0
M  V30 2051 H 195.303 -2.85465 2.62928 0
M  V30 2052 H 193.404 -3.71245 0.317531 0
M  V30 2053 H 193.517 -4.30289 2.10686 0
M  V30 2054 H 191.881 -2.32841 1.03234 0
M  V30 2055 H 192.664 -2.13043 2.69198 0
M  V30 2056 N 195.109 -0.891671 -1.2995 0
M  V30 2057 C 196.334 -0.527932 -2.00568 0
M  V30 2058 C 196.759 0.877969 -1.66353 0
M  V30 2059 O 196.117 1.58301 -0.883762 0
M  V30 2060 C 196.165 -0.717745 -3.53385 0
M  V30 2061 O 195.269 0.233376 -4.11739 0
M  V30 2062 H 194.61 -0.20722 -0.630837 0
M  V30 2063 H 197.14 -1.20105 -1.65638 0
M  V30 2064 H 197.15 -0.619307 -4.03272 0
M  V30 2065 H 195.825 -1.74276 -3.77625 0
M  V30 2066 H 194.402 0.0880706 -3.72796 0
M  V30 2067 N 196.587 1.43421 -0.653314 0
M  V30 2068 C 197.497 2.34568 0.0388565 0
M  V30 2069 C 198.513 1.53888 0.81207 0
M  V30 2070 O 199.689 1.86539 0.759294 0
M  V30 2071 C 196.754 3.32167 0.993269 0
M  V30 2072 C 195.815 4.28751 0.216977 0
M  V30 2073 C 195.048 5.21688 1.12593 0
M  V30 2074 O 195.271 5.19052 2.36519 0
M  V30 2075 O 194.205 5.98919 0.598284 0
M  V30 2076 H 198.031 2.95251 -0.711386 0
M  V30 2077 H 195.616 1.43564 -0.413502 0
M  V30 2078 H 197.498 3.92183 1.54176 0
M  V30 2079 H 196.173 2.73987 1.72374 0
M  V30 2080 H 195.08 3.72215 -0.375101 0
M  V30 2081 H 196.413 4.89913 -0.473924 0
M  V30 2082 N 198.065 0.39524 1.52563 0
M  V30 2083 C 199.314 -0.186321 2.00838 0
M  V30 2084 C 199.627 -1.47402 1.28577 0
M  V30 2085 O 200.833 -2.13599 1.67593 0
M  V30 2086 C 199.289 -0.382595 3.57861 0
M  V30 2087 C 198.897 0.892202 4.39026 0
M  V30 2088 C 200.641 -0.9202 4.14406 0
M  V30 2089 C 198.548 0.66388 5.87662 0
M  V30 2090 H 197.478 -0.0734041 0.750418 0
M  V30 2091 H 200.129 0.518552 1.76021 0
M  V30 2092 H 198.511 -1.14946 3.7895 0
M  V30 2093 H 199.685 1.66414 4.29701 0
M  V30 2094 H 198 1.35519 3.9373 0
M  V30 2095 H 200.597 -1.10683 5.23119 0
M  V30 2096 H 200.94 -1.89096 3.70875 0
M  V30 2097 H 201.473 -0.212751 3.97231 0
M  V30 2098 H 198.212 1.6058 6.35527 0
M  V30 2099 H 197.732 -0.0690193 5.9976 0
M  V30 2100 H 199.411 0.300699 6.46301 0
M  V30 2101 N 199.544 -1.57102 0.125237 0
M  V30 2102 C 200.491 -2.15641 -0.822655 0
M  V30 2103 C 201.461 -1.08313 -1.25927 0
M  V30 2104 O 202.646 -1.36251 -1.33567 0
M  V30 2105 C 199.786 -2.76504 -2.06494 0
M  V30 2106 C 198.899 -3.98158 -1.67612 0
M  V30 2107 C 198.034 -4.47088 -2.86854 0
M  V30 2108 C 197.073 -5.6126 -2.44242 0
M  V30 2109 N 196.21 -6.04905 -3.56419 0
M  V30 2110 H 201.05 -2.96313 -0.316625 0
M  V30 2111 H 198.587 -1.46388 -0.144588 0
M  V30 2112 H 200.545 -3.09925 -2.79289 0
M  V30 2113 H 199.175 -1.98512 -2.54545 0
M  V30 2114 H 198.227 -3.70858 -0.846661 0
M  V30 2115 H 199.539 -4.80934 -1.32301 0
M  V30 2116 H 198.693 -4.82451 -3.67867 0
M  V30 2117 H 197.432 -3.63275 -3.25396 0
M  V30 2118 H 196.437 -5.25495 -1.61663 0
M  V30 2119 H 197.662 -6.46843 -2.0681 0
M  V30 2120 H 195.608 -5.24032 -3.94623 0
M  V30 2121 H 195.525 -6.82552 -3.25051 0
M  V30 2122 H 196.793 -6.44907 -4.37853 0
M  V30 2123 N 201.022 0.148545 -1.56898 0
M  V30 2124 C 201.97 1.20265 -1.99096 0
M  V30 2125 C 202.964 1.44559 -0.883123 0
M  V30 2126 O 204.17 1.4487 -1.0683 0
M  V30 2127 H 200.545 0.404786 -0.63376 0
M  V30 2128 H 202.516 0.82004 -2.86911 0
M  V30 2129 C 201.265 2.52886 -2.3863 0
M  V30 2130 H 200.588 2.35021 -3.23427 0
M  V30 2131 H 202.028 3.25274 -2.7198 0
M  V30 2132 C 200.487 3.13315 -1.23837 0
M  V30 2133 O 201.017 3.98077 -0.538268 0
M  V30 2134 N 199.223 2.72742 -1.00301 0
M  V30 2135 H 198.77 2.03912 -1.5741 0
M  V30 2136 H 198.728 3.13507 -0.236838 0
M  V30 2137 N 202.5 1.5196 0.417844 0
M  V30 2138 C 203.41 1.77554 1.53336 0
M  V30 2139 C 204.426 0.660655 1.6097 0
M  V30 2140 O 205.602 0.945099 1.77848 0
M  V30 2141 C 202.667 1.91291 2.89152 0
M  V30 2142 C 201.728 3.15183 2.91475 0
M  V30 2143 C 200.961 3.28256 4.20813 0
M  V30 2144 O 201.184 2.46798 5.14244 0
M  V30 2145 O 200.118 4.21356 4.29817 0
M  V30 2146 H 203.944 2.7222 1.34647 0
M  V30 2147 H 201.529 1.36698 0.602828 0
M  V30 2148 H 203.411 2.02199 3.69721 0
M  V30 2149 H 202.086 0.998129 3.07927 0
M  V30 2150 H 200.993 3.09739 2.09791 0
M  V30 2151 H 202.326 4.06414 2.77648 0
M  V30 2152 N 203.978 -0.674533 1.42435 0
M  V30 2153 C 205.206 -1.46283 1.46317 0
M  V30 2154 C 205.621 -1.88653 0.0745836 0
M  V30 2155 O 204.978 -1.58151 -0.91074 0
M  V30 2156 C 205.029 -2.71178 2.3905 0
M  V30 2157 O 204.75 -2.30586 3.72507 0
M  V30 2158 C 206.251 -3.64738 2.51955 0
M  V30 2159 H 203.471 -0.450104 0.497642 0
M  V30 2160 H 206.015 -0.828792 1.86953 0
M  V30 2161 H 204.17 -3.3077 2.01667 0
M  V30 2162 H 204.584 -3.11241 4.22172 0
M  V30 2163 H 206.058 -4.49096 3.20962 0
M  V30 2164 H 206.535 -4.10656 1.55752 0
M  V30 2165 H 207.141 -3.11038 2.90061 0
M  V30 2166 N 205.456 -1.28612 -0.910864 0
M  V30 2167 C 206.366 -1.14643 -2.0468 0
M  V30 2168 C 207.382 -0.0723121 -1.7385 0
M  V30 2169 O 208.558 -0.282178 -1.99413 0
M  V30 2170 C 205.623 -0.812561 -3.37044 0
M  V30 2171 C 204.684 -1.96935 -3.81465 0
M  V30 2172 C 203.917 -1.65131 -5.07511 0
M  V30 2173 O 204.14 -0.567013 -5.67575 0
M  V30 2174 O 203.074 -2.49585 -5.47714 0
M  V30 2175 H 206.9 -2.1001 -2.19384 0
M  V30 2176 H 204.485 -1.07958 -1.03274 0
M  V30 2177 H 206.367 -0.640441 -4.16505 0
M  V30 2178 H 205.042 0.111426 -3.23508 0
M  V30 2179 H 203.949 -2.19664 -3.02818 0
M  V30 2180 H 205.282 -2.87414 -3.99567 0
M  V30 2181 N 206.934 1.1197 -1.10907 0
M  V30 2182 C 208.162 1.87402 -0.876824 0
M  V30 2183 C 208.577 1.79894 0.573025 0
M  V30 2184 O 207.934 1.17629 1.39534 0
M  V30 2185 C 207.985 3.36428 -1.32282 0
M  V30 2186 O 207.706 3.43765 -2.71582 0
M  V30 2187 C 209.207 4.28783 -1.12518 0
M  V30 2188 H 206.427 0.592793 -0.314384 0
M  V30 2189 H 208.971 1.41649 -1.47499 0
M  V30 2190 H 207.126 3.79706 -0.768229 0
M  V30 2191 H 207.54 4.3652 -2.90776 0
M  V30 2192 H 209.014 5.31613 -1.48633 0
M  V30 2193 H 209.491 4.39153 -0.0642394 0
M  V30 2194 H 210.097 3.91291 -1.66648 0
M  V30 2195 N 208.412 0.89855 1.29475 0
M  V30 2196 C 209.359 0.373819 2.27753 0
M  V30 2197 C 210.329 -0.543444 1.56958 0
M  V30 2198 O 211.514 -0.468934 1.84948 0
M  V30 2199 C 208.654 -0.393648 3.42848 0
M  V30 2200 C 207.767 0.554379 4.28428 0
M  V30 2201 C 206.902 -0.230026 5.30702 0
M  V30 2202 C 205.941 0.712599 6.07938 0
M  V30 2203 N 205.078 -0.0373283 7.0209 0
M  V30 2204 H 209.918 1.21699 2.72017 0
M  V30 2205 H 207.455 0.611456 1.33789 0
M  V30 2206 H 209.413 -0.85466 4.08352 0
M  V30 2207 H 208.043 -1.20128 2.99615 0
M  V30 2208 H 207.095 1.13391 3.63107 0
M  V30 2209 H 208.407 1.27597 4.82204 0
M  V30 2210 H 207.561 -0.752288 6.02018 0
M  V30 2211 H 206.3 -0.984758 4.77654 0
M  V30 2212 H 205.305 1.24637 5.35486 0
M  V30 2213 H 206.53 1.46664 6.63074 0
M  V30 2214 H 204.476 -0.774348 6.51414 0
M  V30 2215 H 204.393 0.624374 7.53417 0
M  V30 2216 H 205.661 -0.539891 7.77628 0
M  V30 2217 N 209.89 -1.43072 0.660911 0
M  V30 2218 C 211.138 -2.01323 0.177094 0
M  V30 2219 C 211.459 -1.5245 -1.2159 0
M  V30 2220 O 210.729 -0.740322 -1.81373 0
M  V30 2221 H 209.309 -0.744382 0.0624804 0
M  V30 2222 H 211.971 -1.75179 0.854305 0
M  V30 2223 H 211.067 -3.11649 0.167641 0
M  V30 2224 N 211.368 -0.403325 -1.52352 0
M  V30 2225 C 212.278 0.432009 -2.30588 0
M  V30 2226 C 213.294 1.05884 -1.38075 0
M  V30 2227 O 214.47 1.06161 -1.71148 0
M  V30 2228 C 211.535 1.53669 -3.10784 0
M  V30 2229 C 210.596 0.933525 -4.19027 0
M  V30 2230 C 209.829 1.98557 -4.9539 0
M  V30 2231 O 210.052 3.20283 -4.71991 0
M  V30 2232 O 208.986 1.59504 -5.80381 0
M  V30 2233 H 212.812 -0.205739 -3.03002 0
M  V30 2234 H 210.397 -0.166675 -1.48467 0
M  V30 2235 H 212.279 2.17814 -3.60742 0
M  V30 2236 H 210.954 2.15915 -2.41169 0
M  V30 2237 H 209.861 0.254954 -3.7323 0
M  V30 2238 H 211.194 0.35508 -4.90918 0
M  V30 2239 N 212.846 1.57033 -0.133567 0
M  V30 2240 C 213.756 2.19632 0.824564 0
M  V30 2241 C 214.772 1.17666 1.28182 0
M  V30 2242 O 215.948 1.50193 1.3418 0
M  V30 2243 C 213.013 2.79499 2.05137 0
M  V30 2244 C 212.074 3.96548 1.64464 0
M  V30 2245 C 211.307 4.5355 2.81297 0
M  V30 2246 O 211.53 4.09438 3.97136 0
M  V30 2247 O 210.464 5.44018 2.57542 0
M  V30 2248 H 214.29 3.01991 0.321766 0
M  V30 2249 H 211.875 1.49112 0.0927889 0
M  V30 2250 H 213.757 3.17602 2.7696 0
M  V30 2251 H 212.432 2.00162 2.54395 0
M  V30 2252 H 211.339 3.63186 0.897048 0
M  V30 2253 H 212.672 4.77364 1.19934 0
M  V30 2254 N 214.325 -0.140222 1.56975 0
M  V30 2255 C 215.235 -1.19223 2.02047 0
M  V30 2256 C 216.251 -1.46612 0.937062 0
M  V30 2257 O 217.427 -1.58148 1.24704 0
M  V30 2258 C 214.492 -2.50414 2.39778 0
M  V30 2259 C 213.553 -2.30612 3.621 0
M  V30 2260 C 212.786 -3.55547 3.98023 0
M  V30 2261 O 213.009 -4.62004 3.34528 0
M  V30 2262 O 211.943 -3.47808 4.91237 0
M  V30 2263 H 215.769 -0.839559 2.91865 0
M  V30 2264 H 213.354 -0.349453 1.45256 0
M  V30 2265 H 215.236 -3.27747 2.64877 0
M  V30 2266 H 213.911 -2.85198 1.53114 0
M  V30 2267 H 212.818 -1.51207 3.4218 0
M  V30 2268 H 214.151 -2.00741 4.49404 0
M  V30 2269 N 215.803 -1.52179 -0.40978 0
M  V30 2270 C 216.753 -1.71857 -1.49831 0
M  V30 2271 C 217.737 -0.572469 -1.50372 0
M  V30 2272 O 218.929 -0.829509 -1.56359 0
M  V30 2273 C 216.058 -1.87206 -2.87765 0
M  V30 2274 C 215.144 -3.07685 -2.91875 0
M  V30 2275 N 215.535 -4.30403 -2.65683 0
M  V30 2276 C 213.833 -3.07505 -3.23043 0
M  V30 2277 C 214.534 -5.11868 -2.76344 0
M  V30 2278 N 213.51 -4.47101 -3.09195 0
M  V30 2279 H 217.312 -2.64381 -1.28375 0
M  V30 2280 H 214.826 -1.50203 -0.617479 0
M  V30 2281 H 216.823 -1.99419 -3.66111 0
M  V30 2282 H 215.483 -0.958814 -3.10221 0
M  V30 2283 H 216.494 -4.58887 -2.4009 0
M  V30 2284 H 213.171 -2.25915 -3.51096 0
M  V30 2285 H 214.561 -6.19634 -2.59814 0
M  V30 2286 N 217.281 0.66697 -1.42791 0
M  V30 2287 C 218.228 1.7803 -1.4688 0
M  V30 2288 C 219.198 1.6299 -0.319919 0
M  V30 2289 O 220.383 1.83432 -0.525118 0
M  V30 2290 C 217.523 3.1611 -1.38451 0
M  V30 2291 C 216.636 3.42381 -2.63437 0
M  V30 2292 C 215.771 4.70232 -2.47094 0
M  V30 2293 C 214.81 4.89564 -3.67415 0
M  V30 2294 N 213.947 6.08661 -3.49966 0
M  V30 2295 H 218.787 1.7387 -2.42019 0
M  V30 2296 H 216.324 0.84868 -1.20149 0
M  V30 2297 H 218.282 3.95914 -1.31561 0
M  V30 2298 H 216.912 3.19374 -0.469033 0
M  V30 2299 H 215.964 2.56774 -2.80662 0
M  V30 2300 H 217.276 3.52557 -3.52853 0
M  V30 2301 H 216.43 5.5814 -2.37834 0
M  V30 2302 H 215.169 4.62353 -1.5518 0
M  V30 2303 H 214.174 4.00096 -3.77099 0
M  V30 2304 H 215.399 4.99282 -4.6032 0
M  V30 2305 H 213.345 6.0194 -2.60776 0
M  V30 2306 H 213.262 6.19733 -4.32975 0
M  V30 2307 H 214.53 6.99226 -3.44532 0
M  V30 2308 N 218.759 1.29093 0.90403 0
M  V30 2309 C 220.007 1.16583 1.65085 0
M  V30 2310 C 220.328 -0.283933 1.92922 0
M  V30 2311 O 219.598 -1.19509 1.55224 0
M  V30 2312 H 218.178 0.428467 0.611903 0
M  V30 2313 H 220.84 1.61959 1.08422 0
M  V30 2314 H 219.936 1.71266 2.6091 0
M  V30 2315 N 220.237 -1.11381 1.11499 0
M  V30 2316 C 221.147 -2.21019 0.786628 0
M  V30 2317 C 222.163 -1.72597 -0.220507 0
M  V30 2318 O 223.339 -2.01321 -0.0565251 0
M  V30 2319 C 220.404 -3.459 0.235333 0
M  V30 2320 C 219.465 -4.09107 1.30115 0
M  V30 2321 C 218.698 -5.28027 0.776068 0
M  V30 2322 O 218.921 -5.6904 -0.393661 0
M  V30 2323 O 217.855 -5.81835 1.54114 0
M  V30 2324 H 221.681 -2.51521 1.70209 0
M  V30 2325 H 219.266 -1.19928 0.890928 0
M  V30 2326 H 221.148 -4.21346 -0.067715 0
M  V30 2327 H 219.823 -3.17049 -0.652828 0
M  V30 2328 H 218.73 -3.35391 1.65722 0
M  V30 2329 H 220.063 -4.42139 2.16273 0
M  V30 2330 N 221.715 -0.905404 -1.28997 0
M  V30 2331 C 222.94 -0.549175 -1.99997 0
M  V30 2332 C 223.365 0.860276 -1.67275 0
M  V30 2333 O 222.723 1.57355 -0.900502 0
M  V30 2334 C 222.771 -0.755185 -3.52604 0
M  V30 2335 O 221.875 0.189692 -4.11964 0
M  V30 2336 H 221.216 -0.213899 -0.628604 0
M  V30 2337 H 223.746 -1.21856 -1.64354 0
M  V30 2338 H 223.756 -0.662045 -4.02593 0
M  V30 2339 H 222.431 -1.78271 -3.75755 0
M  V30 2340 H 221.008 0.0485257 -3.72868 0
M  V30 2341 N 223.193 1.4272 -0.668489 0
M  V30 2342 C 224.421 2.05966 -0.196348 0
M  V30 2343 C 224.836 1.50191 1.14403 0
M  V30 2344 O 224.193 0.639208 1.7094 0
M  V30 2345 C 224.244 3.61314 -0.115815 0
M  V30 2346 O 223.965 4.1502 -1.40322 0
M  V30 2347 C 225.466 4.41663 0.380579 0
M  V30 2348 H 222.686 0.663954 -0.0969829 0
M  V30 2349 H 225.23 1.82966 -0.913446 0
M  V30 2350 H 223.385 3.83448 0.551931 0
M  V30 2351 H 223.799 5.08832 -1.27243 0
M  V30 2352 H 225.273 5.5065 0.385848 0
M  V30 2353 H 225.75 4.15792 1.41471 0
M  V30 2354 H 226.356 4.24534 -0.255209 0
M  V30 2355 N 224.671 0.411399 1.52136 0
M  V30 2356 C 225.896 -0.165538 2.06738 0
M  V30 2357 C 226.321 -1.379 1.27926 0
M  V30 2358 O 225.679 -1.78628 0.310114 0
M  V30 2359 C 225.727 -0.492124 3.57226 0
M  V30 2360 O 224.831 -1.58276 3.80818 0
M  V30 2361 H 224.172 -0.0132132 0.663869 0
M  V30 2362 H 226.702 0.585253 1.96051 0
M  V30 2363 H 226.712 -0.750104 4.01045 0
M  V30 2364 H 225.387 0.394922 4.14021 0
M  V30 2365 H 223.964 -1.31677 3.48877 0
M  V30 2366 N 226.149 -1.5696 0.141893 0
M  V30 2367 C 227.097 -2.17784 -0.816874 0
M  V30 2368 C 228.091 -1.1334 -1.25899 0
M  V30 2369 O 229.297 -1.316 -1.22806 0
M  V30 2370 H 225.672 -0.697278 -0.281615 0
M  V30 2371 H 227.643 -2.97087 -0.279621 0
M  V30 2372 C 226.392 -2.80983 -2.04802 0
M  V30 2373 H 225.715 -3.61062 -1.7168 0
M  V30 2374 H 227.155 -3.2705 -2.69841 0
M  V30 2375 C 225.614 -1.79228 -2.8527 0
M  V30 2376 O 226.144 -1.25962 -3.8144 0
M  V30 2377 N 224.35 -1.48647 -2.49704 0
M  V30 2378 H 223.897 -1.92155 -1.71564 0
M  V30 2379 H 223.855 -0.808115 -3.03837 0
M  V30 2380 N 227.627 0.131896 -1.57047 0
M  V30 2381 C 228.537 1.1815 -2.02676 0
M  V30 2382 C 229.553 1.46113 -0.944824 0
M  V30 2383 O 230.729 1.57485 -1.25541 0
M  V30 2384 C 227.794 2.49139 -2.41103 0
M  V30 2385 C 226.855 2.28688 -3.63318 0
M  V30 2386 C 226.088 3.53431 -3.99903 0
M  V30 2387 O 226.311 4.60223 -3.36973 0
M  V30 2388 O 225.245 3.45198 -4.93074 0
M  V30 2389 H 229.071 0.824069 -2.92306 0
M  V30 2390 H 226.656 0.341745 -1.45439 0
M  V30 2391 H 228.538 3.26338 -2.66611 0
M  V30 2392 H 227.213 2.84382 -1.54624 0
M  V30 2393 H 226.12 1.4939 -3.42977 0
M  V30 2394 H 227.453 1.98355 -4.50462 0
M  V30 2395 N 229.106 1.52395 0.401703 0
M  V30 2396 C 230.016 1.7917 1.51444 0
M  V30 2397 C 231.032 0.677691 1.6026 0
M  V30 2398 O 232.208 0.963909 1.76835 0
M  V30 2399 C 229.273 1.94347 2.87107 0
M  V30 2400 C 228.334 3.18257 2.88116 0
M  V30 2401 C 227.567 3.32701 4.17308 0
M  V30 2402 O 227.79 2.52238 5.11598 0
M  V30 2403 O 226.724 4.25891 4.25324 0
M  V30 2404 H 230.55 2.73633 1.31752 0
M  V30 2405 H 228.135 1.3733 0.588296 0
M  V30 2406 H 230.017 2.06109 3.67555 0
M  V30 2407 H 228.692 1.03073 3.06851 0
M  V30 2408 H 227.599 3.11947 2.06494 0
M  V30 2409 H 228.932 4.09336 2.73322 0
M  V30 2410 N 230.584 -0.659388 1.43143 0
M  V30 2411 C 231.83 -1.42145 1.44647 0
M  V30 2412 C 232.163 -1.9408 0.0681907 0
M  V30 2413 O 231.438 -1.71899 -0.910007 0
M  V30 2414 C 231.721 -2.60735 2.48373 0
M  V30 2415 C 231.574 -2.14332 3.95451 0
M  V30 2416 C 232.893 -3.62951 2.48906 0
M  V30 2417 H 230.012 -0.51552 0.526696 0
M  V30 2418 H 232.654 -0.748069 1.74654 0
M  V30 2419 H 230.804 -3.18184 2.22916 0
M  V30 2420 H 232.476 -1.61932 4.31944 0
M  V30 2421 H 230.719 -1.4576 4.08578 0
M  V30 2422 H 231.39 -2.99583 4.63631 0
M  V30 2423 H 233.866 -3.1525 2.71582 0
M  V30 2424 H 232.742 -4.43487 3.23435 0
M  V30 2425 H 233.003 -4.15126 1.52061 0
M  V30 2426 N 232.062 -1.29571 -0.897171 0
M  V30 2427 C 233.308 -1.17863 -1.65034 0
M  V30 2428 C 233.641 0.268729 -1.92332 0
M  V30 2429 O 232.916 1.19378 -1.53555 0
M  V30 2430 C 233.199 -1.995 -2.99786 0
M  V30 2431 C 233.052 -3.5239 -2.79538 0
M  V30 2432 C 234.371 -1.82335 -4.00552 0
M  V30 2433 H 231.49 -0.429528 -0.598895 0
M  V30 2434 H 234.132 -1.59072 -1.03905 0
M  V30 2435 H 232.282 -1.64485 -3.51962 0
M  V30 2436 H 233.954 -3.97401 -2.34244 0
M  V30 2437 H 232.197 -3.77187 -2.14273 0
M  V30 2438 H 232.868 -4.04787 -3.75302 0
M  V30 2439 H 235.344 -2.12924 -3.57495 0
M  V30 2440 H 234.22 -2.41801 -4.92771 0
M  V30 2441 H 234.481 -0.779209 -4.35179 0
M  V30 2442 N 233.54 1.10788 -1.12088 0
M  V30 2443 C 234.786 1.82942 -0.875226 0
M  V30 2444 C 235.119 1.84779 0.597538 0
M  V30 2445 O 234.394 1.30578 1.44152 0
M  V30 2446 C 234.677 3.29789 -1.44606 0
M  V30 2447 C 234.53 3.36307 -2.98693 0
M  V30 2448 C 235.849 4.26064 -1.10261 0
M  V30 2449 H 232.968 0.664195 -0.319397 0
M  V30 2450 H 235.61 1.29867 -1.38689 0
M  V30 2451 H 233.76 3.75118 -1.01089 0
M  V30 2452 H 235.432 2.99487 -3.50864 0
M  V30 2453 H 233.675 2.76318 -3.34411 0
M  V30 2454 H 234.346 4.39694 -3.33726 0
M  V30 2455 H 236.822 3.88951 -1.4784 0
M  V30 2456 H 235.698 5.27183 -1.52869 0
M  V30 2457 H 235.959 4.42098 -0.0142953 0
M  V30 2458 N 235.018 0.912232 1.28515 0
M  V30 2459 C 235.948 0.416403 2.29757 0
M  V30 2460 C 236.929 -0.515194 1.6211 0
M  V30 2461 O 238.114 -0.423253 1.89532 0
M  V30 2462 C 235.244 -0.34572 3.45575 0
M  V30 2463 C 234.198 0.496599 4.25109 0
M  V30 2464 C 233.524 -0.393771 5.33248 0
M  V30 2465 C 234.824 1.75307 4.92001 0
M  V30 2466 H 236.518 1.26249 2.7148 0
M  V30 2467 H 234.064 0.608515 1.30511 0
M  V30 2468 H 236.017 -0.703422 4.15488 0
M  V30 2469 H 234.741 -1.2257 3.02728 0
M  V30 2470 H 233.4 0.8368 3.56922 0
M  V30 2471 H 233.048 -1.27225 4.86644 0
M  V30 2472 H 232.748 0.166209 5.87365 0
M  V30 2473 H 234.272 -0.747389 6.06009 0
M  V30 2474 H 235.686 1.46437 5.54283 0
M  V30 2475 H 234.083 2.25534 5.56106 0
M  V30 2476 H 235.153 2.48176 4.16577 0
M  V30 2477 N 236.496 -1.42363 0.676048 0
M  V30 2478 C 237.907 -1.84649 0.275948 0
M  V30 2479 C 238.258 -1.56588 -1.18214 0
M  V30 2480 O 237.383 -1.02634 -1.90513 0
M  V30 2481 C 237.978 -3.35178 0.494053 0
M  V30 2482 C 236.537 -3.76109 0.148061 0
M  V30 2483 C 235.684 -2.65931 0.785891 0
M  V30 2484 H 238.635 -1.32192 0.878121 0
M  V30 2485 H 238.656 -3.79655 -0.25343 0
M  V30 2486 H 238.168 -3.55571 1.55535 0
M  V30 2487 H 236.269 -3.61323 -0.909742 0
M  V30 2488 H 236.382 -4.7546 0.589454 0
M  V30 2489 H 234.746 -2.53773 0.217113 0
M  V30 2490 H 235.529 -2.89146 1.85067 0
M  V30 2491 N 237.974 -0.419461 -1.51915 0
M  V30 2492 C 238.884 0.407528 -2.31033 0
M  V30 2493 C 239.9 1.04413 -1.3919 0
M  V30 2494 O 241.076 1.0434 -1.72265 0
M  V30 2495 C 238.141 1.50365 -3.12396 0
M  V30 2496 C 237.202 0.889029 -4.19994 0
M  V30 2497 C 236.435 1.93291 -4.97468 0
M  V30 2498 O 236.658 3.15259 -4.75361 0
M  V30 2499 O 235.592 1.53339 -5.8204 0
M  V30 2500 H 239.418 -0.237865 -3.02767 0
M  V30 2501 H 237.003 -0.182413 -1.48282 0
M  V30 2502 H 238.885 2.13975 -3.63032 0
M  V30 2503 H 237.56 2.13345 -2.43445 0
M  V30 2504 H 236.467 0.215353 -3.7348 0
M  V30 2505 H 237.8 0.302991 -4.91267 0
M  V30 2506 N 239.452 1.56882 -0.150215 0
M  V30 2507 C 240.362 2.20494 0.801222 0
M  V30 2508 C 241.378 1.19019 1.26927 0
M  V30 2509 O 242.554 1.51607 1.32579 0
M  V30 2510 C 239.619 2.81659 2.02161 0
M  V30 2511 C 238.68 3.9827 1.60249 0
M  V30 2512 C 237.913 4.56508 2.7647 0
M  V30 2513 O 238.136 4.13627 3.92771 0
M  V30 2514 O 237.07 5.46719 2.51757 0
M  V30 2515 H 240.896 3.02315 0.289717 0
M  V30 2516 H 238.481 1.49202 0.0769684 0
M  V30 2517 H 240.363 3.20522 2.73576 0
M  V30 2518 H 239.038 2.02849 2.52258 0
M  V30 2519 H 237.945 3.64117 0.858477 0
M  V30 2520 H 239.278 4.78609 1.14864 0
M  V30 2521 N 240.93 -0.123565 1.57115 0
M  V30 2522 C 242.176 -0.833386 1.84885 0
M  V30 2523 C 242.509 -1.79742 0.735292 0
M  V30 2524 O 241.784 -1.92764 -0.25925 0
M  V30 2525 C 242.067 -1.5873 3.23228 0
M  V30 2526 C 241.92 -0.643183 4.45178 0
M  V30 2527 C 243.239 -2.54453 3.59085 0
M  V30 2528 H 240.358 -0.301518 0.6725 0
M  V30 2529 H 243 -0.097778 1.89748 0
M  V30 2530 H 241.15 -2.21438 3.19214 0
M  V30 2531 H 242.822 -0.0253015 4.61293 0
M  V30 2532 H 241.065 0.0456139 4.33776 0
M  V30 2533 H 241.736 -1.20724 5.38637 0
M  V30 2534 H 244.212 -2.01853 3.63861 0
M  V30 2535 H 243.088 -3.04238 4.5687 0
M  V30 2536 H 243.349 -3.36906 2.86264 0
M  V30 2537 N 242.408 -1.52605 -0.393616 0
M  V30 2538 C 243.371 -1.76415 -1.46323 0
M  V30 2539 C 244.371 -0.634126 -1.47768 0
M  V30 2540 O 245.561 -0.902142 -1.4902 0
M  V30 2541 C 242.693 -1.8607 -2.85641 0
M  V30 2542 H 243.886 -2.71916 -1.26498 0
M  V30 2543 H 241.439 -1.43257 -0.625073 0
M  V30 2544 H 242.174 -0.925378 -3.10817 0
M  V30 2545 H 241.959 -2.68235 -2.85993 0
M  V30 2546 H 243.449 -2.06179 -3.63153 0
M  V30 2547 N 243.887 0.651787 -1.4349 0
M  V30 2548 C 244.837 1.75783 -1.45205 0
M  V30 2549 C 245.821 1.57679 -0.320328 0
M  V30 2550 O 247.013 1.67767 -0.564211 0
M  V30 2551 C 244.142 3.14377 -1.3792 0
M  V30 2552 C 243.228 3.38023 -2.56127 0
M  V30 2553 N 243.619 3.32135 -3.81471 0
M  V30 2554 C 241.917 3.68747 -2.50882 0
M  V30 2555 C 242.618 3.55902 -4.60118 0
M  V30 2556 N 241.594 3.77783 -3.90872 0
M  V30 2557 H 245.396 1.69657 -2.39987 0
M  V30 2558 H 242.91 0.853508 -1.38163 0
M  V30 2559 H 244.907 3.93666 -1.37231 0
M  V30 2560 H 243.567 3.21683 -0.441596 0
M  V30 2561 H 244.578 3.11515 -4.13738 0
M  V30 2562 H 241.255 3.8316 -1.65816 0
M  V30 2563 H 242.645 3.57116 -5.69138 0
M  V30 2564 N 245.365 1.30045 0.890287 0
M  V30 2565 C 246.611 1.18737 1.64406 0
M  V30 2566 C 246.944 -0.258525 1.92472 0
M  V30 2567 O 246.219 -1.18562 1.54186 0
M  V30 2568 C 246.502 2.01087 2.98724 0
M  V30 2569 C 246.355 3.53867 2.77665 0
M  V30 2570 C 247.674 1.84457 3.9958 0
M  V30 2571 H 244.793 0.432698 0.596608 0
M  V30 2572 H 247.435 1.5962 1.0306 0
M  V30 2573 H 245.585 1.66349 3.51084 0
M  V30 2574 H 247.257 3.98637 2.32133 0
M  V30 2575 H 245.5 3.78318 2.12269 0
M  V30 2576 H 246.171 4.06772 3.7315 0
M  V30 2577 H 248.647 2.14817 3.56361 0
M  V30 2578 H 247.523 2.44411 4.91482 0
M  V30 2579 H 247.784 0.802276 4.3476 0
M  V30 2580 N 246.843 -1.10192 1.12674 0
M  V30 2581 C 247.773 -2.18652 0.819362 0
M  V30 2582 C 248.754 -1.68698 -0.217915 0
M  V30 2583 O 249.939 -1.94041 -0.0785581 0
M  V30 2584 C 247.069 -3.46202 0.27594 0
M  V30 2585 C 246.023 -4.09444 1.24656 0
M  V30 2586 C 245.349 -5.31725 0.563258 0
M  V30 2587 C 246.649 -4.52863 2.60217 0
M  V30 2588 H 248.343 -2.44622 1.72628 0
M  V30 2589 H 245.889 -1.17571 0.831451 0
M  V30 2590 H 247.842 -4.21372 0.0486149 0
M  V30 2591 H 246.566 -3.1973 -0.666331 0
M  V30 2592 H 245.225 -3.36284 1.45974 0
M  V30 2593 H 244.873 -5.0153 -0.384235 0
M  V30 2594 H 244.573 -5.74991 1.21075 0
M  V30 2595 H 246.097 -6.09624 0.34503 0
M  V30 2596 H 247.511 -5.19294 2.42913 0
M  V30 2597 H 245.908 -5.06986 3.21068 0
M  V30 2598 H 246.978 -3.65656 3.18471 0
M  V30 2599 N 248.321 -0.919034 -1.28029 0
M  V30 2600 C 249.253 -0.368762 -2.26214 0
M  V30 2601 C 250.266 0.495716 -1.55069 0
M  V30 2602 O 251.455 0.30974 -1.75792 0
M  V30 2603 C 248.555 0.491049 -3.35324 0
M  V30 2604 C 247.728 -0.352133 -4.3598 0
M  V30 2605 C 246.787 0.443622 -5.24327 0
M  V30 2606 O 245.813 -0.14566 -5.69014 0
M  V30 2607 N 247.015 1.74545 -5.53637 0
M  V30 2608 H 249.78 -1.21273 -2.74068 0
M  V30 2609 H 247.341 -0.785541 -1.41566 0
M  V30 2610 H 249.333 1.03026 -3.91366 0
M  V30 2611 H 247.903 1.23574 -2.87138 0
M  V30 2612 H 247.123 -1.07269 -3.79324 0
M  V30 2613 H 248.411 -0.928883 -5.00249 0
M  V30 2614 H 247.809 2.24666 -5.19174 0
M  V30 2615 H 246.366 2.23138 -6.12416 0
M  V30 2616 N 249.799 1.42003 -0.683588 0
M  V30 2617 C 250.709 2.34597 -0.0109075 0
M  V30 2618 C 251.725 1.55576 0.779245 0
M  V30 2619 O 252.901 1.88107 0.719555 0
M  V30 2620 C 249.966 3.34199 0.922588 0
M  V30 2621 C 249.027 4.29115 0.125984 0
M  V30 2622 C 248.26 5.23959 1.01502 0
M  V30 2623 O 248.483 5.23952 2.25456 0
M  V30 2624 O 247.417 6.00053 0.47111 0
M  V30 2625 H 251.243 2.93675 -0.773853 0
M  V30 2626 H 248.828 1.42654 -0.443861 0
M  V30 2627 H 250.71 3.95365 1.45823 0
M  V30 2628 H 249.385 2.77582 1.66523 0
M  V30 2629 H 248.292 3.71335 -0.453969 0
M  V30 2630 H 249.625 4.88798 -0.577736 0
M  V30 2631 N 251.277 0.427512 1.51691 0
M  V30 2632 C 252.24 -0.377132 2.26076 0
M  V30 2633 C 253.24 -0.958089 1.29141 0
M  V30 2634 O 254.43 -0.83408 1.52934 0
M  V30 2635 C 251.562 -1.53262 3.04506 0
M  V30 2636 H 252.755 0.27464 2.9864 0
M  V30 2637 H 250.308 0.180445 1.55255 0
M  V30 2638 H 251.043 -2.22072 2.36335 0
M  V30 2639 H 250.828 -1.12232 3.75694 0
M  V30 2640 H 252.318 -2.10135 3.60878 0
M  V30 2641 N 252.755 -1.56801 0.158532 0
M  V30 2642 C 254.171 -1.5837 -0.197774 0
M  V30 2643 C 254.371 -1.17334 -1.63814 0
M  V30 2644 O 253.427 -0.878988 -2.36707 0
M  V30 2645 C 254.74 -3.00615 0.0714459 0
M  V30 2646 C 256.288 -3.12999 0.00864533 0
M  V30 2647 C 256.763 -4.57313 0.250685 0
M  V30 2648 N 258.254 -4.62777 0.198014 0
M  V30 2649 C 258.989 -5.72271 0.359642 0
M  V30 2650 N 258.485 -6.90371 0.579625 0
M  V30 2651 N 260.278 -5.61318 0.296438 0
M  V30 2652 H 252.429 -1.81765 1.09887 0
M  V30 2653 H 254.692 -0.841849 0.435884 0
M  V30 2654 H 254.398 -3.35068 1.06874 0
M  V30 2655 H 254.272 -3.71683 -0.642757 0
M  V30 2656 H 256.659 -2.7838 -0.979217 0
M  V30 2657 H 256.74 -2.44393 0.755359 0
M  V30 2658 H 256.384 -4.92639 1.2357 0
M  V30 2659 H 256.314 -5.24061 -0.516489 0
M  V30 2660 H 258.805 -3.77885 0.0331115 0
M  V30 2661 H 259.118 -7.69689 0.69275 0
M  V30 2662 H 257.463 -6.92264 0.616087 0
M  V30 2663 H 260.654 -4.67932 0.125258 0
M  V30 2664 H 260.827 -6.46599 0.425831 0
M  V30 2665 N 254.233 0.115231 -1.57178 0
M  V30 2666 C 255.181 1.16014 -2.01602 0
M  V30 2667 C 256.175 1.42653 -0.913587 0
M  V30 2668 O 257.381 1.42571 -1.09879 0
M  V30 2669 H 253.756 0.391252 -0.642204 0
M  V30 2670 H 255.727 0.758998 -2.88586 0
M  V30 2671 C 254.476 2.47767 -2.4394 0
M  V30 2672 H 253.799 2.28108 -3.28339 0
M  V30 2673 H 255.239 3.19432 -2.78818 0
M  V30 2674 C 253.698 3.10617 -1.30455 0
M  V30 2675 O 254.228 3.96846 -0.622585 0
M  V30 2676 N 252.434 2.70553 -1.06064 0
M  V30 2677 H 251.981 2.00527 -1.61699 0
M  V30 2678 H 251.939 3.12934 -0.303284 0
M  V30 2679 N 255.711 1.52812 0.385517 0
M  V30 2680 C 256.658 1.77838 1.47113 0
M  V30 2681 C 257.628 0.621757 1.54024 0
M  V30 2682 O 258.813 0.861846 1.70226 0
M  V30 2683 C 255.953 1.95618 2.84302 0
M  V30 2684 C 255.066 3.23316 2.86515 0
M  V30 2685 C 254.201 3.31394 4.15152 0
M  V30 2686 C 253.24 4.53201 4.1143 0
M  V30 2687 N 252.377 4.58542 5.3168 0
M  V30 2688 H 257.217 2.70482 1.25073 0
M  V30 2689 H 254.754 1.34006 0.606692 0
M  V30 2690 H 256.712 2.03912 3.63972 0
M  V30 2691 H 255.342 1.06331 3.04784 0
M  V30 2692 H 254.394 3.24076 1.99195 0
M  V30 2693 H 255.706 4.13045 2.79634 0
M  V30 2694 H 254.86 3.3889 5.03228 0
M  V30 2695 H 253.599 2.39645 4.24761 0
M  V30 2696 H 252.604 4.45827 3.21742 0
M  V30 2697 H 253.829 5.46271 4.03442 0
M  V30 2698 H 251.775 3.69686 5.41912 0
M  V30 2699 H 251.692 5.42148 5.26889 0
M  V30 2700 H 252.96 4.70296 6.21644 0
M  V30 2701 N 257.189 -0.644168 1.43834 0
M  V30 2702 C 258.437 -1.40117 1.45642 0
M  V30 2703 C 258.758 -1.94814 0.0852413 0
M  V30 2704 O 258.028 -1.74988 -0.880688 0
M  V30 2705 H 256.608 -0.52005 0.536243 0
M  V30 2706 H 259.27 -0.7591 1.7951 0
M  V30 2707 H 258.366 -2.23902 2.17427 0
M  V30 2708 N 258.668 -1.30515 -0.883378 0
M  V30 2709 C 259.915 -1.1943 -1.63532 0
M  V30 2710 C 260.243 0.250627 -1.92878 0
M  V30 2711 O 259.498 1.19556 -1.54935 0
M  V30 2712 C 259.797 -1.96994 -2.98209 0
M  V30 2713 C 259.463 -3.466 -2.88408 0
M  V30 2714 C 258.125 -3.87397 -2.85442 0
M  V30 2715 C 260.477 -4.41863 -2.76418 0
M  V30 2716 C 257.805 -5.21745 -2.68327 0
M  V30 2717 C 260.157 -5.7632 -2.60841 0
M  V30 2718 C 258.821 -6.16354 -2.56251 0
M  V30 2719 H 258.091 -0.437025 -0.598406 0
M  V30 2720 H 260.738 -1.61635 -1.02696 0
M  V30 2721 H 259.043 -1.47429 -3.63004 0
M  V30 2722 H 260.74 -1.85808 -3.55354 0
M  V30 2723 H 257.33 -3.14182 -2.91527 0
M  V30 2724 H 261.514 -4.11285 -2.77775 0
M  V30 2725 H 256.77 -5.51853 -2.63189 0
M  V30 2726 H 260.944 -6.49772 -2.50538 0
M  V30 2727 H 258.571 -7.20401 -2.42748 0
M  V30 2728 N 260.146 1.09593 -1.13257 0
M  V30 2729 C 261.093 2.1618 -0.808381 0
M  V30 2730 C 262.063 1.64517 0.228754 0
M  V30 2731 O 263.248 1.9053 0.101381 0
M  V30 2732 C 260.388 3.43973 -0.278675 0
M  V30 2733 C 259.501 4.09545 -1.37466 0
M  V30 2734 C 258.636 5.25088 -0.803479 0
M  V30 2735 C 257.675 5.82579 -1.87799 0
M  V30 2736 N 256.812 6.89486 -1.32488 0
M  V30 2737 H 261.652 2.43254 -1.72138 0
M  V30 2738 H 259.189 1.19392 -0.859294 0
M  V30 2739 H 261.147 4.17174 0.0465583 0
M  V30 2740 H 259.777 3.17223 0.597459 0
M  V30 2741 H 258.829 3.34226 -1.81652 0
M  V30 2742 H 260.141 4.48307 -2.18684 0
M  V30 2743 H 259.295 6.05178 -0.429427 0
M  V30 2744 H 258.034 4.87684 0.0397956 0
M  V30 2745 H 257.039 5.01152 -2.26113 0
M  V30 2746 H 258.264 6.22045 -2.72463 0
M  V30 2747 H 256.21 6.54064 -0.503575 0
M  V30 2748 H 256.127 7.27007 -2.07355 0
M  V30 2749 H 257.395 7.73336 -0.978336 0
M  V30 2750 N 261.624 0.925811 1.2754 0
M  V30 2751 C 262.852 0.581509 1.9856 0
M  V30 2752 C 263.267 -0.840041 1.69082 0
M  V30 2753 O 262.624 -1.55805 0.950312 0
M  V30 2754 C 262.675 0.795589 3.52637 0
M  V30 2755 O 262.396 2.16121 3.81082 0
M  V30 2756 C 263.897 0.459744 4.4091 0
M  V30 2757 H 261.117 0.220538 0.633722 0
M  V30 2758 H 263.661 1.24232 1.6244 0
M  V30 2759 H 261.816 0.18161 3.86974 0
M  V30 2760 H 262.23 2.2098 4.75676 0
M  V30 2761 H 263.704 0.660244 5.48037 0
M  V30 2762 H 264.181 -0.604625 4.35018 0
M  V30 2763 H 264.787 1.05178 4.12089 0
M  V30 2764 N 263.102 -1.41638 0.69111 0
M  V30 2765 C 264.349 -2.01299 0.220193 0
M  V30 2766 C 264.677 -1.54715 -1.17871 0
M  V30 2767 O 263.932 -0.747193 -1.80874 0
M  V30 2768 C 264.231 -3.56714 0.221277 0
M  V30 2769 C 263.897 -4.22792 1.56709 0
M  V30 2770 C 262.559 -4.40557 1.93554 0
M  V30 2771 C 264.911 -4.59883 2.45268 0
M  V30 2772 C 262.239 -4.92688 3.18552 0
M  V30 2773 C 264.591 -5.13403 3.69595 0
M  V30 2774 C 263.255 -5.29379 4.06589 0
M  V30 2775 H 262.525 -0.736606 0.0805743 0
M  V30 2776 H 265.172 -1.69598 0.889319 0
M  V30 2777 H 263.477 -3.8818 -0.531391 0
M  V30 2778 H 265.174 -4.00678 -0.160547 0
M  V30 2779 H 261.764 -4.09336 1.2705 0
M  V30 2780 H 265.948 -4.45817 2.18084 0
M  V30 2781 H 261.204 -5.03242 3.47214 0
M  V30 2782 H 265.378 -5.41084 4.38407 0
M  V30 2783 H 263.005 -5.69537 5.03519 0
M  V30 2784 N 264.58 -0.43555 -1.51462 0
M  V30 2785 C 265.81 0.130053 -2.0619 0
M  V30 2786 C 266.218 1.37164 -1.30317 0
M  V30 2787 O 265.561 1.80225 -0.355598 0
M  V30 2788 C 265.623 0.519418 -3.55728 0
M  V30 2789 C 265.287 -0.615119 -4.52841 0
M  V30 2790 C 266.284 -1.48671 -4.9819 0
M  V30 2791 C 263.969 -0.795341 -4.95963 0
M  V30 2792 C 265.963 -2.52324 -5.8533 0
M  V30 2793 C 263.65 -1.83514 -5.82894 0
M  V30 2794 C 264.648 -2.69748 -6.27475 0
M  V30 2795 O 264.336 -3.71944 -7.1268 0
M  V30 2796 H 264.068 0.0121612 -0.675891 0
M  V30 2797 H 266.622 -0.6129 -1.96043 0
M  V30 2798 H 264.852 1.31505 -3.63653 0
M  V30 2799 H 266.541 1.01597 -3.92979 0
M  V30 2800 H 267.307 -1.359 -4.65571 0
M  V30 2801 H 263.186 -0.133713 -4.60806 0
M  V30 2802 H 266.73 -3.19665 -6.20048 0
M  V30 2803 H 262.627 -1.96306 -6.14926 0
M  V30 2804 H 263.395 -3.68503 -7.30854 0
M  V30 2805 N 266.058 1.56714 -0.166846 0
M  V30 2806 C 267.307 1.95922 0.479318 0
M  V30 2807 C 267.62 1.05529 1.6469 0
M  V30 2808 O 268.826 1.34399 2.35901 0
M  V30 2809 C 267.282 3.48359 0.90412 0
M  V30 2810 C 266.89 4.47369 -0.237621 0
M  V30 2811 C 268.634 3.96394 1.51896 0
M  V30 2812 C 266.541 5.91039 0.206561 0
M  V30 2813 H 265.471 0.731495 0.18284 0
M  V30 2814 H 268.122 1.81728 -0.254363 0
M  V30 2815 H 266.504 3.57955 1.69365 0
M  V30 2816 H 267.678 4.49485 -1.01489 0
M  V30 2817 H 265.993 4.09366 -0.762128 0
M  V30 2818 H 268.59 5.01186 1.86325 0
M  V30 2819 H 268.933 3.39075 2.41524 0
M  V30 2820 H 269.466 3.89796 0.79395 0
M  V30 2821 H 266.205 6.52221 -0.654834 0
M  V30 2822 H 265.725 5.9224 0.949282 0
M  V30 2823 H 267.404 6.43707 0.651939 0
M  V30 2824 N 267.536 -0.106894 1.57237 0
M  V30 2825 C 268.483 -1.13049 2.01217 0
M  V30 2826 C 269.453 -1.40471 0.886403 0
M  V30 2827 O 270.638 -1.52133 1.15153 0
M  V30 2828 C 267.778 -2.4487 2.43172 0
M  V30 2829 C 266.891 -2.24281 3.69218 0
M  V30 2830 C 266.026 -3.49417 4.00101 0
M  V30 2831 C 265.065 -3.24038 5.19294 0
M  V30 2832 N 264.202 -4.41409 5.45988 0
M  V30 2833 H 269.042 -0.748456 2.88448 0
M  V30 2834 H 266.579 -0.358054 1.42676 0
M  V30 2835 H 268.537 -3.21786 2.65537 0
M  V30 2836 H 267.167 -2.80944 1.58967 0
M  V30 2837 H 266.219 -1.38224 3.54398 0
M  V30 2838 H 267.531 -2.01512 4.56283 0
M  V30 2839 H 266.685 -4.34746 4.2318 0
M  V30 2840 H 265.424 -3.75229 3.11535 0
M  V30 2841 H 264.429 -2.37102 4.96047 0
M  V30 2842 H 265.654 -2.99584 6.09447 0
M  V30 2843 H 263.6 -4.67319 4.60379 0
M  V30 2844 H 263.517 -4.21788 6.274 0
M  V30 2845 H 264.785 -5.27836 5.73593 0
M  V30 2846 N 269.014 -1.53014 -0.377408 0
M  V30 2847 C 270.26 -1.68872 -1.12294 0
M  V30 2848 C 270.593 -0.433224 -1.89306 0
M  V30 2849 O 269.868 0.569258 -1.85983 0
M  V30 2850 C 270.151 -2.93115 -2.09179 0
M  V30 2851 C 270.004 -4.28794 -1.35853 0
M  V30 2852 C 271.323 -3.12928 -3.09458 0
M  V30 2853 H 268.442 -0.614518 -0.406862 0
M  V30 2854 H 271.084 -1.85633 -0.40503 0
M  V30 2855 H 269.234 -2.78956 -2.70399 0
M  V30 2856 H 270.906 -4.54742 -0.775082 0
M  V30 2857 H 269.149 -4.28744 -0.660364 0
M  V30 2858 H 269.82 -5.11837 -2.06706 0
M  V30 2859 H 272.296 -3.26194 -2.58334 0
M  V30 2860 H 271.172 -4.01316 -3.74482 0
M  V30 2861 H 271.433 -2.27669 -3.78971 0
M  V30 2862 N 270.492 0.636531 -1.44174 0
M  V30 2863 C 271.741 1.39213 -1.45954 0
M  V30 2864 C 272.054 1.95374 -0.0939119 0
M  V30 2865 O 273.26 2.71498 0.0107767 0
M  V30 2866 C 271.716 2.52025 -2.56927 0
M  V30 2867 C 271.324 2.024 -3.99673 0
M  V30 2868 C 273.068 3.29269 -2.67922 0
M  V30 2869 C 270.975 3.12521 -5.0208 0
M  V30 2870 H 269.905 0.523132 -0.542999 0
M  V30 2871 H 272.556 0.685349 -1.70221 0
M  V30 2872 H 270.938 3.25253 -2.25891 0
M  V30 2873 H 272.112 1.36073 -4.40251 0
M  V30 2874 H 270.427 1.37987 -3.92872 0
M  V30 2875 H 273.024 4.11352 -3.41605 0
M  V30 2876 H 273.367 3.78397 -1.73555 0
M  V30 2877 H 273.9 2.63129 -2.98342 0
M  V30 2878 H 270.639 2.68343 -5.98057 0
M  V30 2879 H 270.159 3.77507 -4.66099 0
M  V30 2880 H 271.838 3.77385 -5.25538 0
M  V30 2881 N 271.97 1.30982 0.876444 0
M  V30 2882 C 272.9 1.20668 1.99903 0
M  V30 2883 C 273.881 0.095354 1.69833 0
M  V30 2884 O 275.066 0.27885 1.92188 0
M  V30 2885 C 272.196 0.90655 3.3526 0
M  V30 2886 C 271.15 1.97675 3.79617 0
M  V30 2887 C 270.476 1.52943 5.1236 0
M  V30 2888 C 271.776 3.389 3.97422 0
M  V30 2889 H 273.47 2.14586 2.0879 0
M  V30 2890 H 271.016 1.03308 1.00317 0
M  V30 2891 H 272.969 0.821025 4.13324 0
M  V30 2892 H 271.693 -0.0682969 3.26529 0
M  V30 2893 H 270.352 2.05205 3.03787 0
M  V30 2894 H 270 0.54262 5.00065 0
M  V30 2895 H 269.7 2.24532 5.43009 0
M  V30 2896 H 271.224 1.45786 5.92941 0
M  V30 2897 H 272.638 3.34081 4.659 0
M  V30 2898 H 271.035 4.0865 4.3946 0
M  V30 2899 H 272.105 3.80163 3.01006 0
M  V30 2900 N 273.449 -1.08991 1.13837 0
M  V30 2901 C 274.396 -2.15748 0.819835 0
M  V30 2902 C 275.366 -1.64636 -0.220026 0
M  V30 2903 O 276.551 -1.90582 -0.0912757 0
M  V30 2904 C 273.691 -3.4382 0.296913 0
M  V30 2905 C 272.804 -4.0881 1.39636 0
M  V30 2906 C 271.939 -5.24655 0.831314 0
M  V30 2907 C 270.978 -5.81575 1.90886 0
M  V30 2908 N 270.115 -6.88774 1.36142 0
M  V30 2909 H 274.955 -2.42338 1.73426 0
M  V30 2910 H 272.492 -1.18935 0.865613 0
M  V30 2911 H 274.45 -4.17193 -0.0244339 0
M  V30 2912 H 273.08 -3.17535 -0.580628 0
M  V30 2913 H 272.132 -3.33258 1.83422 0
M  V30 2914 H 273.444 -4.47141 2.21058 0
M  V30 2915 H 272.598 -6.04942 0.461515 0
M  V30 2916 H 271.337 -4.87698 -0.013932 0
M  V30 2917 H 270.342 -4.99946 2.28767 0
M  V30 2918 H 271.567 -6.20592 2.75758 0
M  V30 2919 H 269.513 -6.53788 0.538254 0
M  V30 2920 H 269.43 -7.25898 2.11208 0
M  V30 2921 H 270.698 -7.72806 1.01933 0
M  V30 2922 N 274.927 -0.932562 -1.27047 0
M  V30 2923 C 275.837 -0.441219 -2.30414 0
M  V30 2924 C 276.853 0.480525 -1.67233 0
M  V30 2925 O 278.029 0.362151 -1.98117 0
M  V30 2926 C 275.094 0.293651 -3.45454 0
M  V30 2927 C 274.155 -0.663601 -4.2414 0
M  V30 2928 C 273.388 0.0362932 -5.33688 0
M  V30 2929 O 273.611 1.2548 -5.56427 0
M  V30 2930 O 272.545 -0.638015 -5.98509 0
M  V30 2931 H 276.371 -1.29962 -2.74488 0
M  V30 2932 H 273.956 -0.6981 -1.32087 0
M  V30 2933 H 275.838 0.707951 -4.15411 0
M  V30 2934 H 274.513 1.12758 -3.03426 0
M  V30 2935 H 273.42 -1.12768 -3.56699 0
M  V30 2936 H 274.753 -1.46489 -4.69896 0
M  V30 2937 N 276.405 1.4127 -0.698611 0
M  V30 2938 C 277.653 2.00782 -0.230409 0
M  V30 2939 C 277.974 1.5562 1.17505 0
M  V30 2940 O 277.244 0.78815 1.79346 0
M  V30 2941 H 275.824 0.742464 -0.0821944 0
M  V30 2942 H 278.486 1.72852 -0.90045 0
M  V30 2943 H 277.582 3.11095 -0.25021 0
M  V30 2944 N 277.883 0.443576 1.51229 0
M  V30 2945 C 279.111 -0.11929 2.06556 0
M  V30 2946 C 279.526 -1.35921 1.31038 0
M  V30 2947 O 278.883 -1.78675 0.371704 0
M  V30 2948 C 278.934 -0.435228 3.5887 0
M  V30 2949 O 278.655 0.755486 4.31537 0
M  V30 2950 C 280.156 -1.04808 4.30732 0
M  V30 2951 H 277.376 -0.0051584 0.67098 0
M  V30 2952 H 279.92 0.624453 1.94733 0
M  V30 2953 H 278.075 -1.12887 3.70588 0
M  V30 2954 H 278.489 0.483491 5.22267 0
M  V30 2955 H 279.963 -1.2191 5.3837 0
M  V30 2956 H 280.44 -2.03081 3.89429 0
M  V30 2957 H 281.046 -0.393637 4.23474 0
M  V30 2958 N 279.361 -1.56624 0.175154 0
M  V30 2959 C 280.293 -2.15333 -0.785128 0
M  V30 2960 C 281.306 -1.1099 -1.19101 0
M  V30 2961 O 282.495 -1.38162 -1.13019 0
M  V30 2962 C 279.595 -2.68427 -2.06882 0
M  V30 2963 C 278.768 -3.97466 -1.8259 0
M  V30 2964 C 277.827 -4.35585 -2.95215 0
M  V30 2965 O 276.853 -5.03389 -2.65684 0
M  V30 2966 N 278.055 -3.97457 -4.23094 0
M  V30 2967 H 280.82 -2.98359 -0.283187 0
M  V30 2968 H 278.381 -1.61898 -0.00749817 0
M  V30 2969 H 280.373 -2.90924 -2.81328 0
M  V30 2970 H 278.943 -1.89968 -2.48256 0
M  V30 2971 H 278.163 -3.83307 -0.920287 0
M  V30 2972 H 279.451 -4.81736 -1.63733 0
M  V30 2973 H 278.849 -3.42878 -4.49945 0
M  V30 2974 H 277.406 -4.24947 -4.9423 0
M  V30 2975 N 280.839 0.0985539 -1.57292 0
M  V30 2976 C 281.769 1.12064 -2.04851 0
M  V30 2977 C 282.75 1.41981 -0.936767 0
M  V30 2978 O 283.935 1.52071 -1.20781 0
M  V30 2979 C 281.065 2.44144 -2.47004 0
M  V30 2980 C 280.019 2.28643 -3.6181 0
M  V30 2981 C 279.345 3.65869 -3.89929 0
M  V30 2982 C 280.645 1.72986 -4.92822 0
M  V30 2983 H 282.339 0.724979 -2.9049 0
M  V30 2984 H 279.885 0.34729 -1.39749 0
M  V30 2985 H 281.838 3.15914 -2.78884 0
M  V30 2986 H 280.562 2.85639 -1.5836 0
M  V30 2987 H 279.221 1.59318 -3.30172 0
M  V30 2988 H 278.869 4.04885 -2.98458 0
M  V30 2989 H 278.569 3.56344 -4.67218 0
M  V30 2990 H 280.093 4.39112 -4.2428 0
M  V30 2991 H 281.507 2.34593 -5.23105 0
M  V30 2992 H 279.904 1.74229 -5.74251 0
M  V30 2993 H 280.974 0.689007 -4.7998 0
M  V30 2994 N 282.317 1.53212 0.369288 0
M  V30 2995 C 283.264 1.79388 1.45219 0
M  V30 2996 C 284.234 0.638059 1.53356 0
M  V30 2997 O 285.419 0.879852 1.69302 0
M  V30 2998 C 282.559 1.98623 2.82211 0
M  V30 2999 C 281.672 3.26337 2.8307 0
M  V30 3000 C 280.807 3.35779 4.11614 0
M  V30 3001 C 279.846 4.5754 4.06601 0
M  V30 3002 N 278.983 4.64155 5.26787 0
M  V30 3003 H 283.823 2.71794 1.22198 0
M  V30 3004 H 281.36 1.34642 0.592444 0
M  V30 3005 H 283.318 2.07761 3.61789 0
M  V30 3006 H 281.948 1.09558 3.03639 0
M  V30 3007 H 281 3.26171 1.95747 0
M  V30 3008 H 282.312 4.15988 2.75237 0
M  V30 3009 H 281.466 3.44208 4.99606 0
M  V30 3010 H 280.205 2.44137 4.22195 0
M  V30 3011 H 279.21 4.49215 3.16996 0
M  V30 3012 H 280.435 5.50519 3.97625 0
M  V30 3013 H 278.381 3.75413 5.3796 0
M  V30 3014 H 278.298 5.47706 5.21109 0
M  V30 3015 H 279.566 4.76863 6.16621 0
M  V30 3016 N 283.795 -0.628877 1.44509 0
M  V30 3017 C 285.02 -1.42048 1.5112 0
M  V30 3018 C 285.445 -1.87594 0.137818 0
M  V30 3019 O 284.803 -1.58873 -0.873437 0
M  V30 3020 C 284.851 -2.61541 2.48251 0
M  V30 3021 O 283.955 -3.61453 1.98559 0
M  V30 3022 H 283.296 -0.424942 0.510216 0
M  V30 3023 H 285.826 -0.767374 1.89664 0
M  V30 3024 H 285.836 -3.09057 2.66361 0
M  V30 3025 H 284.511 -2.27736 3.48007 0
M  V30 3026 H 283.088 -3.20731 1.90227 0
M  V30 3027 N 285.273 -1.31445 -0.869486 0
M  V30 3028 C 286.236 -1.19094 -1.9583 0
M  V30 3029 C 287.236 -0.117906 -1.60367 0
M  V30 3030 O 288.426 -0.367208 -1.70286 0
M  V30 3031 C 285.558 -0.828165 -3.30688 0
M  V30 3032 H 286.751 -2.15842 -2.08212 0
M  V30 3033 H 284.304 -1.15063 -1.05784 0
M  V30 3034 H 285.039 0.138142 -3.24006 0
M  V30 3035 H 284.824 -1.6038 -3.578 0
M  V30 3036 H 286.314 -0.765658 -4.10521 0
M  V30 3037 N 286.751 1.08385 -1.14413 0
M  V30 3038 C 288.167 1.32844 -0.884563 0
M  V30 3039 C 288.367 1.95841 0.474181 0
M  V30 3040 O 287.423 2.21158 1.21842 0
M  V30 3041 C 288.736 2.22978 -2.01745 0
M  V30 3042 C 290.284 2.36458 -2.05077 0
M  V30 3043 C 290.759 3.29934 -3.1766 0
M  V30 3044 N 292.25 3.37511 -3.17239 0
M  V30 3045 C 292.985 4.09871 -4.0099 0
M  V30 3046 N 292.481 4.84936 -4.94781 0
M  V30 3047 N 294.274 4.05704 -3.89051 0
M  V30 3048 H 286.425 0.658756 -2.01926 0
M  V30 3049 H 288.688 0.352821 -0.879899 0
M  V30 3050 H 288.394 1.83934 -2.99769 0
M  V30 3051 H 288.268 3.23441 -1.94077 0
M  V30 3052 H 290.655 2.7476 -1.0766 0
M  V30 3053 H 290.736 1.35736 -2.16816 0
M  V30 3054 H 290.38 2.92352 -4.15322 0
M  V30 3055 H 290.31 4.30584 -3.03158 0
M  V30 3056 H 292.801 2.83996 -2.49308 0
M  V30 3057 H 293.114 5.37612 -5.55151 0
M  V30 3058 H 291.459 4.83988 -4.98779 0
M  V30 3059 H 294.65 3.46167 -3.15097 0
M  V30 3060 H 294.823 4.61834 -4.54547 0
M  V30 3061 N 288.23 0.939286 1.26551 0
M  V30 3062 C 289.479 0.581601 1.93133 0
M  V30 3063 C 289.792 -0.883224 1.74524 0
M  V30 3064 O 290.998 -1.3502 2.35546 0
M  V30 3065 C 289.454 0.989425 3.46032 0
M  V30 3066 C 289.062 2.47573 3.73379 0
M  V30 3067 C 290.806 0.703544 4.18629 0
M  V30 3068 C 288.713 2.82235 5.19709 0
M  V30 3069 H 287.643 0.213803 0.723052 0
M  V30 3070 H 290.294 1.14167 1.4366 0
M  V30 3071 H 288.676 0.357902 3.94379 0
M  V30 3072 H 289.85 3.15614 3.35744 0
M  V30 3073 H 288.165 2.73471 3.1401 0
M  V30 3074 H 290.762 0.938869 5.26393 0
M  V30 3075 H 291.105 -0.359639 4.14744 0
M  V30 3076 H 291.638 1.2947 3.76141 0
M  V30 3077 H 288.377 3.87509 5.28694 0
M  V30 3078 H 287.897 2.18854 5.58447 0
M  V30 3079 H 289.576 2.70599 5.87695 0
M  V30 3080 N 289.708 -1.40897 0.706093 0
M  V30 3081 C 290.938 -2.05075 0.250523 0
M  V30 3082 C 291.346 -1.53275 -1.10921 0
M  V30 3083 O 290.689 -0.680281 -1.7064 0
M  V30 3084 C 290.751 -3.59219 0.142178 0
M  V30 3085 C 290.415 -4.33864 1.43566 0
M  V30 3086 C 291.412 -4.62448 2.37566 0
M  V30 3087 C 289.097 -4.72946 1.69195 0
M  V30 3088 C 291.091 -5.29088 3.5545 0
M  V30 3089 C 288.778 -5.3932 2.87362 0
M  V30 3090 C 289.776 -5.6732 3.80312 0
M  V30 3091 O 289.464 -6.32325 4.96408 0
M  V30 3092 H 289.196 -0.666645 0.112074 0
M  V30 3093 H 291.75 -1.81467 0.962239 0
M  V30 3094 H 289.98 -3.81609 -0.6254 0
M  V30 3095 H 291.669 -4.0495 -0.277584 0
M  V30 3096 H 292.435 -4.32727 2.19027 0
M  V30 3097 H 288.314 -4.50527 0.977042 0
M  V30 3098 H 291.858 -5.50859 4.28018 0
M  V30 3099 H 287.755 -5.68461 3.05814 0
M  V30 3100 H 288.523 -6.50821 4.9636 0
M  V30 3101 N 291.186 -0.45159 -1.50991 0
M  V30 3102 C 292.116 0.342898 -2.30969 0
M  V30 3103 C 293.097 1.00815 -1.37005 0
M  V30 3104 O 294.282 1.00907 -1.65926 0
M  V30 3105 C 291.412 1.43637 -3.16205 0
M  V30 3106 C 290.366 0.893818 -4.18563 0
M  V30 3107 C 289.692 2.08411 -4.92411 0
M  V30 3108 C 290.992 -0.0815568 -5.22236 0
M  V30 3109 H 292.686 -0.324556 -2.97636 0
M  V30 3110 H 290.232 -0.157531 -1.43136 0
M  V30 3111 H 292.185 1.9995 -3.70942 0
M  V30 3112 H 290.909 2.13232 -2.47386 0
M  V30 3113 H 289.568 0.352798 -3.64898 0
M  V30 3114 H 289.216 2.76658 -4.20082 0
M  V30 3115 H 288.916 1.72741 -5.61636 0
M  V30 3116 H 290.44 2.65251 -5.49976 0
M  V30 3117 H 291.854 0.391742 -5.7196 0
M  V30 3118 H 290.251 -0.351551 -5.99069 0
M  V30 3119 H 291.321 -1.01374 -4.74185 0
M  V30 3120 N 292.664 1.56529 -0.183458 0
M  V30 3121 C 293.91 1.97537 0.459036 0
M  V30 3122 C 294.243 1.06989 1.62071 0
M  V30 3123 O 293.518 0.11948 1.94133 0
M  V30 3124 C 293.801 3.47874 0.930368 0
M  V30 3125 C 293.654 4.492 -0.232317 0
M  V30 3126 C 294.973 4.01612 1.79989 0
M  V30 3127 H 292.092 0.718204 0.165383 0
M  V30 3128 H 294.734 1.88042 -0.272038 0
M  V30 3129 H 292.884 3.56095 1.55333 0
M  V30 3130 H 294.556 4.53027 -0.86972 0
M  V30 3131 H 292.799 4.24657 -0.885928 0
M  V30 3132 H 293.47 5.51823 0.139796 0
M  V30 3133 H 295.946 3.96097 1.27461 0
M  V30 3134 H 294.822 5.07195 2.09867 0
M  V30 3135 H 295.083 3.46163 2.74998 0
M  V30 3136 N 294.142 -0.090211 1.57342 0
M  V30 3137 C 295.389 -0.792807 1.86335 0
M  V30 3138 C 295.717 -1.78494 0.772662 0
M  V30 3139 O 294.972 -1.94305 -0.233258 0
M  V30 3140 C 295.271 -1.55222 3.21933 0
M  V30 3141 C 294.937 -0.701765 4.45406 0
M  V30 3142 C 293.599 -0.467334 4.78925 0
M  V30 3143 C 295.951 -0.11086 5.21082 0
M  V30 3144 C 293.279 0.367785 5.85546 0
M  V30 3145 C 295.631 0.711609 6.28585 0
M  V30 3146 C 294.295 0.956086 6.60617 0
M  V30 3147 H 293.565 -0.290109 0.681849 0
M  V30 3148 H 296.212 -0.0541332 1.91423 0
M  V30 3149 H 294.517 -2.3626 3.12551 0
M  V30 3150 H 296.214 -2.10032 3.41595 0
M  V30 3151 H 292.804 -0.894598 4.1916 0
M  V30 3152 H 296.988 -0.279129 4.95514 0
M  V30 3153 H 292.244 0.566128 6.08773 0
M  V30 3154 H 296.418 1.17632 6.86393 0
M  V30 3155 H 294.045 1.60499 7.43064 0
M  V30 3156 N 295.62 -1.53406 -0.361157 0
M  V30 3157 C 296.57 -1.76536 -1.44287 0
M  V30 3158 C 297.554 -0.620019 -1.48474 0
M  V30 3159 O 298.746 -0.878834 -1.53641 0
M  V30 3160 C 295.875 -1.96266 -2.81664 0
M  V30 3161 C 294.961 -3.16815 -2.81938 0
M  V30 3162 N 295.352 -4.38637 -2.51855 0
M  V30 3163 C 293.65 -3.17627 -3.13096 0
M  V30 3164 C 294.351 -5.20401 -2.59919 0
M  V30 3165 N 293.327 -4.56712 -2.94814 0
M  V30 3166 H 297.129 -2.68331 -1.19899 0
M  V30 3167 H 294.643 -1.52091 -0.56938 0
M  V30 3168 H 296.64 -2.10966 -3.59582 0
M  V30 3169 H 295.3 -1.05702 -3.07013 0
M  V30 3170 H 296.311 -4.66293 -2.25369 0
M  V30 3171 H 292.988 -2.36971 -3.43731 0
M  V30 3172 H 294.378 -6.27586 -2.39969 0
M  V30 3173 N 297.098 0.621204 -1.44841 0
M  V30 3174 C 298.045 1.73267 -1.5247 0
M  V30 3175 C 299.015 1.6189 -0.371611 0
M  V30 3176 O 300.2 1.81668 -0.58321 0
M  V30 3177 C 297.34 3.11545 -1.48438 0
M  V30 3178 C 296.453 3.33827 -2.74196 0
M  V30 3179 C 295.588 4.62133 -2.61929 0
M  V30 3180 C 294.627 4.77627 -3.82804 0
M  V30 3181 N 293.764 5.97219 -3.69153 0
M  V30 3182 H 298.604 1.66082 -2.47428 0
M  V30 3183 H 296.141 0.810026 -1.22788 0
M  V30 3184 H 298.099 3.91528 -1.4409 0
M  V30 3185 H 296.729 3.1772 -0.570402 0
M  V30 3186 H 295.781 2.47715 -2.88689 0
M  V30 3187 H 297.093 3.41153 -3.6389 0
M  V30 3188 H 296.247 5.50291 -2.5547 0
M  V30 3189 H 294.986 4.57182 -1.69811 0
M  V30 3190 H 293.991 3.87896 -3.89637 0
M  V30 3191 H 295.216 4.84385 -4.75971 0
M  V30 3192 H 293.162 5.93339 -2.79794 0
M  V30 3193 H 293.079 6.05644 -4.52472 0
M  V30 3194 H 294.347 6.87912 -3.66603 0
M  V30 3195 N 298.576 1.31904 0.862503 0
M  V30 3196 C 299.506 1.22782 1.98612 0
M  V30 3197 C 300.487 0.113362 1.69722 0
M  V30 3198 O 301.672 0.299218 1.91881 0
M  V30 3199 C 298.802 0.942058 3.34279 0
M  V30 3200 C 297.756 2.0169 3.77499 0
M  V30 3201 C 297.082 1.58369 5.10709 0
M  V30 3202 C 298.382 3.43096 3.93805 0
M  V30 3203 H 300.076 2.16788 2.06502 0
M  V30 3204 H 297.622 1.04366 0.992154 0
M  V30 3205 H 299.575 0.864818 4.1243 0
M  V30 3206 H 298.299 -0.0336603 3.26583 0
M  V30 3207 H 296.958 2.08416 3.01593 0
M  V30 3208 H 296.606 0.595628 4.99461 0
M  V30 3209 H 296.306 2.30279 5.40597 0
M  V30 3210 H 297.83 1.52067 5.91361 0
M  V30 3211 H 299.244 3.39003 4.62331 0
M  V30 3212 H 297.641 4.13288 4.35101 0
M  V30 3213 H 298.711 3.83334 2.96957 0
M  V30 3214 N 300.054 -1.07777 1.14986 0
M  V30 3215 C 300.964 -2.18404 0.856546 0
M  V30 3216 C 301.98 -1.73211 -0.165485 0
M  V30 3217 O 303.156 -2.01399 0.00755219 0
M  V30 3218 C 300.221 -3.44977 0.34526 0
M  V30 3219 C 299.282 -4.0476 1.43065 0
M  V30 3220 C 298.515 -5.25291 0.943663 0
M  V30 3221 O 298.738 -5.70004 -0.212426 0
M  V30 3222 O 297.672 -5.76638 1.72547 0
M  V30 3223 H 301.498 -2.45978 1.78125 0
M  V30 3224 H 299.083 -1.17033 0.928631 0
M  V30 3225 H 300.965 -4.21348 0.0663671 0
M  V30 3226 H 299.64 -3.18965 -0.551631 0
M  V30 3227 H 298.547 -3.29949 1.76309 0
M  V30 3228 H 299.88 -4.35035 2.30229 0
M  V30 3229 N 301.532 -0.945985 -1.26051 0
M  V30 3230 C 302.442 -0.465633 -2.29933 0
M  V30 3231 C 303.458 0.462761 -1.67733 0
M  V30 3232 O 304.634 0.341118 -1.9849 0
M  V30 3233 C 301.699 0.256994 -3.45746 0
M  V30 3234 C 300.76 -0.708549 -4.23412 0
M  V30 3235 C 299.993 -0.0203135 -5.33696 0
M  V30 3236 O 300.216 1.19571 -5.57726 0
M  V30 3237 O 299.15 -0.701459 -5.97799 0
M  V30 3238 H 302.976 -1.32866 -2.73094 0
M  V30 3239 H 300.561 -0.712071 -1.31339 0
M  V30 3240 H 302.443 0.663852 -4.16138 0
M  V30 3241 H 301.118 1.09533 -3.04605 0
M  V30 3242 H 300.025 -1.16545 -3.55483 0
M  V30 3243 H 301.358 -1.51465 -4.68315 0
M  V30 3244 N 303.011 1.40521 -0.713556 0
M  V30 3245 C 303.941 2.33381 -0.0743864 0
M  V30 3246 C 304.922 1.52784 0.747735 0
M  V30 3247 O 306.107 1.81258 0.697071 0
M  V30 3248 C 303.237 3.36748 0.849598 0
M  V30 3249 C 302.191 4.27793 0.133247 0
M  V30 3250 C 301.517 5.21679 1.17281 0
M  V30 3251 C 302.817 5.12415 -1.01134 0
M  V30 3252 H 304.511 2.87081 -0.850007 0
M  V30 3253 H 302.057 1.38034 -0.410201 0
M  V30 3254 H 304.01 4.00648 1.30612 0
M  V30 3255 H 302.734 2.81439 1.65709 0
M  V30 3256 H 301.393 3.65342 -0.303426 0
M  V30 3257 H 301.041 4.62677 1.9733 0
M  V30 3258 H 300.741 5.83435 0.698397 0
M  V30 3259 H 302.265 5.88456 1.62947 0
M  V30 3260 H 303.679 5.69781 -0.634274 0
M  V30 3261 H 302.076 5.83203 -1.41399 0
M  V30 3262 H 303.146 4.48514 -1.84292 0
M  V30 3263 N 304.489 0.459591 1.5075 0
M  V30 3264 C 305.436 -0.340524 2.28274 0
M  V30 3265 C 306.406 -0.997371 1.32822 0
M  V30 3266 O 307.591 -1.01202 1.61749 0
M  V30 3267 C 304.731 -1.42317 3.14388 0
M  V30 3268 C 303.844 -0.782251 4.24859 0
M  V30 3269 C 302.979 -1.84182 4.98247 0
M  V30 3270 C 302.018 -1.18053 6.00608 0
M  V30 3271 N 301.155 -2.18244 6.67319 0
M  V30 3272 H 305.995 0.326899 2.96202 0
M  V30 3273 H 303.532 0.173057 1.46078 0
M  V30 3274 H 305.49 -2.06241 3.62658 0
M  V30 3275 H 304.12 -2.05992 2.4853 0
M  V30 3276 H 303.172 -0.0307404 3.80388 0
M  V30 3277 H 304.484 -0.259663 4.98124 0
M  V30 3278 H 303.638 -2.55714 5.50177 0
M  V30 3279 H 302.377 -2.39819 4.24662 0
M  V30 3280 H 301.382 -0.450776 5.47949 0
M  V30 3281 H 302.607 -0.631202 6.7616 0
M  V30 3282 H 300.553 -2.72919 5.96533 0
M  V30 3283 H 300.47 -1.70938 7.36421 0
M  V30 3284 H 301.738 -2.89191 7.23871 0
M  V30 3285 N 305.967 -1.56429 0.191757 0
M  V30 3286 C 307.207 -1.99383 -0.450099 0
M  V30 3287 C 307.571 -1.07581 -1.59029 0
M  V30 3288 O 308.772 -1.39758 -2.29611 0
M  V30 3289 C 307.043 -3.45841 -0.901611 0
M  V30 3290 S 308.602 -4.10822 -1.54177 0
M  V30 3291 H 305.42 -0.696253 -0.144057 0
M  V30 3292 H 308.022 -1.93276 0.294036 0
M  V30 3293 H 306.726 -4.10354 -0.0616596 0
M  V30 3294 H 306.257 -3.55757 -1.67929 0
M  V30 3295 H 308.272 -4.07553 -2.83046 0
M  V30 3296 N 307.445 0.0818655 -1.57387 0
M  V30 3297 C 308.355 1.11642 -2.06333 0
M  V30 3298 C 309.371 1.43033 -0.99083 0
M  V30 3299 O 310.547 1.53411 -1.30488 0
M  V30 3300 C 307.612 2.41342 -2.48907 0
M  V30 3301 C 306.673 2.17014 -3.7041 0
M  V30 3302 C 305.906 3.4053 -4.10944 0
M  V30 3303 O 306.129 4.4927 -3.51444 0
M  V30 3304 O 305.063 3.29336 -5.03807 0
M  V30 3305 H 308.889 0.730657 -2.9478 0
M  V30 3306 H 306.474 0.295301 -1.46452 0
M  V30 3307 H 308.356 3.17691 -2.76858 0
M  V30 3308 H 307.031 2.79319 -1.63593 0
M  V30 3309 H 305.938 1.38403 -3.47556 0
M  V30 3310 H 307.271 1.83923 -4.56545 0
M  V30 3311 N 308.923 1.53595 0.353017 0
M  V30 3312 C 310.169 1.70638 1.09593 0
M  V30 3313 C 310.502 0.463286 1.88593 0
M  V30 3314 O 309.777 -0.539597 1.86865 0
M  V30 3315 C 310.06 2.96406 2.04489 0
M  V30 3316 C 309.913 4.30901 1.29014 0
M  V30 3317 C 311.232 3.17812 3.0444 0
M  V30 3318 H 308.351 0.620913 0.397034 0
M  V30 3319 H 310.993 1.86254 0.375446 0
M  V30 3320 H 309.143 2.83223 2.65927 0
M  V30 3321 H 310.815 4.55917 0.702638 0
M  V30 3322 H 309.058 4.29741 0.592071 0
M  V30 3323 H 309.729 5.1506 1.98537 0
M  V30 3324 H 312.205 3.30263 2.53112 0
M  V30 3325 H 311.081 4.07223 3.6805 0
M  V30 3326 H 311.342 2.33669 3.75301 0
M  V30 3327 N 310.401 -0.613514 1.45168 0
M  V30 3328 C 311.647 -1.37471 1.49096 0
M  V30 3329 C 311.98 -1.93765 0.129901 0
M  V30 3330 O 311.255 -1.74707 -0.854858 0
M  V30 3331 C 311.538 -2.52701 2.56542 0
M  V30 3332 C 311.391 -2.01643 4.0207 0
M  V30 3333 C 312.71 -3.54849 2.60327 0
M  V30 3334 H 309.829 -0.498502 0.54283 0
M  V30 3335 H 312.471 -0.692125 1.76945 0
M  V30 3336 H 310.621 -3.10931 2.32926 0
M  V30 3337 H 312.293 -1.48108 4.36877 0
M  V30 3338 H 310.536 -1.32688 4.13009 0
M  V30 3339 H 311.207 -2.84681 4.72928 0
M  V30 3340 H 313.683 -3.0645 2.81474 0
M  V30 3341 H 312.559 -4.32973 3.37381 0
M  V30 3342 H 312.82 -4.10079 1.6519 0
M  V30 3343 N 311.879 -1.3236 -0.855495 0
M  V30 3344 C 313.295 -1.11332 -1.14356 0
M  V30 3345 C 313.495 0.106751 -2.01217 0
M  V30 3346 O 312.551 0.791891 -2.39761 0
M  V30 3347 C 313.864 -2.39237 -1.82171 0
M  V30 3348 C 315.412 -2.44986 -1.9481 0
M  V30 3349 C 315.887 -3.7281 -2.66039 0
M  V30 3350 N 317.378 -3.73787 -2.73565 0
M  V30 3351 C 318.113 -4.69394 -3.29327 0
M  V30 3352 N 317.609 -5.75367 -3.85907 0
M  V30 3353 N 319.402 -4.56893 -3.27423 0
M  V30 3354 H 311.553 -2.10586 -0.277027 0
M  V30 3355 H 313.816 -0.929701 -0.185364 0
M  V30 3356 H 313.522 -3.28431 -1.25802 0
M  V30 3357 H 313.396 -2.50134 -2.82335 0
M  V30 3358 H 315.783 -1.56252 -2.50338 0
M  V30 3359 H 315.864 -2.38043 -0.936448 0
M  V30 3360 H 315.508 -4.61918 -2.11174 0
M  V30 3361 H 315.438 -3.77024 -3.67642 0
M  V30 3362 H 317.929 -2.97189 -2.33424 0
M  V30 3363 H 318.242 -6.44378 -4.26611 0
M  V30 3364 H 316.587 -5.79123 -3.84242 0
M  V30 3365 H 319.778 -3.73269 -2.82467 0
M  V30 3366 H 319.951 -5.31577 -3.7058 0
M  V30 3367 N 313.357 1.07166 -1.15556 0
M  V30 3368 C 314.585 1.83514 -0.955519 0
M  V30 3369 C 315 1.82163 0.49621 0
M  V30 3370 O 314.357 1.23441 1.34419 0
M  V30 3371 C 314.408 3.30515 -1.46432 0
M  V30 3372 O 314.129 3.31937 -2.85918 0
M  V30 3373 C 315.63 4.23625 -1.30603 0
M  V30 3374 H 312.85 0.578926 -0.339244 0
M  V30 3375 H 315.394 1.35265 -1.53374 0
M  V30 3376 H 313.549 3.76106 -0.928584 0
M  V30 3377 H 313.963 4.23794 -3.09029 0
M  V30 3378 H 315.437 5.24831 -1.71047 0
M  V30 3379 H 315.914 4.38485 -0.250441 0
M  V30 3380 H 316.52 3.83871 -1.83094 0
M  V30 3381 N 314.835 0.952656 1.25548 0
M  V30 3382 C 316.084 0.602053 1.92505 0
M  V30 3383 C 316.397 -0.864663 1.75451 0
M  V30 3384 O 317.603 -1.32514 2.36965 0
M  V30 3385 C 316.059 1.02607 3.44963 0
M  V30 3386 C 315.667 2.51519 3.70732 0
M  V30 3387 C 317.411 0.747905 4.1786 0
M  V30 3388 C 315.318 2.87732 5.16686 0
M  V30 3389 H 314.248 0.22146 0.720744 0
M  V30 3390 H 316.899 1.15684 1.42441 0
M  V30 3391 H 315.281 0.399712 3.93978 0
M  V30 3392 H 316.455 3.19157 3.32378 0
M  V30 3393 H 314.77 2.76786 3.11092 0
M  V30 3394 H 317.367 0.994647 5.25367 0
M  V30 3395 H 317.71 -0.315629 4.15102 0
M  V30 3396 H 318.243 1.33452 3.74747 0
M  V30 3397 H 314.982 3.93095 5.24554 0
M  V30 3398 H 314.502 2.24765 5.56094 0
M  V30 3399 H 316.181 2.76817 5.84792 0
M  V30 3400 N 316.313 -1.40141 0.720998 0
M  V30 3401 C 317.724 -1.83678 0.334553 0
M  V30 3402 C 318.075 -1.6027 -1.13173 0
M  V30 3403 O 317.2 -1.08643 -1.87152 0
M  V30 3404 C 317.795 -3.33437 0.600437 0
M  V30 3405 C 316.354 -3.75447 0.267642 0
M  V30 3406 C 315.501 -2.63296 0.870097 0
M  V30 3407 H 318.452 -1.29331 0.919732 0
M  V30 3408 H 318.473 -3.80269 -0.132517 0
M  V30 3409 H 317.985 -3.50442 1.66768 0
M  V30 3410 H 316.086 -3.64035 -0.794329 0
M  V30 3411 H 316.199 -4.73344 0.74042 0
M  V30 3412 H 314.563 -2.52954 0.297739 0
M  V30 3413 H 315.346 -2.83112 1.94172 0
M  V30 3414 N 317.792 -0.46758 -1.50504 0
M  V30 3415 C 319.017 0.0886943 -2.0721 0
M  V30 3416 C 319.442 1.33057 -1.32956 0
M  V30 3417 O 318.8 1.77354 -0.376197 0
M  V30 3418 C 318.848 0.359202 -3.58806 0
M  V30 3419 O 317.952 1.44034 -3.8643 0
M  V30 3420 H 317.293 -0.0114349 -0.663902 0
M  V30 3421 H 319.823 -0.657613 -1.93744 0
M  V30 3422 H 319.833 0.600742 -4.03553 0
M  V30 3423 H 318.508 -0.548311 -4.1227 0
M  V30 3424 H 317.085 1.18638 -3.53524 0
M  V30 3425 N 319.27 1.56325 -0.20005 0
M  V30 3426 C 320.516 1.98012 0.438059 0
M  V30 3427 C 320.849 1.08702 1.60927 0
M  V30 3428 O 320.124 0.140064 1.93995 0
M  V30 3429 C 320.407 3.48841 0.893419 0
M  V30 3430 C 320.26 4.48928 -0.279947 0
M  V30 3431 C 321.579 4.03498 1.75719 0
M  V30 3432 H 318.698 0.719918 0.157757 0
M  V30 3433 H 321.34 1.87743 -0.291968 0
M  V30 3434 H 319.49 3.57723 1.51547 0
M  V30 3435 H 321.162 4.52079 -0.91772 0
M  V30 3436 H 319.405 4.23694 -0.930919 0
M  V30 3437 H 320.076 5.5194 0.0812601 0
M  V30 3438 H 322.552 3.97427 1.23253 0
M  V30 3439 H 321.428 5.09393 2.04476 0
M  V30 3440 H 321.689 3.4906 2.71311 0
M  V30 3441 N 320.748 -0.0735177 1.57428 0
M  V30 3442 C 321.658 -1.10547 2.06922 0
M  V30 3443 C 322.674 -1.42506 0.998402 0
M  V30 3444 O 323.85 -1.52717 1.31299 0
M  V30 3445 C 320.915 -2.40019 2.50184 0
M  V30 3446 C 319.976 -2.15046 3.71556 0
M  V30 3447 C 319.209 -3.38345 4.12745 0
M  V30 3448 O 319.432 -4.47399 3.53822 0
M  V30 3449 O 318.366 -3.2666 5.05546 0
M  V30 3450 H 322.192 -0.715013 2.95163 0
M  V30 3451 H 319.777 -0.287531 1.46607 0
M  V30 3452 H 321.659 -3.16218 2.78539 0
M  V30 3453 H 320.334 -2.78447 1.65072 0
M  V30 3454 H 319.241 -1.36558 3.48285 0
M  V30 3455 H 320.574 -1.81499 4.57514 0
M  V30 3456 N 322.226 -1.5378 -0.344866 0
M  V30 3457 C 323.136 -1.84667 -1.4469 0
M  V30 3458 C 324.152 -0.736704 -1.57635 0
M  V30 3459 O 325.328 -1.02888 -1.73136 0
M  V30 3460 C 322.393 -2.04869 -2.79696 0
M  V30 3461 C 321.454 -3.28731 -2.76106 0
M  V30 3462 C 320.687 -3.4796 -4.04673 0
M  V30 3463 O 320.91 -2.71052 -5.01883 0
M  V30 3464 O 319.844 -4.41383 -4.09224 0
M  V30 3465 H 323.67 -2.78334 -1.21506 0
M  V30 3466 H 321.255 -1.39418 -0.536921 0
M  V30 3467 H 323.137 -2.19609 -3.59652 0
M  V30 3468 H 321.812 -1.14391 -3.02814 0
M  V30 3469 H 320.719 -3.19396 -1.94774 0
M  V30 3470 H 322.052 -4.19198 -2.57941 0
M  V30 3471 N 323.704 0.605807 -1.45491 0
M  V30 3472 C 324.953 1.36086 -1.48874 0
M  V30 3473 C 325.266 1.95131 -0.135333 0
M  V30 3474 O 326.472 2.7146 -0.0468144 0
M  V30 3475 C 324.928 2.46518 -2.62215 0
M  V30 3476 C 324.536 1.93877 -4.03876 0
M  V30 3477 C 326.28 3.23512 -2.74846 0
M  V30 3478 C 324.187 3.01801 -5.08596 0
M  V30 3479 H 323.117 0.511497 -0.553974 0
M  V30 3480 H 325.768 0.649089 -1.71636 0
M  V30 3481 H 324.15 3.20388 -2.32739 0
M  V30 3482 H 325.324 1.26704 -4.43038 0
M  V30 3483 H 323.639 1.29622 -3.95711 0
M  V30 3484 H 326.236 4.04013 -3.50253 0
M  V30 3485 H 326.579 3.74631 -1.81542 0
M  V30 3486 H 327.112 2.56742 -3.03856 0
M  V30 3487 H 323.851 2.55597 -6.03614 0
M  V30 3488 H 323.371 3.67535 -4.74002 0
M  V30 3489 H 325.05 3.66152 -5.33424 0
M  V30 3490 N 325.182 1.32811 0.848464 0
M  V30 3491 C 326.092 1.24278 1.98978 0
M  V30 3492 C 327.108 0.155176 1.73307 0
M  V30 3493 O 328.284 0.376999 1.9784 0
M  V30 3494 C 325.349 0.972444 3.32783 0
M  V30 3495 C 324.41 2.14911 3.71634 0
M  V30 3496 C 323.643 1.89157 4.99054 0
M  V30 3497 O 323.866 0.837165 5.64223 0
M  V30 3498 O 322.8 2.75433 5.35183 0
M  V30 3499 H 326.626 2.20238 2.09115 0
M  V30 3500 H 324.211 1.12762 0.980052 0
M  V30 3501 H 326.093 0.838432 4.12975 0
M  V30 3502 H 324.768 0.043051 3.23671 0
M  V30 3503 H 323.675 2.33862 2.91992 0
M  V30 3504 H 325.008 3.06151 3.85399 0
M  V30 3505 N 326.66 -1.06551 1.16123 0
M  V30 3506 C 327.57 -2.17484 0.879662 0
M  V30 3507 C 328.586 -1.73377 -0.147104 0
M  V30 3508 O 329.762 -2.01379 0.0289128 0
M  V30 3509 C 326.827 -3.44591 0.381829 0
M  V30 3510 C 325.888 -4.0322 1.4735 0
M  V30 3511 C 325.121 -5.24261 0.999324 0
M  V30 3512 O 325.344 -5.70198 -0.151957 0
M  V30 3513 O 324.278 -5.74775 1.78653 0
M  V30 3514 H 328.104 -2.44075 1.80724 0
M  V30 3515 H 325.689 -1.16042 0.940992 0
M  V30 3516 H 327.571 -4.21254 0.111053 0
M  V30 3517 H 326.246 -3.19532 -0.51777 0
M  V30 3518 H 325.153 -3.2806 1.79798 0
M  V30 3519 H 326.486 -4.32568 2.34831 0
M  V30 3520 N 328.138 -0.959301 -1.25041 0
M  V30 3521 C 329.048 -0.489994 -2.29426 0
M  V30 3522 C 330.064 0.444944 -1.68215 0
M  V30 3523 O 331.24 0.320046 -1.98841 0
M  V30 3524 C 328.305 0.220309 -3.45999 0
M  V30 3525 C 327.366 -0.753418 -4.22637 0
M  V30 3526 C 326.599 -0.076918 -5.33645 0
M  V30 3527 O 326.822 1.13649 -5.58963 0
M  V30 3528 O 325.756 -0.764824 -5.97021 0
M  V30 3529 H 329.582 -1.35755 -2.71669 0
M  V30 3530 H 327.167 -0.725961 -1.30576 0
M  V30 3531 H 329.049 0.619677 -4.16819 0
M  V30 3532 H 327.724 1.06296 -3.0575 0
M  V30 3533 H 326.631 -1.20308 -3.54227 0
M  V30 3534 H 327.964 -1.56423 -4.66683 0
M  V30 3535 N 329.616 1.39756 -0.72842 0
M  V30 3536 C 330.563 2.30647 -0.0841519 0
M  V30 3537 C 331.533 1.48869 0.7367 0
M  V30 3538 O 332.718 1.77574 0.698015 0
M  V30 3539 C 329.858 3.35165 0.822091 0
M  V30 3540 C 328.971 4.31999 -0.0106663 0
M  V30 3541 C 328.106 5.23585 0.896241 0
M  V30 3542 C 327.145 6.12072 0.0583381 0
M  V30 3543 N 326.282 6.96035 0.920818 0
M  V30 3544 H 331.122 2.85173 -0.864891 0
M  V30 3545 H 328.659 1.40422 -0.438179 0
M  V30 3546 H 330.617 3.94345 1.36189 0
M  V30 3547 H 329.247 2.8211 1.56888 0
M  V30 3548 H 328.299 3.74492 -0.66781 0
M  V30 3549 H 329.611 4.9443 -0.658825 0
M  V30 3550 H 328.765 5.87759 1.50412 0
M  V30 3551 H 327.504 4.61459 1.57819 0
M  V30 3552 H 326.509 5.46916 -0.562389 0
M  V30 3553 H 327.734 6.76261 -0.6203 0
M  V30 3554 H 325.68 6.36485 1.58818 0
M  V30 3555 H 325.597 7.55284 0.32899 0
M  V30 3556 H 326.865 7.64646 1.51447 0
M  V30 3557 N 331.094 0.475555 1.50254 0
M  V30 3558 C 332.341 -0.0778919 2.0235 0
M  V30 3559 C 332.669 -1.39319 1.35722 0
M  V30 3560 O 331.924 -1.89888 0.473395 0
M  V30 3561 C 332.223 -0.305114 3.56095 0
M  V30 3562 C 331.889 0.92903 4.41225 0
M  V30 3563 C 330.551 1.26739 4.6421 0
M  V30 3564 C 332.903 1.75054 4.90923 0
M  V30 3565 C 330.231 2.42724 5.34137 0
M  V30 3566 C 332.583 2.9017 5.62125 0
M  V30 3567 C 331.247 3.24416 5.83362 0
M  V30 3568 H 330.517 -0.0285027 0.740452 0
M  V30 3569 H 333.164 0.630543 1.80821 0
M  V30 3570 H 331.469 -1.09584 3.76163 0
M  V30 3571 H 333.166 -0.747377 3.93974 0
M  V30 3572 H 329.756 0.655428 4.23559 0
M  V30 3573 H 333.94 1.50231 4.73016 0
M  V30 3574 H 329.196 2.69525 5.48786 0
M  V30 3575 H 333.37 3.54169 5.99614 0
M  V30 3576 H 330.997 4.14396 6.37323 0
M  V30 3577 N 332.573 -1.56217 0.208337 0
M  V30 3578 C 333.483 -2.23316 -0.718836 0
M  V30 3579 C 334.499 -1.23648 -1.22422 0
M  V30 3580 O 335.675 -1.56423 -1.26861 0
M  V30 3581 C 332.74 -2.88968 -1.91568 0
M  V30 3582 C 331.801 -4.03943 -1.45357 0
M  V30 3583 C 331.034 -4.66455 -2.59337 0
M  V30 3584 O 331.257 -4.27919 -3.77149 0
M  V30 3585 O 330.191 -5.55686 -2.31293 0
M  V30 3586 H 334.017 -3.03182 -0.177315 0
M  V30 3587 H 331.602 -1.49384 -0.0215402 0
M  V30 3588 H 333.484 -3.30455 -2.61491 0
M  V30 3589 H 332.159 -2.12071 -2.44556 0
M  V30 3590 H 331.066 -3.67052 -0.722746 0
M  V30 3591 H 332.399 -4.82543 -0.970219 0
M  V30 3592 N 334.051 0.0651679 -1.57465 0
M  V30 3593 C 334.999 1.09542 -2.05191 0
M  V30 3594 C 335.993 1.39675 -0.958509 0
M  V30 3595 O 337.199 1.39003 -1.14359 0
M  V30 3596 H 333.574 0.370623 -0.654326 0
M  V30 3597 H 335.545 0.666802 -2.90854 0
M  V30 3598 C 334.294 2.39881 -2.51699 0
M  V30 3599 H 333.617 2.17547 -3.3543 0
M  V30 3600 H 335.057 3.104 -2.88839 0
M  V30 3601 C 333.516 3.0631 -1.40271 0
M  V30 3602 O 334.046 3.94664 -0.748523 0
M  V30 3603 N 332.252 2.67041 -1.14618 0
M  V30 3604 H 331.799 1.95281 -1.67997 0
M  V30 3605 H 331.757 3.1181 -0.402688 0
M  V30 3606 N 335.529 1.53961 0.336706 0
M  V30 3607 C 336.439 1.85432 1.43708 0
M  V30 3608 C 337.455 0.745053 1.57242 0
M  V30 3609 O 338.631 1.03804 1.72588 0
M  V30 3610 C 335.696 2.06349 2.78605 0
M  V30 3611 C 334.757 3.30191 2.74358 0
M  V30 3612 C 333.99 3.50101 4.02822 0
M  V30 3613 O 334.213 2.7371 5.00439 0
M  V30 3614 O 333.147 4.43547 4.06878 0
M  V30 3615 H 336.973 2.78975 1.20028 0
M  V30 3616 H 334.558 1.39701 0.52952 0
M  V30 3617 H 336.44 2.21513 3.58483 0
M  V30 3618 H 335.115 1.15995 3.02203 0
M  V30 3619 H 334.022 3.20425 1.93078 0
M  V30 3620 H 335.355 4.2056 2.55715 0
M  V30 3621 N 337.007 -0.598083 1.45811 0
M  V30 3622 C 338.253 -1.35882 1.50545 0
M  V30 3623 C 338.586 -1.93616 0.150445 0
M  V30 3624 O 337.861 -1.75604 -0.83628 0
M  V30 3625 C 338.144 -2.49966 2.59208 0
M  V30 3626 C 337.997 -1.97367 4.04186 0
M  V30 3627 C 339.316 -3.52068 2.64076 0
M  V30 3628 H 336.435 -0.492717 0.548087 0
M  V30 3629 H 339.077 -0.673319 1.77669 0
M  V30 3630 H 337.227 -3.08443 2.3621 0
M  V30 3631 H 338.899 -1.43466 4.38423 0
M  V30 3632 H 337.142 -1.283 4.14393 0
M  V30 3633 H 337.813 -2.79649 4.75921 0
M  V30 3634 H 340.289 -3.03448 2.84708 0
M  V30 3635 H 339.165 -4.2937 3.41954 0
M  V30 3636 H 339.426 -4.08304 1.69531 0
M  V30 3637 N 338.485 -1.33259 -0.841409 0
M  V30 3638 C 339.395 -1.25332 -1.98316 0
M  V30 3639 C 340.411 -0.164364 -1.73222 0
M  V30 3640 O 341.587 -0.387486 -1.97637 0
M  V30 3641 C 338.652 -0.990078 -3.32262 0
M  V30 3642 C 337.713 -2.16879 -3.70489 0
M  V30 3643 C 336.946 -1.91801 -4.98044 0
M  V30 3644 O 337.169 -0.867075 -5.63771 0
M  V30 3645 O 336.103 -2.78267 -5.33714 0
M  V30 3646 H 339.929 -2.21344 -2.07944 0
M  V30 3647 H 337.514 -1.1328 -0.974058 0
M  V30 3648 H 339.396 -0.860321 -4.12524 0
M  V30 3649 H 338.071 -0.0602155 -3.23644 0
M  V30 3650 H 336.978 -2.35407 -2.90748 0
M  V30 3651 H 338.311 -3.0819 -3.8377 0
M  V30 3652 N 339.963 1.05934 -1.16686 0
M  V30 3653 C 340.893 2.1546 -0.899949 0
M  V30 3654 C 341.874 1.69391 0.155154 0
M  V30 3655 O 343.059 1.94199 0.00648693 0
M  V30 3656 C 340.189 3.44939 -0.404241 0
M  V30 3657 C 339.143 4.04536 -1.39767 0
M  V30 3658 C 338.469 5.29268 -0.760216 0
M  V30 3659 C 339.769 4.42893 -2.76845 0
M  V30 3660 H 341.463 2.38046 -1.81588 0
M  V30 3661 H 339.009 1.14404 -0.874514 0
M  V30 3662 H 340.962 4.20901 -0.204971 0
M  V30 3663 H 339.686 3.21983 0.547206 0
M  V30 3664 H 338.345 3.30635 -1.58355 0
M  V30 3665 H 337.993 5.02611 0.197831 0
M  V30 3666 H 337.693 5.70101 -1.42332 0
M  V30 3667 H 339.217 6.07924 -0.57105 0
M  V30 3668 H 340.631 5.09921 -2.62019 0
M  V30 3669 H 339.028 4.94721 -3.39663 0
M  V30 3670 H 340.098 3.53584 -3.31823 0
M  V30 3671 N 341.441 0.965919 1.2453 0
M  V30 3672 C 342.688 0.626831 1.92554 0
M  V30 3673 C 343.016 -0.837739 1.75534 0
M  V30 3674 O 342.271 -1.61793 1.10098 0
M  V30 3675 C 342.57 0.945428 3.44669 0
M  V30 3676 C 342.236 2.39785 3.81856 0
M  V30 3677 C 340.898 2.79483 3.91718 0
M  V30 3678 C 343.25 3.34055 4.00071 0
M  V30 3679 C 340.578 4.12496 4.1721 0
M  V30 3680 C 342.93 4.66694 4.27059 0
M  V30 3681 C 341.594 5.06172 4.3514 0
M  V30 3682 H 340.864 0.229374 0.704605 0
M  V30 3683 H 343.511 1.21707 1.4785 0
M  V30 3684 H 341.816 0.272926 3.90848 0
M  V30 3685 H 343.513 0.661484 3.95507 0
M  V30 3686 H 340.103 2.08003 3.74743 0
M  V30 3687 H 344.287 3.04571 3.91855 0
M  V30 3688 H 339.543 4.42709 4.21685 0
M  V30 3689 H 343.717 5.3971 4.40097 0
M  V30 3690 H 341.344 6.09262 4.54646 0
M  V30 3691 N 342.919 -1.39368 0.735821 0
M  V30 3692 C 344.165 -2.00794 0.284544 0
M  V30 3693 C 344.498 -1.58255 -1.12557 0
M  V30 3694 O 343.773 -0.811819 -1.76748 0
M  V30 3695 C 344.056 -3.58011 0.387337 0
M  V30 3696 C 343.909 -4.10566 1.83728 0
M  V30 3697 C 345.228 -4.395 -0.22975 0
M  V30 3698 H 342.347 -0.729501 0.104866 0
M  V30 3699 H 344.989 -1.65564 0.93213 0
M  V30 3700 H 343.139 -3.88154 -0.164006 0
M  V30 3701 H 344.811 -3.91139 2.44556 0
M  V30 3702 H 343.054 -3.64095 2.35833 0
M  V30 3703 H 343.725 -5.19702 1.86047 0
M  V30 3704 H 346.201 -4.15406 0.240257 0
M  V30 3705 H 345.077 -5.48752 -0.127485 0
M  V30 3706 H 345.338 -4.22062 -1.3159 0
M  V30 3707 N 344.397 -0.483516 -1.5 0
M  V30 3708 C 345.646 0.0689102 -2.01582 0
M  V30 3709 C 345.959 1.39655 -1.36952 0
M  V30 3710 O 347.165 2.03465 -1.79762 0
M  V30 3711 C 345.621 0.173302 -3.59483 0
M  V30 3712 C 345.229 -1.14665 -4.33077 0
M  V30 3713 C 346.973 0.677024 -4.19066 0
M  V30 3714 C 344.88 -1.00537 -5.82792 0
M  V30 3715 H 343.81 0.0295277 -0.753422 0
M  V30 3716 H 346.461 -0.620295 -1.72698 0
M  V30 3717 H 344.843 0.926569 -3.85007 0
M  V30 3718 H 346.017 -1.91184 -4.19268 0
M  V30 3719 H 344.332 -1.58244 -3.85159 0
M  V30 3720 H 346.929 0.799952 -5.28682 0
M  V30 3721 H 347.272 1.67151 -3.81269 0
M  V30 3722 H 347.805 -0.0192083 -3.97795 0
M  V30 3723 H 344.544 -1.9736 -6.25083 0
M  V30 3724 H 344.064 -0.280776 -5.99142 0
M  V30 3725 H 345.743 -0.677 -6.43448 0
M  V30 3726 N 345.875 1.56104 -0.216619 0
M  V30 3727 C 347.1 2.0301 0.424462 0
M  V30 3728 C 347.525 1.0955 1.52907 0
M  V30 3729 O 346.883 0.0827914 1.81111 0
M  V30 3730 C 346.931 3.4819 0.937883 0
M  V30 3731 O 346.035 3.57865 2.04955 0
M  V30 3732 H 345.376 0.656925 0.0966755 0
M  V30 3733 H 347.906 2.01859 -0.33381 0
M  V30 3734 H 347.916 3.88413 1.24897 0
M  V30 3735 H 346.591 4.15699 0.129387 0
M  V30 3736 H 345.168 3.29527 1.74546 0
M  V30 3737 N 347.353 -0.0568162 1.57498 0
M  V30 3738 C 348.764 -0.606858 1.76562 0
M  V30 3739 C 349.115 -1.77114 0.844094 0
M  V30 3740 O 348.24 -2.16376 0.0318911 0
M  V30 3741 C 348.835 -1.10766 3.20182 0
M  V30 3742 C 347.394 -1.60344 3.40539 0
M  V30 3743 C 346.541 -0.529311 2.72201 0
M  V30 3744 H 349.492 0.169393 1.57793 0
M  V30 3745 H 349.513 -1.97602 3.25167 0
M  V30 3746 H 349.025 -0.26006 3.87228 0
M  V30 3747 H 347.126 -2.47379 2.78629 0
M  V30 3748 H 347.239 -1.67006 4.4905 0
M  V30 3749 H 345.603 -0.977893 2.35179 0
M  V30 3750 H 346.386 0.308352 3.41912 0
M  V30 3751 N 348.832 -1.54138 -0.328536 0
M  V30 3752 C 350.078 -1.7236 -1.06865 0
M  V30 3753 C 350.411 -0.493231 -1.87832 0
M  V30 3754 O 349.686 0.5098 -1.877 0
M  V30 3755 C 349.969 -2.99621 -1.99747 0
M  V30 3756 C 349.822 -4.32899 -1.22143 0
M  V30 3757 C 351.141 -3.22615 -2.99345 0
M  V30 3758 H 348.26 -0.627151 -0.387105 0
M  V30 3759 H 350.902 -1.86827 -0.345767 0
M  V30 3760 H 349.052 -2.87418 -2.61387 0
M  V30 3761 H 350.724 -4.56978 -0.630017 0
M  V30 3762 H 348.967 -4.30628 -0.523628 0
M  V30 3763 H 349.638 -5.18154 -1.90318 0
M  V30 3764 H 352.114 -3.34248 -2.47826 0
M  V30 3765 H 350.99 -4.13027 -3.61524 0
M  V30 3766 H 351.251 -2.3961 -3.71536 0
M  V30 3767 N 350.31 0.590341 -1.46126 0
M  V30 3768 C 351.587 1.35029 -1.41515 0
M  V30 3769 C 351.967 2.10888 -0.0946472 0
M  V30 3770 O 351.315 2.08998 0.923693 0
M  V30 3771 C 351.525 2.28269 -2.63997 0
M  V30 3772 C 352.873 2.90338 -3.09821 0
M  V30 3773 O 353.897 2.38585 -2.64492 0
M  V30 3774 O 352.756 3.84321 -3.88535 0
M  V30 3775 H 349.85 0.606317 -0.562413 0
M  V30 3776 H 352.396 0.611994 -1.58281 0
M  V30 3777 H 351.168 1.71591 -3.51671 0
M  V30 3778 H 350.791 3.0945 -2.49652 0
M  V30 3779 N 351.788 1.33704 0.83433 0
M  V30 3780 C 352.718 1.26967 1.95963 0
M  V30 3781 C 353.699 0.149337 1.69443 0
M  V30 3782 O 354.884 0.339852 1.91203 0
M  V30 3783 C 352.014 1.01275 3.32206 0
M  V30 3784 C 350.968 2.09652 3.73136 0
M  V30 3785 C 350.294 1.69166 5.07235 0
M  V30 3786 C 351.594 3.51372 3.86439 0
M  V30 3787 H 353.288 2.2112 2.01857 0
M  V30 3788 H 350.834 1.06447 0.969793 0
M  V30 3789 H 352.787 0.952106 4.10503 0
M  V30 3790 H 351.511 0.0356203 3.26581 0
M  V30 3791 H 350.17 2.14766 2.97104 0
M  V30 3792 H 349.818 0.701437 4.98085 0
M  V30 3793 H 349.518 2.41694 5.35591 0
M  V30 3794 H 351.042 1.64576 5.88003 0
M  V30 3795 H 352.456 3.48734 4.55036 0
M  V30 3796 H 350.853 4.22425 4.26236 0
M  V30 3797 H 351.923 3.89546 2.88759 0
M  V30 3798 N 353.266 -1.05314 1.17247 0
M  V30 3799 C 354.176 -2.16538 0.90268 0
M  V30 3800 C 355.192 -1.73523 -0.128707 0
M  V30 3801 O 356.368 -2.01337 0.0502701 0
M  V30 3802 C 353.433 -3.44167 0.418356 0
M  V30 3803 C 352.494 -4.01635 1.51618 0
M  V30 3804 C 351.727 -5.23171 1.05487 0
M  V30 3805 O 351.95 -5.70327 -0.0914715 0
M  V30 3806 O 350.884 -5.72848 1.8474 0
M  V30 3807 H 354.71 -2.42145 1.83302 0
M  V30 3808 H 352.295 -1.15037 0.953246 0
M  V30 3809 H 354.177 -4.21112 0.155726 0
M  V30 3810 H 352.852 -3.20063 -0.48385 0
M  V30 3811 H 351.759 -3.26135 1.83268 0
M  V30 3812 H 353.092 -4.30053 2.39405 0
M  V30 3813 N 354.744 -0.972509 -1.24016 0
M  V30 3814 C 355.691 -0.505969 -2.25186 0
M  V30 3815 C 356.661 0.451009 -1.5986 0
M  V30 3816 O 357.846 0.360307 -1.87367 0
M  V30 3817 C 354.986 0.193089 -3.44559 0
M  V30 3818 C 354.099 -0.803222 -4.24467 0
M  V30 3819 C 353.234 -0.0797793 -5.3114 0
M  V30 3820 C 352.273 -1.06583 -6.02749 0
M  V30 3821 N 351.41 -0.372074 -7.01113 0
M  V30 3822 H 356.25 -1.37351 -2.64459 0
M  V30 3823 H 353.787 -0.688419 -1.29997 0
M  V30 3824 H 355.745 0.615125 -4.1264 0
M  V30 3825 H 354.375 1.02455 -3.06109 0
M  V30 3826 H 353.427 -1.34368 -3.55878 0
M  V30 3827 H 354.739 -1.55494 -4.73944 0
M  V30 3828 H 353.893 0.400015 -6.0538 0
M  V30 3829 H 352.632 0.704597 -4.82583 0
M  V30 3830 H 351.637 -1.55645 -5.27309 0
M  V30 3831 H 352.862 -1.85074 -6.53395 0
M  V30 3832 H 350.808 0.393238 -6.5482 0
M  V30 3833 H 350.725 -1.06258 -7.48495 0
M  V30 3834 H 351.993 0.0855932 -7.79453 0
M  V30 3835 N 356.222 1.38976 -0.743202 0
M  V30 3836 C 357.152 2.33171 -0.123873 0
M  V30 3837 C 358.133 1.54336 0.71516 0
M  V30 3838 O 359.318 1.82696 0.658467 0
M  V30 3839 C 356.448 3.38474 0.777978 0
M  V30 3840 C 355.402 4.27979 0.0424758 0
M  V30 3841 C 354.728 5.2405 1.06189 0
M  V30 3842 C 356.028 5.10155 -1.1198 0
M  V30 3843 H 357.722 2.85213 -0.910709 0
M  V30 3844 H 355.268 1.37133 -0.439388 0
M  V30 3845 H 357.221 4.03328 1.22084 0
M  V30 3846 H 355.945 2.84891 1.59702 0
M  V30 3847 H 354.604 3.64616 -0.380853 0
M  V30 3848 H 354.252 4.66758 1.87472 0
M  V30 3849 H 353.952 5.84785 0.574485 0
M  V30 3850 H 355.476 5.9178 1.50428 0
M  V30 3851 H 356.89 5.68307 -0.75499 0
M  V30 3852 H 355.287 5.80073 -1.53738 0
M  V30 3853 H 356.357 4.44504 -1.93764 0
M  V30 3854 N 357.7 0.491464 1.49741 0
M  V30 3855 C 358.925 -0.0557177 2.07325 0
M  V30 3856 C 359.35 -1.30925 1.35056 0
M  V30 3857 O 358.708 -1.76733 0.404365 0
M  V30 3858 C 358.756 -0.302074 3.59333 0
M  V30 3859 O 357.86 -1.37868 3.88672 0
M  V30 3860 H 357.201 0.0219956 0.663636 0
M  V30 3861 H 359.731 0.688352 1.92673 0
M  V30 3862 H 359.741 -0.536464 4.04458 0
M  V30 3863 H 358.416 0.61383 4.11345 0
M  V30 3864 H 356.993 -1.12999 3.55367 0
M  V30 3865 N 359.178 -1.55987 0.224894 0
M  V30 3866 C 360.088 -2.24066 -0.69511 0
M  V30 3867 C 361.104 -1.24939 -1.21104 0
M  V30 3868 O 362.28 -1.5776 -1.25195 0
M  V30 3869 C 359.345 -2.90983 -1.88493 0
M  V30 3870 C 358.406 -4.05462 -1.41064 0
M  V30 3871 C 357.639 -4.69179 -2.54375 0
M  V30 3872 O 357.862 -4.31895 -3.72589 0
M  V30 3873 O 356.796 -5.58108 -2.25386 0
M  V30 3874 H 360.622 -3.03353 -0.145149 0
M  V30 3875 H 358.207 -1.49399 -0.00569476 0
M  V30 3876 H 360.089 -3.33209 -2.57972 0
M  V30 3877 H 358.764 -2.14653 -2.42293 0
M  V30 3878 H 357.671 -3.67798 -0.683774 0
M  V30 3879 H 359.004 -4.83545 -0.918985 0
M  V30 3880 N 360.656 0.0484629 -1.57525 0
M  V30 3881 C 361.619 1.03956 -2.04269 0
M  V30 3882 C 362.619 1.30211 -0.943496 0
M  V30 3883 O 363.809 1.25539 -1.20771 0
M  V30 3884 C 360.941 2.37742 -2.44319 0
M  V30 3885 H 362.134 0.636182 -2.93075 0
M  V30 3886 H 359.687 0.294811 -1.53494 0
M  V30 3887 H 360.422 2.82866 -1.5861 0
M  V30 3888 H 360.207 2.20021 -3.24551 0
M  V30 3889 H 361.697 3.08936 -2.80978 0
M  V30 3890 N 362.134 1.5431 0.320358 0
M  V30 3891 C 363.064 1.86912 1.3995 0
M  V30 3892 C 364.045 0.726211 1.53819 0
M  V30 3893 O 365.23 0.980233 1.67646 0
M  V30 3894 C 362.36 2.09932 2.7667 0
M  V30 3895 C 361.314 3.25776 2.77586 0
M  V30 3896 C 360.64 3.34173 4.17412 0
M  V30 3897 C 361.94 4.6335 2.41048 0
M  V30 3898 H 363.634 2.77292 1.12914 0
M  V30 3899 H 361.18 1.33421 0.541738 0
M  V30 3900 H 363.133 2.31324 3.52232 0
M  V30 3901 H 361.857 1.16304 3.0519 0
M  V30 3902 H 360.516 3.04276 2.04479 0
M  V30 3903 H 360.164 2.38098 4.43078 0
M  V30 3904 H 359.864 4.12033 4.18931 0
M  V30 3905 H 361.388 3.57803 4.94782 0
M  V30 3906 H 362.802 4.84602 3.06324 0
M  V30 3907 H 361.199 5.43782 2.53813 0
M  V30 3908 H 362.269 4.65381 1.36193 0
M  V30 3909 N 363.613 -0.582584 1.46437 0
M  V30 3910 C 364.838 -1.37168 1.55563 0
M  V30 3911 C 365.263 -1.87061 0.19743 0
M  V30 3912 O 364.621 -1.61572 -0.822451 0
M  V30 3913 C 364.669 -2.53511 2.56446 0
M  V30 3914 O 363.773 -3.54953 2.09958 0
M  V30 3915 H 363.114 -0.408494 0.523477 0
M  V30 3916 H 365.644 -0.706646 1.9201 0
M  V30 3917 H 365.654 -3.00426 2.76058 0
M  V30 3918 H 364.329 -2.16549 3.55076 0
M  V30 3919 H 362.906 -3.14516 2.00334 0
M  V30 3920 N 365.091 -1.34144 -0.827227 0
M  V30 3921 C 366.316 -1.29476 -1.62021 0
M  V30 3922 C 366.741 0.129292 -1.87655 0
M  V30 3923 O 366.099 1.08967 -1.449 0
M  V30 3924 C 366.147 -2.08702 -2.94068 0
M  V30 3925 O 365.251 -1.45359 -3.85933 0
M  V30 3926 H 364.592 -0.444881 -0.492927 0
M  V30 3927 H 367.122 -1.76882 -1.02829 0
M  V30 3928 H 367.132 -2.19898 -3.43669 0
M  V30 3929 H 365.807 -3.12241 -2.74734 0
M  V30 3930 H 364.384 -1.42879 -3.44442 0
M  V30 3931 N 366.569 1.04691 -1.17803 0
M  V30 3932 C 367.818 1.77176 -0.963931 0
M  V30 3933 C 368.131 1.88888 0.508015 0
M  V30 3934 O 369.337 2.58164 0.840465 0
M  V30 3935 C 367.793 3.18518 -1.67555 0
M  V30 3936 C 367.401 3.14919 -3.18637 0
M  V30 3937 C 369.145 3.95424 -1.54402 0
M  V30 3938 C 367.052 4.51081 -3.82466 0
M  V30 3939 H 365.982 0.664116 -0.357023 0
M  V30 3940 H 368.633 1.17303 -1.4111 0
M  V30 3941 H 367.015 3.78748 -1.15613 0
M  V30 3942 H 368.189 2.64178 -3.77554 0
M  V30 3943 H 366.504 2.51512 -3.31859 0
M  V30 3944 H 369.101 4.96106 -1.99456 0
M  V30 3945 H 369.444 4.13343 -0.495329 0
M  V30 3946 H 369.977 3.41754 -2.0359 0
M  V30 3947 H 366.716 4.38368 -4.87354 0
M  V30 3948 H 366.236 5.01951 -3.28337 0
M  V30 3949 H 367.915 5.2001 -3.84965 0
M  V30 3950 N 368.047 0.979072 1.23499 0
M  V30 3951 C 369.01 0.523244 2.23147 0
M  V30 3952 C 370.01 -0.386406 1.56088 0
M  V30 3953 O 371.2 -0.180283 1.73265 0
M  V30 3954 C 368.332 -0.240739 3.40049 0
M  V30 3955 H 369.525 1.40432 2.64989 0
M  V30 3956 H 367.078 0.764824 1.36309 0
M  V30 3957 H 367.813 -1.13841 3.03662 0
M  V30 3958 H 367.598 0.412207 3.89927 0
M  V30 3959 H 369.088 -0.548297 4.13985 0
M  V30 3960 N 369.525 -1.3858 0.750561 0
M  V30 3961 C 370.802 -1.94231 0.231009 0
M  V30 3962 C 371.182 -1.68611 -1.27018 0
M  V30 3963 O 370.53 -1.02296 -2.04323 0
M  V30 3964 C 370.74 -3.44123 0.581428 0
M  V30 3965 C 372.088 -4.2116 0.539389 0
M  V30 3966 O 373.112 -3.52391 0.519541 0
M  V30 3967 O 371.971 -5.43749 0.54765 0
M  V30 3968 H 369.065 -0.825639 0.0474263 0
M  V30 3969 H 371.611 -1.4799 0.830478 0
M  V30 3970 H 370.383 -3.56267 1.61833 0
M  V30 3971 H 370.006 -3.97573 -0.0462047 0
M  V30 3972 N 371.003 -0.499398 -1.49478 0
M  V30 3973 C 372.252 0.0475259 -2.01644 0
M  V30 3974 C 372.565 1.38195 -1.38425 0
M  V30 3975 O 373.771 2.01547 -1.8191 0
M  V30 3976 C 372.227 0.135164 -3.59646 0
M  V30 3977 C 371.835 -1.19252 -4.31837 0
M  V30 3978 C 373.579 0.632538 -4.19761 0
M  V30 3979 C 371.486 -1.06713 -5.81693 0
M  V30 3980 H 370.416 0.0215349 -0.753692 0
M  V30 3981 H 373.067 -0.638577 -1.7203 0
M  V30 3982 H 371.449 0.885681 -3.85969 0
M  V30 3983 H 372.623 -1.9562 -4.17216 0
M  V30 3984 H 370.938 -1.62321 -3.83459 0
M  V30 3985 H 373.535 0.743833 -5.29501 0
M  V30 3986 H 373.878 1.63098 -3.83021 0
M  V30 3987 H 374.411 -0.0613987 -3.97753 0
M  V30 3988 H 371.15 -2.03979 -6.22955 0
M  V30 3989 H 370.67 -0.344307 -5.98811 0
M  V30 3990 H 372.349 -0.745208 -6.42694 0
M  V30 3991 N 372.481 1.55866 -0.233164 0
M  V30 3992 C 373.391 2.24431 0.683217 0
M  V30 3993 C 374.407 1.2558 1.2044 0
M  V30 3994 O 375.583 1.58422 1.24356 0
M  V30 3995 C 372.648 2.91979 1.86947 0
M  V30 3996 C 371.709 4.06204 1.38912 0
M  V30 3997 C 370.942 4.70522 2.51883 0
M  V30 3998 O 371.165 4.33865 3.70293 0
M  V30 3999 O 370.099 5.59296 2.22423 0
M  V30 4000 H 373.925 3.03426 0.129059 0
M  V30 4001 H 371.51 1.494 -0.0022283 0
M  V30 4002 H 373.392 3.34573 2.56201 0
M  V30 4003 H 372.067 2.15935 2.41151 0
M  V30 4004 H 370.974 3.68155 0.664259 0
M  V30 4005 H 372.307 4.84025 0.893328 0
M  V30 4006 N 373.959 -0.0401083 1.57549 0
M  V30 4007 C 375.375 -0.395556 1.54621 0
M  V30 4008 C 375.575 -1.77281 0.957799 0
M  V30 4009 O 374.631 -2.45888 0.574031 0
M  V30 4010 C 375.944 -0.307535 2.99123 0
M  V30 4011 C 377.492 -0.385425 3.10618 0
M  V30 4012 C 377.967 -0.326973 4.56831 0
M  V30 4013 N 379.458 -0.386102 4.61588 0
M  V30 4014 C 380.193 -0.363591 5.72246 0
M  V30 4015 N 379.689 -0.29402 6.92176 0
M  V30 4016 N 381.482 -0.412503 5.60584 0
M  V30 4017 H 373.633 0.861325 1.94152 0
M  V30 4018 H 375.896 0.326445 0.890021 0
M  V30 4019 H 375.602 0.638461 3.45856 0
M  V30 4020 H 375.476 -1.10552 3.60636 0
M  V30 4021 H 377.863 -1.32185 2.63839 0
M  V30 4022 H 377.944 0.44171 2.51957 0
M  V30 4023 H 377.588 0.605738 5.04275 0
M  V30 4024 H 377.518 -1.17207 5.13391 0
M  V30 4025 H 380.009 -0.442832 3.75296 0
M  V30 4026 H 380.322 -0.28164 7.72287 0
M  V30 4027 H 378.667 -0.260232 6.94513 0
M  V30 4028 H 381.858 -0.464769 4.65787 0
M  V30 4029 H 382.031 -0.391492 6.46816 0
M  V30 4030 N 375.437 -1.54477 -0.31217 0
M  V30 4031 C 376.683 -1.73483 -1.0503 0
M  V30 4032 C 377.016 -0.513125 -1.87298 0
M  V30 4033 O 376.291 0.489864 -1.8823 0
M  V30 4034 C 376.574 -3.01723 -1.96558 0
M  V30 4035 C 376.427 -4.3417 -1.17545 0
M  V30 4036 C 377.746 -3.25772 -2.95907 0
M  V30 4037 H 374.865 -0.631222 -0.380432 0
M  V30 4038 H 377.507 -1.87184 -0.325932 0
M  V30 4039 H 375.657 -2.90174 -2.58324 0
M  V30 4040 H 377.329 -4.5762 -0.581513 0
M  V30 4041 H 375.572 -4.31159 -0.477925 0
M  V30 4042 H 376.243 -5.20143 -1.84811 0
M  V30 4043 H 378.719 -3.36857 -2.44267 0
M  V30 4044 H 377.595 -4.16838 -3.57123 0
M  V30 4045 H 377.856 -2.43537 -3.68974 0
M  V30 4046 N 376.915 0.57481 -1.46744 0
M  V30 4047 C 378.164 1.32898 -1.51727 0
M  V30 4048 C 378.477 1.948 -0.176692 0
M  V30 4049 O 379.683 2.71299 -0.104385 0
M  V30 4050 C 378.139 2.40901 -2.67385 0
M  V30 4051 C 377.747 1.85266 -4.07898 0
M  V30 4052 C 379.491 3.17609 -2.81646 0
M  V30 4053 C 377.398 2.90945 -5.14883 0
M  V30 4054 H 376.328 0.499631 -0.564699 0
M  V30 4055 H 378.979 0.612536 -1.72975 0
M  V30 4056 H 377.361 3.15379 -2.39483 0
M  V30 4057 H 378.535 1.17278 -4.45626 0
M  V30 4058 H 376.85 1.21199 -3.98371 0
M  V30 4059 H 379.447 3.96493 -3.58744 0
M  V30 4060 H 379.79 3.70696 -1.89448 0
M  V30 4061 H 380.323 2.50239 -3.09233 0
M  V30 4062 H 377.062 2.42736 -6.089 0
M  V30 4063 H 376.582 3.57398 -4.81691 0
M  V30 4064 H 378.261 3.54755 -5.41071 0
M  V30 4065 N 378.394 1.34581 0.820102 0
M  V30 4066 C 379.643 1.26437 1.57151 0
M  V30 4067 C 379.956 -0.163111 1.94919 0
M  V30 4068 O 381.162 -0.366722 2.69012 0
M  V30 4069 C 379.618 2.21658 2.83541 0
M  V30 4070 C 379.226 3.69679 2.53065 0
M  V30 4071 C 380.97 2.22428 3.61561 0
M  V30 4072 C 378.877 4.56761 3.75664 0
M  V30 4073 H 377.807 0.469707 0.589823 0
M  V30 4074 H 380.458 1.59763 0.902656 0
M  V30 4075 H 378.84 1.81287 3.52067 0
M  V30 4076 H 380.014 4.18605 1.92631 0
M  V30 4077 H 378.329 3.71384 1.88316 0
M  V30 4078 H 380.926 2.8471 4.52597 0
M  V30 4079 H 381.269 1.22434 3.97889 0
M  V30 4080 H 381.802 2.61259 2.99981 0
M  V30 4081 H 378.541 5.57702 3.44454 0
M  V30 4082 H 378.061 4.12568 4.35371 0
M  V30 4083 H 379.74 4.71509 4.43044 0
M  V30 4084 N 379.872 -1.04064 1.18357 0
M  V30 4085 C 380.819 -2.12077 0.910603 0
M  V30 4086 C 381.789 -1.65421 -0.15 0
M  V30 4087 O 382.974 -1.90797 -0.0103614 0
M  V30 4088 C 380.114 -3.42252 0.442472 0
M  V30 4089 C 379.227 -4.0252 1.5685 0
M  V30 4090 C 378.362 -5.20657 1.05309 0
M  V30 4091 C 377.401 -5.72955 2.1538 0
M  V30 4092 N 376.538 -6.8238 1.65233 0
M  V30 4093 H 381.378 -2.34764 1.83548 0
M  V30 4094 H 378.915 -1.15157 0.915279 0
M  V30 4095 H 380.873 -4.16921 0.152534 0
M  V30 4096 H 379.503 -3.19712 -0.445428 0
M  V30 4097 H 378.555 -3.25178 1.97391 0
M  V30 4098 H 379.867 -4.37362 2.39824 0
M  V30 4099 H 379.021 -6.0244 0.717677 0
M  V30 4100 H 377.76 -4.87318 0.19293 0
M  V30 4101 H 376.765 -4.89793 2.49766 0
M  V30 4102 H 377.99 -6.08337 3.01832 0
M  V30 4103 H 375.936 -6.50917 0.815064 0
M  V30 4104 H 375.853 -7.16286 2.41805 0
M  V30 4105 H 377.121 -7.67788 1.34619 0
M  V30 4106 N 381.35 -0.985608 -1.22978 0
M  V30 4107 C 382.26 -0.538548 -2.28335 0
M  V30 4108 C 383.276 0.409163 -1.69121 0
M  V30 4109 O 384.452 0.277797 -1.99475 0
M  V30 4110 C 381.517 0.146867 -3.46389 0
M  V30 4111 C 380.578 -0.842896 -4.20944 0
M  V30 4112 C 379.811 -0.190095 -5.33361 0
M  V30 4113 O 380.034 1.01767 -5.61248 0
M  V30 4114 O 378.968 -0.891289 -5.95264 0
M  V30 4115 H 382.794 -1.41487 -2.68729 0
M  V30 4116 H 380.379 -0.753495 -1.29007 0
M  V30 4117 H 382.261 0.531125 -4.1804 0
M  V30 4118 H 380.936 0.997871 -3.07935 0
M  V30 4119 H 379.843 -1.27795 -3.51595 0
M  V30 4120 H 381.176 -1.66287 -4.6326 0
M  V30 4121 N 382.828 1.3818 -0.7579 0
M  V30 4122 C 384.074 2.00316 -0.316453 0
M  V30 4123 C 384.407 1.60026 1.10025 0
M  V30 4124 O 383.682 0.839835 1.75434 0
M  V30 4125 C 383.965 3.57349 -0.444245 0
M  V30 4126 C 383.818 4.07591 -1.90236 0
M  V30 4127 C 385.137 4.3981 0.1598 0
M  V30 4128 H 382.256 0.727741 -0.116459 0
M  V30 4129 H 384.898 1.6406 -0.958352 0
M  V30 4130 H 383.048 3.88365 0.102233 0
M  V30 4131 H 384.72 3.87199 -2.50748 0
M  V30 4132 H 382.963 3.60297 -2.41595 0
M  V30 4133 H 383.634 5.16677 -1.94291 0
M  V30 4134 H 386.11 4.14971 -0.306314 0
M  V30 4135 H 384.986 5.48885 0.0401675 0
M  V30 4136 H 385.247 4.24102 1.24859 0
M  V30 4137 N 384.306 0.507319 1.49211 0
M  V30 4138 C 385.534 -0.0315749 2.06876 0
M  V30 4139 C 385.949 -1.30241 1.36685 0
M  V30 4140 O 385.306 -1.76937 0.447152 0
M  V30 4141 C 385.357 -0.282627 3.60393 0
M  V30 4142 O 385.078 0.937835 4.27944 0
M  V30 4143 C 386.579 -0.864453 4.3479 0
M  V30 4144 H 383.799 0.0233048 0.670595 0
M  V30 4145 H 386.343 0.706484 1.91909 0
M  V30 4146 H 384.498 -0.97068 3.75042 0
M  V30 4147 H 384.912 0.704567 5.19746 0
M  V30 4148 H 386.386 -0.989664 5.43056 0
M  V30 4149 H 386.863 -1.86382 3.97692 0
M  V30 4150 H 387.469 -0.213672 4.24763 0
M  V30 4151 N 385.784 -1.5574 0.241426 0
M  V30 4152 C 386.747 -2.19877 -0.647063 0
M  V30 4153 C 387.747 -1.16642 -1.10686 0
M  V30 4154 O 388.937 -1.41757 -1.01245 0
M  V30 4155 C 386.069 -2.83797 -1.88871 0
M  V30 4156 H 387.262 -2.99772 -0.087574 0
M  V30 4157 H 384.815 -1.56298 -0.00813574 0
M  V30 4158 H 385.55 -2.07824 -2.48957 0
M  V30 4159 H 385.335 -3.59414 -1.56728 0
M  V30 4160 H 386.825 -3.32898 -2.52129 0
M  V30 4161 N 387.262 0.0317525 -1.57568 0
M  V30 4162 C 388.508 0.724175 -1.8943 0
M  V30 4163 C 388.841 1.75149 -0.838836 0
M  V30 4164 O 388.116 1.93948 0.146422 0
M  V30 4165 C 388.399 1.39615 -3.31933 0
M  V30 4166 C 388.252 0.382537 -4.4817 0
M  V30 4167 C 389.571 2.33084 -3.73309 0
M  V30 4168 H 386.69 0.261797 -0.688935 0
M  V30 4169 H 389.332 -0.013017 -1.89996 0
M  V30 4170 H 387.482 2.02451 -3.31581 0
M  V30 4171 H 389.154 -0.243689 -4.60656 0
M  V30 4172 H 387.397 -0.29844 -4.32772 0
M  V30 4173 H 388.068 0.891145 -5.44759 0
M  V30 4174 H 390.544 1.80295 -3.7501 0
M  V30 4175 H 389.42 2.77084 -4.73831 0
M  V30 4176 H 389.681 3.19643 -3.05419 0
M  V30 4177 N 388.74 1.54641 0.303973 0
M  V30 4178 C 389.968 1.77768 1.05858 0
M  V30 4179 C 390.383 0.535722 1.8104 0
M  V30 4180 O 389.74 -0.494337 1.75677 0
M  V30 4181 C 389.791 2.9834 2.04146 0
M  V30 4182 O 389.512 4.17736 1.32015 0
M  V30 4183 C 391.013 3.33832 2.91669 0
M  V30 4184 H 388.233 0.592961 0.314067 0
M  V30 4185 H 390.777 2.01583 0.344149 0
M  V30 4186 H 388.932 2.76742 2.71096 0
M  V30 4187 H 389.346 4.85693 1.97998 0
M  V30 4188 H 390.82 4.21448 3.56491 0
M  V30 4189 H 391.297 2.51857 3.59812 0
M  V30 4190 H 391.903 3.57579 2.30254 0
M  V30 4191 N 390.218 -0.567019 1.47046 0
M  V30 4192 C 391.128 -1.70247 1.6141 0
M  V30 4193 C 392.144 -1.66746 0.497157 0
M  V30 4194 O 393.32 -1.86371 0.763389 0
M  V30 4195 C 390.385 -3.06756 1.61561 0
M  V30 4196 C 389.446 -3.21399 2.84607 0
M  V30 4197 C 388.679 -4.51396 2.84741 0
M  V30 4198 O 388.902 -5.36255 1.94388 0
M  V30 4199 O 387.836 -4.69621 3.76483 0
M  V30 4200 H 391.662 -1.61073 2.57467 0
M  V30 4201 H 389.247 -0.735894 1.30019 0
M  V30 4202 H 391.129 -3.8801 1.64396 0
M  V30 4203 H 389.804 -3.16333 0.686684 0
M  V30 4204 H 388.711 -2.39579 2.8732 0
M  V30 4205 H 390.044 -3.16721 3.76761 0
M  V30 4206 N 391.696 -1.35014 -0.812953 0
M  V30 4207 C 392.606 -1.2951 -1.95613 0
M  V30 4208 C 393.622 -0.20107 -1.72834 0
M  V30 4209 O 394.798 -0.42932 -1.96771 0
M  V30 4210 C 391.863 -1.06033 -3.30088 0
M  V30 4211 C 390.924 -2.24688 -3.65805 0
M  V30 4212 C 390.157 -2.02322 -4.93864 0
M  V30 4213 O 390.38 -0.986464 -5.61805 0
M  V30 4214 O 389.314 -2.89525 -5.27692 0
M  V30 4215 H 393.14 -2.25705 -2.03202 0
M  V30 4216 H 390.725 -1.15321 -0.949811 0
M  V30 4217 H 392.607 -0.94763 -4.10607 0
M  V30 4218 H 391.282 -0.128852 -3.23443 0
M  V30 4219 H 390.189 -2.41521 -2.85689 0
M  V30 4220 H 391.522 -3.16261 -3.77147 0
M  V30 4221 N 393.175 1.03435 -1.18907 0
M  V30 4222 C 394.4 1.80919 -1.01406 0
M  V30 4223 C 394.825 1.83055 0.432721 0
M  V30 4224 O 394.183 1.25252 1.31079 0
M  V30 4225 C 394.231 3.24091 -1.58105 0
M  V30 4226 O 393.335 4.04434 -0.806669 0
M  V30 4227 H 392.676 0.558709 -0.358803 0
M  V30 4228 H 395.206 1.30223 -1.57807 0
M  V30 4229 H 395.216 3.74853 -1.61087 0
M  V30 4230 H 393.891 3.21851 -2.6341 0
M  V30 4231 H 392.468 3.63091 -0.849666 0
M  V30 4232 N 394.653 0.992116 1.22453 0
M  V30 4233 C 395.901 0.666215 1.90804 0
M  V30 4234 C 396.222 -0.804152 1.77647 0
M  V30 4235 O 395.492 -1.57629 1.16318 0
M  V30 4236 H 394.072 0.243423 0.706225 0
M  V30 4237 H 396.734 1.25845 1.48825 0
M  V30 4238 H 395.83 0.928069 2.97982 0
M  V30 4239 N 396.131 -1.37776 0.765217 0
M  V30 4240 C 397.094 -2.28686 0.153416 0
M  V30 4241 C 398.094 -1.47727 -0.635081 0
M  V30 4242 O 399.284 -1.68027 -0.459632 0
M  V30 4243 C 396.416 -3.31608 -0.790495 0
M  V30 4244 H 397.609 -2.84297 0.954723 0
M  V30 4245 H 395.162 -1.46932 0.53299 0
M  V30 4246 H 395.897 -2.81109 -1.61705 0
M  V30 4247 H 395.682 -3.9144 -0.227348 0
M  V30 4248 H 397.172 -3.99559 -1.21419 0
M  V30 4249 N 397.609 -0.515225 -1.4894 0
M  V30 4250 C 398.519 0.259774 -2.33157 0
M  V30 4251 C 399.535 0.953501 -1.45548 0
M  V30 4252 O 400.711 0.931735 -1.78552 0
M  V30 4253 C 397.776 1.30193 -3.21326 0
M  V30 4254 C 396.837 0.620129 -4.24797 0
M  V30 4255 C 396.07 1.61263 -5.08753 0
M  V30 4256 O 396.293 2.84389 -4.94448 0
M  V30 4257 O 395.227 1.16013 -5.90614 0
M  V30 4258 H 399.053 -0.429932 -3.00641 0
M  V30 4259 H 396.638 -0.276346 -1.46822 0
M  V30 4260 H 398.52 1.90455 -3.75905 0
M  V30 4261 H 397.195 1.97431 -2.56521 0
M  V30 4262 H 396.102 -0.0226019 -3.74093 0
M  V30 4263 H 397.435 -0.0100493 -4.92199 0
M  V30 4264 N 399.087 1.5561 -0.249682 0
M  V30 4265 C 400.034 2.21496 0.648694 0
M  V30 4266 C 401.004 1.17977 1.16921 0
M  V30 4267 O 402.189 1.46434 1.22318 0
M  V30 4268 C 399.329 2.92039 1.83868 0
M  V30 4269 C 398.442 4.10219 1.35442 0
M  V30 4270 C 397.577 4.6847 2.50419 0
M  V30 4271 C 396.616 5.78893 1.98869 0
M  V30 4272 N 395.753 6.31315 3.07223 0
M  V30 4273 H 400.593 2.97892 0.0801582 0
M  V30 4274 H 398.13 1.47074 0.0278031 0
M  V30 4275 H 400.088 3.31138 2.53778 0
M  V30 4276 H 398.718 2.18111 2.37965 0
M  V30 4277 H 397.77 3.76413 0.54928 0
M  V30 4278 H 399.082 4.89927 0.936649 0
M  V30 4279 H 398.236 5.10158 3.28366 0
M  V30 4280 H 396.975 3.87984 2.95499 0
M  V30 4281 H 395.98 5.3668 1.19393 0
M  V30 4282 H 397.205 6.61232 1.54755 0
M  V30 4283 H 395.151 5.53733 3.51732 0
M  V30 4284 H 395.068 7.06224 2.69784 0
M  V30 4285 H 396.336 6.77662 3.8522 0
M  V30 4286 N 400.565 -0.0233959 1.57583 0
M  V30 4287 C 401.981 -0.379134 1.55031 0
M  V30 4288 C 402.181 -1.76255 0.976548 0
M  V30 4289 O 401.237 -2.45266 0.600078 0
M  V30 4290 C 402.55 -0.275792 2.99433 0
M  V30 4291 C 404.098 -0.352458 3.11009 0
M  V30 4292 C 404.573 -0.278501 4.57152 0
M  V30 4293 N 406.064 -0.337123 4.61972 0
M  V30 4294 C 406.799 -0.302876 5.726 0
M  V30 4295 N 406.295 -0.220589 6.92449 0
M  V30 4296 N 408.088 -0.353023 5.6099 0
M  V30 4297 H 400.239 0.881869 1.93227 0
M  V30 4298 H 402.502 0.335867 0.886509 0
M  V30 4299 H 402.208 0.675108 3.4516 0
M  V30 4300 H 402.082 -1.06721 3.61788 0
M  V30 4301 H 404.469 -1.29379 2.65226 0
M  V30 4302 H 404.55 0.468409 2.51475 0
M  V30 4303 H 404.194 0.659189 5.03604 0
M  V30 4304 H 404.124 -1.11755 5.14605 0
M  V30 4305 H 406.615 -0.403002 3.75745 0
M  V30 4306 H 406.928 -0.199713 7.72542 0
M  V30 4307 H 405.273 -0.186555 6.9475 0
M  V30 4308 H 408.464 -0.415339 4.66254 0
M  V30 4309 H 408.637 -0.322866 6.47195 0
M  V30 4310 N 402.043 -1.548 -0.295768 0
M  V30 4311 C 403.271 -1.78327 -1.04914 0
M  V30 4312 C 403.686 -0.545316 -1.80753 0
M  V30 4313 O 403.043 0.485013 -1.75937 0
M  V30 4314 C 403.094 -2.99418 -2.02561 0
M  V30 4315 O 402.815 -4.18431 -1.29798 0
M  V30 4316 C 404.316 -3.35375 -2.89895 0
M  V30 4317 H 401.536 -0.594618 -0.310918 0
M  V30 4318 H 404.08 -2.01763 -0.333454 0
M  V30 4319 H 402.235 -2.78175 -2.69624 0
M  V30 4320 H 402.649 -4.86736 -1.95419 0
M  V30 4321 H 404.123 -4.23332 -3.54251 0
M  V30 4322 H 404.6 -2.53761 -3.58472 0
M  V30 4323 H 405.206 -3.58796 -2.28355 0
M  V30 4324 N 403.521 0.559213 -1.47345 0
M  V30 4325 C 404.431 1.69388 -1.62311 0
M  V30 4326 C 405.447 1.6648 -0.505993 0
M  V30 4327 O 406.623 1.85964 -0.773262 0
M  V30 4328 C 403.688 3.05894 -1.63185 0
M  V30 4329 C 402.749 3.19885 -2.86307 0
M  V30 4330 C 401.982 4.49879 -2.87131 0
M  V30 4331 O 402.205 5.35217 -1.97229 0
M  V30 4332 O 401.139 4.67618 -3.78968 0
M  V30 4333 H 404.965 1.59706 -2.58317 0
M  V30 4334 H 402.55 0.728989 -1.30407 0
M  V30 4335 H 404.432 3.87133 -1.66451 0
M  V30 4336 H 403.107 3.15964 -0.70345 0
M  V30 4337 H 402.014 2.38052 -2.88587 0
M  V30 4338 H 403.347 3.14718 -3.78435 0
M  V30 4339 N 404.999 1.35443 0.805782 0
M  V30 4340 C 405.946 1.28431 1.91766 0
M  V30 4341 C 406.916 0.156102 1.65365 0
M  V30 4342 O 408.101 0.339936 1.87747 0
M  V30 4343 C 405.241 1.06301 3.2832 0
M  V30 4344 C 404.354 2.2805 3.66902 0
M  V30 4345 C 403.489 1.99064 4.92491 0
M  V30 4346 C 402.528 3.16863 5.23703 0
M  V30 4347 N 401.665 2.87647 6.40471 0
M  V30 4348 H 406.505 2.23511 1.97096 0
M  V30 4349 H 404.042 1.11105 0.964054 0
M  V30 4350 H 406 0.915012 4.07042 0
M  V30 4351 H 404.63 0.148822 3.22457 0
M  V30 4352 H 403.682 2.53711 2.83434 0
M  V30 4353 H 404.994 3.1601 3.85927 0
M  V30 4354 H 404.148 1.81099 5.7904 0
M  V30 4355 H 402.887 1.0839 4.75503 0
M  V30 4356 H 401.892 3.35404 4.35642 0
M  V30 4357 H 403.117 4.08339 5.4262 0
M  V30 4358 H 401.063 1.99568 6.24907 0
M  V30 4359 H 400.98 3.69141 6.59751 0
M  V30 4360 H 402.248 2.73226 7.30047 0
M  V30 4361 N 406.477 -1.02803 1.19454 0
M  V30 4362 C 407.387 -2.14575 0.948408 0
M  V30 4363 C 408.403 -1.73757 -0.091871 0
M  V30 4364 O 409.579 -2.01185 0.0929654 0
M  V30 4365 C 406.644 -3.43202 0.491265 0
M  V30 4366 C 405.705 -3.98328 1.60103 0
M  V30 4367 C 404.938 -5.20816 1.16561 0
M  V30 4368 O 405.161 -5.70392 0.0295238 0
M  V30 4369 O 404.095 -5.68801 1.96849 0
M  V30 4370 H 407.921 -2.38202 1.88397 0
M  V30 4371 H 405.506 -1.12989 0.977433 0
M  V30 4372 H 407.388 -4.20687 0.245015 0
M  V30 4373 H 406.063 -3.21018 -0.415851 0
M  V30 4374 H 404.97 -3.22174 1.90144 0
M  V30 4375 H 406.303 -4.24879 2.48473 0
M  V30 4376 N 407.956 -0.998596 -1.21925 0
M  V30 4377 C 408.866 -0.562736 -2.27751 0
M  V30 4378 C 409.882 0.391203 -1.69545 0
M  V30 4379 O 411.058 0.256625 -1.99758 0
M  V30 4380 C 408.123 0.11012 -3.46525 0
M  V30 4381 C 407.184 -0.887495 -4.20026 0
M  V30 4382 C 406.417 -0.246654 -5.3313 0
M  V30 4383 O 406.64 0.958088 -5.62296 0
M  V30 4384 O 405.574 -0.954374 -5.94286 0
M  V30 4385 H 409.4 -1.44329 -2.67213 0
M  V30 4386 H 406.985 -0.767135 -1.28201 0
M  V30 4387 H 408.867 0.486756 -4.18579 0
M  V30 4388 H 407.542 0.965154 -3.08976 0
M  V30 4389 H 406.449 -1.31517 -3.5022 0
M  V30 4390 H 407.782 -1.71191 -4.6147 0
M  V30 4391 N 409.434 1.37368 -0.772513 0
M  V30 4392 C 410.381 2.30262 -0.157488 0
M  V30 4393 C 411.351 1.51137 0.688965 0
M  V30 4394 O 412.536 1.79704 0.641168 0
M  V30 4395 C 409.676 3.37611 0.715045 0
M  V30 4396 C 408.789 4.31746 -0.148098 0
M  V30 4397 C 407.924 5.26171 0.729213 0
M  V30 4398 C 406.963 6.11948 -0.136418 0
M  V30 4399 N 406.1 6.98613 0.698914 0
M  V30 4400 H 410.94 2.82277 -0.955179 0
M  V30 4401 H 408.477 1.38957 -0.482631 0
M  V30 4402 H 410.435 3.98479 1.23575 0
M  V30 4403 H 409.065 2.86959 1.47833 0
M  V30 4404 H 408.117 3.72178 -0.786613 0
M  V30 4405 H 409.429 4.92084 -0.81579 0
M  V30 4406 H 408.583 5.92247 1.31637 0
M  V30 4407 H 407.322 4.66246 1.43059 0
M  V30 4408 H 406.327 5.4485 -0.736102 0
M  V30 4409 H 407.552 6.73945 -0.835134 0
M  V30 4410 H 405.498 6.41215 1.38489 0
M  V30 4411 H 405.415 7.55948 0.0885358 0
M  V30 4412 H 406.683 7.69077 1.27044 0
M  V30 4413 N 410.912 0.523116 1.48665 0
M  V30 4414 C 412.14 -0.0096312 2.06898 0
M  V30 4415 C 412.555 -1.28784 1.38059 0
M  V30 4416 O 411.912 -1.76453 0.465893 0
M  V30 4417 C 411.963 -0.244386 3.60673 0
M  V30 4418 O 411.684 0.983172 4.26925 0
M  V30 4419 C 413.185 -0.818289 4.35682 0
M  V30 4420 H 410.405 0.0304161 0.67031 0
M  V30 4421 H 412.949 0.726799 1.91149 0
M  V30 4422 H 411.104 -0.930847 3.76051 0
M  V30 4423 H 411.518 0.759653 5.1897 0
M  V30 4424 H 412.992 -0.93201 5.44075 0
M  V30 4425 H 413.469 -1.82153 3.99646 0
M  V30 4426 H 414.075 -0.168609 4.24966 0
M  V30 4427 N 412.39 -1.55475 0.257931 0
M  V30 4428 C 413.3 -2.2549 -0.647425 0
M  V30 4429 C 414.316 -1.2748 -1.18427 0
M  V30 4430 O 415.492 -1.6038 -1.2182 0
M  V30 4431 C 412.557 -2.94916 -1.82278 0
M  V30 4432 C 411.618 -4.08363 -1.32432 0
M  V30 4433 C 410.851 -4.74469 -2.44366 0
M  V30 4434 O 411.074 -4.39701 -3.63344 0
M  V30 4435 O 410.008 -5.62763 -2.13497 0
M  V30 4436 H 413.834 -3.03593 -0.0807707 0
M  V30 4437 H 411.419 -1.49377 0.0259962 0
M  V30 4438 H 413.301 -3.38606 -2.50846 0
M  V30 4439 H 411.976 -2.19744 -2.37685 0
M  V30 4440 H 410.883 -3.69166 -0.605605 0
M  V30 4441 H 412.216 -4.85385 -0.816211 0
M  V30 4442 N 413.868 0.0150385 -1.57593 0
M  V30 4443 C 414.815 1.01126 -2.07466 0
M  V30 4444 C 415.785 1.35064 -0.966794 0
M  V30 4445 O 416.97 1.4516 -1.23827 0
M  V30 4446 C 414.11 2.30276 -2.57035 0
M  V30 4447 C 413.223 2.02373 -3.81666 0
M  V30 4448 C 412.358 3.25496 -4.19793 0
M  V30 4449 C 411.397 2.93211 -5.37303 0
M  V30 4450 N 410.534 4.08826 -5.70794 0
M  V30 4451 H 415.374 0.57901 -2.92321 0
M  V30 4452 H 412.911 0.27426 -1.44521 0
M  V30 4453 H 414.869 3.05757 -2.83846 0
M  V30 4454 H 413.499 2.71197 -1.75077 0
M  V30 4455 H 412.551 1.17327 -3.61854 0
M  V30 4456 H 413.863 1.74567 -4.67256 0
M  V30 4457 H 413.017 4.09333 -4.47807 0
M  V30 4458 H 411.756 3.56428 -3.32882 0
M  V30 4459 H 410.761 2.07777 -5.09027 0
M  V30 4460 H 411.986 2.63542 -6.25877 0
M  V30 4461 H 409.932 4.39682 -4.86842 0
M  V30 4462 H 409.849 3.84491 -6.50924 0
M  V30 4463 H 411.117 4.93496 -6.03392 0
M  V30 4464 N 415.346 1.54954 0.287554 0
M  V30 4465 C 416.574 1.78881 1.03967 0
M  V30 4466 C 416.989 0.554894 1.80462 0
M  V30 4467 O 416.346 -0.475676 1.76192 0
M  V30 4468 C 416.397 3.00488 2.0097 0
M  V30 4469 O 416.118 4.19113 1.27577 0
M  V30 4470 C 417.619 3.36907 2.88112 0
M  V30 4471 H 414.839 0.596259 0.307761 0
M  V30 4472 H 417.383 2.01937 0.322749 0
M  V30 4473 H 415.538 2.79601 2.68145 0
M  V30 4474 H 415.952 4.87765 1.92835 0
M  V30 4475 H 417.426 4.25205 3.52001 0
M  V30 4476 H 417.903 2.55659 3.57121 0
M  V30 4477 H 418.509 3.60001 2.26449 0
M  V30 4478 N 416.824 -0.551391 1.4764 0
M  V30 4479 C 417.734 -1.68525 1.63207 0
M  V30 4480 C 418.75 -1.6621 0.514815 0
M  V30 4481 O 419.926 -1.85551 0.783113 0
M  V30 4482 C 416.991 -3.05025 1.64805 0
M  V30 4483 C 416.052 -3.18362 2.88 0
M  V30 4484 C 415.285 -4.4835 2.89513 0
M  V30 4485 O 415.508 -5.34163 2.00065 0
M  V30 4486 O 414.442 -4.65602 3.81443 0
M  V30 4487 H 418.268 -1.58333 2.59161 0
M  V30 4488 H 415.853 -0.722063 1.30792 0
M  V30 4489 H 417.735 -3.86245 1.68502 0
M  V30 4490 H 416.41 -3.15587 0.720197 0
M  V30 4491 H 415.317 -2.36518 2.89845 0
M  V30 4492 H 416.65 -3.12707 3.80099 0
M  V30 4493 N 418.302 -1.35869 -0.798587 0
M  V30 4494 C 419.212 -1.31578 -1.94228 0
M  V30 4495 C 420.228 -0.21939 -1.72611 0
M  V30 4496 O 421.404 -0.450167 -1.96305 0
M  V30 4497 C 418.469 -1.09528 -3.28944 0
M  V30 4498 C 417.53 -2.28556 -3.63402 0
M  V30 4499 C 416.763 -2.07549 -4.9169 0
M  V30 4500 O 416.986 -1.046 -5.60727 0
M  V30 4501 O 415.92 -2.95106 -5.24591 0
M  V30 4502 H 419.746 -2.27847 -2.00796 0
M  V30 4503 H 417.331 -1.16322 -0.937526 0
M  V30 4504 H 419.213 -0.991127 -4.09579 0
M  V30 4505 H 417.888 -0.16315 -3.23289 0
M  V30 4506 H 416.795 -2.44538 -2.83112 0
M  V30 4507 H 418.128 -3.20244 -3.73771 0
M  V30 4508 N 419.78 1.02168 -1.19998 0
M  V30 4509 C 420.727 2.10601 -0.944228 0
M  V30 4510 C 421.697 1.65639 0.123664 0
M  V30 4511 O 422.882 1.9079 -0.0199941 0
M  V30 4512 C 420.022 3.41504 -0.496865 0
M  V30 4513 C 419.135 3.99973 -1.63234 0
M  V30 4514 C 418.27 5.18915 -1.13579 0
M  V30 4515 C 417.309 5.69456 -2.24468 0
M  V30 4516 N 416.446 6.79665 -1.76068 0
M  V30 4517 H 421.286 2.31814 -1.8726 0
M  V30 4518 H 418.823 1.13686 -0.933483 0
M  V30 4519 H 420.781 4.16626 -0.218843 0
M  V30 4520 H 419.411 3.2038 0.394508 0
M  V30 4521 H 418.463 3.21997 -2.0254 0
M  V30 4522 H 419.775 4.33492 -2.46752 0
M  V30 4523 H 418.929 6.01222 -0.813429 0
M  V30 4524 H 417.668 4.8695 -0.270434 0
M  V30 4525 H 416.673 4.85757 -2.57526 0
M  V30 4526 H 417.898 6.03459 -3.11472 0
M  V30 4527 H 415.844 6.49538 -0.918516 0
M  V30 4528 H 415.761 7.12349 -2.5317 0
M  V30 4529 H 417.029 7.65549 -1.46817 0
M  V30 4530 N 421.258 1.00505 1.21394 0
M  V30 4531 C 422.221 0.570459 2.21987 0
M  V30 4532 C 423.221 -0.353211 1.56873 0
M  V30 4533 O 424.411 -0.14349 1.73608 0
M  V30 4534 C 421.543 -0.168555 3.40483 0
M  V30 4535 H 422.736 1.46021 2.6195 0
M  V30 4536 H 420.289 0.793565 1.34656 0
M  V30 4537 H 421.024 -1.07374 3.06009 0
M  V30 4538 H 420.809 0.494823 3.88965 0
M  V30 4539 H 422.299 -0.460362 4.15055 0
M  V30 4540 N 422.737 -1.36956 0.779787 0
M  V30 4541 C 423.647 -2.33965 0.172491 0
M  V30 4542 C 424.663 -1.60574 -0.670222 0
M  V30 4543 O 425.839 -1.92617 -0.588263 0
M  V30 4544 C 422.904 -3.39761 -0.690173 0
M  V30 4545 C 421.965 -4.28964 0.169924 0
M  V30 4546 C 421.198 -5.29707 -0.651662 0
M  V30 4547 O 421.421 -5.38238 -1.88827 0
M  V30 4548 O 420.355 -6.01873 -0.0566264 0
M  V30 4549 H 424.181 -2.87647 0.974321 0
M  V30 4550 H 421.766 -1.39258 0.541078 0
M  V30 4551 H 423.648 -4.04471 -1.1824 0
M  V30 4552 H 422.323 -2.88394 -1.47006 0
M  V30 4553 H 421.23 -3.67326 0.708696 0
M  V30 4554 H 422.563 -4.83656 0.913085 0
M  V30 4555 N 424.215 -0.530993 -1.48385 0
M  V30 4556 C 425.631 -0.188919 -1.58478 0
M  V30 4557 C 425.831 1.30786 -1.53288 0
M  V30 4558 O 424.887 2.08619 -1.42248 0
M  V30 4559 C 426.2 -0.792343 -2.90073 0
M  V30 4560 C 427.748 -0.76117 -3.03604 0
M  V30 4561 C 428.223 -1.34319 -4.37861 0
M  V30 4562 N 429.714 -1.3052 -4.44431 0
M  V30 4563 C 430.449 -1.72543 -5.46824 0
M  V30 4564 N 429.945 -2.22299 -6.56167 0
M  V30 4565 N 431.738 -1.63773 -5.37712 0
M  V30 4566 H 423.889 -1.50377 -1.50002 0
M  V30 4567 H 426.152 -0.625559 -0.712306 0
M  V30 4568 H 425.858 -1.84323 -2.99529 0
M  V30 4569 H 425.732 -0.270026 -3.76232 0
M  V30 4570 H 428.119 0.280957 -2.93759 0
M  V30 4571 H 428.2 -1.32097 -2.19053 0
M  V30 4572 H 427.844 -2.38425 -4.4846 0
M  V30 4573 H 427.774 -0.759064 -5.21101 0
M  V30 4574 H 430.265 -0.940973 -3.65997 0
M  V30 4575 H 430.578 -2.52356 -7.30436 0
M  V30 4576 H 428.923 -2.26293 -6.57127 0
M  V30 4577 H 432.114 -1.24698 -4.51185 0
M  V30 4578 H 432.287 -1.96844 -6.17379 0
M  V30 4579 N 425.693 1.55336 -0.266172 0
M  V30 4580 C 426.64 2.22172 0.625165 0
M  V30 4581 C 427.61 1.19211 1.15663 0
M  V30 4582 O 428.795 1.47723 1.20758 0
M  V30 4583 C 425.935 2.93972 1.8076 0
M  V30 4584 C 425.048 4.11632 1.31084 0
M  V30 4585 C 424.183 4.71099 2.45436 0
M  V30 4586 C 423.222 5.8097 1.92718 0
M  V30 4587 N 422.359 6.34538 3.00509 0
M  V30 4588 H 427.199 2.9796 0.0485582 0
M  V30 4589 H 424.736 1.47095 0.0122024 0
M  V30 4590 H 426.694 3.33811 2.50251 0
M  V30 4591 H 425.324 2.20623 2.35638 0
M  V30 4592 H 424.376 3.76975 0.509326 0
M  V30 4593 H 425.688 4.90893 0.884633 0
M  V30 4594 H 424.842 5.13612 3.22936 0
M  V30 4595 H 423.581 3.91096 2.91368 0
M  V30 4596 H 422.586 5.37916 1.13695 0
M  V30 4597 H 423.811 6.62836 1.47733 0
M  V30 4598 H 421.757 5.57433 3.45839 0
M  V30 4599 H 421.674 7.09046 2.62279 0
M  V30 4600 H 422.942 6.81709 3.78011 0
M  V30 4601 N 427.171 -0.0066808 1.57599 0
M  V30 4602 C 428.118 -1.00024 2.08 0
M  V30 4603 C 429.088 -1.34549 0.973943 0
M  V30 4604 O 430.273 -1.44502 1.24595 0
M  V30 4605 C 427.413 -2.2891 2.58252 0
M  V30 4606 C 426.526 -2.00346 3.82734 0
M  V30 4607 C 425.661 -3.23265 4.21513 0
M  V30 4608 C 424.7 -2.90357 5.3885 0
M  V30 4609 N 423.837 -4.05793 5.72954 0
M  V30 4610 H 428.677 -0.563499 2.92624 0
M  V30 4611 H 426.214 -0.266592 1.44664 0
M  V30 4612 H 428.172 -3.04247 2.85464 0
M  V30 4613 H 426.802 -2.70265 1.76512 0
M  V30 4614 H 425.854 -1.15406 3.62471 0
M  V30 4615 H 427.166 -1.72086 4.68175 0
M  V30 4616 H 426.32 -4.06953 4.49971 0
M  V30 4617 H 425.059 -3.54657 3.34768 0
M  V30 4618 H 424.064 -2.05075 5.10122 0
M  V30 4619 H 425.289 -2.60219 6.27266 0
M  V30 4620 H 423.235 -4.37094 4.89167 0
M  V30 4621 H 423.152 -3.81034 6.52954 0
M  V30 4622 H 424.42 -4.90289 6.06001 0
M  V30 4623 N 428.649 -1.55105 -0.279332 0
M  V30 4624 C 429.895 -1.75672 -1.01327 0
M  V30 4625 C 430.228 -0.552739 -1.86168 0
M  V30 4626 O 429.503 0.449827 -1.89227 0
M  V30 4627 C 429.786 -3.05825 -1.90114 0
M  V30 4628 C 429.639 -4.36565 -1.08309 0
M  V30 4629 C 430.958 -3.31975 -2.8893 0
M  V30 4630 H 428.077 -0.639149 -0.366957 0
M  V30 4631 H 430.719 -1.87833 -0.286154 0
M  V30 4632 H 428.869 -2.95588 -2.52111 0
M  V30 4633 H 430.541 -4.58751 -0.484314 0
M  V30 4634 H 428.784 -4.32076 -0.386362 0
M  V30 4635 H 429.455 -5.23946 -1.73737 0
M  V30 4636 H 431.931 -3.41963 -2.37067 0
M  V30 4637 H 430.807 -4.2432 -3.48201 0
M  V30 4638 H 431.068 -2.51309 -3.63725 0
M  V30 4639 N 430.127 0.543554 -1.4793 0
M  V30 4640 C 431.376 1.29649 -1.54512 0
M  V30 4641 C 431.689 1.94382 -0.217973 0
M  V30 4642 O 432.895 2.71017 -0.161908 0
M  V30 4643 C 431.351 2.35175 -2.72435 0
M  V30 4644 C 430.959 1.76572 -4.11736 0
M  V30 4645 C 432.703 3.11564 -2.8832 0
M  V30 4646 C 430.61 2.79958 -5.20939 0
M  V30 4647 H 429.54 0.487541 -0.57517 0
M  V30 4648 H 432.191 0.575708 -1.74235 0
M  V30 4649 H 430.573 3.10229 -2.46118 0
M  V30 4650 H 431.747 1.07799 -4.48013 0
M  V30 4651 H 430.062 1.12722 -4.00852 0
M  V30 4652 H 432.659 3.88794 -3.67074 0
M  V30 4653 H 433.002 3.66594 -1.97268 0
M  V30 4654 H 433.535 2.43623 -3.14472 0
M  V30 4655 H 430.274 2.29766 -6.13912 0
M  V30 4656 H 429.794 3.47101 -4.89164 0
M  V30 4657 H 431.473 3.43198 -5.48474 0
M  V30 4658 N 431.605 1.3629 0.791371 0
M  V30 4659 C 432.83 1.33726 1.58531 0
M  V30 4660 C 433.255 -0.0794933 1.87932 0
M  V30 4661 O 432.613 -1.05087 1.47738 0
M  V30 4662 C 432.661 2.16425 2.88431 0
M  V30 4663 O 431.765 1.5554 3.81944 0
M  V30 4664 H 431.106 0.457793 0.480959 0
M  V30 4665 H 433.636 1.79547 0.981031 0
M  V30 4666 H 433.646 2.28933 3.37718 0
M  V30 4667 H 432.321 3.19415 2.66359 0
M  V30 4668 H 430.898 1.51961 3.40532 0
M  V30 4669 N 433.083 -1.0153 1.20538 0
M  V30 4670 C 434.015 -2.10224 0.913155 0
M  V30 4671 C 435.028 -1.62495 -0.0995998 0
M  V30 4672 O 436.217 -1.78014 0.131582 0
M  V30 4673 C 433.317 -3.37111 0.347717 0
M  V30 4674 C 432.49 -4.13971 1.41233 0
M  V30 4675 C 431.549 -5.19158 0.857976 0
M  V30 4676 O 430.575 -5.48 1.53897 0
M  V30 4677 N 431.777 -5.7955 -0.331966 0
M  V30 4678 H 434.542 -2.35879 1.84881 0
M  V30 4679 H 432.103 -1.17931 1.10923 0
M  V30 4680 H 434.095 -4.04683 -0.0373026 0
M  V30 4681 H 432.665 -3.08696 -0.492527 0
M  V30 4682 H 431.885 -3.41351 1.97163 0
M  V30 4683 H 433.173 -4.62103 2.12928 0
M  V30 4684 H 432.571 -5.58455 -0.902478 0
M  V30 4685 H 431.128 -6.48464 -0.65861 0
M  V30 4686 N 434.561 -1.01147 -1.20859 0
M  V30 4687 C 435.789 -0.716911 -1.94082 0
M  V30 4688 C 436.204 0.721568 -1.74467 0
M  V30 4689 O 435.561 1.48889 -1.05539 0
M  V30 4690 C 435.612 -1.03662 -3.46318 0
M  V30 4691 O 435.333 -2.4186 -3.65288 0
M  V30 4692 C 436.834 -0.762386 -4.36695 0
M  V30 4693 H 434.054 -0.26367 -0.617024 0
M  V30 4694 H 436.598 -1.35127 -1.53496 0
M  V30 4695 H 434.753 -0.447757 -3.84804 0
M  V30 4696 H 435.167 -2.53224 -4.59323 0
M  V30 4697 H 436.641 -1.03621 -5.42187 0
M  V30 4698 H 437.118 0.303514 -4.3815 0
M  V30 4699 H 437.724 -1.33316 -4.03865 0
M  V30 4700 N 436.039 1.36541 -0.78704 0
M  V30 4701 C 437.285 1.99599 -0.358872 0
M  V30 4702 C 437.618 1.62323 1.06606 0
M  V30 4703 O 436.893 0.876858 1.73613 0
M  V30 4704 C 437.176 3.56327 -0.519944 0
M  V30 4705 C 437.029 4.03464 -1.98839 0
M  V30 4706 C 438.348 4.4005 0.0664737 0
M  V30 4707 H 435.467 0.725107 -0.131869 0
M  V30 4708 H 438.109 1.6199 -0.992936 0
M  V30 4709 H 436.259 3.88495 0.0198321 0
M  V30 4710 H 437.931 3.81793 -2.58905 0
M  V30 4711 H 436.174 3.55092 -2.49183 0
M  V30 4712 H 436.845 5.12439 -2.05207 0
M  V30 4713 H 439.321 4.14228 -0.394267 0
M  V30 4714 H 438.197 5.48847 -0.0762682 0
M  V30 4715 H 438.458 4.26655 1.15835 0
M  V30 4716 N 437.518 0.538854 1.48102 0
M  V30 4717 C 438.934 0.19732 1.58376 0
M  V30 4718 C 439.134 -1.29971 1.5398 0
M  V30 4719 O 438.19 -2.07861 1.43352 0
M  V30 4720 C 439.503 0.807716 2.89649 0
M  V30 4721 C 441.051 0.77726 3.03196 0
M  V30 4722 C 441.526 1.36639 4.37143 0
M  V30 4723 N 443.017 1.32875 4.43732 0
M  V30 4724 C 443.752 1.7544 5.45901 0
M  V30 4725 N 443.248 2.25776 6.54979 0
M  V30 4726 N 445.041 1.66623 5.36836 0
M  V30 4727 H 437.192 1.5117 1.49202 0
M  V30 4728 H 439.455 0.629327 0.708979 0
M  V30 4729 H 439.161 1.85909 2.98548 0
M  V30 4730 H 439.035 0.289975 3.76084 0
M  V30 4731 H 441.422 -0.265374 2.93904 0
M  V30 4732 H 441.503 1.33256 2.18349 0
M  V30 4733 H 441.147 2.408 4.47189 0
M  V30 4734 H 441.077 0.786689 5.20691 0
M  V30 4735 H 443.568 0.96037 3.65493 0
M  V30 4736 H 443.881 2.56226 7.29087 0
M  V30 4737 H 442.226 2.29775 6.55918 0
M  V30 4738 H 445.417 1.27089 4.50517 0
M  V30 4739 H 445.59 2.00115 6.16326 0
M  V30 4740 N 438.996 -1.55193 0.274407 0
M  V30 4741 C 440.242 -1.99877 -0.343086 0
M  V30 4742 C 440.575 -1.16256 -1.55558 0
M  V30 4743 O 439.85 -0.232462 -1.93106 0
M  V30 4744 C 440.133 -3.52706 -0.725965 0
M  V30 4745 C 439.986 -4.47081 0.493818 0
M  V30 4746 C 441.305 -4.11422 -1.56268 0
M  V30 4747 H 438.424 -0.726625 -0.123229 0
M  V30 4748 H 441.066 -1.86136 0.38121 0
M  V30 4749 H 439.216 -3.64546 -1.34307 0
M  V30 4750 H 440.888 -4.47186 1.13237 0
M  V30 4751 H 439.131 -4.1877 1.13201 0
M  V30 4752 H 439.802 -5.51699 0.18217 0
M  V30 4753 H 442.278 -4.02855 -1.04151 0
M  V30 4754 H 441.154 -5.18568 -1.79939 0
M  V30 4755 H 441.415 -3.61607 -2.54348 0
M  V30 4756 N 440.474 -0.00167713 -1.576 0
M  V30 4757 C 441.751 0.719951 -1.81868 0
M  V30 4758 C 442.131 1.91895 -0.879747 0
M  V30 4759 O 441.479 2.28389 0.0711423 0
M  V30 4760 C 441.689 1.12409 -3.30402 0
M  V30 4761 C 443.037 1.52724 -3.96182 0
M  V30 4762 O 444.061 1.21784 -3.34734 0
M  V30 4763 O 442.92 2.10265 -5.04431 0
M  V30 4764 H 440.014 0.350707 -0.748955 0
M  V30 4765 H 442.56 -0.0272597 -1.69678 0
M  V30 4766 H 441.332 0.269532 -3.90371 0
M  V30 4767 H 440.955 1.93035 -3.47596 0
M  V30 4768 N 441.952 1.55251 0.271103 0
M  V30 4769 C 443.201 1.75151 1.00025 0
M  V30 4770 C 443.514 0.561041 1.87381 0
M  V30 4771 O 444.72 0.642506 2.63788 0
M  V30 4772 C 443.176 3.09999 1.82835 0
M  V30 4773 C 442.784 4.3662 1.00336 0
M  V30 4774 C 444.528 3.39249 2.55168 0
M  V30 4775 C 442.435 5.62506 1.82595 0
M  V30 4776 H 441.365 0.652877 0.377183 0
M  V30 4777 H 444.016 1.81708 0.255843 0
M  V30 4778 H 442.398 2.97485 2.61378 0
M  V30 4779 H 443.572 4.60055 0.261959 0
M  V30 4780 H 441.887 4.14527 0.394486 0
M  V30 4781 H 444.484 4.3051 3.1712 0
M  V30 4782 H 444.827 2.59467 3.2555 0
M  V30 4783 H 445.36 3.52869 1.83653 0
M  V30 4784 H 442.099 6.45041 1.16631 0
M  V30 4785 H 441.619 5.43211 2.54327 0
M  V30 4786 H 443.298 6.00875 2.39913 0
M  V30 4787 N 443.43 -0.535701 1.48216 0
M  V30 4788 C 444.34 -1.66785 1.64985 0
M  V30 4789 C 445.356 -1.65654 0.532414 0
M  V30 4790 O 446.532 -1.8471 0.80275 0
M  V30 4791 C 443.597 -3.0326 1.68031 0
M  V30 4792 C 442.658 -3.1529 2.9136 0
M  V30 4793 C 441.891 -4.45255 2.94252 0
M  V30 4794 O 442.114 -5.32011 2.05719 0
M  V30 4795 O 441.048 -4.6153 3.86359 0
M  V30 4796 H 444.874 -1.55576 2.60825 0
M  V30 4797 H 442.459 -0.70815 1.31551 0
M  V30 4798 H 444.341 -3.84436 1.72589 0
M  V30 4799 H 443.016 -3.14805 0.753628 0
M  V30 4800 H 441.923 -2.3343 2.92337 0
M  V30 4801 H 443.256 -3.08658 3.83394 0
M  V30 4802 N 444.908 -1.36708 -0.784132 0
M  V30 4803 C 445.855 -1.31466 -1.89698 0
M  V30 4804 C 446.825 -0.18239 -1.65096 0
M  V30 4805 O 448.01 -0.369762 -1.87183 0
M  V30 4806 C 445.15 -1.1151 -3.26588 0
M  V30 4807 C 444.263 -2.33859 -3.63227 0
M  V30 4808 C 443.398 -2.06873 -4.89262 0
M  V30 4809 C 442.437 -3.25154 -5.18595 0
M  V30 4810 N 441.574 -2.978 -6.35814 0
M  V30 4811 H 446.414 -2.26619 -1.93515 0
M  V30 4812 H 443.951 -1.12625 -0.946256 0
M  V30 4813 H 445.909 -0.979653 -4.05535 0
M  V30 4814 H 444.539 -0.200103 -3.22179 0
M  V30 4815 H 443.591 -2.58188 -2.79362 0
M  V30 4816 H 444.903 -3.22109 -3.8085 0
M  V30 4817 H 444.057 -1.90289 -5.76086 0
M  V30 4818 H 442.796 -1.15942 -4.73718 0
M  V30 4819 H 441.801 -3.42292 -4.30251 0
M  V30 4820 H 443.026 -4.1692 -5.36055 0
M  V30 4821 H 440.972 -2.09485 -6.21653 0
M  V30 4822 H 440.889 -3.7959 -6.53794 0
M  V30 4823 H 442.157 -2.84805 -7.25607 0
M  V30 4824 N 446.386 1.0089 -1.21074 0
M  V30 4825 C 447.316 2.1145 -0.990523 0
M  V30 4826 C 448.297 1.69897 0.0831699 0
M  V30 4827 O 449.482 1.94052 -0.0758853 0
M  V30 4828 C 446.612 3.42914 -0.550177 0
M  V30 4829 C 445.566 3.98244 -1.56799 0
M  V30 4830 C 444.892 5.25568 -0.984013 0
M  V30 4831 C 446.192 4.30752 -2.95381 0
M  V30 4832 H 447.886 2.3013 -1.91521 0
M  V30 4833 H 445.432 1.10592 -0.92225 0
M  V30 4834 H 447.385 4.19653 -0.383305 0
M  V30 4835 H 446.109 3.24014 0.41015 0
M  V30 4836 H 444.768 3.23621 -1.72236 0
M  V30 4837 H 444.416 5.02998 -0.0155216 0
M  V30 4838 H 444.116 5.63551 -1.66384 0
M  V30 4839 H 445.64 6.04955 -0.828378 0
M  V30 4840 H 447.054 4.98349 -2.8341 0
M  V30 4841 H 445.451 4.79869 -3.60341 0
M  V30 4842 H 446.521 3.39192 -3.46521 0
M  V30 4843 N 447.864 1.01787 1.20321 0
M  V30 4844 C 449.141 0.622978 1.85414 0
M  V30 4845 C 449.521 -0.898887 1.91006 0
M  V30 4846 O 448.869 -1.79112 1.41884 0
M  V30 4847 C 449.079 1.27226 3.24984 0
M  V30 4848 C 450.427 1.3885 4.01255 0
M  V30 4849 O 451.451 1.22857 3.34342 0
M  V30 4850 O 450.31 1.64705 5.2109 0
M  V30 4851 H 447.404 0.215116 0.798533 0
M  V30 4852 H 449.95 1.11533 1.27901 0
M  V30 4853 H 448.722 2.31209 3.15687 0
M  V30 4854 H 448.345 0.767069 3.90131 0
M  V30 4855 N 449.342 -1.36122 0.79427 0
M  V30 4856 C 450.29 -2.31871 0.184023 0
M  V30 4857 C 451.284 -1.56041 -0.659365 0
M  V30 4858 O 452.49 -1.71266 -0.553906 0
M  V30 4859 H 448.865 -0.750896 0.0407373 0
M  V30 4860 H 450.836 -2.80898 1.00693 0
M  V30 4861 C 449.585 -3.41324 -0.662813 0
M  V30 4862 H 448.908 -3.99793 -0.0231944 0
M  V30 4863 H 450.348 -4.10629 -1.05639 0
M  V30 4864 C 448.807 -2.83308 -1.82313 0
M  V30 4865 O 449.337 -2.75863 -2.91997 0
M  V30 4866 N 447.543 -2.40529 -1.63077 0
M  V30 4867 H 447.09 -2.46785 -0.738591 0
M  V30 4868 H 447.048 -2.02059 -2.40872 0
M  V30 4869 N 450.82 -0.546701 -1.47814 0
M  V30 4870 C 451.75 0.195317 -2.32682 0
M  V30 4871 C 452.731 0.918981 -1.43139 0
M  V30 4872 O 453.916 0.901501 -1.72008 0
M  V30 4873 C 451.046 1.23237 -3.247 0
M  V30 4874 C 450 0.625818 -4.234 0
M  V30 4875 C 449.326 1.76674 -5.04669 0
M  V30 4876 C 450.626 -0.413515 -5.2066 0
M  V30 4877 H 452.32 -0.513184 -2.94969 0
M  V30 4878 H 449.866 -0.248241 -1.41844 0
M  V30 4879 H 451.819 1.75955 -3.82907 0
M  V30 4880 H 450.543 1.97067 -2.60446 0
M  V30 4881 H 449.202 0.120023 -3.66403 0
M  V30 4882 H 448.85 2.49383 -4.36826 0
M  V30 4883 H 448.55 1.36673 -5.71484 0
M  V30 4884 H 450.074 2.29738 -5.65732 0
M  V30 4885 H 451.488 0.0272042 -5.73294 0
M  V30 4886 H 449.885 -0.731825 -5.95621 0
M  V30 4887 H 450.955 -1.31325 -4.66778 0
M  V30 4888 N 452.299 1.55045 -0.282633 0
M  V30 4889 C 453.232 2.18951 0.64311 0
M  V30 4890 C 454.21 1.15287 1.14664 0
M  V30 4891 O 455.394 1.43846 1.21822 0
M  V30 4892 C 452.521 2.81874 1.87789 0
M  V30 4893 C 451.567 3.98906 1.50919 0
M  V30 4894 S 452.4 5.3234 0.580884 0
M  V30 4895 C 453.556 5.98737 1.82387 0
M  V30 4896 H 453.789 2.97131 0.100138 0
M  V30 4897 H 451.322 1.54255 -0.0668514 0
M  V30 4898 H 453.28 3.18757 2.58658 0
M  V30 4899 H 451.941 2.03573 2.392 0
M  V30 4900 H 451.134 4.4165 2.42819 0
M  V30 4901 H 450.736 3.63485 0.88061 0
M  V30 4902 H 453.028 6.18427 2.76684 0
M  V30 4903 H 453.971 6.93318 1.4393 0
M  V30 4904 H 454.379 5.28177 1.99223 0
M  V30 4905 N 453.777 0.010035 1.57597 0
M  V30 4906 C 455.054 -0.710296 1.82248 0
M  V30 4907 C 455.434 -1.91426 0.889911 0
M  V30 4908 O 454.782 -2.28424 -0.0590292 0
M  V30 4909 C 454.992 -1.10655 3.30993 0
M  V30 4910 C 456.34 -1.50621 3.96987 0
M  V30 4911 O 457.364 -1.20007 3.35375 0
M  V30 4912 O 456.223 -2.07587 5.05539 0
M  V30 4913 H 453.317 -0.34673 0.750804 0
M  V30 4914 H 455.863 0.0362578 1.69661 0
M  V30 4915 H 454.635 -0.248826 3.90508 0
M  V30 4916 H 454.258 -1.91189 3.48615 0
M  V30 4917 N 455.255 -1.55392 -0.262866 0
M  V30 4918 C 456.185 -1.91978 -1.32917 0
M  V30 4919 C 457.166 -0.7828 -1.51017 0
M  V30 4920 O 458.351 -1.04178 -1.63892 0
M  V30 4921 C 455.481 -2.20055 -2.68687 0
M  V30 4922 C 454.435 -3.35854 -2.65304 0
M  V30 4923 C 453.761 -3.49435 -4.04721 0
M  V30 4924 C 455.061 -4.71977 -2.23685 0
M  V30 4925 H 456.755 -2.81292 -1.02544 0
M  V30 4926 H 454.301 -1.3534 -0.491846 0
M  V30 4927 H 456.254 -2.44237 -3.43404 0
M  V30 4928 H 454.978 -1.27551 -3.00663 0
M  V30 4929 H 453.637 -3.11655 -1.93045 0
M  V30 4930 H 453.285 -2.54379 -4.33936 0
M  V30 4931 H 452.985 -4.27297 -4.0335 0
M  V30 4932 H 454.509 -3.7592 -4.81161 0
M  V30 4933 H 455.923 -4.95637 -2.88127 0
M  V30 4934 H 454.32 -5.52828 -2.33456 0
M  V30 4935 H 455.39 -4.70115 -1.18827 0
M  V30 4936 N 456.733 0.527833 -1.48498 0
M  V30 4937 C 457.666 1.64892 -1.57753 0
M  V30 4938 C 458.644 1.5687 -0.427867 0
M  V30 4939 O 459.828 1.77311 -0.639764 0
M  V30 4940 C 456.955 3.03301 -1.50752 0
M  V30 4941 C 456.001 3.29675 -2.70586 0
M  V30 4942 S 456.834 3.15712 -4.32535 0
M  V30 4943 C 457.99 4.56564 -4.28136 0
M  V30 4944 H 458.223 1.56792 -2.52594 0
M  V30 4945 H 455.756 0.710959 -1.37057 0
M  V30 4946 H 457.714 3.83123 -1.474 0
M  V30 4947 H 456.375 3.08839 -0.572454 0
M  V30 4948 H 455.568 4.3065 -2.61833 0
M  V30 4949 H 455.17 2.57526 -2.71212 0
M  V30 4950 H 457.462 5.48126 -3.98201 0
M  V30 4951 H 458.405 4.70371 -5.29298 0
M  V30 4952 H 458.813 4.35987 -3.58574 0
M  V30 4953 N 458.211 1.37122 0.776871 0
M  V30 4954 C 459.459 1.31787 1.53221 0
M  V30 4955 C 459.78 -0.0987589 1.9475 0
M  V30 4956 O 459.05 -1.0417 1.65908 0
M  V30 4957 H 457.63 0.484839 0.568278 0
M  V30 4958 H 460.292 1.71556 0.924917 0
M  V30 4959 H 459.388 1.95355 2.43398 0
M  V30 4960 N 459.689 -1.00246 1.21608 0
M  V30 4961 C 460.599 -2.12515 0.993709 0
M  V30 4962 C 461.615 -1.73913 -0.0549939 0
M  V30 4963 O 462.791 -2.00943 0.135619 0
M  V30 4964 C 459.856 -3.42083 0.563953 0
M  V30 4965 C 458.917 -3.94843 1.68516 0
M  V30 4966 C 458.15 -5.18226 1.27582 0
M  V30 4967 O 458.373 -5.70201 0.150506 0
M  V30 4968 O 457.307 -5.64497 2.0887 0
M  V30 4969 H 461.133 -2.34152 1.93407 0
M  V30 4970 H 458.718 -1.10891 1.00118 0
M  V30 4971 H 460.6 -4.20073 0.334194 0
M  V30 4972 H 459.275 -3.21828 -0.347665 0
M  V30 4973 H 458.182 -3.18068 1.96935 0
M  V30 4974 H 459.515 -4.19512 2.5743 0
M  V30 4975 N 461.167 -1.02423 -1.1978 0
M  V30 4976 C 462.097 -0.62157 -2.25075 0
M  V30 4977 C 463.078 0.367148 -1.6609 0
M  V30 4978 O 464.263 0.250892 -1.92573 0
M  V30 4979 C 461.393 0.0331826 -3.47284 0
M  V30 4980 C 460.347 -0.877323 -4.18912 0
M  V30 4981 C 459.673 -0.0879296 -5.34628 0
M  V30 4982 C 460.973 -2.18892 -4.74219 0
M  V30 4983 H 462.667 -1.50179 -2.59011 0
M  V30 4984 H 460.213 -0.723547 -1.24502 0
M  V30 4985 H 462.166 0.326488 -4.20133 0
M  V30 4986 H 460.89 0.948164 -3.12534 0
M  V30 4987 H 459.549 -1.15475 -3.47938 0
M  V30 4988 H 459.197 0.828941 -4.96123 0
M  V30 4989 H 458.897 -0.694359 -5.83483 0
M  V30 4990 H 460.421 0.198743 -6.10276 0
M  V30 4991 H 461.835 -1.95746 -5.38847 0
M  V30 4992 H 460.232 -2.74686 -5.33542 0
M  V30 4993 H 461.302 -2.84674 -3.92541 0
M  V30 4994 N 462.645 1.35699 -0.801477 0
M  V30 4995 C 463.891 1.99208 -0.380022 0
M  V30 4996 C 464.224 1.63445 1.04878 0
M  V30 4997 O 463.499 0.895223 1.72673 0
M  V30 4998 C 463.782 3.55755 -0.557708 0
M  V30 4999 C 463.635 4.01332 -2.03107 0
M  V30 5000 C 464.954 4.40096 0.0197968 0
M  V30 5001 H 462.073 0.723667 -0.139552 0
M  V30 5002 H 464.715 1.60928 -1.01006 0
M  V30 5003 H 462.865 3.88494 -0.0213741 0
M  V30 5004 H 464.537 3.79026 -2.62939 0
M  V30 5005 H 462.78 3.52429 -2.52936 0
M  V30 5006 H 463.451 5.10234 -2.1063 0
M  V30 5007 H 465.927 4.13786 -0.438179 0
M  V30 5008 H 464.803 5.48735 -0.134477 0
M  V30 5009 H 465.064 4.2786 1.11303 0
M  V30 5010 N 464.123 0.554532 1.47522 0
M  V30 5011 C 465.372 0.0273458 2.01681 0
M  V30 5012 C 465.685 -1.32962 1.43459 0
M  V30 5013 O 466.891 -1.94657 1.89265 0
M  V30 5014 C 465.347 -0.00159057 3.599 0
M  V30 5015 C 464.955 1.35197 4.27113 0
M  V30 5016 C 466.699 -0.476311 4.21819 0
M  V30 5017 C 464.606 1.28229 5.77331 0
M  V30 5018 H 463.536 0.00645269 0.753972 0
M  V30 5019 H 466.187 0.701985 1.69542 0
M  V30 5020 H 464.569 -0.741821 3.8899 0
M  V30 5021 H 465.743 2.1097 4.09668 0
M  V30 5022 H 464.058 1.76441 3.77171 0
M  V30 5023 H 466.655 -0.5468 5.31897 0
M  V30 5024 H 466.998 -1.4877 3.8881 0
M  V30 5025 H 467.531 0.20898 3.97251 0
M  V30 5026 H 464.27 2.26959 6.14955 0
M  V30 5027 H 463.79 0.566314 5.97121 0
M  V30 5028 H 465.469 0.983226 6.39485 0
M  V30 5029 N 465.601 -1.54893 0.290851 0
M  V30 5030 C 466.564 -2.21824 -0.576784 0
M  V30 5031 C 467.564 -1.20104 -1.06919 0
M  V30 5032 O 468.754 -1.44906 -0.966843 0
M  V30 5033 C 465.886 -2.89662 -1.79747 0
M  V30 5034 H 467.079 -2.99899 0.00784051 0
M  V30 5035 H 464.632 -1.56245 0.0415934 0
M  V30 5036 H 465.367 -2.15639 -2.42219 0
M  V30 5037 H 465.152 -3.64219 -1.45214 0
M  V30 5038 H 466.642 -3.4075 -2.4141 0
M  V30 5039 N 467.08 -0.0183926 -1.57589 0
M  V30 5040 C 468.496 0.337897 -1.55982 0
M  V30 5041 C 468.696 1.73604 -1.02294 0
M  V30 5042 O 467.752 2.43589 -0.664895 0
M  V30 5043 C 469.065 0.196305 -3.00059 0
M  V30 5044 C 470.613 0.269875 -3.11834 0
M  V30 5045 C 471.088 0.157197 -4.5773 0
M  V30 5046 N 472.579 0.214521 -4.62703 0
M  V30 5047 C 473.314 0.150955 -5.73201 0
M  V30 5048 N 472.81 0.0369212 -6.9279 0
M  V30 5049 N 474.603 0.204162 -5.61729 0
M  V30 5050 H 466.754 -0.93279 -1.90821 0
M  V30 5051 H 469.017 -0.359253 -0.877292 0
M  V30 5052 H 468.723 -0.766383 -3.43248 0
M  V30 5053 H 468.597 0.970908 -3.6449 0
M  V30 5054 H 470.984 1.22302 -2.68563 0
M  V30 5055 H 471.065 -0.534918 -2.50144 0
M  V30 5056 H 470.709 -0.792479 -5.01679 0
M  V30 5057 H 470.639 0.980717 -5.17387 0
M  V30 5058 H 473.13 0.303238 -3.76681 0
M  V30 5059 H 473.443 -0.00518321 -7.728 0
M  V30 5060 H 471.788 0.0022886 -6.95 0
M  V30 5061 H 474.979 0.291575 -4.67191 0
M  V30 5062 H 475.152 0.15116 -6.47824 0
M  V30 5063 N 468.558 1.5553 0.254621 0
M  V30 5064 C 469.783 1.81383 1.00573 0
M  V30 5065 C 470.208 0.594419 1.78461 0
M  V30 5066 O 469.566 -0.456403 1.75461 0
M  V30 5067 C 469.614 3.04892 1.92545 0
M  V30 5068 O 468.718 2.81266 3.01601 0
M  V30 5069 H 468.059 0.598969 0.286587 0
M  V30 5070 H 470.589 2.02703 0.277952 0
M  V30 5071 H 470.599 3.34119 2.34155 0
M  V30 5072 H 469.274 3.93287 1.3527 0
M  V30 5073 H 467.851 2.63185 2.64174 0
M  V30 5074 N 470.036 -0.519951 1.48776 0
M  V30 5075 C 471.452 -0.849418 1.35119 0
M  V30 5076 C 471.652 -1.98077 0.36982 0
M  V30 5077 O 470.708 -2.51664 -0.205359 0
M  V30 5078 C 472.021 -1.20748 2.75391 0
M  V30 5079 C 473.569 -1.31679 2.83954 0
M  V30 5080 C 474.044 -1.70824 4.24951 0
M  V30 5081 N 475.535 -1.77908 4.27672 0
M  V30 5082 C 476.27 -2.09603 5.33717 0
M  V30 5083 N 475.766 -2.39652 6.5003 0
M  V30 5084 N 477.559 -2.10694 5.21119 0
M  V30 5085 H 469.71 0.226377 2.1119 0
M  V30 5086 H 471.973 0.0386519 0.947212 0
M  V30 5087 H 471.679 -0.449703 3.48813 0
M  V30 5088 H 471.553 -2.15534 3.09556 0
M  V30 5089 H 473.94 -2.06532 2.10781 0
M  V30 5090 H 474.021 -0.3499 2.53396 0
M  V30 5091 H 473.665 -0.965282 4.98643 0
M  V30 5092 H 473.595 -2.6858 4.52959 0
M  V30 5093 H 476.086 -1.56923 3.43779 0
M  V30 5094 H 476.399 -2.6297 7.26682 0
M  V30 5095 H 474.744 -2.37149 6.53288 0
M  V30 5096 H 477.935 -1.86682 4.29264 0
M  V30 5097 H 478.108 -2.35062 6.03863 0
M  V30 5098 N 471.514 -1.37532 -0.769588 0
M  V30 5099 C 472.763 -1.32183 -1.5235 0
M  V30 5100 C 473.076 0.0906555 -1.9539 0
M  V30 5101 O 474.282 0.266628 -2.70188 0
M  V30 5102 C 472.738 -2.32029 -2.75119 0
M  V30 5103 C 472.346 -3.78816 -2.3917 0
M  V30 5104 C 474.09 -2.35694 -3.53056 0
M  V30 5105 C 471.997 -4.70388 -3.58453 0
M  V30 5106 H 470.927 -0.491275 -0.571984 0
M  V30 5107 H 473.578 -1.63004 -0.842739 0
M  V30 5108 H 471.96 -1.94229 -3.45096 0
M  V30 5109 H 473.134 -4.25466 -1.76962 0
M  V30 5110 H 471.449 -3.78117 -1.74402 0
M  V30 5111 H 474.046 -3.01312 -4.41718 0
M  V30 5112 H 474.389 -1.37117 -3.93071 0
M  V30 5113 H 474.922 -2.72212 -2.90078 0
M  V30 5114 H 471.661 -5.70102 -3.23518 0
M  V30 5115 H 471.181 -4.28442 -4.19758 0
M  V30 5116 H 472.86 -4.87628 -4.25239 0
M  V30 5117 N 472.992 0.995999 -1.22138 0
M  V30 5118 C 473.922 2.10387 -1.01289 0
M  V30 5119 C 474.903 1.69975 0.0651454 0
M  V30 5120 O 476.088 1.9396 -0.0964628 0
M  V30 5121 C 473.218 3.42312 -0.586517 0
M  V30 5122 C 472.172 3.96558 -1.61014 0
M  V30 5123 C 471.498 5.24494 -1.0397 0
M  V30 5124 C 472.798 4.27595 -2.99933 0
M  V30 5125 H 474.492 2.28086 -1.93951 0
M  V30 5126 H 472.038 1.09607 -0.933928 0
M  V30 5127 H 473.991 4.19223 -0.427793 0
M  V30 5128 H 472.715 3.24431 0.375761 0
M  V30 5129 H 471.374 3.21776 -1.75658 0
M  V30 5130 H 471.022 5.02953 -0.0688703 0
M  V30 5131 H 470.722 5.61755 -1.72352 0
M  V30 5132 H 472.246 6.04042 -0.892494 0
M  V30 5133 H 473.66 4.95315 -2.8868 0
M  V30 5134 H 472.057 4.76021 -3.6541 0
M  V30 5135 H 473.127 3.35498 -3.50099 0
M  V30 5136 N 474.47 1.03057 1.19235 0
M  V30 5137 C 475.38 0.622922 2.26179 0
M  V30 5138 C 476.396 -0.346113 1.70523 0
M  V30 5139 O 477.572 -0.203572 2.00369 0
M  V30 5140 C 474.637 -0.0182063 3.46695 0
M  V30 5141 C 473.698 0.998546 4.17526 0
M  V30 5142 C 472.931 0.387917 5.32288 0
M  V30 5143 O 473.154 -0.808668 5.64639 0
M  V30 5144 O 472.088 1.1116 5.91546 0
M  V30 5145 H 475.914 1.51363 2.63292 0
M  V30 5146 H 473.499 0.800856 1.26122 0
M  V30 5147 H 475.381 -0.375606 4.19723 0
M  V30 5148 H 474.056 -0.882895 3.11427 0
M  V30 5149 H 472.963 1.40756 3.4661 0
M  V30 5150 H 474.296 1.83366 4.56769 0
M  V30 5151 N 475.948 -1.35272 0.808662 0
M  V30 5152 C 477.176 -2.02946 0.402537 0
M  V30 5153 C 477.591 -1.60937 -0.987147 0
M  V30 5154 O 476.948 -0.807917 -1.63643 0
M  V30 5155 C 476.999 -3.58317 0.47868 0
M  V30 5156 O 476.72 -3.98799 1.81358 0
M  V30 5157 C 478.221 -4.43251 0.0656281 0
M  V30 5158 H 475.441 -0.650831 0.163279 0
M  V30 5159 H 477.985 -1.72849 1.09286 0
M  V30 5160 H 476.14 -3.87055 -0.163415 0
M  V30 5161 H 476.554 -4.93451 1.77781 0
M  V30 5162 H 478.028 -5.51738 0.170017 0
M  V30 5163 H 478.505 -4.27913 -0.989278 0
M  V30 5164 H 479.111 -4.19813 0.68096 0
M  V30 5165 N 477.426 -0.562348 -1.47226 0
M  V30 5166 C 478.356 0.170627 -2.32876 0
M  V30 5167 C 479.337 0.903748 -1.44106 0
M  V30 5168 O 480.522 0.883206 -1.72954 0
M  V30 5169 C 477.652 1.19786 -3.25989 0
M  V30 5170 C 476.606 0.580875 -4.2404 0
M  V30 5171 C 475.932 1.71311 -5.06514 0
M  V30 5172 C 477.232 -0.468714 -5.20193 0
M  V30 5173 H 478.926 -0.544441 -2.94408 0
M  V30 5174 H 476.472 -0.263271 -1.41573 0
M  V30 5175 H 478.425 1.71884 -3.84752 0
M  V30 5176 H 477.149 1.94294 -2.62521 0
M  V30 5177 H 475.808 0.0811538 -3.6651 0
M  V30 5178 H 475.456 2.44736 -4.39447 0
M  V30 5179 H 475.156 1.30604 -5.72902 0
M  V30 5180 H 476.68 2.23725 -5.68137 0
M  V30 5181 H 478.094 -0.0336028 -5.7329 0
M  V30 5182 H 476.491 -0.794957 -5.94811 0
M  V30 5183 H 477.561 -1.36269 -4.65359 0
M  V30 5184 N 478.904 1.54736 -0.299062 0
M  V30 5185 C 479.851 2.23448 0.577899 0
M  V30 5186 C 480.821 1.21637 1.13109 0
M  V30 5187 O 482.006 1.50252 1.17597 0
M  V30 5188 C 479.146 2.9774 1.74484 0
M  V30 5189 C 478.259 4.1432 1.22323 0
M  V30 5190 C 477.394 4.76199 2.35388 0
M  V30 5191 C 476.433 5.84927 1.80351 0
M  V30 5192 N 475.57 6.4077 2.86982 0
M  V30 5193 H 480.41 2.97996 -0.0146545 0
M  V30 5194 H 477.947 1.47088 -0.0190013 0
M  V30 5195 H 479.905 3.39045 2.43114 0
M  V30 5196 H 478.535 2.25572 2.30905 0
M  V30 5197 H 477.587 3.7797 0.429249 0
M  V30 5198 H 478.899 4.92659 0.780309 0
M  V30 5199 H 478.053 5.20346 3.11969 0
M  V30 5200 H 476.792 3.97188 2.83006 0
M  V30 5201 H 475.797 5.40207 1.02259 0
M  V30 5202 H 477.022 6.65821 1.3364 0
M  V30 5203 H 474.968 5.64643 3.33938 0
M  V30 5204 H 474.885 7.1445 2.4718 0
M  V30 5205 H 476.153 6.89574 3.63466 0
M  V30 5206 N 480.382 0.0267497 1.57577 0
M  V30 5207 C 481.329 -0.955894 2.10075 0
M  V30 5208 C 482.299 -1.32453 1.00226 0
M  V30 5209 O 483.484 -1.41826 1.27632 0
M  V30 5210 C 480.624 -2.2338 2.6305 0
M  V30 5211 C 479.737 -1.92183 3.86898 0
M  V30 5212 C 478.872 -3.14251 4.28275 0
M  V30 5213 C 477.911 -2.78862 5.44888 0
M  V30 5214 N 477.048 -3.93548 5.81433 0
M  V30 5215 H 481.888 -0.501303 2.93753 0
M  V30 5216 H 479.425 -0.235847 1.45197 0
M  V30 5217 H 481.383 -2.98124 2.91853 0
M  V30 5218 H 480.013 -2.6646 1.82205 0
M  V30 5219 H 479.065 -1.07692 3.64838 0
M  V30 5220 H 480.377 -1.62117 4.7172 0
M  V30 5221 H 479.531 -3.97317 4.58502 0
M  V30 5222 H 478.27 -3.47476 3.42215 0
M  V30 5223 H 477.275 -1.94208 5.14357 0
M  V30 5224 H 478.5 -2.46855 6.32645 0
M  V30 5225 H 476.446 -4.2662 4.98328 0
M  V30 5226 H 476.363 -3.67098 6.6089 0
M  V30 5227 H 477.631 -4.77325 6.16264 0
M  V30 5228 N 481.861 -1.55662 -0.24637 0
M  V30 5229 C 483.091 -1.81312 -0.990438 0
M  V30 5230 C 483.499 -0.600234 -1.79426 0
M  V30 5231 O 482.842 0.440537 -1.78339 0
M  V30 5232 C 482.904 -3.0032 -1.97607 0
M  V30 5233 C 482.568 -4.36322 -1.35912 0
M  V30 5234 C 483.565 -5.14295 -0.761348 0
M  V30 5235 C 481.25 -4.83019 -1.37833 0
M  V30 5236 C 483.244 -6.37114 -0.190998 0
M  V30 5237 C 480.931 -6.05786 -0.804128 0
M  V30 5238 C 481.929 -6.82672 -0.211489 0
M  V30 5239 O 481.617 -8.03121 0.353845 0
M  V30 5240 H 481.349 -0.607233 -0.297058 0
M  V30 5241 H 483.903 -2.0356 -0.274351 0
M  V30 5242 H 482.133 -2.73829 -2.73047 0
M  V30 5243 H 483.822 -3.13057 -2.58361 0
M  V30 5244 H 484.588 -4.79337 -0.739013 0
M  V30 5245 H 480.467 -4.23165 -1.829 0
M  V30 5246 H 484.011 -6.97069 0.272206 0
M  V30 5247 H 479.908 -6.40222 -0.823792 0
M  V30 5248 H 480.676 -8.18131 0.245761 0
M  V30 5249 N 483.339 0.512053 -1.4905 0
M  V30 5250 C 484.287 1.63568 -1.65373 0
M  V30 5251 C 485.281 1.61228 -0.519806 0
M  V30 5252 O 486.487 1.65869 -0.699101 0
M  V30 5253 H 482.862 0.542019 -0.521267 0
M  V30 5254 H 484.833 1.4695 -2.59708 0
M  V30 5255 C 483.582 3.01761 -1.7273 0
M  V30 5256 H 482.905 3.04263 -2.59353 0
M  V30 5257 H 484.345 3.79948 -1.8819 0
M  V30 5258 C 482.804 3.33609 -0.46973 0
M  V30 5259 O 483.334 3.99607 0.409492 0
M  V30 5260 N 481.54 2.88651 -0.336003 0
M  V30 5261 H 481.087 2.35119 -1.05247 0
M  V30 5262 H 481.045 3.10328 0.504363 0
M  V30 5263 N 484.817 1.37938 0.762283 0
M  V30 5264 C 486.066 1.32989 1.51647 0
M  V30 5265 C 486.379 -0.0802922 1.95435 0
M  V30 5266 O 487.585 -0.252295 2.70325 0
M  V30 5267 C 486.041 2.33485 2.73885 0
M  V30 5268 C 485.649 3.80079 2.37157 0
M  V30 5269 C 487.393 2.37563 3.51801 0
M  V30 5270 C 485.3 4.72283 3.55954 0
M  V30 5271 H 484.23 0.494301 0.56937 0
M  V30 5272 H 486.881 1.63448 0.834083 0
M  V30 5273 H 485.263 1.96056 3.44061 0
M  V30 5274 H 486.437 4.26398 1.74704 0
M  V30 5275 H 484.752 3.79037 1.72395 0
M  V30 5276 H 487.349 3.0365 4.40114 0
M  V30 5277 H 487.692 1.39199 3.92338 0
M  V30 5278 H 488.225 2.73747 2.8863 0
M  V30 5279 H 484.964 5.7181 3.2049 0
M  V30 5280 H 484.484 4.30663 4.1748 0
M  V30 5281 H 486.163 4.89876 4.22647 0
M  V30 5282 N 486.295 -0.989507 1.22664 0
M  V30 5283 C 487.242 -2.08024 0.999733 0
M  V30 5284 C 488.212 -1.65909 -0.0797047 0
M  V30 5285 O 489.397 -1.90669 0.0705715 0
M  V30 5286 C 486.537 -3.40067 0.587234 0
M  V30 5287 C 485.65 -3.95505 1.73781 0
M  V30 5288 C 484.785 -5.15722 1.27297 0
M  V30 5289 C 483.824 -5.63305 2.39488 0
M  V30 5290 N 482.961 -6.74758 1.94026 0
M  V30 5291 H 487.801 -2.26768 1.9334 0
M  V30 5292 H 485.338 -1.11171 0.963297 0
M  V30 5293 H 487.296 -4.15899 0.329227 0
M  V30 5294 H 485.926 -3.21314 -0.309426 0
M  V30 5295 H 484.978 -3.16513 2.11006 0
M  V30 5296 H 486.29 -4.26797 2.58158 0
M  V30 5297 H 485.444 -5.98854 0.972546 0
M  V30 5298 H 484.183 -4.86061 0.399445 0
M  V30 5299 H 483.188 -4.78759 2.70315 0
M  V30 5300 H 484.413 -5.94988 3.27362 0
M  V30 5301 H 482.359 -6.46874 1.09041 0
M  V30 5302 H 482.276 -7.05386 2.71968 0
M  V30 5303 H 483.544 -7.61387 1.67062 0
M  V30 5304 N 487.773 -1.03688 -1.18687 0
M  V30 5305 C 488.683 -0.634908 -2.25845 0
M  V30 5306 C 489.699 0.337065 -1.70704 0
M  V30 5307 O 490.875 0.192943 -2.00474 0
M  V30 5308 C 487.94 -0.000180054 -3.467 0
M  V30 5309 C 487.001 -1.02067 -4.1699 0
M  V30 5310 C 486.234 -0.41614 -5.32075 0
M  V30 5311 O 486.457 0.778712 -5.65059 0
M  V30 5312 O 485.391 -1.14296 -5.90948 0
M  V30 5313 H 489.217 -1.52757 -2.62486 0
M  V30 5314 H 486.802 -0.807533 -1.25695 0
M  V30 5315 H 488.684 0.353342 -4.19916 0
M  V30 5316 H 487.359 0.866367 -3.11891 0
M  V30 5317 H 486.266 -1.42592 -3.45859 0
M  V30 5318 H 487.599 -1.85786 -4.5579 0
M  V30 5319 N 489.251 1.34841 -0.815825 0
M  V30 5320 C 490.181 2.32187 -0.247298 0
M  V30 5321 C 491.162 1.5791 0.632344 0
M  V30 5322 O 492.347 1.8593 0.560698 0
M  V30 5323 C 489.477 3.42122 0.597466 0
M  V30 5324 C 488.431 4.27602 -0.184446 0
M  V30 5325 C 487.757 5.28942 0.782609 0
M  V30 5326 C 489.057 5.03502 -1.38865 0
M  V30 5327 H 490.751 2.79985 -1.06061 0
M  V30 5328 H 488.297 1.34611 -0.511461 0
M  V30 5329 H 490.25 4.09232 1.00533 0
M  V30 5330 H 488.974 2.92956 1.44376 0
M  V30 5331 H 487.633 3.62085 -0.573592 0
M  V30 5332 H 487.281 4.7604 1.62466 0
M  V30 5333 H 486.981 5.87008 0.263695 0
M  V30 5334 H 488.505 5.98922 1.18848 0
M  V30 5335 H 489.919 5.63506 -1.05518 0
M  V30 5336 H 488.316 5.71108 -1.8427 0
M  V30 5337 H 489.386 4.33608 -2.17054 0
M  V30 5338 N 490.729 0.570148 1.46925 0
M  V30 5339 C 492.006 -0.0153259 1.95594 0
M  V30 5340 C 492.386 -1.47232 1.51281 0
M  V30 5341 O 491.734 -2.15574 0.757624 0
M  V30 5342 C 491.944 0.143624 3.48704 0
M  V30 5343 C 493.292 0.00494484 4.246 0
M  V30 5344 O 494.316 0.0718214 3.56128 0
M  V30 5345 O 493.175 -0.141175 5.46318 0
M  V30 5346 H 490.269 -0.0568819 0.825041 0
M  V30 5347 H 492.815 0.637583 1.57267 0
M  V30 5348 H 491.587 1.15699 3.73804 0
M  V30 5349 H 491.21 -0.5463 3.93829 0
M  V30 5350 N 492.207 -1.54576 0.307264 0
M  V30 5351 C 493.117 -2.27435 -0.57536 0
M  V30 5352 C 494.133 -1.31183 -1.14311 0
M  V30 5353 O 495.309 -1.64175 -1.16656 0
M  V30 5354 C 492.374 -3.00566 -1.72803 0
M  V30 5355 C 491.435 -4.12369 -1.19373 0
M  V30 5356 C 490.668 -4.82003 -2.29147 0
M  V30 5357 O 490.891 -4.51038 -3.49171 0
M  V30 5358 O 489.825 -5.69271 -1.95485 0
M  V30 5359 H 493.651 -3.03696 0.0158558 0
M  V30 5360 H 491.236 -1.49219 0.0735064 0
M  V30 5361 H 493.118 -3.46416 -2.39946 0
M  V30 5362 H 491.793 -2.27195 -2.30574 0
M  V30 5363 H 490.7 -3.70905 -0.487851 0
M  V30 5364 H 492.033 -4.87736 -0.661376 0
M  V30 5365 N 493.685 -0.035106 -1.57561 0
M  V30 5366 C 494.91 0.655802 -1.96759 0
M  V30 5367 C 495.335 1.64523 -0.911809 0
M  V30 5368 O 494.693 1.80857 0.126673 0
M  V30 5369 C 494.741 1.33326 -3.35047 0
M  V30 5370 O 493.845 2.44866 -3.31835 0
M  V30 5371 H 493.186 0.171807 -0.641388 0
M  V30 5372 H 495.716 -0.0987369 -2.04362 0
M  V30 5373 H 495.726 1.68867 -3.71413 0
M  V30 5374 H 494.401 0.608033 -4.11431 0
M  V30 5375 H 492.978 2.11392 -3.07193 0
M  V30 5376 N 495.163 1.55791 0.238111 0
M  V30 5377 C 496.093 1.94068 1.29846 0
M  V30 5378 C 497.074 0.806726 1.49753 0
M  V30 5379 O 498.259 1.06772 1.62214 0
M  V30 5380 C 495.389 2.24302 2.65153 0
M  V30 5381 C 494.343 3.40032 2.59927 0
M  V30 5382 C 493.669 3.55829 3.99111 0
M  V30 5383 C 494.969 4.75476 2.16148 0
M  V30 5384 H 496.663 2.82887 0.980563 0
M  V30 5385 H 494.209 1.36105 0.470253 0
M  V30 5386 H 496.162 2.4967 3.39475 0
M  V30 5387 H 494.886 1.32318 2.98596 0
M  V30 5388 H 493.545 3.14687 1.88063 0
M  V30 5389 H 493.193 2.6125 4.29834 0
M  V30 5390 H 492.893 4.3366 3.96501 0
M  V30 5391 H 494.417 3.83528 4.7512 0
M  V30 5392 H 495.831 5.00158 2.80205 0
M  V30 5393 H 494.228 5.56472 2.24631 0
M  V30 5394 H 495.298 4.71946 1.11333 0
M  V30 5395 N 496.642 -0.504142 1.49319 0
M  V30 5396 C 497.867 -1.28729 1.62615 0
M  V30 5397 C 498.292 -1.85752 0.296309 0
M  V30 5398 O 497.65 -1.65704 -0.735649 0
M  V30 5399 C 497.698 -2.39561 2.69524 0
M  V30 5400 O 496.802 -3.43324 2.28478 0
M  V30 5401 H 496.143 -0.380172 0.544395 0
M  V30 5402 H 498.673 -0.603872 1.95485 0
M  V30 5403 H 498.683 -2.8537 2.91595 0
M  V30 5404 H 497.358 -1.97423 3.66056 0
M  V30 5405 H 495.935 -3.03455 2.16725 0
M  V30 5406 N 498.12 -1.38341 -0.754957 0
M  V30 5407 C 499.07 -1.31964 -1.85929 0
M  V30 5408 C 500.054 -0.204181 -1.59599 0
M  V30 5409 O 501.246 -0.440036 -1.71443 0
M  V30 5410 C 498.375 -1.14565 -3.2362 0
M  V30 5411 C 497.461 -2.30727 -3.55846 0
M  V30 5412 N 497.852 -3.56165 -3.59138 0
M  V30 5413 C 496.15 -2.23249 -3.86104 0
M  V30 5414 C 496.851 -4.32865 -3.88591 0
M  V30 5415 N 495.827 -3.62203 -4.05351 0
M  V30 5416 H 499.629 -2.2694 -1.8675 0
M  V30 5417 H 497.143 -1.31553 -0.952243 0
M  V30 5418 H 499.14 -1.0808 -4.02647 0
M  V30 5419 H 497.8 -0.205212 -3.24051 0
M  V30 5420 H 498.811 -3.89854 -3.40932 0
M  V30 5421 H 495.488 -1.37357 -3.94258 0
M  V30 5422 H 496.878 -5.41504 -3.97773 0
M  V30 5423 N 499.598 0.982988 -1.23187 0
M  V30 5424 C 500.528 2.09301 -1.03515 0
M  V30 5425 C 501.509 1.70035 0.0471136 0
M  V30 5426 O 502.694 1.93847 -0.117029 0
M  V30 5427 C 499.824 3.4167 -0.622791 0
M  V30 5428 C 498.778 3.94828 -1.65211 0
M  V30 5429 C 498.104 5.23362 -1.09527 0
M  V30 5430 C 499.404 4.2439 -3.04451 0
M  V30 5431 H 501.098 2.26016 -1.96359 0
M  V30 5432 H 498.644 1.08611 -0.945501 0
M  V30 5433 H 500.597 4.18746 -0.472233 0
M  V30 5434 H 499.321 3.24811 0.341329 0
M  V30 5435 H 497.98 3.19895 -1.79061 0
M  V30 5436 H 497.628 5.02852 -0.122211 0
M  V30 5437 H 497.328 5.59895 -1.783 0
M  V30 5438 H 498.852 6.03062 -0.956511 0
M  V30 5439 H 500.266 4.92225 -2.93917 0
M  V30 5440 H 498.663 4.72118 -3.70438 0
M  V30 5441 H 499.733 3.31765 -3.53638 0
M  V30 5442 N 501.076 1.04316 1.18135 0
M  V30 5443 C 502.301 0.768047 1.92655 0
M  V30 5444 C 502.726 -0.66904 1.758 0
M  V30 5445 O 502.084 -1.46372 1.06981 0
M  V30 5446 C 502.132 1.14239 3.42026 0
M  V30 5447 O 501.236 0.269333 4.1152 0
M  V30 5448 H 500.577 0.282436 0.600937 0
M  V30 5449 H 503.107 1.39367 1.49793 0
M  V30 5450 H 503.117 1.10538 3.92741 0
M  V30 5451 H 501.792 2.18928 3.53615 0
M  V30 5452 H 500.369 0.366175 3.71098 0
M  V30 5453 N 502.554 -1.34406 0.822964 0
M  V30 5454 C 503.97 -1.51275 0.508727 0
M  V30 5455 C 504.17 -1.76776 -0.967083 0
M  V30 5456 O 503.226 -1.81871 -1.75155 0
M  V30 5457 C 504.539 -2.67765 1.36829 0
M  V30 5458 C 506.087 -2.81647 1.36542 0
M  V30 5459 C 506.562 -4.01181 2.20947 0
M  V30 5460 N 508.053 -4.08388 2.18571 0
M  V30 5461 C 508.788 -5.00036 2.80627 0
M  V30 5462 N 508.284 -5.96906 3.51674 0
M  V30 5463 N 510.077 -4.92908 2.70181 0
M  V30 5464 H 502.228 -1.16113 1.77852 0
M  V30 5465 H 504.491 -0.56947 0.757897 0
M  V30 5466 H 504.197 -2.55551 2.41633 0
M  V30 5467 H 504.071 -3.62779 1.03303 0
M  V30 5468 H 506.458 -2.93303 0.325163 0
M  V30 5469 H 506.539 -1.87443 1.74066 0
M  V30 5470 H 506.183 -3.90286 3.25022 0
M  V30 5471 H 506.113 -4.94599 1.80774 0
M  V30 5472 H 508.604 -3.39051 1.66891 0
M  V30 5473 H 508.917 -6.63468 3.96271 0
M  V30 5474 H 507.262 -5.9703 3.5578 0
M  V30 5475 H 510.453 -4.1619 2.14251 0
M  V30 5476 H 510.626 -5.64137 3.18831 0
M  V30 5477 N 504.032 -0.577932 -1.46621 0
M  V30 5478 C 505.281 -0.0594281 -2.01612 0
M  V30 5479 C 505.594 1.30663 -1.45556 0
M  V30 5480 O 506.8 1.91621 -1.92337 0
M  V30 5481 C 505.256 -0.0556666 -3.59857 0
M  V30 5482 C 504.864 -1.41975 -4.24908 0
M  V30 5483 C 506.608 0.409143 -4.22524 0
M  V30 5484 C 504.515 -1.37397 -5.75218 0
M  V30 5485 H 503.445 -0.0184469 -0.753774 0
M  V30 5486 H 506.096 -0.728869 -1.68404 0
M  V30 5487 H 504.478 0.679843 -3.90121 0
M  V30 5488 H 505.652 -2.17461 -4.0626 0
M  V30 5489 H 503.967 -1.82419 -3.74316 0
M  V30 5490 H 506.564 0.46211 -5.32699 0
M  V30 5491 H 506.907 1.42565 -3.91128 0
M  V30 5492 H 507.44 -0.272152 -3.96868 0
M  V30 5493 H 504.179 -2.36714 -6.11267 0
M  V30 5494 H 503.699 -0.661239 -5.96144 0
M  V30 5495 H 505.378 -1.08484 -6.3784 0
M  V30 5496 N 505.51 1.54411 -0.315457 0
M  V30 5497 C 506.738 2.04833 0.291738 0
M  V30 5498 C 507.153 1.19203 1.46411 0
M  V30 5499 O 506.51 0.220867 1.81159 0
M  V30 5500 C 506.561 3.53969 0.73404 0
M  V30 5501 O 506.282 4.36346 -0.391682 0
M  V30 5502 C 507.783 4.2045 1.40489 0
M  V30 5503 H 505.003 0.668195 0.0612947 0
M  V30 5504 H 507.547 1.99276 -0.45929 0
M  V30 5505 H 505.702 3.5984 1.43506 0
M  V30 5506 H 506.116 5.24481 -0.0447088 0
M  V30 5507 H 507.59 5.26278 1.66539 0
M  V30 5508 H 508.067 3.71067 2.3496 0
M  V30 5509 H 508.673 4.18694 0.746662 0
M  V30 5510 N 506.988 0.0434614 1.5754 0
M  V30 5511 C 507.918 -0.931651 2.14109 0
M  V30 5512 C 508.899 -1.32971 1.06079 0
M  V30 5513 O 510.084 -1.40579 1.33982 0
M  V30 5514 C 507.214 -2.20914 2.67982 0
M  V30 5515 C 506.168 -1.95139 3.80926 0
M  V30 5516 C 505.494 -3.29276 4.21285 0
M  V30 5517 C 506.794 -1.27913 5.06395 0
M  V30 5518 H 508.488 -0.460497 2.95837 0
M  V30 5519 H 506.034 -0.220058 1.42309 0
M  V30 5520 H 507.987 -2.89522 3.06194 0
M  V30 5521 H 506.711 -2.70221 1.83434 0
M  V30 5522 H 505.37 -1.28945 3.43175 0
M  V30 5523 H 505.018 -3.76369 3.33699 0
M  V30 5524 H 504.718 -3.12831 4.97404 0
M  V30 5525 H 506.242 -3.99129 4.62091 0
M  V30 5526 H 507.656 -1.86544 5.42102 0
M  V30 5527 H 506.053 -1.2182 5.87605 0
M  V30 5528 H 507.123 -0.254066 4.84234 0
M  V30 5529 N 508.466 -1.55915 -0.229846 0
M  V30 5530 C 509.743 -1.6932 -0.979295 0
M  V30 5531 C 510.123 -0.588321 -2.02736 0
M  V30 5532 O 509.471 0.40586 -2.24867 0
M  V30 5533 C 509.681 -3.10305 -1.59724 0
M  V30 5534 C 511.029 -3.6945 -2.09264 0
M  V30 5535 O 512.053 -3.13214 -1.69633 0
M  V30 5536 O 510.912 -4.68072 -2.82082 0
M  V30 5537 H 508.006 -0.689314 -0.456919 0
M  V30 5538 H 510.552 -1.68238 -0.222283 0
M  V30 5539 H 509.324 -3.82177 -0.840039 0
M  V30 5540 H 508.947 -3.1547 -2.42001 0
M  V30 5541 N 509.944 0.496216 -1.49584 0
M  V30 5542 C 510.874 1.60576 -1.69521 0
M  V30 5543 C 511.855 1.61169 -0.543933 0
M  V30 5544 O 513.04 1.77834 -0.78031 0
M  V30 5545 C 510.17 2.99038 -1.76616 0
M  V30 5546 C 509.124 3.13312 -2.91581 0
M  V30 5547 C 508.45 4.53172 -2.83794 0
M  V30 5548 C 509.75 2.92886 -4.32452 0
M  V30 5549 H 511.444 1.44146 -2.62416 0
M  V30 5550 H 508.99 0.692024 -1.26282 0
M  V30 5551 H 510.943 3.76564 -1.8915 0
M  V30 5552 H 509.667 3.16568 -0.80324 0
M  V30 5553 H 508.326 2.38213 -2.78658 0
M  V30 5554 H 507.974 4.67585 -1.854 0
M  V30 5555 H 507.674 4.63662 -3.60958 0
M  V30 5556 H 509.198 5.32752 -2.98342 0
M  V30 5557 H 510.612 3.60178 -4.46032 0
M  V30 5558 H 509.009 3.14844 -5.10875 0
M  V30 5559 H 510.079 1.88966 -4.46565 0
M  V30 5560 N 511.423 1.38739 0.74761 0
M  V30 5561 C 512.355 1.32341 1.87132 0
M  V30 5562 C 513.368 0.234502 1.61102 0
M  V30 5563 O 514.557 0.492516 1.71571 0
M  V30 5564 C 511.657 1.02915 3.22896 0
M  V30 5565 C 510.83 2.22834 3.76383 0
M  V30 5566 C 509.889 1.90059 4.90677 0
M  V30 5567 O 508.915 2.62615 5.04997 0
M  V30 5568 N 510.117 0.859141 5.74107 0
M  V30 5569 H 512.882 2.29175 1.93129 0
M  V30 5570 H 510.443 1.32678 0.927805 0
M  V30 5571 H 512.435 0.79031 3.96908 0
M  V30 5572 H 511.005 0.148572 3.12247 0
M  V30 5573 H 510.225 2.62747 2.93867 0
M  V30 5574 H 511.513 3.02851 4.08851 0
M  V30 5575 H 510.911 0.257564 5.65113 0
M  V30 5576 H 509.468 0.680189 6.48241 0
M  V30 5577 N 512.901 -0.976442 1.23707 0
M  V30 5578 C 513.849 -2.09078 1.01927 0
M  V30 5579 C 514.843 -1.69345 -0.0430193 0
M  V30 5580 O 516.049 -1.79659 0.110814 0
M  V30 5581 H 512.424 -0.68398 0.312531 0
M  V30 5582 H 514.395 -2.24614 1.96447 0
M  V30 5583 C 513.144 -3.41919 0.631385 0
M  V30 5584 H 512.467 -3.72946 1.44053 0
M  V30 5585 H 513.907 -4.20817 0.518532 0
M  V30 5586 C 512.366 -3.30357 -0.660723 0
M  V30 5587 O 512.896 -3.63542 -1.70881 0
M  V30 5588 N 511.102 -2.83507 -0.638139 0
M  V30 5589 H 510.649 -2.567 0.215108 0
M  V30 5590 H 510.607 -2.76153 -1.50289 0
M  V30 5591 N 514.379 -1.04941 -1.1758 0
M  V30 5592 C 515.625 -0.759112 -1.88057 0
M  V30 5593 C 515.958 0.711918 -1.8068 0
M  V30 5594 O 515.233 1.52035 -1.21308 0
M  V30 5595 C 515.516 -1.237 -3.38187 0
M  V30 5596 C 515.369 -2.77078 -3.54327 0
M  V30 5597 C 516.688 -0.834014 -4.32125 0
M  V30 5598 H 513.807 -0.277237 -0.682868 0
M  V30 5599 H 516.449 -1.30296 -1.38286 0
M  V30 5600 H 514.599 -0.774337 -3.80705 0
M  V30 5601 H 516.271 -3.31449 -3.20842 0
M  V30 5602 H 514.514 -3.16477 -2.96689 0
M  V30 5603 H 515.185 -3.05577 -4.59703 0
M  V30 5604 H 517.661 -1.23228 -3.97434 0
M  V30 5605 H 516.537 -1.19603 -5.35711 0
M  V30 5606 H 516.798 0.262195 -4.41322 0
M  V30 5607 N 515.857 1.33968 -0.830081 0
M  V30 5608 C 517.103 1.98357 -0.422191 0
M  V30 5609 C 517.436 1.65633 1.01387 0
M  V30 5610 O 516.711 0.931648 1.70735 0
M  V30 5611 C 516.994 3.54492 -0.633043 0
M  V30 5612 C 516.847 3.96934 -2.11574 0
M  V30 5613 C 518.166 4.40039 -0.0735584 0
M  V30 5614 H 515.285 0.720544 -0.154871 0
M  V30 5615 H 517.927 1.58749 -1.04397 0
M  V30 5616 H 516.077 3.88361 -0.103775 0
M  V30 5617 H 517.749 3.73363 -2.7092 0
M  V30 5618 H 515.992 3.46984 -2.60354 0
M  V30 5619 H 516.663 5.05651 -2.21406 0
M  V30 5620 H 519.139 4.12764 -0.52585 0
M  V30 5621 H 518.015 5.48327 -0.250841 0
M  V30 5622 H 518.276 4.30124 1.02202 0
M  V30 5623 N 517.335 0.585699 1.46312 0
M  V30 5624 C 518.268 -0.194257 2.27372 0
M  V30 5625 C 519.246 -0.894116 1.3581 0
M  V30 5626 O 520.43 -0.907402 1.65222 0
M  V30 5627 C 517.557 -1.27901 3.13622 0
M  V30 5628 C 516.603 -0.684666 4.20969 0
M  V30 5629 S 517.436 0.490745 5.33247 0
M  V30 5630 C 518.592 -0.595137 6.23064 0
M  V30 5631 H 518.825 0.493515 2.93175 0
M  V30 5632 H 516.358 0.372666 1.49835 0
M  V30 5633 H 518.316 -1.90008 3.63878 0
M  V30 5634 H 516.977 -1.93875 2.47126 0
M  V30 5635 H 516.17 -1.50015 4.81156 0
M  V30 5636 H 515.772 -0.139204 3.73741 0
M  V30 5637 H 518.064 -1.48002 6.61137 0
M  V30 5638 H 519.007 -0.0299446 7.08094 0
M  V30 5639 H 519.415 -0.900627 5.57269 0
M  V30 5640 N 518.813 -1.54241 0.323641 0
M  V30 5641 C 519.76 -2.24339 -0.542277 0
M  V30 5642 C 520.73 -1.23421 -1.11159 0
M  V30 5643 O 521.915 -1.52104 -1.15192 0
M  V30 5644 C 519.055 -3.00479 -1.69725 0
M  V30 5645 C 518.168 -4.16214 -1.15716 0
M  V30 5646 C 517.303 -4.79884 -2.27783 0
M  V30 5647 C 516.342 -5.87722 -1.71023 0
M  V30 5648 N 515.479 -6.45254 -2.76752 0
M  V30 5649 H 520.319 -2.97935 0.0620613 0
M  V30 5650 H 517.856 -1.47039 0.0423993 0
M  V30 5651 H 519.814 -3.42869 -2.3769 0
M  V30 5652 H 518.444 -2.29217 -2.27288 0
M  V30 5653 H 517.496 -3.78605 -0.369063 0
M  V30 5654 H 518.808 -4.93838 -0.701832 0
M  V30 5655 H 517.962 -5.25243 -3.03651 0
M  V30 5656 H 516.701 -4.01641 -2.76652 0
M  V30 5657 H 515.706 -5.41765 -0.936518 0
M  V30 5658 H 516.931 -6.67863 -1.2303 0
M  V30 5659 H 514.877 -5.69884 -3.24912 0
M  V30 5660 H 514.794 -7.18292 -2.35782 0
M  V30 5661 H 516.062 -6.95269 -3.5245 0
M  V30 5662 N 520.291 -0.0518155 -1.57515 0
M  V30 5663 C 521.54 0.621286 -1.91893 0
M  V30 5664 C 521.853 1.71966 -0.932052 0
M  V30 5665 O 523.059 2.45096 -1.16791 0
M  V30 5666 C 521.515 1.15641 -3.40816 0
M  V30 5667 C 521.123 0.0901146 -4.47909 0
M  V30 5668 C 522.867 1.80472 -3.84227 0
M  V30 5669 C 520.774 0.638154 -5.87947 0
M  V30 5670 H 519.704 0.235835 -0.716169 0
M  V30 5671 H 522.355 -0.120809 -1.83102 0
M  V30 5672 H 520.737 1.95084 -3.44613 0
M  V30 5673 H 521.911 -0.683525 -4.55702 0
M  V30 5674 H 520.226 -0.460774 -4.13843 0
M  V30 5675 H 522.823 2.22471 -4.86221 0
M  V30 5676 H 523.166 2.65669 -3.20508 0
M  V30 5677 H 523.699 1.07683 -3.82948 0
M  V30 5678 H 520.438 -0.176202 -6.55263 0
M  V30 5679 H 519.958 1.37976 -5.83714 0
M  V30 5680 H 521.637 1.12085 -6.37217 0
M  V30 5681 N 521.769 1.56035 0.221574 0
M  V30 5682 C 523.185 1.49026 0.571271 0
M  V30 5683 C 523.385 0.746912 1.87146 0
M  V30 5684 O 522.441 0.286566 2.50869 0
M  V30 5685 C 523.754 2.93579 0.650522 0
M  V30 5686 C 525.302 3.04099 0.741151 0
M  V30 5687 C 525.777 4.5001 0.851747 0
M  V30 5688 N 527.268 4.54053 0.915968 0
M  V30 5689 C 528.003 5.64232 1.02125 0
M  V30 5690 N 527.499 6.84164 1.09049 0
M  V30 5691 N 529.292 5.52084 1.05639 0
M  V30 5692 H 521.443 2.02791 -0.63162 0
M  V30 5693 H 523.706 0.921736 -0.221602 0
M  V30 5694 H 523.412 3.50912 -0.235253 0
M  V30 5695 H 523.286 3.45476 1.51413 0
M  V30 5696 H 525.673 2.4683 1.61737 0
M  V30 5697 H 525.754 2.55371 -0.148128 0
M  V30 5698 H 525.398 5.07896 -0.0200117 0
M  V30 5699 H 525.328 4.96444 1.75644 0
M  V30 5700 H 527.819 3.67683 0.872782 0
M  V30 5701 H 528.132 7.63883 1.1706 0
M  V30 5702 H 526.477 6.86875 1.05962 0
M  V30 5703 H 529.668 4.57317 0.998953 0
M  V30 5704 H 529.841 6.37983 1.13498 0
M  V30 5705 N 523.247 -0.488276 1.49845 0
M  V30 5706 C 524.18 -1.60651 1.62069 0
M  V30 5707 C 525.158 -1.5568 0.469308 0
M  V30 5708 O 526.342 -1.75553 0.686551 0
M  V30 5709 C 523.469 -2.99197 1.58741 0
M  V30 5710 C 522.515 -3.22385 2.79232 0
M  V30 5711 S 523.348 -3.04133 4.40753 0
M  V30 5712 C 524.504 -4.45052 4.4009 0
M  V30 5713 H 524.737 -1.50039 2.56662 0
M  V30 5714 H 522.27 -0.674371 1.38894 0
M  V30 5715 H 524.228 -3.79081 1.57506 0
M  V30 5716 H 522.889 -3.07213 0.654136 0
M  V30 5717 H 522.082 -4.23557 2.73159 0
M  V30 5718 H 521.684 -2.50245 2.77945 0
M  V30 5719 H 523.976 -5.37375 4.12594 0
M  V30 5720 H 524.919 -4.56172 5.41583 0
M  V30 5721 H 525.327 -4.26327 3.70008 0
M  V30 5722 N 524.725 -1.39134 -0.740242 0
M  V30 5723 C 525.971 -1.36273 -1.50192 0
M  V30 5724 C 526.304 0.0430136 -1.94152 0
M  V30 5725 O 525.579 1.00691 -1.66408 0
M  V30 5726 C 525.862 -2.33041 -2.74525 0
M  V30 5727 C 525.715 -3.82535 -2.36617 0
M  V30 5728 C 527.034 -2.27723 -3.76604 0
M  V30 5729 H 524.153 -0.496323 -0.544823 0
M  V30 5730 H 526.795 -1.70085 -0.846815 0
M  V30 5731 H 524.945 -2.04337 -3.30422 0
M  V30 5732 H 526.617 -4.21967 -1.86391 0
M  V30 5733 H 524.86 -3.99565 -1.68909 0
M  V30 5734 H 525.531 -4.45723 -3.2563 0
M  V30 5735 H 528.007 -2.53091 -3.30279 0
M  V30 5736 H 526.883 -2.97519 -4.61274 0
M  V30 5737 H 527.144 -1.28049 -4.2315 0
M  V30 5738 N 526.204 0.969867 -1.24223 0
M  V30 5739 C 527.615 1.52717 -1.07399 0
M  V30 5740 C 527.966 1.92956 0.355298 0
M  V30 5741 O 527.091 1.77112 1.2434 0
M  V30 5742 C 527.686 2.77521 -1.94339 0
M  V30 5743 C 526.245 3.29615 -1.81744 0
M  V30 5744 C 525.392 2.02537 -1.89405 0
M  V30 5745 H 528.343 0.788399 -1.37732 0
M  V30 5746 H 528.364 3.50773 -1.47439 0
M  V30 5747 H 527.876 2.48203 -2.98357 0
M  V30 5748 H 525.977 3.63789 -0.805505 0
M  V30 5749 H 526.09 3.98661 -2.65718 0
M  V30 5750 H 524.454 2.17151 -1.33108 0
M  V30 5751 H 525.237 1.75587 -2.94999 0
M  V30 5752 N 527.682 1.05563 1.17022 0
M  V30 5753 C 528.931 0.763036 1.8671 0
M  V30 5754 C 529.244 -0.712857 1.82147 0
M  V30 5755 O 530.45 -1.11955 2.47343 0
M  V30 5756 C 528.906 1.31474 3.35026 0
M  V30 5757 C 528.514 2.82034 3.48081 0
M  V30 5758 C 530.258 1.09935 4.10018 0
M  V30 5759 C 528.165 3.30486 4.90442 0
M  V30 5760 H 527.095 0.281747 0.699382 0
M  V30 5761 H 529.746 1.2734 1.32124 0
M  V30 5762 H 528.128 0.732171 3.89173 0
M  V30 5763 H 529.302 3.46178 3.04133 0
M  V30 5764 H 527.617 3.02156 2.86515 0
M  V30 5765 H 530.214 1.43632 5.15048 0
M  V30 5766 H 530.557 0.0373072 4.16283 0
M  V30 5767 H 531.09 1.64732 3.62089 0
M  V30 5768 H 527.829 4.36137 4.89352 0
M  V30 5769 H 527.349 2.71086 5.35044 0
M  V30 5770 H 529.028 3.25382 5.59227 0
M  V30 5771 N 529.16 -1.33526 0.837174 0
M  V30 5772 C 530.385 -2.0258 0.444545 0
M  V30 5773 C 530.81 -1.6258 -0.946006 0
M  V30 5774 O 530.168 -0.817548 -1.6182 0
M  V30 5775 C 530.216 -3.5605 0.571006 0
M  V30 5776 O 529.32 -4.10422 -0.403431 0
M  V30 5777 H 528.661 -0.638866 0.180958 0
M  V30 5778 H 531.191 -1.70462 1.13154 0
M  V30 5779 H 531.201 -4.05488 0.452024 0
M  V30 5780 H 529.876 -3.84509 1.58512 0
M  V30 5781 H 528.453 -3.72113 -0.242147 0
M  V30 5782 N 530.638 -0.59345 -1.46 0
M  V30 5783 C 531.885 -0.0831523 -2.02329 0
M  V30 5784 C 532.213 1.28093 -1.46364 0
M  V30 5785 O 531.468 1.85526 -0.622793 0
M  V30 5786 C 531.767 0.021178 -3.57394 0
M  V30 5787 C 531.433 -1.27671 -4.32448 0
M  V30 5788 C 530.095 -1.63227 -4.5267 0
M  V30 5789 C 532.447 -2.13511 -4.7546 0
M  V30 5790 C 529.775 -2.84401 -5.1316 0
M  V30 5791 C 532.127 -3.33922 -5.37289 0
M  V30 5792 C 530.791 -3.69747 -5.55737 0
M  V30 5793 H 530.061 -0.0304276 -0.740375 0
M  V30 5794 H 532.708 -0.772239 -1.75239 0
M  V30 5795 H 531.013 0.793454 -3.83682 0
M  V30 5796 H 532.71 0.431942 -3.98667 0
M  V30 5797 H 529.3 -0.989937 -4.17011 0
M  V30 5798 H 533.484 -1.87344 -4.59582 0
M  V30 5799 H 528.74 -3.12282 -5.25633 0
M  V30 5800 H 532.914 -4.00698 -5.69574 0
M  V30 5801 H 530.541 -4.6373 -6.02377 0
M  V30 5802 N 532.116 1.54067 -0.331816 0
M  V30 5803 C 533.362 2.01012 0.268667 0
M  V30 5804 C 533.695 1.2195 1.51136 0
M  V30 5805 O 532.97 0.303972 1.9211 0
M  V30 5806 C 533.253 3.55158 0.59456 0
M  V30 5807 C 533.106 4.4494 -0.659409 0
M  V30 5808 C 534.425 4.16939 1.4089 0
M  V30 5809 H 531.544 0.730698 0.0961756 0
M  V30 5810 H 534.186 1.84593 -0.450031 0
M  V30 5811 H 532.336 3.6928 1.20685 0
M  V30 5812 H 534.008 4.42675 -1.29756 0
M  V30 5813 H 532.251 4.1428 -1.28665 0
M  V30 5814 H 532.922 5.50643 -0.386804 0
M  V30 5815 H 535.398 4.06443 0.891272 0
M  V30 5816 H 534.274 5.24889 1.60569 0
M  V30 5817 H 534.535 3.70798 2.40752 0
M  V30 5818 N 533.594 0.0601682 1.57485 0
M  V30 5819 C 534.841 -0.611594 1.93043 0
M  V30 5820 C 535.169 -1.70317 0.939274 0
M  V30 5821 O 534.424 -1.95644 -0.046996 0
M  V30 5822 C 534.723 -1.23831 3.35262 0
M  V30 5823 C 534.389 -0.274037 4.50066 0
M  V30 5824 C 533.051 -0.00872394 4.81199 0
M  V30 5825 C 535.403 0.386308 5.19766 0
M  V30 5826 C 532.731 0.924218 5.79375 0
M  V30 5827 C 535.083 1.3075 6.1894 0
M  V30 5828 C 533.747 1.58139 6.48497 0
M  V30 5829 H 533.017 -0.223798 0.706396 0
M  V30 5830 H 535.664 0.128566 1.91068 0
M  V30 5831 H 533.969 -2.05394 3.33647 0
M  V30 5832 H 535.666 -1.76517 3.60059 0
M  V30 5833 H 532.256 -0.491008 4.25778 0
M  V30 5834 H 536.44 0.194436 4.95919 0
M  V30 5835 H 531.696 1.1438 6.00606 0
M  V30 5836 H 535.87 1.82519 6.72056 0
M  V30 5837 H 533.497 2.30593 7.24383 0
M  V30 5838 N 535.072 -1.5615 -0.213296 0
M  V30 5839 C 536.02 -1.93953 -1.28394 0
M  V30 5840 C 537.014 -0.822592 -1.48087 0
M  V30 5841 O 538.22 -1.00748 -1.49164 0
M  V30 5842 H 534.595 -0.61648 -0.430646 0
M  V30 5843 H 536.566 -2.83275 -0.937977 0
M  V30 5844 C 535.315 -2.27969 -2.62537 0
M  V30 5845 H 534.638 -3.13432 -2.48194 0
M  V30 5846 H 536.078 -2.58297 -3.36242 0
M  V30 5847 C 534.537 -1.10775 -3.18167 0
M  V30 5848 O 535.067 -0.373201 -3.99963 0
M  V30 5849 N 533.273 -0.889377 -2.76656 0
M  V30 5850 H 532.82 -1.48843 -2.10246 0
M  V30 5851 H 532.778 -0.107 -3.14218 0
M  V30 5852 N 536.55 0.480323 -1.50102 0
M  V30 5853 C 537.966 0.813295 -1.37323 0
M  V30 5854 C 538.166 1.97027 -0.422206 0
M  V30 5855 O 537.222 2.5212 0.138563 0
M  V30 5856 C 538.535 1.13404 -2.78496 0
M  V30 5857 C 540.083 1.24104 -2.87345 0
M  V30 5858 C 540.558 1.59497 -4.29331 0
M  V30 5859 N 542.049 1.66507 -4.32238 0
M  V30 5860 C 542.784 1.95378 -5.39087 0
M  V30 5861 N 542.28 2.22333 -6.56155 0
M  V30 5862 N 544.073 1.96803 -5.26522 0
M  V30 5863 H 536.224 -0.282291 -2.10516 0
M  V30 5864 H 538.487 -0.063752 -0.945854 0
M  V30 5865 H 538.193 0.357064 -3.49883 0
M  V30 5866 H 538.067 2.07251 -3.15162 0
M  V30 5867 H 540.454 2.00871 -2.16183 0
M  V30 5868 H 540.535 0.282593 -2.54234 0
M  V30 5869 H 540.179 0.832736 -5.01027 0
M  V30 5870 H 540.109 2.56477 -4.59921 0
M  V30 5871 H 542.6 1.47753 -3.47818 0
M  V30 5872 H 542.913 2.43611 -7.33399 0
M  V30 5873 H 541.258 2.19745 -6.59346 0
M  V30 5874 H 544.449 1.75235 -4.34062 0
M  V30 5875 H 544.622 2.18969 -6.09883 0
M  V30 5876 N 538.028 1.39524 0.732853 0
M  V30 5877 C 539.275 1.36865 1.49246 0
M  V30 5878 C 539.603 -0.0347118 1.94469 0
M  V30 5879 O 538.858 -1.01596 1.67262 0
M  V30 5880 C 539.157 2.28916 2.74468 0
M  V30 5881 C 538.823 3.76506 2.481 0
M  V30 5882 C 537.485 4.16721 2.40619 0
M  V30 5883 C 539.837 4.69846 2.25598 0
M  V30 5884 C 537.165 5.48334 2.08679 0
M  V30 5885 C 539.517 6.01739 1.95174 0
M  V30 5886 C 538.181 6.41015 1.86163 0
M  V30 5887 H 537.451 0.500824 0.546129 0
M  V30 5888 H 540.098 1.72047 0.840958 0
M  V30 5889 H 538.403 1.86859 3.4437 0
M  V30 5890 H 540.1 2.2415 3.32502 0
M  V30 5891 H 536.69 3.44635 2.54803 0
M  V30 5892 H 540.874 4.39608 2.30344 0
M  V30 5893 H 536.13 5.77685 2.00226 0
M  V30 5894 H 540.304 6.73591 1.76771 0
M  V30 5895 H 537.931 7.42917 1.61179 0
M  V30 5896 N 539.506 -0.963266 1.24736 0
M  V30 5897 C 540.917 -1.52145 1.08207 0
M  V30 5898 C 541.268 -1.93142 -0.345061 0
M  V30 5899 O 540.393 -1.77769 -1.23399 0
M  V30 5900 C 540.988 -2.76486 1.95808 0
M  V30 5901 C 539.547 -3.28646 1.8349 0
M  V30 5902 C 538.694 -2.01529 1.90476 0
M  V30 5903 H 541.645 -0.781083 1.38148 0
M  V30 5904 H 541.666 -3.49986 1.49297 0
M  V30 5905 H 541.178 -2.46617 2.99669 0
M  V30 5906 H 539.279 -3.63357 0.824787 0
M  V30 5907 H 539.392 -3.97246 2.67829 0
M  V30 5908 H 537.756 -2.16442 1.34258 0
M  V30 5909 H 538.539 -1.7402 2.95926 0
M  V30 5910 N 540.985 -1.06182 -1.16461 0
M  V30 5911 C 542.401 -0.785065 -1.38956 0
M  V30 5912 C 542.601 0.616103 -1.9185 0
M  V30 5913 O 541.657 1.37686 -2.11657 0
M  V30 5914 C 542.97 -1.84902 -2.37132 0
M  V30 5915 C 544.518 -1.8724 -2.50819 0
M  V30 5916 C 544.993 -2.92686 -3.52277 0
M  V30 5917 N 546.484 -2.91712 -3.59803 0
M  V30 5918 C 547.219 -3.69949 -4.38093 0
M  V30 5919 N 546.715 -4.58 -5.19815 0
M  V30 5920 N 548.508 -3.58346 -4.33064 0
M  V30 5921 H 540.659 -1.96569 -0.804634 0
M  V30 5922 H 542.922 -0.851747 -0.416211 0
M  V30 5923 H 542.628 -2.85518 -2.0536 0
M  V30 5924 H 542.502 -1.69908 -3.36766 0
M  V30 5925 H 544.889 -0.872827 -2.81897 0
M  V30 5926 H 544.97 -2.06311 -1.51226 0
M  V30 5927 H 544.614 -3.92835 -3.21937 0
M  V30 5928 H 544.544 -2.70864 -4.51598 0
M  V30 5929 H 547.035 -2.27876 -3.01464 0
M  V30 5930 H 547.348 -5.14357 -5.76764 0
M  V30 5931 H 545.693 -4.62056 -5.19162 0
M  V30 5932 H 548.884 -2.88943 -3.68279 0
M  V30 5933 H 549.057 -4.19563 -4.93833 0
M  V30 5934 N 542.463 1.3308 -0.844243 0
M  V30 5935 C 543.396 2.27075 -0.226279 0
M  V30 5936 C 544.374 1.49911 0.629716 0
M  V30 5937 O 545.558 1.79068 0.588803 0
M  V30 5938 C 542.685 3.31767 0.681782 0
M  V30 5939 C 541.731 4.26384 -0.0994565 0
M  V30 5940 S 542.564 5.15186 -1.46094 0
M  V30 5941 C 543.72 6.23405 -0.558319 0
M  V30 5942 H 543.953 2.79141 -1.02312 0
M  V30 5943 H 541.486 1.40452 -0.641292 0
M  V30 5944 H 543.444 3.92566 1.20008 0
M  V30 5945 H 542.105 2.78507 1.45234 0
M  V30 5946 H 541.298 5.00514 0.591733 0
M  V30 5947 H 540.9 3.69949 -0.548991 0
M  V30 5948 H 543.192 6.77069 0.241672 0
M  V30 5949 H 544.135 6.96619 -1.26995 0
M  V30 5950 H 544.543 5.64333 -0.13728 0
M  V30 5951 N 543.941 0.601185 1.45683 0
M  V30 5952 C 545.187 0.0940202 2.02582 0
M  V30 5953 C 545.52 -1.26972 1.46941 0
M  V30 5954 O 544.795 -1.83613 0.641612 0
M  V30 5955 C 545.078 0.0481715 3.60068 0
M  V30 5956 C 544.931 1.44212 4.26055 0
M  V30 5957 C 546.25 -0.642975 4.35378 0
M  V30 5958 H 543.369 0.0356404 0.736138 0
M  V30 5959 H 546.011 0.771929 1.73612 0
M  V30 5960 H 544.161 -0.529128 3.8488 0
M  V30 5961 H 545.833 2.06601 4.12449 0
M  V30 5962 H 544.076 2.00465 3.84703 0
M  V30 5963 H 544.747 1.36234 5.34925 0
M  V30 5964 H 547.223 -0.152351 4.15821 0
M  V30 5965 H 546.099 -0.644141 5.45107 0
M  V30 5966 H 546.36 -1.70785 4.0778 0
M  V30 5967 N 545.419 -1.53889 0.339982 0
M  V30 5968 C 546.835 -1.59595 -0.0120752 0
M  V30 5969 C 547.035 -1.35605 -1.49042 0
M  V30 5970 O 546.091 -1.14856 -2.24865 0
M  V30 5971 C 547.404 -2.9774 0.420898 0
M  V30 5972 C 548.952 -3.1077 0.37294 0
M  V30 5973 C 549.427 -4.51286 0.781327 0
M  V30 5974 N 550.918 -4.57325 0.735374 0
M  V30 5975 C 551.653 -5.64194 1.02336 0
M  V30 5976 N 551.149 -6.7893 1.37933 0
M  V30 5977 N 552.942 -5.54051 0.947838 0
M  V30 5978 H 545.093 -1.67738 1.30299 0
M  V30 5979 H 547.356 -0.785385 0.530918 0
M  V30 5980 H 547.062 -3.20349 1.45152 0
M  V30 5981 H 546.936 -3.76639 -0.205721 0
M  V30 5982 H 549.323 -2.87886 -0.648505 0
M  V30 5983 H 549.404 -2.33939 1.03472 0
M  V30 5984 H 549.048 -4.74905 1.80077 0
M  V30 5985 H 548.978 -5.26511 0.0970679 0
M  V30 5986 H 551.469 -3.74931 0.472773 0
M  V30 5987 H 551.782 -7.56392 1.58402 0
M  V30 5988 H 550.127 -6.80386 1.41774 0
M  V30 5989 H 553.318 -4.63293 0.669115 0
M  V30 5990 H 553.491 -6.37246 1.17563 0
M  V30 5991 N 546.897 -0.0685191 -1.57451 0
M  V30 5992 C 548.174 0.642167 -1.84758 0
M  V30 5993 C 548.554 1.87991 -0.960344 0
M  V30 5994 O 547.902 2.28485 -0.0257894 0
M  V30 5995 C 548.112 0.982946 -3.34872 0
M  V30 5996 C 549.46 1.35784 -4.02303 0
M  V30 5997 O 550.484 1.07477 -3.39598 0
M  V30 5998 O 549.343 1.88681 -5.12895 0
M  V30 5999 H 546.437 0.318625 -0.763156 0
M  V30 6000 H 548.983 -0.0992015 -1.6941 0
M  V30 6001 H 547.755 0.10372 -3.91163 0
M  V30 6002 H 547.378 1.78119 -3.55471 0
M  V30 6003 N 548.375 1.56261 0.205012 0
M  V30 6004 C 549.305 1.96779 1.257 0
M  V30 6005 C 550.286 0.838309 1.48008 0
M  V30 6006 O 551.471 1.10189 1.59913 0
M  V30 6007 C 548.601 2.29876 2.60335 0
M  V30 6008 C 547.555 3.45469 2.52656 0
M  V30 6009 C 546.881 3.64215 3.91473 0
M  V30 6010 C 548.181 4.79954 2.06014 0
M  V30 6011 H 549.875 2.84904 0.920338 0
M  V30 6012 H 547.421 1.37072 0.441277 0
M  V30 6013 H 549.374 2.56814 3.34102 0
M  V30 6014 H 548.098 1.38622 2.95722 0
M  V30 6015 H 546.757 3.18605 1.81345 0
M  V30 6016 H 546.405 2.70309 4.24196 0
M  V30 6017 H 546.105 4.41973 3.87213 0
M  V30 6018 H 547.629 3.93519 4.66878 0
M  V30 6019 H 549.043 5.05989 2.69533 0
M  V30 6020 H 547.44 5.61111 2.12777 0
M  V30 6021 H 548.51 4.74201 1.01297 0
M  V30 6022 N 549.853 -0.472356 1.50355 0
M  V30 6023 C 550.816 -1.5529 1.68576 0
M  V30 6024 C 551.816 -1.50863 0.556511 0
M  V30 6025 O 553.006 -1.53505 0.823516 0
M  V30 6026 C 550.138 -2.94921 1.70981 0
M  V30 6027 H 551.331 -1.40451 2.64978 0
M  V30 6028 H 548.884 -0.698645 1.39816 0
M  V30 6029 H 549.619 -3.15204 0.762675 0
M  V30 6030 H 549.404 -2.99541 2.53017 0
M  V30 6031 H 550.894 -3.73372 1.87037 0
M  V30 6032 N 551.331 -1.39911 -0.725443 0
M  V30 6033 C 552.278 -1.39393 -1.83952 0
M  V30 6034 C 553.248 -0.252249 -1.64173 0
M  V30 6035 O 554.433 -0.44882 -1.85446 0
M  V30 6036 C 551.573 -1.25262 -3.21564 0
M  V30 6037 C 550.686 -2.49054 -3.52982 0
M  V30 6038 C 549.821 -2.27439 -4.80047 0
M  V30 6039 C 548.86 -3.46857 -5.04338 0
M  V30 6040 N 547.997 -3.24499 -6.22611 0
M  V30 6041 H 552.837 -2.34622 -1.83729 0
M  V30 6042 H 550.374 -1.16537 -0.897636 0
M  V30 6043 H 552.332 -1.15077 -4.01015 0
M  V30 6044 H 550.962 -0.33657 -3.21041 0
M  V30 6045 H 550.014 -2.69805 -2.6816 0
M  V30 6046 H 551.326 -3.37973 -3.66846 0
M  V30 6047 H 550.48 -2.14551 -5.67497 0
M  V30 6048 H 549.219 -1.35929 -4.68374 0
M  V30 6049 H 548.224 -3.60232 -4.15346 0
M  V30 6050 H 549.449 -4.3928 -5.17889 0
M  V30 6051 H 547.395 -2.35663 -6.12208 0
M  V30 6052 H 547.312 -4.06978 -6.37106 0
M  V30 6053 H 548.58 -3.15325 -7.12875 0
M  V30 6054 N 552.809 0.956637 -1.25245 0
M  V30 6055 C 553.756 2.053 -1.05454 0
M  V30 6056 C 554.726 1.66062 0.0356889 0
M  V30 6057 O 555.911 1.90415 -0.121099 0
M  V30 6058 C 553.051 3.38391 -0.677191 0
M  V30 6059 C 552.164 3.90758 -1.84206 0
M  V30 6060 C 551.299 5.12165 -1.40926 0
M  V30 6061 C 550.338 5.56757 -2.54338 0
M  V30 6062 N 549.475 6.69376 -2.11848 0
M  V30 6063 H 554.315 2.21562 -1.99284 0
M  V30 6064 H 551.852 1.08578 -0.992434 0
M  V30 6065 H 553.81 4.1488 -0.43938 0
M  V30 6066 H 552.44 3.22021 0.224127 0
M  V30 6067 H 551.492 3.10808 -2.19323 0
M  V30 6068 H 552.804 4.19802 -2.69383 0
M  V30 6069 H 551.958 5.96065 -1.13098 0
M  V30 6070 H 550.697 4.84832 -0.528175 0
M  V30 6071 H 549.702 4.71423 -2.82913 0
M  V30 6072 H 550.927 5.861 -3.43022 0
M  V30 6073 H 548.873 6.43756 -1.26153 0
M  V30 6074 H 548.79 6.97927 -2.90574 0
M  V30 6075 H 550.058 7.5669 -1.87191 0
M  V30 6076 N 554.287 1.06798 1.15896 0
M  V30 6077 C 555.22 0.627503 2.19403 0
M  V30 6078 C 556.198 -0.352352 1.58736 0
M  V30 6079 O 557.382 -0.260111 1.86697 0
M  V30 6080 C 554.509 -0.079356 3.38607 0
M  V30 6081 C 553.555 0.858057 4.17779 0
M  V30 6082 S 554.388 2.35605 4.80885 0
M  V30 6083 C 555.544 1.66083 6.03463 0
M  V30 6084 H 555.777 1.50441 2.56427 0
M  V30 6085 H 553.31 0.881427 1.26768 0
M  V30 6086 H 555.268 -0.48095 4.07673 0
M  V30 6087 H 553.929 -0.932524 2.99938 0
M  V30 6088 H 553.122 0.310108 5.03045 0
M  V30 6089 H 552.724 1.19977 3.54234 0
M  V30 6090 H 555.016 0.969337 6.7053 0
M  V30 6091 H 555.959 2.49159 6.62816 0
M  V30 6092 H 556.367 1.14122 5.52844 0
M  V30 6093 N 555.766 -1.3263 0.851289 0
M  V30 6094 C 556.714 -2.30882 0.282202 0
M  V30 6095 C 557.708 -1.58697 -0.592589 0
M  V30 6096 O 558.914 -1.73461 -0.480768 0
M  V30 6097 H 555.289 -0.748492 0.0725487 0
M  V30 6098 H 557.26 -2.76374 1.12516 0
M  V30 6099 C 556.009 -3.43828 -0.517449 0
M  V30 6100 H 555.332 -3.99532 0.146392 0
M  V30 6101 H 556.772 -4.1474 -0.88128 0
M  V30 6102 C 555.231 -2.90786 -1.70133 0
M  V30 6103 O 555.761 -2.88 -2.80034 0
M  V30 6104 N 553.967 -2.4723 -1.52728 0
M  V30 6105 H 553.514 -2.49695 -0.633257 0
M  V30 6106 H 553.472 -2.12094 -2.32085 0
M  V30 6107 N 557.244 -0.608902 -1.45362 0
M  V30 6108 C 558.191 0.109172 -2.30542 0
M  V30 6109 C 559.161 0.858704 -1.42181 0
M  V30 6110 O 560.346 0.844178 -1.71109 0
M  V30 6111 C 557.486 1.09971 -3.27109 0
M  V30 6112 C 556.599 0.350911 -4.30572 0
M  V30 6113 C 555.734 1.33129 -5.14247 0
M  V30 6114 C 554.773 0.570377 -6.09437 0
M  V30 6115 N 553.91 1.5001 -6.85887 0
M  V30 6116 H 558.75 -0.623195 -2.91411 0
M  V30 6117 H 556.287 -0.319122 -1.43597 0
M  V30 6118 H 558.245 1.68714 -3.81564 0
M  V30 6119 H 556.875 1.79947 -2.67991 0
M  V30 6120 H 555.927 -0.352054 -3.78767 0
M  V30 6121 H 557.239 -0.242725 -4.98209 0
M  V30 6122 H 556.393 1.99074 -5.73109 0
M  V30 6123 H 555.132 1.95885 -4.46632 0
M  V30 6124 H 554.137 -0.102702 -5.49704 0
M  V30 6125 H 555.362 -0.0521607 -6.7908 0
M  V30 6126 H 553.308 2.11529 -6.2096 0
M  V30 6127 H 553.225 0.959934 -7.49881 0
M  V30 6128 H 554.493 2.14909 -7.49289 0
M  V30 6129 N 558.722 1.53707 -0.348139 0
M  V30 6130 C 559.632 2.28881 0.514857 0
M  V30 6131 C 560.648 1.34168 1.10793 0
M  V30 6132 O 561.824 1.6721 1.12262 0
M  V30 6133 C 558.889 3.05042 1.64774 0
M  V30 6134 C 557.95 4.15389 1.08398 0
M  V30 6135 C 557.183 4.87909 2.16287 0
M  V30 6136 O 557.406 4.60137 3.3709 0
M  V30 6137 O 556.34 5.74254 1.80323 0
M  V30 6138 H 560.166 3.03547 -0.0963699 0
M  V30 6139 H 557.751 1.48972 -0.113043 0
M  V30 6140 H 559.633 3.52656 2.30677 0
M  V30 6141 H 558.308 2.33228 2.24469 0
M  V30 6142 H 557.215 3.72068 0.389341 0
M  V30 6143 H 558.548 4.89318 0.531829 0
M  V30 6144 N 560.2 0.0768682 1.57412 0
M  V30 6145 C 561.446 -0.591961 1.93968 0
M  V30 6146 C 561.779 -1.68954 0.9575 0
M  V30 6147 O 561.054 -1.94496 -0.0124675 0
M  V30 6148 C 561.337 -1.16418 3.40762 0
M  V30 6149 C 561.19 -0.0728933 4.49741 0
M  V30 6150 C 562.509 -2.06814 3.88479 0
M  V30 6151 H 559.628 -0.213716 0.705333 0
M  V30 6152 H 562.27 0.14387 1.89455 0
M  V30 6153 H 560.42 -1.79128 3.4474 0
M  V30 6154 H 562.092 0.560446 4.57883 0
M  V30 6155 H 560.335 0.595859 4.29688 0
M  V30 6156 H 561.006 -0.513755 5.49604 0
M  V30 6157 H 563.482 -1.54033 3.8654 0
M  V30 6158 H 562.358 -2.43785 4.91793 0
M  V30 6159 H 562.619 -2.97844 3.26713 0
M  V30 6160 N 561.678 -1.56367 -0.196722 0
M  V30 6161 C 562.626 -1.95304 -1.2633 0
M  V30 6162 C 563.62 -0.838252 -1.47206 0
M  V30 6163 O 564.826 -1.02325 -1.48087 0
M  V30 6164 H 561.201 -0.621013 -0.424083 0
M  V30 6165 H 563.172 -2.84254 -0.907879 0
M  V30 6166 C 561.921 -2.3074 -2.60104 0
M  V30 6167 H 561.244 -3.16047 -2.44856 0
M  V30 6168 H 562.684 -2.61849 -3.33484 0
M  V30 6169 C 561.143 -1.14143 -3.16975 0
M  V30 6170 O 561.673 -0.415602 -3.99544 0
M  V30 6171 N 559.879 -0.91867 -2.75697 0
M  V30 6172 H 559.426 -1.51065 -2.08656 0
M  V30 6173 H 559.384 -0.140321 -3.14087 0
M  V30 6174 N 563.156 0.464375 -1.50603 0
M  V30 6175 C 564.403 1.21596 -1.61928 0
M  V30 6176 C 564.731 1.91804 -0.322737 0
M  V30 6177 O 563.986 1.83065 0.691776 0
M  V30 6178 C 564.285 2.278 -2.75394 0
M  V30 6179 C 563.951 1.74797 -4.1564 0
M  V30 6180 C 562.613 1.60063 -4.53799 0
M  V30 6181 C 564.965 1.35548 -5.03266 0
M  V30 6182 C 562.293 1.04514 -5.77316 0
M  V30 6183 C 564.645 0.814381 -6.27336 0
M  V30 6184 C 563.309 0.653726 -6.64291 0
M  V30 6185 H 562.579 0.444951 -0.592536 0
M  V30 6186 H 565.226 0.510964 -1.84557 0
M  V30 6187 H 563.531 3.04233 -2.46879 0
M  V30 6188 H 565.228 2.85723 -2.81359 0
M  V30 6189 H 561.818 1.87234 -3.8554 0
M  V30 6190 H 566.002 1.45763 -4.74412 0
M  V30 6191 H 561.258 0.908186 -6.04617 0
M  V30 6192 H 565.432 0.501626 -6.94591 0
M  V30 6193 H 563.059 0.22114 -7.59878 0
M  V30 6194 N 564.634 1.40294 0.718013 0
M  V30 6195 C 565.883 1.37746 1.4734 0
M  V30 6196 C 566.196 -0.0180754 1.95592 0
M  V30 6197 O 567.402 -0.166166 2.70991 0
M  V30 6198 C 565.858 2.4208 2.66318 0
M  V30 6199 C 565.466 3.87432 2.24945 0
M  V30 6200 C 567.21 2.48635 3.44065 0
M  V30 6201 C 565.117 4.83368 3.40748 0
M  V30 6202 H 564.047 0.512165 0.553356 0
M  V30 6203 H 566.698 1.66019 0.781661 0
M  V30 6204 H 565.08 2.06903 3.3765 0
M  V30 6205 H 566.254 4.3174 1.6105 0
M  V30 6206 H 564.569 3.8433 1.60249 0
M  V30 6207 H 567.166 3.17499 4.30231 0
M  V30 6208 H 567.509 1.51611 3.87711 0
M  V30 6209 H 568.042 2.82791 2.79775 0
M  V30 6210 H 564.781 5.81716 3.02136 0
M  V30 6211 H 564.301 4.43726 4.03568 0
M  V30 6212 H 565.98 5.03074 4.06848 0
M  V30 6213 N 566.112 -0.949982 1.2575 0
M  V30 6214 C 567.045 -2.047 1.00862 0
M  V30 6215 C 568.023 -1.62475 -0.0636982 0
M  V30 6216 O 569.207 -1.88343 0.0769153 0
M  V30 6217 C 566.334 -3.34597 0.525613 0
M  V30 6218 C 565.38 -3.95788 1.58916 0
M  V30 6219 S 566.213 -4.31175 3.17567 0
M  V30 6220 C 567.369 -5.64183 2.71013 0
M  V30 6221 H 567.602 -2.25497 1.93749 0
M  V30 6222 H 565.135 -1.09022 1.09332 0
M  V30 6223 H 567.093 -4.09716 0.25359 0
M  V30 6224 H 565.754 -3.11758 -0.382828 0
M  V30 6225 H 564.947 -4.89457 1.20201 0
M  V30 6226 H 564.549 -3.27168 1.81211 0
M  V30 6227 H 566.841 -6.42504 2.14928 0
M  V30 6228 H 567.784 -6.07774 3.6334 0
M  V30 6229 H 568.192 -5.2364 2.1086 0
M  V30 6230 N 567.59 -1.07411 -1.15328 0
M  V30 6231 C 569.006 -0.799759 -1.38116 0
M  V30 6232 C 569.206 0.59572 -1.92493 0
M  V30 6233 O 568.262 1.35433 -2.13106 0
M  V30 6234 C 569.575 -1.87407 -2.35158 0
M  V30 6235 C 571.123 -1.89889 -2.48819 0
M  V30 6236 C 571.598 -2.96406 -3.49153 0
M  V30 6237 N 573.089 -2.95512 -3.56689 0
M  V30 6238 C 573.824 -3.74575 -4.34144 0
M  V30 6239 N 573.32 -4.63488 -5.14928 0
M  V30 6240 N 575.113 -3.62919 -4.29239 0
M  V30 6241 H 567.264 -1.97411 -0.78374 0
M  V30 6242 H 569.527 -0.856113 -0.407154 0
M  V30 6243 H 569.233 -2.8768 -2.0232 0
M  V30 6244 H 569.107 -1.73471 -3.34944 0
M  V30 6245 H 571.494 -0.902677 -2.80955 0
M  V30 6246 H 571.575 -2.07904 -1.49029 0
M  V30 6247 H 571.219 -3.96227 -3.17752 0
M  V30 6248 H 571.149 -2.75638 -4.48699 0
M  V30 6249 H 573.64 -2.31061 -2.99031 0
M  V30 6250 H 573.953 -5.20445 -5.71276 0
M  V30 6251 H 572.298 -4.67537 -5.14232 0
M  V30 6252 H 575.489 -2.92833 -3.65194 0
M  V30 6253 H 575.662 -4.24777 -4.89355 0
M  V30 6254 N 569.068 1.32177 -0.85831 0
M  V30 6255 C 570.316 1.96735 -0.462568 0
M  V30 6256 C 570.637 1.6824 0.985911 0
M  V30 6257 O 569.907 0.991564 1.68952 0
M  V30 6258 H 568.487 0.727849 -0.168064 0
M  V30 6259 H 571.149 1.61195 -1.09554 0
M  V30 6260 H 570.245 3.06068 -0.610647 0
M  V30 6261 N 570.547 0.616602 1.45037 0
M  V30 6262 C 571.457 -0.0985401 2.34393 0
M  V30 6263 C 572.473 -0.850971 1.51771 0
M  V30 6264 O 573.649 -0.806521 1.84546 0
M  V30 6265 C 570.714 -1.07748 3.29532 0
M  V30 6266 C 569.775 -0.326022 4.2806 0
M  V30 6267 C 569.008 -1.25833 5.18654 0
M  V30 6268 O 569.231 -2.49652 5.12864 0
M  V30 6269 O 568.165 -0.750512 5.97203 0
M  V30 6270 H 571.991 0.636016 2.96966 0
M  V30 6271 H 569.576 0.376832 1.44569 0
M  V30 6272 H 571.458 -1.64107 3.88133 0
M  V30 6273 H 570.133 -1.79291 2.69512 0
M  V30 6274 H 569.04 0.280253 3.73049 0
M  V30 6275 H 570.373 0.349091 4.9096 0
M  V30 6276 N 572.025 -1.5352 0.356285 0
M  V30 6277 C 573.302 -1.93405 -0.292223 0
M  V30 6278 C 573.682 -1.28901 -1.67176 0
M  V30 6279 O 573.03 -0.444632 -2.24132 0
M  V30 6280 C 573.24 -3.47223 -0.35175 0
M  V30 6281 C 574.588 -4.20389 -0.596534 0
M  V30 6282 O 575.612 -3.53554 -0.433344 0
M  V30 6283 O 574.471 -5.3881 -0.913589 0
M  V30 6284 H 571.565 -0.808666 -0.173172 0
M  V30 6285 H 574.111 -1.64713 0.408391 0
M  V30 6286 H 572.883 -3.86423 0.615841 0
M  V30 6287 H 572.506 -3.8212 -1.09864 0
M  V30 6288 N 573.503 -0.0852151 -1.57369 0
M  V30 6289 C 574.731 0.58946 -1.98325 0
M  V30 6290 C 575.146 1.62333 -0.96403 0
M  V30 6291 O 574.503 1.82438 0.0476395 0
M  V30 6292 C 574.554 1.24604 -3.39347 0
M  V30 6293 O 574.275 0.253532 -4.37366 0
M  V30 6294 C 575.776 2.00726 -3.95252 0
M  V30 6295 H 572.996 0.158783 -0.651942 0
M  V30 6296 H 575.54 -0.161584 -2.03861 0
M  V30 6297 H 573.695 1.94808 -3.34856 0
M  V30 6298 H 574.109 0.726207 -5.19448 0
M  V30 6299 H 575.583 2.42039 -4.96106 0
M  V30 6300 H 576.06 2.86919 -3.32527 0
M  V30 6301 H 576.666 1.3536 -4.03185 0
M  V30 6302 N 574.981 1.5647 0.188427 0
M  V30 6303 C 575.891 1.98285 1.2538 0
M  V30 6304 C 576.907 0.891535 1.49424 0
M  V30 6305 O 578.083 1.19782 1.61908 0
M  V30 6306 C 575.148 2.31965 2.57669 0
M  V30 6307 C 574.209 3.54838 2.41638 0
M  V30 6308 C 573.442 3.86901 3.67618 0
M  V30 6309 O 573.665 3.20163 4.72072 0
M  V30 6310 O 572.599 4.80309 3.62749 0
M  V30 6311 H 576.425 2.89145 0.928912 0
M  V30 6312 H 574.01 1.44112 0.393955 0
M  V30 6313 H 575.892 2.54673 3.35737 0
M  V30 6314 H 574.567 1.44271 2.89771 0
M  V30 6315 H 573.474 3.37369 1.61658 0
M  V30 6316 H 574.807 4.43019 2.14465 0
M  V30 6317 N 576.459 -0.456382 1.50847 0
M  V30 6318 C 577.389 -1.56025 1.73719 0
M  V30 6319 C 578.37 -1.5967 0.586473 0
M  V30 6320 O 579.555 -1.75702 0.827185 0
M  V30 6321 C 576.685 -2.94251 1.84483 0
M  V30 6322 C 575.639 -3.05471 2.99786 0
M  V30 6323 C 574.965 -4.45489 2.95709 0
M  V30 6324 C 576.265 -2.81318 4.40065 0
M  V30 6325 H 577.959 -1.37138 2.66146 0
M  V30 6326 H 575.505 -0.658299 1.28072 0
M  V30 6327 H 577.458 -3.71417 1.99067 0
M  V30 6328 H 576.182 -3.14328 0.886891 0
M  V30 6329 H 574.841 -2.30741 2.84876 0
M  V30 6330 H 574.489 -4.62505 1.97732 0
M  V30 6331 H 574.189 -4.53929 3.73125 0
M  V30 6332 H 575.713 -5.24655 3.12362 0
M  V30 6333 H 577.127 -3.48226 4.55425 0
M  V30 6334 H 575.524 -3.01188 5.19043 0
M  V30 6335 H 576.594 -1.7706 4.51418 0
M  V30 6336 N 577.937 -1.40673 -0.710563 0
M  V30 6337 C 579.214 -1.29718 -1.46398 0
M  V30 6338 C 579.594 0.082177 -2.1094 0
M  V30 6339 O 578.942 1.09536 -2.00534 0
M  V30 6340 C 579.152 -2.43967 -2.49562 0
M  V30 6341 C 580.5 -2.84436 -3.15248 0
M  V30 6342 O 581.524 -2.43597 -2.59883 0
M  V30 6343 O 580.383 -3.55008 -4.1549 0
M  V30 6344 H 577.477 -0.509697 -0.651258 0
M  V30 6345 H 580.023 -1.52603 -0.742312 0
M  V30 6346 H 578.795 -3.36076 -2.0042 0
M  V30 6347 H 578.418 -2.22879 -3.29258 0
M  V30 6348 N 579.415 0.9433 -1.26252 0
M  V30 6349 C 580.831 1.21644 -1.03319 0
M  V30 6350 C 581.031 2.0003 0.242983 0
M  V30 6351 O 580.087 2.33838 0.952688 0
M  V30 6352 C 581.4 1.97978 -2.2633 0
M  V30 6353 C 582.948 2.10978 -2.31209 0
M  V30 6354 C 583.423 2.90713 -3.53907 0
M  V30 6355 N 584.914 2.98287 -3.54371 0
M  V30 6356 C 585.649 3.60406 -4.45976 0
M  V30 6357 N 585.145 4.24043 -5.47868 0
M  V30 6358 N 586.938 3.57658 -4.33633 0
M  V30 6359 H 579.089 0.419221 -2.08222 0
M  V30 6360 H 581.352 0.247995 -0.914988 0
M  V30 6361 H 581.058 1.47788 -3.19142 0
M  V30 6362 H 580.932 2.9865 -2.30408 0
M  V30 6363 H 583.319 2.6036 -1.38913 0
M  V30 6364 H 583.4 1.09575 -2.31143 0
M  V30 6365 H 583.044 2.42018 -4.46531 0
M  V30 6366 H 582.974 3.92367 -3.5122 0
M  V30 6367 H 585.465 2.53044 -2.80673 0
M  V30 6368 H 585.778 4.69334 -6.13959 0
M  V30 6369 H 584.123 4.22637 -5.51728 0
M  V30 6370 H 587.314 3.07134 -3.53251 0
M  V30 6371 H 587.487 4.05782 -5.05218 0
M  V30 6372 N 580.893 1.08022 1.14757 0
M  V30 6373 C 582.121 0.828847 1.89572 0
M  V30 6374 C 582.536 -0.618621 1.78377 0
M  V30 6375 O 581.893 -1.42482 1.1404 0
M  V30 6376 C 581.944 1.23677 3.39685 0
M  V30 6377 O 581.665 2.62746 3.50566 0
M  V30 6378 C 583.166 1.01569 4.31507 0
M  V30 6379 H 580.386 0.299196 0.600602 0
M  V30 6380 H 582.93 1.43846 1.45357 0
M  V30 6381 H 581.085 0.671347 3.81539 0
M  V30 6382 H 581.499 2.79573 4.43778 0
M  V30 6383 H 582.973 1.35055 5.35223 0
M  V30 6384 H 583.45 -0.0475433 4.39174 0
M  V30 6385 H 584.056 1.56636 3.95405 0
M  V30 6386 N 582.371 -1.3172 0.865308 0
M  V30 6387 C 583.618 -1.96876 0.473931 0
M  V30 6388 C 583.946 -1.68425 -0.972786 0
M  V30 6389 O 583.201 -0.970742 -1.69927 0
M  V30 6390 C 583.5 -3.5102 0.672283 0
M  V30 6391 C 583.166 -3.9948 2.09108 0
M  V30 6392 C 581.828 -4.12425 2.4791 0
M  V30 6393 C 584.18 -4.2503 3.0166 0
M  V30 6394 C 581.508 -4.48267 3.78515 0
M  V30 6395 C 583.86 -4.62335 4.31774 0
M  V30 6396 C 582.524 -4.73486 4.70497 0
M  V30 6397 H 581.794 -0.72042 0.173424 0
M  V30 6398 H 584.441 -1.56937 1.0974 0
M  V30 6399 H 582.746 -3.91785 -0.034356 0
M  V30 6400 H 584.443 -3.99475 0.349353 0
M  V30 6401 H 581.033 -3.89898 1.77981 0
M  V30 6402 H 585.217 -4.14529 2.7291 0
M  V30 6403 H 580.473 -4.55097 4.08285 0
M  V30 6404 H 584.647 -4.81058 5.03543 0
M  V30 6405 H 582.274 -5.01016 5.71741 0
M  V30 6406 N 583.85 -0.624285 -1.44708 0
M  V30 6407 C 585.096 -0.126237 -2.02407 0
M  V30 6408 C 585.428 1.24618 -1.48943 0
M  V30 6409 O 584.704 1.82569 -0.670742 0
M  V30 6410 C 584.986 -0.105449 -3.59946 0
M  V30 6411 C 584.84 -1.50972 -4.23707 0
M  V30 6412 C 586.159 0.573629 -4.36346 0
M  V30 6413 H 583.278 -0.0473472 -0.735478 0
M  V30 6414 H 585.92 -0.799452 -1.72362 0
M  V30 6415 H 584.07 0.46783 -3.85673 0
M  V30 6416 H 585.742 -2.13136 -4.0911 0
M  V30 6417 H 583.985 -2.0656 -3.81465 0
M  V30 6418 H 584.656 -1.44727 -5.32689 0
M  V30 6419 H 587.132 0.0861787 -4.16011 0
M  V30 6420 H 586.008 0.557338 -5.46063 0
M  V30 6421 H 586.269 1.64276 -4.10446 0
M  V30 6422 N 585.328 1.53329 -0.364422 0
M  V30 6423 C 586.238 2.29414 0.490552 0
M  V30 6424 C 587.254 1.35335 1.09363 0
M  V30 6425 O 588.43 1.68391 1.10483 0
M  V30 6426 C 585.495 3.06772 1.61529 0
M  V30 6427 C 584.556 4.16516 1.03986 0
M  V30 6428 C 583.789 4.90176 2.111 0
M  V30 6429 O 584.012 4.63687 3.32191 0
M  V30 6430 O 582.946 5.76134 1.74222 0
M  V30 6431 H 586.772 3.03428 -0.12856 0
M  V30 6432 H 584.357 1.48843 -0.128837 0
M  V30 6433 H 586.239 3.55082 2.26924 0
M  V30 6434 H 584.914 2.35596 2.21983 0
M  V30 6435 H 583.821 3.7246 0.349856 0
M  V30 6436 H 585.154 4.89855 0.4799 0
M  V30 6437 N 586.806 0.0935595 1.57322 0
M  V30 6438 C 587.716 -0.880192 2.17462 0
M  V30 6439 C 588.732 -1.31135 1.14366 0
M  V30 6440 O 589.908 -1.37958 1.46729 0
M  V30 6441 C 586.973 -2.12184 2.74188 0
M  V30 6442 C 586.034 -1.74503 3.92234 0
M  V30 6443 C 585.267 -2.92748 4.46245 0
M  V30 6444 O 585.49 -4.07427 3.99198 0
M  V30 6445 O 584.424 -2.71303 5.37288 0
M  V30 6446 H 588.25 -0.398516 3.01074 0
M  V30 6447 H 585.835 -0.130707 1.48827 0
M  V30 6448 H 587.717 -2.84953 3.10451 0
M  V30 6449 H 586.392 -2.59407 1.93623 0
M  V30 6450 H 585.299 -0.989186 3.60785 0
M  V30 6451 H 586.632 -1.32044 4.74157 0
M  V30 6452 N 588.284 -1.56567 -0.180126 0
M  V30 6453 C 589.533 -1.80685 -0.896426 0
M  V30 6454 C 589.846 -0.669335 -1.83791 0
M  V30 6455 O 591.052 -0.795209 -2.59593 0
M  V30 6456 C 589.508 -3.20132 -1.6445 0
M  V30 6457 C 589.116 -4.41727 -0.747088 0
M  V30 6458 C 590.86 -3.53549 -2.34955 0
M  V30 6459 C 588.767 -5.72195 -1.49489 0
M  V30 6460 H 587.697 -0.673758 -0.338477 0
M  V30 6461 H 590.348 -1.8289 -0.149467 0
M  V30 6462 H 588.73 -3.12218 -2.43589 0
M  V30 6463 H 589.904 -4.608 0.00671129 0
M  V30 6464 H 588.219 -4.16122 -0.152134 0
M  V30 6465 H 590.816 -4.48267 -2.91481 0
M  V30 6466 H 591.159 -2.78006 -3.09868 0
M  V30 6467 H 591.692 -3.62976 -1.62768 0
M  V30 6468 H 588.431 -6.50743 -0.788251 0
M  V30 6469 H 587.951 -5.57115 -2.22224 0
M  V30 6470 H 589.63 -6.1384 -2.04472 0
M  V30 6471 N 589.762 0.448376 -1.51087 0
M  V30 6472 C 591.01 1.19635 -1.62886 0
M  V30 6473 C 591.331 1.91977 -0.342024 0
M  V30 6474 O 590.601 1.85094 0.641636 0
M  V30 6475 H 589.181 0.444598 -0.600285 0
M  V30 6476 H 591.843 0.515138 -1.87969 0
M  V30 6477 H 590.939 1.93194 -2.45117 0
M  V30 6478 N 591.24 1.41047 0.703093 0
M  V30 6479 C 592.15 1.44645 1.84703 0
M  V30 6480 C 593.166 0.337778 1.7069 0
M  V30 6481 O 594.342 0.584327 1.92737 0
M  V30 6482 C 591.407 1.31928 3.20618 0
M  V30 6483 C 590.468 2.53047 3.46794 0
M  V30 6484 C 589.701 2.40927 4.76224 0
M  V30 6485 O 589.924 1.42978 5.5219 0
M  V30 6486 O 588.858 3.30543 5.03016 0
M  V30 6487 H 592.684 2.41139 1.84624 0
M  V30 6488 H 590.269 1.22504 0.855167 0
M  V30 6489 H 592.151 1.27092 4.01778 0
M  V30 6490 H 590.826 0.385469 3.21397 0
M  V30 6491 H 589.733 2.6346 2.65593 0
M  V30 6492 H 591.066 3.45231 3.50822 0
M  V30 6493 N 592.718 -0.936591 1.26751 0
M  V30 6494 C 594.129 -1.49816 1.1141 0
M  V30 6495 C 594.48 -1.9383 -0.304015 0
M  V30 6496 O 593.605 -1.80346 -1.196 0
M  V30 6497 C 594.2 -2.72271 2.01629 0
M  V30 6498 C 592.759 -3.2468 1.9042 0
M  V30 6499 C 591.906 -1.97444 1.94708 0
M  V30 6500 H 594.857 -0.751604 1.39773 0
M  V30 6501 H 594.878 -3.46741 1.56688 0
M  V30 6502 H 594.39 -2.40205 3.04833 0
M  V30 6503 H 592.491 -3.61525 0.901674 0
M  V30 6504 H 592.604 -3.91476 2.76195 0
M  V30 6505 H 590.968 -2.13545 1.38818 0
M  V30 6506 H 591.751 -1.67703 2.9955 0
M  V30 6507 N 594.196 -1.08629 -1.14182 0
M  V30 6508 C 595.126 -0.740003 -2.21464 0
M  V30 6509 C 596.107 0.278591 -1.67803 0
M  V30 6510 O 597.292 0.148461 -1.93632 0
M  V30 6511 C 594.422 -0.150952 -3.46972 0
M  V30 6512 C 593.376 -1.09815 -4.13672 0
M  V30 6513 C 592.702 -0.3712 -5.3341 0
M  V30 6514 C 594.002 -2.43722 -4.61949 0
M  V30 6515 H 595.696 -1.63697 -2.50686 0
M  V30 6516 H 593.242 -0.788526 -1.20492 0
M  V30 6517 H 595.195 0.103325 -4.21273 0
M  V30 6518 H 593.919 0.781164 -3.1712 0
M  V30 6519 H 592.578 -1.33756 -3.41328 0
M  V30 6520 H 592.226 0.564792 -4.99819 0
M  V30 6521 H 591.926 -1.00267 -5.78982 0
M  V30 6522 H 593.45 -0.12503 -6.10472 0
M  V30 6523 H 594.864 -2.24034 -5.27714 0
M  V30 6524 H 593.261 -3.02582 -5.18232 0
M  V30 6525 H 594.331 -3.05082 -3.76899 0
M  V30 6526 N 595.674 1.31259 -0.872281 0
M  V30 6527 C 596.604 2.30929 -0.345554 0
M  V30 6528 C 597.585 1.60449 0.5648 0
M  V30 6529 O 598.77 1.8814 0.481335 0
M  V30 6530 C 595.9 3.44348 0.451823 0
M  V30 6531 C 594.854 4.26435 -0.365641 0
M  V30 6532 C 594.18 5.31785 0.557562 0
M  V30 6533 C 595.48 4.97159 -1.60095 0
M  V30 6534 H 597.174 2.75234 -1.17841 0
M  V30 6535 H 594.72 1.3232 -0.568094 0
M  V30 6536 H 596.673 4.13128 0.830854 0
M  V30 6537 H 595.397 2.98816 1.31821 0
M  V30 6538 H 594.056 3.59326 -0.726649 0
M  V30 6539 H 593.704 4.82502 1.4213 0
M  V30 6540 H 593.404 5.87598 0.0144878 0
M  V30 6541 H 594.928 6.03424 0.933387 0
M  V30 6542 H 596.342 5.58523 -1.29323 0
M  V30 6543 H 594.739 5.62779 -2.08327 0
M  V30 6544 H 595.809 4.24012 -2.35249 0
M  V30 6545 N 597.152 0.631951 1.44375 0
M  V30 6546 C 598.102 -0.0943862 2.27805 0
M  V30 6547 C 599.086 -0.815359 1.38711 0
M  V30 6548 O 600.278 -0.701331 1.62513 0
M  V30 6549 C 597.407 -1.07472 3.26044 0
M  V30 6550 C 596.493 -0.353329 4.22626 0
M  V30 6551 N 596.884 0.618512 5.02004 0
M  V30 6552 C 595.182 -0.597662 4.41977 0
M  V30 6553 C 595.883 1.0448 5.7224 0
M  V30 6554 N 594.859 0.383413 5.42246 0
M  V30 6555 H 598.661 0.651672 2.86584 0
M  V30 6556 H 596.175 0.45752 1.55822 0
M  V30 6557 H 598.172 -1.60969 3.84571 0
M  V30 6558 H 596.832 -1.82107 2.68825 0
M  V30 6559 H 597.843 0.996356 5.08226 0
M  V30 6560 H 594.52 -1.32682 3.95856 0
M  V30 6561 H 595.91 1.84773 6.45994 0
M  V30 6562 N 598.631 -1.53133 0.372548 0
M  V30 6563 C 599.561 -2.28876 -0.462412 0
M  V30 6564 C 600.542 -1.31583 -1.07796 0
M  V30 6565 O 601.727 -1.60461 -1.09389 0
M  V30 6566 C 598.857 -3.08317 -1.59868 0
M  V30 6567 C 597.811 -4.13355 -1.11003 0
M  V30 6568 C 597.137 -4.8092 -2.33708 0
M  V30 6569 C 598.437 -5.21955 -0.18983 0
M  V30 6570 H 600.131 -2.9892 0.169511 0
M  V30 6571 H 597.677 -1.43761 0.0829658 0
M  V30 6572 H 599.63 -3.60055 -2.18949 0
M  V30 6573 H 598.354 -2.35976 -2.25794 0
M  V30 6574 H 597.013 -3.62573 -0.541869 0
M  V30 6575 H 596.661 -4.05144 -2.98106 0
M  V30 6576 H 596.361 -5.51904 -2.01682 0
M  V30 6577 H 597.885 -5.35455 -2.93462 0
M  V30 6578 H 599.299 -5.69153 -0.688319 0
M  V30 6579 H 597.696 -6.00087 0.0398887 0
M  V30 6580 H 598.766 -4.78811 0.766057 0
M  V30 6581 N 600.109 -0.101901 -1.5727 0
M  V30 6582 C 601.039 0.851544 -2.17419 0
M  V30 6583 C 602.02 1.28942 -1.10941 0
M  V30 6584 O 603.205 1.35509 -1.39107 0
M  V30 6585 C 600.335 2.10816 -2.75996 0
M  V30 6586 C 599.289 1.80867 -3.87906 0
M  V30 6587 C 598.615 3.13413 -4.33216 0
M  V30 6588 C 599.915 1.0903 -5.10793 0
M  V30 6589 H 601.609 0.350381 -2.97343 0
M  V30 6590 H 599.155 0.16709 -1.43027 0
M  V30 6591 H 601.108 2.77959 -3.16729 0
M  V30 6592 H 599.832 2.63227 -1.93337 0
M  V30 6593 H 598.491 1.16119 -3.47724 0
M  V30 6594 H 598.139 3.63725 -3.47438 0
M  V30 6595 H 597.839 2.94155 -5.08671 0
M  V30 6596 H 599.363 3.81704 -4.76586 0
M  V30 6597 H 600.777 1.66295 -5.48652 0
M  V30 6598 H 599.174 0.99927 -5.91722 0
M  V30 6599 H 600.244 0.0741704 -4.84843 0
M  V30 6600 N 601.587 1.56661 0.17182 0
M  V30 6601 C 603.003 1.50768 0.52357 0
M  V30 6602 C 603.203 0.806072 1.84675 0
M  V30 6603 O 602.259 0.366233 2.4983 0
M  V30 6604 C 603.572 2.955 0.556793 0
M  V30 6605 C 605.12 3.06303 0.644029 0
M  V30 6606 C 605.595 4.52492 0.708148 0
M  V30 6607 N 607.086 4.56737 0.771051 0
M  V30 6608 C 607.821 5.67196 0.841229 0
M  V30 6609 N 607.317 6.87287 0.872272 0
M  V30 6610 N 609.11 5.55165 0.88021 0
M  V30 6611 H 601.261 2.00679 -0.695817 0
M  V30 6612 H 603.524 0.914219 -0.250814 0
M  V30 6613 H 603.23 3.49986 -0.346774 0
M  V30 6614 H 603.104 3.50119 1.40346 0
M  V30 6615 H 605.491 2.51851 1.53802 0
M  V30 6616 H 605.572 2.5477 -0.229297 0
M  V30 6617 H 605.216 5.07575 -0.181585 0
M  V30 6618 H 605.146 5.01781 1.59761 0
M  V30 6619 H 607.637 3.70274 0.755364 0
M  V30 6620 H 607.95 7.6722 0.92698 0
M  V30 6621 H 606.295 6.89898 0.840557 0
M  V30 6622 H 609.486 4.60263 0.852956 0
M  V30 6623 H 609.659 6.41271 0.931439 0
M  V30 6624 N 603.065 -0.440357 1.51323 0
M  V30 6625 C 604.013 -1.55492 1.72988 0
M  V30 6626 C 605.007 -1.58564 0.596138 0
M  V30 6627 O 606.213 -1.62345 0.777443 0
M  V30 6628 H 602.588 -0.516532 0.546533 0
M  V30 6629 H 604.559 -1.34392 2.66423 0
M  V30 6630 C 603.308 -2.93176 1.86931 0
M  V30 6631 H 602.631 -2.91543 2.73574 0
M  V30 6632 H 604.071 -3.70537 2.06103 0
M  V30 6633 C 602.53 -3.30988 0.628365 0
M  V30 6634 O 603.06 -4.01106 -0.218367 0
M  V30 6635 N 601.266 -2.86719 0.473339 0
M  V30 6636 H 600.813 -2.2983 1.16345 0
M  V30 6637 H 600.771 -3.12381 -0.355727 0
M  V30 6638 N 604.543 -1.41418 -0.695603 0
M  V30 6639 C 605.506 -1.42988 -1.79129 0
M  V30 6640 C 606.506 -0.320514 -1.57573 0
M  V30 6641 O 607.696 -0.58039 -1.64247 0
M  V30 6642 C 604.828 -1.24122 -3.175 0
M  V30 6643 H 606.021 -2.40526 -1.7913 0
M  V30 6644 H 603.574 -1.2756 -0.903225 0
M  V30 6645 H 604.309 -0.274253 -3.23138 0
M  V30 6646 H 604.094 -2.045 -3.34547 0
M  V30 6647 H 605.584 -1.28056 -3.97481 0
M  V30 6648 N 606.021 0.929856 -1.27246 0
M  V30 6649 C 607.27 1.67182 -1.12842 0
M  V30 6650 C 607.583 1.9287 0.325666 0
M  V30 6651 O 608.789 2.64999 0.590572 0
M  V30 6652 C 607.245 3.01097 -1.97151 0
M  V30 6653 C 606.853 2.83115 -3.47203 0
M  V30 6654 C 608.597 3.78907 -1.91389 0
M  V30 6655 C 606.504 4.12573 -4.23719 0
M  V30 6656 H 605.434 0.627064 -0.418697 0
M  V30 6657 H 608.085 1.0332 -1.51649 0
M  V30 6658 H 606.467 3.66004 -1.51186 0
M  V30 6659 H 607.641 2.26989 -4.01015 0
M  V30 6660 H 605.956 2.18736 -3.54321 0
M  V30 6661 H 608.553 4.74837 -2.45834 0
M  V30 6662 H 608.896 4.0674 -0.887047 0
M  V30 6663 H 609.429 3.20794 -2.35237 0
M  V30 6664 H 606.168 3.8992 -5.26918 0
M  V30 6665 H 605.688 4.68371 -3.74685 0
M  V30 6666 H 607.367 4.8095 -4.32777 0
M  V30 6667 N 607.499 1.09233 1.13605 0
M  V30 6668 C 608.776 0.739633 1.81077 0
M  V30 6669 C 609.156 -0.775595 1.96336 0
M  V30 6670 O 608.504 -1.69726 1.52988 0
M  V30 6671 C 608.714 1.47636 3.16235 0
M  V30 6672 C 610.062 1.64087 3.91613 0
M  V30 6673 O 611.086 1.43871 3.25852 0
M  V30 6674 O 609.945 1.97511 5.0956 0
M  V30 6675 H 607.039 0.265464 0.783236 0
M  V30 6676 H 609.585 1.19441 1.20549 0
M  V30 6677 H 608.357 2.50818 3.00344 0
M  V30 6678 H 607.98 1.01362 3.84462 0
M  V30 6679 N 608.977 -1.30795 0.87923 0
M  V30 6680 C 609.927 -2.25838 0.313276 0
M  V30 6681 C 610.911 -1.51025 -0.55499 0
M  V30 6682 O 612.103 -1.72413 -0.400353 0
M  V30 6683 C 609.232 -3.39981 -0.476204 0
M  V30 6684 C 608.318 -4.22154 0.405826 0
M  V30 6685 N 608.709 -4.82934 1.50362 0
M  V30 6686 C 607.007 -4.45552 0.199909 0
M  V30 6687 C 607.708 -5.44444 2.0483 0
M  V30 6688 N 606.684 -5.26723 1.34403 0
M  V30 6689 H 610.486 -2.70374 1.15218 0
M  V30 6690 H 608 -1.45168 0.728003 0
M  V30 6691 H 609.997 -4.07108 -0.898251 0
M  V30 6692 H 608.657 -2.96986 -1.31261 0
M  V30 6693 H 609.668 -4.82319 1.8865 0
M  V30 6694 H 606.345 -4.13169 -0.599795 0
M  V30 6695 H 607.735 -6.02701 2.96986 0
M  V30 6696 N 610.455 -0.639598 -1.44038 0
M  V30 6697 C 611.703 -0.147188 -2.01563 0
M  V30 6698 C 612.024 1.2384 -1.50628 0
M  V30 6699 O 611.294 1.82452 -0.713316 0
M  V30 6700 H 609.874 -0.0514231 -0.745228 0
M  V30 6701 H 612.536 -0.828205 -1.76428 0
M  V30 6702 H 611.632 -0.121358 -3.11864 0
M  V30 6703 N 611.933 1.52934 -0.380664 0
M  V30 6704 C 613.182 2.00651 0.205477 0
M  V30 6705 C 613.495 1.27164 1.48623 0
M  V30 6706 O 614.701 1.65547 2.15189 0
M  V30 6707 C 613.157 3.57479 0.416726 0
M  V30 6708 C 612.765 4.39857 -0.850268 0
M  V30 6709 C 614.509 4.13509 0.959702 0
M  V30 6710 C 612.416 5.88269 -0.607773 0
M  V30 6711 H 611.346 0.749684 0.0805614 0
M  V30 6712 H 613.997 1.76508 -0.501732 0
M  V30 6713 H 612.379 3.77836 1.18557 0
M  V30 6714 H 613.553 4.31269 -1.62307 0
M  V30 6715 H 611.868 3.95005 -1.31756 0
M  V30 6716 H 614.465 5.22039 1.15669 0
M  V30 6717 H 614.808 3.69054 1.92626 0
M  V30 6718 H 615.341 3.9701 0.250645 0
M  V30 6719 H 612.08 6.3703 -1.54509 0
M  V30 6720 H 611.6 5.99667 0.126247 0
M  V30 6721 H 613.279 6.46558 -0.239014 0
M  V30 6722 N 613.412 0.11024 1.57214 0
M  V30 6723 C 614.322 -0.857077 2.18383 0
M  V30 6724 C 615.338 -1.29915 1.1575 0
M  V30 6725 O 616.514 -1.36394 1.48184 0
M  V30 6726 C 613.579 -2.09264 2.76423 0
M  V30 6727 C 612.64 -1.70333 3.94063 0
M  V30 6728 C 611.873 -2.87999 4.49324 0
M  V30 6729 O 612.096 -4.0317 4.03497 0
M  V30 6730 O 611.03 -2.6559 5.40135 0
M  V30 6731 H 614.856 -0.366561 3.0148 0
M  V30 6732 H 612.441 -0.114914 1.48957 0
M  V30 6733 H 614.323 -2.81644 3.13456 0
M  V30 6734 H 612.998 -2.57339 1.96363 0
M  V30 6735 H 611.905 -0.950864 3.61814 0
M  V30 6736 H 613.238 -1.27007 4.75531 0
M  V30 6737 N 614.89 -1.56749 -0.16351 0
M  V30 6738 C 616.301 -1.72039 -0.725216 0
M  V30 6739 C 616.652 -0.72202 -1.82432 0
M  V30 6740 O 615.777 0.114942 -2.16095 0
M  V30 6741 C 616.372 -3.11932 -1.32227 0
M  V30 6742 C 614.931 -3.28879 -1.83072 0
M  V30 6743 C 614.078 -2.67984 -0.712716 0
M  V30 6744 H 617.029 -1.58579 0.0619772 0
M  V30 6745 H 617.05 -3.11015 -2.19202 0
M  V30 6746 H 616.562 -3.84572 -0.522103 0
M  V30 6747 H 614.663 -2.61209 -2.65708 0
M  V30 6748 H 614.776 -4.36688 -1.97079 0
M  V30 6749 H 613.14 -2.28005 -1.13515 0
M  V30 6750 H 613.923 -3.43216 0.0757361 0
M  V30 6751 N 616.368 0.432326 -1.51554 0
M  V30 6752 C 617.315 1.52512 -1.7323 0
M  V30 6753 C 618.285 1.55863 -0.5741 0
M  V30 6754 O 619.47 1.72796 -0.809093 0
M  V30 6755 C 616.61 2.90183 -1.86783 0
M  V30 6756 C 615.723 2.96322 -3.14352 0
M  V30 6757 C 614.858 4.25147 -3.18471 0
M  V30 6758 C 613.897 4.25172 -4.40335 0
M  V30 6759 N 613.034 5.45529 -4.41975 0
M  V30 6760 H 617.874 1.33332 -2.66508 0
M  V30 6761 H 615.411 0.647613 -1.32077 0
M  V30 6762 H 617.369 3.70071 -1.92623 0
M  V30 6763 H 615.999 3.0791 -0.969087 0
M  V30 6764 H 615.051 2.09066 -3.17798 0
M  V30 6765 H 616.363 2.92203 -4.04251 0
M  V30 6766 H 615.517 5.13411 -3.23255 0
M  V30 6767 H 614.256 4.31929 -2.2647 0
M  V30 6768 H 613.261 3.353 -4.35723 0
M  V30 6769 H 614.486 4.20049 -5.33606 0
M  V30 6770 H 612.432 5.53024 -3.52847 0
M  V30 6771 H 612.349 5.43311 -5.25689 0
M  V30 6772 H 613.617 6.35812 -4.50958 0
M  V30 6773 N 617.846 1.41785 0.688094 0
M  V30 6774 C 618.756 1.46596 1.83158 0
M  V30 6775 C 619.772 0.355862 1.70322 0
M  V30 6776 O 620.948 0.604737 1.92106 0
M  V30 6777 C 618.013 1.35322 3.192 0
M  V30 6778 C 617.074 2.56711 3.4409 0
M  V30 6779 C 616.307 2.45965 4.73642 0
M  V30 6780 O 616.53 1.48827 5.50642 0
M  V30 6781 O 615.464 3.35859 4.99482 0
M  V30 6782 H 619.29 2.43083 1.82056 0
M  V30 6783 H 616.875 1.23404 0.842126 0
M  V30 6784 H 618.757 1.31347 4.00407 0
M  V30 6785 H 617.432 0.419536 3.2097 0
M  V30 6786 H 616.339 2.66262 2.62784 0
M  V30 6787 H 617.672 3.48933 3.47141 0
M  V30 6788 N 619.324 -0.923095 1.27737 0
M  V30 6789 C 620.234 -2.05765 1.12685 0
M  V30 6790 C 621.25 -1.73911 0.0557197 0
M  V30 6791 O 622.426 -1.99674 0.263137 0
M  V30 6792 C 619.491 -3.37804 0.780363 0
M  V30 6793 C 618.552 -3.83326 1.93286 0
M  V30 6794 C 617.785 -5.09064 1.60281 0
M  V30 6795 O 618.008 -5.6809 0.512828 0
M  V30 6796 O 616.942 -5.50071 2.44347 0
M  V30 6797 H 620.768 -2.21378 2.07907 0
M  V30 6798 H 618.353 -1.04299 1.06968 0
M  V30 6799 H 620.235 -4.17097 0.600668 0
M  V30 6800 H 618.91 -3.23387 -0.142291 0
M  V30 6801 H 617.817 -3.049 2.16764 0
M  V30 6802 H 619.15 -4.02292 2.83588 0
M  V30 6803 N 620.802 -1.09834 -1.13024 0
M  V30 6804 C 622.218 -0.828875 -1.36388 0
M  V30 6805 C 622.418 0.554756 -1.93713 0
M  V30 6806 O 621.474 1.30882 -2.15931 0
M  V30 6807 C 622.787 -1.92352 -2.3113 0
M  V30 6808 C 624.335 -1.95124 -2.44735 0
M  V30 6809 C 624.81 -3.03745 -3.42787 0
M  V30 6810 N 626.301 -3.03012 -3.5034 0
M  V30 6811 C 627.036 -3.83699 -4.26101 0
M  V30 6812 N 626.532 -4.74306 -5.04981 0
M  V30 6813 N 628.325 -3.71942 -4.21445 0
M  V30 6814 H 620.476 -1.99029 -0.74169 0
M  V30 6815 H 622.739 -0.864557 -0.388903 0
M  V30 6816 H 622.445 -2.91906 -1.96172 0
M  V30 6817 H 622.319 -1.80536 -3.3119 0
M  V30 6818 H 624.706 -0.962069 -2.78977 0
M  V30 6819 H 624.787 -2.11018 -1.44586 0
M  V30 6820 H 624.431 -4.02878 -3.09276 0
M  V30 6821 H 624.361 -2.85094 -4.42752 0
M  V30 6822 H 626.852 -2.37352 -2.94062 0
M  V30 6823 H 627.165 -5.32446 -5.60108 0
M  V30 6824 H 625.51 -4.78339 -5.04199 0
M  V30 6825 H 628.701 -3.00513 -3.589 0
M  V30 6826 H 628.874 -4.35062 -4.80235 0
M  V30 6827 N 622.28 1.30327 -0.886154 0
M  V30 6828 C 623.529 1.95373 -0.501243 0
M  V30 6829 C 623.842 1.70722 0.954634 0
M  V30 6830 O 625.048 2.29761 1.44644 0
M  V30 6831 C 623.504 3.49828 -0.845493 0
M  V30 6832 C 623.112 3.83296 -2.31922 0
M  V30 6833 C 624.856 4.2118 -0.529838 0
M  V30 6834 C 622.763 5.30935 -2.60504 0
M  V30 6835 H 621.693 0.731274 -0.183722 0
M  V30 6836 H 624.344 1.48258 -1.08129 0
M  V30 6837 H 622.726 3.95522 -0.19452 0
M  V30 6838 H 623.9 3.48508 -3.01461 0
M  V30 6839 H 622.215 3.2505 -2.60253 0
M  V30 6840 H 624.812 5.29825 -0.720401 0
M  V30 6841 H 625.155 4.12902 0.530828 0
M  V30 6842 H 625.688 3.81173 -1.13806 0
M  V30 6843 H 622.427 5.44265 -3.65316 0
M  V30 6844 H 621.947 5.67019 -1.95575 0
M  V30 6845 H 623.626 5.98381 -2.46066 0
M  V30 6846 N 623.758 0.647228 1.43697 0
M  V30 6847 C 624.721 -0.0385101 2.29168 0
M  V30 6848 C 625.721 -0.756487 1.41894 0
M  V30 6849 O 626.911 -0.598641 1.63591 0
M  V30 6850 C 624.043 -1.06524 3.23829 0
M  V30 6851 H 625.236 0.713445 2.9129 0
M  V30 6852 H 622.789 0.408153 1.50877 0
M  V30 6853 H 623.524 -1.84664 2.66589 0
M  V30 6854 H 623.309 -0.554147 3.88164 0
M  V30 6855 H 624.799 -1.54432 3.87996 0
M  V30 6856 N 625.236 -1.5273 0.388769 0
M  V30 6857 C 626.183 -2.26437 -0.446639 0
M  V30 6858 C 627.153 -1.28025 -1.05824 0
M  V30 6859 O 628.338 -1.56852 -1.08637 0
M  V30 6860 C 625.478 -3.07407 -1.56828 0
M  V30 6861 C 624.591 -4.20747 -0.979589 0
M  V30 6862 C 623.726 -4.89113 -2.07224 0
M  V30 6863 C 622.765 -5.94447 -1.45942 0
M  V30 6864 N 621.902 -6.56411 -2.49135 0
M  V30 6865 H 626.742 -2.97404 0.18837 0
M  V30 6866 H 624.279 -1.46727 0.104725 0
M  V30 6867 H 626.237 -3.52642 -2.22934 0
M  V30 6868 H 624.867 -2.3865 -2.17361 0
M  V30 6869 H 623.919 -3.7983 -0.208151 0
M  V30 6870 H 625.231 -4.9637 -0.491747 0
M  V30 6871 H 624.385 -5.3765 -2.81101 0
M  V30 6872 H 623.124 -4.13013 -2.59368 0
M  V30 6873 H 622.129 -5.4525 -0.705894 0
M  V30 6874 H 623.354 -6.7248 -0.945932 0
M  V30 6875 H 621.3 -5.83152 -3.00449 0
M  V30 6876 H 621.217 -7.27645 -2.05105 0
M  V30 6877 H 622.485 -7.09592 -3.22644 0
M  V30 6878 N 626.714 -0.118576 -1.57153 0
M  V30 6879 C 627.962 0.538461 -1.94795 0
M  V30 6880 C 628.283 1.67243 -1.00274 0
M  V30 6881 O 627.553 1.95811 -0.0589692 0
M  V30 6882 H 626.133 0.201904 -0.719197 0
M  V30 6883 H 628.795 -0.187418 -1.93997 0
M  V30 6884 H 627.891 0.933315 -2.97818 0
M  V30 6885 N 628.193 1.56834 0.155195 0
M  V30 6886 C 629.14 1.97646 1.19184 0
M  V30 6887 C 630.11 0.842788 1.4313 0
M  V30 6888 O 631.295 1.1042 1.55602 0
M  V30 6889 C 628.435 2.35527 2.52232 0
M  V30 6890 C 627.548 3.62147 2.35529 0
M  V30 6891 C 626.683 3.89167 3.61555 0
M  V30 6892 C 625.722 5.09084 3.39853 0
M  V30 6893 N 624.859 5.32156 4.5799 0
M  V30 6894 H 629.699 2.8601 0.836802 0
M  V30 6895 H 627.236 1.41507 0.401758 0
M  V30 6896 H 629.194 2.55516 3.29799 0
M  V30 6897 H 627.824 1.50253 2.85699 0
M  V30 6898 H 626.876 3.4998 1.49057 0
M  V30 6899 H 628.188 4.49871 2.15448 0
M  V30 6900 H 627.342 4.09611 4.47553 0
M  V30 6901 H 626.081 2.9985 3.84632 0
M  V30 6902 H 625.086 4.88522 2.52243 0
M  V30 6903 H 626.311 5.99947 3.18183 0
M  V30 6904 H 624.257 4.45791 4.81255 0
M  V30 6905 H 624.174 6.14133 4.40882 0
M  V30 6906 H 625.442 5.57091 5.45225 0
M  V30 6907 N 629.671 -0.424282 1.51781 0
M  V30 6908 C 631.082 -1.00368 1.57427 0
M  V30 6909 C 631.433 -1.91962 0.40558 0
M  V30 6910 O 630.558 -2.111 -0.47601 0
M  V30 6911 C 631.153 -1.82707 2.85313 0
M  V30 6912 C 629.712 -2.35675 2.93487 0
M  V30 6913 C 628.859 -1.1524 2.5222 0
M  V30 6914 H 631.81 -0.205064 1.5737 0
M  V30 6915 H 631.831 -2.68294 2.69812 0
M  V30 6916 H 631.343 -1.16017 3.70353 0
M  V30 6917 H 629.444 -3.05781 2.12906 0
M  V30 6918 H 629.557 -2.67578 3.97415 0
M  V30 6919 H 627.921 -1.50174 2.05718 0
M  V30 6920 H 628.704 -0.5014 3.39619 0
M  V30 6921 N 631.149 -1.42148 -0.680565 0
M  V30 6922 C 632.56 -1.3768 -1.26099 0
M  V30 6923 C 632.911 -0.0672348 -1.96085 0
M  V30 6924 O 632.036 0.834172 -1.99676 0
M  V30 6925 C 632.631 -2.49387 -2.29328 0
M  V30 6926 C 631.19 -2.4827 -2.82911 0
M  V30 6927 C 630.337 -2.2847 -1.57152 0
M  V30 6928 H 633.288 -1.51446 -0.474326 0
M  V30 6929 H 633.309 -2.19307 -3.10941 0
M  V30 6930 H 632.821 -3.44686 -1.78363 0
M  V30 6931 H 630.922 -1.56773 -3.38013 0
M  V30 6932 H 631.035 -3.45109 -3.3232 0
M  V30 6933 H 629.399 -1.76623 -1.83511 0
M  V30 6934 H 630.182 -3.25816 -1.0816 0
M  V30 6935 N 632.627 0.916307 -1.28225 0
M  V30 6936 C 633.876 1.65975 -1.14608 0
M  V30 6937 C 634.189 1.93204 0.305191 0
M  V30 6938 O 635.395 2.65611 0.562432 0
M  V30 6939 C 633.851 2.98989 -2.00333 0
M  V30 6940 C 633.459 2.79417 -3.50186 0
M  V30 6941 C 635.203 3.76856 -1.95397 0
M  V30 6942 C 633.11 4.08056 -4.28071 0
M  V30 6943 H 632.04 0.622587 -0.425324 0
M  V30 6944 H 634.691 1.01705 -1.52736 0
M  V30 6945 H 633.073 3.6438 -1.5506 0
M  V30 6946 H 634.247 2.22723 -4.034 0
M  V30 6947 H 632.562 2.14966 -3.56621 0
M  V30 6948 H 635.159 4.72203 -2.50856 0
M  V30 6949 H 635.502 4.05776 -0.930137 0
M  V30 6950 H 636.035 3.1828 -2.38626 0
M  V30 6951 H 632.774 3.8431 -5.31024 0
M  V30 6952 H 632.294 4.64371 -3.79631 0
M  V30 6953 H 633.973 4.76333 -4.37854 0
M  V30 6954 N 634.105 1.10431 1.1244 0
M  V30 6955 C 635.353 0.845045 1.83585 0
M  V30 6956 C 635.674 -0.631168 1.84503 0
M  V30 6957 O 634.944 -1.45825 1.30813 0
M  V30 6958 H 633.524 0.309628 0.679809 0
M  V30 6959 H 636.186 1.39458 1.36153 0
M  V30 6960 H 635.282 1.20786 2.8778 0
M  V30 6961 N 635.583 -1.29855 0.893053 0
M  V30 6962 C 636.811 -1.99976 0.530788 0
M  V30 6963 C 637.226 -1.66889 -0.882799 0
M  V30 6964 O 636.583 -0.910352 -1.58173 0
M  V30 6965 C 636.634 -3.54547 0.705587 0
M  V30 6966 O 636.355 -3.86458 2.06353 0
M  V30 6967 C 637.856 -4.41937 0.347387 0
M  V30 6968 H 635.076 -0.639129 0.204339 0
M  V30 6969 H 637.62 -1.65549 1.20057 0
M  V30 6970 H 635.775 -3.87311 0.0830685 0
M  V30 6971 H 636.189 -4.81146 2.08803 0
M  V30 6972 H 637.663 -5.4954 0.520557 0
M  V30 6973 H 638.14 -4.33339 -0.715139 0
M  V30 6974 H 638.746 -4.14633 0.946567 0
M  V30 6975 N 637.061 -0.65484 -1.43351 0
M  V30 6976 C 637.991 0.0221809 -2.33489 0
M  V30 6977 C 638.972 0.810272 -1.49561 0
M  V30 6978 O 640.157 0.771426 -1.78221 0
M  V30 6979 C 637.287 0.988117 -3.32947 0
M  V30 6980 C 636.241 0.310026 -4.26876 0
M  V30 6981 C 635.567 1.38752 -5.16384 0
M  V30 6982 C 636.867 -0.798589 -5.16159 0
M  V30 6983 H 638.561 -0.730571 -2.9035 0
M  V30 6984 H 636.107 -0.352773 -1.39612 0
M  V30 6985 H 638.06 1.47067 -3.94904 0
M  V30 6986 H 636.784 1.77205 -2.74346 0
M  V30 6987 H 635.443 -0.152097 -3.66284 0
M  V30 6988 H 635.091 2.16293 -4.54121 0
M  V30 6989 H 634.791 0.939051 -5.80048 0
M  V30 6990 H 636.315 1.87141 -5.81215 0
M  V30 6991 H 637.729 -0.398126 -5.71916 0
M  V30 6992 H 636.126 -1.17163 -5.88552 0
M  V30 6993 H 637.196 -1.65588 -4.55751 0
M  V30 6994 N 638.539 1.52521 -0.396863 0
M  V30 6995 C 639.788 2.00857 0.184184 0
M  V30 6996 C 640.101 1.28733 1.47265 0
M  V30 6997 O 641.307 1.67821 2.13421 0
M  V30 6998 C 639.763 3.57901 0.378787 0
M  V30 6999 C 639.371 4.38931 -0.896873 0
M  V30 7000 C 641.115 4.14504 0.915789 0
M  V30 7001 C 639.022 5.87591 -0.670133 0
M  V30 7002 H 637.952 0.750496 0.0726055 0
M  V30 7003 H 640.603 1.75965 -0.520425 0
M  V30 7004 H 638.985 3.79072 1.14543 0
M  V30 7005 H 640.159 4.29524 -1.66872 0
M  V30 7006 H 638.474 3.93586 -1.35938 0
M  V30 7007 H 641.071 5.23236 1.10126 0
M  V30 7008 H 641.414 3.71076 1.88701 0
M  V30 7009 H 641.947 3.97253 0.208523 0
M  V30 7010 H 638.686 6.35355 -1.61257 0
M  V30 7011 H 638.206 5.99767 0.0626368 0
M  V30 7012 H 639.885 6.46268 -0.307577 0
M  V30 7013 N 640.017 0.126909 1.57088 0
M  V30 7014 C 640.947 -0.816847 2.18746 0
M  V30 7015 C 641.928 -1.27161 1.12979 0
M  V30 7016 O 643.113 -1.33279 1.41246 0
M  V30 7017 C 640.243 -2.06398 2.79315 0
M  V30 7018 C 639.197 -1.74673 3.90735 0
M  V30 7019 C 638.523 -3.06482 4.38147 0
M  V30 7020 C 639.823 -1.0089 5.12463 0
M  V30 7021 H 641.517 -0.303032 2.97863 0
M  V30 7022 H 639.063 -0.144314 1.43275 0
M  V30 7023 H 641.016 -2.72885 3.2111 0
M  V30 7024 H 639.74 -2.60118 1.975 0
M  V30 7025 H 638.399 -1.10572 3.49527 0
M  V30 7026 H 638.047 -3.58152 3.5318 0
M  V30 7027 H 637.747 -2.86025 5.13287 0
M  V30 7028 H 639.271 -3.74073 4.82599 0
M  V30 7029 H 640.685 -1.57546 5.51228 0
M  V30 7030 H 639.082 -0.905006 5.93237 0
M  V30 7031 H 640.152 0.00297335 4.849 0
M  V30 7032 N 641.495 -1.56914 -0.146875 0
M  V30 7033 C 642.72 -1.87881 -0.878386 0
M  V30 7034 C 643.145 -0.715945 -1.73942 0
M  V30 7035 O 642.503 0.334447 -1.78189 0
M  V30 7036 C 642.551 -3.17431 -1.71084 0
M  V30 7037 O 641.655 -3.01374 -2.81509 0
M  V30 7038 H 640.996 -0.617289 -0.244644 0
M  V30 7039 H 643.526 -2.04136 -0.137654 0
M  V30 7040 H 643.536 -3.49455 -2.10582 0
M  V30 7041 H 642.211 -4.01671 -1.07856 0
M  V30 7042 H 640.788 -2.80758 -2.45416 0
M  V30 7043 N 642.974 0.416227 -1.52004 0
M  V30 7044 C 643.937 1.48926 -1.74223 0
M  V30 7045 C 644.937 1.48693 -0.612119 0
M  V30 7046 O 646.127 1.50343 -0.879921 0
M  V30 7047 C 643.259 2.88372 -1.81809 0
M  V30 7048 H 644.452 1.3052 -2.70008 0
M  V30 7049 H 642.005 0.646271 -1.42313 0
M  V30 7050 H 642.74 3.12157 -0.879135 0
M  V30 7051 H 642.525 2.89944 -2.6396 0
M  V30 7052 H 644.015 3.66173 -2.00766 0
M  V30 7053 N 644.452 1.42507 0.673017 0
M  V30 7054 C 645.868 1.25472 0.986355 0
M  V30 7055 C 646.068 0.160181 2.00862 0
M  V30 7056 O 645.124 -0.467993 2.48125 0
M  V30 7057 C 646.437 2.61219 1.48947 0
M  V30 7058 C 647.985 2.68589 1.60715 0
M  V30 7059 C 648.46 4.04707 2.14422 0
M  V30 7060 N 649.951 4.0667 2.21752 0
M  V30 7061 C 650.686 5.0881 2.64386 0
M  V30 7062 N 650.182 6.21332 3.0646 0
M  V30 7063 N 651.975 4.96166 2.64151 0
M  V30 7064 H 644.126 2.124 -0.00378532 0
M  V30 7065 H 646.389 0.946046 0.0608367 0
M  V30 7066 H 646.095 3.42179 0.812812 0
M  V30 7067 H 645.969 2.85261 2.46791 0
M  V30 7068 H 648.356 1.87974 2.27486 0
M  V30 7069 H 648.437 2.48333 0.613552 0
M  V30 7070 H 648.081 4.8578 1.48258 0
M  V30 7071 H 648.011 4.22315 3.14575 0
M  V30 7072 H 650.502 3.25438 1.92089 0
M  V30 7073 H 650.815 6.95118 3.37684 0
M  V30 7074 H 649.16 6.24835 3.04313 0
M  V30 7075 H 652.351 4.07334 2.30644 0
M  V30 7076 H 652.524 5.759 2.97057 0
M  V30 7077 N 645.93 -0.909495 1.28709 0
M  V30 7078 C 646.88 -1.9991 1.09636 0
M  V30 7079 C 647.864 -1.60889 0.01872 0
M  V30 7080 O 649.056 -1.75374 0.239338 0
M  V30 7081 C 646.185 -3.34675 0.764702 0
M  V30 7082 C 645.271 -3.80085 1.8814 0
M  V30 7083 N 645.662 -3.97824 3.12361 0
M  V30 7084 C 643.96 -4.09278 1.77221 0
M  V30 7085 C 644.661 -4.35928 3.85151 0
M  V30 7086 N 643.637 -4.44426 3.13028 0
M  V30 7087 H 647.439 -2.11681 2.03883 0
M  V30 7088 H 644.953 -1.09763 1.1969 0
M  V30 7089 H 646.95 -4.12426 0.609132 0
M  V30 7090 H 645.61 -3.24255 -0.169952 0
M  V30 7091 H 646.621 -3.83626 3.47925 0
M  V30 7092 H 643.298 -4.0747 0.909621 0
M  V30 7093 H 644.688 -4.57581 4.92006 0
M  V30 7094 N 647.408 -1.11026 -1.11852 0
M  V30 7095 C 648.318 -0.777252 -2.2135 0
M  V30 7096 C 649.334 0.227821 -1.72502 0
M  V30 7097 O 650.51 0.0650587 -2.01295 0
M  V30 7098 C 647.575 -0.220668 -3.45997 0
M  V30 7099 C 646.636 -1.2838 -4.09655 0
M  V30 7100 C 645.869 -0.753678 -5.28352 0
M  V30 7101 O 646.092 0.417779 -5.68868 0
M  V30 7102 O 645.026 -1.51647 -5.82483 0
M  V30 7103 H 648.852 -1.69141 -2.5224 0
M  V30 7104 H 646.437 -0.885836 -1.20305 0
M  V30 7105 H 648.319 0.0855756 -4.21313 0
M  V30 7106 H 646.994 0.666262 -3.16769 0
M  V30 7107 H 645.901 -1.64299 -3.3609 0
M  V30 7108 H 647.234 -2.14396 -4.43052 0
M  V30 7109 N 648.886 1.2938 -0.899927 0
M  V30 7110 C 650.134 1.95164 -0.524924 0
M  V30 7111 C 650.455 1.71292 0.931888 0
M  V30 7112 O 649.725 1.04481 1.65712 0
M  V30 7113 H 648.305 0.722133 -0.191135 0
M  V30 7114 H 650.967 1.57628 -1.14627 0
M  V30 7115 H 650.063 3.0397 -0.707711 0
M  V30 7116 N 650.364 0.662433 1.43002 0
M  V30 7117 C 651.312 -0.035345 2.32573 0
M  V30 7118 C 652.306 -0.803505 1.49131 0
M  V30 7119 O 653.512 -0.712865 1.65282 0
M  V30 7120 H 649.887 -0.0302194 0.751393 0
M  V30 7121 H 651.858 0.737686 2.89138 0
M  V30 7122 C 650.607 -0.981575 3.33557 0
M  V30 7123 H 649.93 -0.399914 3.97795 0
M  V30 7124 H 651.37 -1.43873 3.98844 0
M  V30 7125 C 649.829 -2.08204 2.64863 0
M  V30 7126 O 650.359 -3.16698 2.47113 0
M  V30 7127 N 648.565 -1.85022 2.24088 0
M  V30 7128 H 648.112 -0.967909 2.38724 0
M  V30 7129 H 648.07 -2.58845 1.78457 0
M  V30 7130 N 651.842 -1.52309 0.404946 0
M  V30 7131 C 652.79 -2.28452 -0.437321 0
M  V30 7132 C 653.784 -1.32975 -1.04948 0
M  V30 7133 O 654.99 -1.50451 -0.988159 0
M  V30 7134 H 651.365 -0.734824 -0.159805 0
M  V30 7135 H 653.336 -2.97542 0.22615 0
M  V30 7136 C 652.085 -3.11536 -1.54404 0
M  V30 7137 H 651.408 -3.84871 -1.08233 0
M  V30 7138 H 652.848 -3.67926 -2.10729 0
M  V30 7139 C 651.307 -2.24833 -2.50902 0
M  V30 7140 O 651.837 -1.88574 -3.54687 0
M  V30 7141 N 650.043 -1.88685 -2.21012 0
M  V30 7142 H 649.59 -2.18371 -1.36646 0
M  V30 7143 H 649.548 -1.30966 -2.85824 0
M  V30 7144 N 653.32 -0.135238 -1.57019 0
M  V30 7145 C 654.566 0.519563 -1.96032 0
M  V30 7146 C 654.899 1.65284 -1.01955 0
M  V30 7147 O 654.174 1.94408 -0.059727 0
M  V30 7148 C 654.457 1.0369 -3.44848 0
M  V30 7149 C 654.31 -0.0940754 -4.49702 0
M  V30 7150 C 655.629 1.92254 -3.95887 0
M  V30 7151 H 652.748 0.18739 -0.712779 0
M  V30 7152 H 655.39 -0.214086 -1.8879 0
M  V30 7153 H 653.54 1.66209 -3.5115 0
M  V30 7154 H 655.212 -0.73 -4.55487 0
M  V30 7155 H 653.455 -0.754924 -4.27181 0
M  V30 7156 H 654.126 0.309419 -5.51132 0
M  V30 7157 H 656.602 1.39581 -3.9199 0
M  V30 7158 H 655.478 2.25364 -5.00502 0
M  V30 7159 H 655.739 2.85513 -3.37543 0
M  V30 7160 N 654.798 1.5699 0.138552 0
M  V30 7161 C 656.044 1.84081 0.85099 0
M  V30 7162 C 656.377 0.718107 1.80435 0
M  V30 7163 O 655.652 -0.277633 1.92508 0
M  V30 7164 C 655.935 3.21699 1.61808 0
M  V30 7165 C 655.788 4.44544 0.685633 0
M  V30 7166 C 657.107 3.5664 2.57868 0
M  V30 7167 H 654.226 0.669592 0.307922 0
M  V30 7168 H 656.868 1.89646 0.11588 0
M  V30 7169 H 655.018 3.17086 2.24474 0
M  V30 7170 H 656.69 4.61248 0.0693179 0
M  V30 7171 H 654.933 4.338 -0.00421993 0
M  V30 7172 H 655.604 5.3746 1.25858 0
M  V30 7173 H 658.08 3.61918 2.05316 0
M  V30 7174 H 656.956 4.53946 3.08584 0
M  V30 7175 H 657.217 2.83036 3.39622 0
M  V30 7176 N 656.276 -0.40816 1.52223 0
M  V30 7177 C 657.525 -1.15212 1.65557 0
M  V30 7178 C 657.838 -1.9163 0.392096 0
M  V30 7179 O 659.044 -2.68458 0.405256 0
M  V30 7180 C 657.5 -2.09691 2.92502 0
M  V30 7181 C 657.108 -1.38785 4.25961 0
M  V30 7182 C 658.852 -2.8434 3.152 0
M  V30 7183 C 656.759 -2.31919 5.44029 0
M  V30 7184 H 655.689 -0.433776 0.616729 0
M  V30 7185 H 658.34 -0.4165 1.78711 0
M  V30 7186 H 656.722 -2.8681 2.7305 0
M  V30 7187 H 657.896 -0.670248 4.55899 0
M  V30 7188 H 656.211 -0.761741 4.09373 0
M  V30 7189 H 658.808 -3.54166 4.00587 0
M  V30 7190 H 659.151 -3.47344 2.29473 0
M  V30 7191 H 659.684 -2.14321 3.35129 0
M  V30 7192 H 656.423 -1.7356 6.32105 0
M  V30 7193 H 655.943 -3.0165 5.18428 0
M  V30 7194 H 657.622 -2.92424 5.77146 0
M  V30 7195 N 657.755 -1.42862 -0.66545 0
M  V30 7196 C 658.665 -1.49491 -1.80803 0
M  V30 7197 C 659.681 -0.382914 -1.69734 0
M  V30 7198 O 660.857 -0.635223 -1.9112 0
M  V30 7199 C 657.922 -1.40383 -3.17007 0
M  V30 7200 C 656.983 -2.62152 -3.39963 0
M  V30 7201 C 656.216 -2.53469 -4.69669 0
M  V30 7202 O 656.439 -1.57568 -5.48205 0
M  V30 7203 O 655.373 -3.43763 -4.94075 0
M  V30 7204 H 659.199 -2.45949 -1.78165 0
M  V30 7205 H 656.784 -1.24728 -0.822387 0
M  V30 7206 H 658.666 -1.377 -3.98267 0
M  V30 7207 H 657.341 -0.470546 -3.20262 0
M  V30 7208 H 656.248 -2.70409 -2.58515 0
M  V30 7209 H 657.581 -3.54411 -3.41546 0
M  V30 7210 N 659.233 0.902656 -1.29189 0
M  V30 7211 C 660.479 1.65532 -1.17163 0
M  V30 7212 C 660.812 1.92216 0.276879 0
M  V30 7213 O 660.087 1.53048 1.20027 0
M  V30 7214 C 660.37 3.00629 -1.98228 0
M  V30 7215 C 660.223 2.81029 -3.51202 0
M  V30 7216 C 661.542 4.01321 -1.80635 0
M  V30 7217 H 658.661 0.60071 -0.426985 0
M  V30 7218 H 661.303 1.04578 -1.5863 0
M  V30 7219 H 659.453 3.52656 -1.62991 0
M  V30 7220 H 661.125 2.35927 -3.96404 0
M  V30 7221 H 659.368 2.1587 -3.76275 0
M  V30 7222 H 660.039 3.77014 -4.03192 0
M  V30 7223 H 662.515 3.58394 -2.11406 0
M  V30 7224 H 661.391 4.93792 -2.3971 0
M  V30 7225 H 661.652 4.35505 -0.760754 0
M  V30 7226 N 660.711 1.11618 1.11262 0
M  V30 7227 C 661.621 0.78898 2.20935 0
M  V30 7228 C 662.637 -0.21867 1.7262 0
M  V30 7229 O 663.813 -0.0543826 2.01327 0
M  V30 7230 C 660.878 0.239014 3.45875 0
M  V30 7231 C 659.939 1.3055 4.08968 0
M  V30 7232 C 659.172 0.781687 5.27944 0
M  V30 7233 O 659.395 -0.387605 5.69082 0
M  V30 7234 O 658.329 1.54734 5.81671 0
M  V30 7235 H 662.155 1.70477 2.51339 0
M  V30 7236 H 659.74 0.892203 1.19834 0
M  V30 7237 H 661.622 -0.0632312 4.21353 0
M  V30 7238 H 660.297 -0.649454 3.17118 0
M  V30 7239 H 659.204 1.66079 3.35214 0
M  V30 7240 H 660.537 2.16743 4.41909 0
M  V30 7241 N 662.189 -1.289 0.906776 0
M  V30 7242 C 663.466 -1.90221 0.455537 0
M  V30 7243 C 663.846 -1.82251 -1.06527 0
M  V30 7244 O 663.194 -1.25385 -1.91026 0
M  V30 7245 C 663.404 -3.35015 0.97806 0
M  V30 7246 C 664.752 -4.12018 1.02598 0
M  V30 7247 O 665.776 -3.43947 0.926218 0
M  V30 7248 O 664.635 -5.33677 1.17689 0
M  V30 7249 H 661.729 -0.814505 0.143214 0
M  V30 7250 H 664.275 -1.37317 0.997104 0
M  V30 7251 H 663.047 -3.35006 2.02204 0
M  V30 7252 H 662.67 -3.95408 0.416914 0
M  V30 7253 N 663.667 -0.670007 -1.42649 0
M  V30 7254 C 664.944 -0.119451 -1.95235 0
M  V30 7255 C 665.324 1.36461 -1.61064 0
M  V30 7256 O 664.672 2.09843 -0.904329 0
M  V30 7257 C 664.882 -0.383498 -3.46887 0
M  V30 7258 C 666.23 -0.297431 -4.23557 0
M  V30 7259 O 667.254 -0.31698 -3.54787 0
M  V30 7260 O 666.113 -0.235507 -5.45992 0
M  V30 7261 H 663.207 -8.85474e-05 -0.827 0
M  V30 7262 H 665.753 -0.744406 -1.52501 0
M  V30 7263 H 664.525 -1.41174 -3.64946 0
M  V30 7264 H 664.148 0.273702 -3.96657 0
M  V30 7265 N 665.145 1.52092 -0.413018 0
M  V30 7266 C 666.393 2.01456 0.161178 0
M  V30 7267 C 666.714 1.30034 1.45314 0
M  V30 7268 O 665.984 0.427435 1.9118 0
M  V30 7269 H 664.564 0.744376 0.0625526 0
M  V30 7270 H 667.226 1.86974 -0.550151 0
M  V30 7271 H 666.322 3.1008 0.354517 0
M  V30 7272 N 666.623 0.143563 1.56945 0
M  V30 7273 C 668.039 -0.212877 1.58174 0
M  V30 7274 C 668.239 -1.64926 1.15766 0
M  V30 7275 O 667.295 -2.37535 0.856361 0
M  V30 7276 C 668.608 0.0427573 3.0067 0
M  V30 7277 C 670.156 -0.0212221 3.12993 0
M  V30 7278 C 670.631 0.207036 4.57532 0
M  V30 7279 N 672.122 0.153845 4.62944 0
M  V30 7280 C 672.857 0.305018 5.72588 0
M  V30 7281 N 672.353 0.513722 6.90893 0
M  V30 7282 N 674.146 0.242862 5.61575 0
M  V30 7283 H 666.297 1.08148 1.82805 0
M  V30 7284 H 668.56 0.427831 0.84597 0
M  V30 7285 H 668.266 1.03672 3.36073 0
M  V30 7286 H 668.14 -0.678195 3.71053 0
M  V30 7287 H 670.527 -1.00574 2.77433 0
M  V30 7288 H 670.608 0.732004 2.45103 0
M  V30 7289 H 670.252 1.18863 4.93795 0
M  V30 7290 H 670.182 -0.566473 5.23544 0
M  V30 7291 H 672.673 -0.00294866 3.779 0
M  V30 7292 H 672.986 0.619273 7.70315 0
M  V30 7293 H 671.331 0.550001 6.9282 0
M  V30 7294 H 674.522 0.0806015 4.68031 0
M  V30 7295 H 674.695 0.364112 6.46976 0
M  V30 7296 N 668.101 -1.57061 -0.130224 0
M  V30 7297 C 669.349 -1.83893 -0.838313 0
M  V30 7298 C 669.67 -0.727046 -1.80939 0
M  V30 7299 O 668.94 0.249927 -1.94299 0
M  V30 7300 H 667.52 -0.67846 -0.312573 0
M  V30 7301 H 670.182 -1.94529 -0.120224 0
M  V30 7302 H 669.278 -2.79419 -1.39038 0
M  V30 7303 N 669.579 0.400081 -1.52437 0
M  V30 7304 C 670.828 1.14332 -1.66166 0
M  V30 7305 C 671.141 1.91419 -0.402253 0
M  V30 7306 O 672.347 2.6824 -0.419487 0
M  V30 7307 C 670.803 2.08137 -2.9361 0
M  V30 7308 C 670.411 1.36524 -4.26691 0
M  V30 7309 C 672.155 2.82664 -3.16703 0
M  V30 7310 C 670.062 2.29031 -5.45251 0
M  V30 7311 H 668.992 0.430499 -0.61902 0
M  V30 7312 H 671.643 0.407017 -1.78929 0
M  V30 7313 H 670.025 2.85358 -2.74567 0
M  V30 7314 H 671.199 0.646061 -4.56249 0
M  V30 7315 H 669.514 0.74002 -4.09771 0
M  V30 7316 H 672.111 3.52037 -4.0246 0
M  V30 7317 H 672.454 3.46122 -2.31312 0
M  V30 7318 H 672.987 2.12541 -3.36261 0
M  V30 7319 H 669.726 1.70206 -6.33017 0
M  V30 7320 H 669.246 2.98896 -5.2002 0
M  V30 7321 H 670.925 2.89359 -5.78689 0
M  V30 7322 N 671.057 1.43213 0.657864 0
M  V30 7323 C 672.334 1.35063 1.41483 0
M  V30 7324 C 672.714 -0.0038314 2.111 0
M  V30 7325 O 672.062 -1.02018 2.04462 0
M  V30 7326 C 672.272 2.53061 2.40335 0
M  V30 7327 C 673.62 2.9594 3.04474 0
M  V30 7328 O 674.644 2.53074 2.50663 0
M  V30 7329 O 673.503 3.70184 4.02027 0
M  V30 7330 H 670.597 0.533517 0.631893 0
M  V30 7331 H 673.143 1.55253 0.685162 0
M  V30 7332 H 671.915 3.43283 1.87809 0
M  V30 7333 H 671.538 2.34945 3.20759 0
M  V30 7334 N 672.536 -0.895792 1.29666 0
M  V30 7335 C 673.483 -2.00035 1.15129 0
M  V30 7336 C 674.453 -1.66043 0.0435819 0
M  V30 7337 O 675.638 -1.89621 0.211811 0
M  V30 7338 C 672.778 -3.34774 0.83787 0
M  V30 7339 C 671.891 -3.81525 2.0264 0
M  V30 7340 C 671.026 -5.04858 1.65201 0
M  V30 7341 C 670.065 -5.43988 2.80612 0
M  V30 7342 N 669.202 -6.58507 2.43544 0
M  V30 7343 H 674.042 -2.11802 2.09628 0
M  V30 7344 H 671.579 -1.03719 1.04311 0
M  V30 7345 H 673.537 -4.12311 0.636824 0
M  V30 7346 H 672.167 -3.22724 -0.0702314 0
M  V30 7347 H 671.219 -2.9999 2.33903 0
M  V30 7348 H 672.531 -4.06472 2.89106 0
M  V30 7349 H 671.685 -5.8999 1.41408 0
M  V30 7350 H 670.424 -4.81759 0.758893 0
M  V30 7351 H 669.429 -4.57388 3.05083 0
M  V30 7352 H 670.654 -5.69066 3.70595 0
M  V30 7353 H 668.6 -6.37004 1.56724 0
M  V30 7354 H 668.517 -6.83269 3.23542 0
M  V30 7355 H 669.785 -7.46897 2.2308 0
M  V30 7356 N 674.014 -1.12206 -1.10668 0
M  V30 7357 C 674.924 -0.800686 -2.20513 0
M  V30 7358 C 675.94 0.209512 -1.72734 0
M  V30 7359 O 677.116 0.043705 -2.01353 0
M  V30 7360 C 674.181 -0.257353 -3.45744 0
M  V30 7361 C 673.242 -1.32718 -4.0827 0
M  V30 7362 C 672.475 -0.809674 -5.27522 0
M  V30 7363 O 672.698 0.35742 -5.69279 0
M  V30 7364 O 671.632 -1.57816 -5.80842 0
M  V30 7365 H 675.458 -1.71807 -2.50432 0
M  V30 7366 H 673.043 -0.898546 -1.19359 0
M  V30 7367 H 674.925 0.0408849 -4.2138 0
M  V30 7368 H 673.6 0.632627 -3.17458 0
M  V30 7369 H 672.507 -1.67855 -3.34329 0
M  V30 7370 H 673.84 -2.19083 -4.40753 0
M  V30 7371 N 675.492 1.28418 -0.913599 0
M  V30 7372 C 676.439 2.27301 -0.400373 0
M  V30 7373 C 677.409 1.57582 0.52509 0
M  V30 7374 O 678.594 1.85482 0.447318 0
M  V30 7375 C 675.734 3.43284 0.35361 0
M  V30 7376 C 674.847 4.27752 -0.604341 0
M  V30 7377 C 673.982 5.30934 0.168075 0
M  V30 7378 C 673.021 6.07065 -0.783499 0
M  V30 7379 N 672.158 7.02086 -0.0446112 0
M  V30 7380 H 676.998 2.70579 -1.24865 0
M  V30 7381 H 674.535 1.33067 -0.627028 0
M  V30 7382 H 676.493 4.09322 0.806945 0
M  V30 7383 H 675.123 3.00997 1.16623 0
M  V30 7384 H 674.175 3.61759 -1.17621 0
M  V30 7385 H 675.487 4.80682 -1.33216 0
M  V30 7386 H 674.641 6.02855 0.681979 0
M  V30 7387 H 673.38 4.78771 0.928947 0
M  V30 7388 H 672.385 5.33995 -1.30878 0
M  V30 7389 H 673.61 6.61317 -1.54392 0
M  V30 7390 H 671.556 6.52273 0.698272 0
M  V30 7391 H 671.473 7.52637 -0.712258 0
M  V30 7392 H 672.741 7.78205 0.449102 0
M  V30 7393 N 676.97 0.677563 1.42291 0
M  V30 7394 C 678.219 0.198173 2.00724 0
M  V30 7395 C 678.532 -1.20325 1.54211 0
M  V30 7396 O 679.738 -1.77916 2.05081 0
M  V30 7397 C 678.194 0.303432 3.58619 0
M  V30 7398 C 677.802 1.70909 4.14119 0
M  V30 7399 C 679.546 -0.117103 4.24338 0
M  V30 7400 C 677.453 1.76696 5.64387 0
M  V30 7401 H 676.383 0.070329 0.750713 0
M  V30 7402 H 679.034 0.843147 1.62982 0
M  V30 7403 H 677.416 -0.409482 3.93877 0
M  V30 7404 H 678.59 2.44931 3.90315 0
M  V30 7405 H 676.905 2.07771 3.6086 0
M  V30 7406 H 679.502 -0.0940471 5.34617 0
M  V30 7407 H 679.845 -1.15283 4.00019 0
M  V30 7408 H 680.378 0.5449 3.9405 0
M  V30 7409 H 677.117 2.7826 5.93508 0
M  V30 7410 H 676.637 1.07034 5.90173 0
M  V30 7411 H 678.316 1.52166 6.28852 0
M  V30 7412 N 678.448 -1.51871 0.421078 0
M  V30 7413 C 679.697 -2.01125 -0.152206 0
M  V30 7414 C 680.01 -1.3106 -1.45199 0
M  V30 7415 O 681.216 -1.71195 -2.10724 0
M  V30 7416 C 679.672 -3.58458 -0.3218 0
M  V30 7417 C 679.28 -4.37448 0.96659 0
M  V30 7418 C 681.024 -4.15908 -0.84973 0
M  V30 7419 C 678.931 -5.86451 0.763529 0
M  V30 7420 H 677.861 -0.751556 -0.0606565 0
M  V30 7421 H 680.512 -1.75115 0.548354 0
M  V30 7422 H 678.894 -3.80847 -1.08498 0
M  V30 7423 H 680.068 -4.26814 1.73684 0
M  V30 7424 H 678.383 -3.91373 1.42183 0
M  V30 7425 H 680.98 -5.24922 -1.01788 0
M  V30 7426 H 681.323 -3.74031 -1.82774 0
M  V30 7427 H 681.856 -3.97535 -0.145297 0
M  V30 7428 H 678.595 -6.3271 1.71344 0
M  V30 7429 H 678.115 -5.99791 0.0327889 0
M  V30 7430 H 679.794 -6.45697 0.410354 0
M  V30 7431 N 679.926 -0.151884 -1.56866 0
M  V30 7432 C 681.342 0.204486 -1.58285 0
M  V30 7433 C 681.542 1.6431 -1.16639 0
M  V30 7434 O 680.598 2.37077 -0.868946 0
M  V30 7435 C 681.911 -0.0587019 -3.00643 0
M  V30 7436 C 683.459 0.00462303 -3.13 0
M  V30 7437 C 683.934 -0.231297 -4.57416 0
M  V30 7438 N 685.425 -0.178394 -4.62856 0
M  V30 7439 C 686.16 -0.335379 -5.72418 0
M  V30 7440 N 685.656 -0.550355 -6.90611 0
M  V30 7441 N 687.449 -0.272641 -5.61438 0
M  V30 7442 H 679.6 -1.09116 -1.82229 0
M  V30 7443 H 681.863 -0.432311 -0.843689 0
M  V30 7444 H 681.569 -1.05453 -3.35518 0
M  V30 7445 H 681.443 0.658508 -3.71407 0
M  V30 7446 H 683.83 0.991009 -2.77962 0
M  V30 7447 H 683.911 -0.744992 -2.44711 0
M  V30 7448 H 683.555 -1.2148 -4.93158 0
M  V30 7449 H 683.485 0.5387 -5.23837 0
M  V30 7450 H 685.976 -0.0170923 -3.77896 0
M  V30 7451 H 686.289 -0.660116 -7.69976 0
M  V30 7452 H 684.634 -0.586736 -6.92519 0
M  V30 7453 H 687.825 -0.105421 -4.67981 0
M  V30 7454 H 687.998 -0.398418 -6.46774 0
M  V30 7455 N 681.404 1.57128 0.121893 0
M  V30 7456 C 682.351 2.0013 1.14964 0
M  V30 7457 C 683.321 0.872959 1.4131 0
M  V30 7458 O 684.506 1.13696 1.53225 0
M  V30 7459 C 681.646 2.40824 2.4718 0
M  V30 7460 C 680.759 3.67061 2.27794 0
M  V30 7461 C 679.894 3.96749 3.53219 0
M  V30 7462 C 678.933 5.16178 3.28978 0
M  V30 7463 N 678.07 5.41751 4.46599 0
M  V30 7464 H 682.91 2.8772 0.775947 0
M  V30 7465 H 680.447 1.42328 0.371652 0
M  V30 7466 H 682.405 2.62454 3.24305 0
M  V30 7467 H 681.035 1.56279 2.82448 0
M  V30 7468 H 680.087 3.53063 1.416 0
M  V30 7469 H 681.399 4.5434 2.05857 0
M  V30 7470 H 680.553 4.19012 4.38764 0
M  V30 7471 H 679.292 3.07941 3.78185 0
M  V30 7472 H 678.297 4.93762 2.41824 0
M  V30 7473 H 679.522 6.06561 3.05386 0
M  V30 7474 H 677.468 4.55899 4.71691 0
M  V30 7475 H 677.385 6.23347 4.27756 0
M  V30 7476 H 678.653 5.68531 5.33285 0
M  V30 7477 N 682.882 -0.391992 1.52647 0
M  V30 7478 C 683.845 -1.46135 1.7657 0
M  V30 7479 C 684.845 -1.47701 0.635698 0
M  V30 7480 O 686.035 -1.48924 0.903728 0
M  V30 7481 C 683.167 -2.85443 1.86374 0
M  V30 7482 H 684.36 -1.26208 2.72051 0
M  V30 7483 H 681.913 -0.623549 1.43323 0
M  V30 7484 H 682.648 -3.10718 0.928685 0
M  V30 7485 H 682.433 -2.85708 2.68539 0
M  V30 7486 H 683.923 -3.62933 2.06566 0
M  V30 7487 N 684.36 -1.4356 -0.65026 0
M  V30 7488 C 685.609 -1.44619 -1.406 0
M  V30 7489 C 685.922 -0.0752645 -1.95455 0
M  V30 7490 O 687.128 0.0366832 -2.71475 0
M  V30 7491 C 685.584 -2.54511 -2.54465 0
M  V30 7492 C 685.192 -3.97723 -2.06204 0
M  V30 7493 C 686.936 -2.64768 -3.31811 0
M  V30 7494 C 684.843 -4.99075 -3.17298 0
M  V30 7495 H 683.773 -0.537983 -0.52829 0
M  V30 7496 H 686.424 -1.69559 -0.701561 0
M  V30 7497 H 684.806 -2.22777 -3.27393 0
M  V30 7498 H 685.98 -4.38932 -1.40267 0
M  V30 7499 H 684.295 -3.91538 -1.41729 0
M  V30 7500 H 686.892 -3.37664 -4.14593 0
M  V30 7501 H 687.235 -1.69936 -3.80036 0
M  V30 7502 H 687.768 -2.95817 -2.65964 0
M  V30 7503 H 684.507 -5.95469 -2.74038 0
M  V30 7504 H 684.027 -4.62476 -3.81937 0
M  V30 7505 H 685.706 -5.21913 -3.82382 0
M  V30 7506 N 685.838 0.888903 -1.30139 0
M  V30 7507 C 686.748 2.02705 -1.18101 0
M  V30 7508 C 687.764 1.73702 -0.101809 0
M  V30 7509 O 688.94 1.98906 -0.315984 0
M  V30 7510 C 686.005 3.35616 -0.869651 0
M  V30 7511 C 685.066 3.78067 -2.03381 0
M  V30 7512 C 684.299 5.04635 -1.73721 0
M  V30 7513 O 684.522 5.66531 -0.663267 0
M  V30 7514 O 683.456 5.43399 -2.58845 0
M  V30 7515 H 687.282 2.15788 -2.13704 0
M  V30 7516 H 684.867 1.01426 -1.09695 0
M  V30 7517 H 686.749 4.15358 -0.711043 0
M  V30 7518 H 685.424 3.23651 0.0565002 0
M  V30 7519 H 684.331 2.99046 -2.24772 0
M  V30 7520 H 685.664 3.94631 -2.94155 0
M  V30 7521 N 687.317 1.12792 1.10072 0
M  V30 7522 C 688.264 0.79921 2.16521 0
M  V30 7523 C 689.234 -0.235726 1.64419 0
M  V30 7524 O 690.419 -0.109457 1.90486 0
M  V30 7525 C 687.559 0.264091 3.44088 0
M  V30 7526 C 686.672 1.35729 4.10124 0
M  V30 7527 C 685.807 0.781212 5.25424 0
M  V30 7528 C 684.846 1.85327 5.8337 0
M  V30 7529 N 683.983 1.29564 6.90042 0
M  V30 7530 H 688.823 1.71105 2.43981 0
M  V30 7531 H 686.36 0.854225 1.19756 0
M  V30 7532 H 688.318 -0.0642423 4.17151 0
M  V30 7533 H 686.948 -0.610901 3.16967 0
M  V30 7534 H 686 1.80234 3.34993 0
M  V30 7535 H 687.312 2.16782 4.4923 0
M  V30 7536 H 686.466 0.403769 6.05355 0
M  V30 7537 H 685.205 -0.0604686 4.87663 0
M  V30 7538 H 684.21 2.23986 5.02106 0
M  V30 7539 H 685.435 2.69824 6.23195 0
M  V30 7540 H 683.381 0.475844 6.54272 0
M  V30 7541 H 683.298 2.04271 7.2788 0
M  V30 7542 H 684.566 0.945545 7.73744 0
M  V30 7543 N 688.795 -1.27931 0.920396 0
M  V30 7544 C 690.043 -1.94304 0.555906 0
M  V30 7545 C 690.364 -1.72753 -0.904519 0
M  V30 7546 O 689.634 -1.07104 -1.64029 0
M  V30 7547 H 688.214 -0.719001 0.202599 0
M  V30 7548 H 690.876 -1.55785 1.1712 0
M  V30 7549 H 689.972 -3.02806 0.755981 0
M  V30 7550 N 690.273 -0.685099 -1.4193 0
M  V30 7551 C 691.203 -0.0273506 -2.33484 0
M  V30 7552 C 692.184 0.778366 -1.51246 0
M  V30 7553 O 693.369 0.733449 -1.79817 0
M  V30 7554 C 690.499 0.917272 -3.34968 0
M  V30 7555 C 689.453 0.21941 -4.27437 0
M  V30 7556 C 688.779 1.27768 -5.1921 0
M  V30 7557 C 690.079 -0.907894 -5.14349 0
M  V30 7558 H 691.773 -0.791994 -2.88735 0
M  V30 7559 H 689.319 -0.382308 -1.38832 0
M  V30 7560 H 691.272 1.38657 -3.97935 0
M  V30 7561 H 689.996 1.71346 -2.78043 0
M  V30 7562 H 688.655 -0.229757 -3.65879 0
M  V30 7563 H 688.303 2.06612 -4.58607 0
M  V30 7564 H 688.003 0.815803 -5.81909 0
M  V30 7565 H 689.527 1.7477 -5.85054 0
M  V30 7566 H 690.941 -0.519348 -5.70943 0
M  V30 7567 H 689.338 -1.2962 -5.85934 0
M  V30 7568 H 690.408 -1.75218 -4.52136 0
M  V30 7569 N 691.751 1.51645 -0.429126 0
M  V30 7570 C 693 2.01203 0.141538 0
M  V30 7571 C 693.313 1.31828 1.44502 0
M  V30 7572 O 694.519 1.7231 2.09813 0
M  V30 7573 C 692.975 3.58624 0.302786 0
M  V30 7574 C 692.583 4.3693 -0.989775 0
M  V30 7575 C 694.327 4.16353 0.827661 0
M  V30 7576 C 692.234 5.86037 -0.794619 0
M  V30 7577 H 691.164 0.751867 0.05667 0
M  V30 7578 H 693.815 1.74822 -0.557633 0
M  V30 7579 H 692.197 3.81417 1.06476 0
M  V30 7580 H 693.371 4.25887 -1.75945 0
M  V30 7581 H 691.686 3.90614 -1.44256 0
M  V30 7582 H 694.283 5.25455 0.990026 0
M  V30 7583 H 694.626 3.74995 1.80787 0
M  V30 7584 H 695.159 3.97606 0.124213 0
M  V30 7585 H 691.898 6.31792 -1.74697 0
M  V30 7586 H 691.418 5.99765 -0.0645968 0
M  V30 7587 H 693.097 6.45471 -0.444591 0
M  V30 7588 N 693.229 0.160201 1.56784 0
M  V30 7589 C 694.506 -0.533355 1.88188 0
M  V30 7590 C 694.886 -1.82072 1.06831 0
M  V30 7591 O 694.234 -2.27946 0.158959 0
M  V30 7592 C 694.444 -0.786034 3.40033 0
M  V30 7593 C 695.792 -1.12097 4.09536 0
M  V30 7594 O 696.816 -0.874949 3.45287 0
M  V30 7595 O 695.675 -1.58457 5.23023 0
M  V30 7596 H 692.769 -0.273589 0.780434 0
M  V30 7597 H 695.315 0.197803 1.68543 0
M  V30 7598 H 694.087 0.124515 3.91102 0
M  V30 7599 H 693.71 -1.57091 3.65251 0
M  V30 7600 N 694.707 -1.5719 -0.113559 0
M  V30 7601 C 695.617 -2.04041 -1.15777 0
M  V30 7602 C 696.633 -0.961812 -1.45001 0
M  V30 7603 O 697.809 -1.2737 -1.56009 0
M  V30 7604 C 694.874 -2.43994 -2.46308 0
M  V30 7605 C 693.935 -3.65962 -2.24433 0
M  V30 7606 C 693.168 -4.04 -3.4874 0
M  V30 7607 O 693.391 -3.42321 -4.56259 0
M  V30 7608 O 692.325 -4.97069 -3.3942 0
M  V30 7609 H 696.151 -2.93248 -0.789899 0
M  V30 7610 H 693.736 -1.45828 -0.324748 0
M  V30 7611 H 695.618 -2.70401 -3.23204 0
M  V30 7612 H 694.293 -1.57932 -2.82558 0
M  V30 7613 H 693.2 -3.44697 -1.45377 0
M  V30 7614 H 694.533 -4.52746 -1.93084 0
M  V30 7615 N 696.185 0.383891 -1.52853 0
M  V30 7616 C 697.41 1.154 -1.7233 0
M  V30 7617 C 697.835 1.82809 -0.44298 0
M  V30 7618 O 697.193 1.71026 0.601645 0
M  V30 7619 C 697.241 2.17386 -2.87708 0
M  V30 7620 O 696.345 3.24082 -2.55038 0
M  V30 7621 H 695.686 0.335709 -0.572883 0
M  V30 7622 H 698.216 0.44662 -1.99666 0
M  V30 7623 H 698.226 2.61296 -3.1335 0
M  V30 7624 H 696.901 1.6771 -3.80587 0
M  V30 7625 H 695.478 2.85273 -2.40153 0
M  V30 7626 N 697.663 1.43903 0.642637 0
M  V30 7627 C 698.61 1.49881 1.75512 0
M  V30 7628 C 699.58 0.347538 1.62423 0
M  V30 7629 O 700.765 0.556177 1.82514 0
M  V30 7630 C 697.905 1.43797 3.13714 0
M  V30 7631 C 697.018 2.6921 3.37861 0
M  V30 7632 C 696.153 2.5504 4.6597 0
M  V30 7633 C 695.192 3.75671 4.83257 0
M  V30 7634 N 694.329 3.60247 6.02633 0
M  V30 7635 H 699.169 2.44935 1.69737 0
M  V30 7636 H 696.706 1.21572 0.828165 0
M  V30 7637 H 698.664 1.38262 3.93624 0
M  V30 7638 H 697.294 0.523173 3.18532 0
M  V30 7639 H 696.346 2.8498 2.51973 0
M  V30 7640 H 697.658 3.58786 3.46517 0
M  V30 7641 H 696.812 2.47273 5.54023 0
M  V30 7642 H 695.551 1.63006 4.59653 0
M  V30 7643 H 694.556 3.83836 3.93637 0
M  V30 7644 H 695.781 4.68728 4.91397 0
M  V30 7645 H 693.727 2.70955 5.97427 0
M  V30 7646 H 693.644 4.43431 6.12295 0
M  V30 7647 H 694.912 3.56351 6.93278 0
M  V30 7648 N 699.141 -0.881989 1.30609 0
M  V30 7649 C 700.104 -1.96957 1.1722 0
M  V30 7650 C 701.104 -1.60472 0.102598 0
M  V30 7651 O 702.294 -1.70628 0.350943 0
M  V30 7652 C 699.426 -3.31463 0.796572 0
M  V30 7653 H 700.619 -2.10262 2.13846 0
M  V30 7654 H 698.172 -1.06877 1.14048 0
M  V30 7655 H 698.907 -3.23859 -0.169053 0
M  V30 7656 H 698.692 -3.59314 1.56959 0
M  V30 7657 H 700.182 -4.11233 0.72645 0
M  V30 7658 N 700.619 -1.13374 -1.09472 0
M  V30 7659 C 701.582 -0.813639 -2.14272 0
M  V30 7660 C 702.582 0.176677 -1.59826 0
M  V30 7661 O 703.772 -0.0503441 -1.74127 0
M  V30 7662 C 700.904 -0.210897 -3.40247 0
M  V30 7663 H 702.097 -1.74229 -2.44099 0
M  V30 7664 H 699.65 -0.938304 -1.25002 0
M  V30 7665 H 700.385 0.726998 -3.16046 0
M  V30 7666 H 700.17 -0.924048 -3.81056 0
M  V30 7667 H 701.66 -0.00377603 -4.176 0
M  V30 7668 N 702.098 1.27442 -0.927168 0
M  V30 7669 C 703.326 1.98498 -0.583622 0
M  V30 7670 C 703.741 1.69171 0.838241 0
M  V30 7671 O 703.098 0.951969 1.55704 0
M  V30 7672 C 703.149 3.52552 -0.799341 0
M  V30 7673 O 702.87 3.80851 -2.16527 0
M  V30 7674 C 704.371 4.4086 -0.464436 0
M  V30 7675 H 701.591 0.633487 -0.221213 0
M  V30 7676 H 704.135 1.62308 -1.24404 0
M  V30 7677 H 702.29 3.86955 -0.185728 0
M  V30 7678 H 702.704 4.75441 -2.21487 0
M  V30 7679 H 704.178 5.47967 -0.666075 0
M  V30 7680 H 704.655 4.35082 0.599995 0
M  V30 7681 H 705.261 4.11977 -1.05617 0
M  V30 7682 N 703.576 0.692616 1.41565 0
M  V30 7683 C 704.506 0.0397325 2.33466 0
M  V30 7684 C 705.487 -0.770334 1.51657 0
M  V30 7685 O 706.672 -0.723903 1.80203 0
M  V30 7686 C 703.802 -0.899495 3.3545 0
M  V30 7687 C 702.756 -0.196738 4.27548 0
M  V30 7688 C 702.082 -1.25012 5.19881 0
M  V30 7689 C 703.382 0.935158 5.1386 0
M  V30 7690 H 705.076 0.807296 2.88311 0
M  V30 7691 H 702.622 0.389665 1.38628 0
M  V30 7692 H 704.575 -1.36545 3.98665 0
M  V30 7693 H 703.299 -1.69869 2.78948 0
M  V30 7694 H 701.958 0.249158 3.65752 0
M  V30 7695 H 701.606 -2.04177 4.59696 0
M  V30 7696 H 701.306 -0.784931 5.82334 0
M  V30 7697 H 702.83 -1.71665 5.85972 0
M  V30 7698 H 704.244 0.549619 5.70659 0
M  V30 7699 H 702.641 1.32726 5.85238 0
M  V30 7700 H 703.711 1.77613 4.512 0
M  V30 7701 N 705.054 -1.51416 0.437162 0
M  V30 7702 C 706.279 -2.0699 -0.130424 0
M  V30 7703 C 706.704 -1.30249 -1.35709 0
M  V30 7704 O 706.062 -0.340388 -1.78076 0
M  V30 7705 C 706.11 -3.5801 -0.43142 0
M  V30 7706 O 705.214 -3.8345 -1.5179 0
M  V30 7707 H 704.555 -0.663997 -0.00194339 0
M  V30 7708 H 707.085 -1.95029 0.618445 0
M  V30 7709 H 707.095 -4.02261 -0.681926 0
M  V30 7710 H 705.77 -4.13291 0.465137 0
M  V30 7711 H 704.347 -3.51062 -1.25737 0
M  V30 7712 N 706.532 -0.168513 -1.56696 0
M  V30 7713 C 707.809 0.523367 -1.88468 0
M  V30 7714 C 708.189 1.81503 -1.07796 0
M  V30 7715 O 707.537 2.27859 -0.171045 0
M  V30 7716 C 707.747 0.767991 -3.40445 0
M  V30 7717 C 709.095 1.09924 -4.10124 0
M  V30 7718 O 710.119 0.856625 -3.45746 0
M  V30 7719 O 708.978 1.55681 -5.23856 0
M  V30 7720 H 706.072 0.269447 -0.781874 0
M  V30 7721 H 708.618 -0.206739 -1.68436 0
M  V30 7722 H 707.39 -0.145254 -3.9103 0
M  V30 7723 H 707.013 1.55151 -3.66079 0
M  V30 7724 N 708.01 1.57248 0.105221 0
M  V30 7725 C 708.942 1.98008 1.15436 0
M  V30 7726 C 709.955 0.881236 1.36887 0
M  V30 7727 O 711.144 1.15943 1.35718 0
M  V30 7728 C 708.244 2.27509 2.51183 0
M  V30 7729 C 707.417 3.58811 2.50147 0
M  V30 7730 C 706.476 3.76365 3.67745 0
M  V30 7731 O 705.502 4.48329 3.50699 0
M  V30 7732 N 706.704 3.16174 4.86841 0
M  V30 7733 H 709.469 2.88616 0.807519 0
M  V30 7734 H 707.03 1.59202 0.29433 0
M  V30 7735 H 709.022 2.36455 3.28438 0
M  V30 7736 H 707.592 1.42959 2.77995 0
M  V30 7737 H 706.812 3.60927 1.5851 0
M  V30 7738 H 708.1 4.45088 2.46524 0
M  V30 7739 H 707.498 2.57701 5.03594 0
M  V30 7740 H 706.055 3.30621 5.61723 0
M  V30 7741 N 709.488 -0.375779 1.53054 0
M  V30 7742 C 710.398 -1.48381 1.81715 0
M  V30 7743 C 711.414 -1.59087 0.704795 0
M  V30 7744 O 712.59 -1.75174 0.993785 0
M  V30 7745 C 709.655 -2.83767 1.99192 0
M  V30 7746 C 708.716 -2.82673 3.23102 0
M  V30 7747 C 707.949 -4.11601 3.39736 0
M  V30 7748 O 708.172 -5.07243 2.60885 0
M  V30 7749 O 707.106 -4.18034 4.33049 0
M  V30 7750 H 710.932 -1.27089 2.7583 0
M  V30 7751 H 708.517 -0.564902 1.38308 0
M  V30 7752 H 710.399 -3.64004 2.12318 0
M  V30 7753 H 709.074 -3.05057 1.08267 0
M  V30 7754 H 707.981 -2.0117 3.15407 0
M  V30 7755 H 709.314 -2.66335 4.13916 0
M  V30 7756 N 710.966 -1.44241 -0.634997 0
M  V30 7757 C 712.215 -1.46102 -1.39058 0
M  V30 7758 C 712.528 -0.0959909 -1.95364 0
M  V30 7759 O 713.734 0.00788751 -2.71499 0
M  V30 7760 C 712.19 -2.57195 -2.51751 0
M  V30 7761 C 711.798 -3.99888 -2.01974 0
M  V30 7762 C 713.542 -2.68272 -3.28984 0
M  V30 7763 C 711.449 -5.02412 -3.11987 0
M  V30 7764 H 710.379 -0.543556 -0.522554 0
M  V30 7765 H 713.03 -1.70294 -0.683538 0
M  V30 7766 H 711.412 -2.26237 -3.25012 0
M  V30 7767 H 712.586 -4.40396 -1.35604 0
M  V30 7768 H 710.901 -3.93019 -1.37568 0
M  V30 7769 H 713.498 -3.42042 -4.10988 0
M  V30 7770 H 713.841 -1.73957 -3.78212 0
M  V30 7771 H 714.374 -2.98622 -2.62812 0
M  V30 7772 H 711.113 -5.98342 -2.67707 0
M  V30 7773 H 710.633 -4.66501 -3.77011 0
M  V30 7774 H 712.312 -5.25939 -3.76825 0
M  V30 7775 N 712.444 0.87505 -1.31075 0
M  V30 7776 C 713.374 1.99775 -1.20881 0
M  V30 7777 C 714.355 1.69822 -0.0971612 0
M  V30 7778 O 715.54 1.92158 -0.280895 0
M  V30 7779 C 712.67 3.35163 -0.910118 0
M  V30 7780 C 711.624 3.79406 -1.98078 0
M  V30 7781 C 710.95 5.12197 -1.53488 0
M  V30 7782 C 712.25 3.97061 -3.39323 0
M  V30 7783 H 713.944 2.08562 -2.14808 0
M  V30 7784 H 711.49 1.00207 -1.03415 0
M  V30 7785 H 713.443 4.13237 -0.825423 0
M  V30 7786 H 712.167 3.26536 0.064822 0
M  V30 7787 H 710.826 3.03568 -2.05528 0
M  V30 7788 H 710.474 5.00007 -0.547941 0
M  V30 7789 H 710.174 5.4277 -2.2511 0
M  V30 7790 H 711.698 5.92785 -1.46417 0
M  V30 7791 H 713.112 4.65545 -3.34576 0
M  V30 7792 H 711.509 4.39025 -4.09118 0
M  V30 7793 H 712.579 3.00601 -3.80483 0
M  V30 7794 N 713.922 1.13953 1.08869 0
M  V30 7795 C 714.87 0.817664 2.17754 0
M  V30 7796 C 715.864 -0.202444 1.68186 0
M  V30 7797 O 717.07 -0.0590159 1.79903 0
M  V30 7798 H 713.445 0.246671 0.710392 0
M  V30 7799 H 715.416 1.74401 2.4213 0
M  V30 7800 C 714.165 0.3063 3.46348 0
M  V30 7801 H 713.488 1.08259 3.84864 0
M  V30 7802 H 714.928 0.119584 4.23831 0
M  V30 7803 C 713.387 -0.969158 3.22659 0
M  V30 7804 O 713.917 -2.04386 3.45817 0
M  V30 7805 N 712.123 -0.902516 2.7623 0
M  V30 7806 H 711.67 -0.027801 2.57585 0
M  V30 7807 H 711.628 -1.75649 2.60758 0
M  V30 7808 N 715.4 -1.26948 0.933913 0
M  V30 7809 C 716.647 -1.94087 0.577625 0
M  V30 7810 C 716.975 -1.73345 -0.88214 0
M  V30 7811 O 716.23 -1.05945 -1.64542 0
M  V30 7812 C 716.529 -3.46963 0.857406 0
M  V30 7813 C 716.195 -3.87834 2.2999 0
M  V30 7814 C 714.857 -3.98704 2.69423 0
M  V30 7815 C 717.209 -4.08442 3.23766 0
M  V30 7816 C 714.537 -4.27573 4.01744 0
M  V30 7817 C 716.889 -4.38798 4.55675 0
M  V30 7818 C 715.553 -4.47881 4.94934 0
M  V30 7819 H 714.823 -0.710215 0.211368 0
M  V30 7820 H 717.47 -1.50899 1.17905 0
M  V30 7821 H 715.775 -3.91416 0.173369 0
M  V30 7822 H 717.472 -3.97062 0.560615 0
M  V30 7823 H 714.062 -3.79916 1.98399 0
M  V30 7824 H 718.246 -3.99479 2.94499 0
M  V30 7825 H 713.502 -4.32815 4.31834 0
M  V30 7826 H 717.676 -4.5369 5.28335 0
M  V30 7827 H 715.303 -4.70005 5.97495 0
M  V30 7828 N 716.879 -0.700114 -1.41195 0
M  V30 7829 C 717.809 -0.0521132 -2.33442 0
M  V30 7830 C 718.79 0.76228 -1.52063 0
M  V30 7831 O 719.975 0.714336 -1.80585 0
M  V30 7832 C 717.105 0.881693 -3.35922 0
M  V30 7833 C 716.059 0.174062 -4.27646 0
M  V30 7834 C 715.385 1.22254 -5.20536 0
M  V30 7835 C 716.685 -0.962396 -5.13357 0
M  V30 7836 H 718.379 -0.822574 -2.87879 0
M  V30 7837 H 715.925 -0.397011 -1.38419 0
M  V30 7838 H 717.878 1.34429 -3.99383 0
M  V30 7839 H 716.602 1.68387 -2.79845 0
M  V30 7840 H 715.261 -0.268551 -3.65615 0
M  V30 7841 H 714.909 2.01736 -4.60773 0
M  V30 7842 H 714.609 0.754038 -5.82742 0
M  V30 7843 H 716.133 1.68555 -5.86874 0
M  V30 7844 H 717.547 -0.579875 -5.7036 0
M  V30 7845 H 715.944 -1.35828 -5.84526 0
M  V30 7846 H 717.014 -1.80003 -4.50252 0
M  V30 7847 N 718.357 1.51182 -0.445186 0
M  V30 7848 C 719.604 2.02152 0.118645 0
M  V30 7849 C 719.932 1.32888 1.42025 0
M  V30 7850 O 719.187 0.435041 1.90803 0
M  V30 7851 C 719.486 3.55408 0.376797 0
M  V30 7852 C 719.152 4.43008 -0.839945 0
M  V30 7853 C 717.814 4.66669 -1.17361 0
M  V30 7854 C 720.166 4.9435 -1.65127 0
M  V30 7855 C 717.494 5.38919 -2.31913 0
M  V30 7856 C 719.846 5.67857 -2.78786 0
M  V30 7857 C 718.51 5.89779 -3.12597 0
M  V30 7858 H 717.78 0.739727 0.0434152 0
M  V30 7859 H 720.427 1.82055 -0.593984 0
M  V30 7860 H 718.732 3.73879 1.1714 0
M  V30 7861 H 720.429 3.92388 0.826602 0
M  V30 7862 H 717.019 4.24793 -0.569958 0
M  V30 7863 H 721.203 4.75947 -1.4067 0
M  V30 7864 H 716.459 5.54105 -2.58413 0
M  V30 7865 H 720.633 6.06628 -3.42017 0
M  V30 7866 H 718.26 6.45542 -4.01471 0
M  V30 7867 N 719.835 0.176821 1.56605 0
M  V30 7868 C 721.081 -0.467406 1.9734 0
M  V30 7869 C 721.414 -1.62523 1.06301 0
M  V30 7870 O 720.689 -1.94182 0.11125 0
M  V30 7871 C 720.972 -0.945106 3.47476 0
M  V30 7872 C 720.825 0.213273 4.49294 0
M  V30 7873 C 722.144 -1.8169 4.00845 0
M  V30 7874 H 719.263 -0.168426 0.717497 0
M  V30 7875 H 721.905 0.264065 1.88156 0
M  V30 7876 H 720.055 -1.56841 3.55434 0
M  V30 7877 H 721.727 0.850508 4.53392 0
M  V30 7878 H 719.97 0.867918 4.25029 0
M  V30 7879 H 720.641 -0.163187 5.51759 0
M  V30 7880 H 723.117 -1.29139 3.95553 0
M  V30 7881 H 721.993 -2.12015 5.06301 0
M  V30 7882 H 722.254 -2.76463 3.44994 0
M  V30 7883 N 721.313 -1.57302 -0.09688 0
M  V30 7884 C 722.724 -1.7496 -0.651595 0
M  V30 7885 C 723.075 -0.798746 -1.79205 0
M  V30 7886 O 722.2 0.0231858 -2.16388 0
M  V30 7887 C 722.795 -3.17259 -1.18878 0
M  V30 7888 C 721.354 -3.36348 -1.68958 0
M  V30 7889 C 720.501 -2.70766 -0.598413 0
M  V30 7890 H 723.452 -1.58173 0.12918 0
M  V30 7891 H 723.473 -3.20033 -2.05814 0
M  V30 7892 H 722.985 -3.8644 -0.358523 0
M  V30 7893 H 721.086 -2.72243 -2.5439 0
M  V30 7894 H 721.199 -4.44654 -1.7838 0
M  V30 7895 H 719.563 -2.32615 -1.03743 0
M  V30 7896 H 720.346 -3.42586 0.221238 0
M  V30 7897 N 722.791 0.367657 -1.53252 0
M  V30 7898 C 724.039 1.10832 -1.68999 0
M  V30 7899 C 724.36 1.89894 -0.443306 0
M  V30 7900 O 723.63 1.88235 0.54262 0
M  V30 7901 H 722.21 0.412153 -0.623008 0
M  V30 7902 H 724.872 0.414775 -1.90435 0
M  V30 7903 H 723.968 1.7993 -2.55013 0
M  V30 7904 N 724.269 1.44576 0.627338 0
M  V30 7905 C 725.516 1.47558 1.38682 0
M  V30 7906 C 725.844 0.109636 1.94191 0
M  V30 7907 O 725.099 -0.889092 1.74338 0
M  V30 7908 C 725.398 2.48644 2.56731 0
M  V30 7909 C 725.064 3.93873 2.19489 0
M  V30 7910 C 723.726 4.33421 2.09045 0
M  V30 7911 C 726.078 4.85286 1.90124 0
M  V30 7912 C 723.406 5.62303 1.6743 0
M  V30 7913 C 725.758 6.14559 1.50001 0
M  V30 7914 C 724.422 6.53058 1.38101 0
M  V30 7915 H 723.692 0.539955 0.507474 0
M  V30 7916 H 726.339 1.77811 0.711021 0
M  V30 7917 H 724.644 2.11889 3.29561 0
M  V30 7918 H 726.341 2.48197 3.14959 0
M  V30 7919 H 722.931 3.62587 2.28537 0
M  V30 7920 H 727.115 4.55483 1.971 0
M  V30 7921 H 722.371 5.90945 1.56823 0
M  V30 7922 H 726.545 6.84848 1.26319 0
M  V30 7923 H 724.172 7.52826 1.05628 0
M  V30 7924 N 725.747 -0.868086 1.31537 0
M  V30 7925 C 726.972 -1.65926 1.24432 0
M  V30 7926 C 727.397 -1.87169 -0.186936 0
M  V30 7927 O 726.755 -1.4148 -1.13371 0
M  V30 7928 C 726.803 -3.00347 1.9956 0
M  V30 7929 O 725.907 -3.90221 1.33422 0
M  V30 7930 H 725.248 -0.506375 0.429512 0
M  V30 7931 H 727.778 -1.0822 1.73637 0
M  V30 7932 H 727.788 -3.50269 2.09226 0
M  V30 7933 H 726.463 -2.84205 3.03645 0
M  V30 7934 H 725.04 -3.48672 1.32219 0
M  V30 7935 N 727.225 -1.14528 -1.08264 0
M  V30 7936 C 728.453 -0.937964 -1.84418 0
M  V30 7937 C 728.868 0.51357 -1.81681 0
M  V30 7938 O 728.225 1.35591 -1.22153 0
M  V30 7939 C 728.276 -1.43272 -3.31897 0
M  V30 7940 O 727.997 -2.82738 -3.34651 0
M  V30 7941 C 729.498 -1.26555 -4.24851 0
M  V30 7942 H 726.718 -0.333704 -0.582136 0
M  V30 7943 H 729.262 -1.52076 -1.36723 0
M  V30 7944 H 727.417 -0.892653 -3.76975 0
M  V30 7945 H 727.831 -3.04971 -4.26724 0
M  V30 7946 H 729.305 -1.66031 -5.26439 0
M  V30 7947 H 729.782 -0.208589 -4.38704 0
M  V30 7948 H 730.388 -1.79423 -3.856 0
M  V30 7949 N 728.703 1.26451 -0.940633 0
M  V30 7950 C 729.65 2.264 -0.448497 0
M  V30 7951 C 730.62 1.5866 0.491546 0
M  V30 7952 O 731.805 1.86389 0.407874 0
M  V30 7953 C 728.945 3.43956 0.280715 0
M  V30 7954 C 728.058 4.26374 -0.694937 0
M  V30 7955 C 727.193 5.31171 0.0554186 0
M  V30 7956 C 726.232 6.05266 -0.912091 0
M  V30 7957 N 725.369 7.01833 -0.193524 0
M  V30 7958 H 730.209 2.67869 -1.30576 0
M  V30 7959 H 727.746 1.31707 -0.655112 0
M  V30 7960 H 729.704 4.10941 0.71994 0
M  V30 7961 H 728.334 3.03403 1.10212 0
M  V30 7962 H 727.386 3.59183 -1.25267 0
M  V30 7963 H 728.698 4.77748 -1.43382 0
M  V30 7964 H 727.852 6.04166 0.553951 0
M  V30 7965 H 726.591 4.80634 0.827183 0
M  V30 7966 H 725.596 5.31099 -1.42175 0
M  V30 7967 H 726.821 6.57893 -1.68385 0
M  V30 7968 H 724.767 6.53607 0.559758 0
M  V30 7969 H 724.684 7.50957 -0.871744 0
M  V30 7970 H 725.952 7.78983 0.283932 0
M  V30 7971 N 730.181 0.707592 1.40822 0
M  V30 7972 C 731.091 0.0507246 2.34545 0
M  V30 7973 C 732.107 -0.752727 1.56876 0
M  V30 7974 O 733.283 -0.687524 1.89302 0
M  V30 7975 C 730.348 -0.865731 3.35717 0
M  V30 7976 C 729.409 -0.0531313 4.29267 0
M  V30 7977 C 728.642 -0.925939 5.25606 0
M  V30 7978 O 728.865 -2.16531 5.27703 0
M  V30 7979 O 727.799 -0.369194 6.00767 0
M  V30 7980 H 731.625 0.823587 2.9232 0
M  V30 7981 H 729.21 0.46801 1.4188 0
M  V30 7982 H 731.092 -1.39091 3.97783 0
M  V30 7983 H 729.767 -1.61788 2.80368 0
M  V30 7984 H 728.674 0.516931 3.70511 0
M  V30 7985 H 730.007 0.660617 4.87747 0
M  V30 7986 N 731.66 -1.50943 0.453197 0
M  V30 7987 C 732.607 -2.28128 -0.350197 0
M  V30 7988 C 733.577 -1.32398 -1.00299 0
M  V30 7989 O 734.762 -1.61319 -1.01887 0
M  V30 7990 C 731.902 -3.13782 -1.43649 0
M  V30 7991 C 731.015 -4.24523 -0.800255 0
M  V30 7992 C 730.15 -4.97462 -1.86293 0
M  V30 7993 C 729.189 -6.00102 -1.20598 0
M  V30 7994 N 728.326 -6.66387 -2.21071 0
M  V30 7995 H 733.166 -2.96337 0.31434 0
M  V30 7996 H 730.703 -1.46151 0.166863 0
M  V30 7997 H 732.661 -3.6178 -2.07776 0
M  V30 7998 H 731.291 -2.47655 -2.07044 0
M  V30 7999 H 730.343 -3.80371 -0.0468651 0
M  V30 8000 H 731.655 -4.98009 -0.280777 0
M  V30 8001 H 730.809 -5.49088 -2.58044 0
M  V30 8002 H 729.548 -4.23642 -2.41617 0
M  V30 8003 H 728.553 -5.47753 -0.474 0
M  V30 8004 H 729.778 -6.75887 -0.659859 0
M  V30 8005 H 727.724 -5.9537 -2.75446 0
M  V30 8006 H 727.641 -7.3569 -1.74058 0
M  V30 8007 H 728.909 -7.22638 -2.92257 0
M  V30 8008 N 733.138 -0.185124 -1.56509 0
M  V30 8009 C 734.384 0.456934 -1.97585 0
M  V30 8010 C 734.717 1.61957 -1.07161 0
M  V30 8011 O 733.992 1.9412 -0.121546 0
M  V30 8012 C 734.275 0.926666 -3.47973 0
M  V30 8013 C 734.128 -0.237097 -4.49175 0
M  V30 8014 C 735.447 1.79561 -4.01803 0
M  V30 8015 H 732.566 0.164619 -0.71838 0
M  V30 8016 H 735.208 -0.274039 -1.88013 0
M  V30 8017 H 733.358 1.54954 -3.56261 0
M  V30 8018 H 735.03 -0.87454 -4.52934 0
M  V30 8019 H 733.273 -0.890446 -4.24563 0
M  V30 8020 H 733.944 0.133924 -5.51838 0
M  V30 8021 H 736.42 1.27039 -3.96232 0
M  V30 8022 H 735.296 2.09327 -5.07418 0
M  V30 8023 H 735.557 2.74629 -3.46455 0
M  V30 8024 N 734.616 1.57351 0.0885366 0
M  V30 8025 C 735.841 1.91011 0.80805 0
M  V30 8026 C 736.266 0.780009 1.71165 0
M  V30 8027 O 735.624 -0.268083 1.79307 0
M  V30 8028 C 735.672 3.23562 1.59185 0
M  V30 8029 O 734.776 3.11615 2.7013 0
M  V30 8030 H 734.117 0.625943 0.221565 0
M  V30 8031 H 736.647 2.04507 0.0617954 0
M  V30 8032 H 736.657 3.5703 1.97468 0
M  V30 8033 H 735.332 4.05398 0.928741 0
M  V30 8034 H 733.909 2.89673 2.34827 0
M  V30 8035 N 736.094 -0.359525 1.53444 0
M  V30 8036 C 737.004 -1.46445 1.83278 0
M  V30 8037 C 738.02 -1.5833 0.721629 0
M  V30 8038 O 739.196 -1.7411 1.01231 0
M  V30 8039 C 736.261 -2.81638 2.02191 0
M  V30 8040 C 735.322 -2.7923 3.26082 0
M  V30 8041 C 734.555 -4.07974 3.44082 0
M  V30 8042 O 734.778 -5.04447 2.66251 0
M  V30 8043 O 733.712 -4.13417 4.37458 0
M  V30 8044 H 737.538 -1.24156 2.77162 0
M  V30 8045 H 735.123 -0.550201 1.389 0
M  V30 8046 H 737.005 -3.61732 2.16167 0
M  V30 8047 H 735.68 -3.03892 1.11496 0
M  V30 8048 H 734.587 -1.97813 3.17523 0
M  V30 8049 H 735.92 -2.6193 4.16718 0
M  V30 8050 N 737.572 -1.44907 -0.619662 0
M  V30 8051 C 738.818 -1.48512 -1.38102 0
M  V30 8052 C 739.151 -0.121686 -1.93818 0
M  V30 8053 O 738.426 0.862256 -1.74343 0
M  V30 8054 C 738.709 -2.55469 -2.53787 0
M  V30 8055 C 738.562 -4.01212 -2.03345 0
M  V30 8056 C 739.881 -2.58821 -3.55949 0
M  V30 8057 H 737 -0.540712 -0.500799 0
M  V30 8058 H 739.642 -1.7665 -0.69962 0
M  V30 8059 H 737.792 -2.31606 -3.11915 0
M  V30 8060 H 739.464 -4.36245 -1.49959 0
M  V30 8061 H 737.707 -4.12443 -1.34438 0
M  V30 8062 H 738.378 -4.71717 -2.86683 0
M  V30 8063 H 740.854 -2.80172 -3.07641 0
M  V30 8064 H 739.73 -3.35542 -4.34399 0
M  V30 8065 H 739.991 -1.63451 -4.10775 0
M  V30 8066 N 739.05 0.861098 -1.31996 0
M  V30 8067 C 740.275 1.65264 -1.2531 0
M  V30 8068 C 740.7 1.87265 0.177007 0
M  V30 8069 O 740.058 1.4208 1.12619 0
M  V30 8070 C 740.106 2.99284 -2.0115 0
M  V30 8071 O 739.21 3.89508 -1.3549 0
M  V30 8072 H 738.551 0.50409 -0.432192 0
M  V30 8073 H 741.081 1.07297 -1.74208 0
M  V30 8074 H 741.091 3.49154 -2.11081 0
M  V30 8075 H 739.766 2.82591 -3.05148 0
M  V30 8076 H 738.343 3.47966 -1.34066 0
M  V30 8077 N 740.528 1.15101 1.07655 0
M  V30 8078 C 741.776 0.922149 1.79836 0
M  V30 8079 C 742.097 -0.552346 1.87014 0
M  V30 8080 O 741.367 -1.40145 1.3688 0
M  V30 8081 H 739.947 0.338182 0.666064 0
M  V30 8082 H 742.609 1.45107 1.30115 0
M  V30 8083 H 741.705 1.32883 2.82398 0
M  V30 8084 N 742.006 -1.2595 0.947325 0
M  V30 8085 C 743.422 -1.45737 0.650597 0
M  V30 8086 C 743.622 -1.85189 -0.794188 0
M  V30 8087 O 742.678 -1.97738 -1.57022 0
M  V30 8088 C 743.991 -2.53505 1.61728 0
M  V30 8089 C 745.539 -2.67351 1.62765 0
M  V30 8090 C 746.014 -3.78296 2.58179 0
M  V30 8091 N 747.505 -3.85696 2.56501 0
M  V30 8092 C 748.24 -4.71012 3.2701 0
M  V30 8093 N 747.736 -5.60669 4.06966 0
M  V30 8094 N 749.529 -4.64912 3.15932 0
M  V30 8095 H 741.68 -0.986327 1.8811 0
M  V30 8096 H 743.943 -0.494639 0.808725 0
M  V30 8097 H 743.649 -2.31357 2.6489 0
M  V30 8098 H 743.523 -3.51281 1.3741 0
M  V30 8099 H 745.91 -2.88869 0.603241 0
M  V30 8100 H 745.991 -1.69998 1.91139 0
M  V30 8101 H 745.635 -3.5753 3.60742 0
M  V30 8102 H 745.565 -4.75117 2.27093 0
M  V30 8103 H 748.056 -3.21601 1.98447 0
M  V30 8104 H 748.369 -6.22677 4.57704 0
M  V30 8105 H 746.714 -5.60402 4.11066 0
M  V30 8106 H 749.905 -3.93874 2.52945 0
M  V30 8107 H 750.078 -5.3118 3.71149 0
M  V30 8108 N 743.484 -0.715051 -1.40445 0
M  V30 8109 C 744.732 -0.253826 -2.005 0
M  V30 8110 C 745.053 1.15681 -1.5698 0
M  V30 8111 O 744.323 1.78414 -0.809027 0
M  V30 8112 H 742.903 -0.0908537 -0.741454 0
M  V30 8113 H 745.565 -0.920561 -1.7179 0
M  V30 8114 H 744.661 -0.286499 -3.10782 0
M  V30 8115 N 744.962 1.50701 -0.461195 0
M  V30 8116 C 746.208 2.02566 0.0973411 0
M  V30 8117 C 746.541 1.3432 1.40257 0
M  V30 8118 O 745.816 0.465692 1.88843 0
M  V30 8119 C 746.099 3.58919 0.291423 0
M  V30 8120 C 745.952 4.37751 -1.03413 0
M  V30 8121 C 747.271 4.27379 1.05048 0
M  V30 8122 H 744.39 0.73622 0.0339026 0
M  V30 8123 H 747.032 1.80115 -0.604855 0
M  V30 8124 H 745.182 3.78179 0.889539 0
M  V30 8125 H 746.854 4.30085 -1.66806 0
M  V30 8126 H 745.097 4.01885 -1.63313 0
M  V30 8127 H 745.768 5.45384 -0.852085 0
M  V30 8128 H 748.244 4.12534 0.543603 0
M  V30 8129 H 747.12 5.36609 1.15506 0
M  V30 8130 H 747.381 3.89868 2.0846 0
M  V30 8131 N 746.441 0.193421 1.56409 0
M  V30 8132 C 747.689 -0.444908 1.97142 0
M  V30 8133 C 748.01 -1.62268 1.08139 0
M  V30 8134 O 747.28 -1.95307 0.152326 0
M  V30 8135 H 745.86 -0.16736 0.728011 0
M  V30 8136 H 748.522 0.279763 1.92882 0
M  V30 8137 H 747.618 -0.790159 3.01932 0
M  V30 8138 N 747.919 -1.57396 -0.0801906 0
M  V30 8139 C 748.852 -1.98386 -1.12774 0
M  V30 8140 C 749.83 -0.859423 -1.38031 0
M  V30 8141 O 751.014 -1.12101 -1.51544 0
M  V30 8142 C 748.141 -2.3134 -2.47386 0
M  V30 8143 C 747.187 -3.53706 -2.38316 0
M  V30 8144 S 748.02 -5.04862 -1.78534 0
M  V30 8145 C 749.176 -5.41008 -3.1474 0
M  V30 8146 H 749.409 -2.86929 -0.778382 0
M  V30 8147 H 746.942 -1.51682 -0.28842 0
M  V30 8148 H 748.9 -2.51 -3.24822 0
M  V30 8149 H 747.561 -1.4334 -2.79486 0
M  V30 8150 H 746.754 -3.74253 -3.37566 0
M  V30 8151 H 746.356 -3.33632 -1.69014 0
M  V30 8152 H 748.648 -5.38565 -4.1104 0
M  V30 8153 H 749.591 -6.41885 -2.98981 0
M  V30 8154 H 749.999 -4.68467 -3.14958 0
M  V30 8155 N 749.397 0.351382 -1.53633 0
M  V30 8156 C 750.674 1.10903 -1.6112 0
M  V30 8157 C 751.054 2.06725 -0.427556 0
M  V30 8158 O 750.402 2.20992 0.580916 0
M  V30 8159 C 750.612 1.83561 -2.96827 0
M  V30 8160 C 751.96 2.37587 -3.51906 0
M  V30 8161 O 752.984 1.93669 -2.9895 0
M  V30 8162 O 751.843 3.17913 -4.44515 0
M  V30 8163 H 748.937 0.509558 -0.651368 0
M  V30 8164 H 751.483 0.353504 -1.65977 0
M  V30 8165 H 750.255 1.1371 -3.74414 0
M  V30 8166 H 749.878 2.6599 -2.95525 0
M  V30 8167 N 750.875 1.45233 0.611969 0
M  V30 8168 C 752.121 1.49242 1.37312 0
M  V30 8169 C 752.454 0.131963 1.93751 0
M  V30 8170 O 751.729 -0.852999 1.74798 0
M  V30 8171 C 752.012 2.56811 2.52428 0
M  V30 8172 C 751.865 4.02284 2.01215 0
M  V30 8173 C 753.184 2.60705 3.54572 0
M  V30 8174 H 750.303 0.54336 0.497925 0
M  V30 8175 H 752.945 1.77019 0.690242 0
M  V30 8176 H 751.095 2.33256 3.10683 0
M  V30 8177 H 752.767 4.37035 1.47643 0
M  V30 8178 H 751.01 4.1315 1.32248 0
M  V30 8179 H 751.681 4.7323 2.84178 0
M  V30 8180 H 754.157 2.81799 3.06151 0
M  V30 8181 H 753.033 3.37841 4.32614 0
M  V30 8182 H 753.294 1.65627 4.09903 0
M  V30 8183 N 752.353 -0.854086 1.3245 0
M  V30 8184 C 753.599 -1.61069 1.23225 0
M  V30 8185 C 753.932 -1.93111 -0.205349 0
M  V30 8186 O 753.207 -1.57397 -1.14265 0
M  V30 8187 C 753.49 -2.93065 2.09249 0
M  V30 8188 C 753.343 -2.67801 3.6139 0
M  V30 8189 C 754.662 -3.94341 1.95406 0
M  V30 8190 H 751.781 -0.584449 0.448986 0
M  V30 8191 H 754.423 -0.986189 1.62402 0
M  V30 8192 H 752.573 -3.46364 1.75967 0
M  V30 8193 H 754.245 -2.21052 4.04887 0
M  V30 8194 H 752.488 -2.01756 3.84027 0
M  V30 8195 H 753.159 -3.6179 4.16907 0
M  V30 8196 H 755.635 -3.50301 2.24562 0
M  V30 8197 H 754.511 -4.84555 2.57872 0
M  V30 8198 H 754.772 -4.32382 0.921865 0
M  V30 8199 N 753.831 -1.1567 -1.07043 0
M  V30 8200 C 754.778 -0.856336 -2.14326 0
M  V30 8201 C 755.748 0.192051 -1.64986 0
M  V30 8202 O 756.933 0.0589148 -1.90709 0
M  V30 8203 C 754.073 -0.355227 -3.43267 0
M  V30 8204 C 753.186 -1.46555 -4.06381 0
M  V30 8205 C 752.321 -0.920245 -5.23168 0
M  V30 8206 C 751.36 -2.00729 -5.78251 0
M  V30 8207 N 750.497 -1.47813 -6.86364 0
M  V30 8208 H 755.337 -1.77514 -2.39359 0
M  V30 8209 H 752.874 -0.885676 -1.17449 0
M  V30 8210 H 754.832 -0.0463804 -4.17174 0
M  V30 8211 H 753.462 0.526649 -3.18475 0
M  V30 8212 H 752.514 -1.89052 -3.30096 0
M  V30 8213 H 753.826 -2.28616 -4.43324 0
M  V30 8214 H 752.98 -0.564127 -6.04072 0
M  V30 8215 H 751.719 -0.0688477 -4.87651 0
M  V30 8216 H 750.724 -2.3722 -4.95991 0
M  V30 8217 H 751.949 -2.86252 -6.15822 0
M  V30 8218 H 749.895 -0.649145 -6.5278 0
M  V30 8219 H 749.812 -2.23498 -7.22208 0
M  V30 8220 H 751.08 -1.15036 -7.70965 0
M  V30 8221 N 755.309 1.25446 -0.953992 0
M  V30 8222 C 756.257 2.27909 -0.46478 0
M  V30 8223 C 757.251 1.62904 0.464607 0
M  V30 8224 O 758.457 1.76733 0.341407 0
M  V30 8225 H 754.832 0.74036 -0.131798 0
M  V30 8226 H 756.803 2.66559 -1.34122 0
M  V30 8227 C 755.552 3.46853 0.242589 0
M  V30 8228 H 754.875 3.97105 -0.463418 0
M  V30 8229 H 756.315 4.20432 0.548919 0
M  V30 8230 C 754.774 3.03386 1.46487 0
M  V30 8231 O 755.304 3.09342 2.56262 0
M  V30 8232 N 753.51 2.58584 1.32599 0
M  V30 8233 H 753.057 2.53938 0.432834 0
M  V30 8234 H 753.015 2.29866 2.14497 0
M  V30 8235 N 756.787 0.722489 1.40064 0
M  V30 8236 C 758.033 0.265371 2.01056 0
M  V30 8237 C 758.366 -1.14062 1.57174 0
M  V30 8238 O 757.641 -1.77514 0.794916 0
M  V30 8239 C 757.924 0.353157 3.58364 0
M  V30 8240 C 757.777 1.79802 4.123 0
M  V30 8241 C 759.096 -0.271677 4.39261 0
M  V30 8242 H 756.215 0.0979002 0.730469 0
M  V30 8243 H 758.857 0.916289 1.66446 0
M  V30 8244 H 757.007 -0.201037 3.87979 0
M  V30 8245 H 758.679 2.40813 3.93455 0
M  V30 8246 H 756.922 2.32348 3.66329 0
M  V30 8247 H 757.593 1.81079 5.21454 0
M  V30 8248 H 760.069 0.200607 4.15616 0
M  V30 8249 H 758.945 -0.179843 5.48605 0
M  V30 8250 H 759.206 -1.35611 4.20787 0
M  V30 8251 N 758.265 -1.50454 0.469181 0
M  V30 8252 C 759.511 -2.02615 -0.0865971 0
M  V30 8253 C 759.844 -1.35062 -1.39542 0
M  V30 8254 O 759.119 -0.475701 -1.88593 0
M  V30 8255 C 759.402 -3.59068 -0.272385 0
M  V30 8256 C 759.255 -4.37196 1.05733 0
M  V30 8257 C 760.574 -4.2793 -1.0278 0
M  V30 8258 H 757.693 -0.736389 -0.0299977 0
M  V30 8259 H 760.335 -1.79792 0.614399 0
M  V30 8260 H 758.485 -3.78646 -0.869471 0
M  V30 8261 H 760.157 -4.29195 1.69084 0
M  V30 8262 H 758.4 -4.01013 1.65442 0
M  V30 8263 H 759.071 -5.44924 0.880997 0
M  V30 8264 H 761.547 -4.12816 -0.521718 0
M  V30 8265 H 760.423 -5.37214 -1.12659 0
M  V30 8266 H 760.684 -3.90968 -2.0639 0
M  V30 8267 N 759.743 -0.201713 -1.56304 0
M  V30 8268 C 760.653 0.728296 -2.23009 0
M  V30 8269 C 761.669 1.22945 -1.23128 0
M  V30 8270 O 762.845 1.27523 -1.55884 0
M  V30 8271 C 759.91 1.92792 -2.88153 0
M  V30 8272 C 758.971 1.47068 -4.03323 0
M  V30 8273 C 758.204 2.61312 -4.65351 0
M  V30 8274 O 758.427 3.7896 -4.26317 0
M  V30 8275 O 757.361 2.33646 -5.54701 0
M  V30 8276 H 761.187 0.190166 -3.03104 0
M  V30 8277 H 758.772 0.0278725 -1.49374 0
M  V30 8278 H 760.654 2.6289 -3.29343 0
M  V30 8279 H 759.329 2.45452 -2.11033 0
M  V30 8280 H 758.236 0.738299 -3.66742 0
M  V30 8281 H 759.569 0.990666 -4.82127 0
M  V30 8282 N 761.222 1.57436 0.0718424 0
M  V30 8283 C 762.447 1.91858 0.787745 0
M  V30 8284 C 762.872 0.798119 1.70328 0
M  V30 8285 O 762.23 -0.24905 1.79581 0
M  V30 8286 C 762.278 3.25232 1.55744 0
M  V30 8287 O 761.382 3.14462 2.6681 0
M  V30 8288 H 760.723 0.628258 0.214914 0
M  V30 8289 H 763.253 2.04561 0.0401012 0
M  V30 8290 H 763.263 3.59105 1.9367 0
M  V30 8291 H 761.938 4.0636 0.885691 0
M  V30 8292 H 760.515 2.92148 2.31741 0
M  V30 8293 N 762.7 -0.34323 1.53817 0
M  V30 8294 C 763.63 -1.42709 1.84814 0
M  V30 8295 C 764.611 -1.5488 0.703297 0
M  V30 8296 O 765.796 -1.69082 0.955237 0
M  V30 8297 C 762.926 -2.79756 2.05801 0
M  V30 8298 C 761.88 -2.82392 3.21619 0
M  V30 8299 C 761.206 -4.22326 3.2794 0
M  V30 8300 C 762.506 -2.479 4.59721 0
M  V30 8301 H 764.2 -1.17018 2.75585 0
M  V30 8302 H 761.746 -0.561485 1.32602 0
M  V30 8303 H 763.699 -3.55627 2.26069 0
M  V30 8304 H 762.423 -3.06883 1.11761 0
M  V30 8305 H 761.082 -2.08974 3.01207 0
M  V30 8306 H 760.73 -4.46564 2.31494 0
M  V30 8307 H 760.43 -4.25001 4.05768 0
M  V30 8308 H 761.954 -5.00039 3.50419 0
M  V30 8309 H 763.368 -3.13484 4.80001 0
M  V30 8310 H 761.765 -2.61857 5.39954 0
M  V30 8311 H 762.835 -1.43087 4.63308 0
M  V30 8312 N 764.178 -1.45556 -0.604258 0
M  V30 8313 C 765.126 -1.5482 -1.7359 0
M  V30 8314 C 766.12 -0.417966 -1.64163 0
M  V30 8315 O 767.326 -0.594007 -1.69916 0
M  V30 8316 H 763.701 -0.486352 -0.573556 0
M  V30 8317 H 765.672 -2.5001 -1.62903 0
M  V30 8318 C 764.421 -1.53521 -3.11972 0
M  V30 8319 H 763.744 -2.39818 -3.19886 0
M  V30 8320 H 765.184 -1.64061 -3.90973 0
M  V30 8321 C 763.643 -0.260191 -3.35894 0
M  V30 8322 O 764.173 0.658582 -3.96265 0
M  V30 8323 N 762.379 -0.154839 -2.90187 0
M  V30 8324 H 761.926 -0.903378 -2.4124 0
M  V30 8325 H 761.884 0.697437 -3.06567 0
M  V30 8326 N 765.656 0.84705 -1.32902 0
M  V30 8327 C 766.904 1.5986 -1.2365 0
M  V30 8328 C 767.225 1.93974 0.199789 0
M  V30 8329 O 766.495 1.60273 1.12648 0
M  V30 8330 H 765.075 0.592696 -0.454665 0
M  V30 8331 H 767.737 1.01278 -1.66519 0
M  V30 8332 H 766.833 2.53218 -1.82448 0
M  V30 8333 N 767.134 1.16236 1.06428 0
M  V30 8334 C 768.359 0.967688 1.83441 0
M  V30 8335 C 768.784 -0.479167 1.81894 0
M  V30 8336 O 768.142 -1.34224 1.21875 0
M  V30 8337 C 768.19 1.49806 3.2801 0
M  V30 8338 O 767.294 0.703481 4.06356 0
M  V30 8339 H 766.635 0.344468 0.56766 0
M  V30 8340 H 769.165 1.54442 1.34197 0
M  V30 8341 H 769.175 1.51495 3.78831 0
M  V30 8342 H 767.85 2.55133 3.2845 0
M  V30 8343 H 766.427 0.756986 3.65136 0
M  V30 8344 N 768.612 -1.24939 0.960631 0
M  V30 8345 C 769.861 -1.92118 0.614298 0
M  V30 8346 C 770.174 -1.75998 -0.853474 0
M  V30 8347 O 771.38 -2.37804 -1.31003 0
M  V30 8348 C 769.836 -3.44303 1.04801 0
M  V30 8349 C 769.444 -3.69123 2.53875 0
M  V30 8350 C 771.188 -4.17375 0.774497 0
M  V30 8351 C 769.095 -5.14843 2.91016 0
M  V30 8352 H 768.025 -0.719319 0.226045 0
M  V30 8353 H 770.676 -1.41701 1.16589 0
M  V30 8354 H 769.058 -3.93715 0.42479 0
M  V30 8355 H 770.232 -3.30339 3.21267 0
M  V30 8356 H 768.547 -3.09323 2.78762 0
M  V30 8357 H 771.144 -5.24723 1.02808 0
M  V30 8358 H 771.487 -4.15294 -0.289192 0
M  V30 8359 H 772.02 -3.7389 1.35835 0
M  V30 8360 H 768.759 -5.2204 3.96427 0
M  V30 8361 H 768.279 -5.54652 2.28302 0
M  V30 8362 H 769.958 -5.83017 2.80535 0
M  V30 8363 N 770.09 -0.729906 -1.39679 0
M  V30 8364 C 771.315 -0.284345 -2.05442 0
M  V30 8365 C 771.74 1.07056 -1.54663 0
M  V30 8366 O 771.098 1.67732 -0.688157 0
M  V30 8367 C 771.146 -0.290089 -3.59431 0
M  V30 8368 O 770.25 0.723978 -4.05995 0
M  V30 8369 H 769.591 -0.130311 -0.651088 0
M  V30 8370 H 772.121 -0.994403 -1.78809 0
M  V30 8371 H 772.131 -0.132712 -4.07784 0
M  V30 8372 H 770.806 -1.27877 -3.95753 0
M  V30 8373 H 769.383 0.533154 -3.69069 0
M  V30 8374 N 771.568 1.50203 -0.477153 0
M  V30 8375 C 772.817 2.01551 0.0774548 0
M  V30 8376 C 773.13 1.36359 1.40234 0
M  V30 8377 O 774.336 1.78898 2.04225 0
M  V30 8378 C 772.792 3.59406 0.188539 0
M  V30 8379 C 772.4 4.3356 -1.12828 0
M  V30 8380 C 774.144 4.18776 0.694782 0
M  V30 8381 C 772.051 5.83213 -0.98066 0
M  V30 8382 H 770.981 0.75329 0.0327212 0
M  V30 8383 H 773.632 1.72959 -0.612969 0
M  V30 8384 H 772.014 3.84611 0.942881 0
M  V30 8385 H 773.188 4.20074 -1.89405 0
M  V30 8386 H 771.503 3.85827 -1.5661 0
M  V30 8387 H 774.1 5.28338 0.822356 0
M  V30 8388 H 774.443 3.80557 1.68766 0
M  V30 8389 H 774.976 3.978 -0.00234519 0
M  V30 8390 H 771.715 6.25914 -1.94709 0
M  V30 8391 H 771.235 5.99256 -0.255375 0
M  V30 8392 H 772.914 6.4373 -0.649717 0
M  V30 8393 N 773.046 0.209999 1.56195 0
M  V30 8394 C 773.956 -0.716459 2.23392 0
M  V30 8395 C 774.972 -1.22291 1.23778 0
M  V30 8396 O 776.148 -1.26694 1.56558 0
M  V30 8397 C 773.213 -1.91261 2.89172 0
M  V30 8398 C 772.274 -1.44927 4.04097 0
M  V30 8399 C 771.507 -2.5884 4.66731 0
M  V30 8400 O 771.73 -3.76693 4.2832 0
M  V30 8401 O 770.664 -2.30701 5.55932 0
M  V30 8402 H 774.49 -0.174089 3.03201 0
M  V30 8403 H 772.075 -0.0199505 1.49387 0
M  V30 8404 H 773.957 -2.6114 3.30733 0
M  V30 8405 H 772.632 -2.4433 2.12331 0
M  V30 8406 H 771.539 -0.718839 3.67129 0
M  V30 8407 H 772.872 -0.965084 4.82646 0
M  V30 8408 N 774.524 -1.57472 -0.0634922 0
M  V30 8409 C 775.749 -1.92273 -0.77756 0
M  V30 8410 C 776.174 -0.807141 -1.69902 0
M  V30 8411 O 775.532 0.239523 -1.79711 0
M  V30 8412 C 775.58 -3.26054 -1.54017 0
M  V30 8413 O 774.684 -3.15873 -2.65138 0
M  V30 8414 H 774.025 -0.629389 -0.211579 0
M  V30 8415 H 776.555 -2.04579 -0.0292523 0
M  V30 8416 H 776.565 -3.60127 -1.91763 0
M  V30 8417 H 775.24 -4.06824 -0.864128 0
M  V30 8418 H 773.817 -2.93373 -2.30189 0
M  V30 8419 N 776.003 0.335068 -1.53997 0
M  V30 8420 C 776.913 1.43511 -1.85585 0
M  V30 8421 C 777.929 1.57162 -0.746726 0
M  V30 8422 O 779.105 1.72477 -1.03988 0
M  V30 8423 C 776.17 2.78386 -2.06646 0
M  V30 8424 C 775.231 2.74007 -3.30483 0
M  V30 8425 C 774.464 4.02449 -3.50529 0
M  V30 8426 O 774.687 5.00147 -2.74242 0
M  V30 8427 O 773.621 4.06405 -4.4398 0
M  V30 8428 H 777.447 1.19731 -2.79102 0
M  V30 8429 H 775.032 0.528033 -1.39758 0
M  V30 8430 H 776.914 3.58247 -2.21894 0
M  V30 8431 H 775.589 3.0208 -1.16317 0
M  V30 8432 H 774.496 1.92736 -3.2063 0
M  V30 8433 H 775.829 2.55267 -4.20832 0
M  V30 8434 N 777.481 1.45874 0.596531 0
M  V30 8435 C 778.428 1.55389 1.70655 0
M  V30 8436 C 779.398 0.399036 1.61236 0
M  V30 8437 O 780.583 0.61396 1.80652 0
M  V30 8438 C 777.723 1.53705 3.0898 0
M  V30 8439 C 776.836 2.79823 3.29125 0
M  V30 8440 C 775.971 2.69735 4.5762 0
M  V30 8441 C 775.01 3.90856 4.71061 0
M  V30 8442 N 774.147 3.79237 5.90867 0
M  V30 8443 H 778.987 2.50211 1.61859 0
M  V30 8444 H 776.524 1.24146 0.789069 0
M  V30 8445 H 778.482 1.50715 3.89026 0
M  V30 8446 H 777.112 0.624247 3.16706 0
M  V30 8447 H 776.164 2.92852 2.42779 0
M  V30 8448 H 777.476 3.69628 3.34927 0
M  V30 8449 H 776.63 2.64773 5.45875 0
M  V30 8450 H 775.369 1.77547 4.54234 0
M  V30 8451 H 774.374 3.96164 3.81227 0
M  V30 8452 H 775.599 4.84124 4.76236 0
M  V30 8453 H 773.545 2.89825 5.88504 0
M  V30 8454 H 773.462 4.62686 5.97877 0
M  V30 8455 H 774.73 3.78227 6.8159 0
M  V30 8456 N 778.959 -0.83999 1.33349 0
M  V30 8457 C 780.236 -1.57973 1.15342 0
M  V30 8458 C 780.616 -2.09226 -0.280632 0
M  V30 8459 O 779.964 -1.89317 -1.2795 0
M  V30 8460 C 780.174 -2.71446 2.19359 0
M  V30 8461 C 781.522 -3.40654 2.53456 0
M  V30 8462 O 782.546 -2.81686 2.18017 0
M  V30 8463 O 781.405 -4.47101 3.14266 0
M  V30 8464 H 778.499 -0.6964 0.446044 0
M  V30 8465 H 781.045 -0.882843 1.44927 0
M  V30 8466 H 779.817 -2.31205 3.1569 0
M  V30 8467 H 779.44 -3.488 1.90852 0
M  V30 8468 N 780.437 -1.16799 -1.0581 0
M  V30 8469 C 781.384 -0.87902 -2.13405 0
M  V30 8470 C 782.354 0.174541 -1.6518 0
M  V30 8471 O 783.539 0.0386843 -1.90761 0
M  V30 8472 C 780.679 -0.391616 -3.42871 0
M  V30 8473 C 779.792 -1.50857 -4.04804 0
M  V30 8474 C 778.927 -0.975682 -5.22163 0
M  V30 8475 C 777.966 -2.06851 -5.76089 0
M  V30 8476 N 777.103 -1.55085 -6.84758 0
M  V30 8477 H 781.943 -1.80043 -2.37463 0
M  V30 8478 H 779.48 -0.898083 -1.16503 0
M  V30 8479 H 781.438 -0.0906247 -4.17102 0
M  V30 8480 H 780.068 0.49284 -3.19016 0
M  V30 8481 H 779.12 -1.92542 -3.28073 0
M  V30 8482 H 780.432 -2.33305 -4.40874 0
M  V30 8483 H 779.586 -0.628165 -6.03439 0
M  V30 8484 H 778.325 -0.120566 -4.87551 0
M  V30 8485 H 777.33 -2.42467 -4.93447 0
M  V30 8486 H 778.555 -2.92768 -6.12751 0
M  V30 8487 H 776.501 -0.718345 -6.52055 0
M  V30 8488 H 776.418 -2.31145 -7.19797 0
M  V30 8489 H 777.686 -1.23206 -7.69702 0
M  V30 8490 N 781.915 1.24427 -0.967243 0
M  V30 8491 C 783.163 1.92107 -0.627638 0
M  V30 8492 C 783.484 1.75991 0.83978 0
M  V30 8493 O 782.754 1.13118 1.59941 0
M  V30 8494 H 781.334 0.710986 -0.229145 0
M  V30 8495 H 783.996 1.51331 -1.22821 0
M  V30 8496 H 783.092 2.99791 -0.867844 0
M  V30 8497 N 783.393 0.737304 1.3929 0
M  V30 8498 C 784.621 0.296573 2.04763 0
M  V30 8499 C 785.036 -1.06941 1.55592 0
M  V30 8500 O 784.393 -1.67619 0.721822 0
M  V30 8501 C 784.444 0.291906 3.6032 0
M  V30 8502 O 784.165 1.60397 4.07682 0
M  V30 8503 C 785.666 -0.164708 4.42994 0
M  V30 8504 H 782.886 0.129251 0.658434 0
M  V30 8505 H 785.43 1.0016 1.78293 0
M  V30 8506 H 783.585 -0.364251 3.85684 0
M  V30 8507 H 783.999 1.51909 5.0202 0
M  V30 8508 H 785.473 -0.116814 5.51876 0
M  V30 8509 H 785.95 -1.21022 4.22197 0
M  V30 8510 H 786.556 0.461968 4.22784 0
M  V30 8511 N 784.871 -1.49948 0.485112 0
M  V30 8512 C 785.818 -2.28819 -0.301729 0
M  V30 8513 C 786.788 -1.34496 -0.974683 0
M  V30 8514 O 787.973 -1.63444 -0.984418 0
M  V30 8515 C 785.113 -3.16758 -1.36961 0
M  V30 8516 C 784.226 -4.26125 -0.710027 0
M  V30 8517 C 783.361 -5.01302 -1.75699 0
M  V30 8518 C 782.4 -6.02525 -1.07841 0
M  V30 8519 N 781.537 -6.70927 -2.06886 0
M  V30 8520 H 786.377 -2.95604 0.377127 0
M  V30 8521 H 783.914 -1.45764 0.197826 0
M  V30 8522 H 785.872 -3.66106 -2.00056 0
M  V30 8523 H 784.502 -2.51991 -2.01744 0
M  V30 8524 H 783.554 -3.80385 0.0338278 0
M  V30 8525 H 784.866 -4.98493 -0.175079 0
M  V30 8526 H 784.02 -5.54438 -2.46339 0
M  V30 8527 H 782.759 -4.28672 -2.32577 0
M  V30 8528 H 781.764 -5.48635 -0.357706 0
M  V30 8529 H 782.989 -6.77134 -0.516345 0
M  V30 8530 H 780.935 -6.01079 -2.62755 0
M  V30 8531 H 780.852 -7.39216 -1.58414 0
M  V30 8532 H 782.12 -7.28675 -2.76863 0
M  V30 8533 N 786.349 -0.21828 -1.56081 0
M  V30 8534 C 787.595 0.414921 -1.9851 0
M  V30 8535 C 787.928 1.59648 -1.10573 0
M  V30 8536 O 787.203 1.93818 -0.162695 0
M  V30 8537 C 787.486 0.852647 -3.4986 0
M  V30 8538 C 787.339 -0.33232 -4.48571 0
M  V30 8539 C 788.658 1.70998 -4.05521 0
M  V30 8540 H 785.777 0.149344 -0.72171 0
M  V30 8541 H 788.419 -0.313858 -1.8739 0
M  V30 8542 H 786.569 1.47362 -3.59467 0
M  V30 8543 H 788.241 -0.970418 -4.50977 0
M  V30 8544 H 786.484 -0.980302 -4.22578 0
M  V30 8545 H 787.155 0.0168407 -5.51997 0
M  V30 8546 H 789.631 1.18606 -3.98838 0
M  V30 8547 H 788.507 1.98517 -5.11744 0
M  V30 8548 H 788.768 2.67219 -3.52202 0
M  V30 8549 N 787.827 1.57504 0.0551401 0
M  V30 8550 C 789.055 1.92294 0.76358 0
M  V30 8551 C 789.47 0.815774 1.70266 0
M  V30 8552 O 788.827 -0.209772 1.8129 0
M  V30 8553 C 788.878 3.26914 1.54302 0
M  V30 8554 O 788.599 4.33375 0.641666 0
M  V30 8555 C 790.1 3.75825 2.35097 0
M  V30 8556 H 787.32 0.635229 0.216159 0
M  V30 8557 H 789.864 2.0449 0.0204385 0
M  V30 8558 H 788.019 3.16196 2.23828 0
M  V30 8559 H 788.433 5.10927 1.1855 0
M  V30 8560 H 789.907 4.72603 2.8522 0
M  V30 8561 H 790.384 3.0568 3.15367 0
M  V30 8562 H 790.99 3.89542 1.70696 0
M  V30 8563 N 789.305 -0.326896 1.54172 0
M  V30 8564 C 790.554 -1.06274 1.71431 0
M  V30 8565 C 790.867 -1.89282 0.493123 0
M  V30 8566 O 792.073 -2.65933 0.54699 0
M  V30 8567 C 790.529 -1.93892 3.03206 0
M  V30 8568 C 790.137 -1.16011 4.32719 0
M  V30 8569 C 791.881 -2.67232 3.29829 0
M  V30 8570 C 789.788 -2.02755 5.55558 0
M  V30 8571 H 788.718 -0.400475 0.638855 0
M  V30 8572 H 791.369 -0.321184 1.80667 0
M  V30 8573 H 789.751 -2.71933 2.87869 0
M  V30 8574 H 790.925 -0.427643 4.58811 0
M  V30 8575 H 789.24 -0.54367 4.12836 0
M  V30 8576 H 791.837 -3.32434 4.18798 0
M  V30 8577 H 792.18 -3.34692 2.47562 0
M  V30 8578 H 792.713 -1.96255 3.46018 0
M  V30 8579 H 789.452 -1.3981 6.40417 0
M  V30 8580 H 788.972 -2.73745 5.33689 0
M  V30 8581 H 790.651 -2.61419 5.91835 0
M  V30 8582 N 790.784 -1.46188 -0.588786 0
M  V30 8583 C 792.2 -1.31009 -0.911524 0
M  V30 8584 C 792.4 -0.277017 -1.99587 0
M  V30 8585 O 791.456 0.322532 -2.50432 0
M  V30 8586 C 792.769 -2.69459 -1.33463 0
M  V30 8587 C 794.317 -2.77502 -1.44782 0
M  V30 8588 C 794.792 -4.1652 -1.90461 0
M  V30 8589 N 796.283 -4.18907 -1.97665 0
M  V30 8590 C 797.018 -5.23359 -2.34271 0
M  V30 8591 N 796.514 -6.38143 -2.69714 0
M  V30 8592 N 798.307 -5.10723 -2.34774 0
M  V30 8593 H 790.458 -2.12016 0.127614 0
M  V30 8594 H 792.721 -0.947984 -0.00557599 0
M  V30 8595 H 792.427 -3.46336 -0.611929 0
M  V30 8596 H 792.301 -2.99165 -2.2974 0
M  V30 8597 H 794.688 -2.00917 -2.1614 0
M  V30 8598 H 794.769 -2.51488 -0.467724 0
M  V30 8599 H 794.413 -4.93597 -1.19684 0
M  V30 8600 H 794.343 -4.39937 -2.89418 0
M  V30 8601 H 796.834 -3.36084 -1.72789 0
M  V30 8602 H 797.147 -7.13624 -2.96582 0
M  V30 8603 H 795.492 -6.41514 -2.67366 0
M  V30 8604 H 798.683 -4.20088 -2.06503 0
M  V30 8605 H 798.856 -5.9224 -2.62975 0
M  V30 8606 N 792.262 0.832906 -1.33792 0
M  V30 8607 C 793.192 1.95828 -1.27176 0
M  V30 8608 C 794.173 1.69427 -0.15114 0
M  V30 8609 O 795.358 1.91167 -0.341886 0
M  V30 8610 C 792.488 3.32098 -1.01629 0
M  V30 8611 C 791.442 3.72912 -2.10049 0
M  V30 8612 C 790.768 5.07054 -1.69706 0
M  V30 8613 C 792.068 3.86064 -3.51783 0
M  V30 8614 H 793.762 2.01622 -2.21334 0
M  V30 8615 H 791.308 0.96866 -1.0655 0
M  V30 8616 H 793.261 4.10402 -0.956474 0
M  V30 8617 H 791.985 3.26577 -0.0390956 0
M  V30 8618 H 790.644 2.96876 -2.15082 0
M  V30 8619 H 790.292 4.9801 -0.706737 0
M  V30 8620 H 789.992 5.35333 -2.42264 0
M  V30 8621 H 791.516 5.87827 -1.65202 0
M  V30 8622 H 792.93 4.54665 -3.49218 0
M  V30 8623 H 791.327 4.25787 -4.22878 0
M  V30 8624 H 792.397 2.88344 -3.89854 0
M  V30 8625 N 793.74 1.17359 1.05189 0
M  V30 8626 C 795.151 0.96793 1.5965 0
M  V30 8627 C 795.502 -0.485355 1.90102 0
M  V30 8628 O 794.627 -1.36066 1.6827 0
M  V30 8629 C 795.222 1.75068 2.90063 0
M  V30 8630 C 793.781 1.58969 3.41183 0
M  V30 8631 C 792.928 1.75231 2.14917 0
M  V30 8632 H 795.879 1.32067 0.880001 0
M  V30 8633 H 795.9 1.23308 3.59966 0
M  V30 8634 H 795.412 2.80835 2.67868 0
M  V30 8635 H 793.513 0.556906 3.68415 0
M  V30 8636 H 793.626 2.38067 4.15766 0
M  V30 8637 H 791.99 1.18073 2.25679 0
M  V30 8638 H 792.773 2.8241 1.95191 0
M  V30 8639 N 795.218 -1.23913 0.973828 0
M  V30 8640 C 796.148 -2.27453 0.527969 0
M  V30 8641 C 797.129 -1.6443 -0.435513 0
M  V30 8642 O 798.314 -1.9137 -0.330306 0
M  V30 8643 C 795.444 -3.4685 -0.176757 0
M  V30 8644 C 794.398 -4.22181 0.703352 0
M  V30 8645 C 793.724 -5.34534 -0.133215 0
M  V30 8646 C 795.024 -4.82865 1.99096 0
M  V30 8647 H 796.718 -2.65 1.3934 0
M  V30 8648 H 794.264 -1.27388 0.671446 0
M  V30 8649 H 796.217 -4.18424 -0.499934 0
M  V30 8650 H 794.941 -3.08346 -1.07659 0
M  V30 8651 H 793.6 -3.52416 1.00989 0
M  V30 8652 H 793.248 -4.92271 -1.03338 0
M  V30 8653 H 792.948 -5.85855 0.452494 0
M  V30 8654 H 794.472 -6.08933 -0.450924 0
M  V30 8655 H 795.886 -5.46481 1.73297 0
M  V30 8656 H 794.283 -5.44444 2.52389 0
M  V30 8657 H 795.353 -4.03977 2.68199 0
M  V30 8658 N 796.696 -0.74468 -1.38897 0
M  V30 8659 C 797.924 -0.307428 -2.04603 0
M  V30 8660 C 798.339 1.06115 -1.56157 0
M  V30 8661 O 797.696 1.67233 -0.730701 0
M  V30 8662 C 797.747 -0.31101 -3.6016 0
M  V30 8663 O 797.468 -1.62557 -4.06825 0
M  V30 8664 C 798.969 0.141213 -4.43075 0
M  V30 8665 H 796.189 -0.132741 -0.657739 0
M  V30 8666 H 798.733 -1.01104 -1.77759 0
M  V30 8667 H 796.888 0.343792 -3.85872 0
M  V30 8668 H 797.302 -1.54569 -5.01207 0
M  V30 8669 H 798.776 0.0875449 -5.51931 0
M  V30 8670 H 799.253 1.18782 -4.22833 0
M  V30 8671 H 799.859 -0.484383 -4.22533 0
M  V30 8672 N 798.174 1.49689 -0.493057 0
M  V30 8673 C 799.104 2.31826 0.279073 0
M  V30 8674 C 800.085 1.39733 0.969987 0
M  V30 8675 O 801.27 1.68646 0.962925 0
M  V30 8676 C 798.4 3.20046 1.34862 0
M  V30 8677 C 797.354 4.20869 0.77805 0
M  V30 8678 C 796.68 4.97971 1.94753 0
M  V30 8679 C 797.98 5.21813 -0.225543 0
M  V30 8680 H 799.674 2.96627 -0.406512 0
M  V30 8681 H 797.22 1.42647 -0.196943 0
M  V30 8682 H 799.173 3.76315 1.89645 0
M  V30 8683 H 797.897 2.53172 2.06328 0
M  V30 8684 H 796.556 3.65733 0.252036 0
M  V30 8685 H 796.204 4.27552 2.64969 0
M  V30 8686 H 795.904 5.66186 1.57187 0
M  V30 8687 H 797.428 5.57082 2.49984 0
M  V30 8688 H 798.842 5.72823 0.233864 0
M  V30 8689 H 797.239 5.97872 -0.516622 0
M  V30 8690 H 798.309 4.71209 -1.14412 0
M  V30 8691 N 799.652 0.226554 1.55963 0
M  V30 8692 C 800.615 -0.668015 2.19249 0
M  V30 8693 C 801.615 -1.11794 1.1558 0
M  V30 8694 O 802.805 -1.02593 1.40784 0
M  V30 8695 C 799.937 -1.91571 2.81981 0
M  V30 8696 H 801.13 -0.116175 2.99675 0
M  V30 8697 H 798.683 -0.0230497 1.56283 0
M  V30 8698 H 799.418 -2.50929 2.05439 0
M  V30 8699 H 799.203 -1.6015 3.57903 0
M  V30 8700 H 800.693 -2.55294 3.30477 0
M  V30 8701 N 801.13 -1.57531 -0.0467866 0
M  V30 8702 C 802.379 -1.87632 -0.740069 0
M  V30 8703 C 802.692 -0.822691 -1.77457 0
M  V30 8704 O 803.898 -1.01235 -2.5192 0
M  V30 8705 C 802.354 -3.32917 -1.36727 0
M  V30 8706 C 801.962 -4.46469 -0.370035 0
M  V30 8707 C 803.706 -3.72189 -2.04146 0
M  V30 8708 C 801.613 -5.82806 -1.00457 0
M  V30 8709 H 800.543 -0.70002 -0.280158 0
M  V30 8710 H 803.194 -1.83499 0.00607151 0
M  V30 8711 H 801.576 -3.31739 -2.16252 0
M  V30 8712 H 802.75 -4.59085 0.397217 0
M  V30 8713 H 801.065 -4.15914 0.201079 0
M  V30 8714 H 803.662 -4.71357 -2.52441 0
M  V30 8715 H 804.005 -3.03268 -2.85192 0
M  V30 8716 H 804.538 -3.75465 -1.3142 0
M  V30 8717 H 801.277 -6.55083 -0.233907 0
M  V30 8718 H 800.797 -5.73944 -1.74209 0
M  V30 8719 H 802.476 -6.28961 -1.51713 0
M  V30 8720 N 802.608 0.318715 -1.54344 0
M  V30 8721 C 803.857 1.05363 -1.71993 0
M  V30 8722 C 804.17 1.89018 -0.503155 0
M  V30 8723 O 805.376 2.65639 -0.561085 0
M  V30 8724 C 803.832 1.92281 -3.0423 0
M  V30 8725 C 803.44 1.13715 -4.33328 0
M  V30 8726 C 805.184 2.65479 -3.31242 0
M  V30 8727 C 803.091 1.99806 -5.56625 0
M  V30 8728 H 802.021 0.397081 -0.64097 0
M  V30 8729 H 804.672 0.311598 -1.80835 0
M  V30 8730 H 803.054 2.70402 -2.89307 0
M  V30 8731 H 804.228 0.403305 -4.59032 0
M  V30 8732 H 802.543 0.521769 -4.13118 0
M  V30 8733 H 805.14 3.30209 -4.20555 0
M  V30 8734 H 805.483 3.33374 -2.49334 0
M  V30 8735 H 806.016 1.94417 -3.47054 0
M  V30 8736 H 802.755 1.36411 -6.41149 0
M  V30 8737 H 802.275 2.70911 -5.35133 0
M  V30 8738 H 803.954 2.58277 -5.93213 0
M  V30 8739 N 804.086 1.46499 0.581025 0
M  V30 8740 C 805.018 1.53225 1.70455 0
M  V30 8741 C 806.031 0.420443 1.57277 0
M  V30 8742 O 807.22 0.688888 1.64671 0
M  V30 8743 C 804.32 1.39803 3.08721 0
M  V30 8744 C 803.493 2.65132 3.47884 0
M  V30 8745 C 802.552 2.45886 4.65217 0
M  V30 8746 O 801.578 3.19615 4.70993 0
M  V30 8747 N 802.78 1.5216 5.60203 0
M  V30 8748 H 805.545 2.50098 1.65139 0
M  V30 8749 H 803.106 1.42576 0.76705 0
M  V30 8750 H 805.098 1.24697 3.8501 0
M  V30 8751 H 803.668 0.51104 3.08394 0
M  V30 8752 H 802.888 2.95169 2.61284 0
M  V30 8753 H 804.176 3.48385 3.70817 0
M  V30 8754 H 803.574 0.913646 5.58273 0
M  V30 8755 H 802.131 1.43017 6.35916 0
M  V30 8756 N 805.565 -0.825799 1.34232 0
M  V30 8757 C 806.528 -1.91808 1.25468 0
M  V30 8758 C 807.528 -1.59893 0.170567 0
M  V30 8759 O 808.718 -1.68986 0.422996 0
M  V30 8760 C 805.85 -3.27786 0.93644 0
M  V30 8761 H 807.043 -2.01003 2.22571 0
M  V30 8762 H 804.596 -1.01944 1.18479 0
M  V30 8763 H 805.331 -3.24285 -0.0315408 0
M  V30 8764 H 805.116 -3.52333 1.72057 0
M  V30 8765 H 806.606 -4.07782 0.900214 0
M  V30 8766 N 807.043 -1.17915 -1.04565 0
M  V30 8767 C 807.973 -0.925033 -2.14395 0
M  V30 8768 C 808.954 0.135375 -1.6956 0
M  V30 8769 O 810.139 -0.0161774 -1.94193 0
M  V30 8770 C 807.269 -0.444469 -3.44444 0
M  V30 8771 C 806.223 -1.44478 -4.02877 0
M  V30 8772 C 805.549 -0.821933 -5.28345 0
M  V30 8773 C 806.849 -2.81995 -4.39632 0
M  V30 8774 H 808.543 -1.84354 -2.35911 0
M  V30 8775 H 806.089 -0.887806 -1.13375 0
M  V30 8776 H 808.042 -0.254078 -4.20633 0
M  V30 8777 H 806.766 0.509592 -3.226 0
M  V30 8778 H 805.425 -1.62203 -3.28764 0
M  V30 8779 H 805.073 0.139161 -5.02807 0
M  V30 8780 H 804.773 -1.48976 -5.68401 0
M  V30 8781 H 806.297 -0.641959 -6.07216 0
M  V30 8782 H 807.711 -2.67952 -5.06828 0
M  V30 8783 H 806.108 -3.45414 -4.90723 0
M  V30 8784 H 807.178 -3.35927 -3.49687 0
M  V30 8785 N 808.521 1.23394 -0.980386 0
M  V30 8786 C 809.451 2.2717 -0.540024 0
M  V30 8787 C 810.432 1.64659 0.426787 0
M  V30 8788 O 811.617 1.91543 0.320153 0
M  V30 8789 C 808.747 3.46939 0.15836 0
M  V30 8790 C 807.701 4.21802 -0.725732 0
M  V30 8791 C 807.027 5.34597 0.104866 0
M  V30 8792 C 808.327 4.81802 -2.01654 0
M  V30 8793 H 810.021 2.64257 -1.40743 0
M  V30 8794 H 807.567 1.2703 -0.678193 0
M  V30 8795 H 809.52 4.18683 0.477737 0
M  V30 8796 H 808.244 3.08912 1.06022 0
M  V30 8797 H 806.903 3.51875 -1.02857 0
M  V30 8798 H 806.551 4.92812 1.00726 0
M  V30 8799 H 806.251 5.85607 -0.483557 0
M  V30 8800 H 807.775 6.09163 0.418624 0
M  V30 8801 H 809.189 5.45554 -1.76193 0
M  V30 8802 H 807.586 5.43098 -2.55273 0
M  V30 8803 H 808.656 4.02549 -2.70338 0
M  V30 8804 N 809.999 0.752036 1.385 0
M  V30 8805 C 811.245 0.307958 2.00448 0
M  V30 8806 C 811.578 -1.10702 1.59558 0
M  V30 8807 O 810.853 -1.75788 0.832391 0
M  V30 8808 C 811.136 0.429092 3.57534 0
M  V30 8809 C 810.989 1.88507 4.08393 0
M  V30 8810 C 812.308 -0.178442 4.39738 0
M  V30 8811 H 809.427 0.113373 0.728228 0
M  V30 8812 H 812.069 0.951389 1.64465 0
M  V30 8813 H 810.219 -0.118695 3.88319 0
M  V30 8814 H 811.891 2.49104 3.88259 0
M  V30 8815 H 810.134 2.40066 3.61318 0
M  V30 8816 H 810.805 1.92099 5.17496 0
M  V30 8817 H 813.281 0.28872 4.15097 0
M  V30 8818 H 812.157 -0.0634349 5.48863 0
M  V30 8819 H 812.418 -1.26655 4.23569 0
M  V30 8820 N 811.477 -1.49425 0.500989 0
M  V30 8821 C 812.424 -2.29126 -0.277443 0
M  V30 8822 C 813.394 -1.35522 -0.960363 0
M  V30 8823 O 814.579 -1.64479 -0.967027 0
M  V30 8824 C 811.719 -3.18193 -1.33593 0
M  V30 8825 C 810.832 -4.26854 -0.664791 0
M  V30 8826 C 809.967 -5.03137 -1.70372 0
M  V30 8827 C 809.006 -6.03635 -1.01445 0
M  V30 8828 N 808.143 -6.73083 -1.99758 0
M  V30 8829 H 812.983 -2.95187 0.408458 0
M  V30 8830 H 810.52 -1.45546 0.213275 0
M  V30 8831 H 812.478 -3.68207 -1.96161 0
M  V30 8832 H 811.108 -2.54116 -1.9906 0
M  V30 8833 H 810.16 -3.80328 0.0741708 0
M  V30 8834 H 811.472 -4.9865 -0.122197 0
M  V30 8835 H 810.626 -5.5702 -2.40445 0
M  V30 8836 H 809.365 -4.31114 -2.28017 0
M  V30 8837 H 808.37 -5.48984 -0.299496 0
M  V30 8838 H 809.595 -6.77644 -0.444497 0
M  V30 8839 H 807.541 -6.03832 -2.56365 0
M  V30 8840 H 807.458 -7.40855 -1.50565 0
M  V30 8841 H 808.726 -7.3157 -2.69119 0
M  V30 8842 N 812.955 -0.234822 -1.55841 0
M  V30 8843 C 814.201 0.393843 -1.98939 0
M  V30 8844 C 814.534 1.58466 -1.1226 0
M  V30 8845 O 813.809 1.93635 -0.183242 0
M  V30 8846 C 814.092 0.815492 -3.50745 0
M  V30 8847 C 813.945 -0.379878 -4.48193 0
M  V30 8848 C 815.264 1.66687 -4.07312 0
M  V30 8849 H 812.383 0.141681 -0.723253 0
M  V30 8850 H 815.025 -0.333716 -1.87046 0
M  V30 8851 H 813.175 1.43541 -3.6101 0
M  V30 8852 H 814.847 -1.0182 -4.49923 0
M  V30 8853 H 813.09 -1.02507 -4.21515 0
M  V30 8854 H 813.761 -0.0417069 -5.51984 0
M  V30 8855 H 816.237 1.14369 -4.00074 0
M  V30 8856 H 815.113 1.93078 -5.13821 0
M  V30 8857 H 815.374 2.63468 -3.55017 0
M  V30 8858 N 814.433 1.57553 0.0384317 0
M  V30 8859 C 815.381 2.07021 1.06043 0
M  V30 8860 C 816.375 0.982078 1.38028 0
M  V30 8861 O 817.581 1.16702 1.37042 0
M  V30 8862 H 813.956 0.660522 0.359464 0
M  V30 8863 H 815.927 2.91944 0.617339 0
M  V30 8864 C 814.676 2.55734 2.35574 0
M  V30 8865 H 813.999 3.39074 2.11822 0
M  V30 8866 H 815.439 2.94066 3.05452 0
M  V30 8867 C 813.898 1.45449 3.03885 0
M  V30 8868 O 814.428 0.815402 3.93337 0
M  V30 8869 N 812.634 1.19134 2.65058 0
M  V30 8870 H 812.181 1.71288 1.92401 0
M  V30 8871 H 812.139 0.455554 3.11082 0
M  V30 8872 N 815.911 -0.310526 1.54511 0
M  V30 8873 C 816.859 -1.40272 1.85544 0
M  V30 8874 C 817.853 -1.52941 0.728377 0
M  V30 8875 O 819.059 -1.55172 0.912234 0
M  V30 8876 H 815.434 -0.468355 0.588343 0
M  V30 8877 H 817.405 -1.11329 2.76855 0
M  V30 8878 C 816.154 -2.76279 2.11105 0
M  V30 8879 H 815.477 -2.67308 2.97298 0
M  V30 8880 H 816.917 -3.51736 2.36765 0
M  V30 8881 C 815.376 -3.24472 0.906618 0
M  V30 8882 O 815.906 -4.01514 0.122358 0
M  V30 8883 N 814.112 -2.81676 0.714632 0
M  V30 8884 H 813.659 -2.19143 1.35404 0
M  V30 8885 H 813.617 -3.14272 -0.089703 0
M  V30 8886 N 817.389 -1.46805 -0.573248 0
M  V30 8887 C 818.319 -1.60951 -1.69165 0
M  V30 8888 C 819.3 -0.45948 -1.63777 0
M  V30 8889 O 820.485 -0.68688 -1.81647 0
M  V30 8890 C 817.615 -1.60844 -3.07809 0
M  V30 8891 C 816.569 -2.74913 -3.28035 0
M  V30 8892 C 815.895 -2.59871 -4.67302 0
M  V30 8893 C 817.195 -4.16654 -3.14955 0
M  V30 8894 H 818.889 -2.54574 -1.57582 0
M  V30 8895 H 816.435 -1.22516 -0.756686 0
M  V30 8896 H 818.388 -1.69334 -3.85881 0
M  V30 8897 H 817.112 -0.637714 -3.20314 0
M  V30 8898 H 815.771 -2.65908 -2.52366 0
M  V30 8899 H 815.419 -1.60861 -4.76585 0
M  V30 8900 H 815.119 -3.36386 -4.81786 0
M  V30 8901 H 816.643 -2.70265 -5.4753 0
M  V30 8902 H 818.057 -4.26721 -3.82861 0
M  V30 8903 H 816.454 -4.93831 -3.40956 0
M  V30 8904 H 817.524 -4.36146 -2.11908 0
M  V30 8905 N 818.867 0.818669 -1.34668 0
M  V30 8906 C 820.113 1.57746 -1.27453 0
M  V30 8907 C 820.446 1.93588 0.154077 0
M  V30 8908 O 819.721 1.60371 1.10051 0
M  V30 8909 C 820.004 2.87414 -2.16945 0
M  V30 8910 C 819.857 2.58125 -3.68363 0
M  V30 8911 C 821.176 3.89021 -2.05792 0
M  V30 8912 H 818.295 0.572339 -0.464324 0
M  V30 8913 H 820.937 0.942784 -1.64959 0
M  V30 8914 H 819.087 3.41576 -1.85089 0
M  V30 8915 H 820.759 2.10239 -4.10606 0
M  V30 8916 H 819.002 1.91503 -3.89242 0
M  V30 8917 H 819.673 3.5061 -4.26353 0
M  V30 8918 H 822.149 3.44224 -2.33771 0
M  V30 8919 H 821.025 4.77548 -2.70628 0
M  V30 8920 H 821.286 4.29786 -1.03618 0
M  V30 8921 N 820.346 1.18468 1.03938 0
M  V30 8922 C 821.576 1.0043 1.80547 0
M  V30 8923 C 821.984 -0.450407 1.83761 0
M  V30 8924 O 821.327 -1.32463 1.27276 0
M  V30 8925 C 821.389 1.48437 3.27424 0
M  V30 8926 C 821.053 2.96372 3.47869 0
M  V30 8927 C 822.05 3.94217 3.38953 0
M  V30 8928 C 819.735 3.34831 3.74424 0
M  V30 8929 C 821.729 5.28517 3.56298 0
M  V30 8930 C 819.416 4.69294 3.91416 0
M  V30 8931 C 820.414 5.65946 3.82354 0
M  V30 8932 O 820.102 6.97974 3.98858 0
M  V30 8933 H 819.834 0.354853 0.575374 0
M  V30 8934 H 822.388 1.57473 1.31876 0
M  V30 8935 H 820.618 0.857601 3.7707 0
M  V30 8936 H 822.307 1.2677 3.85596 0
M  V30 8937 H 823.073 3.6585 3.184 0
M  V30 8938 H 818.952 2.60161 3.80575 0
M  V30 8939 H 822.496 6.03943 3.49141 0
M  V30 8940 H 818.393 4.97361 4.11463 0
M  V30 8941 H 819.161 7.04895 4.1601 0
M  V30 8942 N 821.824 -1.22873 0.986916 0
M  V30 8943 C 822.787 -2.2281 0.537442 0
M  V30 8944 C 823.787 -1.56331 -0.37646 0
M  V30 8945 O 824.977 -1.73376 -0.169247 0
M  V30 8946 C 822.109 -3.40195 -0.219082 0
M  V30 8947 H 823.302 -2.64089 1.42116 0
M  V30 8948 H 820.855 -1.35819 0.773488 0
M  V30 8949 H 821.59 -3.04381 -1.11905 0
M  V30 8950 H 821.375 -3.89657 0.437026 0
M  V30 8951 H 822.865 -4.14326 -0.521926 0
M  V30 8952 N 823.302 -0.75937 -1.38099 0
M  V30 8953 C 824.551 -0.314864 -1.99227 0
M  V30 8954 C 824.864 1.1113 -1.60964 0
M  V30 8955 O 826.07 1.65657 -2.15105 0
M  V30 8956 C 824.526 -0.512001 -3.56239 0
M  V30 8957 C 824.134 -1.94762 -4.0345 0
M  V30 8958 C 825.878 -0.130497 -4.24299 0
M  V30 8959 C 823.785 -2.09301 -5.53125 0
M  V30 8960 H 822.715 -0.113978 -0.745335 0
M  V30 8961 H 825.366 -0.936736 -1.57789 0
M  V30 8962 H 823.748 0.179144 -3.95595 0
M  V30 8963 H 824.922 -2.67271 -3.75371 0
M  V30 8964 H 823.237 -2.28457 -3.48133 0
M  V30 8965 H 825.834 -0.21781 -5.34256 0
M  V30 8966 H 826.177 0.917644 -4.0606 0
M  V30 8967 H 826.71 -0.773716 -3.90203 0
M  V30 8968 H 823.449 -3.1239 -5.76275 0
M  V30 8969 H 822.969 -1.41261 -5.82928 0
M  V30 8970 H 824.648 -1.88571 -6.1891 0
M  V30 8971 N 824.78 1.49157 -0.508906 0
M  V30 8972 C 826.191 1.86593 -0.0630975 0
M  V30 8973 C 826.542 1.42051 1.35337 0
M  V30 8974 O 825.667 0.801866 2.00995 0
M  V30 8975 C 826.262 3.38629 -0.107729 0
M  V30 8976 C 824.821 3.75336 0.282776 0
M  V30 8977 C 823.968 2.7317 -0.4768 0
M  V30 8978 H 826.919 1.41362 -0.72128 0
M  V30 8979 H 826.94 3.74271 0.685689 0
M  V30 8980 H 826.452 3.71017 -1.13876 0
M  V30 8981 H 824.553 3.48558 1.31675 0
M  V30 8982 H 824.666 4.79081 -0.0421728 0
M  V30 8983 H 823.03 2.54591 0.0743552 0
M  V30 8984 H 823.813 3.08403 -1.50807 0
M  V30 8985 N 826.258 0.243083 1.55714 0
M  V30 8986 C 827.507 -0.383188 1.98027 0
M  V30 8987 C 827.82 -1.59347 1.13436 0
M  V30 8988 O 829.026 -2.29065 1.45745 0
M  V30 8989 C 827.482 -0.733135 3.52354 0
M  V30 8990 C 827.09 0.455539 4.45678 0
M  V30 8991 C 828.834 -1.32381 4.03331 0
M  V30 8992 C 826.741 0.0819591 5.91343 0
M  V30 8993 H 825.671 -0.146944 0.739543 0
M  V30 8994 H 828.322 0.342697 1.80272 0
M  V30 8995 H 826.704 -1.51704 3.65789 0
M  V30 8996 H 827.878 1.23291 4.44 0
M  V30 8997 H 826.193 0.960886 4.05162 0
M  V30 8998 H 828.79 -1.61658 5.09677 0
M  V30 8999 H 829.133 -2.24698 3.50452 0
M  V30 9000 H 829.666 -0.602885 3.93205 0
M  V30 9001 H 826.405 0.972171 6.48251 0
M  V30 9002 H 825.925 -0.659291 5.96166 0
M  V30 9003 H 827.604 -0.3372 6.46121 0
M  V30 9004 N 827.736 -1.57571 -0.0300757 0
M  V30 9005 C 828.699 -2.05468 -1.01565 0
M  V30 9006 C 829.699 -0.958628 -1.29101 0
M  V30 9007 O 830.889 -1.22228 -1.24121 0
M  V30 9008 C 828.021 -2.47077 -2.34874 0
M  V30 9009 H 829.214 -2.93797 -0.601936 0
M  V30 9010 H 826.767 -1.53828 -0.276878 0
M  V30 9011 H 827.502 -1.61901 -2.80996 0
M  V30 9012 H 827.287 -3.27097 -2.16218 0
M  V30 9013 H 828.777 -2.84564 -3.05635 0
M  V30 9014 N 829.214 0.302327 -1.54673 0
M  V30 9015 C 830.162 1.39286 -1.86285 0
M  V30 9016 C 831.156 1.52553 -0.736478 0
M  V30 9017 O 832.362 1.54686 -0.92045 0
M  V30 9018 H 828.737 0.465228 -0.590819 0
M  V30 9019 H 830.708 1.09859 -2.77441 0
M  V30 9020 C 829.457 2.75155 -2.12567 0
M  V30 9021 H 828.78 2.65728 -2.98712 0
M  V30 9022 H 830.22 3.50476 -2.38627 0
M  V30 9023 C 828.679 3.23987 -0.923813 0
M  V30 9024 O 829.209 4.01443 -0.143649 0
M  V30 9025 N 827.415 2.81293 -0.72956 0
M  V30 9026 H 826.962 2.18421 -1.36565 0
M  V30 9027 H 826.92 3.14315 0.0730351 0
M  V30 9028 N 830.692 1.47107 0.565454 0
M  V30 9029 C 831.941 1.5257 1.31929 0
M  V30 9030 C 832.254 0.189092 1.94684 0
M  V30 9031 O 833.46 0.121657 2.71227 0
M  V30 9032 C 831.916 2.68914 2.39193 0
M  V30 9033 C 831.524 4.09069 1.82665 0
M  V30 9034 C 833.268 2.83663 3.1581 0
M  V30 9035 C 831.175 5.16726 2.87661 0
M  V30 9036 H 830.105 0.567869 0.496025 0
M  V30 9037 H 832.756 1.73361 0.60151 0
M  V30 9038 H 831.138 2.41486 3.13848 0
M  V30 9039 H 832.312 4.46364 1.14438 0
M  V30 9040 H 830.627 3.99135 1.1866 0
M  V30 9041 H 833.224 3.61261 3.94201 0
M  V30 9042 H 833.567 1.91804 3.69482 0
M  V30 9043 H 834.1 3.10821 2.48265 0
M  V30 9044 H 830.839 6.10433 2.38854 0
M  V30 9045 H 830.359 4.83957 3.54324 0
M  V30 9046 H 832.038 5.43319 3.51303 0
M  V30 9047 N 832.17 -0.811516 1.35101 0
M  V30 9048 C 833.447 -1.55491 1.18667 0
M  V30 9049 C 833.827 -2.09775 -0.236189 0
M  V30 9050 O 833.175 -1.91989 -1.23905 0
M  V30 9051 C 833.385 -2.66732 2.25067 0
M  V30 9052 C 834.733 -3.35201 2.60625 0
M  V30 9053 O 835.757 -2.76998 2.23943 0
M  V30 9054 O 834.616 -4.40334 3.23679 0
M  V30 9055 H 831.71 -0.686783 0.460716 0
M  V30 9056 H 834.256 -0.851903 1.46768 0
M  V30 9057 H 833.028 -2.24457 3.20523 0
M  V30 9058 H 832.651 -3.44673 1.98208 0
M  V30 9059 N 833.648 -1.19017 -1.03309 0
M  V30 9060 C 834.876 -1.01534 -1.80273 0
M  V30 9061 C 835.291 0.43605 -1.83696 0
M  V30 9062 O 834.648 1.30288 -1.27794 0
M  V30 9063 C 834.699 -1.5722 -3.25522 0
M  V30 9064 O 834.42 -2.96677 -3.22358 0
M  V30 9065 C 835.921 -1.4446 -4.19102 0
M  V30 9066 H 833.141 -0.358094 -0.567459 0
M  V30 9067 H 835.685 -1.57738 -1.3015 0
M  V30 9068 H 833.84 -1.05174 -3.7285 0
M  V30 9069 H 834.254 -3.22795 -4.13405 0
M  V30 9070 H 835.728 -1.88209 -5.18923 0
M  V30 9071 H 836.205 -0.394471 -4.37425 0
M  V30 9072 H 836.811 -1.95616 -3.77643 0
M  V30 9073 N 835.127 1.22348 -0.993418 0
M  V30 9074 C 836.376 1.90422 -0.665019 0
M  V30 9075 C 836.689 1.78199 0.806512 0
M  V30 9076 O 837.895 2.41193 1.24652 0
M  V30 9077 C 836.351 3.41403 -1.13893 0
M  V30 9078 C 835.959 3.62262 -2.63572 0
M  V30 9079 C 837.703 4.15175 -0.884884 0
M  V30 9080 C 835.61 5.06947 -3.04564 0
M  V30 9081 H 834.54 0.713073 -0.245037 0
M  V30 9082 H 837.191 1.3856 -1.20305 0
M  V30 9083 H 835.573 3.9245 -0.529027 0
M  V30 9084 H 836.747 3.21705 -3.29913 0
M  V30 9085 H 835.062 3.01824 -2.86865 0
M  V30 9086 H 837.659 5.21813 -1.16684 0
M  V30 9087 H 838.002 4.15915 0.178982 0
M  V30 9088 H 838.535 3.70157 -1.45701 0
M  V30 9089 H 835.274 5.11346 -4.10128 0
M  V30 9090 H 834.794 5.48404 -2.42927 0
M  V30 9091 H 836.473 5.75374 -2.95894 0
M  V30 9092 N 836.605 0.766683 1.37694 0
M  V30 9093 C 837.535 0.163432 2.32927 0
M  V30 9094 C 838.516 -0.688861 1.55527 0
M  V30 9095 O 839.701 -0.627363 1.83787 0
M  V30 9096 C 836.831 -0.720416 3.39746 0
M  V30 9097 C 835.785 0.0301718 4.27989 0
M  V30 9098 C 835.111 -0.972788 5.25776 0
M  V30 9099 C 836.411 1.20623 5.0818 0
M  V30 9100 H 838.105 0.958988 2.83626 0
M  V30 9101 H 835.651 0.462601 1.36367 0
M  V30 9102 H 837.604 -1.15221 4.05342 0
M  V30 9103 H 836.328 -1.54844 2.8756 0
M  V30 9104 H 834.987 0.442685 3.63917 0
M  V30 9105 H 834.635 -1.79522 4.69873 0
M  V30 9106 H 834.335 -0.475145 5.85676 0
M  V30 9107 H 835.859 -1.40362 5.94248 0
M  V30 9108 H 837.273 0.851341 5.66944 0
M  V30 9109 H 835.67 1.63561 5.7738 0
M  V30 9110 H 836.74 2.01281 4.41151 0
M  V30 9111 N 838.083 -1.48885 0.516809 0
M  V30 9112 C 839.308 -2.0739 -0.0205201 0
M  V30 9113 C 839.733 -1.37259 -1.28614 0
M  V30 9114 O 839.091 -0.434304 -1.76021 0
M  V30 9115 C 839.139 -3.59793 -0.24104 0
M  V30 9116 O 838.243 -3.90957 -1.31251 0
M  V30 9117 H 837.584 -0.663167 0.0332564 0
M  V30 9118 H 840.114 -1.91477 0.720956 0
M  V30 9119 H 840.124 -4.0531 -0.467737 0
M  V30 9120 H 838.799 -4.10244 0.68356 0
M  V30 9121 H 837.376 -3.57234 -1.06951 0
M  V30 9122 N 839.561 -0.251338 -1.55583 0
M  V30 9123 C 840.81 0.372681 -1.98227 0
M  V30 9124 C 841.123 1.58743 -1.1428 0
M  V30 9125 O 842.329 2.28289 -1.46957 0
M  V30 9126 C 840.785 0.714439 -3.52738 0
M  V30 9127 C 840.393 -0.479168 -4.4543 0
M  V30 9128 C 842.137 1.3024 -4.04027 0
M  V30 9129 C 840.044 -0.113318 -5.91291 0
M  V30 9130 H 838.974 0.14302 -0.740312 0
M  V30 9131 H 841.625 -0.352253 -1.80087 0
M  V30 9132 H 840.007 1.49762 -3.66589 0
M  V30 9133 H 841.181 -1.25644 -4.4334 0
M  V30 9134 H 839.496 -0.982359 -4.04646 0
M  V30 9135 H 842.093 1.58953 -5.10527 0
M  V30 9136 H 842.436 2.22837 -3.51638 0
M  V30 9137 H 842.969 0.582024 -3.93519 0
M  V30 9138 H 839.708 -1.00654 -6.47726 0
M  V30 9139 H 839.228 0.627666 -5.96507 0
M  V30 9140 H 840.907 0.30293 -6.4629 0
M  V30 9141 N 841.039 1.57585 0.0217189 0
M  V30 9142 C 842.264 1.94267 0.726309 0
M  V30 9143 C 842.689 0.851904 1.67703 0
M  V30 9144 O 842.047 -0.191792 1.80283 0
M  V30 9145 C 842.095 3.30023 1.45318 0
M  V30 9146 O 841.199 3.22791 2.5667 0
M  V30 9147 H 840.54 0.634777 0.194818 0
M  V30 9148 H 843.07 2.04585 -0.0249985 0
M  V30 9149 H 843.08 3.65084 1.82147 0
M  V30 9150 H 841.755 4.08972 0.755962 0
M  V30 9151 H 840.332 2.99373 2.2233 0
M  V30 9152 N 842.517 -0.29412 1.54831 0
M  V30 9153 C 843.464 -1.36296 1.86258 0
M  V30 9154 C 844.434 -1.50061 0.712097 0
M  V30 9155 O 845.619 -1.64809 0.961381 0
M  V30 9156 C 842.759 -2.72187 2.12151 0
M  V30 9157 C 841.872 -2.66816 3.39755 0
M  V30 9158 C 841.007 -3.94747 3.55455 0
M  V30 9159 C 840.046 -3.838 4.76827 0
M  V30 9160 N 839.183 -5.03521 4.89296 0
M  V30 9161 H 844.023 -1.08796 2.7743 0
M  V30 9162 H 841.56 -0.526069 1.37371 0
M  V30 9163 H 843.518 -3.51225 2.25159 0
M  V30 9164 H 842.148 -2.97934 1.24237 0
M  V30 9165 H 841.2 -1.79605 3.3533 0
M  V30 9166 H 842.512 -2.5462 4.28917 0
M  V30 9167 H 841.666 -4.82223 3.68166 0
M  V30 9168 H 840.405 -4.09785 2.64438 0
M  V30 9169 H 839.41 -2.94708 4.64141 0
M  V30 9170 H 840.635 -3.70301 5.69258 0
M  V30 9171 H 838.581 -5.1901 4.01204 0
M  V30 9172 H 838.498 -4.93775 5.72471 0
M  V30 9173 H 839.766 -5.92629 5.06371 0
M  V30 9174 N 843.995 -1.47404 -0.557645 0
M  V30 9175 C 844.905 -1.62491 -1.69216 0
M  V30 9176 C 845.921 -0.507764 -1.66426 0
M  V30 9177 O 847.097 -0.775241 -1.85882 0
M  V30 9178 C 844.162 -1.63511 -3.05721 0
M  V30 9179 C 843.223 -2.86648 -3.1958 0
M  V30 9180 C 842.456 -2.87609 -4.49574 0
M  V30 9181 O 842.679 -1.97799 -5.35006 0
M  V30 9182 O 841.613 -3.79465 -4.67215 0
M  V30 9183 H 845.439 -2.58487 -1.59431 0
M  V30 9184 H 843.024 -1.30485 -0.7276 0
M  V30 9185 H 844.906 -1.66863 -3.86956 0
M  V30 9186 H 843.581 -0.706812 -3.15889 0
M  V30 9187 H 842.488 -2.8884 -2.37744 0
M  V30 9188 H 843.821 -3.7877 -3.14316 0
M  V30 9189 N 845.473 0.80434 -1.35529 0
M  V30 9190 C 846.75 1.5486 -1.1949 0
M  V30 9191 C 847.13 2.09897 0.22506 0
M  V30 9192 O 846.478 1.92643 1.22886 0
M  V30 9193 C 846.688 2.65535 -2.26478 0
M  V30 9194 C 848.036 3.33814 -2.62399 0
M  V30 9195 O 849.06 2.75807 -2.25409 0
M  V30 9196 O 847.919 4.38612 -3.26009 0
M  V30 9197 H 845.013 0.68433 -0.464351 0
M  V30 9198 H 847.559 0.844107 -1.47217 0
M  V30 9199 H 846.331 2.22754 -3.21709 0
M  V30 9200 H 845.954 3.43617 -2.00033 0
M  V30 9201 N 846.951 1.19563 1.02676 0
M  V30 9202 C 848.2 0.993864 1.75514 0
M  V30 9203 C 848.513 -0.475882 1.89723 0
M  V30 9204 O 849.719 -0.796525 2.59553 0
M  V30 9205 C 848.175 1.72937 3.15628 0
M  V30 9206 C 847.783 3.23937 3.09466 0
M  V30 9207 C 849.527 1.61092 3.92746 0
M  V30 9208 C 847.434 3.90067 4.44524 0
M  V30 9209 H 846.364 0.368244 0.657961 0
M  V30 9210 H 849.015 1.43081 1.14891 0
M  V30 9211 H 847.397 1.22025 3.76731 0
M  V30 9212 H 848.571 3.81983 2.57731 0
M  V30 9213 H 846.886 3.3608 2.45843 0
M  V30 9214 H 849.483 2.07848 4.92649 0
M  V30 9215 H 849.826 0.565415 4.12442 0
M  V30 9216 H 850.359 2.09361 3.3825 0
M  V30 9217 H 847.098 4.94725 4.30032 0
M  V30 9218 H 846.618 3.36809 4.96306 0
M  V30 9219 H 848.297 3.93736 5.13401 0
M  V30 9220 N 848.429 -1.21819 0.999893 0
M  V30 9221 C 849.361 -2.23356 0.514256 0
M  V30 9222 C 850.374 -1.5795 -0.394413 0
M  V30 9223 O 851.563 -1.77427 -0.195428 0
M  V30 9224 C 848.663 -3.37797 -0.273207 0
M  V30 9225 C 847.836 -4.32791 0.633293 0
M  V30 9226 C 846.895 -5.26098 -0.103673 0
M  V30 9227 O 845.921 -5.66881 0.513269 0
M  V30 9228 N 847.123 -5.63764 -1.38383 0
M  V30 9229 H 849.888 -2.65653 1.3874 0
M  V30 9230 H 847.449 -1.3619 0.875431 0
M  V30 9231 H 849.441 -3.97209 -0.775053 0
M  V30 9232 H 848.011 -2.94527 -1.0475 0
M  V30 9233 H 847.231 -3.71595 1.31571 0
M  V30 9234 H 848.519 -4.93196 1.25039 0
M  V30 9235 H 847.917 -5.32614 -1.90627 0
M  V30 9236 H 846.474 -6.25562 -1.83073 0
M  V30 9237 N 849.908 -0.773975 -1.37286 0
M  V30 9238 C 851.324 -0.45386 -1.53011 0
M  V30 9239 C 851.524 1.03018 -1.73175 0
M  V30 9240 O 850.58 1.81597 -1.75438 0
M  V30 9241 C 851.893 -1.27087 -2.72524 0
M  V30 9242 C 853.441 -1.26299 -2.86387 0
M  V30 9243 C 853.916 -2.0634 -4.08886 0
M  V30 9244 N 855.407 -2.03706 -4.16003 0
M  V30 9245 C 856.142 -2.62418 -5.09828 0
M  V30 9246 N 855.638 -3.29926 -6.09197 0
M  V30 9247 N 857.431 -2.52236 -5.02328 0
M  V30 9248 H 849.582 -1.73551 -1.22449 0
M  V30 9249 H 851.845 -0.736874 -0.596423 0
M  V30 9250 H 851.551 -2.32263 -2.64096 0
M  V30 9251 H 851.425 -0.90157 -3.66267 0
M  V30 9252 H 853.812 -0.219213 -2.94285 0
M  V30 9253 H 853.893 -1.67195 -1.93596 0
M  V30 9254 H 853.537 -3.10741 -4.01749 0
M  V30 9255 H 853.467 -1.62825 -5.00795 0
M  V30 9256 H 855.958 -1.54559 -3.44848 0
M  V30 9257 H 856.271 -3.72095 -6.77322 0
M  V30 9258 H 854.616 -3.34026 -6.09469 0
M  V30 9259 H 857.807 -1.99108 -4.23643 0
M  V30 9260 H 857.98 -2.98286 -5.75265 0
M  V30 9261 N 851.386 1.48609 -0.524698 0
M  V30 9262 C 852.632 2.02797 0.0113382 0
M  V30 9263 C 852.965 1.40147 1.34433 0
M  V30 9264 O 852.24 0.545368 1.86698 0
M  V30 9265 C 852.523 3.59832 0.138931 0
M  V30 9266 C 852.376 4.32971 -1.21886 0
M  V30 9267 C 853.695 4.3145 0.868265 0
M  V30 9268 H 850.814 0.736995 0.00264645 0
M  V30 9269 H 853.456 1.77388 -0.680704 0
M  V30 9270 H 851.606 3.81612 0.72834 0
M  V30 9271 H 853.278 4.22624 -1.84897 0
M  V30 9272 H 851.521 3.94597 -1.80211 0
M  V30 9273 H 852.192 5.41279 -1.08263 0
M  V30 9274 H 854.668 4.14468 0.368145 0
M  V30 9275 H 853.544 5.41025 0.926428 0
M  V30 9276 H 853.805 3.98358 1.91737 0
M  V30 9277 N 852.864 0.259585 1.55447 0
M  V30 9278 C 853.796 -0.667548 2.19263 0
M  V30 9279 C 854.809 -1.12925 1.17268 0
M  V30 9280 O 855.998 -1.05384 1.44071 0
M  V30 9281 C 853.098 -1.92066 2.7922 0
M  V30 9282 C 852.271 -1.60832 4.06758 0
M  V30 9283 C 851.33 -2.71231 4.50911 0
M  V30 9284 O 850.356 -2.38077 5.17019 0
M  V30 9285 N 851.558 -4.00984 4.19752 0
M  V30 9286 H 854.323 -0.121449 2.99454 0
M  V30 9287 H 851.884 0.0800519 1.61702 0
M  V30 9288 H 853.876 -2.65186 3.0571 0
M  V30 9289 H 852.446 -2.37621 2.03113 0
M  V30 9290 H 851.666 -0.711685 3.87722 0
M  V30 9291 H 852.954 -1.37445 4.89884 0
M  V30 9292 H 852.352 -4.30748 3.66706 0
M  V30 9293 H 850.909 -4.7053 4.51048 0
M  V30 9294 N 854.342 -1.57594 -0.0133615 0
M  V30 9295 C 855.619 -1.81173 -0.737273 0
M  V30 9296 C 855.999 -0.861395 -1.92726 0
M  V30 9297 O 855.347 0.0929324 -2.28311 0
M  V30 9298 C 855.557 -3.29314 -1.15557 0
M  V30 9299 C 856.905 -3.94707 -1.56498 0
M  V30 9300 O 857.929 -3.33557 -1.24973 0
M  V30 9301 O 856.788 -5.02402 -2.15069 0
M  V30 9302 H 853.882 -0.745575 -0.357837 0
M  V30 9303 H 856.428 -1.69696 0.0110674 0
M  V30 9304 H 855.2 -3.90096 -0.30677 0
M  V30 9305 H 854.823 -3.45739 -1.96343 0
M  V30 9306 N 855.82 0.285905 -1.54985 0
M  V30 9307 C 857.236 0.632405 -1.46536 0
M  V30 9308 C 857.436 1.90074 -0.668888 0
M  V30 9309 O 856.492 2.51839 -0.182586 0
M  V30 9310 C 857.805 0.771361 -2.90638 0
M  V30 9311 C 859.353 0.866262 -3.00774 0
M  V30 9312 C 859.828 1.0371 -4.46103 0
M  V30 9313 N 861.319 1.10294 -4.49877 0
M  V30 9314 C 862.054 1.25369 -5.59527 0
M  V30 9315 N 861.55 1.37246 -6.7907 0
M  V30 9316 N 863.343 1.28377 -5.47244 0
M  V30 9317 H 855.494 -0.547226 -2.0523 0
M  V30 9318 H 857.757 -0.183298 -0.930111 0
M  V30 9319 H 857.463 -0.0899485 -3.51585 0
M  V30 9320 H 857.337 1.65569 -3.3892 0
M  V30 9321 H 859.724 1.71805 -2.39931 0
M  V30 9322 H 859.805 -0.0424049 -2.55765 0
M  V30 9323 H 859.449 0.190021 -5.07544 0
M  V30 9324 H 859.379 1.96022 -4.88757 0
M  V30 9325 H 861.87 1.02407 -3.6376 0
M  V30 9326 H 862.183 1.48546 -7.58389 0
M  V30 9327 H 860.528 1.34274 -6.81906 0
M  V30 9328 H 863.719 1.1872 -4.52795 0
M  V30 9329 H 863.892 1.39782 -6.32744 0
M  V30 9330 N 857.298 1.47698 0.54982 0
M  V30 9331 C 858.575 1.45185 1.31075 0
M  V30 9332 C 858.955 0.152768 2.10547 0
M  V30 9333 O 858.303 -0.865706 2.11466 0
M  V30 9334 C 858.513 2.70192 2.20902 0
M  V30 9335 C 859.861 3.1771 2.81683 0
M  V30 9336 O 860.885 2.70971 2.312 0
M  V30 9337 O 859.744 3.98986 3.7346 0
M  V30 9338 H 856.838 0.57892 0.590577 0
M  V30 9339 H 859.384 1.59908 0.568112 0
M  V30 9340 H 858.156 3.56269 1.61828 0
M  V30 9341 H 857.779 2.58091 3.02448 0
M  V30 9342 N 858.776 -0.797141 1.35954 0
M  V30 9343 C 860.022 -1.55698 1.29946 0
M  V30 9344 C 860.355 -1.93808 -0.123259 0
M  V30 9345 O 859.63 -1.62102 -1.07486 0
M  V30 9346 C 859.913 -2.83926 2.2149 0
M  V30 9347 C 859.766 -2.52232 3.72423 0
M  V30 9348 C 861.085 -3.85698 2.11955 0
M  V30 9349 H 858.204 -0.56488 0.47337 0
M  V30 9350 H 860.846 -0.916421 1.66438 0
M  V30 9351 H 858.996 -3.38588 1.905 0
M  V30 9352 H 860.668 -2.0368 4.13899 0
M  V30 9353 H 858.911 -1.85286 3.92239 0
M  V30 9354 H 859.582 -3.43782 4.31877 0
M  V30 9355 H 862.058 -3.40462 2.39218 0
M  V30 9356 H 860.934 -4.73182 2.78191 0
M  V30 9357 H 861.195 -4.28083 1.10442 0
M  V30 9358 N 860.254 -1.20106 -1.0204 0
M  V30 9359 C 861.503 -1.00316 -1.74985 0
M  V30 9360 C 861.816 0.465814 -1.89972 0
M  V30 9361 O 863.022 0.782749 -2.59972 0
M  V30 9362 C 861.478 -1.74608 -3.14706 0
M  V30 9363 C 861.086 -3.25573 -3.07744 0
M  V30 9364 C 862.83 -1.63172 -3.91887 0
M  V30 9365 C 860.737 -3.92419 -4.42449 0
M  V30 9366 H 859.667 -0.371728 -0.655999 0
M  V30 9367 H 862.318 -1.43688 -1.14131 0
M  V30 9368 H 860.7 -1.24021 -3.76078 0
M  V30 9369 H 861.874 -3.83345 -2.55702 0
M  V30 9370 H 860.189 -3.3738 -2.44057 0
M  V30 9371 H 862.786 -2.10457 -4.9154 0
M  V30 9372 H 863.129 -0.58728 -4.12137 0
M  V30 9373 H 863.662 -2.11152 -3.37135 0
M  V30 9374 H 860.401 -4.96998 -4.27403 0
M  V30 9375 H 859.921 -3.39436 -4.94513 0
M  V30 9376 H 861.6 -3.96453 -5.11306 0
M  V30 9377 N 861.732 1.21287 -1.00634 0
M  V30 9378 C 862.978 1.90671 -0.690822 0
M  V30 9379 C 863.311 1.77996 0.776592 0
M  V30 9380 O 862.586 1.15748 1.5631 0
M  V30 9381 C 862.869 3.42426 -1.11428 0
M  V30 9382 C 862.722 3.64086 -2.64124 0
M  V30 9383 C 864.041 4.34851 -0.677686 0
M  V30 9384 H 861.16 0.692419 -0.252439 0
M  V30 9385 H 863.802 1.42893 -1.25226 0
M  V30 9386 H 861.952 3.83249 -0.636586 0
M  V30 9387 H 863.624 3.32582 -3.19667 0
M  V30 9388 H 861.867 3.07906 -3.05576 0
M  V30 9389 H 862.538 4.7042 -2.88806 0
M  V30 9390 H 865.014 4.01619 -1.0882 0
M  V30 9391 H 863.89 5.39675 -1.00213 0
M  V30 9392 H 864.151 4.4009 0.421125 0
M  V30 9393 N 863.21 0.781244 1.36873 0
M  V30 9394 C 864.459 0.34652 1.98701 0
M  V30 9395 C 864.772 -1.08555 1.62712 0
M  V30 9396 O 865.978 -1.62213 2.17713 0
M  V30 9397 C 864.434 0.568611 3.5538 0
M  V30 9398 C 864.042 2.01156 4.003 0
M  V30 9399 C 865.786 0.197983 4.24038 0
M  V30 9400 C 863.693 2.18074 5.49725 0
M  V30 9401 H 862.623 0.125821 0.743428 0
M  V30 9402 H 865.274 0.961721 1.56279 0
M  V30 9403 H 863.656 -0.116185 3.9583 0
M  V30 9404 H 864.83 2.73209 3.71071 0
M  V30 9405 H 863.145 2.33967 3.44454 0
M  V30 9406 H 865.742 0.302778 5.33842 0
M  V30 9407 H 866.085 -0.852927 4.07469 0
M  V30 9408 H 866.618 0.835696 3.88923 0
M  V30 9409 H 863.357 3.21519 5.71232 0
M  V30 9410 H 862.877 1.50517 5.80607 0
M  V30 9411 H 864.556 1.98393 6.15832 0
M  V30 9412 N 864.689 -1.48329 0.532571 0
M  V30 9413 C 866.105 -1.58458 0.190605 0
M  V30 9414 C 866.305 -1.53427 -1.30623 0
M  V30 9415 O 865.361 -1.4247 -2.08467 0
M  V30 9416 C 866.674 -2.89989 0.79543 0
M  V30 9417 C 868.222 -3.03523 0.7644 0
M  V30 9418 C 868.697 -4.37718 1.34785 0
M  V30 9419 N 870.188 -4.44292 1.30993 0
M  V30 9420 C 870.923 -5.4664 1.73124 0
M  V30 9421 N 870.419 -6.5593 2.22997 0
M  V30 9422 N 872.212 -5.37538 1.64346 0
M  V30 9423 H 864.363 -1.49842 1.50537 0
M  V30 9424 H 866.626 -0.71164 0.626316 0
M  V30 9425 H 866.332 -2.99333 1.84642 0
M  V30 9426 H 866.206 -3.76203 0.27403 0
M  V30 9427 H 868.593 -2.93789 -0.277831 0
M  V30 9428 H 868.674 -2.18912 1.3233 0
M  V30 9429 H 868.318 -4.48206 2.38902 0
M  V30 9430 H 868.248 -5.21019 0.764609 0
M  V30 9431 H 870.739 -3.65897 0.944868 0
M  V30 9432 H 871.052 -7.30167 2.53133 0
M  V30 9433 H 869.397 -6.56886 2.26992 0
M  V30 9434 H 872.588 -4.51052 1.25178 0
M  V30 9435 H 872.761 -6.17169 1.97501 0
M  V30 9436 N 866.167 -0.267825 -1.55308 0
M  V30 9437 C 867.415 0.350343 -1.9904 0
M  V30 9438 C 867.736 1.56924 -1.15758 0
M  V30 9439 O 867.006 1.94358 -0.245336 0
M  V30 9440 H 865.586 0.132435 -0.735167 0
M  V30 9441 H 868.248 -0.371471 -1.91327 0
M  V30 9442 H 867.344 0.645203 -3.05358 0
M  V30 9443 N 867.645 1.57599 0.00500368 0
M  V30 9444 C 868.555 2.11532 1.01446 0
M  V30 9445 C 869.571 1.05941 1.3803 0
M  V30 9446 O 870.747 1.37815 1.46864 0
M  V30 9447 C 867.812 2.60382 2.28915 0
M  V30 9448 C 866.873 3.80554 1.98689 0
M  V30 9449 C 866.106 4.27064 3.20081 0
M  V30 9450 O 866.329 3.72939 4.31593 0
M  V30 9451 O 865.263 5.1927 3.04371 0
M  V30 9452 H 869.089 2.97993 0.586011 0
M  V30 9453 H 866.674 1.47718 0.223519 0
M  V30 9454 H 868.556 2.92024 3.03809 0
M  V30 9455 H 867.231 1.77022 2.71007 0
M  V30 9456 H 866.138 3.53893 1.21286 0
M  V30 9457 H 867.471 4.64972 1.61437 0
M  V30 9458 N 869.123 -0.277682 1.55134 0
M  V30 9459 C 870.369 -1.0114 1.7578 0
M  V30 9460 C 870.702 -1.86109 0.554719 0
M  V30 9461 O 869.977 -1.89275 -0.447813 0
M  V30 9462 C 870.26 -1.89789 3.06027 0
M  V30 9463 C 870.113 -1.07844 4.3668 0
M  V30 9464 C 871.432 -2.88577 3.32282 0
M  V30 9465 H 868.551 -0.366277 0.639539 0
M  V30 9466 H 871.193 -0.284155 1.87863 0
M  V30 9467 H 869.343 -2.51796 2.95856 0
M  V30 9468 H 871.015 -0.479432 4.58802 0
M  V30 9469 H 869.258 -0.381764 4.32117 0
M  V30 9470 H 869.929 -1.73179 5.24131 0
M  V30 9471 H 872.405 -2.36702 3.42215 0
M  V30 9472 H 871.281 -3.47749 4.2469 0
M  V30 9473 H 871.542 -3.63458 2.51696 0
M  V30 9474 N 870.601 -1.47988 -0.541979 0
M  V30 9475 C 871.85 -1.5465 -1.29485 0
M  V30 9476 C 872.163 -0.220041 -1.94358 0
M  V30 9477 O 873.369 -0.164792 -2.70999 0
M  V30 9478 C 871.825 -2.72685 -2.34885 0
M  V30 9479 C 871.433 -4.11923 -1.76134 0
M  V30 9480 C 873.177 -2.88651 -3.11257 0
M  V30 9481 C 871.084 -5.21237 -2.79404 0
M  V30 9482 H 870.014 -0.575688 -0.486928 0
M  V30 9483 H 872.665 -1.74296 -0.573853 0
M  V30 9484 H 871.047 -2.46448 -3.09966 0
M  V30 9485 H 872.221 -4.48128 -1.07322 0
M  V30 9486 H 870.536 -4.00972 -1.12295 0
M  V30 9487 H 873.133 -3.67487 -3.88404 0
M  V30 9488 H 873.476 -1.97658 -3.66384 0
M  V30 9489 H 874.009 -3.14731 -2.43288 0
M  V30 9490 H 870.748 -6.14156 -2.29113 0
M  V30 9491 H 870.268 -4.89533 -3.4658 0
M  V30 9492 H 871.947 -5.48839 -3.42615 0
M  V30 9493 N 872.079 0.78992 -1.36375 0
M  V30 9494 C 873.49 1.36506 -1.2737 0
M  V30 9495 C 873.841 1.96008 0.086711 0
M  V30 9496 O 872.966 1.92521 0.988159 0
M  V30 9497 C 873.561 2.48175 -2.30639 0
M  V30 9498 C 872.12 3.01506 -2.25325 0
M  V30 9499 C 871.267 1.74581 -2.15445 0
M  V30 9500 H 874.218 0.591606 -1.47261 0
M  V30 9501 H 874.239 3.27179 -1.94253 0
M  V30 9502 H 873.751 2.04838 -3.2964 0
M  V30 9503 H 871.852 3.49265 -1.29788 0
M  V30 9504 H 871.965 3.58355 -3.17992 0
M  V30 9505 H 870.329 1.96794 -1.61692 0
M  V30 9506 H 871.112 1.33373 -3.16333 0
M  V30 9507 N 873.557 1.20646 1.01402 0
M  V30 9508 C 874.803 1.0197 1.753 0
M  V30 9509 C 875.136 -0.446803 1.8899 0
M  V30 9510 O 874.411 -1.33169 1.41762 0
M  V30 9511 C 874.694 1.70693 3.17074 0
M  V30 9512 C 874.547 3.24805 3.11162 0
M  V30 9513 C 875.866 1.44212 4.15802 0
M  V30 9514 H 872.985 0.371844 0.636318 0
M  V30 9515 H 875.627 1.48696 1.18277 0
M  V30 9516 H 873.777 1.30968 3.65759 0
M  V30 9517 H 875.449 3.73841 2.70261 0
M  V30 9518 H 873.692 3.55576 2.48492 0
M  V30 9519 H 874.363 3.68049 4.11393 0
M  V30 9520 H 876.839 1.7868 3.75783 0
M  V30 9521 H 875.715 1.94825 5.13161 0
M  V30 9522 H 875.976 0.370252 4.40547 0
M  V30 9523 N 875.035 -1.20752 1.01276 0
M  V30 9524 C 876.265 -1.93725 0.717934 0
M  V30 9525 C 876.673 -1.74769 -0.724732 0
M  V30 9526 O 876.016 -1.05642 -1.50285 0
M  V30 9527 C 876.078 -3.46196 0.968954 0
M  V30 9528 C 875.742 -3.88909 2.39998 0
M  V30 9529 C 876.739 -3.94982 3.38061 0
M  V30 9530 C 874.424 -4.21006 2.7397 0
M  V30 9531 C 876.418 -4.32558 4.68159 0
M  V30 9532 C 874.105 -4.58257 4.04282 0
M  V30 9533 C 875.103 -4.64004 5.01187 0
M  V30 9534 O 874.791 -5.00403 6.29168 0
M  V30 9535 H 874.523 -0.622663 0.263186 0
M  V30 9536 H 877.077 -1.54299 1.35577 0
M  V30 9537 H 875.307 -3.85728 0.273952 0
M  V30 9538 H 876.996 -4.00394 0.666312 0
M  V30 9539 H 877.762 -3.70353 3.13151 0
M  V30 9540 H 873.641 -4.15725 1.99233 0
M  V30 9541 H 877.185 -4.36959 5.43795 0
M  V30 9542 H 873.082 -4.82341 4.28973 0
M  V30 9543 H 873.85 -5.18409 6.33399 0
M  V30 9544 N 876.513 -0.788492 -1.36457 0
M  V30 9545 C 877.929 -0.470063 -1.52521 0
M  V30 9546 C 878.129 1.01176 -1.74258 0
M  V30 9547 O 877.185 1.79726 -1.77355 0
M  V30 9548 C 878.498 -1.2997 -2.71161 0
M  V30 9549 C 880.046 -1.2933 -2.85031 0
M  V30 9550 C 880.521 -2.10665 -4.06674 0
M  V30 9551 N 882.012 -2.08107 -4.13819 0
M  V30 9552 C 882.747 -2.6781 -5.07016 0
M  V30 9553 N 882.243 -3.36369 -6.05663 0
M  V30 9554 N 884.036 -2.57549 -4.99625 0
M  V30 9555 H 876.187 -1.7484 -1.20602 0
M  V30 9556 H 878.45 -0.743159 -0.588574 0
M  V30 9557 H 878.156 -2.35051 -2.61618 0
M  V30 9558 H 878.03 -0.940367 -3.6529 0
M  V30 9559 H 880.417 -0.250414 -2.94036 0
M  V30 9560 H 880.498 -1.69239 -1.91812 0
M  V30 9561 H 880.142 -3.14984 -3.98431 0
M  V30 9562 H 880.072 -1.68128 -4.9904 0
M  V30 9563 H 882.563 -1.58208 -3.43189 0
M  V30 9564 H 882.876 -3.79258 -6.73338 0
M  V30 9565 H 881.221 -3.40471 -6.05891 0
M  V30 9566 H 884.412 -2.0359 -4.21508 0
M  V30 9567 H 884.585 -3.0437 -5.72069 0
M  V30 9568 N 877.991 1.48044 -0.54043 0
M  V30 9569 C 878.921 2.32597 0.205178 0
M  V30 9570 C 879.902 1.42748 0.925041 0
M  V30 9571 O 881.087 1.71624 0.908784 0
M  V30 9572 C 878.217 3.24175 1.24612 0
M  V30 9573 C 877.171 4.23131 0.64376 0
M  V30 9574 C 876.497 5.03915 1.78812 0
M  V30 9575 C 877.797 5.20831 -0.39144 0
M  V30 9576 H 879.491 2.95184 -0.500676 0
M  V30 9577 H 877.037 1.41948 -0.242225 0
M  V30 9578 H 878.99 3.82158 1.77576 0
M  V30 9579 H 877.714 2.59608 1.98169 0
M  V30 9580 H 876.373 3.66349 0.135554 0
M  V30 9581 H 876.021 4.35765 2.51232 0
M  V30 9582 H 875.721 5.709 1.39094 0
M  V30 9583 H 877.245 5.64753 2.32134 0
M  V30 9584 H 878.659 5.73277 0.0515064 0
M  V30 9585 H 877.056 5.95926 -0.706569 0
M  V30 9586 H 878.126 4.6733 -1.29345 0
M  V30 9587 N 879.47 0.276058 1.55163 0
M  V30 9588 C 880.716 -0.333945 2.0064 0
M  V30 9589 C 881.071 -1.53414 1.16111 0
M  V30 9590 O 880.364 -1.90293 0.22341 0
M  V30 9591 C 880.558 -0.765744 3.491 0
M  V30 9592 C 880.387 0.391068 4.47996 0
M  V30 9593 C 879.157 0.875151 4.97664 0
M  V30 9594 C 881.355 1.22786 4.99428 0
M  V30 9595 N 879.337 2.00133 5.80362 0
M  V30 9596 C 880.708 2.20192 5.79582 0
M  V30 9597 C 882.763 1.26109 4.81665 0
M  V30 9598 C 881.466 3.20667 6.43868 0
M  V30 9599 C 883.492 2.2543 5.4675 0
M  V30 9600 C 882.854 3.21568 6.26716 0
M  V30 9601 H 878.953 -0.087345 0.777107 0
M  V30 9602 H 881.537 0.400294 1.90541 0
M  V30 9603 H 879.708 -1.46921 3.5954 0
M  V30 9604 H 881.44 -1.35316 3.81407 0
M  V30 9605 H 878.195 0.454297 4.71416 0
M  V30 9606 H 878.619 2.56806 6.26402 0
M  V30 9607 H 883.261 0.531622 4.19444 0
M  V30 9608 H 880.979 3.94547 7.05236 0
M  V30 9609 H 884.565 2.28744 5.34946 0
M  V30 9610 H 883.445 3.97164 6.76188 0
M  V30 9611 N 880.948 -1.576 0.00335426 0
M  V30 9612 C 881.858 -2.12067 -1.00322 0
M  V30 9613 C 882.874 -1.06672 -1.37467 0
M  V30 9614 O 884.05 -1.38592 -1.46131 0
M  V30 9615 C 881.115 -2.61593 -2.27531 0
M  V30 9616 C 880.176 -3.81602 -1.96668 0
M  V30 9617 C 879.409 -4.28756 -3.17811 0
M  V30 9618 O 879.632 -3.75222 -4.2961 0
M  V30 9619 O 878.566 -5.20877 -3.01613 0
M  V30 9620 H 882.392 -2.98299 -0.570199 0
M  V30 9621 H 879.977 -1.47835 -0.215682 0
M  V30 9622 H 881.859 -2.93631 -3.02256 0
M  V30 9623 H 880.534 -1.78457 -2.70065 0
M  V30 9624 H 879.441 -3.54531 -1.19408 0
M  V30 9625 H 880.774 -4.65822 -1.58968 0
M  V30 9626 N 882.426 0.269451 -1.5528 0
M  V30 9627 C 883.672 1.00206 -1.76314 0
M  V30 9628 C 884.005 1.85812 -0.564581 0
M  V30 9629 O 883.28 1.89509 0.437769 0
M  V30 9630 C 883.563 1.88163 -3.07029 0
M  V30 9631 C 883.416 1.05527 -4.37246 0
M  V30 9632 C 884.735 2.8681 -3.33808 0
M  V30 9633 H 881.854 0.36288 -0.641473 0
M  V30 9634 H 884.496 0.274188 -1.88011 0
M  V30 9635 H 882.646 2.50224 -2.97187 0
M  V30 9636 H 884.318 0.455094 -4.5905 0
M  V30 9637 H 882.561 0.358842 -4.32313 0
M  V30 9638 H 883.232 1.70397 -5.25042 0
M  V30 9639 H 885.708 2.34884 -3.43466 0
M  V30 9640 H 884.584 3.45492 -4.26528 0
M  V30 9641 H 884.845 3.62118 -2.5362 0
M  V30 9642 N 883.904 1.48273 0.534124 0
M  V30 9643 C 884.834 1.6538 1.64839 0
M  V30 9644 C 885.815 0.502741 1.62501 0
M  V30 9645 O 887 0.734799 1.79762 0
M  V30 9646 C 884.13 1.68949 3.03436 0
M  V30 9647 C 883.084 2.83513 3.20631 0
M  V30 9648 C 882.41 2.72169 4.60248 0
M  V30 9649 C 883.71 4.24858 3.03797 0
M  V30 9650 H 885.404 2.58663 1.50777 0
M  V30 9651 H 882.95 1.24479 0.723937 0
M  V30 9652 H 884.903 1.79505 3.81256 0
M  V30 9653 H 883.627 0.722415 3.1851 0
M  V30 9654 H 882.286 2.72505 2.45227 0
M  V30 9655 H 881.934 1.7344 4.72152 0
M  V30 9656 H 881.634 3.49042 4.72698 0
M  V30 9657 H 883.158 2.84687 5.40172 0
M  V30 9658 H 884.572 4.36721 3.71413 0
M  V30 9659 H 882.969 5.02697 3.27743 0
M  V30 9660 H 884.039 4.41611 2.0027 0
M  V30 9661 N 885.382 -0.782676 1.36792 0
M  V30 9662 C 886.314 -1.9044 1.27536 0
M  V30 9663 C 887.327 -1.61647 0.193426 0
M  V30 9664 O 888.516 -1.72769 0.448692 0
M  V30 9665 C 885.616 -3.2541 0.946641 0
M  V30 9666 C 884.789 -3.81932 2.13183 0
M  V30 9667 C 883.848 -4.95355 1.7751 0
M  V30 9668 O 882.874 -5.11517 2.49678 0
M  V30 9669 N 884.076 -5.76108 0.712755 0
M  V30 9670 H 886.841 -1.98899 2.24186 0
M  V30 9671 H 884.402 -0.96127 1.30274 0
M  V30 9672 H 886.394 -3.98791 0.689043 0
M  V30 9673 H 884.964 -3.12524 0.0690591 0
M  V30 9674 H 884.184 -3.00459 2.55183 0
M  V30 9675 H 885.472 -4.16426 2.92347 0
M  V30 9676 H 884.87 -5.65586 0.113662 0
M  V30 9677 H 883.427 -6.49762 0.514995 0
M  V30 9678 N 886.86 -1.21182 -1.00761 0
M  V30 9679 C 888.109 -1.02166 -1.73911 0
M  V30 9680 C 888.422 0.445638 -1.90456 0
M  V30 9681 O 889.628 0.755132 -2.60787 0
M  V30 9682 C 888.084 -1.77936 -3.12837 0
M  V30 9683 C 887.692 -3.28819 -3.04273 0
M  V30 9684 C 889.436 -1.67319 -3.90134 0
M  V30 9685 C 887.343 -3.97089 -4.38262 0
M  V30 9686 H 886.273 -0.378665 -0.652019 0
M  V30 9687 H 888.924 -1.44891 -1.12601 0
M  V30 9688 H 887.306 -1.28003 -3.74742 0
M  V30 9689 H 888.48 -3.86035 -2.51622 0
M  V30 9690 H 886.795 -3.39949 -2.40465 0
M  V30 9691 H 889.392 -2.15659 -4.8928 0
M  V30 9692 H 889.735 -0.630959 -4.11491 0
M  V30 9693 H 890.268 -2.14716 -3.34876 0
M  V30 9694 H 887.007 -5.01503 -4.22107 0
M  V30 9695 H 886.527 -3.44662 -4.90885 0
M  V30 9696 H 888.206 -4.01854 -5.07072 0
M  V30 9697 N 888.338 1.20213 -1.01915 0
M  V30 9698 C 889.248 2.26763 -0.601311 0
M  V30 9699 C 890.264 1.70185 0.362369 0
M  V30 9700 O 891.44 2.00165 0.222682 0
M  V30 9701 C 888.505 3.46662 0.0512879 0
M  V30 9702 C 887.566 4.18459 -0.958659 0
M  V30 9703 C 886.799 5.32634 -0.337107 0
M  V30 9704 O 887.022 5.63841 0.86251 0
M  V30 9705 O 885.956 5.9258 -1.05511 0
M  V30 9706 H 889.782 2.64725 -1.48844 0
M  V30 9707 H 887.367 1.2688 -0.788784 0
M  V30 9708 H 889.249 4.19345 0.41564 0
M  V30 9709 H 887.924 3.1057 0.912572 0
M  V30 9710 H 886.831 3.47937 -1.37442 0
M  V30 9711 H 888.164 4.58498 -1.78999 0
M  V30 9712 N 889.816 0.795718 1.36037 0
M  V30 9713 C 890.766 0.171437 2.27355 0
M  V30 9714 C 891.75 -0.648346 1.47259 0
M  V30 9715 O 892.942 -0.507386 1.69572 0
M  V30 9716 C 890.071 -0.687876 3.36338 0
M  V30 9717 C 889.157 0.141041 4.23865 0
M  V30 9718 N 889.548 1.19868 4.91391 0
M  V30 9719 C 887.846 -0.0791045 4.4593 0
M  V30 9720 C 888.547 1.70382 5.56188 0
M  V30 9721 N 887.523 1.01202 5.34097 0
M  V30 9722 H 891.325 0.980846 2.7705 0
M  V30 9723 H 888.839 0.635798 1.49437 0
M  V30 9724 H 890.836 -1.15107 4.00694 0
M  V30 9725 H 889.496 -1.49576 2.88196 0
M  V30 9726 H 890.507 1.58119 4.93172 0
M  V30 9727 H 887.184 -0.856993 4.0861 0
M  V30 9728 H 888.574 2.58715 6.20093 0
M  V30 9729 N 891.294 -1.47756 0.548274 0
M  V30 9730 C 892.241 -2.29893 -0.204408 0
M  V30 9731 C 893.211 -1.38509 -0.916761 0
M  V30 9732 O 894.396 -1.67472 -0.91421 0
M  V30 9733 C 891.536 -3.22282 -1.23403 0
M  V30 9734 C 890.649 -4.28753 -0.528654 0
M  V30 9735 C 889.784 -5.08303 -1.54279 0
M  V30 9736 C 888.823 -6.06557 -0.821893 0
M  V30 9737 N 887.96 -6.79098 -1.78243 0
M  V30 9738 H 892.8 -2.93739 0.502163 0
M  V30 9739 H 890.337 -1.44793 0.259471 0
M  V30 9740 H 892.295 -3.74262 -1.84348 0
M  V30 9741 H 890.925 -2.6032 -1.90875 0
M  V30 9742 H 889.977 -3.79899 0.195132 0
M  V30 9743 H 891.289 -4.98787 0.0365066 0
M  V30 9744 H 890.443 -5.64388 -2.22602 0
M  V30 9745 H 889.182 -4.3815 -2.14186 0
M  V30 9746 H 888.187 -5.49659 -0.12469 0
M  V30 9747 H 889.412 -6.78715 -0.228685 0
M  V30 9748 H 887.358 -6.11682 -2.37025 0
M  V30 9749 H 887.275 -7.4527 -1.26919 0
M  V30 9750 H 888.543 -7.39762 -2.45709 0
M  V30 9751 N 892.772 -0.284283 -1.55015 0
M  V30 9752 C 893.682 0.60906 -2.26556 0
M  V30 9753 C 894.698 1.16246 -1.29472 0
M  V30 9754 O 895.874 1.1908 -1.62425 0
M  V30 9755 C 892.939 1.77246 -2.97968 0
M  V30 9756 C 892 1.25482 -4.10552 0
M  V30 9757 C 891.233 2.36277 -4.78549 0
M  V30 9758 O 891.456 3.55829 -4.45805 0
M  V30 9759 O 890.39 2.03914 -5.66306 0
M  V30 9760 H 894.216 0.0292298 -3.03686 0
M  V30 9761 H 891.801 -0.0513466 -1.49312 0
M  V30 9762 H 893.683 2.45062 -3.42815 0
M  V30 9763 H 892.358 2.33921 -2.23747 0
M  V30 9764 H 891.265 0.542859 -3.7014 0
M  V30 9765 H 892.598 0.733708 -4.86701 0
M  V30 9766 N 894.251 1.57596 -0.0117121 0
M  V30 9767 C 895.161 2.12596 0.991964 0
M  V30 9768 C 896.177 1.07399 1.36899 0
M  V30 9769 O 897.353 1.39365 1.45394 0
M  V30 9770 C 894.418 2.62796 2.2614 0
M  V30 9771 C 893.479 3.8264 1.94642 0
M  V30 9772 C 892.712 4.30435 3.15533 0
M  V30 9773 O 892.935 3.77495 4.27614 0
M  V30 9774 O 891.869 5.22469 2.98847 0
M  V30 9775 H 895.695 2.98597 0.554371 0
M  V30 9776 H 893.28 1.47947 0.207839 0
M  V30 9777 H 895.162 2.9523 3.00695 0
M  V30 9778 H 893.837 1.79886 2.69114 0
M  V30 9779 H 892.744 3.5516 1.17526 0
M  V30 9780 H 894.077 4.66658 1.56496 0
M  V30 9781 N 895.729 -0.261212 1.5542 0
M  V30 9782 C 896.659 -1.32712 1.92119 0
M  V30 9783 C 897.64 -1.50934 0.784406 0
M  V30 9784 O 898.825 -1.63781 1.04352 0
M  V30 9785 C 895.955 -2.68453 2.20341 0
M  V30 9786 C 894.909 -2.64947 3.36136 0
M  V30 9787 C 894.235 -4.04349 3.49865 0
M  V30 9788 C 895.535 -2.23182 4.72215 0
M  V30 9789 H 897.229 -1.02245 2.81401 0
M  V30 9790 H 894.775 -0.490406 1.35392 0
M  V30 9791 H 896.728 -3.43144 2.44603 0
M  V30 9792 H 895.452 -3.00527 1.27871 0
M  V30 9793 H 894.111 -1.92714 3.11861 0
M  V30 9794 H 893.759 -4.33665 2.5484 0
M  V30 9795 H 893.459 -4.02895 4.27726 0
M  V30 9796 H 894.983 -4.80761 3.76432 0
M  V30 9797 H 896.397 -2.87599 4.95943 0
M  V30 9798 H 894.794 -2.32867 5.53076 0
M  V30 9799 H 895.864 -1.18327 4.70241 0
M  V30 9800 N 897.207 -1.48554 -0.526253 0
M  V30 9801 C 898.117 -1.66044 -1.65731 0
M  V30 9802 C 899.133 -0.542951 -1.65312 0
M  V30 9803 O 900.309 -0.814495 -1.84195 0
M  V30 9804 C 897.374 -1.69959 -3.02184 0
M  V30 9805 C 896.435 -2.93362 -3.13428 0
M  V30 9806 C 895.668 -2.97081 -4.43372 0
M  V30 9807 O 895.891 -2.09103 -5.3069 0
M  V30 9808 O 894.825 -3.8929 -4.59061 0
M  V30 9809 H 898.651 -2.61811 -1.53912 0
M  V30 9810 H 896.236 -1.31999 -0.699759 0
M  V30 9811 H 898.118 -1.75033 -3.83329 0
M  V30 9812 H 896.793 -0.773658 -3.14319 0
M  V30 9813 H 895.7 -2.93818 -2.31564 0
M  V30 9814 H 897.033 -3.85352 -3.06211 0
M  V30 9815 N 898.685 0.775411 -1.37205 0
M  V30 9816 C 899.595 1.91967 -1.34855 0
M  V30 9817 C 900.611 1.72214 -0.248656 0
M  V30 9818 O 901.787 1.95512 -0.483421 0
M  V30 9819 C 898.852 3.27038 -1.15096 0
M  V30 9820 C 897.913 3.5947 -2.34691 0
M  V30 9821 C 897.146 4.88097 -2.15865 0
M  V30 9822 O 897.369 5.58871 -1.14102 0
M  V30 9823 O 896.303 5.19507 -3.03967 0
M  V30 9824 H 900.129 1.969 -2.31223 0
M  V30 9825 H 897.714 0.917647 -1.17897 0
M  V30 9826 H 899.596 4.07837 -1.0605 0
M  V30 9827 H 898.271 3.22965 -0.217999 0
M  V30 9828 H 897.178 2.7892 -2.49308 0
M  V30 9829 H 898.511 3.68282 -3.26541 0
M  V30 9830 N 900.163 1.21714 1.00117 0
M  V30 9831 C 901.096 0.923113 2.08696 0
M  V30 9832 C 902.074 -0.130827 1.62073 0
M  V30 9833 O 903.258 -0.00103064 1.885 0
M  V30 9834 C 900.385 0.386807 3.36484 0
M  V30 9835 C 899.431 1.42414 4.0202 0
M  V30 9836 S 900.264 2.99466 4.43937 0
M  V30 9837 C 901.42 2.47452 5.74907 0
M  V30 9838 H 901.653 1.84258 2.33315 0
M  V30 9839 H 899.186 1.0473 1.1345 0
M  V30 9840 H 901.144 0.0839547 4.10414 0
M  V30 9841 H 899.805 -0.511413 3.09909 0
M  V30 9842 H 898.998 0.998593 4.94008 0
M  V30 9843 H 898.6 1.67527 3.34381 0
M  V30 9844 H 900.892 1.88177 6.50842 0
M  V30 9845 H 901.835 3.37898 6.22279 0
M  V30 9846 H 902.243 1.89027 5.31911 0
M  V30 9847 N 901.641 -1.19671 1.02551 0
M  V30 9848 C 902.551 -2.26441 0.613329 0
M  V30 9849 C 903.567 -1.70375 -0.353339 0
M  V30 9850 O 904.743 -2.0028 -0.212064 0
M  V30 9851 C 901.808 -3.46684 -0.0329028 0
M  V30 9852 C 900.869 -4.17945 0.980837 0
M  V30 9853 C 900.102 -5.32448 0.36535 0
M  V30 9854 O 900.325 -5.64291 -0.832596 0
M  V30 9855 O 899.259 -5.92012 1.08652 0
M  V30 9856 H 903.085 -2.63932 1.50246 0
M  V30 9857 H 900.67 -1.2646 0.795502 0
M  V30 9858 H 902.552 -4.1956 -0.393395 0
M  V30 9859 H 901.227 -3.1105 -0.896089 0
M  V30 9860 H 900.134 -3.47204 1.39286 0
M  V30 9861 H 901.467 -4.57542 1.81428 0
M  V30 9862 N 903.119 -0.802921 -1.35613 0
M  V30 9863 C 904.082 -0.216422 -2.28176 0
M  V30 9864 C 905.082 0.594101 -1.49422 0
M  V30 9865 O 906.272 0.41312 -1.6923 0
M  V30 9866 C 903.404 0.698746 -3.33662 0
M  V30 9867 H 904.597 -1.03276 -2.81557 0
M  V30 9868 H 902.15 -0.573307 -1.45406 0
M  V30 9869 H 902.885 1.53891 -2.85461 0
M  V30 9870 H 902.67 0.119314 -3.91918 0
M  V30 9871 H 904.16 1.10354 -4.02755 0
M  V30 9872 N 904.597 1.47463 -0.556102 0
M  V30 9873 C 905.843 2.02775 -0.0316806 0
M  V30 9874 C 906.176 1.42967 1.3143 0
M  V30 9875 O 905.451 0.584847 1.85499 0
M  V30 9876 C 905.734 3.60046 0.0625742 0
M  V30 9877 C 905.587 4.30288 -1.31043 0
M  V30 9878 C 906.906 4.33195 0.776553 0
M  V30 9879 H 904.025 0.736886 -0.0129869 0
M  V30 9880 H 906.667 1.75904 -0.718177 0
M  V30 9881 H 904.817 3.83071 0.647231 0
M  V30 9882 H 906.489 4.18607 -1.9382 0
M  V30 9883 H 904.732 3.90685 -1.8854 0
M  V30 9884 H 905.403 5.38861 -1.1972 0
M  V30 9885 H 907.879 4.15156 0.280147 0
M  V30 9886 H 906.755 5.42869 0.81146 0
M  V30 9887 H 907.016 4.02336 1.83244 0
M  V30 9888 N 906.075 0.2925 1.54862 0
M  V30 9889 C 907.324 -0.319994 1.99146 0
M  V30 9890 C 907.637 -1.55658 1.18448 0
M  V30 9891 O 908.843 -2.24312 1.52959 0
M  V30 9892 C 907.299 -0.620665 3.54508 0
M  V30 9893 C 906.907 0.597098 4.44003 0
M  V30 9894 C 908.651 -1.19482 4.07338 0
M  V30 9895 C 906.558 0.270049 5.90783 0
M  V30 9896 H 905.488 -0.123342 0.743843 0
M  V30 9897 H 908.139 0.399876 1.7909 0
M  V30 9898 H 906.521 -1.3999 3.7043 0
M  V30 9899 H 907.695 1.37354 4.39853 0
M  V30 9900 H 906.01 1.0893 4.019 0
M  V30 9901 H 908.607 -1.45362 5.14562 0
M  V30 9902 H 908.95 -2.13435 3.57423 0
M  V30 9903 H 909.483 -0.477485 3.94924 0
M  V30 9904 H 906.222 1.17791 6.4483 0
M  V30 9905 H 905.742 -0.469292 5.97961 0
M  V30 9906 H 907.421 -0.131471 6.46866 0
M  V30 9907 N 907.553 -1.57587 0.0200696 0
M  V30 9908 C 908.799 -1.91708 -0.661503 0
M  V30 9909 C 909.132 -0.895968 -1.72296 0
M  V30 9910 O 908.407 0.082577 -1.94325 0
M  V30 9911 C 908.69 -3.36344 -1.28627 0
M  V30 9912 C 908.543 -4.49186 -0.234982 0
M  V30 9913 C 909.862 -3.80771 -2.20685 0
M  V30 9914 H 906.981 -0.69717 -0.239005 0
M  V30 9915 H 909.623 -1.8985 0.0754764 0
M  V30 9916 H 907.773 -3.38058 -1.91439 0
M  V30 9917 H 909.445 -4.59606 0.395011 0
M  V30 9918 H 907.688 -4.31557 0.440565 0
M  V30 9919 H 908.359 -5.47395 -0.711558 0
M  V30 9920 H 910.835 -3.80735 -1.67868 0
M  V30 9921 H 909.711 -4.82685 -2.61356 0
M  V30 9922 H 909.972 -3.15764 -3.09428 0
M  V30 9923 N 909.032 0.252966 -1.55557 0
M  V30 9924 C 910.448 0.60118 -1.47844 0
M  V30 9925 C 910.648 1.88612 -0.709055 0
M  V30 9926 O 909.704 2.51395 -0.235964 0
M  V30 9927 C 911.017 0.709539 -2.92209 0
M  V30 9928 C 912.565 0.802269 -3.02544 0
M  V30 9929 C 913.04 0.94224 -4.48203 0
M  V30 9930 N 914.531 1.00726 -4.52116 0
M  V30 9931 C 915.266 1.13472 -5.6206 0
M  V30 9932 N 914.762 1.22811 -6.81828 0
M  V30 9933 N 916.555 1.1674 -5.49844 0
M  V30 9934 H 908.706 -0.590635 -2.04023 0
M  V30 9935 H 910.969 -0.202986 -0.926013 0
M  V30 9936 H 910.675 -0.164505 -3.51315 0
M  V30 9937 H 910.549 1.58343 -3.42356 0
M  V30 9938 H 912.936 1.66677 -2.43522 0
M  V30 9939 H 913.017 -0.0966469 -2.55617 0
M  V30 9940 H 912.661 0.0823209 -5.07833 0
M  V30 9941 H 912.591 1.85611 -4.92805 0
M  V30 9942 H 915.082 0.946684 -3.6585 0
M  V30 9943 H 915.395 1.32426 -7.61369 0
M  V30 9944 H 913.74 1.19779 -6.84601 0
M  V30 9945 H 916.931 1.09089 -4.55211 0
M  V30 9946 H 917.104 1.26329 -6.35567 0
M  V30 9947 N 910.51 1.48831 0.518367 0
M  V30 9948 C 911.756 1.57672 1.27543 0
M  V30 9949 C 912.089 0.254915 1.9252 0
M  V30 9950 O 911.364 -0.740107 1.79868 0
M  V30 9951 C 911.647 2.72345 2.35585 0
M  V30 9952 C 911.5 4.14267 1.75224 0
M  V30 9953 C 912.819 2.82726 3.37274 0
M  V30 9954 H 909.938 0.573926 0.462361 0
M  V30 9955 H 912.58 1.8105 0.576267 0
M  V30 9956 H 910.73 2.52543 2.95219 0
M  V30 9957 H 912.402 4.45539 1.19551 0
M  V30 9958 H 910.645 4.20724 1.05706 0
M  V30 9959 H 911.316 4.90345 2.53507 0
M  V30 9960 H 913.792 3.00699 2.8761 0
M  V30 9961 H 912.668 3.6467 4.10252 0
M  V30 9962 H 912.929 1.9136 3.9854 0
M  V30 9963 N 911.988 -0.768124 1.37614 0
M  V30 9964 C 913.236 -1.52379 1.3276 0
M  V30 9965 C 913.557 -1.94809 -0.0863564 0
M  V30 9966 O 912.827 -1.66568 -1.03112 0
M  V30 9967 H 911.407 -0.565179 0.488448 0
M  V30 9968 H 914.069 -0.913974 1.72141 0
M  V30 9969 H 913.165 -2.4215 1.96901 0
M  V30 9970 N 913.466 -1.22244 -0.994698 0
M  V30 9971 C 914.414 -0.988118 -2.10568 0
M  V30 9972 C 915.408 0.0681541 -1.69263 0
M  V30 9973 O 916.614 -0.0841311 -1.79803 0
M  V30 9974 H 912.989 -0.302343 -0.688544 0
M  V30 9975 H 914.96 -1.93091 -2.27505 0
M  V30 9976 C 913.709 -0.580557 -3.42819 0
M  V30 9977 H 913.032 -1.385 -3.75044 0
M  V30 9978 H 914.472 -0.456004 -4.21541 0
M  V30 9979 C 912.931 0.709692 -3.2934 0
M  V30 9980 O 913.461 1.76259 -3.60965 0
M  V30 9981 N 911.667 0.680155 -2.82528 0
M  V30 9982 H 911.214 -0.176977 -2.56991 0
M  V30 9983 H 911.172 1.54372 -2.73892 0
M  V30 9984 N 914.944 1.19125 -1.03184 0
M  V30 9985 C 916.36 1.40909 -0.749447 0
M  V30 9986 C 916.56 1.9022 0.664729 0
M  V30 9987 O 915.616 2.08085 1.43028 0
M  V30 9988 C 916.929 2.41761 -1.78807 0
M  V30 9989 C 918.477 2.55503 -1.80796 0
M  V30 9990 C 918.952 3.59612 -2.83626 0
M  V30 9991 N 920.443 3.6711 -2.82461 0
M  V30 9992 C 921.178 4.47366 -3.5868 0
M  V30 9993 N 920.674 5.31302 -4.44623 0
M  V30 9994 N 922.467 4.42044 -3.47208 0
M  V30 9995 H 914.618 0.854399 -1.94458 0
M  V30 9996 H 916.881 0.437753 -0.840878 0
M  V30 9997 H 916.587 2.12559 -2.80199 0
M  V30 9998 H 916.461 3.40981 -1.61283 0
M  V30 9999 H 918.848 2.84027 -0.800803 0
M  V30 10000 H 918.929 1.56427 -2.02396 0
M  V30 10001 H 918.573 3.3183 -3.84515 0
M  V30 10002 H 918.503 4.58345 -2.59283 0
M  V30 10003 H 920.994 3.07166 -2.2013 0
M  V30 10004 H 921.307 5.89667 -4.99512 0
M  V30 10005 H 919.652 5.30753 -4.48694 0
M  V30 10006 H 922.843 3.75513 -2.79477 0
M  V30 10007 H 923.016 5.0435 -4.06859 0
M  V30 10008 N 916.422 0.810101 1.35185 0
M  V30 10009 C 917.369 0.220927 2.2974 0
M  V30 10010 C 918.339 -0.647024 1.5298 0
M  V30 10011 O 919.524 -0.591367 1.81404 0
M  V30 10012 C 916.664 -0.62167 3.39454 0
M  V30 10013 C 915.777 0.267104 4.31173 0
M  V30 10014 C 914.912 -0.583833 5.27982 0
M  V30 10015 C 913.951 0.305123 6.11339 0
M  V30 10016 N 913.088 -0.505992 7.00274 0
M  V30 10017 H 917.928 1.03266 2.79536 0
M  V30 10018 H 915.465 0.520768 1.37573 0
M  V30 10019 H 917.423 -1.12539 4.01735 0
M  V30 10020 H 916.053 -1.39863 2.90926 0
M  V30 10021 H 915.105 0.88895 3.69867 0
M  V30 10022 H 916.417 0.951182 4.89647 0
M  V30 10023 H 915.571 -1.15254 5.95652 0
M  V30 10024 H 914.31 -1.30146 4.70014 0
M  V30 10025 H 913.315 0.886075 5.42613 0
M  V30 10026 H 914.54 1.02067 6.71386 0
M  V30 10027 H 912.486 -1.20753 6.4479 0
M  V30 10028 H 912.403 0.119966 7.55905 0
M  V30 10029 H 913.671 -1.05787 7.72288 0
M  V30 10030 N 917.9 -1.47166 0.563914 0
M  V30 10031 C 919.13 -2.06546 0.0473599 0
M  V30 10032 C 919.538 -1.41607 -1.25476 0
M  V30 10033 O 918.881 -0.50894 -1.76509 0
M  V30 10034 C 918.943 -3.58873 -0.212249 0
M  V30 10035 C 918.607 -4.45893 1.00144 0
M  V30 10036 C 919.604 -4.83594 1.90873 0
M  V30 10037 C 917.289 -4.87309 1.218 0
M  V30 10038 C 919.283 -5.61519 3.01621 0
M  V30 10039 C 916.97 -5.64997 2.32856 0
M  V30 10040 C 917.968 -6.02013 3.22597 0
M  V30 10041 O 917.656 -6.78135 4.31727 0
M  V30 10042 H 917.388 -0.674441 0.0458823 0
M  V30 10043 H 919.942 -1.9006 0.778865 0
M  V30 10044 H 918.172 -3.73596 -0.998145 0
M  V30 10045 H 919.861 -4.00248 -0.675005 0
M  V30 10046 H 920.627 -4.52192 1.7535 0
M  V30 10047 H 916.506 -4.57959 0.528641 0
M  V30 10048 H 920.05 -5.90331 3.71693 0
M  V30 10049 H 915.947 -5.95813 2.48349 0
M  V30 10050 H 916.715 -6.96537 4.29859 0
M  V30 10051 N 919.378 -0.300708 -1.54705 0
M  V30 10052 C 920.626 0.308044 -1.99739 0
M  V30 10053 C 920.947 1.54433 -1.19061 0
M  V30 10054 O 920.217 1.93794 -0.286507 0
M  V30 10055 H 918.797 0.116811 -0.73781 0
M  V30 10056 H 921.459 -0.41197 -1.90496 0
M  V30 10057 H 920.555 0.580287 -3.06658 0
M  V30 10058 N 920.856 1.57574 -0.0284266 0
M  V30 10059 C 922.105 1.9095 0.649704 0
M  V30 10060 C 922.418 0.906421 1.7333 0
M  V30 10061 O 923.624 1.1314 2.46803 0
M  V30 10062 C 922.08 3.39061 1.20687 0
M  V30 10063 C 921.688 4.47726 0.156597 0
M  V30 10064 C 923.432 3.81505 1.86156 0
M  V30 10065 C 921.339 5.86935 0.725365 0
M  V30 10066 H 920.269 0.712589 0.24644 0
M  V30 10067 H 922.92 1.83261 -0.0936143 0
M  V30 10068 H 921.302 3.41679 2.00178 0
M  V30 10069 H 922.476 4.56667 -0.6158 0
M  V30 10070 H 920.791 4.14481 -0.399288 0
M  V30 10071 H 923.388 4.82865 2.29665 0
M  V30 10072 H 923.731 3.16529 2.70398 0
M  V30 10073 H 924.264 3.81307 1.13356 0
M  V30 10074 H 921.003 6.55453 -0.0789081 0
M  V30 10075 H 920.523 5.81602 1.46627 0
M  V30 10076 H 922.202 6.35483 1.21532 0
M  V30 10077 N 922.334 -0.244713 1.55689 0
M  V30 10078 C 923.58 -0.973886 1.77886 0
M  V30 10079 C 923.913 -1.8489 0.594071 0
M  V30 10080 O 923.188 -1.90182 -0.407564 0
M  V30 10081 C 923.471 -1.83255 3.09983 0
M  V30 10082 C 923.324 -0.985571 4.3887 0
M  V30 10083 C 924.643 -2.81464 3.38329 0
M  V30 10084 H 921.762 -0.352629 0.647165 0
M  V30 10085 H 924.404 -0.244243 1.88424 0
M  V30 10086 H 922.554 -2.45464 3.01131 0
M  V30 10087 H 924.226 -0.382005 4.59716 0
M  V30 10088 H 922.469 -0.29002 4.32829 0
M  V30 10089 H 923.14 -1.62022 5.27686 0
M  V30 10090 H 925.616 -2.2939 3.47159 0
M  V30 10091 H 924.492 -3.38663 4.31971 0
M  V30 10092 H 924.753 -3.58037 2.59349 0
M  V30 10093 N 923.813 -1.49104 -0.510467 0
M  V30 10094 C 925.059 -1.58346 -1.26705 0
M  V30 10095 C 925.392 -0.265121 -1.92382 0
M  V30 10096 O 924.667 0.730558 -1.80258 0
M  V30 10097 C 924.95 -2.7359 -2.34137 0
M  V30 10098 C 924.803 -4.1519 -1.73024 0
M  V30 10099 C 926.122 -2.84511 -3.3577 0
M  V30 10100 H 923.241 -0.57637 -0.459311 0
M  V30 10101 H 925.883 -1.81353 -0.566658 0
M  V30 10102 H 924.033 -2.54105 -2.93876 0
M  V30 10103 H 925.705 -4.46167 -1.17186 0
M  V30 10104 H 923.948 -4.21279 -1.03473 0
M  V30 10105 H 924.619 -4.91683 -2.50903 0
M  V30 10106 H 927.095 -3.0222 -2.86011 0
M  V30 10107 H 925.971 -3.6684 -4.08313 0
M  V30 10108 H 926.232 -1.93471 -3.97519 0
M  V30 10109 N 925.291 0.760815 -1.38019 0
M  V30 10110 C 926.568 1.5098 -1.24356 0
M  V30 10111 C 926.948 2.10507 0.158169 0
M  V30 10112 O 926.296 1.96455 1.16695 0
M  V30 10113 C 926.506 2.58195 -2.34811 0
M  V30 10114 C 927.854 3.25297 -2.72886 0
M  V30 10115 O 928.878 2.68496 -2.34069 0
M  V30 10116 O 927.737 4.28018 -3.39799 0
M  V30 10117 H 924.831 0.66921 -0.485888 0
M  V30 10118 H 927.377 0.796844 -1.49828 0
M  V30 10119 H 926.149 2.12406 -3.28633 0
M  V30 10120 H 925.772 3.37079 -2.10864 0
M  V30 10121 N 926.769 1.22769 0.988202 0
M  V30 10122 C 928.046 0.9635 1.70223 0
M  V30 10123 C 928.426 -0.520102 2.04593 0
M  V30 10124 O 927.774 -1.48934 1.73295 0
M  V30 10125 C 927.984 1.86583 2.94937 0
M  V30 10126 C 929.332 2.12469 3.67616 0
M  V30 10127 O 930.356 1.84069 3.04954 0
M  V30 10128 O 929.215 2.60595 4.80367 0
M  V30 10129 H 926.309 0.362737 0.743203 0
M  V30 10130 H 928.855 1.33776 1.04412 0
M  V30 10131 H 927.627 2.86913 2.66077 0
M  V30 10132 H 927.25 1.49344 3.68486 0
M  V30 10133 N 928.247 -1.18576 1.03814 0
M  V30 10134 C 929.177 -2.24334 0.647795 0
M  V30 10135 C 930.158 -1.66508 -0.34774 0
M  V30 10136 O 931.343 -1.92852 -0.228401 0
M  V30 10137 C 928.473 -3.47299 0.00734922 0
M  V30 10138 C 927.427 -4.17859 0.926152 0
M  V30 10139 C 926.753 -5.34489 0.150317 0
M  V30 10140 C 928.053 -4.71632 2.24411 0
M  V30 10141 H 929.747 -2.57241 1.53191 0
M  V30 10142 H 927.293 -1.23649 0.738028 0
M  V30 10143 H 929.246 -4.20486 -0.277434 0
M  V30 10144 H 927.97 -3.13619 -0.911626 0
M  V30 10145 H 926.629 -3.46567 1.19528 0
M  V30 10146 H 926.277 -4.97056 -0.770985 0
M  V30 10147 H 925.977 -5.82633 0.762407 0
M  V30 10148 H 927.501 -6.10467 -0.127508 0
M  V30 10149 H 928.915 -5.36526 2.02021 0
M  V30 10150 H 927.312 -5.303 2.80894 0
M  V30 10151 H 928.382 -3.89192 2.89236 0
M  V30 10152 N 929.725 -0.817259 -1.34754 0
M  V30 10153 C 930.655 -0.249769 -2.3216 0
M  V30 10154 C 931.636 0.630663 -1.57977 0
M  V30 10155 O 932.821 0.558719 -1.85989 0
M  V30 10156 C 929.951 0.593825 -3.42186 0
M  V30 10157 C 928.905 -0.188997 -4.27583 0
M  V30 10158 C 928.231 0.776979 -5.29025 0
M  V30 10159 C 929.531 -1.39401 -5.03354 0
M  V30 10160 H 931.225 -1.06359 -2.79872 0
M  V30 10161 H 928.771 -0.512894 -1.34556 0
M  V30 10162 H 930.724 1.00097 -4.09339 0
M  V30 10163 H 929.448 1.44064 -2.93109 0
M  V30 10164 H 928.107 -0.577445 -3.62024 0
M  V30 10165 H 927.755 1.61959 -4.76212 0
M  V30 10166 H 927.455 0.257448 -5.87036 0
M  V30 10167 H 928.979 1.18211 -5.99048 0
M  V30 10168 H 930.393 -1.06117 -5.63393 0
M  V30 10169 H 928.79 -1.84878 -5.70912 0
M  V30 10170 H 929.86 -2.17515 -4.33377 0
M  V30 10171 N 931.203 1.46865 -0.571711 0
M  V30 10172 C 932.451 2.0203 -0.0530022 0
M  V30 10173 C 932.772 1.44687 1.30731 0
M  V30 10174 O 932.042 0.627429 1.85581 0
M  V30 10175 H 930.622 0.746815 -0.0166035 0
M  V30 10176 H 933.284 1.80099 -0.745003 0
M  V30 10177 H 932.38 3.12091 0.0242538 0
M  V30 10178 N 932.681 0.308908 1.54543 0
M  V30 10179 C 933.613 -0.597453 2.21276 0
M  V30 10180 C 934.626 -1.09137 1.20801 0
M  V30 10181 O 935.815 -1.00747 1.47351 0
M  V30 10182 C 932.915 -1.83085 2.85189 0
M  V30 10183 C 932.088 -1.4781 4.11669 0
M  V30 10184 C 931.147 -2.56748 4.59311 0
M  V30 10185 O 930.173 -2.21507 5.24331 0
M  V30 10186 N 931.375 -3.87427 4.32297 0
M  V30 10187 H 934.14 -0.0261183 2.99689 0
M  V30 10188 H 931.701 0.131456 1.61365 0
M  V30 10189 H 933.693 -2.55326 3.13992 0
M  V30 10190 H 932.263 -2.31039 2.1057 0
M  V30 10191 H 931.483 -0.587974 3.8979 0
M  V30 10192 H 932.771 -1.2179 4.94009 0
M  V30 10193 H 932.169 -4.18863 3.80224 0
M  V30 10194 H 930.726 -4.55942 4.6579 0
M  V30 10195 N 934.159 -1.57557 0.0367827 0
M  V30 10196 C 935.436 -1.83427 -0.679261 0
M  V30 10197 C 935.816 -0.922274 -1.89888 0
M  V30 10198 O 935.164 0.02025 -2.28491 0
M  V30 10199 C 935.374 -3.32823 -1.05022 0
M  V30 10200 C 936.722 -3.99486 -1.43861 0
M  V30 10201 O 937.746 -3.37364 -1.14297 0
M  V30 10202 O 936.605 -5.0899 -1.98977 0
M  V30 10203 H 933.699 -0.756581 -0.333936 0
M  V30 10204 H 936.245 -1.69575 0.0650494 0
M  V30 10205 H 935.017 -3.90874 -0.182509 0
M  V30 10206 H 934.64 -3.5181 -1.85244 0
M  V30 10207 N 935.637 0.236453 -1.55816 0
M  V30 10208 C 936.914 0.986463 -1.68903 0
M  V30 10209 C 937.294 2.02984 -0.579722 0
M  V30 10210 O 936.642 2.24693 0.415389 0
M  V30 10211 C 936.852 1.61038 -3.09625 0
M  V30 10212 C 938.2 2.10829 -3.6856 0
M  V30 10213 O 939.224 1.7096 -3.12492 0
M  V30 10214 O 938.083 2.84064 -4.66873 0
M  V30 10215 H 935.177 0.459837 -0.687371 0
M  V30 10216 H 937.723 0.229412 -1.68142 0
M  V30 10217 H 936.495 0.856232 -3.81817 0
M  V30 10218 H 936.118 2.43336 -3.14441 0
M  V30 10219 N 937.115 1.49373 0.502552 0
M  V30 10220 C 938.364 1.58028 1.25339 0
M  V30 10221 C 938.677 0.271494 1.93707 0
M  V30 10222 O 939.883 0.236584 2.70467 0
M  V30 10223 C 938.339 2.78817 2.27572 0
M  V30 10224 C 937.947 4.16448 1.65151 0
M  V30 10225 C 939.691 2.96802 3.03494 0
M  V30 10226 C 937.598 5.28461 2.65486 0
M  V30 10227 H 936.528 0.588396 0.471494 0
M  V30 10228 H 939.179 1.75756 0.52744 0
M  V30 10229 H 937.561 2.5458 3.03323 0
M  V30 10230 H 938.735 4.50816 0.954029 0
M  V30 10231 H 937.05 4.03809 1.01625 0
M  V30 10232 H 939.647 3.77656 3.78524 0
M  V30 10233 H 939.99 2.07303 3.61014 0
M  V30 10234 H 940.523 3.21071 2.34858 0
M  V30 10235 H 937.262 6.20015 2.12749 0
M  V30 10236 H 936.782 4.9855 3.33479 0
M  V30 10237 H 938.461 5.5773 3.27943 0
M  V30 10238 N 938.594 -0.753485 1.38421 0
M  V30 10239 C 939.84 -1.51485 1.34834 0
M  V30 10240 C 940.173 -1.94102 -0.0615381 0
M  V30 10241 O 939.448 -1.65439 -1.02274 0
M  V30 10242 C 939.731 -2.76736 2.30411 0
M  V30 10243 C 939.584 -2.40256 3.80259 0
M  V30 10244 C 940.903 -3.7876 2.24119 0
M  V30 10245 H 938.022 -0.549534 0.491102 0
M  V30 10246 H 940.664 -0.863006 1.6927 0
M  V30 10247 H 938.814 -3.32357 2.01175 0
M  V30 10248 H 940.486 -1.90409 4.20169 0
M  V30 10249 H 938.729 -1.72714 3.97935 0
M  V30 10250 H 939.4 -3.29869 4.42595 0
M  V30 10251 H 941.876 -3.32679 2.49928 0
M  V30 10252 H 940.752 -4.64092 2.93104 0
M  V30 10253 H 941.013 -4.24352 1.24006 0
M  V30 10254 N 940.072 -1.23292 -0.981677 0
M  V30 10255 C 941.321 -1.05832 -1.71705 0
M  V30 10256 C 941.634 0.40514 -1.91358 0
M  V30 10257 O 942.84 0.699645 -2.6233 0
M  V30 10258 C 941.296 -1.84532 -3.08992 0
M  V30 10259 C 940.904 -3.35199 -2.9723 0
M  V30 10260 C 942.648 -1.75557 -3.86497 0
M  V30 10261 C 940.555 -4.06296 -4.29741 0
M  V30 10262 H 939.485 -0.39241 -0.64384 0
M  V30 10263 H 942.136 -1.47247 -1.09502 0
M  V30 10264 H 940.518 -1.35923 -3.71942 0
M  V30 10265 H 941.692 -3.91286 -2.43377 0
M  V30 10266 H 940.007 -3.44973 -2.332 0
M  V30 10267 H 942.604 -2.25989 -4.84596 0
M  V30 10268 H 942.947 -0.718101 -4.1006 0
M  V30 10269 H 943.48 -2.21771 -3.30246 0
M  V30 10270 H 940.219 -5.10344 -4.11375 0
M  V30 10271 H 939.739 -3.54997 -4.83464 0
M  V30 10272 H 941.418 -4.12519 -4.98434 0
M  V30 10273 N 941.55 1.18024 -1.04442 0
M  V30 10274 C 942.497 2.21785 -0.638759 0
M  V30 10275 C 943.467 1.62255 0.355312 0
M  V30 10276 O 944.652 1.89176 0.24844 0
M  V30 10277 C 941.792 3.45098 -0.0118002 0
M  V30 10278 C 940.905 4.1895 -1.05379 0
M  V30 10279 C 940.04 5.2973 -0.394951 0
M  V30 10280 C 939.079 5.95359 -1.42178 0
M  V30 10281 N 938.216 6.97668 -0.787635 0
M  V30 10282 H 943.056 2.55839 -1.52808 0
M  V30 10283 H 940.593 1.25681 -0.764378 0
M  V30 10284 H 942.551 4.15564 0.369075 0
M  V30 10285 H 941.181 3.11652 0.84102 0
M  V30 10286 H 940.233 3.47274 -1.55258 0
M  V30 10287 H 941.545 4.63877 -1.83355 0
M  V30 10288 H 940.699 6.06687 0.0399244 0
M  V30 10289 H 939.438 4.85915 0.416867 0
M  V30 10290 H 938.443 5.17139 -1.86675 0
M  V30 10291 H 939.668 6.41255 -2.23536 0
M  V30 10292 H 937.614 6.56 0.00380893 0
M  V30 10293 H 937.531 7.40867 -1.50505 0
M  V30 10294 H 938.799 7.78586 -0.377282 0
M  V30 10295 N 943.028 0.824394 1.34319 0
M  V30 10296 C 944.253 0.425194 2.02995 0
M  V30 10297 C 944.678 -0.961476 1.6167 0
M  V30 10298 O 944.036 -1.62593 0.80207 0
M  V30 10299 C 944.084 0.537004 3.56579 0
M  V30 10300 O 943.188 -0.442576 4.10018 0
M  V30 10301 H 942.529 0.174853 0.640564 0
M  V30 10302 H 945.059 1.11522 1.71534 0
M  V30 10303 H 945.069 0.413311 4.05901 0
M  V30 10304 H 943.744 1.54836 3.86004 0
M  V30 10305 H 942.321 -0.277644 3.71865 0
M  V30 10306 N 944.506 -1.46559 0.579492 0
M  V30 10307 C 945.436 -2.33059 -0.143437 0
M  V30 10308 C 946.417 -1.4515 -0.886868 0
M  V30 10309 O 947.602 -1.73973 -0.862961 0
M  V30 10310 C 944.732 -3.27364 -1.15973 0
M  V30 10311 C 943.686 -4.24689 -0.531348 0
M  V30 10312 C 943.012 -5.08479 -1.65388 0
M  V30 10313 C 944.312 -5.1961 0.529391 0
M  V30 10314 H 946.006 -2.93753 0.578762 0
M  V30 10315 H 943.552 -1.41256 0.279775 0
M  V30 10316 H 945.505 -3.86732 -1.67382 0
M  V30 10317 H 944.229 -2.64771 -1.91217 0
M  V30 10318 H 942.888 -3.6658 -0.0383749 0
M  V30 10319 H 942.536 -4.42273 -2.3959 0
M  V30 10320 H 942.236 -5.74387 -1.23909 0
M  V30 10321 H 943.76 -5.70709 -2.17079 0
M  V30 10322 H 945.174 -5.73212 0.100506 0
M  V30 10323 H 943.571 -5.93843 0.86432 0
M  V30 10324 H 944.641 -4.63737 1.4169 0
M  V30 10325 N 945.984 -0.3171 -1.54377 0
M  V30 10326 C 947.232 0.286842 -2.00054 0
M  V30 10327 C 947.553 1.53161 -1.20692 0
M  V30 10328 O 946.823 1.93479 -0.307045 0
M  V30 10329 H 945.403 0.108979 -0.739008 0
M  V30 10330 H 948.065 -0.432152 -1.90049 0
M  V30 10331 H 947.161 0.547729 -3.07256 0
M  V30 10332 N 947.462 1.57535 -0.0451378 0
M  V30 10333 C 948.409 2.11176 0.931313 0
M  V30 10334 C 949.379 1.01765 1.31275 0
M  V30 10335 O 950.564 1.29279 1.40327 0
M  V30 10336 C 947.704 2.65639 2.20295 0
M  V30 10337 C 946.817 3.89114 1.87654 0
M  V30 10338 C 945.952 4.31914 3.09232 0
M  V30 10339 C 944.991 5.48105 2.72484 0
M  V30 10340 N 944.128 5.85986 3.86736 0
M  V30 10341 H 948.968 2.94318 0.466986 0
M  V30 10342 H 946.505 1.45462 0.218886 0
M  V30 10343 H 948.463 2.95312 2.94697 0
M  V30 10344 H 947.093 1.85303 2.64316 0
M  V30 10345 H 946.145 3.6607 1.03427 0
M  V30 10346 H 947.457 4.7358 1.56601 0
M  V30 10347 H 946.611 4.63108 3.91939 0
M  V30 10348 H 945.35 3.46247 3.43459 0
M  V30 10349 H 944.355 5.16589 1.88192 0
M  V30 10350 H 945.58 6.35482 2.39455 0
M  V30 10351 H 943.526 5.03273 4.20775 0
M  V30 10352 H 943.443 6.65129 3.5936 0
M  V30 10353 H 944.711 6.21793 4.701 0
M  V30 10354 N 948.94 -0.228186 1.55939 0
M  V30 10355 C 950.186 -0.954964 1.78909 0
M  V30 10356 C 950.519 -1.8425 0.613648 0
M  V30 10357 O 949.794 -1.90604 -0.38737 0
M  V30 10358 C 950.077 -1.79957 3.1191 0
M  V30 10359 C 949.93 -0.938968 4.3989 0
M  V30 10360 C 951.249 -2.77859 3.41295 0
M  V30 10361 H 948.368 -0.345745 0.650868 0
M  V30 10362 H 951.01 -0.224244 1.88672 0
M  V30 10363 H 949.16 -2.42256 3.03717 0
M  V30 10364 H 950.832 -0.333225 4.60095 0
M  V30 10365 H 949.075 -0.244096 4.33113 0
M  V30 10366 H 949.746 -1.56416 5.29375 0
M  V30 10367 H 952.222 -2.25695 3.49572 0
M  V30 10368 H 951.098 -3.34062 4.35538 0
M  V30 10369 H 951.359 -3.55266 2.63132 0
M  V30 10370 N 950.418 -1.49637 -0.494624 0
M  V30 10371 C 951.665 -1.59445 -1.24834 0
M  V30 10372 C 951.993 -0.284028 -1.92415 0
M  V30 10373 O 951.248 0.728519 -1.81634 0
M  V30 10374 C 951.547 -2.70749 -2.33302 0
M  V30 10375 C 951.213 -4.12034 -1.83135 0
M  V30 10376 C 949.875 -4.50482 -1.69173 0
M  V30 10377 C 952.227 -5.00432 -1.4566 0
M  V30 10378 C 949.555 -5.75093 -1.16124 0
M  V30 10379 C 951.907 -6.25568 -0.940608 0
M  V30 10380 C 950.571 -6.62839 -0.787432 0
M  V30 10381 H 949.841 -0.583451 -0.456799 0
M  V30 10382 H 952.488 -1.8349 -0.548044 0
M  V30 10383 H 950.793 -2.407 -3.09145 0
M  V30 10384 H 952.49 -2.75546 -2.91334 0
M  V30 10385 H 949.08 -3.8169 -1.94964 0
M  V30 10386 H 953.264 -4.71379 -1.55291 0
M  V30 10387 H 948.52 -6.02665 -1.02982 0
M  V30 10388 H 952.694 -6.93439 -0.641467 0
M  V30 10389 H 950.321 -7.59279 -0.374191 0
M  V30 10390 N 951.896 0.746133 -1.38819 0
M  V30 10391 C 953.121 1.54049 -1.38866 0
M  V30 10392 C 953.546 1.88092 0.0176624 0
M  V30 10393 O 952.904 1.51113 1.00173 0
M  V30 10394 C 952.952 2.8116 -2.25791 0
M  V30 10395 O 952.056 3.76623 -1.68014 0
M  V30 10396 H 951.397 0.465648 -0.473359 0
M  V30 10397 H 953.927 0.921469 -1.82675 0
M  V30 10398 H 953.937 3.30009 -2.39913 0
M  V30 10399 H 952.612 2.55713 -3.27999 0
M  V30 10400 H 951.189 3.35352 -1.63074 0
M  V30 10401 N 953.375 1.23811 0.975125 0
M  V30 10402 C 954.285 1.0408 2.10249 0
M  V30 10403 C 955.301 -0.0162404 1.73992 0
M  V30 10404 O 956.477 0.180346 2.00591 0
M  V30 10405 C 953.542 0.640013 3.40741 0
M  V30 10406 C 952.603 1.7727 3.90991 0
M  V30 10407 C 951.836 1.39094 5.15256 0
M  V30 10408 O 952.059 0.277483 5.69725 0
M  V30 10409 O 950.993 2.21392 5.59704 0
M  V30 10410 H 954.819 1.98575 2.29786 0
M  V30 10411 H 952.404 1.02563 1.08633 0
M  V30 10412 H 954.286 0.427684 4.19224 0
M  V30 10413 H 952.961 -0.27589 3.22522 0
M  V30 10414 H 951.868 2.03971 3.13602 0
M  V30 10415 H 953.201 2.66711 4.13674 0
M  V30 10416 N 954.853 -1.17469 1.05066 0
M  V30 10417 C 956.099 -1.87976 0.761113 0
M  V30 10418 C 956.432 -1.80756 -0.709995 0
M  V30 10419 O 955.707 -1.21469 -1.51906 0
M  V30 10420 C 955.99 -3.38055 1.2406 0
M  V30 10421 C 955.843 -3.54032 2.77455 0
M  V30 10422 C 957.162 -4.32036 0.838612 0
M  V30 10423 H 954.281 -0.682573 0.277963 0
M  V30 10424 H 956.923 -1.38147 1.30443 0
M  V30 10425 H 955.073 -3.80622 0.778388 0
M  V30 10426 H 956.745 -3.20489 3.3179 0
M  V30 10427 H 954.988 -2.96352 3.16793 0
M  V30 10428 H 955.659 -4.59377 3.06066 0
M  V30 10429 H 958.135 -3.97303 1.23651 0
M  V30 10430 H 957.011 -5.35583 1.20173 0
M  V30 10431 H 957.272 -4.41349 -0.257498 0
M  V30 10432 N 956.331 -0.831506 -1.3388 0
M  V30 10433 C 957.278 -0.257449 -2.2936 0
M  V30 10434 C 958.248 0.622604 -1.5399 0
M  V30 10435 O 959.433 0.562432 -1.82322 0
M  V30 10436 C 956.573 0.567587 -3.404 0
M  V30 10437 C 955.686 -0.335666 -4.30694 0
M  V30 10438 C 954.821 0.499762 -5.28844 0
M  V30 10439 C 953.86 -0.402343 -6.10776 0
M  V30 10440 N 952.997 0.39452 -7.00991 0
M  V30 10441 H 957.837 -1.077 -2.77857 0
M  V30 10442 H 955.374 -0.542589 -1.36727 0
M  V30 10443 H 957.332 1.06133 -4.03474 0
M  V30 10444 H 955.962 1.35217 -2.93115 0
M  V30 10445 H 955.014 -0.94768 -3.68406 0
M  V30 10446 H 956.326 -1.02896 -4.88072 0
M  V30 10447 H 955.48 1.05763 -5.9741 0
M  V30 10448 H 954.219 1.22652 -4.72025 0
M  V30 10449 H 953.224 -0.972288 -5.41135 0
M  V30 10450 H 954.449 -1.12735 -6.69677 0
M  V30 10451 H 952.395 1.1048 -6.4663 0
M  V30 10452 H 952.312 -0.240209 -7.55618 0
M  V30 10453 H 953.58 0.934867 -7.73874 0
M  V30 10454 N 957.809 1.4625 -0.587256 0
M  V30 10455 C 958.719 2.34147 0.145744 0
M  V30 10456 C 959.735 1.50026 0.881376 0
M  V30 10457 O 960.911 1.82884 0.843539 0
M  V30 10458 C 957.976 3.27294 1.14366 0
M  V30 10459 C 957.037 4.27317 0.412199 0
M  V30 10460 C 956.27 5.16013 1.36257 0
M  V30 10461 O 956.493 5.0773 2.59934 0
M  V30 10462 O 955.427 5.95569 0.870681 0
M  V30 10463 H 959.253 2.98187 -0.576055 0
M  V30 10464 H 956.838 1.45299 -0.347628 0
M  V30 10465 H 958.72 3.84747 1.71894 0
M  V30 10466 H 957.395 2.65845 1.84684 0
M  V30 10467 H 956.302 3.73538 -0.205036 0
M  V30 10468 H 957.635 4.91564 -0.250104 0
M  V30 10469 N 959.287 0.325282 1.54207 0
M  V30 10470 C 960.534 -0.276775 2.006 0
M  V30 10471 C 960.862 -1.52007 1.21343 0
M  V30 10472 O 960.117 -1.93627 0.284104 0
M  V30 10473 C 960.416 -0.654292 3.5136 0
M  V30 10474 C 960.082 0.490023 4.48229 0
M  V30 10475 C 958.744 0.804104 4.74434 0
M  V30 10476 C 961.096 1.2586 5.05775 0
M  V30 10477 C 958.424 1.88945 5.55443 0
M  V30 10478 C 960.776 2.33405 5.87967 0
M  V30 10479 C 959.44 2.65393 6.12473 0
M  V30 10480 H 958.71 -0.101279 0.734046 0
M  V30 10481 H 961.357 0.449416 1.86152 0
M  V30 10482 H 959.662 -1.46093 3.63544 0
M  V30 10483 H 961.359 -1.13171 3.84699 0
M  V30 10484 H 957.949 0.235147 4.27954 0
M  V30 10485 H 962.133 1.02921 4.85511 0
M  V30 10486 H 957.389 2.14174 5.7266 0
M  V30 10487 H 961.563 2.93402 6.31576 0
M  V30 10488 H 959.19 3.49622 6.75032 0
M  V30 10489 N 960.765 -1.57509 0.0534917 0
M  V30 10490 C 961.99 -1.97511 -0.632794 0
M  V30 10491 C 962.415 -0.930947 -1.63447 0
M  V30 10492 O 961.773 0.105558 -1.80992 0
M  V30 10493 C 961.821 -3.3658 -1.29407 0
M  V30 10494 O 960.925 -3.3467 -2.40977 0
M  V30 10495 H 960.266 -0.643349 -0.16431 0
M  V30 10496 H 962.796 -2.04232 0.12258 0
M  V30 10497 H 962.806 -3.73359 -1.64521 0
M  V30 10498 H 961.481 -4.12113 -0.559976 0
M  V30 10499 H 960.058 -3.09639 -2.07793 0
M  V30 10500 N 962.243 0.219913 -1.56058 0
M  V30 10501 C 963.491 0.942199 -1.78793 0
M  V30 10502 C 963.812 1.84804 -0.622284 0
M  V30 10503 O 963.082 1.9255 0.360735 0
M  V30 10504 H 961.662 0.350895 -0.659455 0
M  V30 10505 H 964.324 0.231376 -1.93522 0
M  V30 10506 H 963.42 1.54804 -2.71002 0
M  V30 10507 N 963.721 1.49897 0.486681 0
M  V30 10508 C 964.684 1.67086 1.56891 0
M  V30 10509 C 965.684 0.54209 1.51387 0
M  V30 10510 O 966.874 0.80883 1.54284 0
M  V30 10511 C 964.006 1.68159 2.96539 0
M  V30 10512 H 965.199 2.63626 1.42974 0
M  V30 10513 H 962.752 1.39143 0.711954 0
M  V30 10514 H 963.487 0.732562 3.15918 0
M  V30 10515 H 963.272 2.50147 3.01942 0
M  V30 10516 H 964.762 1.83466 3.7514 0
M  V30 10517 N 965.199 -0.738761 1.39212 0
M  V30 10518 C 966.162 -1.83441 1.37412 0
M  V30 10519 C 967.162 -1.58484 0.271908 0
M  V30 10520 O 968.352 -1.65954 0.529609 0
M  V30 10521 C 965.484 -3.21167 1.143 0
M  V30 10522 H 966.677 -1.86441 2.34904 0
M  V30 10523 H 964.23 -0.942023 1.24722 0
M  V30 10524 H 964.965 -3.23829 0.174756 0
M  V30 10525 H 964.75 -3.40678 1.94116 0
M  V30 10526 H 966.24 -4.01231 1.15773 0
M  V30 10527 N 966.677 -1.24326 -0.968545 0
M  V30 10528 C 967.926 -1.07647 -1.70572 0
M  V30 10529 C 968.239 0.384821 -1.91777 0
M  V30 10530 O 969.445 0.671782 -2.63058 0
M  V30 10531 C 967.901 -1.87799 -3.07017 0
M  V30 10532 C 967.509 -3.38333 -2.93658 0
M  V30 10533 C 969.253 -1.79647 -3.84613 0
M  V30 10534 C 967.16 -4.10831 -4.25407 0
M  V30 10535 H 966.09 -0.399216 -0.639642 0
M  V30 10536 H 968.741 -1.484 -1.07934 0
M  V30 10537 H 967.123 -1.3986 -3.7048 0
M  V30 10538 H 968.297 -3.93845 -2.39213 0
M  V30 10539 H 966.612 -3.47427 -2.29528 0
M  V30 10540 H 969.209 -2.31116 -4.82172 0
M  V30 10541 H 969.552 -0.761553 -4.09275 0
M  V30 10542 H 970.085 -2.25261 -3.27875 0
M  V30 10543 H 966.824 -5.14679 -4.05939 0
M  V30 10544 H 966.344 -3.60105 -4.79671 0
M  V30 10545 H 968.023 -4.17783 -4.94031 0
M  V30 10546 N 968.156 1.1691 -1.05688 0
M  V30 10547 C 969.086 2.23275 -0.683402 0
M  V30 10548 C 970.067 1.6704 0.321206 0
M  V30 10549 O 971.252 1.93191 0.197691 0
M  V30 10550 C 968.382 3.47244 -0.0626006 0
M  V30 10551 C 967.336 4.16333 -0.992513 0
M  V30 10552 C 966.662 5.34182 -0.23533 0
M  V30 10553 C 967.962 4.68002 -2.31886 0
M  V30 10554 H 969.656 2.54771 -1.57264 0
M  V30 10555 H 967.202 1.2246 -0.757606 0
M  V30 10556 H 969.155 4.20874 0.210503 0
M  V30 10557 H 967.879 3.1503 0.861616 0
M  V30 10558 H 966.538 3.44622 -1.25026 0
M  V30 10559 H 966.186 4.9822 0.69181 0
M  V30 10560 H 965.886 5.81346 -0.855002 0
M  V30 10561 H 967.41 6.10592 0.0303717 0
M  V30 10562 H 968.824 5.33244 -2.10531 0
M  V30 10563 H 967.221 5.25764 -2.89296 0
M  V30 10564 H 968.291 3.84541 -2.95391 0
M  V30 10565 N 969.634 0.838594 1.33437 0
M  V30 10566 C 970.882 0.433312 1.974 0
M  V30 10567 C 971.203 -1.01078 1.66758 0
M  V30 10568 O 970.473 -1.70406 0.966373 0
M  V30 10569 H 969.053 0.15724 0.730263 0
M  V30 10570 H 971.715 1.07149 1.62804 0
M  V30 10571 H 970.811 0.565144 3.06941 0
M  V30 10572 N 971.112 -1.45937 0.595003 0
M  V30 10573 C 972.389 -1.95592 0.0178748 0
M  V30 10574 C 972.769 -1.53758 -1.44643 0
M  V30 10575 O 972.117 -0.794104 -2.14257 0
M  V30 10576 C 972.327 -3.4841 0.202789 0
M  V30 10577 C 973.675 -4.2453 0.0770121 0
M  V30 10578 O 974.699 -3.55954 0.132257 0
M  V30 10579 O 973.558 -5.46479 -0.0484271 0
M  V30 10580 H 970.652 -0.825888 -0.0428702 0
M  V30 10581 H 973.198 -1.56162 0.664184 0
M  V30 10582 H 971.97 -3.71787 1.22027 0
M  V30 10583 H 971.593 -3.947 -0.479376 0
M  V30 10584 N 972.59 -0.333456 -1.54032 0
M  V30 10585 C 973.838 0.265608 -2.00347 0
M  V30 10586 C 974.159 1.51873 -1.2231 0
M  V30 10587 O 973.429 1.93142 -0.327549 0
M  V30 10588 H 972.009 0.101135 -0.740122 0
M  V30 10589 H 974.671 -0.452285 -1.8958 0
M  V30 10590 H 973.767 0.51511 -3.0782 0
M  V30 10591 N 974.068 1.57479 -0.061844 0
M  V30 10592 C 975.293 1.97843 0.622311 0
M  V30 10593 C 975.718 0.939602 1.62951 0
M  V30 10594 O 975.076 -0.095958 1.81046 0
M  V30 10595 C 975.124 3.37262 1.2762 0
M  V30 10596 O 974.228 3.35943 2.39199 0
M  V30 10597 H 973.569 0.644212 0.160896 0
M  V30 10598 H 976.099 2.04165 -0.133409 0
M  V30 10599 H 976.109 3.74226 1.62539 0
M  V30 10600 H 974.784 4.12404 0.538112 0
M  V30 10601 H 973.361 3.10737 2.06148 0
M  V30 10602 N 975.546 -0.211634 1.56173 0
M  V30 10603 C 976.795 -0.932647 1.78842 0
M  V30 10604 C 977.108 -1.85103 0.63217 0
M  V30 10605 O 978.314 -2.61143 0.742746 0
M  V30 10606 C 976.77 -1.70866 3.16753 0
M  V30 10607 C 976.378 -0.835934 4.40132 0
M  V30 10608 C 978.122 -2.4203 3.48743 0
M  V30 10609 C 976.029 -1.60987 5.69067 0
M  V30 10610 H 974.959 -0.351983 0.666801 0
M  V30 10611 H 977.61 -0.186284 1.82552 0
M  V30 10612 H 975.992 -2.4983 3.07247 0
M  V30 10613 H 977.166 -0.0861298 4.60719 0
M  V30 10614 H 975.481 -0.235941 4.15731 0
M  V30 10615 H 978.078 -3.00453 4.42303 0
M  V30 10616 H 978.421 -3.15406 2.71707 0
M  V30 10617 H 978.954 -1.70048 3.59623 0
M  V30 10618 H 975.693 -0.9192 6.49023 0
M  V30 10619 H 975.213 -2.33403 5.52524 0
M  V30 10620 H 976.892 -2.16798 6.09596 0
M  V30 10621 N 977.024 -1.50153 -0.478725 0
M  V30 10622 C 977.987 -1.67916 -1.56003 0
M  V30 10623 C 978.987 -0.550111 -1.51097 0
M  V30 10624 O 980.177 -0.817001 -1.53853 0
M  V30 10625 C 977.309 -1.6973 -2.95643 0
M  V30 10626 H 978.502 -2.6438 -1.41573 0
M  V30 10627 H 976.055 -1.39519 -0.704565 0
M  V30 10628 H 976.79 -0.749306 -3.15525 0
M  V30 10629 H 976.575 -2.51745 -3.00611 0
M  V30 10630 H 978.065 -1.85453 -3.74162 0
M  V30 10631 N 978.502 0.731368 -1.39602 0
M  V30 10632 C 979.432 1.85855 -1.41351 0
M  V30 10633 C 980.413 1.67839 -0.2764 0
M  V30 10634 O 981.598 1.88104 -0.482747 0
M  V30 10635 C 978.728 3.23644 -1.25983 0
M  V30 10636 C 977.682 3.56304 -2.37132 0
M  V30 10637 C 977.008 4.93069 -2.0685 0
M  V30 10638 C 978.308 3.58906 -3.79452 0
M  V30 10639 H 980.002 1.84648 -2.3568 0
M  V30 10640 H 977.548 0.886955 -1.13442 0
M  V30 10641 H 979.501 4.02176 -1.25826 0
M  V30 10642 H 978.225 3.25387 -0.281234 0
M  V30 10643 H 976.884 2.80104 -2.36511 0
M  V30 10644 H 976.532 4.91396 -1.0742 0
M  V30 10645 H 976.232 5.15888 -2.81306 0
M  V30 10646 H 977.756 5.73953 -2.0835 0
M  V30 10647 H 979.17 4.27508 -3.81982 0
M  V30 10648 H 977.567 3.93246 -4.53297 0
M  V30 10649 H 978.637 2.58631 -4.10168 0
M  V30 10650 N 979.98 1.24838 0.961938 0
M  V30 10651 C 981.229 1.0855 1.69999 0
M  V30 10652 C 981.542 -0.374645 1.91979 0
M  V30 10653 O 982.748 -0.657822 2.6341 0
M  V30 10654 C 981.204 1.89424 3.06017 0
M  V30 10655 C 980.812 3.39885 2.9186 0
M  V30 10656 C 982.556 1.81684 3.83655 0
M  V30 10657 C 980.463 4.13082 4.23223 0
M  V30 10658 H 979.393 0.402603 0.637516 0
M  V30 10659 H 982.044 1.4897 1.07146 0
M  V30 10660 H 980.426 1.41823 3.69733 0
M  V30 10661 H 981.6 3.95108 2.37121 0
M  V30 10662 H 979.915 3.4864 2.27683 0
M  V30 10663 H 982.512 2.3367 4.80939 0
M  V30 10664 H 982.855 0.783247 4.08865 0
M  V30 10665 H 983.388 2.26997 3.26676 0
M  V30 10666 H 980.127 5.16824 4.03204 0
M  V30 10667 H 979.647 3.62644 4.77755 0
M  V30 10668 H 981.326 4.20397 4.91808 0
M  V30 10669 N 981.458 -1.16348 1.06306 0
M  V30 10670 C 982.707 -1.8622 0.774909 0
M  V30 10671 C 983.02 -1.82598 -0.701245 0
M  V30 10672 O 984.226 -2.48051 -1.10377 0
M  V30 10673 C 982.682 -3.34182 1.33604 0
M  V30 10674 C 982.29 -3.46279 2.84245 0
M  V30 10675 C 984.034 -4.09309 1.12544 0
M  V30 10676 C 981.941 -4.88327 3.33602 0
M  V30 10677 H 980.871 -0.697574 0.286194 0
M  V30 10678 H 983.522 -1.31311 1.28179 0
M  V30 10679 H 981.904 -3.88698 0.756937 0
M  V30 10680 H 983.078 -3.01923 3.48108 0
M  V30 10681 H 981.393 -2.84585 3.03974 0
M  V30 10682 H 983.99 -5.14123 1.46909 0
M  V30 10683 H 984.333 -4.16251 0.0638129 0
M  V30 10684 H 984.866 -3.61032 1.67034 0
M  V30 10685 H 981.605 -4.86565 4.39244 0
M  V30 10686 H 981.125 -5.33307 2.74487 0
M  V30 10687 H 982.804 -5.57144 3.28937 0
M  V30 10688 N 982.937 -0.845659 -1.3299 0
M  V30 10689 C 983.885 -0.272412 -2.30999 0
M  V30 10690 C 984.879 0.599311 -1.58444 0
M  V30 10691 O 986.085 0.488117 -1.73255 0
M  V30 10692 H 982.46 -0.0693751 -0.748793 0
M  V30 10693 H 984.431 -1.11343 -2.76849 0
M  V30 10694 C 983.18 0.532019 -3.43606 0
M  V30 10695 H 982.503 -0.129455 -3.9959 0
M  V30 10696 H 983.943 0.898853 -4.14363 0
M  V30 10697 C 982.402 1.71364 -2.90062 0
M  V30 10698 O 982.932 2.81252 -2.8681 0
M  V30 10699 N 981.138 1.53775 -2.4658 0
M  V30 10700 H 980.685 0.643836 -2.49424 0
M  V30 10701 H 980.643 2.32982 -2.11108 0
M  V30 10702 N 984.415 1.45619 -0.602734 0
M  V30 10703 C 985.661 2.02572 -0.0961759 0
M  V30 10704 C 985.994 1.47076 1.26815 0
M  V30 10705 O 985.269 0.643566 1.83544 0
M  V30 10706 C 985.552 3.60062 -0.0520032 0
M  V30 10707 C 985.405 4.25901 -1.44665 0
M  V30 10708 C 986.724 4.35446 0.638342 0
M  V30 10709 H 983.843 0.736099 -0.0364238 0
M  V30 10710 H 986.485 1.7353 -0.773776 0
M  V30 10711 H 984.635 3.84936 0.525032 0
M  V30 10712 H 986.307 4.12228 -2.0704 0
M  V30 10713 H 984.55 3.84489 -2.00874 0
M  V30 10714 H 985.221 5.34779 -1.36803 0
M  V30 10715 H 987.697 4.15837 0.147926 0
M  V30 10716 H 986.573 5.45176 0.63834 0
M  V30 10717 H 986.834 4.07962 1.70351 0
M  V30 10718 N 985.893 0.34162 1.53853 0
M  V30 10719 C 987.118 -0.259608 2.05769 0
M  V30 10720 C 987.543 -1.43588 1.21507 0
M  V30 10721 O 986.901 -1.79856 0.228364 0
M  V30 10722 C 986.949 -0.654455 3.54611 0
M  V30 10723 O 986.053 -1.75472 3.73207 0
M  V30 10724 H 985.394 -0.0434621 0.662576 0
M  V30 10725 H 987.924 0.495274 1.98515 0
M  V30 10726 H 987.934 -0.932142 3.97209 0
M  V30 10727 H 986.609 0.205779 4.15391 0
M  V30 10728 H 985.186 -1.47444 3.42512 0
M  V30 10729 N 987.371 -1.57444 0.0701946 0
M  V30 10730 C 988.619 -1.93047 -0.598106 0
M  V30 10731 C 988.94 -0.950841 -1.70247 0
M  V30 10732 O 988.21 0.00127177 -1.959 0
M  V30 10733 H 986.79 -0.712648 -0.223924 0
M  V30 10734 H 989.452 -1.94481 0.127674 0
M  V30 10735 H 988.548 -2.94807 -1.02445 0
M  V30 10736 N 988.849 0.203349 -1.56283 0
M  V30 10737 C 990.098 0.92315 -1.79334 0
M  V30 10738 C 990.411 1.84765 -0.641977 0
M  V30 10739 O 991.617 2.60745 -0.756584 0
M  V30 10740 C 990.073 1.69184 -3.17655 0
M  V30 10741 C 989.681 0.812581 -4.40569 0
M  V30 10742 C 991.425 2.40177 -3.50022 0
M  V30 10743 C 989.332 1.57967 -5.69913 0
M  V30 10744 H 988.262 0.348442 -0.668659 0
M  V30 10745 H 990.913 0.1766 -1.82648 0
M  V30 10746 H 989.295 2.48197 -3.08568 0
M  V30 10747 H 990.469 0.0616956 -4.60759 0
M  V30 10748 H 988.784 0.21389 -4.1585 0
M  V30 10749 H 991.381 2.98103 -4.4389 0
M  V30 10750 H 991.724 3.13961 -2.73376 0
M  V30 10751 H 992.257 1.68138 -3.6052 0
M  V30 10752 H 988.996 0.884767 -6.49501 0
M  V30 10753 H 988.516 2.3047 -5.53754 0
M  V30 10754 H 990.195 2.13562 -6.10737 0
M  V30 10755 N 990.327 1.50405 0.470755 0
M  V30 10756 C 991.573 1.6165 1.22462 0
M  V30 10757 C 991.906 0.316034 1.91611 0
M  V30 10758 O 991.181 -0.682509 1.82132 0
M  V30 10759 C 991.464 2.79702 2.26801 0
M  V30 10760 C 991.317 4.19631 1.61955 0
M  V30 10761 C 992.636 2.93313 3.28109 0
M  V30 10762 H 989.755 0.588345 0.443868 0
M  V30 10763 H 992.397 1.82792 0.518376 0
M  V30 10764 H 990.547 2.61807 2.87036 0
M  V30 10765 H 992.219 4.49117 1.05316 0
M  V30 10766 H 990.462 4.23874 0.922674 0
M  V30 10767 H 991.133 4.98162 2.37779 0
M  V30 10768 H 993.609 3.09697 2.77897 0
M  V30 10769 H 992.485 3.77537 3.98443 0
M  V30 10770 H 992.746 2.03942 3.9225 0
M  V30 10771 O 991.844 -0.616299 1.49278 0
M  V30 10772 H 992.535 -1.27072 1.46193 0
M  V30 END ATOM
M  V30 BEGIN BOND
M  V30 END BOND
M  V30 END CTAB
M  END
$$$$
