drugbank_target|Q56308 Protein-L-isoaspartate O-methyltransferase (DB01752)
 OpenBabel12092120223D

  0  0  0     0  0            999 V3000
M  V30 BEGIN CTAB
M  V30 COUNTS 5134 5194 0 0 0
M  V30 BEGIN ATOM
M  V30 1 H -0.908 1.98254 -0.117106 0
M  V30 2 N 0 1.576 0 0
M  V30 3 C 0.933 2.03868 1.02534 0
M  V30 4 C 1.911 0.928543 1.3348 0
M  V30 5 O 3.095 1.19667 1.45644 0
M  V30 6 C 0.222 2.43627 2.35294 0
M  V30 7 C -0.732 3.65373 2.2001 0
M  V30 8 S 0.101 5.13292 1.52614 0
M  V30 9 C 1.257 5.56322 2.86805 0
M  V30 10 H 1.49 2.90518 0.631377 0
M  V30 11 H -0.977 1.52953 0.210867 0
M  V30 12 H 0.981 2.67203 3.11629 0
M  V30 13 H -0.358 1.57376 2.7183 0
M  V30 14 H -1.165 3.90944 3.18086 0
M  V30 15 H -1.563 3.418 1.51819 0
M  V30 16 H 0.729 5.58782 3.83104 0
M  V30 17 H 1.672 6.56266 2.65933 0
M  V30 18 H 2.08 4.83886 2.90714 0
M  V30 19 N 1.4781 -0.272755 1.55222 0
M  V30 20 C 2.8941 -0.619959 1.47067 0
M  V30 21 C 3.0941 -1.895 0.684978 0
M  V30 22 O 2.1501 -2.51675 0.203931 0
M  V30 23 C 3.4631 -0.746693 2.91282 0
M  V30 24 C 5.0111 -0.840731 3.01497 0
M  V30 25 C 5.4861 -0.99924 4.46967 0
M  V30 26 N 6.9771 -1.06476 4.50796 0
M  V30 27 C 7.7121 -1.20621 5.6057 0
M  V30 28 N 7.2081 -1.31483 6.80209 0
M  V30 29 N 9.0011 -1.23733 5.48312 0
M  V30 30 H 1.1521 0.564606 2.04758 0
M  V30 31 H 3.4151 0.191177 0.928523 0
M  V30 32 H 3.1211 0.119753 3.51496 0
M  V30 33 H 2.9951 -1.6269 3.40311 0
M  V30 34 H 5.3821 -1.69764 2.41379 0
M  V30 35 H 5.4631 0.0640874 2.5572 0
M  V30 36 H 5.1071 -0.146984 5.07687 0
M  V30 37 H 5.0371 -1.91871 4.90401 0
M  V30 38 H 7.5281 -0.993196 3.64615 0
M  V30 39 H 7.8411 -1.42111 7.59621 0
M  V30 40 H 6.1861 -1.28487 6.8302 0
M  V30 41 H 9.3771 -1.14877 4.53785 0
M  V30 42 H 9.5501 -1.34412 6.33906 0
M  V30 43 N 2.9562 -1.48159 -0.537278 0
M  V30 44 C 3.8662 -1.64807 -1.6696 0
M  V30 45 C 4.8822 -0.530651 -1.65711 0
M  V30 46 O 6.0582 -0.800784 -1.84796 0
M  V30 47 C 3.1232 -1.67708 -3.03438 0
M  V30 48 C 2.1842 -2.91025 -3.156 0
M  V30 49 C 1.4172 -2.93778 -4.45567 0
M  V30 50 O 1.6402 -2.05153 -5.3223 0
M  V30 51 O 0.5742 -3.85868 -4.61941 0
M  V30 52 H 4.4002 -2.6066 -1.55853 0
M  V30 53 H 1.9852 -1.31475 -0.709549 0
M  V30 54 H 3.8672 -1.7218 -3.84619 0
M  V30 55 H 2.5422 -0.750278 -3.14885 0
M  V30 56 H 1.4492 -2.92089 -2.33741 0
M  V30 57 H 2.7822 -3.83065 -3.09066 0
M  V30 58 N 4.4343 0.785586 -1.36625 0
M  V30 59 C 5.3813 1.89838 -1.31264 0
M  V30 60 C 6.3513 1.65115 -0.180633 0
M  V30 61 O 7.5363 1.87222 -0.36777 0
M  V30 62 C 4.6763 3.26706 -1.11163 0
M  V30 63 C 3.7893 3.63476 -2.33472 0
M  V30 64 C 2.9243 4.89481 -2.06353 0
M  V30 65 C 1.9633 5.18941 -3.24602 0
M  V30 66 N 1.1003 6.36131 -2.97123 0
M  V30 67 H 5.9403 1.93756 -2.26413 0
M  V30 68 H 3.4773 0.947454 -1.12524 0
M  V30 69 H 5.4353 4.05639 -0.975337 0
M  V30 70 H 4.0653 3.222 -0.196674 0
M  V30 71 H 3.1173 2.79636 -2.57891 0
M  V30 72 H 4.4293 3.81193 -3.21704 0
M  V30 73 H 3.5833 5.76288 -1.89675 0
M  V30 74 H 2.3223 4.73841 -1.15437 0
M  V30 75 H 1.3273 4.30615 -3.41834 0
M  V30 76 H 2.5523 5.36498 -4.16349 0
M  V30 77 H 0.4983 6.21875 -2.08823 0
M  V30 78 H 0.4153 6.54198 -3.78894 0
M  V30 79 H 1.6833 7.2591 -2.84033 0
M  V30 80 N 5.9124 1.20967 1.01018 0
M  V30 81 C 6.8424 0.988272 2.11555 0
M  V30 82 C 7.8234 -0.0849778 1.69888 0
M  V30 83 O 9.0084 0.0738202 1.9406 0
M  V30 84 C 6.1384 0.546528 3.42973 0
M  V30 85 C 5.0924 1.56375 3.9841 0
M  V30 86 C 4.4184 0.97842 5.25672 0
M  V30 87 C 5.7184 2.94922 4.31066 0
M  V30 88 H 7.4124 1.91276 2.30334 0
M  V30 89 H 4.9584 0.921073 1.1069 0
M  V30 90 H 6.9114 0.378839 4.19694 0
M  V30 91 H 5.6354 -0.413598 3.23971 0
M  V30 92 H 4.2944 1.71891 3.23804 0
M  V30 93 H 3.9424 0.0101688 5.02999 0
M  V30 94 H 3.6424 1.65784 5.63728 0
M  V30 95 H 5.1664 0.821939 6.05043 0
M  V30 96 H 6.5804 2.8288 4.9865 0
M  V30 97 H 4.9774 3.5983 4.80253 0
M  V30 98 H 6.0474 3.4616 3.39561 0
M  V30 99 N 7.3905 -1.2043 1.01659 0
M  V30 100 C 8.6375 -1.89797 0.705917 0
M  V30 101 C 8.9655 -1.78848 -0.764439 0
M  V30 102 O 8.2205 -1.16694 -1.57102 0
M  V30 103 C 8.5195 -3.40464 1.08714 0
M  V30 104 C 8.1855 -3.71614 2.5537 0
M  V30 105 C 6.8475 -3.79826 2.95441 0
M  V30 106 C 9.1995 -3.85915 3.50313 0
M  V30 107 C 6.5275 -3.99797 4.29394 0
M  V30 108 C 8.8795 -4.07396 4.83954 0
M  V30 109 C 7.5435 -4.13837 5.23732 0
M  V30 110 H 6.8135 -0.694518 0.258313 0
M  V30 111 H 9.4605 -1.42691 1.27717 0
M  V30 112 H 7.7655 -3.89385 0.434309 0
M  V30 113 H 9.4625 -3.92433 0.824461 0
M  V30 114 H 6.0525 -3.65822 2.23321 0
M  V30 115 H 10.2365 -3.78926 3.20513 0
M  V30 116 H 5.4925 -4.03018 4.59768 0
M  V30 117 H 9.6665 -4.17404 5.57447 0
M  V30 118 H 7.2935 -4.29064 6.27541 0
M  V30 119 N 8.8686 -0.792821 -1.36206 0
M  V30 120 C 10.1146 -0.376415 -1.99887 0
M  V30 121 C 10.4696 1.04127 -1.61788 0
M  V30 122 O 9.7626 1.71004 -0.864193 0
M  V30 123 C 9.9566 -0.481501 -3.54142 0
M  V30 124 C 9.7856 -1.90786 -4.07223 0
M  V30 125 C 8.5556 -2.53322 -4.37214 0
M  V30 126 C 10.7536 -2.87048 -4.26741 0
M  V30 127 N 8.7356 -3.8751 -4.7614 0
M  V30 128 C 10.1066 -4.06077 -4.6851 0
M  V30 129 C 12.1616 -2.8406 -4.08918 0
M  V30 130 C 10.8646 -5.22532 -4.94321 0
M  V30 131 C 12.8906 -3.99705 -4.35878 0
M  V30 132 C 12.2526 -5.1748 -4.77906 0
M  V30 133 H 8.3516 -0.185226 -0.759747 0
M  V30 134 H 10.9356 -1.03114 -1.65153 0
M  V30 135 H 9.1066 0.143154 -3.88136 0
M  V30 136 H 10.8386 -0.0410128 -4.04679 0
M  V30 137 H 7.5936 -2.04777 -4.2704 0
M  V30 138 H 8.0176 -4.5656 -4.99882 0
M  V30 139 H 12.6596 -1.94165 -3.75579 0
M  V30 140 H 10.3776 -6.1301 -5.2654 0
M  V30 141 H 13.9636 -3.98758 -4.23655 0
M  V30 142 H 12.8436 -6.05478 -4.98363 0
M  V30 143 N 10.3467 1.47872 -0.545128 0
M  V30 144 C 11.5957 2.01695 -0.0145033 0
M  V30 145 C 11.9087 1.42609 1.33873 0
M  V30 146 O 13.1147 1.88021 1.95858 0
M  V30 147 C 11.5707 3.59892 0.0245068 0
M  V30 148 C 11.1787 4.27966 -1.32475 0
M  V30 149 C 12.9227 4.21507 0.50316 0
M  V30 150 C 10.8297 5.78136 -1.2455 0
M  V30 151 H 9.7597 0.753998 -0.00165172 0
M  V30 152 H 12.4107 1.69985 -0.691175 0
M  V30 153 H 10.7927 3.88509 0.766575 0
M  V30 154 H 11.9667 4.11003 -2.08357 0
M  V30 155 H 10.2817 3.78286 -1.74036 0
M  V30 156 H 12.8787 5.31538 0.580656 0
M  V30 157 H 13.2217 3.87855 1.51243 0
M  V30 158 H 13.7547 3.97376 -0.183681 0
M  V30 159 H 10.4937 6.16388 -2.23039 0
M  V30 160 H 10.0137 5.97469 -0.528282 0
M  V30 161 H 11.6927 6.40099 -0.942488 0
M  V30 162 N 11.8248 0.280983 1.55075 0
M  V30 163 C 12.7548 -0.597469 2.25727 0
M  V30 164 C 13.7358 -1.15417 1.24952 0
M  V30 165 O 14.9208 -1.18722 1.53684 0
M  V30 166 C 12.0508 -1.7789 2.98283 0
M  V30 167 C 11.0048 -1.35347 4.06036 0
M  V30 168 C 10.3308 -2.61846 4.66198 0
M  V30 169 C 11.6308 -0.499354 5.19907 0
M  V30 170 H 13.3248 -0.00824265 2.99399 0
M  V30 171 H 10.8708 -0.0025244 1.44 0
M  V30 172 H 12.8238 -2.39937 3.46422 0
M  V30 173 H 11.5478 -2.39405 2.22155 0
M  V30 174 H 10.2068 -0.756156 3.58717 0
M  V30 175 H 9.8548 -3.21632 3.86732 0
M  V30 176 H 9.5548 -2.3409 5.38958 0
M  V30 177 H 11.0788 -3.24732 5.1709 0
M  V30 178 H 12.4928 -1.02498 5.64063 0
M  V30 179 H 10.8898 -0.316424 5.99265 0
M  V30 180 H 11.9598 0.480459 4.82514 0
M  V30 181 N 13.3029 -1.57598 0.00835791 0
M  V30 182 C 14.2499 -2.08945 -0.980346 0
M  V30 183 C 15.2199 -0.986738 -1.33614 0
M  V30 184 O 16.4049 -1.25968 -1.43306 0
M  V30 185 C 13.5449 -2.60425 -2.26435 0
M  V30 186 C 12.6579 -3.84628 -1.96685 0
M  V30 187 C 11.7929 -4.24579 -3.19228 0
M  V30 188 C 10.8319 -5.41596 -2.85202 0
M  V30 189 N 9.9689 -5.768 -4.00307 0
M  V30 190 H 14.8089 -2.93148 -0.535551 0
M  V30 191 H 12.3459 -1.44912 -0.252776 0
M  V30 192 H 14.3039 -2.88354 -3.01509 0
M  V30 193 H 12.9339 -1.79083 -2.68568 0
M  V30 194 H 11.9859 -3.63556 -1.11942 0
M  V30 195 H 13.2979 -4.69796 -1.67611 0
M  V30 196 H 12.4519 -4.53834 -4.02641 0
M  V30 197 H 11.1909 -3.38137 -3.51447 0
M  V30 198 H 10.1959 -5.12056 -2.00198 0
M  V30 199 H 11.4209 -6.29721 -2.54222 0
M  V30 200 H 9.3669 -4.93316 -4.32407 0
M  V30 201 H 9.2839 -6.5656 -3.74786 0
M  V30 202 H 10.5519 -6.10652 -4.84484 0
M  V30 203 N 14.781 0.264519 -1.55364 0
M  V30 204 C 15.728 1.32717 -1.88825 0
M  V30 205 C 16.698 1.48675 -0.740605 0
M  V30 206 O 17.883 1.62945 -0.992657 0
M  V30 207 C 15.023 2.68089 -2.17307 0
M  V30 208 C 14.136 2.60284 -3.44785 0
M  V30 209 C 13.271 3.87892 -3.62924 0
M  V30 210 C 12.31 3.74631 -4.84064 0
M  V30 211 N 11.447 4.94092 -4.98816 0
M  V30 212 H 16.287 1.03481 -2.79456 0
M  V30 213 H 13.824 0.499757 -1.3835 0
M  V30 214 H 15.782 3.46864 -2.31821 0
M  V30 215 H 14.412 2.95509 -1.299 0
M  V30 216 H 13.464 1.73173 -3.38697 0
M  V30 217 H 14.776 2.46388 -4.33698 0
M  V30 218 H 13.93 4.75109 -3.77302 0
M  V30 219 H 12.669 4.04664 -2.7221 0
M  V30 220 H 11.674 2.85797 -4.69681 0
M  V30 221 H 12.899 3.5937 -5.76221 0
M  V30 222 H 10.845 5.11259 -4.11036 0
M  V30 223 H 10.762 4.8276 -5.81789 0
M  V30 224 H 12.03 5.82857 -5.17588 0
M  V30 225 N 16.2591 1.48442 0.529413 0
M  V30 226 C 17.4891 1.59919 1.30804 0
M  V30 227 C 17.8971 0.258792 1.87422 0
M  V30 228 O 17.2401 -0.762096 1.67146 0
M  V30 229 C 17.3021 2.58693 2.49636 0
M  V30 230 C 16.9661 4.03745 2.14101 0
M  V30 231 C 17.9631 4.9141 1.6974 0
M  V30 232 C 15.6481 4.49285 2.24607 0
M  V30 233 C 17.6421 6.22645 1.36351 0
M  V30 234 C 15.3291 5.8054 1.9083 0
M  V30 235 C 16.3271 6.67043 1.46773 0
M  V30 236 O 16.0151 7.95856 1.1344 0
M  V30 237 H 15.7471 0.541981 0.404021 0
M  V30 238 H 18.3011 1.95 0.645309 0
M  V30 239 H 16.5311 2.18734 3.18892 0
M  V30 240 H 18.2201 2.59999 3.11698 0
M  V30 241 H 18.9861 4.57465 1.61094 0
M  V30 242 H 14.8651 3.82142 2.57854 0
M  V30 243 H 18.4091 6.90119 1.01891 0
M  V30 244 H 14.3061 6.14022 1.99117 0
M  V30 245 H 15.0741 8.08613 1.26832 0
M  V30 246 N 17.7372 -0.778329 1.37039 0
M  V30 247 C 18.9852 -1.53361 1.31623 0
M  V30 248 C 19.3062 -1.94739 -0.100831 0
M  V30 249 O 18.5762 -1.65797 -1.04347 0
M  V30 250 H 17.1562 -0.568794 0.484234 0
M  V30 251 H 19.8182 -0.926742 1.71457 0
M  V30 252 H 18.9142 -2.43606 1.95096 0
M  V30 253 N 19.2153 -1.21501 -1.00376 0
M  V30 254 C 20.4613 -1.03452 -1.74429 0
M  V30 255 C 20.7943 0.430764 -1.89362 0
M  V30 256 O 20.0693 1.31962 -1.42886 0
M  V30 257 C 20.3523 -1.73375 -3.15615 0
M  V30 258 C 20.2053 -3.27431 -3.08397 0
M  V30 259 C 21.5243 -1.47732 -4.14564 0
M  V30 260 H 18.6433 -0.377226 -0.633143 0
M  V30 261 H 21.2853 -1.49693 -1.17013 0
M  V30 262 H 19.4353 -1.34064 -3.64636 0
M  V30 263 H 21.1073 -3.76119 -2.67081 0
M  V30 264 H 19.3503 -3.5767 -2.45468 0
M  V30 265 H 20.0213 -3.71524 -4.08258 0
M  V30 266 H 22.4973 -1.8186 -3.74254 0
M  V30 267 H 21.3733 -1.99169 -5.11491 0
M  V30 268 H 21.6343 -0.407589 -4.40217 0
M  V30 269 N 20.6934 1.19889 -1.02296 0
M  V30 270 C 21.9184 1.9393 -0.735237 0
M  V30 271 C 22.3434 1.74639 0.698782 0
M  V30 272 O 21.7014 1.04481 1.48167 0
M  V30 273 C 21.7494 3.43916 -1.08417 0
M  V30 274 O 20.8534 4.11917 -0.199446 0
M  V30 275 H 20.1944 0.605645 -0.272196 0
M  V30 276 H 22.7244 1.52137 -1.36804 0
M  V30 277 H 22.7344 3.9456 -1.03856 0
M  V30 278 H 21.4094 3.5728 -2.12894 0
M  V30 279 H 19.9864 3.71666 -0.303136 0
M  V30 280 N 22.1715 0.800033 1.35784 0
M  V30 281 C 23.4485 0.30088 1.93272 0
M  V30 282 C 23.8285 -1.20857 1.73081 0
M  V30 283 O 23.1765 -2.00502 1.09596 0
M  V30 284 C 23.3865 0.70511 3.41803 0
M  V30 285 C 24.7345 0.690871 4.18942 0
M  V30 286 O 25.7585 0.646244 3.50289 0
M  V30 287 O 24.6175 0.74332 5.41421 0
M  V30 288 H 21.7115 0.0771605 0.823393 0
M  V30 289 H 24.2575 0.88329 1.449 0
M  V30 290 H 23.0295 1.74571 3.50201 0
M  V30 291 H 22.6525 0.0971541 3.97481 0
M  V30 292 N 23.6496 -1.47581 0.552962 0
M  V30 293 C 24.5996 -2.26961 -0.217423 0
M  V30 294 C 25.5836 -1.34099 -0.889168 0
M  V30 295 O 26.7756 -1.58483 -0.788176 0
M  V30 296 C 23.9046 -3.19756 -1.24944 0
M  V30 297 C 22.9906 -4.20097 -0.581327 0
M  V30 298 N 23.3816 -5.04614 0.346171 0
M  V30 299 C 21.6796 -4.38099 -0.835767 0
M  V30 300 C 22.3806 -5.77052 0.733854 0
M  V30 301 N 21.3566 -5.43526 0.0896567 0
M  V30 302 H 25.1586 -2.89688 0.495761 0
M  V30 303 H 22.6726 -1.58068 0.372597 0
M  V30 304 H 24.6696 -3.75305 -1.81527 0
M  V30 305 H 23.3296 -2.58585 -1.96376 0
M  V30 306 H 24.3406 -5.12869 0.720098 0
M  V30 307 H 21.0176 -3.88102 -1.53892 0
M  V30 308 H 22.4076 -6.5504 1.49574 0
M  V30 309 N 25.1277 -0.289203 -1.54924 0
M  V30 310 C 26.3767 0.324231 -1.99077 0
M  V30 311 C 26.6897 1.5591 -1.18117 0
M  V30 312 O 27.8957 2.24637 -1.52481 0
M  V30 313 C 26.3517 0.628209 -3.54375 0
M  V30 314 C 25.9597 -0.587647 -4.44129 0
M  V30 315 C 27.7037 1.20349 -4.07083 0
M  V30 316 C 25.6107 -0.257475 -5.90839 0
M  V30 317 H 24.5407 0.124924 -0.743579 0
M  V30 318 H 27.1917 -0.396063 -1.79175 0
M  V30 319 H 25.5737 1.40778 -3.70132 0
M  V30 320 H 26.7477 -1.36418 -4.40144 0
M  V30 321 H 25.0627 -1.08074 -4.0213 0
M  V30 322 H 27.6597 1.46456 -5.14252 0
M  V30 323 H 28.0027 2.14195 -3.56968 0
M  V30 324 H 28.5357 0.485889 -3.94821 0
M  V30 325 H 25.2747 -1.16419 -6.45079 0
M  V30 326 H 24.7947 0.482018 -5.9786 0
M  V30 327 H 26.4737 0.145238 -6.46837 0
M  V30 328 N 26.6058 1.57591 -0.0167156 0
M  V30 329 C 27.5688 2.08393 0.954204 0
M  V30 330 C 28.5688 0.996531 1.26198 0
M  V30 331 O 29.7588 1.25858 1.20438 0
M  V30 332 C 26.8908 2.5394 2.27436 0
M  V30 333 H 28.0838 2.95455 0.514451 0
M  V30 334 H 25.6368 1.54582 0.231089 0
M  V30 335 H 26.3718 1.70171 2.76066 0
M  V30 336 H 26.1568 3.33371 2.06412 0
M  V30 337 H 27.6468 2.93512 2.97053 0
M  V30 338 N 28.0839 -0.256276 1.55502 0
M  V30 339 C 29.0309 -1.31714 1.89526 0
M  V30 340 C 30.0009 -1.4828 0.748479 0
M  V30 341 O 31.1859 -1.62416 1.00128 0
M  V30 342 C 28.3259 -2.66933 2.18725 0
M  V30 343 C 27.4389 -2.58452 3.4616 0
M  V30 344 C 26.5739 -3.85961 3.64976 0
M  V30 345 C 25.6129 -3.72059 4.86044 0
M  V30 346 N 24.7499 -4.9144 5.01429 0
M  V30 347 H 29.5899 -1.01998 2.80001 0
M  V30 348 H 27.1269 -0.492413 1.38613 0
M  V30 349 H 29.0849 -3.4563 2.33657 0
M  V30 350 H 27.7149 -2.94816 1.31466 0
M  V30 351 H 26.7669 -1.71374 3.3961 0
M  V30 352 H 28.0789 -2.44085 4.34999 0
M  V30 353 H 27.2329 -4.73101 3.79816 0
M  V30 354 H 25.9719 -4.03215 2.74353 0
M  V30 355 H 24.9769 -2.83302 4.7119 0
M  V30 356 H 26.2019 -3.56309 5.78118 0
M  V30 357 H 24.1479 -5.09072 4.13741 0
M  V30 358 H 24.0649 -4.79668 5.84341 0
M  V30 359 H 25.3329 -5.80104 5.20672 0
M  V30 360 N 29.562 -1.4872 -0.521534 0
M  V30 361 C 30.525 -1.63379 -1.60748 0
M  V30 362 C 31.525 -0.50661 -1.52611 0
M  V30 363 O 32.715 -0.772601 -1.5613 0
M  V30 364 C 29.847 -1.61192 -3.00383 0
M  V30 365 H 31.04 -2.60217 -1.49087 0
M  V30 366 H 28.593 -1.37444 -0.744235 0
M  V30 367 H 29.328 -0.65863 -3.17541 0
M  V30 368 H 29.113 -2.43032 -3.07698 0
M  V30 369 H 30.603 -1.7466 -3.7932 0
M  V30 370 N 31.0401 0.771051 -1.3745 0
M  V30 371 C 32.2871 1.52963 -1.32697 0
M  V30 372 C 32.6151 1.94299 0.0883274 0
M  V30 373 O 31.8701 1.64397 1.0617 0
M  V30 374 C 32.1691 2.80676 -2.2126 0
M  V30 375 C 31.8351 2.58389 -3.69521 0
M  V30 376 C 30.4971 2.52019 -4.09927 0
M  V30 377 C 32.8491 2.38469 -4.63446 0
M  V30 378 C 30.1771 2.23721 -5.42371 0
M  V30 379 C 32.5291 2.11694 -5.96128 0
M  V30 380 C 31.1931 2.03769 -6.35637 0
M  V30 381 H 30.4631 0.559732 -0.485573 0
M  V30 382 H 33.1101 0.888083 -1.69662 0
M  V30 383 H 31.4151 3.49392 -1.77291 0
M  V30 384 H 33.1121 3.38557 -2.14895 0
M  V30 385 H 29.7021 2.6421 -3.37478 0
M  V30 386 H 33.8861 2.4238 -4.33089 0
M  V30 387 H 29.1421 2.16081 -5.71943 0
M  V30 388 H 33.3161 1.9528 -6.6846 0
M  V30 389 H 30.9431 1.81606 -7.38189 0
M  V30 390 N 32.5182 1.22032 0.997298 0
M  V30 391 C 33.4482 1.01065 2.10495 0
M  V30 392 C 34.4292 -0.0669542 1.69968 0
M  V30 393 O 35.6142 0.0943987 1.9397 0
M  V30 394 C 32.7442 0.582874 3.42374 0
M  V30 395 C 31.6982 1.60592 3.96729 0
M  V30 396 C 31.0242 1.03412 5.24605 0
M  V30 397 C 32.3242 2.99478 4.27914 0
M  V30 398 H 34.0182 1.93708 2.28292 0
M  V30 399 H 31.5642 0.932761 1.09707 0
M  V30 400 H 33.5172 0.423332 4.19268 0
M  V30 401 H 32.2412 -0.379213 3.24391 0
M  V30 402 H 30.9002 1.75316 3.21963 0
M  V30 403 H 30.5482 0.063518 5.0296 0
M  V30 404 H 30.2482 1.71754 5.61938 0
M  V30 405 H 31.7722 0.886066 6.04137 0
M  V30 406 H 33.1862 2.88153 4.95622 0
M  V30 407 H 31.5832 3.64903 4.76409 0
M  V30 408 H 32.6532 3.49742 3.3587 0
M  V30 409 N 33.9963 -1.19345 1.0293 0
M  V30 410 C 34.9063 -2.26245 0.620515 0
M  V30 411 C 35.9223 -1.70486 -0.347928 0
M  V30 412 O 37.0983 -2.00347 -0.205704 0
M  V30 413 C 34.1633 -3.46693 -0.0218957 0
M  V30 414 C 33.2243 -4.17632 0.994102 0
M  V30 415 C 32.4573 -5.32329 0.382253 0
M  V30 416 O 32.6803 -5.64552 -0.814676 0
M  V30 417 O 31.6143 -5.91664 1.10531 0
M  V30 418 H 35.4403 -2.63453 1.51083 0
M  V30 419 H 33.0253 -1.26207 0.799513 0
M  V30 420 H 34.9073 -4.19683 -0.380072 0
M  V30 421 H 33.5823 -3.11333 -0.886209 0
M  V30 422 H 32.4893 -3.4676 1.40387 0
M  V30 423 H 33.8223 -4.56964 1.8288 0
M  V30 424 N 35.4744 -0.807222 -1.35358 0
M  V30 425 C 36.7234 -0.384376 -1.98004 0
M  V30 426 C 37.0364 1.0543 -1.64754 0
M  V30 427 O 38.2424 1.58029 -2.20769 0
M  V30 428 C 36.6984 -0.636326 -3.5423 0
M  V30 429 C 36.3064 -2.08759 -3.96388 0
M  V30 430 C 38.0504 -0.278869 -4.23583 0
M  V30 431 C 35.9574 -2.28525 -5.45463 0
M  V30 432 H 34.8874 -0.139986 -0.740891 0
M  V30 433 H 37.5384 -0.991369 -1.54415 0
M  V30 434 H 35.9204 0.0406256 -3.95979 0
M  V30 435 H 37.0944 -2.8024 -3.6579 0
M  V30 436 H 35.4094 -2.40497 -3.39926 0
M  V30 437 H 38.0064 -0.404599 -5.33167 0
M  V30 438 H 38.3494 0.775012 -4.09022 0
M  V30 439 H 38.8824 -0.909764 -3.87257 0
M  V30 440 H 35.6214 -3.32361 -5.64992 0
M  V30 441 H 35.1414 -1.61569 -5.77629 0
M  V30 442 H 36.8204 -2.10109 -6.11934 0
M  V30 443 N 36.9525 1.47285 -0.560781 0
M  V30 444 C 38.3635 1.86258 -0.128343 0
M  V30 445 C 38.7145 1.46699 1.30284 0
M  V30 446 O 37.8395 0.871698 1.98067 0
M  V30 447 C 38.4345 3.38044 -0.22614 0
M  V30 448 C 36.9935 3.76096 0.151283 0
M  V30 449 C 36.1405 2.71335 -0.572084 0
M  V30 450 H 39.0915 1.38752 -0.770297 0
M  V30 451 H 39.1125 3.76441 0.554322 0
M  V30 452 H 38.6245 3.66806 -1.26788 0
M  V30 453 H 36.7255 3.52951 1.19399 0
M  V30 454 H 36.8385 4.78641 -0.209765 0
M  V30 455 H 35.2025 2.54696 -0.0147653 0
M  V30 456 H 35.9855 3.02938 -1.61504 0
M  V30 457 N 38.4306 0.297415 1.54768 0
M  V30 458 C 39.8466 -0.0560823 1.59501 0
M  V30 459 C 40.0466 -1.52725 1.31444 0
M  V30 460 O 39.1026 -2.27947 1.08611 0
M  V30 461 C 40.4156 0.338631 2.98787 0
M  V30 462 C 41.9636 0.287097 3.11681 0
M  V30 463 C 42.4386 0.656579 4.53269 0
M  V30 464 N 43.9296 0.608977 4.59179 0
M  V30 465 C 44.6646 0.867385 5.66802 0
M  V30 466 N 44.1606 1.19157 6.82476 0
M  V30 467 N 45.9536 0.794687 5.56454 0
M  V30 468 H 38.1046 1.25624 1.71267 0
M  V30 469 H 40.3676 0.509057 0.799728 0
M  V30 470 H 40.0736 1.36263 3.2423 0
M  V30 471 H 39.9476 -0.309508 3.75928 0
M  V30 472 H 42.3346 -0.727649 2.85988 0
M  V30 473 H 42.4156 0.969809 2.36703 0
M  V30 474 H 42.0596 1.66912 4.7969 0
M  V30 475 H 41.9896 -0.0481649 5.26578 0
M  V30 476 H 44.4806 0.369198 3.76092 0
M  V30 477 H 44.7936 1.37482 7.60473 0
M  V30 478 H 43.1386 1.22958 6.84037 0
M  V30 479 H 46.3296 0.541098 4.64962 0
M  V30 480 H 46.5026 0.999445 6.40246 0
M  V30 481 N 39.9087 -1.5758 0.0250728 0
M  V30 482 C 40.8187 -2.1343 -0.973905 0
M  V30 483 C 41.8347 -1.08556 -1.35984 0
M  V30 484 O 43.0107 -1.40592 -1.44207 0
M  V30 485 C 40.0757 -2.64703 -2.23904 0
M  V30 486 C 39.1367 -3.84276 -1.91391 0
M  V30 487 C 38.3697 -4.33095 -3.11873 0
M  V30 488 O 38.5927 -3.81107 -4.24398 0
M  V30 489 O 37.5267 -5.24984 -2.94406 0
M  V30 490 H 41.3527 -2.99057 -0.529036 0
M  V30 491 H 38.9377 -1.48118 -0.195288 0
M  V30 492 H 40.8197 -2.97769 -2.98181 0
M  V30 493 H 39.4947 -1.82161 -2.6758 0
M  V30 494 H 38.4017 -3.56143 -1.14511 0
M  V30 495 H 39.7347 -4.67968 -1.52534 0
M  V30 496 N 41.3868 0.248026 -1.55636 0
M  V30 497 C 42.2968 1.32859 -1.93354 0
M  V30 498 C 43.3128 1.52719 -0.833838 0
M  V30 499 O 44.4888 1.66363 -1.13513 0
M  V30 500 C 41.5538 2.66337 -2.21958 0
M  V30 501 C 40.6148 2.55008 -3.45354 0
M  V30 502 C 39.8478 3.82121 -3.72584 0
M  V30 503 O 40.0708 4.83951 -3.01907 0
M  V30 504 O 39.0048 3.80822 -4.6611 0
M  V30 505 H 42.8308 1.03862 -2.85388 0
M  V30 506 H 40.4158 0.448686 -1.42503 0
M  V30 507 H 42.2978 3.45216 -2.4167 0
M  V30 508 H 40.9728 2.95068 -1.33103 0
M  V30 509 H 39.8798 1.7442 -3.30951 0
M  V30 510 H 41.2128 2.31222 -4.34508 0
M  V30 511 N 42.8649 1.48995 0.513639 0
M  V30 512 C 44.1119 1.57843 1.26854 0
M  V30 513 C 44.4399 0.259501 1.92761 0
M  V30 514 O 43.6949 -0.75159 1.80692 0
M  V30 515 C 43.9939 2.67756 2.36731 0
M  V30 516 C 43.6599 4.09669 1.88368 0
M  V30 517 C 42.3219 4.48291 1.74896 0
M  V30 518 C 44.6739 4.98537 1.52021 0
M  V30 519 C 42.0019 5.73568 1.23438 0
M  V30 520 C 44.3539 6.24319 1.0202 0
M  V30 521 C 43.0179 6.61783 0.871778 0
M  V30 522 H 42.2879 0.577587 0.464192 0
M  V30 523 H 44.9349 1.82778 0.571366 0
M  V30 524 H 43.2399 2.36743 3.12185 0
M  V30 525 H 44.9369 2.71813 2.9482 0
M  V30 526 H 41.5269 3.79176 1.99808 0
M  V30 527 H 45.7109 4.69363 1.61281 0
M  V30 528 H 40.9669 6.01304 1.10648 0
M  V30 529 H 45.1409 6.92566 0.729722 0
M  V30 530 H 42.7679 7.5874 0.470852 0
M  V30 531 N 44.343 -0.763751 1.37857 0
M  V30 532 C 45.273 -1.89103 1.36975 0
M  V30 533 C 46.254 -1.68439 0.237152 0
M  V30 534 O 47.439 -1.8918 0.438713 0
M  V30 535 C 44.569 -3.26496 1.18395 0
M  V30 536 C 43.523 -3.61741 2.28751 0
M  V30 537 C 42.849 -4.97762 1.95286 0
M  V30 538 C 44.149 -3.67665 3.70972 0
M  V30 539 H 45.843 -1.90099 2.31307 0
M  V30 540 H 43.389 -0.91319 1.11341 0
M  V30 541 H 45.342 -4.05003 1.16406 0
M  V30 542 H 44.066 -3.25955 0.205215 0
M  V30 543 H 42.725 -2.85547 2.29909 0
M  V30 544 H 42.373 -4.93769 0.959221 0
M  V30 545 H 42.073 -5.22313 2.69189 0
M  V30 546 H 43.597 -5.7866 1.94898 0
M  V30 547 H 45.011 -4.36307 3.719 0
M  V30 548 H 43.408 -4.03718 4.43995 0
M  V30 549 H 44.478 -2.68134 4.0402 0
M  V30 550 N 45.8211 -1.22559 -0.990812 0
M  V30 551 C 47.0491 -1.07779 -1.76611 0
M  V30 552 C 47.4641 0.371513 -1.85109 0
M  V30 553 O 46.8211 1.25737 -1.32274 0
M  V30 554 C 46.8721 -1.68512 -3.19822 0
M  V30 555 O 46.5931 -3.07774 -3.1178 0
M  V30 556 C 48.0941 -1.59035 -4.13791 0
M  V30 557 H 45.3141 -0.377729 -0.554583 0
M  V30 558 H 47.8581 -1.62195 -1.24551 0
M  V30 559 H 46.0131 -1.18154 -3.68942 0
M  V30 560 H 46.4271 -3.37062 -4.01858 0
M  V30 561 H 47.9011 -2.0625 -5.1202 0
M  V30 562 H 48.3781 -0.547273 -4.35777 0
M  V30 563 H 48.9841 -2.08709 -3.70568 0
M  V30 564 N 47.2992 1.18797 -1.03562 0
M  V30 565 C 48.2462 2.22253 -0.622259 0
M  V30 566 C 49.2162 1.61987 0.36736 0
M  V30 567 O 50.4012 1.88986 0.262492 0
M  V30 568 C 47.5412 3.45097 0.0138462 0
M  V30 569 C 46.6542 4.19722 -1.02263 0
M  V30 570 C 45.7892 5.30009 -0.355573 0
M  V30 571 C 44.8282 5.96399 -1.37749 0
M  V30 572 N 43.9652 6.98234 -0.735766 0
M  V30 573 H 48.8052 2.56968 -1.50903 0
M  V30 574 H 46.3422 1.26245 -0.755017 0
M  V30 575 H 48.3002 4.15279 0.399948 0
M  V30 576 H 46.9302 3.11018 0.864158 0
M  V30 577 H 45.9822 3.48418 -1.52673 0
M  V30 578 H 47.2942 4.65227 -1.79903 0
M  V30 579 H 46.4482 6.0664 0.0850095 0
M  V30 580 H 45.1872 4.85592 0.452967 0
M  V30 581 H 44.1922 5.18512 -1.82826 0
M  V30 582 H 45.4172 6.42899 -2.18764 0
M  V30 583 H 43.3632 6.55979 0.0525597 0
M  V30 584 H 43.2802 7.41965 -1.44995 0
M  V30 585 H 44.5482 7.78845 -0.31941 0
M  V30 586 N 48.7773 0.814389 1.34928 0
M  V30 587 C 50.0023 0.410097 2.03305 0
M  V30 588 C 50.4273 -0.973464 1.60951 0
M  V30 589 O 49.7853 -1.63185 0.789964 0
M  V30 590 C 49.8333 0.51049 3.56968 0
M  V30 591 O 48.9373 -0.473035 4.09678 0
M  V30 592 H 48.2783 0.170088 0.641846 0
M  V30 593 H 50.8083 1.10244 1.72358 0
M  V30 594 H 50.8183 0.383135 4.06197 0
M  V30 595 H 49.4933 1.51963 3.87144 0
M  V30 596 H 48.0703 -0.305272 3.71648 0
M  V30 597 N 50.2554 -1.46986 0.568584 0
M  V30 598 C 51.4854 -2.0653 0.0539173 0
M  V30 599 C 51.8934 -1.42004 -1.25026 0
M  V30 600 O 51.2364 -0.514541 -1.76347 0
M  V30 601 C 51.2984 -3.58938 -0.200854 0
M  V30 602 C 50.9624 -4.45572 1.01559 0
M  V30 603 C 51.9594 -4.82986 1.92407 0
M  V30 604 C 49.6444 -4.8692 1.23346 0
M  V30 605 C 51.6384 -5.60559 3.03402 0
M  V30 606 C 49.3254 -5.64255 2.34649 0
M  V30 607 C 50.3234 -6.00986 3.24507 0
M  V30 608 O 50.0114 -6.76761 4.33878 0
M  V30 609 H 49.7434 -0.674292 0.0480234 0
M  V30 610 H 52.2974 -1.89812 0.784896 0
M  V30 611 H 50.5274 -3.73911 -0.986279 0
M  V30 612 H 52.2164 -4.0046 -0.662294 0
M  V30 613 H 52.9824 -4.51633 1.76785 0
M  V30 614 H 48.8614 -4.57789 0.543178 0
M  V30 615 H 52.4054 -5.89147 3.73565 0
M  V30 616 H 48.3024 -5.95021 2.5024 0
M  V30 617 H 49.0704 -6.95168 4.32068 0
M  V30 618 N 51.7335 -0.305618 -1.54608 0
M  V30 619 C 53.1445 0.186098 -1.8577 0
M  V30 620 C 53.4955 1.53058 -1.22751 0
M  V30 621 O 52.6205 2.09888 -0.526893 0
M  V30 622 C 53.2155 0.344449 -3.37044 0
M  V30 623 C 51.7745 0.780384 -3.68221 0
M  V30 624 C 50.9215 -0.108554 -2.77087 0
M  V30 625 H 53.8725 -0.526485 -1.49712 0
M  V30 626 H 53.8935 1.17828 -3.61796 0
M  V30 627 H 53.4055 -0.634235 -3.82883 0
M  V30 628 H 51.5065 1.76945 -3.27904 0
M  V30 629 H 51.6195 0.596572 -4.75371 0
M  V30 630 H 49.9835 0.412931 -2.5133 0
M  V30 631 H 50.7665 -1.08368 -3.25747 0
M  V30 632 N 53.2116 1.57565 -0.0334293 0
M  V30 633 C 54.1416 2.13511 0.945265 0
M  V30 634 C 55.1226 1.05231 1.33643 0
M  V30 635 O 56.3076 1.33084 1.41429 0
M  V30 636 C 53.4376 2.6657 2.22616 0
M  V30 637 C 52.3916 3.79676 1.97561 0
M  V30 638 C 51.7176 4.1918 3.31952 0
M  V30 639 C 53.0176 5.0557 1.31135 0
M  V30 640 H 54.7116 2.95538 0.479325 0
M  V30 641 H 52.2576 1.42166 0.229115 0
M  V30 642 H 54.2106 3.04344 2.91466 0
M  V30 643 H 52.9346 1.8171 2.71384 0
M  V30 644 H 51.5936 3.42347 1.31127 0
M  V30 645 H 51.2416 3.31296 3.78487 0
M  V30 646 H 50.9416 4.95402 3.15992 0
M  V30 647 H 52.4656 4.59541 4.02063 0
M  V30 648 H 53.8796 5.40903 1.89992 0
M  V30 649 H 52.2766 5.86818 1.25559 0
M  V30 650 H 53.3466 4.84062 0.284894 0
M  V30 651 N 54.6897 -0.239769 1.55765 0
M  V30 652 C 55.9147 -0.988373 1.82335 0
M  V30 653 C 56.3397 -1.77886 0.611421 0
M  V30 654 O 55.6977 -1.75889 -0.439639 0
M  V30 655 C 55.7457 -1.89627 3.06715 0
M  V30 656 O 54.8497 -2.98904 2.84131 0
M  V30 657 H 54.1907 -0.280858 0.601677 0
M  V30 658 H 56.7207 -0.258597 2.02959 0
M  V30 659 H 56.7307 -2.30957 3.36338 0
M  V30 660 H 55.4057 -1.31511 3.9456 0
M  V30 661 H 53.9827 -2.61651 2.65694 0
M  V30 662 N 56.1678 -1.49265 -0.50573 0
M  V30 663 C 57.3978 -1.61979 -1.28243 0
M  V30 664 C 57.8058 -0.288576 -1.86986 0
M  V30 665 O 57.1488 0.735408 -1.68337 0
M  V30 666 C 57.2108 -2.62632 -2.45489 0
M  V30 667 C 56.8748 -4.071 -2.07651 0
M  V30 668 C 57.8718 -4.94049 -1.61901 0
M  V30 669 C 55.5568 -4.52801 -2.17431 0
M  V30 670 C 57.5508 -6.24736 -1.26428 0
M  V30 671 C 55.2378 -5.83503 -1.8157 0
M  V30 672 C 56.2358 -6.69294 -1.36142 0
M  V30 673 O 55.9238 -7.9756 -1.00764 0
M  V30 674 H 55.6558 -0.54834 -0.395347 0
M  V30 675 H 58.2098 -1.96002 -0.614204 0
M  V30 676 H 56.4398 -2.2378 -3.15372 0
M  V30 677 H 58.1288 -2.64925 -3.07522 0
M  V30 678 H 58.8948 -4.5997 -1.53795 0
M  V30 679 H 54.7738 -3.86196 -2.51742 0
M  V30 680 H 58.3178 -6.91652 -0.908992 0
M  V30 681 H 54.2148 -6.17112 -1.89324 0
M  V30 682 H 54.9828 -8.10529 -1.13952 0
M  V30 683 N 57.6459 0.756429 -1.3826 0
M  V30 684 C 58.8919 1.51772 -1.34511 0
M  V30 685 C 59.2249 1.94089 0.0656691 0
M  V30 686 O 58.4999 1.65221 1.02626 0
M  V30 687 C 58.7829 2.77226 -2.29821 0
M  V30 688 C 58.6359 2.41065 -3.79747 0
M  V30 689 C 59.9549 3.79236 -2.23312 0
M  V30 690 H 57.0739 0.550578 -0.489931 0
M  V30 691 H 59.7159 0.866607 -1.69086 0
M  V30 692 H 57.8659 3.32784 -2.00467 0
M  V30 693 H 59.5379 1.91303 -4.19763 0
M  V30 694 H 57.7809 1.7356 -3.97567 0
M  V30 695 H 58.4519 3.3081 -4.41892 0
M  V30 696 H 60.9279 3.3321 -2.49219 0
M  V30 697 H 59.8039 4.64714 -2.92116 0
M  V30 698 H 60.0649 4.24615 -1.23102 0
M  V30 699 N 59.124 1.23083 0.984299 0
M  V30 700 C 60.354 1.08556 1.75781 0
M  V30 701 C 60.762 -0.366171 1.85623 0
M  V30 702 O 60.105 -1.26524 1.33182 0
M  V30 703 C 60.167 1.63208 3.20318 0
M  V30 704 C 59.831 3.11922 3.33997 0
M  V30 705 C 60.828 4.09259 3.2063 0
M  V30 706 C 58.513 3.51552 3.58771 0
M  V30 707 C 60.507 5.4421 3.31835 0
M  V30 708 C 58.194 4.86649 3.69616 0
M  V30 709 C 59.192 5.82787 3.56157 0
M  V30 710 O 58.88 7.15431 3.66626 0
M  V30 711 H 58.612 0.380713 0.5586 0
M  V30 712 H 61.166 1.63321 1.2456 0
M  V30 713 H 59.396 1.0286 3.72769 0
M  V30 714 H 61.085 1.44216 3.79416 0
M  V30 715 H 61.851 3.79984 3.01392 0
M  V30 716 H 57.73 2.77239 3.6832 0
M  V30 717 H 61.274 6.1923 3.21247 0
M  V30 718 H 57.171 5.15601 3.88363 0
M  V30 719 H 57.939 7.23127 3.83445 0
M  V30 720 N 60.6021 -1.18246 1.0419 0
M  V30 721 C 61.5121 -2.25574 0.644476 0
M  V30 722 C 62.5281 -1.70845 -0.329826 0
M  V30 723 O 63.7041 -2.00554 -0.184443 0
M  V30 724 C 60.7691 -3.46697 0.014877 0
M  V30 725 C 59.8301 -4.16554 1.03834 0
M  V30 726 C 59.0631 -5.31894 0.438692 0
M  V30 727 O 59.2861 -5.65385 -0.754752 0
M  V30 728 O 58.2201 -5.90459 1.168 0
M  V30 729 H 62.0461 -2.61836 1.53869 0
M  V30 730 H 59.6311 -1.25352 0.812854 0
M  V30 731 H 61.5131 -4.20062 -0.335538 0
M  V30 732 H 60.1881 -3.12255 -0.853138 0
M  V30 733 H 59.0951 -3.45251 1.44057 0
M  V30 734 H 60.4281 -4.54998 1.87716 0
M  V30 735 N 62.0802 -0.821533 -1.34494 0
M  V30 736 C 63.3572 -0.33159 -1.92769 0
M  V30 737 C 63.7372 1.18088 -1.74981 0
M  V30 738 O 63.0852 1.98733 -1.12772 0
M  V30 739 C 63.2952 -0.759398 -3.40638 0
M  V30 740 C 64.6432 -0.757433 -4.1779 0
M  V30 741 O 65.6672 -0.70189 -3.49216 0
M  V30 742 O 64.5262 -0.829361 -5.4017 0
M  V30 743 H 61.6202 -0.0902502 -0.822061 0
M  V30 744 H 64.1662 -0.906231 -1.43477 0
M  V30 745 H 62.9382 -1.8012 -3.47379 0
M  V30 746 H 62.5612 -0.160378 -3.97276 0
M  V30 747 N 63.5583 1.46682 -0.576371 0
M  V30 748 C 64.8073 2.01619 -0.0572825 0
M  V30 749 C 65.1203 1.45417 1.30818 0
M  V30 750 O 66.3263 1.92133 1.91825 0
M  V30 751 C 64.7823 3.59863 -0.0518371 0
M  V30 752 C 64.3903 4.25059 -1.41523 0
M  V30 753 C 66.1343 4.2248 0.413639 0
M  V30 754 C 64.0413 5.75364 -1.36785 0
M  V30 755 H 62.9713 0.753794 -0.0176448 0
M  V30 756 H 65.6223 1.68481 -0.727076 0
M  V30 757 H 64.0043 3.90048 0.683994 0
M  V30 758 H 65.1783 4.06491 -2.17029 0
M  V30 759 H 63.4933 3.7451 -1.8202 0
M  V30 760 H 66.0903 5.3265 0.467779 0
M  V30 761 H 66.4333 3.90976 1.42982 0
M  V30 762 H 66.9663 3.96897 -0.267929 0
M  V30 763 H 63.7053 6.11518 -2.36063 0
M  V30 764 H 63.2253 5.96214 -0.654895 0
M  V30 765 H 64.9043 6.37955 -1.07805 0
M  V30 766 N 65.0364 0.313813 1.54444 0
M  V30 767 C 66.2824 -0.292108 2.00685 0
M  V30 768 C 66.6154 -1.52548 1.20177 0
M  V30 769 O 65.8904 -1.92452 0.281531 0
M  V30 770 C 66.1734 -0.635968 3.5444 0
M  V30 771 C 66.0264 0.607437 4.4568 0
M  V30 772 C 67.3454 -1.45747 4.15266 0
M  V30 773 H 64.4644 -0.104697 0.729526 0
M  V30 774 H 67.1064 0.428457 1.85106 0
M  V30 775 H 65.2564 -1.24986 3.67846 0
M  V30 776 H 66.9284 1.24581 4.44159 0
M  V30 777 H 65.1714 1.23822 4.15753 0
M  V30 778 H 65.8424 0.322515 5.51057 0
M  V30 779 H 68.3184 -0.938645 4.05375 0
M  V30 780 H 67.1944 -1.66683 5.2298 0
M  V30 781 H 67.4554 -2.45063 3.67963 0
M  V30 782 N 66.5145 -1.57545 0.0417849 0
M  V30 783 C 67.4445 -2.14009 -0.933929 0
M  V30 784 C 68.4255 -1.05938 -1.33083 0
M  V30 785 O 69.6105 -1.33833 -1.40721 0
M  V30 786 C 66.7405 -2.67747 -2.21199 0
M  V30 787 C 65.6945 -3.80718 -1.95544 0
M  V30 788 C 65.0205 -4.20935 -3.29724 0
M  V30 789 C 66.3205 -5.06258 -1.28452 0
M  V30 790 H 68.0145 -2.95788 -0.463645 0
M  V30 791 H 65.5605 -1.42285 -0.221573 0
M  V30 792 H 67.5135 -3.05886 -2.89848 0
M  V30 793 H 66.2375 -1.83147 -2.70416 0
M  V30 794 H 64.8965 -3.43037 -1.2931 0
M  V30 795 H 64.5445 -3.33298 -3.76724 0
M  V30 796 H 64.2445 -4.9707 -3.13361 0
M  V30 797 H 65.7685 -4.61666 -3.9962 0
M  V30 798 H 67.1825 -5.41903 -1.8712 0
M  V30 799 H 65.5795 -5.87475 -1.22445 0
M  V30 800 H 66.6495 -4.84207 -0.259219 0
M  V30 801 N 67.9926 0.231505 -1.5589 0
M  V30 802 C 69.2386 0.95877 -1.78705 0
M  V30 803 C 69.5716 1.8438 -0.609725 0
M  V30 804 O 68.8466 1.90521 0.391426 0
M  V30 805 C 69.1296 1.8062 -3.11526 0
M  V30 806 C 68.9826 0.948328 -4.39689 0
M  V30 807 C 70.3016 2.78585 -3.40703 0
M  V30 808 H 67.4206 0.347129 -0.650131 0
M  V30 809 H 70.0626 0.228259 -1.88624 0
M  V30 810 H 68.2126 2.42902 -3.03201 0
M  V30 811 H 69.8846 0.343016 -4.60023 0
M  V30 812 H 68.1276 0.253314 -4.3306 0
M  V30 813 H 68.7986 1.57543 -5.29041 0
M  V30 814 H 71.2746 2.26439 -3.49091 0
M  V30 815 H 70.1506 3.34988 -4.34826 0
M  V30 816 H 70.4116 3.55825 -2.62375 0
M  V30 817 N 69.4707 1.49531 0.497807 0
M  V30 818 C 70.6957 1.63159 1.28039 0
M  V30 819 C 71.1207 0.30418 1.85624 0
M  V30 820 O 70.4787 -0.728618 1.66015 0
M  V30 821 C 70.5267 2.70537 2.38416 0
M  V30 822 O 69.6307 2.29931 3.42353 0
M  V30 823 H 68.9717 0.546001 0.377861 0
M  V30 824 H 71.5017 1.9574 0.59558 0
M  V30 825 H 71.5117 2.92802 2.84132 0
M  V30 826 H 70.1867 3.6689 1.95869 0
M  V30 827 H 68.7637 2.18009 3.02533 0
M  V30 828 N 70.9488 -0.749086 1.3866 0
M  V30 829 C 72.1788 -1.53611 1.38157 0
M  V30 830 C 72.5868 -1.89177 -0.0293595 0
M  V30 831 O 71.9298 -1.53606 -1.00752 0
M  V30 832 C 71.9918 -2.86087 2.17702 0
M  V30 833 C 71.6558 -2.73034 3.66472 0
M  V30 834 C 72.6528 -2.42526 4.59866 0
M  V30 835 C 70.3378 -2.90345 4.09884 0
M  V30 836 C 72.3318 -2.29492 5.94653 0
M  V30 837 C 70.0188 -2.7693 5.4475 0
M  V30 838 C 71.0168 -2.46547 6.36949 0
M  V30 839 O 70.7048 -2.33199 7.69333 0
M  V30 840 H 70.4368 -0.481773 0.474205 0
M  V30 841 H 72.9908 -0.934465 1.82912 0
M  V30 842 H 71.2208 -3.48458 1.67672 0
M  V30 843 H 72.9098 -3.47625 2.09551 0
M  V30 844 H 73.6758 -2.28816 4.27631 0
M  V30 845 H 69.5548 -3.1299 3.38464 0
M  V30 846 H 73.0988 -2.05698 6.66584 0
M  V30 847 H 68.9958 -2.90215 5.76581 0
M  V30 848 H 69.7638 -2.48376 7.79905 0
M  V30 849 N 72.4269 -1.23603 -0.977757 0
M  V30 850 C 73.7039 -0.977897 -1.69401 0
M  V30 851 C 74.0839 0.502738 -2.05026 0
M  V30 852 O 73.4319 1.47459 -1.74551 0
M  V30 853 C 73.6419 -1.89077 -2.93345 0
M  V30 854 C 74.9899 -2.15579 -3.65802 0
M  V30 855 O 76.0139 -1.86648 -3.03383 0
M  V30 856 O 74.8729 -2.64658 -4.78141 0
M  V30 857 H 71.9669 -0.369025 -0.740101 0
M  V30 858 H 74.5129 -1.34657 -1.03274 0
M  V30 859 H 73.2849 -2.89158 -2.63634 0
M  V30 860 H 72.9079 -1.52463 -3.67207 0
M  V30 861 N 73.905 1.17692 -1.04816 0
M  V30 862 C 75.182 1.83768 -0.669963 0
M  V30 863 C 75.562 1.93232 0.849986 0
M  V30 864 O 74.91 1.46397 1.75443 0
M  V30 865 C 75.12 3.21641 -1.35455 0
M  V30 866 C 76.468 3.97592 -1.49017 0
M  V30 867 O 77.492 3.31107 -1.31326 0
M  V30 868 O 76.351 5.16729 -1.77914 0
M  V30 869 H 73.445 0.792799 -0.235368 0
M  V30 870 H 75.991 1.25021 -1.14751 0
M  V30 871 H 74.763 3.097 -2.39168 0
M  V30 872 H 74.386 3.88052 -0.866107 0
M  V30 873 N 75.3831 0.828654 1.34056 0
M  V30 874 C 76.6311 0.41863 1.97717 0
M  V30 875 C 76.9521 -1.02314 1.66002 0
M  V30 876 O 76.2221 -1.71119 0.953683 0
M  V30 877 H 74.8021 0.151809 0.731412 0
M  V30 878 H 77.4641 1.05936 1.63596 0
M  V30 879 H 76.5601 0.542318 3.07352 0
M  V30 880 N 76.8612 -1.46375 0.584142 0
M  V30 881 C 77.7712 -2.34115 -0.150728 0
M  V30 882 C 78.7872 -1.49838 -0.884567 0
M  V30 883 O 79.9632 -1.82704 -0.847429 0
M  V30 884 C 77.0282 -3.2705 -1.15062 0
M  V30 885 C 76.0892 -4.27228 -0.421293 0
M  V30 886 C 75.3222 -5.15722 -1.37355 0
M  V30 887 O 75.5452 -5.07176 -2.61014 0
M  V30 888 O 74.4792 -5.95383 -0.883355 0
M  V30 889 H 78.3052 -2.98309 0.569708 0
M  V30 890 H 75.8902 -1.45373 0.344535 0
M  V30 891 H 77.7722 -3.84381 -1.72712 0
M  V30 892 H 76.4472 -2.65451 -1.8525 0
M  V30 893 H 75.3542 -3.7358 0.197085 0
M  V30 894 H 76.6872 -4.91616 0.239641 0
M  V30 895 N 78.3393 -0.321999 -1.54275 0
M  V30 896 C 79.2493 0.553631 -2.27974 0
M  V30 897 C 80.2653 1.13054 -1.32268 0
M  V30 898 O 81.4413 1.15084 -1.6528 0
M  V30 899 C 78.5063 1.69927 -3.02201 0
M  V30 900 C 77.5673 1.15433 -4.1349 0
M  V30 901 C 76.8003 2.24537 -4.84168 0
M  V30 902 O 77.0233 3.44852 -4.5435 0
M  V30 903 O 75.9573 1.90044 -5.7111 0
M  V30 904 H 79.7833 -0.0448345 -3.03667 0
M  V30 905 H 77.3683 -0.0877418 -1.49142 0
M  V30 906 H 79.2503 2.3663 -3.48689 0
M  V30 907 H 77.9253 2.28395 -2.29385 0
M  V30 908 H 76.8323 0.452436 -3.71354 0
M  V30 909 H 78.1653 0.614805 -4.88345 0
M  V30 910 N 79.8174 1.5752 -0.0501392 0
M  V30 911 C 81.0474 1.96678 0.632573 0
M  V30 912 C 81.4554 0.926298 1.64974 0
M  V30 913 O 80.7984 -0.09802 1.83438 0
M  V30 914 C 80.8604 3.32068 1.37735 0
M  V30 915 C 80.5244 4.54076 0.516131 0
M  V30 916 C 81.5214 5.19445 -0.217357 0
M  V30 917 C 79.2064 5.00304 0.44736 0
M  V30 918 C 81.2004 6.29378 -1.00807 0
M  V30 919 C 78.8874 6.10114 -0.347038 0
M  V30 920 C 79.8854 6.74512 -1.07344 0
M  V30 921 O 79.5734 7.82211 -1.85477 0
M  V30 922 H 79.3054 0.652193 0.177821 0
M  V30 923 H 81.8594 2.05091 -0.112543 0
M  V30 924 H 80.0894 3.20206 2.16807 0
M  V30 925 H 81.7784 3.55981 1.95019 0
M  V30 926 H 82.5444 4.84689 -0.173688 0
M  V30 927 H 78.4234 4.49971 1.00235 0
M  V30 928 H 81.9674 6.79575 -1.57556 0
M  V30 929 H 77.8644 6.44307 -0.392349 0
M  V30 930 H 78.6324 7.98982 -1.77678 0
M  V30 931 N 81.2955 -0.223234 1.56011 0
M  V30 932 C 82.5205 -0.968978 1.83373 0
M  V30 933 C 82.9455 -1.77227 0.630254 0
M  V30 934 O 82.3035 -1.76345 -0.420959 0
M  V30 935 C 82.3515 -1.86363 3.08709 0
M  V30 936 O 81.4555 -2.95873 2.87285 0
M  V30 937 H 80.7965 -0.274461 0.604622 0
M  V30 938 H 83.3265 -0.237056 2.03222 0
M  V30 939 H 83.3365 -2.27376 3.38768 0
M  V30 940 H 82.0115 -1.27319 3.95933 0
M  V30 941 H 80.5885 -2.58818 2.68454 0
M  V30 942 N 82.7736 -1.49793 -0.48987 0
M  V30 943 C 84.0016 -1.63568 -1.26701 0
M  V30 944 C 84.4166 -0.311465 -1.86213 0
M  V30 945 O 83.7736 0.704416 -1.68357 0
M  V30 946 C 83.8246 -2.71284 -2.38929 0
M  V30 947 O 83.5456 -3.9857 -1.81861 0
M  V30 948 C 85.0466 -2.95864 -3.3012 0
M  V30 949 H 82.2666 -0.550342 -0.383881 0
M  V30 950 H 84.8106 -1.95898 -0.586864 0
M  V30 951 H 82.9656 -2.417 -3.02753 0
M  V30 952 H 83.3796 -4.57993 -2.55622 0
M  V30 953 H 84.8536 -3.74941 -4.05121 0
M  V30 954 H 85.3306 -2.06206 -3.87783 0
M  V30 955 H 85.9366 -3.26907 -2.72051 0
M  V30 956 N 84.2517 0.741722 -1.39055 0
M  V30 957 C 85.4767 1.53607 -1.39354 0
M  V30 958 C 85.9017 1.88096 0.0116905 0
M  V30 959 O 85.2597 1.5143 0.996924 0
M  V30 960 C 85.3077 2.80441 -2.26682 0
M  V30 961 O 84.4117 3.76088 -1.69208 0
M  V30 962 H 83.7527 0.464142 -0.474835 0
M  V30 963 H 86.2827 0.915665 -1.82967 0
M  V30 964 H 86.2927 3.29246 -2.40959 0
M  V30 965 H 84.9677 2.5467 -3.2881 0
M  V30 966 H 83.5447 3.34833 -1.64138 0
M  V30 967 N 85.7298 1.2412 0.971189 0
M  V30 968 C 86.9548 1.10667 1.75407 0
M  V30 969 C 87.3798 -0.337048 1.85056 0
M  V30 970 O 86.7378 -1.24396 1.31892 0
M  V30 971 C 86.7858 1.74726 3.15441 0
M  V30 972 O 85.8898 1.01566 3.99697 0
M  V30 973 H 85.2308 0.387341 0.539317 0
M  V30 974 H 87.7608 1.64358 1.2185 0
M  V30 975 H 87.7708 1.80341 3.6598 0
M  V30 976 H 86.4458 2.79773 3.07734 0
M  V30 977 H 85.0228 1.03713 3.58187 0
M  V30 978 N 87.2079 -1.17134 1.05439 0
M  V30 979 C 88.1399 -2.2078 0.615539 0
M  V30 980 C 89.1529 -1.59584 -0.322001 0
M  V30 981 O 90.3419 -1.78133 -0.114344 0
M  V30 982 C 87.4419 -3.38691 -0.118938 0
M  V30 983 C 86.6149 -4.29454 0.829924 0
M  V30 984 C 85.6739 -5.26024 0.136258 0
M  V30 985 O 84.6999 -5.63952 0.77115 0
M  V30 986 N 85.9019 -5.69487 -1.1254 0
M  V30 987 H 88.6669 -2.59052 1.50705 0
M  V30 988 H 86.2279 -1.32058 0.936603 0
M  V30 989 H 88.2199 -4.00329 -0.593179 0
M  V30 990 H 86.7899 -2.98996 -0.91215 0
M  V30 991 H 86.0099 -3.65211 1.48373 0
M  V30 992 H 87.2979 -4.86984 1.47392 0
M  V30 993 H 86.6959 -5.4075 -1.6615 0
M  V30 994 H 85.2529 -6.33257 -1.54366 0
M  V30 995 N 88.686 -0.835752 -1.33615 0
M  V30 996 C 90.097 -0.487099 -1.80234 0
M  V30 997 C 90.448 0.993627 -1.69179 0
M  V30 998 O 89.573 1.77403 -1.23924 0
M  V30 999 C 90.168 -0.877385 -3.27242 0
M  V30 1000 C 88.727 -0.580915 -3.7189 0
M  V30 1001 C 87.874 -1.0874 -2.5509 0
M  V30 1002 H 90.825 -1.02474 -1.2118 0
M  V30 1003 H 90.846 -0.186195 -3.80044 0
M  V30 1004 H 90.358 -1.95512 -3.35256 0
M  V30 1005 H 88.459 0.486881 -3.69405 0
M  V30 1006 H 88.572 -1.13396 -4.65487 0
M  V30 1007 H 86.936 -0.508392 -2.49575 0
M  V30 1008 H 87.719 -2.17184 -2.65868 0
M  V30 1009 N 90.1641 1.46063 -0.591896 0
M  V30 1010 C 91.3891 2.07226 -0.0850314 0
M  V30 1011 C 91.8141 1.43625 1.21463 0
M  V30 1012 O 91.1721 0.523305 1.73583 0
M  V30 1013 C 91.2201 3.60554 0.0576567 0
M  V30 1014 O 90.3241 3.97128 1.11188 0
M  V30 1015 H 89.6651 0.660615 -0.0669568 0
M  V30 1016 H 92.1951 1.8756 -0.81745 0
M  V30 1017 H 92.2051 4.07165 0.2609 0
M  V30 1018 H 90.8801 4.06235 -0.891416 0
M  V30 1019 H 89.4571 3.62213 0.886356 0
M  V30 1020 N 91.6422 0.330177 1.54103 0
M  V30 1021 C 92.5722 -0.525353 2.27513 0
M  V30 1022 C 93.5532 -1.11383 1.2856 0
M  V30 1023 O 94.7382 -1.13773 1.57383 0
M  V30 1024 C 91.8682 -1.6831 3.03791 0
M  V30 1025 C 90.8222 -1.2236 4.10137 0
M  V30 1026 C 90.1482 -2.46882 4.74293 0
M  V30 1027 C 91.4482 -0.333697 5.21233 0
M  V30 1028 H 93.1422 0.087013 2.99274 0
M  V30 1029 H 90.6882 0.0432893 1.43935 0
M  V30 1030 H 92.6412 -2.28795 3.5388 0
M  V30 1031 H 91.3652 -2.32216 2.29659 0
M  V30 1032 H 90.0242 -0.64165 3.60941 0
M  V30 1033 H 89.6722 -3.09165 3.96769 0
M  V30 1034 H 89.3722 -2.16825 5.46133 0
M  V30 1035 H 90.8962 -3.08117 5.27159 0
M  V30 1036 H 92.3102 -0.845013 5.67038 0
M  V30 1037 H 90.7072 -0.125612 5.99969 0
M  V30 1038 H 91.7772 0.633724 4.80741 0
M  V30 1039 N 93.1203 -1.57491 0.0584922 0
M  V30 1040 C 94.0533 -2.07533 -0.948969 0
M  V30 1041 C 95.0313 -0.977444 -1.29942 0
M  V30 1042 O 96.2153 -1.2499 -1.41102 0
M  V30 1043 C 93.3423 -2.52192 -2.2609 0
M  V30 1044 C 92.3883 -3.73287 -2.06298 0
M  V30 1045 S 93.2213 -5.18603 -1.33459 0
M  V30 1046 C 94.3773 -5.66583 -2.65959 0
M  V30 1047 H 94.6103 -2.92662 -0.523118 0
M  V30 1048 H 92.1433 -1.53631 -0.153954 0
M  V30 1049 H 94.1013 -2.78585 -3.01498 0
M  V30 1050 H 92.7623 -1.67356 -2.65802 0
M  V30 1051 H 91.9553 -4.0248 -3.03357 0
M  V30 1052 H 91.5573 -3.47199 -1.39029 0
M  V30 1053 H 93.8493 -5.72616 -3.62101 0
M  V30 1054 H 94.7923 -6.65684 -2.41393 0
M  V30 1055 H 95.2003 -4.94342 -2.72554 0
M  V30 1056 N 94.5984 0.214957 -1.56127 0
M  V30 1057 C 95.5614 1.24997 -1.92116 0
M  V30 1058 C 96.5614 1.39467 -0.800344 0
M  V30 1059 O 97.7514 1.37619 -1.06802 0
M  V30 1060 C 94.8834 2.62271 -2.17777 0
M  V30 1061 H 96.0764 0.942875 -2.84693 0
M  V30 1062 H 93.6294 0.455654 -1.49511 0
M  V30 1063 H 94.3644 2.98068 -1.27773 0
M  V30 1064 H 94.1494 2.53143 -2.99434 0
M  V30 1065 H 95.6394 3.36946 -2.46693 0
M  V30 1066 N 96.0765 1.50051 0.48192 0
M  V30 1067 C 97.0065 1.71046 1.58951 0
M  V30 1068 C 97.9875 0.559288 1.60642 0
M  V30 1069 O 99.1725 0.797243 1.77081 0
M  V30 1070 C 96.3025 1.79462 2.97339 0
M  V30 1071 C 95.2565 2.94558 3.10515 0
M  V30 1072 C 94.5825 2.88105 4.50444 0
M  V30 1073 C 95.8825 4.35227 2.88747 0
M  V30 1074 H 97.5765 2.6378 1.41635 0
M  V30 1075 H 95.1225 1.26936 0.679942 0
M  V30 1076 H 97.0755 1.92734 3.74742 0
M  V30 1077 H 95.7995 0.833412 3.15788 0
M  V30 1078 H 94.4585 2.80918 2.35543 0
M  V30 1079 H 94.1065 1.89853 4.65795 0
M  V30 1080 H 93.8065 3.65366 4.60197 0
M  V30 1081 H 95.3305 3.03412 5.29881 0
M  V30 1082 H 96.7445 4.49449 3.55905 0
M  V30 1083 H 95.1415 5.13856 3.09955 0
M  V30 1084 H 96.2115 4.48347 1.84696 0
M  V30 1085 N 97.5546 -0.734337 1.39446 0
M  V30 1086 C 98.8016 -1.49391 1.36706 0
M  V30 1087 C 99.1296 -1.94465 -0.0367813 0
M  V30 1088 O 98.3846 -1.67154 -1.01774 0
M  V30 1089 C 98.6836 -2.74711 2.28623 0
M  V30 1090 C 98.3496 -2.48501 3.76242 0
M  V30 1091 C 97.0116 -2.41062 4.16464 0
M  V30 1092 C 99.3636 -2.26098 4.69606 0
M  V30 1093 C 96.6916 -2.09262 5.48112 0
M  V30 1094 C 99.0436 -1.95814 6.01531 0
M  V30 1095 C 97.7076 -1.86845 6.40816 0
M  V30 1096 H 96.9776 -0.546661 0.500243 0
M  V30 1097 H 99.6246 -0.842788 1.71957 0
M  V30 1098 H 97.9296 -3.44569 1.86492 0
M  V30 1099 H 99.6266 -3.32741 2.23796 0
M  V30 1100 H 96.2166 -2.55169 3.44364 0
M  V30 1101 H 100.401 -2.30812 4.39363 0
M  V30 1102 H 95.6566 -2.00841 5.77471 0
M  V30 1103 H 99.8306 -1.77488 6.73403 0
M  V30 1104 H 97.4576 -1.6197 7.42745 0
M  V30 1105 N 99.0327 -1.24633 -0.964593 0
M  V30 1106 C 99.9657 -0.984662 -2.05863 0
M  V30 1107 C 100.944 0.0826554 -1.6239 0
M  V30 1108 O 102.128 -0.0549296 -1.8842 0
M  V30 1109 C 99.2547 -0.486529 -3.35187 0
M  V30 1110 C 98.3007 -1.54286 -3.97615 0
M  V30 1111 S 99.1337 -3.12513 -4.34851 0
M  V30 1112 C 100.29 -2.6441 -5.67308 0
M  V30 1113 H 100.523 -1.91104 -2.27743 0
M  V30 1114 H 98.0557 -1.08052 -1.10291 0
M  V30 1115 H 100.014 -0.205757 -4.09984 0
M  V30 1116 H 98.6747 0.419186 -3.1129 0
M  V30 1117 H 97.8677 -1.14481 -4.90826 0
M  V30 1118 H 97.4697 -1.7738 -3.2926 0
M  V30 1119 H 99.7617 -2.07416 -6.44969 0
M  V30 1120 H 100.705 -3.56222 -6.11973 0
M  V30 1121 H 101.113 -2.04734 -5.26065 0
M  V30 1122 N 100.511 1.16574 -1.06058 0
M  V30 1123 C 101.421 2.2452 -0.680282 0
M  V30 1124 C 102.437 1.71348 0.302604 0
M  V30 1125 O 103.613 2.00822 0.152513 0
M  V30 1126 C 100.678 3.46629 -0.0700315 0
M  V30 1127 C 99.7388 4.14849 -1.10448 0
M  V30 1128 C 98.9718 5.31129 -0.523256 0
M  V30 1129 O 99.1948 5.66514 0.664709 0
M  V30 1130 O 98.1288 5.88526 -1.26179 0
M  V30 1131 H 101.955 2.59355 -1.58015 0
M  V30 1132 H 99.5398 1.24043 -0.832694 0
M  V30 1133 H 101.422 4.20543 0.268667 0
M  V30 1134 H 100.097 3.13573 0.803353 0
M  V30 1135 H 99.0038 3.42916 -1.49532 0
M  V30 1136 H 100.337 4.51954 -1.94931 0
M  V30 1137 N 101.989 0.842826 1.3317 0
M  V30 1138 C 103.235 0.450342 1.98352 0
M  V30 1139 C 103.59 -0.980508 1.65541 0
M  V30 1140 O 102.883 -1.67678 0.927065 0
M  V30 1141 C 103.077 0.612607 3.52111 0
M  V30 1142 C 102.906 2.05768 3.99862 0
M  V30 1143 C 101.676 2.69374 4.27511 0
M  V30 1144 C 103.874 3.02688 4.15794 0
M  V30 1145 N 101.856 4.04915 4.61429 0
M  V30 1146 C 103.227 4.23186 4.53115 0
M  V30 1147 C 105.282 2.99041 3.98094 0
M  V30 1148 C 103.985 5.40518 4.74587 0
M  V30 1149 C 106.011 4.15607 4.20743 0
M  V30 1150 C 105.373 5.3486 4.58371 0
M  V30 1151 H 101.472 0.213296 0.752349 0
M  V30 1152 H 104.056 1.09173 1.61212 0
M  V30 1153 H 102.227 0.000998822 3.884 0
M  V30 1154 H 103.959 0.191179 4.04248 0
M  V30 1155 H 100.714 2.20485 4.19146 0
M  V30 1156 H 101.138 4.74798 4.82593 0
M  V30 1157 H 105.78 2.0797 3.68114 0
M  V30 1158 H 103.498 6.3213 5.03425 0
M  V30 1159 H 107.084 4.14207 4.08563 0
M  V30 1160 H 105.964 6.23558 4.75547 0
M  V30 1161 N 103.467 -1.45747 0.599634 0
M  V30 1162 C 104.713 -2.02592 0.0918643 0
M  V30 1163 C 105.046 -1.46806 -1.27128 0
M  V30 1164 O 104.321 -0.639658 -1.83681 0
M  V30 1165 C 104.604 -3.60073 0.0443398 0
M  V30 1166 C 104.457 -4.26208 1.43759 0
M  V30 1167 C 105.776 -4.35309 -0.647608 0
M  V30 1168 H 102.895 -0.736175 0.034857 0
M  V30 1169 H 105.537 -1.73694 0.770081 0
M  V30 1170 H 103.687 -3.84823 -0.533224 0
M  V30 1171 H 105.359 -4.12668 2.06162 0
M  V30 1172 H 103.602 -3.84916 2.00056 0
M  V30 1173 H 104.273 -5.35069 1.35665 0
M  V30 1174 H 106.749 -4.15805 -0.156776 0
M  V30 1175 H 105.625 -5.45038 -0.649942 0
M  V30 1176 H 105.886 -4.07598 -1.71219 0
M  V30 1177 N 104.945 -0.338344 -1.53925 0
M  V30 1178 C 106.193 0.259245 -2.0043 0
M  V30 1179 C 106.514 1.51484 -1.22791 0
M  V30 1180 O 105.784 1.93037 -0.33368 0
M  V30 1181 H 104.364 0.0987845 -0.740439 0
M  V30 1182 H 107.026 -0.458302 -1.89435 0
M  V30 1183 H 106.122 0.505334 -3.07982 0
M  V30 1184 N 106.423 1.57458 -0.0668435 0
M  V30 1185 C 107.353 2.15468 0.899764 0
M  V30 1186 C 108.334 1.08042 1.31381 0
M  V30 1187 O 109.519 1.36054 1.38574 0
M  V30 1188 C 106.649 2.71232 2.16911 0
M  V30 1189 C 105.603 3.83781 1.89463 0
M  V30 1190 C 104.929 4.26127 3.22986 0
M  V30 1191 C 106.229 5.08238 1.20381 0
M  V30 1192 H 107.923 2.96488 0.416529 0
M  V30 1193 H 105.469 1.4262 0.198908 0
M  V30 1194 H 107.422 3.10458 2.84945 0
M  V30 1195 H 106.146 1.87426 2.67468 0
M  V30 1196 H 104.805 3.45051 1.23836 0
M  V30 1197 H 104.453 3.39249 3.71374 0
M  V30 1198 H 104.153 5.01993 3.05413 0
M  V30 1199 H 105.677 4.67966 3.92225 0
M  V30 1200 H 107.091 5.44811 1.78475 0
M  V30 1201 H 105.488 5.89349 1.13083 0
M  V30 1202 H 106.558 4.84558 0.182153 0
M  V30 1203 N 107.901 -0.206675 1.56239 0
M  V30 1204 C 109.178 -0.954051 1.70755 0
M  V30 1205 C 109.558 -2.01841 0.618353 0
M  V30 1206 O 108.906 -2.25444 -0.372434 0
M  V30 1207 C 109.116 -1.551 3.12642 0
M  V30 1208 C 110.464 -2.03757 3.72516 0
M  V30 1209 O 111.488 -1.64965 3.15698 0
M  V30 1210 O 110.347 -2.75103 4.72208 0
M  V30 1211 H 107.441 -0.446636 0.696021 0
M  V30 1212 H 109.987 -0.197283 1.68549 0
M  V30 1213 H 108.759 -0.783212 3.83382 0
M  V30 1214 H 108.382 -2.37291 3.19028 0
M  V30 1215 N 109.379 -1.50304 -0.473955 0
M  V30 1216 C 110.326 -1.68959 -1.57231 0
M  V30 1217 C 111.296 -0.530899 -1.57387 0
M  V30 1218 O 112.481 -0.761133 -1.74961 0
M  V30 1219 C 109.621 -1.7871 -2.95223 0
M  V30 1220 C 108.734 -3.06061 -3.04878 0
M  V30 1221 C 107.869 -3.06626 -4.33767 0
M  V30 1222 C 106.908 -4.28443 -4.37154 0
M  V30 1223 N 106.045 -4.26763 -5.5751 0
M  V30 1224 H 110.885 -2.6273 -1.40631 0
M  V30 1225 H 108.422 -1.30241 -0.683789 0
M  V30 1226 H 110.38 -1.82344 -3.75242 0
M  V30 1227 H 109.01 -0.883806 -3.10465 0
M  V30 1228 H 108.062 -3.11911 -2.17751 0
M  V30 1229 H 109.374 -3.96039 -3.0324 0
M  V30 1230 H 108.528 -3.08973 -5.22131 0
M  V30 1231 H 107.267 -2.14473 -4.3801 0
M  V30 1232 H 106.272 -4.2631 -3.47188 0
M  V30 1233 H 107.497 -5.2182 -4.34605 0
M  V30 1234 H 105.443 -3.37462 -5.62544 0
M  V30 1235 H 105.36 -5.10507 -5.57601 0
M  V30 1236 H 106.628 -4.33253 -6.48006 0
M  V30 1237 N 110.857 0.726932 -1.39834 0
M  V30 1238 C 112.105 1.4837 -1.37225 0
M  V30 1239 C 112.426 1.94979 0.0284857 0
M  V30 1240 O 111.696 1.69555 0.981213 0
M  V30 1241 H 110.276 0.55043 -0.505011 0
M  V30 1242 H 112.938 0.862468 -1.74778 0
M  V30 1243 H 112.034 2.36198 -2.04003 0
M  V30 1244 N 112.336 1.25143 0.95797 0
M  V30 1245 C 113.269 0.995565 2.05338 0
M  V30 1246 C 114.247 -0.0740423 1.62431 0
M  V30 1247 O 115.431 0.0649212 1.88388 0
M  V30 1248 C 112.558 0.504298 3.34925 0
M  V30 1249 C 111.604 1.56393 3.96792 0
M  V30 1250 S 112.437 3.14815 4.33188 0
M  V30 1251 C 113.593 2.67415 5.65898 0
M  V30 1252 H 113.826 1.92309 2.26726 0
M  V30 1253 H 111.359 1.08635 1.09716 0
M  V30 1254 H 113.317 0.227497 4.09869 0
M  V30 1255 H 111.978 -0.402671 3.11508 0
M  V30 1256 H 111.171 1.17082 4.90212 0
M  V30 1257 H 110.773 1.79124 3.28315 0
M  V30 1258 H 113.065 2.10833 6.4386 0
M  V30 1259 H 114.008 3.59463 6.10076 0
M  V30 1260 H 114.416 2.07521 5.24972 0
M  V30 1261 N 113.814 -1.1601 1.06675 0
M  V30 1262 C 115.23 -1.38622 0.790948 0
M  V30 1263 C 115.43 -1.92109 -0.607965 0
M  V30 1264 O 114.486 -2.12239 -1.36787 0
M  V30 1265 C 115.799 -2.36347 1.85905 0
M  V30 1266 C 117.347 -2.50023 1.88301 0
M  V30 1267 C 117.822 -3.51033 2.94176 0
M  V30 1268 N 119.313 -3.58563 2.93235 0
M  V30 1269 C 120.048 -4.36521 3.71803 0
M  V30 1270 N 119.544 -5.17869 4.602 0
M  V30 1271 N 121.337 -4.31541 3.60178 0
M  V30 1272 H 113.488 -0.796294 1.96908 0
M  V30 1273 H 115.751 -0.412597 0.853503 0
M  V30 1274 H 115.457 -2.04147 2.86386 0
M  V30 1275 H 115.331 -3.36042 1.71334 0
M  V30 1276 H 117.718 -2.81524 0.884769 0
M  V30 1277 H 117.799 -1.5035 2.06951 0
M  V30 1278 H 117.443 -3.20268 3.94196 0
M  V30 1279 H 117.373 -4.50445 2.72776 0
M  V30 1280 H 119.864 -3.00496 2.29152 0
M  V30 1281 H 120.177 -5.74578 5.16797 0
M  V30 1282 H 118.522 -5.17199 4.64253 0
M  V30 1283 H 121.713 -3.67051 2.90502 0
M  V30 1284 H 121.886 -4.9205 4.21653 0
M  V30 1285 N 115.292 -0.849877 -1.32721 0
M  V30 1286 C 116.538 -0.451591 -1.97708 0
M  V30 1287 C 116.871 0.989175 -1.6712 0
M  V30 1288 O 116.146 1.69334 -0.956891 0
M  V30 1289 C 116.429 -0.685598 -3.53513 0
M  V30 1290 C 116.282 -2.17444 -3.93749 0
M  V30 1291 C 117.601 -0.138874 -4.39881 0
M  V30 1292 H 114.72 -0.16555 -0.718166 0
M  V30 1293 H 117.362 -1.06742 -1.57182 0
M  V30 1294 H 115.512 -0.161416 -3.88165 0
M  V30 1295 H 117.184 -2.76433 -3.693 0
M  V30 1296 H 115.427 -2.65476 -3.43081 0
M  V30 1297 H 116.098 -2.28888 -5.02309 0
M  V30 1298 H 118.574 -0.587068 -4.11938 0
M  V30 1299 H 117.45 -0.332213 -5.47894 0
M  V30 1300 H 117.711 0.95806 -4.31594 0
M  V30 1301 N 116.77 1.45427 -0.607355 0
M  V30 1302 C 117.7 2.3329 0.0989352 0
M  V30 1303 C 118.681 1.46816 0.859007 0
M  V30 1304 O 119.866 1.75588 0.829604 0
M  V30 1305 C 116.996 3.29518 1.09705 0
M  V30 1306 C 115.95 4.25626 0.450206 0
M  V30 1307 C 115.276 5.11542 1.55655 0
M  V30 1308 C 116.576 5.18505 -0.628455 0
M  V30 1309 H 118.27 2.92595 -0.634716 0
M  V30 1310 H 115.816 1.40696 -0.306681 0
M  V30 1311 H 117.769 3.89855 1.59971 0
M  V30 1312 H 116.493 2.68372 1.86129 0
M  V30 1313 H 115.152 3.66586 -0.0315886 0
M  V30 1314 H 114.8 4.46765 2.31107 0
M  V30 1315 H 114.5 5.76647 1.12925 0
M  V30 1316 H 116.024 5.74748 2.06148 0
M  V30 1317 H 117.438 5.72916 -0.209877 0
M  V30 1318 H 115.835 5.92085 -0.977489 0
M  V30 1319 H 116.905 4.60948 -1.50514 0
M  V30 1320 N 118.248 0.346503 1.53744 0
M  V30 1321 C 119.158 -0.517293 2.28826 0
M  V30 1322 C 120.174 -1.10935 1.3405 0
M  V30 1323 O 121.35 -1.1244 1.6709 0
M  V30 1324 C 118.415 -1.65098 3.04866 0
M  V30 1325 C 117.476 -1.0884 4.15274 0
M  V30 1326 C 116.709 -2.16806 4.87679 0
M  V30 1327 O 116.932 -3.3758 4.59778 0
M  V30 1328 O 115.866 -1.80934 5.74061 0
M  V30 1329 H 119.692 0.0931396 3.03557 0
M  V30 1330 H 117.277 0.111458 1.48984 0
M  V30 1331 H 119.159 -2.31053 3.5241 0
M  V30 1332 H 117.834 -2.24717 2.32989 0
M  V30 1333 H 116.741 -0.3933 3.72027 0
M  V30 1334 H 118.074 -0.537036 4.89261 0
M  V30 1335 N 119.726 -1.57421 0.075193 0
M  V30 1336 C 120.975 -1.92794 -0.592731 0
M  V30 1337 C 121.288 -0.957478 -1.70563 0
M  V30 1338 O 122.494 -1.20417 -2.43335 0
M  V30 1339 C 120.95 -3.42495 -1.10569 0
M  V30 1340 C 120.558 -4.47994 -0.0236121 0
M  V30 1341 C 122.302 -3.86864 -1.74748 0
M  V30 1342 C 120.209 -5.88829 -0.550803 0
M  V30 1343 H 119.139 -0.719591 -0.225177 0
M  V30 1344 H 121.79 -1.82902 0.147978 0
M  V30 1345 H 120.172 -3.47471 -1.89947 0
M  V30 1346 H 121.346 -4.54637 0.751099 0
M  V30 1347 H 119.661 -4.13113 0.522159 0
M  V30 1348 H 122.258 -4.8947 -2.15229 0
M  V30 1349 H 122.601 -3.24417 -2.60882 0
M  V30 1350 H 123.134 -3.84504 -1.01986 0
M  V30 1351 H 119.873 -6.54929 0.273457 0
M  V30 1352 H 119.393 -5.85698 -1.29296 0
M  V30 1353 H 121.072 -6.38811 -1.02613 0
M  V30 1354 N 121.204 0.198386 -1.56346 0
M  V30 1355 C 122.452 0.91747 -1.80075 0
M  V30 1356 C 122.773 1.83929 -0.647692 0
M  V30 1357 O 122.043 1.93029 0.334166 0
M  V30 1358 H 120.623 0.341774 -0.664228 0
M  V30 1359 H 123.285 0.204684 -1.93822 0
M  V30 1360 H 122.381 1.51055 -2.7311 0
M  V30 1361 N 122.682 1.50554 0.465978 0
M  V30 1362 C 123.93 1.61479 1.21528 0
M  V30 1363 C 124.251 0.319596 1.92363 0
M  V30 1364 O 123.521 -0.663194 1.84333 0
M  V30 1365 H 122.101 0.595055 0.451573 0
M  V30 1366 H 124.763 1.87355 0.53704 0
M  V30 1367 H 123.859 2.42846 1.96042 0
M  V30 1368 N 124.16 -0.719506 1.40217 0
M  V30 1369 C 125.408 -1.47641 1.3801 0
M  V30 1370 C 125.729 -1.94992 -0.018145 0
M  V30 1371 O 124.999 -1.70073 -0.972207 0
M  V30 1372 H 123.579 -0.547744 0.507923 0
M  V30 1373 H 126.241 -0.853187 1.75233 0
M  V30 1374 H 125.337 -2.35112 2.05253 0
M  V30 1375 N 125.638 -1.25649 -0.95132 0
M  V30 1376 C 126.866 -1.13343 -1.73092 0
M  V30 1377 C 127.281 0.312434 -1.86197 0
M  V30 1378 O 126.638 1.21465 -1.36207 0
M  V30 1379 C 126.689 -1.78602 -3.14299 0
M  V30 1380 O 126.41 -3.17537 -3.01831 0
M  V30 1381 C 127.911 -1.72119 -4.08522 0
M  V30 1382 H 125.131 -0.395181 -0.542285 0
M  V30 1383 H 127.675 -1.66076 -1.19328 0
M  V30 1384 H 125.83 -1.29832 -3.64996 0
M  V30 1385 H 126.244 -3.49676 -3.90931 0
M  V30 1386 H 127.718 -2.22435 -5.052 0
M  V30 1387 H 128.195 -0.685635 -4.33815 0
M  V30 1388 H 128.801 -2.20393 -3.63741 0
M  V30 1389 N 127.117 1.15442 -1.07289 0
M  V30 1390 C 128.365 1.85845 -0.794096 0
M  V30 1391 C 128.686 1.82692 0.681809 0
M  V30 1392 O 127.956 1.26741 1.49377 0
M  V30 1393 H 126.536 0.688089 -0.290763 0
M  V30 1394 H 129.198 1.39947 -1.3565 0
M  V30 1395 H 128.294 2.91001 -1.12804 0
M  V30 1396 N 128.595 0.856903 1.32268 0
M  V30 1397 C 129.825 0.47475 2.01071 0
M  V30 1398 C 130.233 -0.933746 1.64553 0
M  V30 1399 O 129.576 -1.62114 0.863989 0
M  V30 1400 C 129.638 0.536746 3.55471 0
M  V30 1401 C 129.302 1.90453 4.15423 0
M  V30 1402 C 130.299 2.87029 4.33486 0
M  V30 1403 C 127.984 2.20229 4.51447 0
M  V30 1404 C 129.978 4.11532 4.86744 0
M  V30 1405 C 127.665 3.44984 5.0441 0
M  V30 1406 C 128.663 4.40452 5.22007 0
M  V30 1407 O 128.351 5.62998 5.73837 0
M  V30 1408 H 128.083 0.184778 0.650256 0
M  V30 1409 H 130.637 1.15615 1.69771 0
M  V30 1410 H 128.867 -0.20152 3.86175 0
M  V30 1411 H 130.556 0.169875 4.05544 0
M  V30 1412 H 131.322 2.6533 4.05986 0
M  V30 1413 H 127.201 1.46705 4.37034 0
M  V30 1414 H 130.745 4.86056 5.00395 0
M  V30 1415 H 126.642 3.66532 5.31342 0
M  V30 1416 H 127.41 5.64987 5.92226 0
M  V30 1417 N 130.073 -1.45103 0.615059 0
M  V30 1418 C 131.021 -2.32331 -0.111791 0
M  V30 1419 C 132.015 -1.46409 -0.852102 0
M  V30 1420 O 133.221 -1.62849 -0.766821 0
M  V30 1421 H 129.596 -0.749993 -0.0549072 0
M  V30 1422 H 131.567 -2.91407 0.642225 0
M  V30 1423 C 130.316 -3.3015 -1.09071 0
M  V30 1424 H 129.639 -3.96265 -0.530485 0
M  V30 1425 H 131.079 -3.93898 -1.56908 0
M  V30 1426 C 129.538 -2.57875 -2.168 0
M  V30 1427 O 130.068 -2.36567 -3.24652 0
M  V30 1428 N 128.274 -2.17884 -1.92289 0
M  V30 1429 H 127.821 -2.35413 -1.04587 0
M  V30 1430 H 127.779 -1.6985 -2.64572 0
M  V30 1431 N 131.551 -0.354651 -1.53558 0
M  V30 1432 C 132.514 0.484566 -2.24019 0
M  V30 1433 C 133.514 1.01861 -1.24422 0
M  V30 1434 O 134.704 0.906097 -1.4878 0
M  V30 1435 C 131.836 1.67615 -2.96847 0
M  V30 1436 H 133.029 -0.131843 -2.9961 0
M  V30 1437 H 130.582 -0.106165 -1.55939 0
M  V30 1438 H 131.317 2.33095 -2.25471 0
M  V30 1439 H 131.102 1.30029 -3.69912 0
M  V30 1440 H 132.592 2.27114 -3.50441 0
M  V30 1441 N 133.029 1.57378 -0.0835403 0
M  V30 1442 C 133.992 2.12252 0.864959 0
M  V30 1443 C 134.992 1.04916 1.21858 0
M  V30 1444 O 136.182 1.30853 1.14991 0
M  V30 1445 C 133.314 2.63358 2.16461 0
M  V30 1446 H 134.507 2.97371 0.388676 0
M  V30 1447 H 132.06 1.55423 0.165317 0
M  V30 1448 H 132.795 1.81727 2.686 0
M  V30 1449 H 132.58 3.41826 1.92087 0
M  V30 1450 H 134.07 3.05847 2.84337 0
M  V30 1451 N 134.507 -0.190092 1.56449 0
M  V30 1452 C 135.753 -0.911052 1.81184 0
M  V30 1453 C 136.086 -1.82699 0.658396 0
M  V30 1454 O 135.361 -1.91491 -0.340775 0
M  V30 1455 C 135.644 -1.72297 3.16205 0
M  V30 1456 C 135.497 -0.831419 4.42049 0
M  V30 1457 C 136.816 -2.69454 3.47969 0
M  V30 1458 H 133.935 -0.32977 0.659106 0
M  V30 1459 H 136.577 -0.178169 1.89163 0
M  V30 1460 H 134.727 -2.34778 3.09534 0
M  V30 1461 H 136.399 -0.220929 4.60771 0
M  V30 1462 H 134.642 -0.138406 4.33579 0
M  V30 1463 H 135.313 -1.43461 5.33032 0
M  V30 1464 H 137.789 -2.17104 3.54972 0
M  V30 1465 H 136.665 -3.23342 4.43555 0
M  V30 1466 H 136.926 -3.48744 2.71717 0
M  V30 1467 N 135.985 -1.50799 -0.457987 0
M  V30 1468 C 136.918 -1.65273 -1.57353 0
M  V30 1469 C 137.896 -0.500578 -1.54703 0
M  V30 1470 O 139.08 -0.721781 -1.74134 0
M  V30 1471 C 136.207 -1.64737 -2.95938 0
M  V30 1472 C 135.253 -2.8567 -3.16693 0
M  V30 1473 S 136.086 -4.46791 -2.95191 0
M  V30 1474 C 137.242 -4.48968 -4.36095 0
M  V30 1475 H 137.475 -2.59633 -1.44838 0
M  V30 1476 H 135.008 -1.40225 -0.64625 0
M  V30 1477 H 136.966 -1.65112 -3.7583 0
M  V30 1478 H 135.627 -0.715899 -3.05833 0
M  V30 1479 H 134.82 -2.81637 -4.17967 0
M  V30 1480 H 134.422 -2.8293 -2.44594 0
M  V30 1481 H 136.714 -4.23337 -5.28954 0
M  V30 1482 H 137.657 -5.50664 -4.45168 0
M  V30 1483 H 138.065 -3.78522 -4.18786 0
M  V30 1484 N 137.463 0.71206 -1.40597 0
M  V30 1485 C 138.688 1.50617 -1.42581 0
M  V30 1486 C 139.113 1.88079 -0.0282102 0
M  V30 1487 O 138.471 1.53511 0.964579 0
M  V30 1488 C 138.519 2.7557 -2.3258 0
M  V30 1489 O 137.623 3.72414 -1.77148 0
M  V30 1490 H 136.964 0.453966 -0.484573 0
M  V30 1491 H 139.494 0.876649 -1.84868 0
M  V30 1492 H 139.504 3.2406 -2.47889 0
M  V30 1493 H 138.179 2.47639 -3.34138 0
M  V30 1494 H 136.756 3.31276 -1.71204 0
M  V30 1495 N 138.941 1.26152 0.944643 0
M  V30 1496 C 140.357 1.03189 1.21754 0
M  V30 1497 C 140.557 -0.245112 2.00004 0
M  V30 1498 O 139.613 -0.955176 2.33736 0
M  V30 1499 C 140.926 2.26119 1.98219 0
M  V30 1500 C 142.474 2.30984 2.11224 0
M  V30 1501 C 142.949 3.53597 2.91089 0
M  V30 1502 N 144.44 3.54053 2.98664 0
M  V30 1503 C 145.175 4.45593 3.60881 0
M  V30 1504 N 144.671 5.47416 4.24626 0
M  V30 1505 N 146.464 4.33252 3.58119 0
M  V30 1506 H 138.615 2.08177 0.421437 0
M  V30 1507 H 140.878 0.914723 0.248969 0
M  V30 1508 H 140.584 3.18984 1.48128 0
M  V30 1509 H 140.458 2.3009 2.98895 0
M  V30 1510 H 142.845 1.38635 2.60508 0
M  V30 1511 H 142.926 2.31026 1.09821 0
M  V30 1512 H 142.57 4.46273 2.42493 0
M  V30 1513 H 142.5 3.50802 3.92741 0
M  V30 1514 H 144.991 2.80403 2.53343 0
M  V30 1515 H 145.304 6.13459 4.69987 0
M  V30 1516 H 143.649 5.51278 4.23223 0
M  V30 1517 H 146.84 3.52924 3.0751 0
M  V30 1518 H 147.013 5.04786 4.06319 0
M  V30 1519 N 140.419 -1.14872 1.07899 0
M  V30 1520 C 141.665 -1.86064 0.806725 0
M  V30 1521 C 141.998 -1.82434 -0.665706 0
M  V30 1522 O 141.273 -1.25138 -1.48899 0
M  V30 1523 C 141.556 -3.34929 1.32267 0
M  V30 1524 C 141.409 -3.47161 2.86006 0
M  V30 1525 C 142.728 -4.29863 0.943717 0
M  V30 1526 H 139.847 -0.675591 0.294526 0
M  V30 1527 H 142.489 -1.34925 1.33773 0
M  V30 1528 H 140.639 -3.78611 0.870974 0
M  V30 1529 H 142.311 -3.12302 3.39507 0
M  V30 1530 H 140.554 -2.88539 3.23925 0
M  V30 1531 H 141.225 -4.51777 3.17177 0
M  V30 1532 H 143.701 -3.9417 1.33302 0
M  V30 1533 H 142.577 -5.32494 1.33198 0
M  V30 1534 H 142.838 -4.41846 -0.149796 0
M  V30 1535 N 141.898 -0.863906 -1.31812 0
M  V30 1536 C 143.144 -0.472535 -1.97218 0
M  V30 1537 C 143.477 0.971394 -1.68159 0
M  V30 1538 O 142.752 1.68309 -0.974798 0
M  V30 1539 C 143.035 -0.723054 -3.52766 0
M  V30 1540 C 142.888 -2.21608 -3.91421 0
M  V30 1541 C 144.207 -0.185522 -4.39709 0
M  V30 1542 H 141.326 -0.173158 -0.71637 0
M  V30 1543 H 143.968 -1.08403 -1.56041 0
M  V30 1544 H 142.118 -0.202577 -3.87971 0
M  V30 1545 H 143.79 -2.80334 -3.66347 0
M  V30 1546 H 142.033 -2.691 -3.40246 0
M  V30 1547 H 142.704 -2.34203 -4.99853 0
M  V30 1548 H 145.18 -0.630726 -4.11292 0
M  V30 1549 H 144.056 -0.390306 -5.47511 0
M  V30 1550 H 144.317 0.912229 -4.32586 0
M  V30 1551 N 143.376 1.44774 -0.622745 0
M  V30 1552 C 144.624 2.01721 -0.123655 0
M  V30 1553 C 144.945 1.49172 1.25589 0
M  V30 1554 O 144.215 0.691974 1.83272 0
M  V30 1555 H 142.795 0.745777 -0.0427225 0
M  V30 1556 H 145.457 1.77382 -0.807559 0
M  V30 1557 H 144.553 3.11984 -0.0849534 0
M  V30 1558 N 144.854 0.36279 1.53368 0
M  V30 1559 C 145.764 -0.492994 2.29362 0
M  V30 1560 C 146.78 -1.09507 1.35219 0
M  V30 1561 O 147.956 -1.10662 1.68273 0
M  V30 1562 C 145.021 -1.61855 3.066 0
M  V30 1563 C 144.082 -1.04429 4.16405 0
M  V30 1564 C 143.315 -2.11621 4.89951 0
M  V30 1565 O 143.538 -3.32684 4.63333 0
M  V30 1566 O 142.472 -1.74835 5.75948 0
M  V30 1567 H 146.298 0.125331 3.03441 0
M  V30 1568 H 143.883 0.127253 1.48857 0
M  V30 1569 H 145.765 -2.27302 3.54841 0
M  V30 1570 H 144.44 -2.22233 2.3536 0
M  V30 1571 H 143.347 -0.353819 3.72423 0
M  V30 1572 H 144.68 -0.485113 4.89804 0
M  V30 1573 N 146.332 -1.57332 0.0918853 0
M  V30 1574 C 147.279 -2.13847 -0.868211 0
M  V30 1575 C 148.249 -1.05618 -1.28196 0
M  V30 1576 O 149.434 -1.33387 -1.36427 0
M  V30 1577 C 146.574 -2.72062 -2.12312 0
M  V30 1578 C 145.687 -3.94514 -1.7602 0
M  V30 1579 C 144.822 -4.40903 -2.96273 0
M  V30 1580 C 143.861 -5.55953 -2.56092 0
M  V30 1581 N 142.998 -5.97209 -3.69169 0
M  V30 1582 H 147.838 -2.95575 -0.379406 0
M  V30 1583 H 145.375 -1.46048 -0.175606 0
M  V30 1584 H 147.333 -3.03931 -2.858 0
M  V30 1585 H 145.963 -1.93068 -2.58698 0
M  V30 1586 H 145.015 -3.68979 -0.925135 0
M  V30 1587 H 146.327 -4.7802 -1.42472 0
M  V30 1588 H 145.481 -4.74539 -3.78018 0
M  V30 1589 H 144.22 -3.56291 -3.33029 0
M  V30 1590 H 143.225 -5.21948 -1.72773 0
M  V30 1591 H 144.45 -6.42311 -2.20484 0
M  V30 1592 H 142.396 -5.15543 -4.05649 0
M  V30 1593 H 142.313 -6.75504 -3.39456 0
M  V30 1594 H 143.581 -6.35475 -4.51434 0
M  V30 1595 N 147.81 0.181792 -1.56548 0
M  V30 1596 C 149.058 0.89832 -1.81038 0
M  V30 1597 C 149.379 1.83232 -0.667164 0
M  V30 1598 O 148.649 1.93372 0.313673 0
M  V30 1599 H 147.229 0.33471 -0.667816 0
M  V30 1600 H 149.891 0.184116 -1.94028 0
M  V30 1601 H 148.987 1.4815 -2.74696 0
M  V30 1602 N 149.288 1.51039 0.449983 0
M  V30 1603 C 150.218 1.74379 1.55288 0
M  V30 1604 C 151.199 0.593236 1.5942 0
M  V30 1605 O 152.384 0.834625 1.7535 0
M  V30 1606 C 149.514 1.85728 2.93466 0
M  V30 1607 C 148.468 3.01078 3.04197 0
M  V30 1608 C 147.794 2.97595 4.44231 0
M  V30 1609 C 149.094 4.41254 2.7945 0
M  V30 1610 H 150.788 2.66725 1.36008 0
M  V30 1611 H 148.334 1.2835 0.652864 0
M  V30 1612 H 150.287 2.0064 3.70569 0
M  V30 1613 H 149.011 0.900207 3.13949 0
M  V30 1614 H 147.67 2.85851 2.29531 0
M  V30 1615 H 147.318 1.99691 4.61663 0
M  V30 1616 H 147.018 3.75046 4.52343 0
M  V30 1617 H 148.542 3.14583 5.23326 0
M  V30 1618 H 149.956 4.56897 3.46292 0
M  V30 1619 H 148.353 5.20315 2.98985 0
M  V30 1620 H 149.423 4.52164 1.75144 0
M  V30 1621 N 150.766 -0.704594 1.40972 0
M  V30 1622 C 152.012 -1.46675 1.40051 0
M  V30 1623 C 152.345 -1.94199 0.00641102 0
M  V30 1624 O 151.62 -1.68916 -0.964235 0
M  V30 1625 C 151.903 -2.68505 2.39952 0
M  V30 1626 C 151.756 -2.26805 3.88432 0
M  V30 1627 C 153.075 -3.70686 2.37233 0
M  V30 1628 H 150.194 -0.532015 0.510028 0
M  V30 1629 H 152.836 -0.803255 1.72185 0
M  V30 1630 H 150.986 -3.25114 2.1268 0
M  V30 1631 H 152.658 -1.75592 4.26574 0
M  V30 1632 H 150.901 -1.58685 4.03734 0
M  V30 1633 H 151.572 -3.14181 4.53866 0
M  V30 1634 H 154.048 -3.23731 2.61415 0
M  V30 1635 H 152.924 -4.53553 3.09162 0
M  V30 1636 H 153.185 -4.19754 1.38777 0
M  V30 1637 N 152.244 -1.26651 -0.937939 0
M  V30 1638 C 153.49 -1.12553 -1.687 0
M  V30 1639 C 153.823 0.329782 -1.91379 0
M  V30 1640 O 153.098 1.24202 -1.4968 0
M  V30 1641 C 153.381 -1.89862 -3.05981 0
M  V30 1642 C 153.234 -3.43318 -2.90607 0
M  V30 1643 C 154.553 -1.69499 -4.0615 0
M  V30 1644 H 151.672 -0.410257 -0.612257 0
M  V30 1645 H 154.314 -1.55685 -1.08913 0
M  V30 1646 H 152.464 -1.53204 -3.57017 0
M  V30 1647 H 154.136 -3.89747 -2.46769 0
M  V30 1648 H 152.379 -3.70179 -2.26164 0
M  V30 1649 H 153.05 -3.92642 -3.8799 0
M  V30 1650 H 155.526 -2.01442 -3.64088 0
M  V30 1651 H 154.402 -2.26002 -5.00214 0
M  V30 1652 H 154.663 -0.640365 -4.37438 0
M  V30 1653 N 153.722 1.14298 -1.08507 0
M  V30 1654 C 154.947 1.8976 -0.837001 0
M  V30 1655 C 155.372 1.78097 0.605228 0
M  V30 1656 O 154.73 1.12188 1.4242 0
M  V30 1657 C 154.778 3.37685 -1.26495 0
M  V30 1658 O 153.882 4.10281 -0.417514 0
M  V30 1659 H 153.223 0.590365 -0.303917 0
M  V30 1660 H 155.753 1.44672 -1.44676 0
M  V30 1661 H 155.763 3.88501 -1.24625 0
M  V30 1662 H 154.438 3.45492 -2.31534 0
M  V30 1663 H 153.015 3.69536 -0.499722 0
M  V30 1664 N 155.201 0.870884 1.31352 0
M  V30 1665 C 156.447 0.482987 1.96965 0
M  V30 1666 C 156.78 -0.962462 1.68672 0
M  V30 1667 O 156.055 -1.6779 0.98371 0
M  V30 1668 C 156.338 0.741752 3.52378 0
M  V30 1669 C 156.191 2.2368 3.9024 0
M  V30 1670 C 157.51 0.208838 4.39604 0
M  V30 1671 H 154.629 0.176955 0.715441 0
M  V30 1672 H 157.271 1.09229 1.55464 0
M  V30 1673 H 155.421 0.223149 3.87859 0
M  V30 1674 H 157.093 2.82273 3.64856 0
M  V30 1675 H 155.336 2.70901 3.38814 0
M  V30 1676 H 156.007 2.3685 4.98604 0
M  V30 1677 H 158.483 0.652529 4.10952 0
M  V30 1678 H 157.359 0.419336 5.47296 0
M  V30 1679 H 157.62 -0.889275 4.33064 0
M  V30 1680 N 156.679 -1.44442 0.630414 0
M  V30 1681 C 157.589 -2.34476 -0.0761693 0
M  V30 1682 C 158.605 -1.52576 -0.836449 0
M  V30 1683 O 159.781 -1.85307 -0.788874 0
M  V30 1684 C 156.846 -3.30545 -1.04599 0
M  V30 1685 C 155.907 -4.28352 -0.28516 0
M  V30 1686 C 155.14 -5.19831 -1.20878 0
M  V30 1687 O 155.363 -5.15223 -2.44747 0
M  V30 1688 O 154.297 -5.97892 -0.693491 0
M  V30 1689 H 158.123 -2.96345 0.664324 0
M  V30 1690 H 155.708 -1.44203 0.39061 0
M  V30 1691 H 157.59 -3.89681 -1.60396 0
M  V30 1692 H 156.265 -2.7121 -1.76711 0
M  V30 1693 H 155.172 -3.72764 0.315837 0
M  V30 1694 H 156.505 -4.90605 0.395924 0
M  V30 1695 N 158.157 -0.370918 -1.53173 0
M  V30 1696 C 159.387 0.217389 -2.05453 0
M  V30 1697 C 159.795 1.42568 -1.24382 0
M  V30 1698 O 159.138 1.81571 -0.278839 0
M  V30 1699 C 159.2 0.669827 -3.53205 0
M  V30 1700 C 158.864 -0.4225 -4.55043 0
M  V30 1701 C 159.861 -1.27407 -5.04047 0
M  V30 1702 C 157.546 -0.58427 -4.9889 0
M  V30 1703 C 159.54 -2.27271 -5.95505 0
M  V30 1704 C 157.227 -1.58627 -5.90153 0
M  V30 1705 C 158.225 -2.42892 -6.38351 0
M  V30 1706 O 157.913 -3.41382 -7.27814 0
M  V30 1707 H 157.645 0.0408171 -0.674767 0
M  V30 1708 H 160.199 -0.5292 -1.98466 0
M  V30 1709 H 158.429 1.4681 -3.57748 0
M  V30 1710 H 160.118 1.18173 -3.88317 0
M  V30 1711 H 160.884 -1.16031 -4.70916 0
M  V30 1712 H 156.763 0.061851 -4.60959 0
M  V30 1713 H 160.307 -2.93079 -6.33049 0
M  V30 1714 H 156.204 -1.70048 -6.22699 0
M  V30 1715 H 156.972 -3.37173 -7.45826 0
M  V30 1716 N 159.635 1.57281 -0.100228 0
M  V30 1717 C 160.86 1.99302 0.573881 0
M  V30 1718 C 161.285 0.979059 1.60611 0
M  V30 1719 O 160.643 -0.0517803 1.81226 0
M  V30 1720 C 160.691 3.40274 1.19358 0
M  V30 1721 O 159.795 3.41676 2.30935 0
M  V30 1722 H 159.136 0.647944 0.145138 0
M  V30 1723 H 161.666 2.03779 -0.183156 0
M  V30 1724 H 161.676 3.78078 1.53365 0
M  V30 1725 H 160.351 4.13594 0.437385 0
M  V30 1726 H 158.928 3.15672 1.98509 0
M  V30 1727 N 161.113 -0.173488 1.56642 0
M  V30 1728 C 162.529 -0.525174 1.50712 0
M  V30 1729 C 162.729 -1.8476 0.804107 0
M  V30 1730 O 161.785 -2.49869 0.363574 0
M  V30 1731 C 163.098 -0.559937 2.95441 0
M  V30 1732 C 164.646 -0.647288 3.06234 0
M  V30 1733 C 165.121 -0.712963 4.52417 0
M  V30 1734 N 166.612 -0.775911 4.56655 0
M  V30 1735 C 167.347 -0.847264 5.67106 0
M  V30 1736 N 166.843 -0.879585 6.87194 0
M  V30 1737 N 168.636 -0.886117 5.55071 0
M  V30 1738 H 160.787 0.693681 2.00753 0
M  V30 1739 H 163.05 0.249841 0.914485 0
M  V30 1740 H 162.756 0.343049 3.50023 0
M  V30 1741 H 162.63 -1.40718 3.49969 0
M  V30 1742 H 165.017 -1.5407 2.51687 0
M  V30 1743 H 165.098 0.226586 2.54794 0
M  V30 1744 H 164.742 0.176183 5.07594 0
M  V30 1745 H 164.672 -1.60295 5.0161 0
M  V30 1746 H 167.163 -0.759304 3.70193 0
M  V30 1747 H 167.476 -0.935144 7.67121 0
M  V30 1748 H 165.821 -0.847898 6.89808 0
M  V30 1749 H 169.012 -0.857853 4.60172 0
M  V30 1750 H 169.185 -0.938263 6.41171 0
M  V30 1751 N 162.591 -1.51276 -0.441967 0
M  V30 1752 C 163.538 -1.72256 -1.53612 0
M  V30 1753 C 164.508 -0.564164 -1.56225 0
M  V30 1754 O 165.693 -0.798074 -1.73307 0
M  V30 1755 C 162.833 -1.84932 -2.91366 0
M  V30 1756 C 161.946 -3.12459 -2.98317 0
M  V30 1757 C 161.081 -3.15758 -4.27166 0
M  V30 1758 C 160.12 -4.37619 -4.27967 0
M  V30 1759 N 159.257 -4.38493 -5.48333 0
M  V30 1760 H 164.097 -2.65654 -1.35026 0
M  V30 1761 H 161.634 -1.31662 -0.656009 0
M  V30 1762 H 163.592 -1.90263 -3.7129 0
M  V30 1763 H 162.222 -0.949461 -3.08521 0
M  V30 1764 H 161.274 -3.1646 -2.11086 0
M  V30 1765 H 162.586 -4.02382 -2.94771 0
M  V30 1766 H 161.74 -3.19979 -5.15459 0
M  V30 1767 H 160.479 -2.23715 -4.33362 0
M  V30 1768 H 159.484 -4.33579 -3.38067 0
M  V30 1769 H 160.709 -5.30921 -4.23438 0
M  V30 1770 H 158.655 -3.49318 -5.55259 0
M  V30 1771 H 158.572 -5.22219 -5.46647 0
M  V30 1772 H 159.84 -4.469 -6.38671 0
M  V30 1773 N 164.069 0.697108 -1.41344 0
M  V30 1774 C 165.318 1.45279 -1.39918 0
M  V30 1775 C 165.631 1.95597 -0.0109624 0
M  V30 1776 O 166.837 2.71208 0.125919 0
M  V30 1777 C 165.293 2.62695 -2.46007 0
M  V30 1778 C 164.901 2.19169 -3.90729 0
M  V30 1779 C 166.645 3.40336 -2.53715 0
M  V30 1780 C 164.552 3.33535 -4.88373 0
M  V30 1781 H 163.482 0.545692 -0.520323 0
M  V30 1782 H 166.133 0.756929 -1.67161 0
M  V30 1783 H 164.515 3.34541 -2.11892 0
M  V30 1784 H 165.689 1.54623 -4.34083 0
M  V30 1785 H 164.004 1.54525 -3.86666 0
M  V30 1786 H 166.601 4.2547 -3.2385 0
M  V30 1787 H 166.944 3.85418 -1.5735 0
M  V30 1788 H 167.477 2.75546 -2.86913 0
M  V30 1789 H 164.216 2.93468 -5.86137 0
M  V30 1790 H 163.736 3.96936 -4.49668 0
M  V30 1791 H 165.415 3.99335 -5.09059 0
M  V30 1792 N 165.547 1.27147 0.931209 0
M  V30 1793 C 166.787 1.14511 1.69312 0
M  V30 1794 C 167.151 -0.304638 1.89568 0
M  V30 1795 O 168.352 -0.553343 2.63043 0
M  V30 1796 C 166.623 1.90349 3.02493 0
M  V30 1797 S 168.182 1.93884 3.93642 0
M  V30 1798 H 165 0.408858 0.581684 0
M  V30 1799 H 167.602 1.61006 1.10893 0
M  V30 1800 H 166.306 2.94877 2.85439 0
M  V30 1801 H 165.837 1.44333 3.65966 0
M  V30 1802 H 167.852 1.03273 4.85334 0
M  V30 1803 N 167.025 -1.13721 1.09112 0
M  V30 1804 C 167.935 -2.22638 0.73957 0
M  V30 1805 C 168.951 -1.72091 -0.257068 0
M  V30 1806 O 170.127 -2.01155 -0.0992154 0
M  V30 1807 C 167.192 -3.46322 0.16191 0
M  V30 1808 C 166.253 -4.11775 1.21408 0
M  V30 1809 C 165.486 -5.29555 0.663891 0
M  V30 1810 O 165.709 -5.68077 -0.514274 0
M  V30 1811 O 164.643 -5.84973 1.41738 0
M  V30 1812 H 168.469 -2.55074 1.64836 0
M  V30 1813 H 166.054 -1.21791 0.865289 0
M  V30 1814 H 167.936 -4.21107 -0.157073 0
M  V30 1815 H 166.611 -3.15593 -0.719932 0
M  V30 1816 H 165.518 -3.3883 1.58571 0
M  V30 1817 H 166.851 -4.46627 2.06845 0
M  V30 1818 N 168.503 -0.877838 -1.30888 0
M  V30 1819 C 169.752 -0.488793 -1.95688 0
M  V30 1820 C 170.065 0.965485 -1.70111 0
M  V30 1821 O 171.271 1.46104 -2.28836 0
M  V30 1822 C 169.727 -0.823201 -3.50359 0
M  V30 1823 C 169.335 -2.29477 -3.84765 0
M  V30 1824 C 171.079 -0.503009 -4.21509 0
M  V30 1825 C 168.986 -2.57118 -5.32583 0
M  V30 1826 H 167.916 -0.179062 -0.732429 0
M  V30 1827 H 170.567 -1.07183 -1.48943 0
M  V30 1828 H 168.949 -0.169331 -3.95638 0
M  V30 1829 H 170.123 -2.99236 -3.5042 0
M  V30 1830 H 168.438 -2.58178 -3.267 0
M  V30 1831 H 171.035 -0.68665 -5.30273 0
M  V30 1832 H 171.378 0.557109 -4.12555 0
M  V30 1833 H 171.911 -1.11376 -3.8189 0
M  V30 1834 H 168.65 -3.61843 -5.4658 0
M  V30 1835 H 168.17 -1.91961 -5.68253 0
M  V30 1836 H 169.849 -2.42251 -5.99936 0
M  V30 1837 N 169.982 1.44106 -0.638065 0
M  V30 1838 C 170.945 2.29138 0.0531013 0
M  V30 1839 C 171.945 1.41409 0.765506 0
M  V30 1840 O 173.135 1.63206 0.609046 0
M  V30 1841 C 170.267 3.23144 1.08584 0
M  V30 1842 H 171.46 2.91739 -0.694883 0
M  V30 1843 H 169.013 1.51134 -0.398538 0
M  V30 1844 H 169.748 2.65408 1.86357 0
M  V30 1845 H 169.533 3.87804 0.578852 0
M  V30 1846 H 171.023 3.87004 1.56899 0
M  V30 1847 N 171.46 0.379036 1.52974 0
M  V30 1848 C 172.407 -0.461048 2.26148 0
M  V30 1849 C 173.377 -1.06637 1.27349 0
M  V30 1850 O 174.562 -1.09633 1.56157 0
M  V30 1851 C 171.702 -1.58782 3.06402 0
M  V30 1852 C 170.815 -1.00636 4.20115 0
M  V30 1853 C 169.95 -2.10334 4.87784 0
M  V30 1854 C 168.989 -1.49724 5.93506 0
M  V30 1855 N 168.126 -2.5331 6.54812 0
M  V30 1856 H 172.966 0.169429 2.97518 0
M  V30 1857 H 170.503 0.0953806 1.4679 0
M  V30 1858 H 172.461 -2.25174 3.51215 0
M  V30 1859 H 171.091 -2.18876 2.37261 0
M  V30 1860 H 170.143 -0.232332 3.7969 0
M  V30 1861 H 171.455 -0.523343 4.96047 0
M  V30 1862 H 170.609 -2.84519 5.35849 0
M  V30 1863 H 169.348 -2.61992 4.11353 0
M  V30 1864 H 168.353 -0.740598 5.44789 0
M  V30 1865 H 169.578 -0.988732 6.71864 0
M  V30 1866 H 167.524 -3.04156 5.81227 0
M  V30 1867 H 167.441 -2.09734 7.26325 0
M  V30 1868 H 168.709 -3.27155 7.07524 0
M  V30 1869 N 172.938 -1.57226 0.108567 0
M  V30 1870 C 174.354 -1.5766 -0.248058 0
M  V30 1871 C 174.554 -1.12063 -1.67464 0
M  V30 1872 O 173.61 -0.803236 -2.39383 0
M  V30 1873 C 174.923 -3.0069 -0.0242287 0
M  V30 1874 C 176.471 -3.12868 -0.0909372 0
M  V30 1875 C 176.946 -4.57879 0.105067 0
M  V30 1876 N 178.437 -4.63172 0.0506846 0
M  V30 1877 C 179.172 -5.73126 0.177396 0
M  V30 1878 N 178.668 -6.91866 0.359696 0
M  V30 1879 N 180.461 -5.61977 0.117709 0
M  V30 1880 H 172.612 -1.85169 1.04049 0
M  V30 1881 H 174.875 -0.85529 0.40888 0
M  V30 1882 H 174.581 -3.38299 0.961604 0
M  V30 1883 H 174.455 -3.6945 -0.76068 0
M  V30 1884 H 176.842 -2.75124 -1.06729 0
M  V30 1885 H 176.923 -2.46672 0.677225 0
M  V30 1886 H 176.567 -4.96321 1.07834 0
M  V30 1887 H 176.497 -5.22153 -0.682954 0
M  V30 1888 H 178.988 -3.778 -0.0871266 0
M  V30 1889 H 179.301 -7.71503 0.447529 0
M  V30 1890 H 177.646 -6.93874 0.395536 0
M  V30 1891 H 180.837 -4.68094 -0.0236741 0
M  V30 1892 H 181.01 -6.47627 0.219905 0
M  V30 1893 N 174.416 0.165178 -1.56732 0
M  V30 1894 C 175.364 1.22369 -1.97809 0
M  V30 1895 C 176.358 1.45488 -0.867741 0
M  V30 1896 O 177.564 1.45995 -1.05288 0
M  V30 1897 H 173.939 0.411486 -0.629431 0
M  V30 1898 H 175.91 0.850425 -2.86025 0
M  V30 1899 C 174.659 2.55403 -2.35934 0
M  V30 1900 H 173.982 2.38438 -3.20916 0
M  V30 1901 H 175.422 3.2814 -2.68514 0
M  V30 1902 C 173.881 3.14611 -1.20506 0
M  V30 1903 O 174.411 3.98626 -0.496016 0
M  V30 1904 N 172.617 2.7379 -0.97403 0
M  V30 1905 H 172.164 2.0557 -1.55238 0
M  V30 1906 H 172.122 3.1374 -0.203573 0
M  V30 1907 N 175.894 1.51508 0.433938 0
M  V30 1908 C 177.14 1.64588 1.18484 0
M  V30 1909 C 177.473 0.362666 1.90784 0
M  V30 1910 O 176.748 -0.637892 1.83742 0
M  V30 1911 C 177.031 2.85149 2.19913 0
M  V30 1912 C 176.884 4.23456 1.51674 0
M  V30 1913 C 178.203 3.01227 3.20858 0
M  V30 1914 H 175.322 0.598994 0.429389 0
M  V30 1915 H 177.964 1.84002 0.473647 0
M  V30 1916 H 176.114 2.68729 2.80566 0
M  V30 1917 H 177.786 4.51552 0.943322 0
M  V30 1918 H 176.029 4.25998 0.819035 0
M  V30 1919 H 176.7 5.03812 2.2556 0
M  V30 1920 H 179.176 3.16382 2.70263 0
M  V30 1921 H 178.052 3.87141 3.89118 0
M  V30 1922 H 178.313 2.13447 3.8716 0
M  V30 1923 N 177.372 -0.689602 1.41712 0
M  V30 1924 C 178.282 -1.83314 1.46401 0
M  V30 1925 C 179.298 -1.7036 0.35405 0
M  V30 1926 O 180.474 -1.92171 0.602692 0
M  V30 1927 C 177.539 -3.19344 1.34982 0
M  V30 1928 C 176.6 -3.44363 2.56344 0
M  V30 1929 C 175.833 -4.73904 2.45461 0
M  V30 1930 O 176.056 -5.508 1.48241 0
M  V30 1931 O 174.99 -4.99839 3.35328 0
M  V30 1932 H 178.816 -1.82314 2.42889 0
M  V30 1933 H 176.401 -0.843438 1.23315 0
M  V30 1934 H 178.283 -4.00547 1.3092 0
M  V30 1935 H 176.958 -3.21014 0.41612 0
M  V30 1936 H 175.865 -2.63067 2.65982 0
M  V30 1937 H 177.198 -3.47512 3.48563 0
M  V30 1938 N 178.85 -1.27639 -0.924453 0
M  V30 1939 C 180.266 -1.05113 -1.20097 0
M  V30 1940 C 180.466 0.213262 -2.00368 0
M  V30 1941 O 179.522 0.91787 -2.35226 0
M  V30 1942 C 180.835 -2.29244 -1.94596 0
M  V30 1943 C 182.383 -2.34315 -2.07522 0
M  V30 1944 C 182.858 -3.58183 -2.85427 0
M  V30 1945 N 184.349 -3.5876 -2.92994 0
M  V30 1946 C 185.084 -4.51277 -3.53746 0
M  V30 1947 N 184.58 -5.54102 -4.15863 0
M  V30 1948 N 186.373 -4.38894 -3.51181 0
M  V30 1949 H 178.524 -2.08821 -0.388264 0
M  V30 1950 H 180.787 -0.918568 -0.234385 0
M  V30 1951 H 180.493 -3.21301 -1.43034 0
M  V30 1952 H 180.367 -2.34816 -2.95197 0
M  V30 1953 H 182.754 -1.42762 -2.58269 0
M  V30 1954 H 182.835 -2.32744 -1.06131 0
M  V30 1955 H 182.479 -4.50074 -2.35363 0
M  V30 1956 H 182.409 -3.57006 -3.8711 0
M  V30 1957 H 184.9 -2.84398 -2.4885 0
M  V30 1958 H 185.213 -6.20859 -4.60168 0
M  V30 1959 H 183.558 -5.57941 -4.144 0
M  V30 1960 H 186.749 -3.57772 -3.01856 0
M  V30 1961 H 186.922 -5.11186 -3.98237 0
M  V30 1962 N 180.328 1.1314 -1.09713 0
M  V30 1963 C 181.258 2.20748 -0.761102 0
M  V30 1964 C 182.239 1.68061 0.262566 0
M  V30 1965 O 183.424 1.93765 0.129977 0
M  V30 1966 C 180.554 3.46812 -0.184054 0
M  V30 1967 C 179.508 4.12606 -1.13757 0
M  V30 1968 C 178.834 5.33031 -0.422083 0
M  V30 1969 C 180.134 4.59603 -2.48118 0
M  V30 1970 H 181.828 2.49113 -1.66082 0
M  V30 1971 H 179.374 1.19734 -0.799987 0
M  V30 1972 H 181.327 4.21353 0.0631215 0
M  V30 1973 H 180.051 3.17851 0.750868 0
M  V30 1974 H 178.71 3.40036 -1.37007 0
M  V30 1975 H 178.358 5.00335 0.517072 0
M  V30 1976 H 178.058 5.77999 -1.05788 0
M  V30 1977 H 179.582 6.10325 -0.183277 0
M  V30 1978 H 180.996 5.25552 -2.29059 0
M  V30 1979 H 179.393 5.15321 -3.07514 0
M  V30 1980 H 180.463 3.73971 -3.08665 0
M  V30 1981 N 181.806 0.884767 1.30421 0
M  V30 1982 C 183.054 0.502112 1.95763 0
M  V30 1983 C 183.375 -0.951815 1.70192 0
M  V30 1984 O 182.645 -1.6692 1.0254 0
M  V30 1985 H 181.225 0.182694 0.724315 0
M  V30 1986 H 183.887 1.1278 1.58955 0
M  V30 1987 H 182.983 0.672188 3.04775 0
M  V30 1988 N 183.284 -1.43765 0.645699 0
M  V30 1989 C 184.533 -2.01116 0.153412 0
M  V30 1990 C 184.846 -1.51493 -1.23731 0
M  V30 1991 O 186.052 -2.01067 -1.8244 0
M  V30 1992 C 184.508 -3.59206 0.223473 0
M  V30 1993 C 184.116 -4.17823 1.61642 0
M  V30 1994 C 185.86 -4.23972 -0.211597 0
M  V30 1995 C 183.767 -5.68183 1.64081 0
M  V30 1996 H 182.697 -0.752093 0.0535891 0
M  V30 1997 H 185.348 -1.6482 0.806633 0
M  V30 1998 H 183.73 -3.92867 -0.497118 0
M  V30 1999 H 184.904 -3.95674 2.36176 0
M  V30 2000 H 183.219 -3.65399 1.99681 0
M  V30 2001 H 185.816 -5.34275 -0.213112 0
M  V30 2002 H 186.159 -3.97352 -1.24165 0
M  V30 2003 H 186.692 -3.95166 0.456988 0
M  V30 2004 H 183.431 -5.99559 2.64971 0
M  V30 2005 H 182.951 -5.9241 0.938611 0
M  V30 2006 H 184.63 -6.32085 1.3812 0
M  V30 2007 N 184.763 -0.387143 -1.52771 0
M  V30 2008 C 185.673 0.456442 -2.30117 0
M  V30 2009 C 186.689 1.07342 -1.36944 0
M  V30 2010 O 187.865 1.07971 -1.70013 0
M  V30 2011 C 184.93 1.56957 -3.09136 0
M  V30 2012 C 183.991 0.977916 -4.18014 0
M  V30 2013 C 183.224 2.038 -4.93256 0
M  V30 2014 O 183.447 3.25271 -4.68567 0
M  V30 2015 O 182.381 1.6565 -5.78657 0
M  V30 2016 H 186.207 -0.17359 -3.03203 0
M  V30 2017 H 183.792 -0.150919 -1.48636 0
M  V30 2018 H 185.674 2.21628 -3.58412 0
M  V30 2019 H 184.349 2.18461 -2.38865 0
M  V30 2020 H 183.256 0.294525 -3.72939 0
M  V30 2021 H 184.589 0.407128 -4.90513 0
M  V30 2022 N 186.241 1.57166 -0.116904 0
M  V30 2023 C 187.189 2.16457 0.851418 0
M  V30 2024 C 188.183 1.11323 1.27686 0
M  V30 2025 O 189.389 1.2963 1.24884 0
M  V30 2026 H 185.764 0.69271 0.292672 0
M  V30 2027 H 187.735 2.96605 0.32685 0
M  V30 2028 C 186.484 2.77689 2.09246 0
M  V30 2029 H 185.807 3.58285 1.77402 0
M  V30 2030 H 187.247 3.22716 2.7501 0
M  V30 2031 C 185.706 1.74667 2.88085 0
M  V30 2032 O 186.236 1.19877 3.83396 0
M  V30 2033 N 184.442 1.44656 2.52038 0
M  V30 2034 H 183.989 1.89402 1.74599 0
M  V30 2035 H 183.947 0.759675 3.05084 0
M  V30 2036 N 187.719 -0.156864 1.56817 0
M  V30 2037 C 188.965 -0.872416 1.83076 0
M  V30 2038 C 189.298 -1.81261 0.697001 0
M  V30 2039 O 188.573 -1.92171 -0.30008 0
M  V30 2040 C 188.856 -1.65551 3.19789 0
M  V30 2041 C 188.709 -0.737467 4.43713 0
M  V30 2042 C 190.028 -2.62012 3.53606 0
M  V30 2043 H 187.147 -0.315715 0.665953 0
M  V30 2044 H 189.789 -0.138004 1.89498 0
M  V30 2045 H 187.939 -2.28159 3.14445 0
M  V30 2046 H 189.611 -0.123143 4.61136 0
M  V30 2047 H 187.854 -0.0464067 4.33775 0
M  V30 2048 H 188.525 -1.32122 5.35955 0
M  V30 2049 H 191.001 -2.09525 3.59497 0
M  V30 2050 H 189.877 -3.13861 4.50314 0
M  V30 2051 H 190.138 -3.42902 2.79053 0
M  V30 2052 N 189.197 -1.51736 -0.425897 0
M  V30 2053 C 190.446 -1.64201 -1.17136 0
M  V30 2054 C 190.759 -0.369705 -1.92074 0
M  V30 2055 O 191.965 -0.373898 -2.68913 0
M  V30 2056 C 190.421 -2.90035 -2.13091 0
M  V30 2057 C 190.029 -4.24312 -1.43747 0
M  V30 2058 C 191.773 -3.1186 -2.87999 0
M  V30 2059 C 189.68 -5.41285 -2.38253 0
M  V30 2060 H 188.61 -0.611624 -0.440944 0
M  V30 2061 H 191.261 -1.78212 -0.437328 0
M  V30 2062 H 189.643 -2.69684 -2.89977 0
M  V30 2063 H 190.817 -4.55086 -0.723408 0
M  V30 2064 H 189.132 -4.08456 -0.809465 0
M  V30 2065 H 191.729 -3.96427 -3.58817 0
M  V30 2066 H 192.072 -2.25403 -3.49999 0
M  V30 2067 H 192.605 -3.32605 -2.18217 0
M  V30 2068 H 189.344 -6.30037 -1.80925 0
M  V30 2069 H 188.864 -5.14872 -3.0768 0
M  V30 2070 H 190.543 -5.73694 -2.99139 0
M  V30 2071 N 190.675 0.682077 -1.42076 0
M  V30 2072 C 191.922 1.44215 -1.42156 0
M  V30 2073 C 192.25 1.94468 -0.0354186 0
M  V30 2074 O 191.505 1.70816 0.955002 0
M  V30 2075 C 191.804 2.66036 -2.38662 0
M  V30 2076 C 191.47 2.34366 -3.85206 0
M  V30 2077 C 190.132 2.25439 -4.25124 0
M  V30 2078 C 192.484 2.08513 -4.77673 0
M  V30 2079 C 189.812 1.88775 -5.55501 0
M  V30 2080 C 192.164 1.73354 -6.08384 0
M  V30 2081 C 190.828 1.62933 -6.47309 0
M  V30 2082 H 190.098 0.527718 -0.520187 0
M  V30 2083 H 192.745 0.778387 -1.74967 0
M  V30 2084 H 191.05 3.3741 -1.99152 0
M  V30 2085 H 192.747 3.24205 -2.35991 0
M  V30 2086 H 189.337 2.42213 -3.53597 0
M  V30 2087 H 193.521 2.14346 -4.47626 0
M  V30 2088 H 188.777 1.7927 -5.84527 0
M  V30 2089 H 192.951 1.52373 -6.79526 0
M  V30 2090 H 190.578 1.34292 -7.48244 0
M  V30 2091 N 192.153 1.28127 0.917671 0
M  V30 2092 C 193.399 1.15223 1.66888 0
M  V30 2093 C 193.732 -0.299293 1.9188 0
M  V30 2094 O 193.007 -1.21805 1.51637 0
M  V30 2095 C 193.29 1.94706 3.02922 0
M  V30 2096 C 193.143 3.47898 2.85109 0
M  V30 2097 C 194.462 1.75939 4.03402 0
M  V30 2098 H 191.581 0.419946 0.605652 0
M  V30 2099 H 194.223 1.57398 1.06423 0
M  V30 2100 H 192.373 1.58864 3.54534 0
M  V30 2101 H 194.045 3.93624 2.40537 0
M  V30 2102 H 192.288 3.7373 2.20246 0
M  V30 2103 H 192.959 3.98765 3.81694 0
M  V30 2104 H 195.435 2.07209 3.60837 0
M  V30 2105 H 194.311 2.33931 4.96556 0
M  V30 2106 H 194.572 0.709877 4.36364 0
M  V30 2107 N 193.631 -1.12557 1.10312 0
M  V30 2108 C 194.871 -1.8568 0.854543 0
M  V30 2109 C 195.235 -1.82091 -0.608843 0
M  V30 2110 O 196.436 -2.50544 -0.973717 0
M  V30 2111 C 194.707 -3.2942 1.38626 0
M  V30 2112 S 196.266 -4.19931 1.27293 0
M  V30 2113 H 193.084 -0.640427 0.308827 0
M  V30 2114 H 195.686 -1.35599 1.40831 0
M  V30 2115 H 194.39 -3.2959 2.44537 0
M  V30 2116 H 193.921 -3.84566 0.82902 0
M  V30 2117 H 195.936 -4.95668 0.229776 0
M  V30 2118 N 195.109 -0.891671 -1.2995 0
M  V30 2119 C 196.357 -0.512486 -1.95494 0
M  V30 2120 C 196.678 0.942776 -1.70695 0
M  V30 2121 O 195.948 1.66374 -1.03424 0
M  V30 2122 H 194.528 -0.186533 -0.723336 0
M  V30 2123 H 197.19 -1.13621 -1.58355 0
M  V30 2124 H 196.286 -0.688342 -3.04415 0
M  V30 2125 N 196.587 1.43421 -0.653314 0
M  V30 2126 C 197.864 1.95361 -0.0966581 0
M  V30 2127 C 198.244 1.59461 1.38331 0
M  V30 2128 O 197.592 0.879777 2.10884 0
M  V30 2129 C 197.802 3.47311 -0.342988 0
M  V30 2130 C 199.15 4.23875 -0.24798 0
M  V30 2131 O 200.174 3.55133 -0.275553 0
M  V30 2132 O 199.033 5.4623 -0.171771 0
M  V30 2133 H 196.127 0.826945 0.00956291 0
M  V30 2134 H 198.673 1.5336 -0.726558 0
M  V30 2135 H 197.445 3.66569 -1.36906 0
M  V30 2136 H 197.068 3.9631 0.319975 0
M  V30 2137 N 198.065 0.39524 1.52563 0
M  V30 2138 C 199.313 -0.184678 2.01254 0
M  V30 2139 C 199.634 -1.46822 1.28329 0
M  V30 2140 O 198.904 -1.91666 0.405094 0
M  V30 2141 H 197.484 -0.0712355 0.743596 0
M  V30 2142 H 200.146 0.528293 1.87603 0
M  V30 2143 H 199.242 -0.390681 3.09645 0
M  V30 2144 N 199.544 -1.57102 0.125237 0
M  V30 2145 C 200.774 -1.99472 -0.538015 0
M  V30 2146 C 201.182 -1.00395 -1.60366 0
M  V30 2147 O 200.525 0.0103875 -1.83697 0
M  V30 2148 C 200.587 -3.38262 -1.21734 0
M  V30 2149 C 200.251 -4.56021 -0.298897 0
M  V30 2150 C 201.248 -5.17817 0.464943 0
M  V30 2151 C 198.933 -5.01869 -0.208149 0
M  V30 2152 C 200.927 -6.23852 1.3072 0
M  V30 2153 C 198.614 -6.07763 0.637736 0
M  V30 2154 C 199.612 -6.68622 1.39403 0
M  V30 2155 O 199.3 -7.7247 2.22586 0
M  V30 2156 H 199.032 -0.659934 -0.146501 0
M  V30 2157 H 201.586 -2.04321 0.210267 0
M  V30 2158 H 199.816 -3.30185 -2.01282 0
M  V30 2159 H 201.505 -3.6488 -1.77813 0
M  V30 2160 H 202.271 -4.83308 0.404741 0
M  V30 2161 H 198.15 -4.54241 -0.786522 0
M  V30 2162 H 201.694 -6.71284 1.898 0
M  V30 2163 H 197.591 -6.41701 0.699309 0
M  V30 2164 H 198.359 -7.89595 2.15596 0
M  V30 2165 N 201.022 0.148545 -1.56898 0
M  V30 2166 C 202.252 0.875118 -1.8715 0
M  V30 2167 C 202.66 1.75322 -0.711262 0
M  V30 2168 O 202.003 1.80745 0.328151 0
M  V30 2169 C 202.065 1.7844 -3.12089 0
M  V30 2170 C 201.729 1.08361 -4.43967 0
M  V30 2171 C 202.726 0.438247 -5.1805 0
M  V30 2172 C 200.411 1.07358 -4.90693 0
M  V30 2173 C 202.405 -0.20779 -6.37061 0
M  V30 2174 C 200.092 0.42373 -6.09629 0
M  V30 2175 C 201.09 -0.215829 -6.82659 0
M  V30 2176 O 200.778 -0.855378 -7.99336 0
M  V30 2177 H 200.51 0.258504 -0.624621 0
M  V30 2178 H 203.064 0.14652 -2.04877 0
M  V30 2179 H 201.294 2.55389 -2.90367 0
M  V30 2180 H 202.983 2.38279 -3.286 0
M  V30 2181 H 203.749 0.437817 -4.8302 0
M  V30 2182 H 199.628 1.5608 -4.33774 0
M  V30 2183 H 203.172 -0.70758 -6.94002 0
M  V30 2184 H 199.069 0.421822 -6.4412 0
M  V30 2185 H 199.837 -0.756892 -8.14993 0
M  V30 2186 N 202.5 1.5196 0.417844 0
M  V30 2187 C 203.748 1.65263 1.16329 0
M  V30 2188 C 204.069 0.380634 1.91249 0
M  V30 2189 O 203.339 -0.604214 1.86349 0
M  V30 2190 H 201.919 0.60912 0.432414 0
M  V30 2191 H 204.581 1.88969 0.477162 0
M  V30 2192 H 203.677 2.4896 1.88217 0
M  V30 2193 N 203.978 -0.674533 1.42435 0
M  V30 2194 C 205.224 -1.43671 1.43131 0
M  V30 2195 C 205.557 -1.94142 0.0476021 0
M  V30 2196 O 204.832 -1.70924 -0.928188 0
M  V30 2197 C 205.115 -2.63355 2.45594 0
M  V30 2198 C 204.968 -2.18514 3.93156 0
M  V30 2199 C 206.287 -3.65571 2.45043 0
M  V30 2200 H 203.406 -0.521077 0.521198 0
M  V30 2201 H 206.048 -0.766551 1.7385 0
M  V30 2202 H 204.198 -3.2053 2.19528 0
M  V30 2203 H 205.87 -1.66504 4.30202 0
M  V30 2204 H 204.113 -1.50086 4.07009 0
M  V30 2205 H 204.784 -3.04484 4.60428 0
M  V30 2206 H 207.26 -3.18113 2.68223 0
M  V30 2207 H 206.136 -4.46893 3.18713 0
M  V30 2208 H 206.397 -4.16716 1.47649 0
M  V30 2209 N 205.456 -1.28612 -0.910864 0
M  V30 2210 C 206.867 -1.14406 -1.47541 0
M  V30 2211 C 207.218 0.264901 -1.94403 0
M  V30 2212 O 206.343 1.15942 -1.82719 0
M  V30 2213 C 206.938 -2.07073 -2.68153 0
M  V30 2214 C 205.497 -1.96923 -3.20778 0
M  V30 2215 C 204.644 -1.98646 -1.93481 0
M  V30 2216 H 207.595 -1.41259 -0.723291 0
M  V30 2217 H 207.616 -1.63642 -3.43514 0
M  V30 2218 H 207.128 -3.09611 -2.34015 0
M  V30 2219 H 205.229 -0.97433 -3.59635 0
M  V30 2220 H 205.342 -2.84026 -3.85832 0
M  V30 2221 H 203.706 -1.43093 -2.10705 0
M  V30 2222 H 204.489 -3.02868 -1.61634 0
M  V30 2223 N 206.934 1.1197 -1.10907 0
M  V30 2224 C 207.844 2.21433 -0.774896 0
M  V30 2225 C 208.86 1.72478 0.229657 0
M  V30 2226 O 210.036 2.01288 0.0672008 0
M  V30 2227 C 207.101 3.4602 -0.216986 0
M  V30 2228 C 206.162 4.09791 -1.27944 0
M  V30 2229 C 205.395 5.28431 -0.748055 0
M  V30 2230 O 205.618 5.68823 0.423833 0
M  V30 2231 O 204.552 5.82644 -1.51027 0
M  V30 2232 H 208.378 2.5242 -1.68873 0
M  V30 2233 H 205.963 1.20399 -0.884555 0
M  V30 2234 H 207.845 4.21304 0.090059 0
M  V30 2235 H 206.52 3.16698 0.669633 0
M  V30 2236 H 205.427 3.36265 -1.63941 0
M  V30 2237 H 206.76 4.4328 -2.13925 0
M  V30 2238 N 208.412 0.89855 1.29475 0
M  V30 2239 C 209.659 0.523882 1.95606 0
M  V30 2240 C 209.987 -0.929608 1.70847 0
M  V30 2241 O 209.242 -1.67401 1.01367 0
M  V30 2242 C 209.541 0.761398 3.49195 0
M  V30 2243 C 209.207 2.19207 3.94029 0
M  V30 2244 C 207.869 2.58326 4.05982 0
M  V30 2245 C 210.221 3.12379 4.17216 0
M  V30 2246 C 207.549 3.898 4.38489 0
M  V30 2247 C 209.901 4.43401 4.51197 0
M  V30 2248 C 208.565 4.82394 4.61359 0
M  V30 2249 H 207.835 0.191702 0.715773 0
M  V30 2250 H 210.482 1.13699 1.54094 0
M  V30 2251 H 208.787 0.0653622 3.91745 0
M  V30 2252 H 210.484 0.450904 3.98457 0
M  V30 2253 H 207.074 1.87846 3.85242 0
M  V30 2254 H 211.258 2.83371 4.07449 0
M  V30 2255 H 206.514 4.19734 4.44559 0
M  V30 2256 H 210.688 5.15623 4.68087 0
M  V30 2257 H 208.315 5.84306 4.86303 0
M  V30 2258 N 209.89 -1.43072 0.660911 0
M  V30 2259 C 211.115 -2.06584 0.183805 0
M  V30 2260 C 211.54 -1.49257 -1.14472 0
M  V30 2261 O 210.898 -0.605528 -1.70889 0
M  V30 2262 C 210.946 -3.60418 0.114434 0
M  V30 2263 O 210.05 -4.01981 -0.921137 0
M  V30 2264 H 209.391 -0.656669 0.0983994 0
M  V30 2265 H 211.921 -1.83447 0.906006 0
M  V30 2266 H 211.931 -4.07946 -0.0663394 0
M  V30 2267 H 210.606 -4.01519 1.08422 0
M  V30 2268 H 209.183 -3.66029 -0.71253 0
M  V30 2269 N 211.368 -0.403325 -1.52352 0
M  V30 2270 C 212.779 0.0675782 -1.86578 0
M  V30 2271 C 213.13 1.44941 -1.32236 0
M  V30 2272 O 212.255 2.06112 -0.659307 0
M  V30 2273 C 212.85 0.129404 -3.38553 0
M  V30 2274 C 211.409 0.544629 -3.72439 0
M  V30 2275 C 210.556 -0.284551 -2.75836 0
M  V30 2276 H 213.507 -0.620631 -1.46061 0
M  V30 2277 H 213.528 0.94581 -3.68558 0
M  V30 2278 H 213.04 -0.87645 -3.78074 0
M  V30 2279 H 211.141 1.55734 -3.38493 0
M  V30 2280 H 211.254 0.293046 -4.78203 0
M  V30 2281 H 209.618 0.252258 -2.53448 0
M  V30 2282 H 210.401 -1.28865 -3.18196 0
M  V30 2283 N 212.846 1.57033 -0.133567 0
M  V30 2284 C 214.076 1.99754 0.527429 0
M  V30 2285 C 214.484 1.01245 1.59832 0
M  V30 2286 O 213.827 -0.000645496 1.837 0
M  V30 2287 C 213.889 3.38903 1.19939 0
M  V30 2288 C 213.553 4.56174 0.274709 0
M  V30 2289 C 214.55 5.17563 -0.492398 0
M  V30 2290 C 212.235 5.01972 0.18153 0
M  V30 2291 C 214.229 6.2315 -1.34027 0
M  V30 2292 C 211.916 6.07416 -0.669958 0
M  V30 2293 C 212.914 6.67874 -1.42947 0
M  V30 2294 O 212.602 7.71279 -2.2668 0
M  V30 2295 H 212.334 0.660702 0.142999 0
M  V30 2296 H 214.888 2.04207 -0.221099 0
M  V30 2297 H 213.118 3.31248 1.99528 0
M  V30 2298 H 214.807 3.65818 1.75875 0
M  V30 2299 H 215.573 4.83087 -0.430367 0
M  V30 2300 H 211.452 4.54652 0.762422 0
M  V30 2301 H 214.996 6.70268 -1.93357 0
M  V30 2302 H 210.893 6.41321 -0.73333 0
M  V30 2303 H 211.661 7.88441 -2.1978 0
M  V30 2304 N 214.325 -0.140222 1.56975 0
M  V30 2305 C 215.602 -0.880769 1.74648 0
M  V30 2306 C 215.982 -1.99036 0.703404 0
M  V30 2307 O 215.33 -2.26821 -0.27648 0
M  V30 2308 C 215.54 -1.417 3.18939 0
M  V30 2309 C 216.888 -1.87774 3.80823 0
M  V30 2310 O 217.912 -1.51427 3.2241 0
M  V30 2311 O 216.771 -2.54827 4.83452 0
M  V30 2312 H 213.865 -0.416713 0.714338 0
M  V30 2313 H 216.411 -0.125618 1.69234 0
M  V30 2314 H 215.183 -0.619902 3.86359 0
M  V30 2315 H 214.806 -2.23546 3.28805 0
M  V30 2316 N 215.803 -1.52179 -0.40978 0
M  V30 2317 C 217.049 -1.66453 -1.15851 0
M  V30 2318 C 217.382 -0.392972 -1.90182 0
M  V30 2319 O 216.657 0.608579 -1.84734 0
M  V30 2320 C 216.94 -2.88612 -2.15349 0
M  V30 2321 C 216.793 -4.25815 -1.44918 0
M  V30 2322 C 218.112 -3.06294 -3.16026 0
M  V30 2323 H 215.231 -0.60575 -0.419805 0
M  V30 2324 H 217.873 -1.84732 -0.444314 0
M  V30 2325 H 216.023 -2.73158 -2.76255 0
M  V30 2326 H 217.695 -4.52995 -0.871365 0
M  V30 2327 H 215.938 -4.27247 -0.751159 0
M  V30 2328 H 216.609 -5.07337 -2.17516 0
M  V30 2329 H 219.085 -3.20641 -2.65195 0
M  V30 2330 H 217.961 -3.93283 -3.8291 0
M  V30 2331 H 218.222 -2.19579 -3.83715 0
M  V30 2332 N 217.281 0.66697 -1.42791 0
M  V30 2333 C 218.53 1.42278 -1.42968 0
M  V30 2334 C 218.843 1.9553 -0.0524489 0
M  V30 2335 O 220.049 2.71414 0.068363 0
M  V30 2336 C 218.505 2.57418 -2.51524 0
M  V30 2337 C 218.113 2.10832 -3.9529 0
M  V30 2338 C 219.857 3.34878 -2.60877 0
M  V30 2339 C 217.764 3.23101 -4.95338 0
M  V30 2340 H 216.694 0.534533 -0.531781 0
M  V30 2341 H 219.345 0.721302 -1.68729 0
M  V30 2342 H 217.727 3.29971 -2.18941 0
M  V30 2343 H 218.901 1.4538 -4.37266 0
M  V30 2344 H 217.216 1.46289 -3.89857 0
M  V30 2345 H 219.813 4.18505 -3.32802 0
M  V30 2346 H 220.156 3.81993 -1.6549 0
M  V30 2347 H 220.689 2.69398 -2.92693 0
M  V30 2348 H 217.428 2.80969 -5.9223 0
M  V30 2349 H 216.948 3.87309 -4.57987 0
M  V30 2350 H 218.627 3.88447 -5.17415 0
M  V30 2351 N 218.759 1.29093 0.90403 0
M  V30 2352 C 220.006 1.16813 1.65411 0
M  V30 2353 C 220.334 -0.28128 1.92455 0
M  V30 2354 O 219.589 -1.22006 1.53013 0
M  V30 2355 C 219.888 1.92224 3.01305 0
M  V30 2356 C 219.554 3.41968 2.93885 0
M  V30 2357 C 218.216 3.82807 2.91569 0
M  V30 2358 C 220.568 4.37409 2.83413 0
M  V30 2359 C 217.896 5.1741 2.76594 0
M  V30 2360 C 220.248 5.72097 2.69977 0
M  V30 2361 C 218.912 6.12199 2.66024 0
M  V30 2362 H 218.182 0.42745 0.605283 0
M  V30 2363 H 220.829 1.59981 1.05254 0
M  V30 2364 H 219.134 1.41635 3.65304 0
M  V30 2365 H 220.831 1.80131 3.58265 0
M  V30 2366 H 217.421 3.09504 2.96488 0
M  V30 2367 H 221.605 4.06813 2.84283 0
M  V30 2368 H 216.861 5.47596 2.71935 0
M  V30 2369 H 221.035 6.45704 2.60844 0
M  V30 2370 H 218.662 7.16448 2.54178 0
M  V30 2371 N 220.237 -1.11381 1.11499 0
M  V30 2372 C 221.483 -1.83403 0.865512 0
M  V30 2373 C 221.816 -1.84459 -0.607329 0
M  V30 2374 O 221.091 -1.29811 -1.44842 0
M  V30 2375 C 221.374 -3.30552 1.42855 0
M  V30 2376 C 221.227 -3.37886 2.96906 0
M  V30 2377 C 222.546 -4.26643 1.08 0
M  V30 2378 H 219.665 -0.665879 0.31587 0
M  V30 2379 H 222.307 -1.30601 1.37998 0
M  V30 2380 H 220.457 -3.75648 0.990985 0
M  V30 2381 H 222.129 -3.01343 3.49271 0
M  V30 2382 H 220.372 -2.78088 3.32941 0
M  V30 2383 H 221.043 -4.41458 3.31389 0
M  V30 2384 H 223.519 -3.89729 1.45775 0
M  V30 2385 H 222.395 -5.27986 1.50072 0
M  V30 2386 H 222.656 -4.42099 -0.00915037 0
M  V30 2387 N 221.715 -0.905404 -1.28997 0
M  V30 2388 C 222.943 -0.549846 -1.9946 0
M  V30 2389 C 223.358 0.866834 -1.67724 0
M  V30 2390 O 222.715 1.57298 -0.925404 0
M  V30 2391 C 222.766 -0.739387 -3.53858 0
M  V30 2392 O 222.487 -2.10031 -3.84472 0
M  V30 2393 C 223.988 -0.389541 -4.41585 0
M  V30 2394 H 221.208 -0.210429 -0.637151 0
M  V30 2395 H 223.752 -1.21632 -1.64396 0
M  V30 2396 H 221.907 -0.120023 -3.87214 0
M  V30 2397 H 222.321 -2.13385 -4.79132 0
M  V30 2398 H 223.795 -0.572972 -5.49018 0
M  V30 2399 H 224.272 0.673756 -4.34001 0
M  V30 2400 H 224.878 -0.986089 -4.1371 0
M  V30 2401 N 223.193 1.4272 -0.668489 0
M  V30 2402 C 224.439 2.01923 -0.188419 0
M  V30 2403 C 224.772 1.52704 1.19979 0
M  V30 2404 O 224.047 0.726566 1.8042 0
M  V30 2405 C 224.33 3.59451 -0.216085 0
M  V30 2406 C 224.183 4.18864 -1.6393 0
M  V30 2407 C 225.502 4.37903 0.439179 0
M  V30 2408 H 222.621 0.733674 -0.0699412 0
M  V30 2409 H 225.263 1.69822 -0.852076 0
M  V30 2410 H 223.413 3.86929 0.349012 0
M  V30 2411 H 225.085 4.02362 -2.25616 0
M  V30 2412 H 223.328 3.74933 -2.18193 0
M  V30 2413 H 223.999 5.27987 -1.61039 0
M  V30 2414 H 226.475 4.16079 -0.0417878 0
M  V30 2415 H 225.351 5.47519 0.389157 0
M  V30 2416 H 225.612 4.15303 1.51577 0
M  V30 2417 N 224.671 0.411399 1.52136 0
M  V30 2418 C 225.919 -0.163322 2.01439 0
M  V30 2419 C 226.24 -1.45453 1.29879 0
M  V30 2420 O 225.51 -1.91225 0.4254 0
M  V30 2421 H 224.09 -0.0633447 0.744309 0
M  V30 2422 H 226.752 0.548161 1.87033 0
M  V30 2423 H 225.848 -0.357817 3.10042 0
M  V30 2424 N 226.149 -1.5696 0.141893 0
M  V30 2425 C 227.395 -1.9625 -0.511248 0
M  V30 2426 C 227.728 -1.02654 -1.64851 0
M  V30 2427 O 227.003 -0.0679676 -1.94381 0
M  V30 2428 C 227.286 -3.45285 -1.02227 0
M  V30 2429 C 227.139 -4.49658 0.113138 0
M  V30 2430 C 228.458 -3.96698 -1.90574 0
M  V30 2431 H 225.577 -0.713567 -0.184367 0
M  V30 2432 H 228.219 -1.88698 0.222087 0
M  V30 2433 H 226.369 -3.51852 -1.64719 0
M  V30 2434 H 228.041 -4.55174 0.749302 0
M  V30 2435 H 226.284 -4.26857 0.773026 0
M  V30 2436 H 226.955 -5.51258 -0.286053 0
M  V30 2437 H 229.431 -3.92578 -1.37918 0
M  V30 2438 H 228.307 -5.01453 -2.2324 0
M  V30 2439 H 228.568 -3.3875 -2.84079 0
M  V30 2440 N 227.627 0.131896 -1.57047 0
M  V30 2441 C 228.904 0.871495 -1.75112 0
M  V30 2442 C 229.284 1.9866 -0.713949 0
M  V30 2443 O 228.632 2.26965 0.264447 0
M  V30 2444 C 228.842 1.40007 -3.19686 0
M  V30 2445 C 230.19 1.85752 -3.81813 0
M  V30 2446 O 231.214 1.49715 -3.23209 0
M  V30 2447 O 230.073 2.5226 -4.84796 0
M  V30 2448 H 227.167 0.412919 -0.716538 0
M  V30 2449 H 229.713 0.116641 -1.69299 0
M  V30 2450 H 228.485 0.599404 -3.86682 0
M  V30 2451 H 228.108 2.218 -3.29986 0
M  V30 2452 N 229.106 1.52395 0.401703 0
M  V30 2453 C 230.016 1.7917 1.51444 0
M  V30 2454 C 231.032 0.677691 1.6026 0
M  V30 2455 O 232.208 0.963909 1.76835 0
M  V30 2456 C 229.273 1.94347 2.87107 0
M  V30 2457 C 228.334 3.18257 2.88116 0
M  V30 2458 C 227.567 3.32701 4.17308 0
M  V30 2459 O 227.79 2.52238 5.11598 0
M  V30 2460 O 226.724 4.25891 4.25324 0
M  V30 2461 H 230.55 2.73633 1.31752 0
M  V30 2462 H 228.135 1.3733 0.588296 0
M  V30 2463 H 230.017 2.06109 3.67555 0
M  V30 2464 H 228.692 1.03073 3.06851 0
M  V30 2465 H 227.599 3.11947 2.06494 0
M  V30 2466 H 228.932 4.09336 2.73322 0
M  V30 2467 N 230.584 -0.659388 1.43143 0
M  V30 2468 C 231.83 -1.42145 1.44647 0
M  V30 2469 C 232.163 -1.9408 0.0681907 0
M  V30 2470 O 231.438 -1.71899 -0.910007 0
M  V30 2471 C 231.721 -2.60735 2.48373 0
M  V30 2472 C 231.574 -2.14332 3.95451 0
M  V30 2473 C 232.893 -3.62951 2.48906 0
M  V30 2474 H 230.012 -0.51552 0.526696 0
M  V30 2475 H 232.654 -0.748069 1.74654 0
M  V30 2476 H 230.804 -3.18184 2.22916 0
M  V30 2477 H 232.476 -1.61932 4.31944 0
M  V30 2478 H 230.719 -1.4576 4.08578 0
M  V30 2479 H 231.39 -2.99583 4.63631 0
M  V30 2480 H 233.866 -3.1525 2.71582 0
M  V30 2481 H 232.742 -4.43487 3.23435 0
M  V30 2482 H 233.003 -4.15126 1.52061 0
M  V30 2483 N 232.062 -1.29571 -0.897171 0
M  V30 2484 C 233.473 -1.15964 -1.46319 0
M  V30 2485 C 233.824 0.244267 -1.94674 0
M  V30 2486 O 232.949 1.13998 -1.83939 0
M  V30 2487 C 233.544 -2.09906 -2.65942 0
M  V30 2488 C 232.103 -2.00314 -3.18671 0
M  V30 2489 C 231.25 -2.00687 -1.91363 0
M  V30 2490 H 234.201 -1.42019 -0.708268 0
M  V30 2491 H 234.222 -1.67276 -3.41759 0
M  V30 2492 H 233.734 -3.12075 -2.30718 0
M  V30 2493 H 231.835 -1.01242 -3.58582 0
M  V30 2494 H 231.948 -2.88102 -3.82798 0
M  V30 2495 H 230.312 -1.45319 -2.09175 0
M  V30 2496 H 231.095 -3.04566 -1.58413 0
M  V30 2497 N 233.54 1.10788 -1.12088 0
M  V30 2498 C 234.45 2.20599 -0.798338 0
M  V30 2499 C 235.466 1.72712 0.21135 0
M  V30 2500 O 236.642 2.01348 0.0458477 0
M  V30 2501 C 233.707 3.45771 -0.253674 0
M  V30 2502 C 232.768 4.08411 -1.32283 0
M  V30 2503 C 232.001 5.27608 -0.80406 0
M  V30 2504 O 232.224 5.69241 0.363478 0
M  V30 2505 O 231.158 5.8101 -1.57198 0
M  V30 2506 H 234.984 2.50614 -1.7154 0
M  V30 2507 H 232.569 1.19454 -0.897275 0
M  V30 2508 H 234.451 4.21376 0.0453691 0
M  V30 2509 H 233.126 3.1739 0.636005 0
M  V30 2510 H 232.033 3.34507 -1.67499 0
M  V30 2511 H 233.366 4.40986 -2.18614 0
M  V30 2512 N 235.018 0.912232 1.28515 0
M  V30 2513 C 236.246 0.560416 1.99166 0
M  V30 2514 C 236.661 -0.857927 1.68182 0
M  V30 2515 O 236.018 -1.56805 0.933733 0
M  V30 2516 C 236.069 0.758142 3.53461 0
M  V30 2517 O 235.79 2.12067 3.83352 0
M  V30 2518 C 237.291 0.412954 4.41372 0
M  V30 2519 H 234.511 0.213805 0.636026 0
M  V30 2520 H 237.055 1.22502 1.63749 0
M  V30 2521 H 235.21 0.140556 3.87145 0
M  V30 2522 H 235.624 2.15923 4.77993 0
M  V30 2523 H 237.098 0.60208 5.48707 0
M  V30 2524 H 237.575 -0.65073 4.34353 0
M  V30 2525 H 238.181 1.00802 4.13182 0
M  V30 2526 N 236.496 -1.42363 0.676048 0
M  V30 2527 C 237.742 -2.02336 0.207809 0
M  V30 2528 C 238.097 -1.52506 -1.17302 0
M  V30 2529 O 237.39 -0.718048 -1.77636 0
M  V30 2530 C 237.584 -3.56929 0.183431 0
M  V30 2531 C 237.413 -4.21762 1.56036 0
M  V30 2532 C 236.183 -4.56881 2.15842 0
M  V30 2533 C 238.381 -4.49267 2.50327 0
M  V30 2534 N 236.363 -5.069 3.46303 0
M  V30 2535 C 237.734 -5.00851 3.65443 0
M  V30 2536 C 239.789 -4.31257 2.48841 0
M  V30 2537 C 238.492 -5.36317 4.79329 0
M  V30 2538 C 240.518 -4.678 3.61824 0
M  V30 2539 C 239.88 -5.19537 4.75668 0
M  V30 2540 H 235.979 -0.772583 0.120993 0
M  V30 2541 H 238.563 -1.73203 0.889306 0
M  V30 2542 H 236.734 -3.85576 -0.467483 0
M  V30 2543 H 238.466 -4.03603 -0.297808 0
M  V30 2544 H 235.221 -4.4268 1.68319 0
M  V30 2545 H 235.645 -5.36338 4.13123 0
M  V30 2546 H 240.287 -3.90511 1.62051 0
M  V30 2547 H 238.005 -5.75995 5.66794 0
M  V30 2548 H 241.591 -4.55541 3.61903 0
M  V30 2549 H 240.471 -5.47287 5.61646 0
M  V30 2550 N 237.974 -0.419461 -1.51915 0
M  V30 2551 C 239.221 0.152939 -2.01922 0
M  V30 2552 C 239.549 1.4426 -1.30458 0
M  V30 2553 O 238.804 1.91514 -0.402593 0
M  V30 2554 C 239.103 0.437067 -3.54717 0
M  V30 2555 C 238.769 -0.764632 -4.44369 0
M  V30 2556 C 237.431 -1.09423 -4.68594 0
M  V30 2557 C 239.783 -1.56713 -4.97082 0
M  V30 2558 C 237.111 -2.22732 -5.42777 0
M  V30 2559 C 239.463 -2.69107 -5.72507 0
M  V30 2560 C 238.127 -3.02541 -5.95 0
M  V30 2561 H 237.397 0.0559644 -0.738884 0
M  V30 2562 H 240.044 -0.562998 -1.83037 0
M  V30 2563 H 238.349 1.23469 -3.71837 0
M  V30 2564 H 240.046 0.893083 -3.90928 0
M  V30 2565 H 236.636 -0.497775 -4.257 0
M  V30 2566 H 240.82 -1.32571 -4.78266 0
M  V30 2567 H 236.076 -2.48971 -5.58411 0
M  V30 2568 H 240.25 -3.31671 -6.12346 0
M  V30 2569 H 237.877 -3.90457 -6.52264 0
M  V30 2570 N 239.452 1.56882 -0.150215 0
M  V30 2571 C 240.68 2.00593 0.506948 0
M  V30 2572 C 241.095 1.03033 1.58208 0
M  V30 2573 O 240.452 0.0278396 1.82479 0
M  V30 2574 C 240.503 3.44209 1.10465 0
M  V30 2575 O 240.224 4.3804 0.0724636 0
M  V30 2576 C 241.725 4.03214 1.84211 0
M  V30 2577 H 238.945 0.65795 0.13169 0
M  V30 2578 H 241.489 2.03018 -0.245743 0
M  V30 2579 H 239.644 3.42625 1.80795 0
M  V30 2580 H 240.058 5.22007 0.510793 0
M  V30 2581 H 241.532 5.0569 2.21318 0
M  V30 2582 H 242.009 3.44107 2.72923 0
M  V30 2583 H 242.615 4.08437 1.18572 0
M  V30 2584 N 240.93 -0.123565 1.57115 0
M  V30 2585 C 241.862 -1.17739 1.96648 0
M  V30 2586 C 242.875 -1.37906 0.865201 0
M  V30 2587 O 244.064 -1.37062 1.14351 0
M  V30 2588 C 241.164 -2.53821 2.24562 0
M  V30 2589 C 240.337 -2.54317 3.55867 0
M  V30 2590 C 239.396 -3.72112 3.72047 0
M  V30 2591 O 238.422 -3.55907 4.44206 0
M  V30 2592 N 239.624 -4.90498 3.10471 0
M  V30 2593 H 242.389 -0.841147 2.87654 0
M  V30 2594 H 239.95 -0.31289 1.58848 0
M  V30 2595 H 241.942 -3.31175 2.32606 0
M  V30 2596 H 240.512 -2.79645 1.39705 0
M  V30 2597 H 239.732 -1.62711 3.59053 0
M  V30 2598 H 241.02 -2.51701 4.42181 0
M  V30 2599 H 240.418 -5.06567 2.51806 0
M  V30 2600 H 238.975 -5.65544 3.24043 0
M  V30 2601 N 242.408 -1.52605 -0.393616 0
M  V30 2602 C 243.338 -1.80022 -1.48709 0
M  V30 2603 C 244.319 -0.651995 -1.57108 0
M  V30 2604 O 245.504 -0.89913 -1.72132 0
M  V30 2605 C 242.634 -1.96492 -2.86371 0
M  V30 2606 C 241.588 -3.12161 -2.92813 0
M  V30 2607 C 240.914 -3.13877 -4.3288 0
M  V30 2608 C 242.214 -4.51322 -2.6288 0
M  V30 2609 H 243.908 -2.71589 -1.26015 0
M  V30 2610 H 241.454 -1.30684 -0.604778 0
M  V30 2611 H 243.407 -2.14255 -3.62867 0
M  V30 2612 H 242.131 -1.01611 -3.10391 0
M  V30 2613 H 240.79 -2.94173 -2.18764 0
M  V30 2614 H 240.438 -2.16687 -4.53933 0
M  V30 2615 H 240.138 -3.91576 -4.38112 0
M  V30 2616 H 241.662 -3.33789 -5.1129 0
M  V30 2617 H 243.076 -4.69435 -3.29096 0
M  V30 2618 H 241.473 -5.31053 -2.79468 0
M  V30 2619 H 242.543 -4.58353 -1.58242 0
M  V30 2620 N 243.887 0.651787 -1.4349 0
M  V30 2621 C 244.834 1.76462 -1.4876 0
M  V30 2622 C 245.804 1.62641 -0.337189 0
M  V30 2623 O 246.989 1.82864 -0.544544 0
M  V30 2624 C 244.129 3.14623 -1.41796 0
M  V30 2625 C 243.242 3.39568 -2.67053 0
M  V30 2626 C 242.377 4.67585 -2.52068 0
M  V30 2627 C 241.416 4.85639 -3.72587 0
M  V30 2628 N 240.553 6.04915 -3.56402 0
M  V30 2629 H 245.393 1.71293 -2.43849 0
M  V30 2630 H 242.93 0.835889 -1.21043 0
M  V30 2631 H 244.888 3.94496 -1.35753 0
M  V30 2632 H 243.518 3.18859 -0.50288 0
M  V30 2633 H 242.57 2.53783 -2.8337 0
M  V30 2634 H 243.882 3.48795 -3.56572 0
M  V30 2635 H 243.036 5.55586 -2.4374 0
M  V30 2636 H 241.775 4.60681 -1.60075 0
M  V30 2637 H 240.78 3.96073 -3.81321 0
M  V30 2638 H 242.005 4.94372 -4.65589 0
M  V30 2639 H 239.951 5.9914 -2.67146 0
M  V30 2640 H 239.868 6.15106 -4.39524 0
M  V30 2641 H 241.136 6.95533 -3.51929 0
M  V30 2642 N 245.365 1.30045 0.890287 0
M  V30 2643 C 246.275 1.17885 2.02831 0
M  V30 2644 C 247.291 0.0999609 1.73713 0
M  V30 2645 O 248.467 0.313867 1.98939 0
M  V30 2646 C 245.532 0.866079 3.35708 0
M  V30 2647 C 244.593 2.02979 3.78283 0
M  V30 2648 C 243.826 1.73184 5.0482 0
M  V30 2649 O 244.049 0.657237 5.66601 0
M  V30 2650 O 242.983 2.58267 5.43674 0
M  V30 2651 H 246.809 2.13474 2.16015 0
M  V30 2652 H 244.394 1.09587 1.01543 0
M  V30 2653 H 246.276 0.706623 4.15433 0
M  V30 2654 H 244.951 -0.0599443 3.23644 0
M  V30 2655 H 243.858 2.24454 2.99285 0
M  V30 2656 H 245.191 2.93734 3.94944 0
M  V30 2657 N 246.843 -1.10192 1.12674 0
M  V30 2658 C 248.091 -1.81845 0.881861 0
M  V30 2659 C 248.412 -1.85737 -0.593867 0
M  V30 2660 O 247.682 -1.33724 -1.4316 0
M  V30 2661 H 246.262 -0.673432 0.323261 0
M  V30 2662 H 248.924 -1.33316 1.42172 0
M  V30 2663 H 248.02 -2.85288 1.2656 0
M  V30 2664 N 248.321 -0.919034 -1.28029 0
M  V30 2665 C 249.569 -0.553838 -1.94363 0
M  V30 2666 C 249.89 0.906357 -1.72656 0
M  V30 2667 O 249.16 1.64143 -1.0693 0
M  V30 2668 H 247.74 -0.201834 -0.719216 0
M  V30 2669 H 250.402 -1.16954 -1.55909 0
M  V30 2670 H 249.498 -0.752758 -3.02886 0
M  V30 2671 N 249.799 1.42003 -0.683588 0
M  V30 2672 C 251.215 1.55625 -0.353976 0
M  V30 2673 C 251.415 1.66151 1.14 0
M  V30 2674 O 250.471 1.63329 1.92561 0
M  V30 2675 C 251.784 2.80171 -1.092 0
M  V30 2676 C 253.332 2.93954 -1.07518 0
M  V30 2677 C 253.807 4.21372 -1.79471 0
M  V30 2678 N 255.298 4.28303 -1.76381 0
M  V30 2679 C 256.033 5.25729 -2.28904 0
M  V30 2680 N 255.529 6.29254 -2.89846 0
M  V30 2681 N 257.322 5.17586 -2.19228 0
M  V30 2682 H 249.473 1.33415 -1.6527 0
M  V30 2683 H 251.736 0.64282 -0.696769 0
M  V30 2684 H 251.442 2.78561 -2.14701 0
M  V30 2685 H 251.316 3.7133 -0.662862 0
M  V30 2686 H 253.703 2.95086 -0.028475 0
M  V30 2687 H 253.784 2.04002 -1.54328 0
M  V30 2688 H 253.428 4.21001 -2.84114 0
M  V30 2689 H 253.358 5.10275 -1.30104 0
M  V30 2690 H 255.849 3.54119 -1.31939 0
M  V30 2691 H 256.162 6.99964 -3.27522 0
M  V30 2692 H 254.507 6.29791 -2.93919 0
M  V30 2693 H 257.698 4.35631 -1.71299 0
M  V30 2694 H 257.871 5.93348 -2.60466 0
M  V30 2695 N 251.277 0.427512 1.51691 0
M  V30 2696 C 252.523 -0.142439 2.02299 0
M  V30 2697 C 252.856 -1.43214 1.31162 0
M  V30 2698 O 252.131 -1.89833 0.423511 0
M  V30 2699 C 252.414 -0.371301 3.58181 0
M  V30 2700 C 252.267 0.936358 4.39946 0
M  V30 2701 C 253.586 -1.14542 4.24933 0
M  V30 2702 H 250.705 -0.0502937 0.735282 0
M  V30 2703 H 253.347 0.564584 1.81418 0
M  V30 2704 H 251.497 -0.973559 3.76104 0
M  V30 2705 H 253.169 1.57184 4.33694 0
M  V30 2706 H 251.412 1.5432 4.05423 0
M  V30 2707 H 252.083 0.730388 5.47147 0
M  V30 2708 H 254.559 -0.635362 4.11221 0
M  V30 2709 H 253.435 -1.27431 5.33903 0
M  V30 2710 H 253.696 -2.17093 3.85127 0
M  V30 2711 N 252.755 -1.56801 0.158532 0
M  V30 2712 C 254.004 -1.95665 -0.489702 0
M  V30 2713 C 254.317 -1.04654 -1.65248 0
M  V30 2714 O 255.523 -1.33146 -2.3661 0
M  V30 2715 C 253.979 -3.47874 -0.922582 0
M  V30 2716 C 253.587 -4.47489 0.213893 0
M  V30 2717 C 255.331 -3.95583 -1.53996 0
M  V30 2718 C 253.238 -5.90921 -0.237903 0
M  V30 2719 H 252.168 -0.730516 -0.186716 0
M  V30 2720 H 254.819 -1.81861 0.244722 0
M  V30 2721 H 253.201 -3.57051 -1.71261 0
M  V30 2722 H 254.375 -4.50017 0.991036 0
M  V30 2723 H 252.69 -4.09764 0.740407 0
M  V30 2724 H 255.287 -5.0019 -1.8898 0
M  V30 2725 H 255.63 -3.37789 -2.43319 0
M  V30 2726 H 256.163 -3.8937 -0.814611 0
M  V30 2727 H 252.902 -6.52559 0.620236 0
M  V30 2728 H 252.422 -5.91729 -0.980676 0
M  V30 2729 H 254.101 -6.43352 -0.686067 0
M  V30 2730 N 254.233 0.115231 -1.57178 0
M  V30 2731 C 255.479 0.82357 -1.85325 0
M  V30 2732 C 255.812 1.79349 -0.744814 0
M  V30 2733 O 255.087 1.92899 0.249024 0
M  V30 2734 C 255.37 1.57014 -3.24066 0
M  V30 2735 C 255.223 0.619565 -4.45513 0
M  V30 2736 C 256.542 2.52545 -3.60429 0
M  V30 2737 H 253.661 0.297948 -0.674089 0
M  V30 2738 H 256.303 0.0877138 -1.89797 0
M  V30 2739 H 254.453 2.19742 -3.20383 0
M  V30 2740 H 256.125 0.000837639 -4.613 0
M  V30 2741 H 254.368 -0.0686174 -4.33746 0
M  V30 2742 H 255.039 1.17866 -5.3927 0
M  V30 2743 H 257.515 1.9992 -3.64926 0
M  V30 2744 H 256.391 3.01811 -4.58477 0
M  V30 2745 H 256.652 3.35383 -2.88047 0
M  V30 2746 N 255.711 1.52812 0.385517 0
M  V30 2747 C 257.122 1.5993 0.963293 0
M  V30 2748 C 257.473 0.454302 1.90868 0
M  V30 2749 O 256.598 -0.422132 2.12243 0
M  V30 2750 C 257.193 2.89871 1.75387 0
M  V30 2751 C 255.752 2.99389 2.28129 0
M  V30 2752 C 254.899 2.55071 1.08783 0
M  V30 2753 H 257.85 1.5784 0.164948 0
M  V30 2754 H 257.871 2.76553 2.61341 0
M  V30 2755 H 257.383 3.73186 1.06554 0
M  V30 2756 H 255.484 2.20619 3.00263 0
M  V30 2757 H 255.597 4.04096 2.57377 0
M  V30 2758 H 253.961 2.09473 1.4489 0
M  V30 2759 H 254.744 3.40785 0.414807 0
M  V30 2760 N 257.189 -0.644168 1.43834 0
M  V30 2761 C 258.438 -1.39985 1.45214 0
M  V30 2762 C 258.751 -1.95421 0.0835494 0
M  V30 2763 O 259.957 -2.71488 -0.0251748 0
M  V30 2764 C 258.413 -2.53384 2.55587 0
M  V30 2765 C 258.021 -2.04517 3.98594 0
M  V30 2766 C 259.765 -3.30685 2.66172 0
M  V30 2767 C 257.672 -3.1518 5.00416 0
M  V30 2768 H 256.602 -0.526005 0.540218 0
M  V30 2769 H 259.253 -0.694367 1.69855 0
M  V30 2770 H 257.635 -3.26446 2.24163 0
M  V30 2771 H 258.809 -1.38405 4.39523 0
M  V30 2772 H 257.124 -1.40068 3.92135 0
M  V30 2773 H 259.721 -4.13158 3.39418 0
M  V30 2774 H 260.064 -3.79312 1.71546 0
M  V30 2775 H 260.597 -2.64708 2.96942 0
M  V30 2776 H 257.336 -2.71511 5.96625 0
M  V30 2777 H 256.856 -3.79974 4.64091 0
M  V30 2778 H 258.535 -3.80166 5.23529 0
M  V30 2779 N 258.668 -1.30515 -0.883378 0
M  V30 2780 C 259.616 -1.16941 -2.01066 0
M  V30 2781 C 260.61 -0.0809148 -1.69207 0
M  V30 2782 O 261.816 -0.241877 -1.78367 0
M  V30 2783 H 258.191 -0.361705 -0.659298 0
M  V30 2784 H 260.162 -2.12344 -2.09649 0
M  V30 2785 C 258.911 -0.879694 -3.36388 0
M  V30 2786 H 258.234 -1.70936 -3.61415 0
M  V30 2787 H 259.674 -0.82483 -4.159 0
M  V30 2788 C 258.133 0.417409 -3.34304 0
M  V30 2789 O 258.663 1.43843 -3.75063 0
M  V30 2790 N 256.869 0.429141 -2.87414 0
M  V30 2791 H 256.416 -0.402222 -2.5444 0
M  V30 2792 H 256.374 1.29696 -2.86403 0
M  V30 2793 N 260.146 1.09593 -1.13257 0
M  V30 2794 C 261.076 2.18214 -0.830946 0
M  V30 2795 C 262.057 1.68812 0.208966 0
M  V30 2796 O 263.242 1.9408 0.0682666 0
M  V30 2797 C 260.372 3.46051 -0.294296 0
M  V30 2798 C 259.326 4.08778 -1.26826 0
M  V30 2799 C 258.652 5.31419 -0.591449 0
M  V30 2800 C 259.952 4.51476 -2.62615 0
M  V30 2801 H 261.646 2.43703 -1.73923 0
M  V30 2802 H 259.192 1.17128 -0.837675 0
M  V30 2803 H 261.145 4.2134 -0.0709606 0
M  V30 2804 H 259.869 3.20079 0.649366 0
M  V30 2805 H 258.528 3.35505 -1.47756 0
M  V30 2806 H 258.176 5.01727 0.357633 0
M  V30 2807 H 257.876 5.74341 -1.24123 0
M  V30 2808 H 259.4 6.09433 -0.377355 0
M  V30 2809 H 260.814 5.17999 -2.45663 0
M  V30 2810 H 259.211 5.05277 -3.23752 0
M  V30 2811 H 260.281 3.63962 -3.20406 0
M  V30 2812 N 261.624 0.925811 1.2754 0
M  V30 2813 C 262.571 0.422045 2.26908 0
M  V30 2814 C 263.541 -0.510029 1.58076 0
M  V30 2815 O 264.726 -0.429599 1.85901 0
M  V30 2816 C 261.866 -0.320837 3.43605 0
M  V30 2817 C 260.979 0.64513 4.27156 0
M  V30 2818 C 260.114 -0.117405 5.3107 0
M  V30 2819 C 259.153 0.841391 6.0629 0
M  V30 2820 N 258.29 0.111604 7.02011 0
M  V30 2821 H 263.13 1.27441 2.69375 0
M  V30 2822 H 260.667 0.639697 1.32462 0
M  V30 2823 H 262.625 -0.76785 4.10073 0
M  V30 2824 H 261.255 -1.13745 3.02096 0
M  V30 2825 H 260.307 1.21067 3.6062 0
M  V30 2826 H 261.619 1.37797 4.79389 0
M  V30 2827 H 260.773 -0.624422 6.03478 0
M  V30 2828 H 259.512 -0.883219 4.79636 0
M  V30 2829 H 258.517 1.35967 5.32722 0
M  V30 2830 H 259.742 1.60696 6.59813 0
M  V30 2831 H 257.688 -0.635999 6.5291 0
M  V30 2832 H 257.605 0.784044 7.51923 0
M  V30 2833 H 258.873 -0.374823 7.78598 0
M  V30 2834 N 263.102 -1.41638 0.69111 0
M  V30 2835 C 264.032 -2.3347 0.037248 0
M  V30 2836 C 265.013 -1.51575 -0.771947 0
M  V30 2837 O 266.198 -1.80126 -0.72582 0
M  V30 2838 C 263.328 -3.35354 -0.903064 0
M  V30 2839 C 262.282 -4.27526 -0.201288 0
M  V30 2840 C 261.608 -5.19747 -1.25565 0
M  V30 2841 C 262.908 -5.13959 0.929689 0
M  V30 2842 H 264.602 -2.88397 0.804227 0
M  V30 2843 H 262.148 -1.38669 0.388189 0
M  V30 2844 H 264.101 -3.98519 -1.36969 0
M  V30 2845 H 262.825 -2.78767 -1.70166 0
M  V30 2846 H 261.484 -3.65779 0.245265 0
M  V30 2847 H 261.132 -4.59479 -2.04666 0
M  V30 2848 H 260.832 -5.8225 -0.791128 0
M  V30 2849 H 262.356 -5.85789 -1.72288 0
M  V30 2850 H 263.77 -5.70718 0.543546 0
M  V30 2851 H 262.167 -5.85379 1.32103 0
M  V30 2852 H 263.237 -4.51389 1.77133 0
M  V30 2853 N 264.58 -0.43555 -1.51462 0
M  V30 2854 C 265.805 0.132627 -2.06976 0
M  V30 2855 C 266.23 1.35848 -1.30104 0
M  V30 2856 O 265.588 1.78112 -0.338493 0
M  V30 2857 C 265.636 0.43523 -3.57964 0
M  V30 2858 O 264.74 1.52198 -3.83288 0
M  V30 2859 H 264.081 0.00265 -0.663995 0
M  V30 2860 H 266.611 -0.616369 -1.95095 0
M  V30 2861 H 266.621 0.686206 -4.02188 0
M  V30 2862 H 265.296 -0.460739 -4.1334 0
M  V30 2863 H 263.873 1.2611 -3.50928 0
M  V30 2864 N 266.058 1.56714 -0.166846 0
M  V30 2865 C 267.474 1.58473 0.189372 0
M  V30 2866 C 267.674 1.18201 1.63189 0
M  V30 2867 O 266.73 0.891528 2.36237 0
M  V30 2868 C 268.043 3.00573 -0.0873872 0
M  V30 2869 C 269.591 3.1299 -0.0252443 0
M  V30 2870 C 270.066 4.57174 -0.274934 0
M  V30 2871 N 271.557 4.62665 -0.222553 0
M  V30 2872 C 272.292 5.72072 -0.389985 0
M  V30 2873 N 271.788 6.90054 -0.616229 0
M  V30 2874 N 273.581 5.61153 -0.326202 0
M  V30 2875 H 265.732 1.8118 -1.10849 0
M  V30 2876 H 267.995 0.839525 -0.440342 0
M  V30 2877 H 267.701 3.34497 -1.0865 0
M  V30 2878 H 267.575 3.72019 0.623037 0
M  V30 2879 H 269.962 2.78895 0.96444 0
M  V30 2880 H 270.043 2.43989 -0.768309 0
M  V30 2881 H 269.687 4.91976 -1.26181 0
M  V30 2882 H 269.617 5.24328 0.48869 0
M  V30 2883 H 272.108 3.77863 -0.0531512 0
M  V30 2884 H 272.421 7.69311 -0.733559 0
M  V30 2885 H 270.766 6.91927 -0.652791 0
M  V30 2886 H 273.957 4.67859 -0.150072 0
M  V30 2887 H 274.13 6.46364 -0.460116 0
M  V30 2888 N 267.536 -0.106894 1.57237 0
M  V30 2889 C 268.952 -0.46078 1.52804 0
M  V30 2890 C 269.152 -1.81184 0.881746 0
M  V30 2891 O 268.208 -2.48102 0.469224 0
M  V30 2892 C 269.521 -0.434127 2.9755 0
M  V30 2893 C 271.069 -0.516821 3.08704 0
M  V30 2894 C 271.544 -0.520436 4.55033 0
M  V30 2895 N 273.035 -0.58153 4.59535 0
M  V30 2896 C 273.77 -0.605973 5.70189 0
M  V30 2897 N 273.266 -0.587331 6.90306 0
M  V30 2898 N 275.059 -0.649895 5.5833 0
M  V30 2899 H 267.21 0.778203 1.9763 0
M  V30 2900 H 269.473 0.288403 0.903066 0
M  V30 2901 H 269.179 0.491197 3.48253 0
M  V30 2902 H 269.053 -1.25748 3.55622 0
M  V30 2903 H 271.44 -1.43256 2.57995 0
M  V30 2904 H 271.521 0.334449 2.53604 0
M  V30 2905 H 271.165 0.391313 5.0639 0
M  V30 2906 H 271.095 -1.38876 5.07958 0
M  V30 2907 H 273.586 -0.60161 3.73081 0
M  V30 2908 H 273.899 -0.60894 7.70397 0
M  V30 2909 H 272.244 -0.554564 6.92784 0
M  V30 2910 H 275.435 -0.661907 4.63397 0
M  V30 2911 H 275.608 -0.665476 6.44574 0
M  V30 2912 N 269.014 -1.53014 -0.377408 0
M  V30 2913 C 269.946 -1.74884 -1.48149 0
M  V30 2914 C 270.959 -0.629433 -1.5014 0
M  V30 2915 O 272.148 -0.905416 -1.53833 0
M  V30 2916 C 269.248 -1.80299 -2.86959 0
M  V30 2917 C 268.421 -3.09776 -3.08801 0
M  V30 2918 C 267.48 -3.06586 -4.27658 0
M  V30 2919 O 266.506 -3.80419 -4.23403 0
M  V30 2920 N 267.708 -2.26578 -5.34455 0
M  V30 2921 H 270.473 -2.70147 -1.29771 0
M  V30 2922 H 268.034 -1.51646 -0.56703 0
M  V30 2923 H 270.026 -1.75657 -3.64591 0
M  V30 2924 H 268.596 -0.92372 -2.98641 0
M  V30 2925 H 267.816 -3.27815 -2.18931 0
M  V30 2926 H 269.104 -3.95366 -3.20255 0
M  V30 2927 H 268.502 -1.66081 -5.40771 0
M  V30 2928 H 267.059 -2.27766 -6.10709 0
M  V30 2929 N 270.492 0.636531 -1.44174 0
M  V30 2930 C 271.903 1.21806 -1.41493 0
M  V30 2931 C 272.254 1.95785 -0.1275 0
M  V30 2932 O 271.379 2.02147 0.772376 0
M  V30 2933 C 271.974 2.21551 -2.56321 0
M  V30 2934 C 270.533 2.75143 -2.56853 0
M  V30 2935 C 269.68 1.50052 -2.33195 0
M  V30 2936 H 272.631 0.427531 -1.52833 0
M  V30 2937 H 272.652 3.0405 -2.28765 0
M  V30 2938 H 272.164 1.67679 -3.50008 0
M  V30 2939 H 270.265 3.33033 -1.67093 0
M  V30 2940 H 270.378 3.2155 -3.55165 0
M  V30 2941 H 268.742 1.77993 -1.82183 0
M  V30 2942 H 269.525 0.980903 -3.28988 0
M  V30 2943 N 271.97 1.30982 0.876444 0
M  V30 2944 C 272.933 1.18054 1.96459 0
M  V30 2945 C 273.933 0.109399 1.60427 0
M  V30 2946 O 275.123 0.358173 1.70478 0
M  V30 2947 C 272.255 0.810616 3.31122 0
M  V30 2948 H 273.448 2.14735 2.09354 0
M  V30 2949 H 271.001 1.145 1.06392 0
M  V30 2950 H 271.736 -0.155322 3.23928 0
M  V30 2951 H 271.521 1.58481 3.58645 0
M  V30 2952 H 273.011 0.743876 4.10921 0
M  V30 2953 N 273.449 -1.08991 1.13837 0
M  V30 2954 C 274.696 -1.81258 0.902882 0
M  V30 2955 C 275.024 -1.85936 -0.570803 0
M  V30 2956 O 274.279 -1.3267 -1.43865 0
M  V30 2957 C 274.578 -3.27042 1.44147 0
M  V30 2958 C 274.244 -3.4249 2.93276 0
M  V30 2959 C 272.906 -3.46414 3.33992 0
M  V30 2960 C 275.258 -3.4666 3.892 0
M  V30 2961 C 272.586 -3.52091 4.69307 0
M  V30 2962 C 274.938 -3.53872 5.24364 0
M  V30 2963 C 273.602 -3.56066 5.646 0
M  V30 2964 H 272.872 -0.663268 0.330388 0
M  V30 2965 H 275.519 -1.28368 1.42105 0
M  V30 2966 H 273.824 -3.82599 0.844097 0
M  V30 2967 H 275.521 -3.81499 1.23528 0
M  V30 2968 H 272.111 -3.40124 2.60794 0
M  V30 2969 H 276.295 -3.42865 3.58828 0
M  V30 2970 H 271.551 -3.52079 4.9985 0
M  V30 2971 H 275.725 -3.56043 5.98503 0
M  V30 2972 H 273.352 -3.60218 6.69438 0
M  V30 2973 N 274.927 -0.932562 -1.27047 0
M  V30 2974 C 275.857 -0.452902 -2.29066 0
M  V30 2975 C 276.838 0.489338 -1.62909 0
M  V30 2976 O 278.023 0.393046 -1.90181 0
M  V30 2977 C 275.153 0.290698 -3.46081 0
M  V30 2978 C 274.107 -0.564168 -4.24265 0
M  V30 2979 C 273.433 0.308886 -5.33807 0
M  V30 2980 C 274.733 -1.83112 -4.89149 0
M  V30 2981 H 276.427 -1.30552 -2.69437 0
M  V30 2982 H 273.973 -0.629201 -1.29526 0
M  V30 2983 H 275.926 0.637233 -4.16554 0
M  V30 2984 H 274.65 1.17738 -3.0464 0
M  V30 2985 H 273.309 -0.893477 -3.55545 0
M  V30 2986 H 272.957 1.19467 -4.88607 0
M  V30 2987 H 272.657 -0.259633 -5.87026 0
M  V30 2988 H 274.181 0.650884 -6.07121 0
M  V30 2989 H 275.595 -1.55236 -5.51883 0
M  V30 2990 H 273.992 -2.34353 -5.52448 0
M  V30 2991 H 275.062 -2.54772 -4.12576 0
M  V30 2992 N 276.405 1.4127 -0.698611 0
M  V30 2993 C 277.652 2.0118 -0.230865 0
M  V30 2994 C 277.98 1.55338 1.17049 0
M  V30 2995 O 277.235 0.756775 1.80475 0
M  V30 2996 C 277.534 3.56592 -0.240192 0
M  V30 2997 C 277.2 4.21955 -1.58948 0
M  V30 2998 C 275.862 4.39524 -1.95887 0
M  V30 2999 C 278.214 4.58576 -2.47704 0
M  V30 3000 C 275.542 4.90992 -3.2116 0
M  V30 3001 C 277.894 5.11435 -3.72313 0
M  V30 3002 C 276.558 5.27215 -4.0939 0
M  V30 3003 H 275.828 0.736169 -0.0844796 0
M  V30 3004 H 278.475 1.69124 -0.8983 0
M  V30 3005 H 276.78 3.88456 0.510797 0
M  V30 3006 H 278.477 4.00758 0.139296 0
M  V30 3007 H 275.067 4.08657 -1.29219 0
M  V30 3008 H 279.251 4.44654 -2.20445 0
M  V30 3009 H 274.507 5.01393 -3.49878 0
M  V30 3010 H 278.681 5.38752 -4.4127 0
M  V30 3011 H 276.308 5.66859 -5.06533 0
M  V30 3012 N 277.883 0.443576 1.51229 0
M  V30 3013 C 278.83 -0.364716 2.279 0
M  V30 3014 C 279.8 -1.0114 1.31757 0
M  V30 3015 O 280.985 -1.02912 1.60667 0
M  V30 3016 C 278.125 -1.45644 3.12861 0
M  V30 3017 C 277.238 -0.827269 4.24005 0
M  V30 3018 C 276.373 -1.89456 4.96266 0
M  V30 3019 C 275.412 -1.24416 5.99322 0
M  V30 3020 N 274.549 -2.25309 6.64966 0
M  V30 3021 H 279.389 0.295464 2.96532 0
M  V30 3022 H 276.926 0.157554 1.46254 0
M  V30 3023 H 278.884 -2.10076 3.6045 0
M  V30 3024 H 277.514 -2.08616 2.46331 0
M  V30 3025 H 276.566 -0.0710839 3.80334 0
M  V30 3026 H 277.878 -0.312481 4.9782 0
M  V30 3027 H 277.032 -2.61535 5.47434 0
M  V30 3028 H 275.771 -2.4431 4.22095 0
M  V30 3029 H 274.776 -0.508868 5.4744 0
M  V30 3030 H 276.001 -0.702882 6.75453 0
M  V30 3031 H 273.947 -2.79231 5.93604 0
M  V30 3032 H 273.864 -1.78739 7.34567 0
M  V30 3033 H 275.132 -2.96853 7.20763 0
M  V30 3034 N 279.361 -1.56624 0.175154 0
M  V30 3035 C 280.308 -2.18149 -0.753634 0
M  V30 3036 C 281.278 -1.12265 -1.22417 0
M  V30 3037 O 282.463 -1.40432 -1.29165 0
M  V30 3038 C 279.603 -2.82933 -1.97592 0
M  V30 3039 C 278.716 -4.03289 -1.5486 0
M  V30 3040 C 277.851 -4.55988 -2.72485 0
M  V30 3041 C 276.89 -5.68746 -2.26262 0
M  V30 3042 N 276.027 -6.15938 -3.36994 0
M  V30 3043 H 280.867 -2.9717 -0.222195 0
M  V30 3044 H 278.404 -1.46774 -0.0979422 0
M  V30 3045 H 280.362 -3.18653 -2.69288 0
M  V30 3046 H 278.992 -2.06509 -2.481 0
M  V30 3047 H 278.044 -3.73364 -0.728246 0
M  V30 3048 H 279.356 -4.849 -1.16933 0
M  V30 3049 H 278.51 -4.9391 -3.52332 0
M  V30 3050 H 277.249 -3.73443 -3.13674 0
M  V30 3051 H 276.254 -5.30372 -1.44863 0
M  V30 3052 H 277.479 -6.53095 -1.86127 0
M  V30 3053 H 275.425 -5.36321 -3.77751 0
M  V30 3054 H 275.342 -6.92548 -3.03172 0
M  V30 3055 H 276.61 -6.58511 -4.17114 0
M  V30 3056 N 280.839 0.0985539 -1.57292 0
M  V30 3057 C 281.786 1.11981 -2.01814 0
M  V30 3058 C 282.756 1.39999 -0.89384 0
M  V30 3059 O 283.941 1.5152 -1.15958 0
M  V30 3060 C 281.081 2.43577 -2.44467 0
M  V30 3061 C 280.194 2.2232 -3.70402 0
M  V30 3062 C 279.329 3.4729 -4.01949 0
M  V30 3063 C 278.368 3.2128 -5.21005 0
M  V30 3064 N 277.505 4.38507 -5.48321 0
M  V30 3065 H 282.345 0.733149 -2.88841 0
M  V30 3066 H 279.882 0.350482 -1.42864 0
M  V30 3067 H 281.84 3.20373 -2.6724 0
M  V30 3068 H 280.47 2.80097 -1.60455 0
M  V30 3069 H 279.522 1.36343 -3.55126 0
M  V30 3070 H 280.834 1.99089 -4.57345 0
M  V30 3071 H 279.988 4.32495 -4.25479 0
M  V30 3072 H 278.727 3.73572 -3.13521 0
M  V30 3073 H 277.732 2.34468 -4.97298 0
M  V30 3074 H 278.957 2.96348 -6.11028 0
M  V30 3075 H 276.903 4.64871 -4.62851 0
M  V30 3076 H 276.82 4.18455 -6.29628 0
M  V30 3077 H 278.088 5.24787 -5.76385 0
M  V30 3078 N 282.317 1.53212 0.369288 0
M  V30 3079 C 283.594 1.59815 1.12776 0
M  V30 3080 C 283.974 0.403402 2.0721 0
M  V30 3081 O 283.322 -0.606667 2.20299 0
M  V30 3082 C 283.532 2.94664 1.87013 0
M  V30 3083 C 284.88 3.49109 2.41677 0
M  V30 3084 O 285.904 2.96669 1.97144 0
M  V30 3085 O 284.763 4.40775 3.23079 0
M  V30 3086 H 281.857 0.645376 0.517125 0
M  V30 3087 H 284.403 1.65553 0.37285 0
M  V30 3088 H 283.175 3.73061 1.18071 0
M  V30 3089 H 282.798 2.92401 2.69421 0
M  V30 3090 N 283.795 -0.628877 1.44509 0
M  V30 3091 C 285.206 -1.21054 1.42137 0
M  V30 3092 C 285.557 -1.95715 0.137881 0
M  V30 3093 O 284.682 -2.02554 -0.761645 0
M  V30 3094 C 285.277 -2.20189 2.57493 0
M  V30 3095 C 283.836 -2.73777 2.58308 0
M  V30 3096 C 282.983 -1.48813 2.33987 0
M  V30 3097 H 285.934 -0.41942 1.53057 0
M  V30 3098 H 285.955 -3.02833 2.30375 0
M  V30 3099 H 285.467 -1.6582 3.50892 0
M  V30 3100 H 283.568 -3.32142 1.68856 0
M  V30 3101 H 283.681 -3.19662 3.56865 0
M  V30 3102 H 282.045 -1.77024 1.83124 0
M  V30 3103 H 282.828 -0.963442 3.29504 0
M  V30 3104 N 285.273 -1.31445 -0.869486 0
M  V30 3105 C 286.503 -1.23942 -1.65294 0
M  V30 3106 C 286.911 0.197561 -1.88166 0
M  V30 3107 O 286.254 1.14019 -1.44033 0
M  V30 3108 C 286.316 -1.91385 -3.04322 0
M  V30 3109 C 285.98 -3.40726 -3.04557 0
M  V30 3110 C 286.977 -4.36464 -2.82481 0
M  V30 3111 C 284.662 -3.82425 -3.25663 0
M  V30 3112 C 286.656 -5.71876 -2.8149 0
M  V30 3113 C 284.343 -5.1795 -3.243 0
M  V30 3114 C 285.341 -6.12486 -3.02241 0
M  V30 3115 O 285.029 -7.45534 -3.00724 0
M  V30 3116 H 284.761 -0.429459 -0.522054 0
M  V30 3117 H 287.315 -1.73873 -1.0935 0
M  V30 3118 H 285.545 -1.36004 -3.61994 0
M  V30 3119 H 287.234 -1.77791 -3.64891 0
M  V30 3120 H 288 -4.05576 -2.65956 0
M  V30 3121 H 283.879 -3.09274 -3.41863 0
M  V30 3122 H 287.423 -6.45638 -2.64191 0
M  V30 3123 H 283.32 -5.48473 -3.40365 0
M  V30 3124 H 284.088 -7.54713 -3.16782 0
M  V30 3125 N 286.751 1.08385 -1.14413 0
M  V30 3126 C 287.681 2.17321 -0.854044 0
M  V30 3127 C 288.662 1.69024 0.191049 0
M  V30 3128 O 289.847 1.94141 0.0476779 0
M  V30 3129 C 286.977 3.45719 -0.330983 0
M  V30 3130 C 285.931 4.07409 -1.31155 0
M  V30 3131 C 285.257 5.30762 -0.64778 0
M  V30 3132 C 286.557 4.48665 -2.67388 0
M  V30 3133 H 288.251 2.41845 -1.76498 0
M  V30 3134 H 285.797 1.16233 -0.850051 0
M  V30 3135 H 287.75 4.21241 -0.115645 0
M  V30 3136 H 286.474 3.2075 0.615381 0
M  V30 3137 H 285.133 3.33919 -1.51306 0
M  V30 3138 H 284.781 5.02078 0.304398 0
M  V30 3139 H 284.481 5.72992 -1.30207 0
M  V30 3140 H 286.005 6.08998 -0.441972 0
M  V30 3141 H 287.419 5.15364 -2.51143 0
M  V30 3142 H 285.816 5.01814 -3.29093 0
M  V30 3143 H 286.886 3.60543 -3.24248 0
M  V30 3144 N 288.23 0.939286 1.26551 0
M  V30 3145 C 289.476 0.586715 1.94128 0
M  V30 3146 C 289.809 -0.8717 1.73537 0
M  V30 3147 O 289.084 -1.62339 1.07127 0
M  V30 3148 C 289.367 0.927497 3.4795 0
M  V30 3149 C 289.22 2.44052 3.77834 0
M  V30 3150 C 290.539 0.441569 4.37879 0
M  V30 3151 H 287.658 0.21463 0.705055 0
M  V30 3152 H 290.3 1.17316 1.49455 0
M  V30 3153 H 288.45 0.428431 3.8613 0
M  V30 3154 H 290.122 3.01216 3.4938 0
M  V30 3155 H 288.365 2.8848 3.23978 0
M  V30 3156 H 289.036 2.62947 4.85348 0
M  V30 3157 H 291.512 0.869448 4.06915 0
M  V30 3158 H 290.388 0.708856 5.44304 0
M  V30 3159 H 290.649 -0.658467 4.37169 0
M  V30 3160 N 289.708 -1.40897 0.706093 0
M  V30 3161 C 290.956 -2.00657 0.241054 0
M  V30 3162 C 291.277 -1.56241 -1.16678 0
M  V30 3163 O 290.547 -0.79765 -1.78926 0
M  V30 3164 H 289.127 -0.742018 0.0861308 0
M  V30 3165 H 291.789 -1.72372 0.909604 0
M  V30 3166 H 290.885 -3.10958 0.266705 0
M  V30 3167 N 291.186 -0.45159 -1.50991 0
M  V30 3168 C 292.134 0.366864 -2.29689 0
M  V30 3169 C 293.128 1.00809 -1.36139 0
M  V30 3170 O 294.334 0.941427 -1.53418 0
M  V30 3171 H 290.709 0.137133 -0.739391 0
M  V30 3172 H 292.68 -0.317538 -2.96706 0
M  V30 3173 C 291.429 1.44751 -3.16137 0
M  V30 3174 H 290.752 0.963473 -3.88017 0
M  V30 3175 H 292.192 1.99315 -3.74232 0
M  V30 3176 C 290.651 2.43869 -2.32442 0
M  V30 3177 O 291.181 3.4872 -1.99392 0
M  V30 3178 N 289.387 2.15105 -1.95392 0
M  V30 3179 H 288.934 1.29866 -2.22469 0
M  V30 3180 H 288.892 2.81661 -1.39693 0
M  V30 3181 N 292.664 1.56529 -0.183458 0
M  V30 3182 C 293.894 2.01331 0.463612 0
M  V30 3183 C 294.302 1.06278 1.5653 0
M  V30 3184 O 293.645 0.0577976 1.83609 0
M  V30 3185 C 293.707 3.42547 1.09096 0
M  V30 3186 C 293.371 4.56817 0.129442 0
M  V30 3187 C 294.368 5.15734 -0.656807 0
M  V30 3188 C 292.053 5.02295 0.02174 0
M  V30 3189 C 294.047 6.1857 -1.53784 0
M  V30 3190 C 291.734 6.04978 -0.862864 0
M  V30 3191 C 292.732 6.62988 -1.64123 0
M  V30 3192 O 292.42 7.63677 -2.51103 0
M  V30 3193 H 292.152 0.664917 0.121907 0
M  V30 3194 H 294.706 2.034 -0.285954 0
M  V30 3195 H 292.936 3.37428 1.88889 0
M  V30 3196 H 294.625 3.71228 1.64148 0
M  V30 3197 H 295.391 4.81473 -0.583839 0
M  V30 3198 H 291.27 4.56847 0.617392 0
M  V30 3199 H 294.814 6.63777 -2.14583 0
M  V30 3200 H 290.711 6.38663 -0.93699 0
M  V30 3201 H 291.479 7.81049 -2.44753 0
M  V30 3202 N 294.142 -0.090211 1.57342 0
M  V30 3203 C 295.089 -1.10909 2.02405 0
M  V30 3204 C 296.059 -1.39523 0.901252 0
M  V30 3205 O 297.244 -1.50903 1.1676 0
M  V30 3206 C 294.384 -2.42277 2.45755 0
M  V30 3207 C 293.497 -2.20352 3.71576 0
M  V30 3208 C 292.632 -3.45154 4.03785 0
M  V30 3209 C 291.671 -3.18512 5.22701 0
M  V30 3210 N 290.808 -4.35593 5.50639 0
M  V30 3211 H 295.648 -0.71782 2.89225 0
M  V30 3212 H 293.185 -0.342901 1.43048 0
M  V30 3213 H 295.143 -3.18951 2.68935 0
M  V30 3214 H 293.773 -2.79242 1.61938 0
M  V30 3215 H 292.825 -1.34458 3.55844 0
M  V30 3216 H 294.137 -1.96661 4.58395 0
M  V30 3217 H 293.291 -4.30233 4.27767 0
M  V30 3218 H 292.03 -3.71904 3.15498 0
M  V30 3219 H 291.035 -2.31827 4.98534 0
M  V30 3220 H 292.26 -2.93103 6.12591 0
M  V30 3221 H 290.206 -4.6241 4.6531 0
M  V30 3222 H 290.123 -4.1511 6.31838 0
M  V30 3223 H 291.391 -5.21723 5.7916 0
M  V30 3224 N 295.62 -1.53406 -0.361157 0
M  V30 3225 C 296.55 -1.83136 -1.44857 0
M  V30 3226 C 297.531 -0.685174 -1.5569 0
M  V30 3227 O 298.716 -0.93544 -1.70186 0
M  V30 3228 C 295.846 -2.02522 -2.82138 0
M  V30 3229 C 294.8 -3.18302 -2.86126 0
M  V30 3230 C 294.126 -3.22989 -4.26125 0
M  V30 3231 C 295.426 -4.56796 -2.53248 0
M  V30 3232 H 297.12 -2.74201 -1.20226 0
M  V30 3233 H 294.666 -1.31938 -0.576922 0
M  V30 3234 H 296.619 -2.21904 -3.58241 0
M  V30 3235 H 295.343 -1.08172 -3.08166 0
M  V30 3236 H 294.002 -2.98747 -2.12475 0
M  V30 3237 H 293.65 -2.26267 -4.49235 0
M  V30 3238 H 293.35 -4.00781 -4.29708 0
M  V30 3239 H 294.874 -3.44559 -5.04094 0
M  V30 3240 H 296.288 -4.7631 -3.19064 0
M  V30 3241 H 294.685 -5.36862 -2.68141 0
M  V30 3242 H 295.755 -4.61606 -1.48484 0
M  V30 3243 N 297.098 0.621204 -1.44841 0
M  V30 3244 C 298.008 1.7612 -1.5498 0
M  V30 3245 C 299.024 1.68477 -0.434927 0
M  V30 3246 O 300.2 1.89076 -0.693693 0
M  V30 3247 C 297.265 3.1254 -1.50065 0
M  V30 3248 C 296.326 3.31741 -2.72482 0
M  V30 3249 C 295.559 4.61653 -2.67792 0
M  V30 3250 O 295.782 5.431 -1.74352 0
M  V30 3251 O 294.716 4.83271 -3.58794 0
M  V30 3252 H 298.542 1.70518 -2.51311 0
M  V30 3253 H 296.127 0.783643 -1.27198 0
M  V30 3254 H 298.009 3.93844 -1.49882 0
M  V30 3255 H 296.684 3.18663 -0.568806 0
M  V30 3256 H 295.591 2.50077 -2.7823 0
M  V30 3257 H 296.924 3.30486 -3.64746 0
M  V30 3258 N 298.576 1.31904 0.862503 0
M  V30 3259 C 299.804 1.24998 1.64873 0
M  V30 3260 C 300.219 -0.183425 1.87907 0
M  V30 3261 O 299.576 -1.11794 1.44251 0
M  V30 3262 C 299.627 1.99829 3.01248 0
M  V30 3263 O 299.348 3.37575 2.79239 0
M  V30 3264 C 300.849 1.99852 3.95694 0
M  V30 3265 H 298.069 0.431599 0.513773 0
M  V30 3266 H 300.613 1.73901 1.07604 0
M  V30 3267 H 298.768 1.54668 3.55185 0
M  V30 3268 H 299.182 3.75776 3.65914 0
M  V30 3269 H 300.656 2.56709 4.88676 0
M  V30 3270 H 301.133 0.982852 4.28062 0
M  V30 3271 H 301.739 2.44926 3.47694 0
M  V30 3272 N 300.054 -1.07777 1.14986 0
M  V30 3273 C 301.47 -1.32373 0.891596 0
M  V30 3274 C 301.67 -1.9609 -0.463788 0
M  V30 3275 O 300.726 -2.21801 -1.20667 0
M  V30 3276 C 302.039 -2.21905 2.02925 0
M  V30 3277 C 303.587 -2.35367 2.06329 0
M  V30 3278 C 304.062 -3.28245 3.19405 0
M  V30 3279 N 305.553 -3.35824 3.19024 0
M  V30 3280 C 306.288 -4.07739 4.03158 0
M  V30 3281 N 305.784 -4.82306 4.97346 0
M  V30 3282 N 307.577 -4.03635 3.91197 0
M  V30 3283 H 299.728 -0.648039 2.02273 0
M  V30 3284 H 301.991 -0.348149 0.881757 0
M  V30 3285 H 301.697 -1.82342 3.0074 0
M  V30 3286 H 301.571 -3.22407 1.95789 0
M  V30 3287 H 303.958 -2.74186 1.09116 0
M  V30 3288 H 304.039 -1.34585 2.17533 0
M  V30 3289 H 303.683 -2.90146 4.16867 0
M  V30 3290 H 303.613 -4.28971 3.05437 0
M  V30 3291 H 306.104 -2.8267 2.50811 0
M  V30 3292 H 306.417 -5.34661 5.57994 0
M  V30 3293 H 304.762 -4.81337 5.01338 0
M  V30 3294 H 307.953 -3.44491 3.16928 0
M  V30 3295 H 308.126 -4.59417 4.5699 0
M  V30 3296 N 301.532 -0.945985 -1.26051 0
M  V30 3297 C 302.779 -0.596118 -1.93527 0
M  V30 3298 C 303.107 0.865559 -1.74179 0
M  V30 3299 O 302.362 1.63524 -1.0751 0
M  V30 3300 C 302.661 -0.890475 -3.46129 0
M  V30 3301 C 302.327 -2.3368 -3.85622 0
M  V30 3302 C 300.989 -2.73216 -3.96114 0
M  V30 3303 C 303.341 -3.27648 -4.05334 0
M  V30 3304 C 300.669 -4.05806 -4.2372 0
M  V30 3305 C 303.021 -4.59841 -4.3443 0
M  V30 3306 C 301.685 -4.99185 -4.43137 0
M  V30 3307 H 300.955 -0.218135 -0.708165 0
M  V30 3308 H 303.602 -1.1934 -1.49768 0
M  V30 3309 H 301.907 -0.210711 -3.91233 0
M  V30 3310 H 303.604 -0.598478 -3.96509 0
M  V30 3311 H 300.194 -2.02015 -3.78005 0
M  V30 3312 H 304.378 -2.98298 -3.96651 0
M  V30 3313 H 299.634 -4.35945 -4.28675 0
M  V30 3314 H 303.808 -5.32641 -4.48628 0
M  V30 3315 H 301.435 -6.01952 -4.64282 0
M  V30 3316 N 303.011 1.40521 -0.713556 0
M  V30 3317 C 304.26 2.00155 -0.249192 0
M  V30 3318 C 304.573 1.57224 1.16362 0
M  V30 3319 O 305.779 2.09542 1.72639 0
M  V30 3320 C 304.235 3.5773 -0.3946 0
M  V30 3321 C 303.843 4.09635 -1.81392 0
M  V30 3322 C 305.587 4.24499 0.00907364 0
M  V30 3323 C 303.494 5.59707 -1.91003 0
M  V30 3324 H 302.424 0.74868 -0.0894114 0
M  V30 3325 H 305.075 1.60784 -0.884352 0
M  V30 3326 H 303.457 3.94792 0.30911 0
M  V30 3327 H 304.631 3.83955 -2.54785 0
M  V30 3328 H 302.946 3.55456 -2.16888 0
M  V30 3329 H 305.543 5.34683 -0.0420404 0
M  V30 3330 H 305.886 4.02824 1.05065 0
M  V30 3331 H 306.419 3.92536 -0.645007 0
M  V30 3332 H 303.158 5.86234 -2.93275 0
M  V30 3333 H 302.678 5.87258 -1.22019 0
M  V30 3334 H 304.357 6.24776 -1.6812 0
M  V30 3335 N 304.489 0.459591 1.5075 0
M  V30 3336 C 305.717 -0.0973749 2.06671 0
M  V30 3337 C 306.132 -1.34524 1.32472 0
M  V30 3338 O 305.489 -1.7827 0.390634 0
M  V30 3339 C 305.54 -0.39714 3.59312 0
M  V30 3340 O 305.261 0.801214 4.30711 0
M  V30 3341 C 306.762 -1.00234 4.31819 0
M  V30 3342 H 303.982 0.00195854 0.670997 0
M  V30 3343 H 306.526 0.645072 1.94059 0
M  V30 3344 H 304.681 -1.08951 3.71764 0
M  V30 3345 H 305.095 0.538857 5.21725 0
M  V30 3346 H 306.569 -1.16193 5.39632 0
M  V30 3347 H 307.046 -1.98939 3.91561 0
M  V30 3348 H 307.652 -0.348699 4.23868 0
M  V30 3349 N 305.967 -1.56429 0.191757 0
M  V30 3350 C 306.93 -2.17707 -0.716688 0
M  V30 3351 C 307.93 -1.13061 -1.14341 0
M  V30 3352 O 309.12 -1.38464 -1.05704 0
M  V30 3353 C 306.252 -2.77644 -1.97804 0
M  V30 3354 H 307.445 -2.99342 -0.1829 0
M  V30 3355 H 304.998 -1.56193 -0.0578566 0
M  V30 3356 H 305.733 -1.99799 -2.55443 0
M  V30 3357 H 305.518 -3.54246 -1.68083 0
M  V30 3358 H 307.008 -3.24708 -2.62592 0
M  V30 3359 N 307.445 0.0818655 -1.57387 0
M  V30 3360 C 308.693 0.781368 -1.86384 0
M  V30 3361 C 309.014 1.78618 -0.782342 0
M  V30 3362 O 308.284 1.94976 0.190061 0
M  V30 3363 H 306.864 0.291562 -0.687751 0
M  V30 3364 H 309.526 0.060348 -1.94807 0
M  V30 3365 H 308.622 1.3038 -2.83562 0
M  V30 3366 N 308.923 1.53595 0.353017 0
M  V30 3367 C 310.171 1.70049 1.09215 0
M  V30 3368 C 310.492 0.461406 1.89463 0
M  V30 3369 O 309.762 -0.524633 1.88744 0
M  V30 3370 H 308.342 0.626912 0.40619 0
M  V30 3371 H 311.004 1.90822 0.396585 0
M  V30 3372 H 310.1 2.56718 1.77488 0
M  V30 3373 N 310.401 -0.613514 1.45168 0
M  V30 3374 C 311.349 -1.74572 1.53712 0
M  V30 3375 C 312.343 -1.64426 0.407505 0
M  V30 3376 O 313.549 -1.70291 0.583176 0
M  V30 3377 H 309.924 -0.576641 0.48269 0
M  V30 3378 H 311.895 -1.64492 2.48968 0
M  V30 3379 C 310.644 -3.12943 1.51532 0
M  V30 3380 H 309.967 -3.21407 2.37776 0
M  V30 3381 H 311.407 -3.9201 1.61569 0
M  V30 3382 C 309.866 -3.36053 0.238798 0
M  V30 3383 O 310.396 -3.95837 -0.6838 0
M  V30 3384 N 308.602 -2.9028 0.136359 0
M  V30 3385 H 308.149 -2.41811 0.887999 0
M  V30 3386 H 308.107 -3.06116 -0.716944 0
M  V30 3387 N 311.879 -1.3236 -0.855495 0
M  V30 3388 C 312.809 -1.23833 -1.97958 0
M  V30 3389 C 313.79 -0.122361 -1.69659 0
M  V30 3390 O 314.975 -0.30939 -1.9172 0
M  V30 3391 C 312.105 -0.959772 -3.33775 0
M  V30 3392 C 311.059 -2.03689 -3.76424 0
M  V30 3393 C 310.385 -1.61075 -5.09862 0
M  V30 3394 C 311.685 -3.4518 -3.9198 0
M  V30 3395 H 313.379 -2.1788 -2.0535 0
M  V30 3396 H 310.925 -1.04891 -0.986605 0
M  V30 3397 H 312.878 -0.886678 -4.11966 0
M  V30 3398 H 311.602 0.0163404 -3.26596 0
M  V30 3399 H 310.261 -2.10012 -3.00484 0
M  V30 3400 H 309.909 -0.622107 -4.99138 0
M  V30 3401 H 309.609 -2.33143 -5.39368 0
M  V30 3402 H 311.133 -1.55201 -5.90546 0
M  V30 3403 H 312.547 -3.4145 -4.60526 0
M  V30 3404 H 310.944 -4.1559 -4.32903 0
M  V30 3405 H 312.014 -3.84903 -2.94919 0
M  V30 3406 N 313.357 1.07166 -1.15556 0
M  V30 3407 C 314.605 1.79443 -0.929764 0
M  V30 3408 C 314.926 1.87246 0.544414 0
M  V30 3409 O 314.196 1.37473 1.39564 0
M  V30 3410 H 312.776 0.664625 -0.341003 0
M  V30 3411 H 315.438 1.29499 -1.45657 0
M  V30 3412 H 314.534 2.81832 -1.34079 0
M  V30 3413 N 314.835 0.952656 1.25548 0
M  V30 3414 C 315.783 0.462354 2.27958 0
M  V30 3415 C 316.777 -0.46634 1.62855 0
M  V30 3416 O 317.983 -0.343287 1.76696 0
M  V30 3417 H 314.358 0.13101 0.7405 0
M  V30 3418 H 316.329 1.33839 2.66702 0
M  V30 3419 C 315.078 -0.24628 3.46827 0
M  V30 3420 H 314.401 0.459192 3.97154 0
M  V30 3421 H 315.841 -0.553393 4.20373 0
M  V30 3422 C 314.3 -1.4681 3.0323 0
M  V30 3423 O 314.83 -2.56591 3.09069 0
M  V30 3424 N 313.036 -1.32874 2.58443 0
M  V30 3425 H 312.583 -0.435536 2.53891 0
M  V30 3426 H 312.541 -2.14742 2.29637 0
M  V30 3427 N 316.313 -1.40141 0.720998 0
M  V30 3428 C 317.243 -2.33339 0.0867621 0
M  V30 3429 C 318.224 -1.53178 -0.739622 0
M  V30 3430 O 319.409 -1.81625 -0.687449 0
M  V30 3431 C 316.539 -3.37194 -0.831728 0
M  V30 3432 C 315.493 -4.27857 -0.110558 0
M  V30 3433 C 314.819 -5.22294 -1.14513 0
M  V30 3434 C 316.119 -5.11872 1.0385 0
M  V30 3435 H 317.813 -2.86626 0.865219 0
M  V30 3436 H 315.359 -1.37814 0.417516 0
M  V30 3437 H 317.312 -4.01335 -1.28485 0
M  V30 3438 H 316.036 -2.82314 -1.64214 0
M  V30 3439 H 314.695 -3.65176 0.322797 0
M  V30 3440 H 314.343 -4.63717 -1.94874 0
M  V30 3441 H 314.043 -5.83797 -0.667446 0
M  V30 3442 H 315.567 -5.89312 -1.59824 0
M  V30 3443 H 316.981 -5.69436 0.664482 0
M  V30 3444 H 315.378 -5.82445 1.4449 0
M  V30 3445 H 316.448 -4.4753 1.86668 0
M  V30 3446 N 317.792 -0.46758 -1.50504 0
M  V30 3447 C 318.722 0.318381 -2.31319 0
M  V30 3448 C 319.703 0.993564 -1.38066 0
M  V30 3449 O 320.888 0.991411 -1.66987 0
M  V30 3450 C 318.018 1.40275 -3.17711 0
M  V30 3451 C 316.972 0.849373 -4.19487 0
M  V30 3452 C 316.298 2.03177 -4.94594 0
M  V30 3453 C 317.598 -0.136942 -5.2212 0
M  V30 3454 H 319.292 -0.356106 -2.97275 0
M  V30 3455 H 316.838 -0.172703 -1.42961 0
M  V30 3456 H 318.791 1.96004 -3.73042 0
M  V30 3457 H 317.515 2.10596 -2.49634 0
M  V30 3458 H 316.174 0.314076 -3.65252 0
M  V30 3459 H 315.822 2.72187 -4.22993 0
M  V30 3460 H 315.522 1.66774 -5.63436 0
M  V30 3461 H 317.046 2.59403 -5.52759 0
M  V30 3462 H 318.46 0.331056 -5.72343 0
M  V30 3463 H 316.857 -0.41507 -5.98663 0
M  V30 3464 H 317.927 -1.06398 -4.73083 0
M  V30 3465 N 319.27 1.56325 -0.20005 0
M  V30 3466 C 320.18 2.22931 0.730668 0
M  V30 3467 C 321.196 1.22997 1.23076 0
M  V30 3468 O 322.372 1.55748 1.27689 0
M  V30 3469 C 319.437 2.87948 1.93098 0
M  V30 3470 C 318.498 4.03166 1.47497 0
M  V30 3471 C 317.731 4.65073 2.61807 0
M  V30 3472 O 317.954 4.25913 3.79413 0
M  V30 3473 O 316.888 5.54452 2.34237 0
M  V30 3474 H 320.714 3.03084 0.193391 0
M  V30 3475 H 318.299 1.49371 0.0294621 0
M  V30 3476 H 320.181 3.29063 2.6324 0
M  V30 3477 H 318.856 2.10771 2.45677 0
M  V30 3478 H 317.763 3.66664 0.742201 0
M  V30 3479 H 319.096 4.82022 0.995796 0
M  V30 3480 N 320.748 -0.0735177 1.57428 0
M  V30 3481 C 322.164 -0.428264 1.53747 0
M  V30 3482 C 322.364 -1.79272 0.91998 0
M  V30 3483 O 321.42 -2.47051 0.521745 0
M  V30 3484 C 322.733 -0.370914 2.98404 0
M  V30 3485 C 324.281 -0.451224 3.0973 0
M  V30 3486 C 324.756 -0.4238 4.56035 0
M  V30 3487 N 326.247 -0.483925 4.60665 0
M  V30 3488 C 326.982 -0.484891 5.71346 0
M  V30 3489 N 326.478 -0.440775 6.91396 0
M  V30 3490 N 328.271 -0.531319 5.59583 0
M  V30 3491 H 320.422 0.819949 1.95935 0
M  V30 3492 H 322.685 0.307493 0.896745 0
M  V30 3493 H 322.391 0.564956 3.47133 0
M  V30 3494 H 322.265 -1.18176 3.5821 0
M  V30 3495 H 324.652 -1.37752 2.60976 0
M  V30 3496 H 324.733 0.388167 2.52838 0
M  V30 3497 H 324.377 0.498638 5.05446 0
M  V30 3498 H 324.307 -1.2807 5.10789 0
M  V30 3499 H 326.798 -0.522338 3.74273 0
M  V30 3500 H 327.111 -0.44539 7.71515 0
M  V30 3501 H 325.456 -0.40749 6.93804 0
M  V30 3502 H 328.647 -0.563464 4.64696 0
M  V30 3503 H 328.82 -0.528603 6.4584 0
M  V30 3504 N 322.226 -1.5378 -0.344866 0
M  V30 3505 C 323.174 -1.82373 -1.4437 0
M  V30 3506 C 324.168 -0.694128 -1.54526 0
M  V30 3507 O 325.374 -0.877442 -1.57165 0
M  V30 3508 H 321.749 -0.577765 -0.481344 0
M  V30 3509 H 323.72 -2.74306 -1.17468 0
M  V30 3510 C 322.469 -2.04898 -2.80913 0
M  V30 3511 H 321.792 -2.9127 -2.73865 0
M  V30 3512 H 323.232 -2.28871 -3.56923 0
M  V30 3513 C 321.691 -0.834116 -3.26411 0
M  V30 3514 O 322.221 -0.0328885 -4.01687 0
M  V30 3515 N 320.427 -0.65171 -2.83198 0
M  V30 3516 H 319.974 -1.30489 -2.22104 0
M  V30 3517 H 319.932 0.159686 -3.13994 0
M  V30 3518 N 323.704 0.605807 -1.45491 0
M  V30 3519 C 325.12 0.926751 -1.29936 0
M  V30 3520 C 325.32 1.99896 -0.253706 0
M  V30 3521 O 324.376 2.50038 0.351737 0
M  V30 3522 C 325.689 1.36599 -2.67883 0
M  V30 3523 C 327.237 1.4801 -2.75793 0
M  V30 3524 C 327.712 1.95309 -4.14268 0
M  V30 3525 N 329.203 2.0254 -4.16571 0
M  V30 3526 C 329.938 2.40363 -5.20589 0
M  V30 3527 N 329.434 2.77143 -6.34952 0
M  V30 3528 N 331.227 2.40718 -5.07948 0
M  V30 3529 H 323.378 -0.102862 -2.12151 0
M  V30 3530 H 325.641 0.016639 -0.947854 0
M  V30 3531 H 325.347 0.652306 -3.45598 0
M  V30 3532 H 325.221 2.33215 -2.96463 0
M  V30 3533 H 327.608 2.1847 -1.98381 0
M  V30 3534 H 327.689 0.497041 -2.50925 0
M  V30 3535 H 327.333 1.25436 -4.92167 0
M  V30 3536 H 327.263 2.94532 -4.3653 0
M  V30 3537 H 329.754 1.76699 -3.34045 0
M  V30 3538 H 330.067 3.0489 -7.10114 0
M  V30 3539 H 328.412 2.74834 -6.3835 0
M  V30 3540 H 331.603 2.11392 -4.1765 0
M  V30 3541 H 331.776 2.69869 -5.89131 0
M  V30 3542 N 325.182 1.32811 0.848464 0
M  V30 3543 C 326.129 1.22265 1.95755 0
M  V30 3544 C 327.099 0.103413 1.65778 0
M  V30 3545 O 328.284 0.280033 1.88734 0
M  V30 3546 C 325.424 0.958014 3.31536 0
M  V30 3547 C 324.537 2.16262 3.73971 0
M  V30 3548 C 323.672 1.83295 4.98575 0
M  V30 3549 C 322.711 3.00041 5.33518 0
M  V30 3550 N 321.848 2.67125 6.49299 0
M  V30 3551 H 326.688 2.17128 2.04107 0
M  V30 3552 H 324.225 1.07982 0.998913 0
M  V30 3553 H 326.183 0.785052 4.09747 0
M  V30 3554 H 324.813 0.046159 3.22767 0
M  V30 3555 H 323.865 2.44565 2.91362 0
M  V30 3556 H 325.177 3.03572 3.95785 0
M  V30 3557 H 324.331 1.62586 5.84509 0
M  V30 3558 H 323.07 0.932078 4.7871 0
M  V30 3559 H 322.075 3.21374 4.46093 0
M  V30 3560 H 323.3 3.90869 5.55336 0
M  V30 3561 H 321.246 1.79586 6.3094 0
M  V30 3562 H 321.163 3.47965 6.71161 0
M  V30 3563 H 322.431 2.49861 7.3837 0
M  V30 3564 N 326.66 -1.06551 1.16123 0
M  V30 3565 C 327.59 -2.15935 0.88851 0
M  V30 3566 C 328.571 -1.69306 -0.164135 0
M  V30 3567 O 329.756 -1.94193 -0.0167857 0
M  V30 3568 C 326.886 -3.45149 0.385942 0
M  V30 3569 C 325.84 -4.05271 1.3762 0
M  V30 3570 C 325.166 -5.29664 0.732137 0
M  V30 3571 C 326.466 -4.44355 2.74493 0
M  V30 3572 H 328.16 -2.39006 1.80323 0
M  V30 3573 H 325.706 -1.14866 0.868435 0
M  V30 3574 H 327.659 -4.21004 0.182647 0
M  V30 3575 H 326.383 -3.21689 -0.564274 0
M  V30 3576 H 325.042 -3.3147 1.56599 0
M  V30 3577 H 324.69 -5.02499 -0.224483 0
M  V30 3578 H 324.39 -5.70848 1.39307 0
M  V30 3579 H 325.914 -6.08218 0.538802 0
M  V30 3580 H 327.328 -5.11303 2.59311 0
M  V30 3581 H 325.725 -4.96515 3.37035 0
M  V30 3582 H 326.795 -3.55339 3.29943 0
M  V30 3583 N 328.138 -0.959301 -1.25041 0
M  V30 3584 C 329.068 -0.501388 -2.28053 0
M  V30 3585 C 330.049 0.454673 -1.63911 0
M  V30 3586 O 331.234 0.352618 -1.90972 0
M  V30 3587 C 328.364 0.217224 -3.4662 0
M  V30 3588 C 327.318 -0.654034 -4.22973 0
M  V30 3589 C 326.644 0.195589 -5.34342 0
M  V30 3590 C 327.944 -1.93447 -4.85155 0
M  V30 3591 H 329.638 -1.36238 -2.66608 0
M  V30 3592 H 327.184 -0.656534 -1.28163 0
M  V30 3593 H 329.137 0.548732 -4.17812 0
M  V30 3594 H 327.861 1.1125 -3.07068 0
M  V30 3595 H 326.52 -0.968693 -3.5357 0
M  V30 3596 H 326.168 1.09076 -4.91031 0
M  V30 3597 H 325.868 -0.384091 -5.86343 0
M  V30 3598 H 327.392 0.521958 -6.08365 0
M  V30 3599 H 328.806 -1.66908 -5.48466 0
M  V30 3600 H 327.203 -2.46018 -5.47353 0
M  V30 3601 H 328.273 -2.63466 -4.07079 0
M  V30 3602 N 329.616 1.39756 -0.72842 0
M  V30 3603 C 331.032 1.5442 -0.403308 0
M  V30 3604 C 331.232 1.69694 1.08656 0
M  V30 3605 O 330.288 1.69373 1.87267 0
M  V30 3606 C 331.601 2.76555 -1.18058 0
M  V30 3607 C 333.149 2.90384 -1.16815 0
M  V30 3608 C 333.624 4.15449 -1.92785 0
M  V30 3609 N 335.115 4.22475 -1.89918 0
M  V30 3610 C 335.85 5.1818 -2.45514 0
M  V30 3611 N 335.346 6.19714 -3.09719 0
M  V30 3612 N 337.139 5.1035 -2.35584 0
M  V30 3613 H 329.29 1.28089 -1.69431 0
M  V30 3614 H 331.553 0.620327 -0.716867 0
M  V30 3615 H 331.259 2.7159 -2.23455 0
M  V30 3616 H 331.133 3.69033 -0.780662 0
M  V30 3617 H 333.52 2.94846 -0.12234 0
M  V30 3618 H 333.601 1.98988 -1.6074 0
M  V30 3619 H 333.245 4.11749 -2.97364 0
M  V30 3620 H 333.175 5.05877 -1.46272 0
M  V30 3621 H 335.666 3.49743 -1.43138 0
M  V30 3622 H 335.979 6.8919 -3.49625 0
M  V30 3623 H 334.324 6.20121 -3.13807 0
M  V30 3624 H 337.515 4.2996 -1.85072 0
M  V30 3625 H 337.688 5.84761 -2.79211 0
M  V30 3626 N 331.094 0.475555 1.50254 0
M  V30 3627 C 332.004 -0.321501 2.32387 0
M  V30 3628 C 333.02 -0.991755 1.42969 0
M  V30 3629 O 334.196 -0.978747 1.76018 0
M  V30 3630 C 331.261 -1.38667 3.17762 0
M  V30 3631 C 330.322 -0.732538 4.23004 0
M  V30 3632 C 329.555 -1.74695 5.04299 0
M  V30 3633 O 329.778 -2.97399 4.86734 0
M  V30 3634 O 328.712 -1.31631 5.8733 0
M  V30 3635 H 332.538 0.350071 3.01676 0
M  V30 3636 H 330.123 0.237321 1.47503 0
M  V30 3637 H 332.005 -2.00354 3.70724 0
M  V30 3638 H 330.68 -2.04163 2.51196 0
M  V30 3639 H 329.587 -0.0765902 3.74022 0
M  V30 3640 H 330.92 -0.120452 4.92053 0
M  V30 3641 N 332.573 -1.56217 0.208337 0
M  V30 3642 C 333.82 -1.97949 -0.42692 0
M  V30 3643 C 334.148 -1.09562 -1.60706 0
M  V30 3644 O 333.403 -0.137616 -1.95216 0
M  V30 3645 C 333.702 -3.45441 -0.916797 0
M  V30 3646 C 333.368 -4.50646 0.151391 0
M  V30 3647 C 332.03 -4.79139 0.444867 0
M  V30 3648 C 334.382 -5.13811 0.874492 0
M  V30 3649 C 331.71 -5.68084 1.46619 0
M  V30 3650 C 334.062 -6.03861 1.88506 0
M  V30 3651 C 332.726 -6.30704 2.18559 0
M  V30 3652 H 331.996 -0.724345 -0.156221 0
M  V30 3653 H 334.643 -1.89006 0.308084 0
M  V30 3654 H 332.948 -3.51521 -1.73032 0
M  V30 3655 H 334.645 -3.75094 -1.41794 0
M  V30 3656 H 331.235 -4.28511 -0.0875068 0
M  V30 3657 H 335.419 -4.91879 0.660996 0
M  V30 3658 H 330.675 -5.87151 1.7048 0
M  V30 3659 H 334.849 -6.51861 2.45051 0
M  V30 3660 H 332.476 -6.99424 2.97843 0
M  V30 3661 N 334.051 0.0651679 -1.57465 0
M  V30 3662 C 335.462 0.616213 -1.76238 0
M  V30 3663 C 335.813 1.7756 -0.834689 0
M  V30 3664 O 334.938 2.1639 -0.0204156 0
M  V30 3665 C 335.533 1.12462 -3.1959 0
M  V30 3666 C 334.092 1.62147 -3.39684 0
M  V30 3667 C 333.239 0.543739 -2.71917 0
M  V30 3668 H 336.19 -0.161022 -1.57881 0
M  V30 3669 H 336.211 1.99324 -3.24114 0
M  V30 3670 H 335.723 0.280592 -3.87084 0
M  V30 3671 H 333.824 2.48854 -2.77313 0
M  V30 3672 H 333.937 1.69385 -4.48158 0
M  V30 3673 H 332.301 0.990352 -2.34657 0
M  V30 3674 H 333.084 -0.290216 -3.42071 0
M  V30 3675 N 335.529 1.53961 0.336706 0
M  V30 3676 C 336.776 1.71536 1.07618 0
M  V30 3677 C 337.104 0.482125 1.8843 0
M  V30 3678 O 336.359 -0.536142 1.88213 0
M  V30 3679 C 336.658 2.93493 2.03953 0
M  V30 3680 C 336.324 4.28811 1.39399 0
M  V30 3681 C 334.986 4.65602 1.21523 0
M  V30 3682 C 337.338 5.12844 0.929541 0
M  V30 3683 C 334.666 5.84037 0.558312 0
M  V30 3684 C 337.018 6.31951 0.286505 0
M  V30 3685 C 335.682 6.67432 0.0954869 0
M  V30 3686 H 334.952 0.627696 0.393801 0
M  V30 3687 H 337.599 1.88186 0.354715 0
M  V30 3688 H 335.904 2.71475 2.82504 0
M  V30 3689 H 337.601 3.04285 2.61174 0
M  V30 3690 H 334.191 3.99858 1.54311 0
M  V30 3691 H 338.375 4.84947 1.05548 0
M  V30 3692 H 333.631 6.10097 0.398995 0
M  V30 3693 H 337.805 6.96352 -0.0814376 0
M  V30 3694 H 335.432 7.59063 -0.415579 0
M  V30 3695 N 337.007 -0.598083 1.45811 0
M  V30 3696 C 337.955 -1.72932 1.55555 0
M  V30 3697 C 338.949 -1.63984 0.424921 0
M  V30 3698 O 340.155 -1.69663 0.601205 0
M  V30 3699 H 336.53 -0.571489 0.488779 0
M  V30 3700 H 338.501 -1.61842 2.50699 0
M  V30 3701 C 337.25 -3.11318 1.54843 0
M  V30 3702 H 336.573 -3.18867 2.41172 0
M  V30 3703 H 338.013 -3.90274 1.65717 0
M  V30 3704 C 336.472 -3.3578 0.274427 0
M  V30 3705 O 337.002 -3.9654 -0.641778 0
M  V30 3706 N 335.208 -2.90119 0.167139 0
M  V30 3707 H 334.755 -2.40855 0.913596 0
M  V30 3708 H 334.713 -3.0686 -0.684435 0
M  V30 3709 N 338.485 -1.33259 -0.841409 0
M  V30 3710 C 339.901 -1.12538 -1.13169 0
M  V30 3711 C 340.101 0.0854037 -2.01319 0
M  V30 3712 O 339.157 0.766417 -2.40587 0
M  V30 3713 C 340.47 -2.41156 -1.79623 0
M  V30 3714 C 342.018 -2.47038 -1.922 0
M  V30 3715 C 342.493 -3.7561 -2.6207 0
M  V30 3716 N 343.984 -3.76667 -2.69585 0
M  V30 3717 C 344.719 -4.72861 -3.2433 0
M  V30 3718 N 344.215 -5.79428 -3.79783 0
M  V30 3719 N 346.008 -4.6034 -3.22558 0
M  V30 3720 H 338.159 -2.10868 -0.254676 0
M  V30 3721 H 340.422 -0.931615 -0.175493 0
M  V30 3722 H 340.128 -3.29747 -1.22311 0
M  V30 3723 H 340.002 -2.53114 -2.79666 0
M  V30 3724 H 342.389 -1.58898 -2.48667 0
M  V30 3725 H 342.47 -2.39022 -0.911148 0
M  V30 3726 H 342.114 -4.64131 -2.06263 0
M  V30 3727 H 342.044 -3.80902 -3.63622 0
M  V30 3728 H 344.535 -2.99648 -2.30259 0
M  V30 3729 H 344.848 -6.48867 -4.19752 0
M  V30 3730 H 343.193 -5.83166 -3.78078 0
M  V30 3731 H 346.384 -3.76244 -2.78492 0
M  V30 3732 H 346.557 -5.35478 -3.64921 0
M  V30 3733 N 339.963 1.05934 -1.16686 0
M  V30 3734 C 340.873 2.17014 -0.891183 0
M  V30 3735 C 341.889 1.73453 0.137907 0
M  V30 3736 O 343.065 2.01361 -0.039592 0
M  V30 3737 C 340.13 3.44384 -0.400099 0
M  V30 3738 C 339.191 4.02433 -1.49486 0
M  V30 3739 C 338.424 5.23723 -1.02711 0
M  V30 3740 O 338.647 5.7027 0.121716 0
M  V30 3741 O 337.581 5.7382 -1.81699 0
M  V30 3742 H 341.407 2.43113 -1.82015 0
M  V30 3743 H 338.992 1.15541 -0.947132 0
M  V30 3744 H 340.874 4.21189 -0.133392 0
M  V30 3745 H 339.549 3.19802 0.500817 0
M  V30 3746 H 338.456 3.27102 -1.81535 0
M  V30 3747 H 339.789 4.31317 -2.37121 0
M  V30 3748 N 341.441 0.965919 1.2453 0
M  V30 3749 C 342.69 0.622437 1.91856 0
M  V30 3750 C 343.003 -0.846006 1.76358 0
M  V30 3751 O 344.209 -1.29993 2.38357 0
M  V30 3752 C 342.665 1.0626 3.43856 0
M  V30 3753 C 342.273 2.55437 3.68043 0
M  V30 3754 C 344.017 0.792183 4.17043 0
M  V30 3755 C 341.924 2.93196 5.13605 0
M  V30 3756 H 340.854 0.229092 0.718354 0
M  V30 3757 H 343.505 1.17189 1.41206 0
M  V30 3758 H 341.887 0.441476 3.93531 0
M  V30 3759 H 343.061 3.22665 3.28974 0
M  V30 3760 H 341.376 2.8007 3.08139 0
M  V30 3761 H 343.973 1.05031 5.24283 0
M  V30 3762 H 344.316 -0.271584 4.15413 0
M  V30 3763 H 344.849 1.37419 3.73311 0
M  V30 3764 H 341.588 3.98636 5.20355 0
M  V30 3765 H 341.108 2.30651 5.53679 0
M  V30 3766 H 342.787 2.83004 5.81823 0
M  V30 3767 N 342.919 -1.39368 0.735821 0
M  V30 3768 C 343.849 -2.33234 0.111506 0
M  V30 3769 C 344.83 -1.53954 -0.723334 0
M  V30 3770 O 346.015 -1.82344 -0.668147 0
M  V30 3771 C 343.145 -3.38057 -0.795917 0
M  V30 3772 C 342.099 -4.2795 -0.065172 0
M  V30 3773 C 341.425 -5.23479 -1.08967 0
M  V30 3774 C 342.725 -5.10741 1.09273 0
M  V30 3775 H 344.419 -2.85692 0.895571 0
M  V30 3776 H 341.965 -1.37364 0.432109 0
M  V30 3777 H 343.918 -4.02675 -1.24221 0
M  V30 3778 H 342.642 -2.8404 -1.61211 0
M  V30 3779 H 341.301 -3.64813 0.361511 0
M  V30 3780 H 340.949 -4.65758 -1.89944 0
M  V30 3781 H 340.649 -5.84472 -0.605489 0
M  V30 3782 H 342.173 -5.90974 -1.53565 0
M  V30 3783 H 343.587 -5.68699 0.724841 0
M  V30 3784 H 341.984 -5.8088 1.50659 0
M  V30 3785 H 343.054 -4.45525 1.91404 0
M  V30 3786 N 344.397 -0.483516 -1.5 0
M  V30 3787 C 345.327 0.293829 -2.31644 0
M  V30 3788 C 346.308 0.978864 -1.39112 0
M  V30 3789 O 347.493 0.973644 -1.68029 0
M  V30 3790 C 344.623 1.36897 -3.19181 0
M  V30 3791 C 343.577 0.804833 -4.20365 0
M  V30 3792 C 342.903 1.9792 -4.96721 0
M  V30 3793 C 344.203 -0.192313 -5.21946 0
M  V30 3794 H 345.897 -0.387616 -2.9688 0
M  V30 3795 H 343.443 -0.187856 -1.42769 0
M  V30 3796 H 345.396 1.92037 -3.751 0
M  V30 3797 H 344.12 2.07936 -2.51853 0
M  V30 3798 H 342.779 0.275319 -3.65565 0
M  V30 3799 H 342.427 2.67686 -4.25856 0
M  V30 3800 H 342.127 1.60789 -5.65173 0
M  V30 3801 H 343.651 2.53526 -5.55479 0
M  V30 3802 H 345.065 0.270333 -5.72662 0
M  V30 3803 H 343.462 -0.478543 -5.98189 0
M  V30 3804 H 344.532 -1.11409 -4.71928 0
M  V30 3805 N 345.875 1.56104 -0.216619 0
M  V30 3806 C 347.121 1.98466 0.417033 0
M  V30 3807 C 347.454 1.10403 1.59765 0
M  V30 3808 O 346.729 0.160632 1.93836 0
M  V30 3809 C 347.012 3.49769 0.85637 0
M  V30 3810 C 346.865 4.48606 -0.327546 0
M  V30 3811 C 348.184 4.05339 1.7143 0
M  V30 3812 H 345.303 0.721551 0.150112 0
M  V30 3813 H 347.945 1.87423 -0.311864 0
M  V30 3814 H 346.095 3.5931 1.47745 0
M  V30 3815 H 347.767 4.5108 -0.965618 0
M  V30 3816 H 346.01 4.22682 -0.975805 0
M  V30 3817 H 346.681 5.51995 0.0227149 0
M  V30 3818 H 349.157 3.98712 1.19031 0
M  V30 3819 H 348.033 5.11533 1.99061 0
M  V30 3820 H 348.294 3.51918 2.67593 0
M  V30 3821 N 347.353 -0.0568162 1.57498 0
M  V30 3822 C 348.769 -0.411933 1.54192 0
M  V30 3823 C 348.969 -1.78287 0.938942 0
M  V30 3824 O 348.025 -2.46483 0.547919 0
M  V30 3825 C 349.338 -0.339244 2.9878 0
M  V30 3826 C 350.886 -0.418348 3.10192 0
M  V30 3827 C 351.361 -0.375407 4.56459 0
M  V30 3828 N 352.852 -0.435038 4.61153 0
M  V30 3829 C 353.587 -0.424265 5.71828 0
M  V30 3830 N 353.083 -0.367418 6.91825 0
M  V30 3831 N 354.876 -0.471938 5.60115 0
M  V30 3832 H 347.027 0.840684 1.95055 0
M  V30 3833 H 349.29 0.316987 0.893433 0
M  V30 3834 H 348.996 0.601742 3.46514 0
M  V30 3835 H 348.87 -1.14371 3.59443 0
M  V30 3836 H 351.257 -1.34976 2.62422 0
M  V30 3837 H 351.338 0.414962 2.52412 0
M  V30 3838 H 350.982 0.552219 5.04889 0
M  V30 3839 H 350.912 -1.22645 5.12119 0
M  V30 3840 H 353.403 -0.482612 3.74806 0
M  V30 3841 H 353.716 -0.363535 7.71944 0
M  V30 3842 H 352.061 -0.333879 6.94198 0
M  V30 3843 H 355.252 -0.514145 4.65268 0
M  V30 3844 H 355.425 -0.460073 6.46365 0
M  V30 3845 N 348.832 -1.54138 -0.328536 0
M  V30 3846 C 350.057 -1.76378 -1.09112 0
M  V30 3847 C 350.482 -0.508596 -1.81094 0
M  V30 3848 O 349.84 0.539598 -1.73084 0
M  V30 3849 C 349.888 -2.95358 -2.06872 0
M  V30 3850 O 348.992 -2.66556 -3.14677 0
M  V30 3851 H 348.333 -0.584614 -0.314838 0
M  V30 3852 H 350.863 -2.01146 -0.374348 0
M  V30 3853 H 350.873 -3.22566 -2.4983 0
M  V30 3854 H 349.548 -3.86385 -1.5388 0
M  V30 3855 H 348.125 -2.50282 -2.7643 0
M  V30 3856 N 350.31 0.590341 -1.46126 0
M  V30 3857 C 351.26 1.69466 -1.5253 0
M  V30 3858 C 352.244 1.56179 -0.386917 0
M  V30 3859 O 353.436 1.65223 -0.634858 0
M  V30 3860 C 350.565 3.08245 -1.5113 0
M  V30 3861 C 349.651 3.26856 -2.70233 0
M  V30 3862 N 350.042 3.15657 -3.95214 0
M  V30 3863 C 348.34 3.57775 -2.66296 0
M  V30 3864 C 349.041 3.36066 -4.74799 0
M  V30 3865 N 348.017 3.60865 -4.06543 0
M  V30 3866 H 351.819 1.59326 -2.46966 0
M  V30 3867 H 349.333 0.79414 -1.41659 0
M  V30 3868 H 351.33 3.87492 -1.53804 0
M  V30 3869 H 349.99 3.19521 -0.577636 0
M  V30 3870 H 351.001 2.93686 -4.26578 0
M  V30 3871 H 347.678 3.75782 -1.81918 0
M  V30 3872 H 349.068 3.32655 -5.83772 0
M  V30 3873 N 351.788 1.33704 0.83433 0
M  V30 3874 C 353.037 1.24763 1.58484 0
M  V30 3875 C 353.35 -0.183775 1.94735 0
M  V30 3876 O 354.556 -0.395234 2.68608 0
M  V30 3877 C 353.012 2.18638 2.85876 0
M  V30 3878 C 352.62 3.66974 2.56971 0
M  V30 3879 C 354.364 2.18581 3.63899 0
M  V30 3880 C 352.271 4.5275 3.80488 0
M  V30 3881 H 351.201 0.463425 0.594772 0
M  V30 3882 H 353.852 1.58797 0.919551 0
M  V30 3883 H 352.234 1.77542 3.5397 0
M  V30 3884 H 353.408 4.16538 1.9706 0
M  V30 3885 H 351.723 3.69366 1.92244 0
M  V30 3886 H 354.32 2.79894 4.55591 0
M  V30 3887 H 354.663 1.18207 3.99165 0
M  V30 3888 H 355.196 2.58062 3.02735 0
M  V30 3889 H 351.935 5.54017 3.5035 0
M  V30 3890 H 351.455 4.07927 4.39722 0
M  V30 3891 H 353.134 4.66784 4.4802 0
M  V30 3892 N 353.266 -1.05314 1.17247 0
M  V30 3893 C 354.513 -1.78293 0.960091 0
M  V30 3894 C 354.841 -1.87658 -0.51136 0
M  V30 3895 O 354.096 -1.3718 -1.39571 0
M  V30 3896 C 354.395 -3.2229 1.54479 0
M  V30 3897 C 354.061 -3.32987 3.04024 0
M  V30 3898 C 352.723 -3.35613 3.44844 0
M  V30 3899 C 355.075 -3.34102 4.00031 0
M  V30 3900 C 352.403 -3.36982 4.8027 0
M  V30 3901 C 354.755 -3.3701 5.35357 0
M  V30 3902 C 353.419 -3.37923 5.75642 0
M  V30 3903 H 352.689 -0.652422 0.351322 0
M  V30 3904 H 355.336 -1.23782 1.46117 0
M  V30 3905 H 353.641 -3.7972 0.965391 0
M  V30 3906 H 355.338 -3.77376 1.35603 0
M  V30 3907 H 351.928 -3.31655 2.71483 0
M  V30 3908 H 356.112 -3.31276 3.69554 0
M  V30 3909 H 351.368 -3.35999 5.10798 0
M  V30 3910 H 355.542 -3.36822 6.09528 0
M  V30 3911 H 353.169 -3.38738 6.80559 0
M  V30 3912 N 354.744 -0.972509 -1.24016 0
M  V30 3913 C 355.99 -0.637978 -1.92504 0
M  V30 3914 C 356.323 0.825383 -1.75787 0
M  V30 3915 O 355.598 1.59442 -1.11393 0
M  V30 3916 C 355.881 -1.01942 -3.45369 0
M  V30 3917 C 355.734 -2.53983 -3.71231 0
M  V30 3918 C 357.053 -0.55751 -4.36555 0
M  V30 3919 H 354.172 -0.233248 -0.699117 0
M  V30 3920 H 356.814 -1.21238 -1.46292 0
M  V30 3921 H 354.964 -0.530656 -3.84859 0
M  V30 3922 H 356.636 -3.10374 -3.41271 0
M  V30 3923 H 354.879 -2.96968 -3.16216 0
M  V30 3924 H 355.55 -2.75723 -4.78206 0
M  V30 3925 H 358.026 -0.977029 -4.04467 0
M  V30 3926 H 356.902 -0.85292 -5.42233 0
M  V30 3927 H 357.163 0.542328 -4.38761 0
M  V30 3928 N 356.222 1.38976 -0.743202 0
M  V30 3929 C 357.132 2.3434 -0.110399 0
M  V30 3930 C 358.148 1.58741 0.712559 0
M  V30 3931 O 359.324 1.9099 0.639125 0
M  V30 3932 C 356.389 3.37812 0.780012 0
M  V30 3933 C 355.45 4.29263 -0.0561319 0
M  V30 3934 C 354.683 5.27793 0.791875 0
M  V30 3935 O 354.906 5.33043 2.03031 0
M  V30 3936 O 353.84 6.01512 0.216183 0
M  V30 3937 H 357.666 2.90129 -0.897714 0
M  V30 3938 H 355.251 1.40643 -0.503966 0
M  V30 3939 H 357.133 4.01194 1.28923 0
M  V30 3940 H 355.808 2.84395 1.546 0
M  V30 3941 H 354.715 3.69076 -0.611056 0
M  V30 3942 H 356.048 4.85907 -0.784531 0
M  V30 3943 N 357.7 0.491464 1.49741 0
M  V30 3944 C 358.63 -0.28154 2.31796 0
M  V30 3945 C 359.611 -0.971473 1.3963 0
M  V30 3946 O 360.796 -0.964719 1.68543 0
M  V30 3947 C 357.926 -1.35203 3.19902 0
M  V30 3948 C 356.88 -0.782529 4.20786 0
M  V30 3949 C 356.206 -1.95283 4.97764 0
M  V30 3950 C 357.506 0.21999 5.21837 0
M  V30 3951 H 359.2 0.403355 2.96671 0
M  V30 3952 H 356.746 0.195425 1.42668 0
M  V30 3953 H 358.699 -1.90045 3.76113 0
M  V30 3954 H 357.423 -2.06598 2.52953 0
M  V30 3955 H 356.082 -0.255928 3.65706 0
M  V30 3956 H 355.73 -2.65423 4.2727 0
M  V30 3957 H 355.43 -1.57789 5.66018 0
M  V30 3958 H 356.954 -2.50577 5.56816 0
M  V30 3959 H 358.368 -0.23996 5.72798 0
M  V30 3960 H 356.765 0.51026 5.97927 0
M  V30 3961 H 357.835 1.13911 4.7133 0
M  V30 3962 N 359.178 -1.55987 0.224894 0
M  V30 3963 C 360.424 -1.98684 -0.406502 0
M  V30 3964 C 360.757 -1.11248 -1.59177 0
M  V30 3965 O 360.032 -0.170909 -1.93748 0
M  V30 3966 C 360.315 -3.50218 -0.837808 0
M  V30 3967 C 360.168 -4.48426 0.351332 0
M  V30 3968 C 361.487 -4.06243 -1.69278 0
M  V30 3969 H 358.606 -0.722337 -0.146283 0
M  V30 3970 H 361.248 -1.87255 0.321799 0
M  V30 3971 H 359.398 -3.60089 -1.45837 0
M  V30 3972 H 361.07 -4.50562 0.989526 0
M  V30 3973 H 359.313 -4.22159 0.998207 0
M  V30 3974 H 359.984 -5.52 0.00655905 0
M  V30 3975 H 362.46 -3.99337 -1.16914 0
M  V30 3976 H 361.336 -5.12581 -1.96346 0
M  V30 3977 H 361.597 -3.53332 -2.65723 0
M  V30 3978 N 360.656 0.0484629 -1.57525 0
M  V30 3979 C 361.933 0.777447 -1.79486 0
M  V30 3980 C 362.313 1.94597 -0.818251 0
M  V30 3981 O 361.661 2.28047 0.143767 0
M  V30 3982 C 361.871 1.22864 -3.26658 0
M  V30 3983 C 363.219 1.65251 -3.91123 0
M  V30 3984 O 364.243 1.32372 -3.3069 0
M  V30 3985 O 363.102 2.26207 -4.97486 0
M  V30 3986 H 360.196 0.374357 -0.737419 0
M  V30 3987 H 362.742 0.0267359 -1.69679 0
M  V30 3988 H 361.514 0.393589 -3.89316 0
M  V30 3989 H 361.137 2.03996 -3.41279 0
M  V30 3990 N 362.134 1.5431 0.320358 0
M  V30 3991 C 363.064 1.86912 1.3995 0
M  V30 3992 C 364.045 0.726211 1.53819 0
M  V30 3993 O 365.23 0.980233 1.67646 0
M  V30 3994 C 362.36 2.09932 2.7667 0
M  V30 3995 C 361.314 3.25776 2.77586 0
M  V30 3996 C 360.64 3.34173 4.17412 0
M  V30 3997 C 361.94 4.6335 2.41048 0
M  V30 3998 H 363.634 2.77292 1.12914 0
M  V30 3999 H 361.18 1.33421 0.541738 0
M  V30 4000 H 363.133 2.31324 3.52232 0
M  V30 4001 H 361.857 1.16304 3.0519 0
M  V30 4002 H 360.516 3.04276 2.04479 0
M  V30 4003 H 360.164 2.38098 4.43078 0
M  V30 4004 H 359.864 4.12033 4.18931 0
M  V30 4005 H 361.388 3.57803 4.94782 0
M  V30 4006 H 362.802 4.84602 3.06324 0
M  V30 4007 H 361.199 5.43782 2.53813 0
M  V30 4008 H 362.269 4.65381 1.36193 0
M  V30 4009 N 363.613 -0.582584 1.46437 0
M  V30 4010 C 364.543 -1.70187 1.59871 0
M  V30 4011 C 365.524 -1.64066 0.449042 0
M  V30 4012 O 366.709 -1.82081 0.6753 0
M  V30 4013 C 363.839 -3.08827 1.58881 0
M  V30 4014 C 362.793 -3.29779 2.72819 0
M  V30 4015 C 362.119 -4.68947 2.5689 0
M  V30 4016 C 363.419 -3.17601 4.1464 0
M  V30 4017 H 365.113 -1.592 2.53566 0
M  V30 4018 H 362.659 -0.764472 1.22032 0
M  V30 4019 H 364.612 -3.86951 1.66873 0
M  V30 4020 H 363.336 -3.20713 0.617306 0
M  V30 4021 H 361.995 -2.54054 2.64296 0
M  V30 4022 H 361.643 -4.77599 1.57823 0
M  V30 4023 H 361.343 -4.83919 3.33312 0
M  V30 4024 H 362.867 -5.4924 2.66773 0
M  V30 4025 H 364.281 -3.8557 4.24274 0
M  V30 4026 H 362.678 -3.44094 4.9165 0
M  V30 4027 H 363.748 -2.14681 4.34788 0
M  V30 4028 N 365.091 -1.34144 -0.827227 0
M  V30 4029 C 366.319 -1.29325 -1.61501 0
M  V30 4030 C 366.734 0.13354 -1.88327 0
M  V30 4031 O 366.091 1.0793 -1.47164 0
M  V30 4032 C 366.142 -2.07746 -2.95844 0
M  V30 4033 O 365.863 -3.4486 -2.70191 0
M  V30 4034 C 367.364 -2.10273 -3.90256 0
M  V30 4035 H 364.584 -0.445069 -0.50215 0
M  V30 4036 H 367.128 -1.76693 -1.02955 0
M  V30 4037 H 365.283 -1.6403 -3.5096 0
M  V30 4038 H 365.697 -3.85345 -3.55822 0
M  V30 4039 H 367.171 -2.69575 -4.81698 0
M  V30 4040 H 367.648 -1.096 -4.25305 0
M  V30 4041 H 368.254 -2.54059 -3.41078 0
M  V30 4042 N 366.569 1.04691 -1.17803 0
M  V30 4043 C 367.985 1.29963 -0.926379 0
M  V30 4044 C 368.185 1.97251 0.411635 0
M  V30 4045 O 367.241 2.24922 1.14744 0
M  V30 4046 C 368.554 2.16447 -2.08737 0
M  V30 4047 C 370.102 2.29814 -2.12496 0
M  V30 4048 C 370.577 3.19661 -3.27995 0
M  V30 4049 N 372.068 3.27247 -3.27816 0
M  V30 4050 C 372.803 3.96906 -4.13827 0
M  V30 4051 N 372.299 4.6895 -5.09959 0
M  V30 4052 N 374.092 3.93122 -4.01761 0
M  V30 4053 H 366.243 0.594182 -2.0392 0
M  V30 4054 H 368.506 0.324649 -0.890678 0
M  V30 4055 H 368.212 1.74304 -3.05469 0
M  V30 4056 H 368.086 3.17103 -2.04268 0
M  V30 4057 H 370.473 2.71196 -1.16347 0
M  V30 4058 H 370.554 1.2877 -2.21025 0
M  V30 4059 H 370.198 2.78991 -4.24413 0
M  V30 4060 H 370.128 4.20722 -3.16703 0
M  V30 4061 H 372.619 2.75921 -2.58217 0
M  V30 4062 H 372.932 5.19679 -5.71974 0
M  V30 4063 H 371.277 4.67875 -5.13924 0
M  V30 4064 H 374.468 3.35967 -3.2595 0
M  V30 4065 H 374.641 4.47139 -4.6901 0
M  V30 4066 N 368.047 0.979072 1.23499 0
M  V30 4067 C 369.463 0.687475 1.44034 0
M  V30 4068 C 369.663 -0.746801 1.8715 0
M  V30 4069 O 368.719 -1.51939 2.0167 0
M  V30 4070 C 370.032 1.68127 2.49307 0
M  V30 4071 C 371.58 1.69516 2.63122 0
M  V30 4072 C 372.055 2.67723 3.71603 0
M  V30 4073 N 373.546 2.66233 3.79044 0
M  V30 4074 C 374.281 3.38891 4.62537 0
M  V30 4075 N 373.777 4.21103 5.50131 0
M  V30 4076 N 375.57 3.27661 4.56721 0
M  V30 4077 H 367.721 1.90559 0.938135 0
M  V30 4078 H 369.984 0.821051 0.473897 0
M  V30 4079 H 369.69 2.70693 2.2454 0
M  V30 4080 H 369.564 1.46306 3.4767 0
M  V30 4081 H 371.951 0.676561 2.8724 0
M  V30 4082 H 372.032 1.95404 1.65079 0
M  V30 4083 H 371.676 3.69724 3.48233 0
M  V30 4084 H 371.606 2.39111 4.69184 0
M  V30 4085 H 374.097 2.06568 3.16446 0
M  V30 4086 H 374.41 4.73403 6.10827 0
M  V30 4087 H 372.755 4.25195 5.49759 0
M  V30 4088 H 375.946 2.62887 3.87309 0
M  V30 4089 H 376.119 3.84547 5.21562 0
M  V30 4090 N 369.525 -1.3858 0.750561 0
M  V30 4091 C 370.455 -2.33102 0.136237 0
M  V30 4092 C 371.436 -1.54713 -0.706965 0
M  V30 4093 O 372.621 -1.83043 -0.648769 0
M  V30 4094 C 369.751 -3.38882 -0.760017 0
M  V30 4095 C 368.705 -4.27995 -0.0197785 0
M  V30 4096 C 368.031 -5.24605 -1.03408 0
M  V30 4097 C 369.331 -5.09554 1.14684 0
M  V30 4098 H 371.025 -2.84726 0.925822 0
M  V30 4099 H 368.571 -1.36898 0.446654 0
M  V30 4100 H 370.524 -4.0397 -1.19943 0
M  V30 4101 H 369.248 -2.85734 -1.58189 0
M  V30 4102 H 367.907 -3.64409 0.400184 0
M  V30 4103 H 367.555 -4.67746 -1.84994 0
M  V30 4104 H 367.255 -5.85081 -0.543464 0
M  V30 4105 H 368.779 -5.9257 -1.47288 0
M  V30 4106 H 370.193 -5.67899 0.785118 0
M  V30 4107 H 368.59 -5.7925 1.56812 0
M  V30 4108 H 369.66 -4.4347 1.96118 0
M  V30 4109 N 371.003 -0.499398 -1.49478 0
M  V30 4110 C 372.231 0.0425456 -2.06856 0
M  V30 4111 C 372.646 1.30964 -1.35992 0
M  V30 4112 O 372.003 1.77172 -0.437762 0
M  V30 4113 C 372.054 0.301735 -3.60239 0
M  V30 4114 O 371.775 -0.915127 -4.28436 0
M  V30 4115 C 373.276 0.887499 -4.34325 0
M  V30 4116 H 370.496 -0.0197482 -0.670709 0
M  V30 4117 H 373.04 -0.696297 -1.92281 0
M  V30 4118 H 371.195 0.990556 -3.74522 0
M  V30 4119 H 371.609 -0.676993 -5.20113 0
M  V30 4120 H 373.083 1.01845 -5.42523 0
M  V30 4121 H 373.56 1.88488 -3.96698 0
M  V30 4122 H 374.166 0.236196 -4.24644 0
M  V30 4123 N 372.481 1.55866 -0.233164 0
M  V30 4124 C 373.391 2.24431 0.683217 0
M  V30 4125 C 374.407 1.2558 1.2044 0
M  V30 4126 O 375.583 1.58422 1.24356 0
M  V30 4127 C 372.648 2.91979 1.86947 0
M  V30 4128 C 371.709 4.06204 1.38912 0
M  V30 4129 C 370.942 4.70522 2.51883 0
M  V30 4130 O 371.165 4.33865 3.70293 0
M  V30 4131 O 370.099 5.59296 2.22423 0
M  V30 4132 H 373.925 3.03426 0.129059 0
M  V30 4133 H 371.51 1.494 -0.0022283 0
M  V30 4134 H 373.392 3.34573 2.56201 0
M  V30 4135 H 372.067 2.15935 2.41151 0
M  V30 4136 H 370.974 3.68155 0.664259 0
M  V30 4137 H 372.307 4.84025 0.893328 0
M  V30 4138 N 373.959 -0.0401083 1.57549 0
M  V30 4139 C 375.208 -0.732108 1.87944 0
M  V30 4140 C 375.521 -1.77107 0.830206 0
M  V30 4141 O 376.727 -2.51488 1.02302 0
M  V30 4142 C 375.183 -1.35315 3.33494 0
M  V30 4143 C 374.791 -0.351105 4.46622 0
M  V30 4144 C 376.535 -2.02566 3.73051 0
M  V30 4145 C 374.442 -0.979859 5.83226 0
M  V30 4146 H 373.372 -0.277188 0.701201 0
M  V30 4147 H 376.023 0.0138501 1.83495 0
M  V30 4148 H 374.405 -2.14844 3.32653 0
M  V30 4149 H 375.579 0.416674 4.58912 0
M  V30 4150 H 373.894 0.218708 4.15825 0
M  V30 4151 H 376.491 -2.50441 4.72423 0
M  V30 4152 H 376.834 -2.83904 3.04474 0
M  V30 4153 H 377.367 -1.29827 3.76018 0
M  V30 4154 H 374.106 -0.206135 6.55176 0
M  V30 4155 H 373.626 -1.71774 5.74677 0
M  V30 4156 H 375.305 -1.49046 6.29599 0
M  V30 4157 N 375.437 -1.54477 -0.31217 0
M  V30 4158 C 376.714 -1.63891 -1.06767 0
M  V30 4159 C 377.094 -0.480028 -2.0557 0
M  V30 4160 O 376.442 0.524487 -2.22399 0
M  V30 4161 C 376.652 -3.01402 -1.75948 0
M  V30 4162 C 378 -3.57838 -2.28554 0
M  V30 4163 O 379.024 -3.03782 -1.85998 0
M  V30 4164 O 377.883 -4.52462 -3.06497 0
M  V30 4165 H 374.977 -0.664125 -0.492816 0
M  V30 4166 H 377.523 -1.66823 -0.311149 0
M  V30 4167 H 376.295 -3.77187 -1.04144 0
M  V30 4168 H 375.918 -3.02199 -2.58383 0
M  V30 4169 N 376.915 0.57481 -1.46744 0
M  V30 4170 C 378.163 1.33009 -1.52161 0
M  V30 4171 C 378.484 1.94185 -0.178092 0
M  V30 4172 O 377.754 1.7899 0.796196 0
M  V30 4173 H 376.334 0.493873 -0.560445 0
M  V30 4174 H 378.996 0.672589 -1.82927 0
M  V30 4175 H 378.092 2.13273 -2.27862 0
M  V30 4176 N 378.394 1.34581 0.820102 0
M  V30 4177 C 379.622 1.3018 1.60813 0
M  V30 4178 C 380.037 -0.123551 1.88395 0
M  V30 4179 O 379.394 -1.07148 1.47735 0
M  V30 4180 C 379.445 2.09312 2.94739 0
M  V30 4181 O 379.166 3.46288 2.68358 0
M  V30 4182 C 380.667 2.1234 3.89136 0
M  V30 4183 H 377.887 0.447726 0.499782 0
M  V30 4184 H 380.431 1.77237 1.02017 0
M  V30 4185 H 378.586 1.65889 3.50085 0
M  V30 4186 H 379 3.87227 3.53774 0
M  V30 4187 H 380.474 2.72126 4.80262 0
M  V30 4188 H 380.951 1.11854 4.24718 0
M  V30 4189 H 381.557 2.55864 3.39726 0
M  V30 4190 N 379.872 -1.04064 1.18357 0
M  V30 4191 C 381.119 -1.77265 0.978947 0
M  V30 4192 C 381.447 -1.88189 -0.491428 0
M  V30 4193 O 380.702 -1.38653 -1.38108 0
M  V30 4194 C 381.001 -3.20634 1.57888 0
M  V30 4195 C 380.667 -3.29743 3.07539 0
M  V30 4196 C 379.329 -3.31937 3.48384 0
M  V30 4197 C 381.681 -3.29841 4.03552 0
M  V30 4198 C 379.009 -3.3187 4.83818 0
M  V30 4199 C 381.361 -3.31313 5.38901 0
M  V30 4200 C 380.025 -3.31799 5.79194 0
M  V30 4201 H 379.295 -0.648659 0.358222 0
M  V30 4202 H 381.942 -1.22225 1.47422 0
M  V30 4203 H 380.247 -3.78675 1.00561 0
M  V30 4204 H 381.944 -3.75917 1.39598 0
M  V30 4205 H 378.534 -3.28757 2.74986 0
M  V30 4206 H 382.718 -3.27337 3.73047 0
M  V30 4207 H 377.974 -3.30562 5.14333 0
M  V30 4208 H 382.148 -3.30338 6.13066 0
M  V30 4209 H 379.775 -3.315 6.84114 0
M  V30 4210 N 381.35 -0.985608 -1.22978 0
M  V30 4211 C 382.58 -0.674603 -1.95276 0
M  V30 4212 C 382.988 0.763483 -1.73111 0
M  V30 4213 O 382.331 1.52601 -1.02268 0
M  V30 4214 C 382.393 -0.891597 -3.48268 0
M  V30 4215 C 382.057 -2.31275 -3.94158 0
M  V30 4216 C 383.054 -3.29179 -4.02415 0
M  V30 4217 C 380.739 -2.64524 -4.27004 0
M  V30 4218 C 382.733 -4.58407 -4.42879 0
M  V30 4219 C 380.42 -3.93974 -4.67149 0
M  V30 4220 C 381.418 -4.90727 -4.75053 0
M  V30 4221 O 381.106 -6.17865 -5.14294 0
M  V30 4222 H 380.838 -0.249251 -0.628371 0
M  V30 4223 H 383.392 -1.32106 -1.5728 0
M  V30 4224 H 381.622 -0.187962 -3.86243 0
M  V30 4225 H 383.311 -0.576957 -4.01779 0
M  V30 4226 H 384.077 -3.04823 -3.77237 0
M  V30 4227 H 379.956 -1.89923 -4.2006 0
M  V30 4228 H 383.5 -5.33926 -4.48964 0
M  V30 4229 H 379.397 -4.18122 -4.91777 0
M  V30 4230 H 380.165 -6.21694 -5.32389 0
M  V30 4231 N 382.828 1.3818 -0.7579 0
M  V30 4232 C 384.058 2.04004 -0.326463 0
M  V30 4233 C 384.466 1.57286 1.05156 0
M  V30 4234 O 383.809 0.743144 1.67997 0
M  V30 4235 C 383.871 3.58444 -0.275402 0
M  V30 4236 C 383.535 4.28237 -1.59569 0
M  V30 4237 C 384.532 4.53312 -2.54566 0
M  V30 4238 C 382.217 4.66341 -1.86631 0
M  V30 4239 C 384.211 5.15531 -3.74842 0
M  V30 4240 C 381.898 5.28283 -3.0718 0
M  V30 4241 C 382.896 5.52814 -4.01106 0
M  V30 4242 O 382.584 6.13465 -5.19534 0
M  V30 4243 H 382.316 0.662026 -0.136739 0
M  V30 4244 H 384.87 1.7777 -1.02893 0
M  V30 4245 H 383.1 3.83667 0.483337 0
M  V30 4246 H 384.789 4.05701 0.127099 0
M  V30 4247 H 385.555 4.24299 -2.34936 0
M  V30 4248 H 381.434 4.46591 -1.14358 0
M  V30 4249 H 384.978 5.34594 -4.48168 0
M  V30 4250 H 380.875 5.56719 -3.26702 0
M  V30 4251 H 381.643 6.31951 -5.20173 0
M  V30 4252 N 384.306 0.507319 1.49211 0
M  V30 4253 C 385.269 -0.256763 2.27757 0
M  V30 4254 C 386.269 -0.888287 1.34038 0
M  V30 4255 O 387.459 -0.751841 1.5714 0
M  V30 4256 C 384.591 -1.36905 3.12202 0
M  V30 4257 H 385.784 0.432557 2.96764 0
M  V30 4258 H 383.337 0.262488 1.5408 0
M  V30 4259 H 384.072 -2.09233 2.47775 0
M  V30 4260 H 383.857 -0.921599 3.81115 0
M  V30 4261 H 385.347 -1.9071 3.7151 0
M  V30 4262 N 385.784 -1.5574 0.241426 0
M  V30 4263 C 387.032 -1.98417 -0.384075 0
M  V30 4264 C 387.353 -1.13078 -1.58866 0
M  V30 4265 O 386.623 -0.212312 -1.94746 0
M  V30 4266 H 385.203 -0.732813 -0.144894 0
M  V30 4267 H 387.865 -1.9193 0.338943 0
M  V30 4268 H 386.961 -3.04219 -0.696939 0
M  V30 4269 N 387.262 0.0317525 -1.57568 0
M  V30 4270 C 388.673 0.578692 -1.77505 0
M  V30 4271 C 389.024 1.75749 -0.872164 0
M  V30 4272 O 388.149 2.16298 -0.0663106 0
M  V30 4273 C 388.744 1.05658 -3.21904 0
M  V30 4274 C 387.303 1.54906 -3.43047 0
M  V30 4275 C 386.45 0.485939 -2.73009 0
M  V30 4276 H 389.401 -0.194475 -1.57504 0
M  V30 4277 H 389.422 1.92404 -3.28269 0
M  V30 4278 H 388.934 0.198422 -3.87592 0
M  V30 4279 H 387.035 2.42915 -2.82529 0
M  V30 4280 H 387.148 1.59841 -4.5165 0
M  V30 4281 H 385.512 0.940354 -2.36705 0
M  V30 4282 H 386.295 -0.362709 -3.41379 0
M  V30 4283 N 388.74 1.54641 0.303973 0
M  V30 4284 C 389.688 1.86137 1.39484 0
M  V30 4285 C 390.682 0.734854 1.52631 0
M  V30 4286 O 391.888 0.918803 1.54784 0
M  V30 4287 H 388.263 0.590324 0.465856 0
M  V30 4288 H 390.234 2.77324 1.10154 0
M  V30 4289 C 388.983 2.12274 2.75382 0
M  V30 4290 H 388.306 2.98429 2.66046 0
M  V30 4291 H 389.746 2.38254 3.5073 0
M  V30 4292 C 388.205 0.920365 3.24085 0
M  V30 4293 O 388.735 0.139377 4.01458 0
M  V30 4294 N 386.941 0.726566 2.81371 0
M  V30 4295 H 386.488 1.36332 2.18567 0
M  V30 4296 H 386.446 -0.0763799 3.14307 0
M  V30 4297 N 390.218 -0.567019 1.47046 0
M  V30 4298 C 391.466 -1.322 1.52864 0
M  V30 4299 C 391.787 -1.94088 0.188388 0
M  V30 4300 O 391.057 -1.7941 -0.786693 0
M  V30 4301 H 389.637 -0.490894 0.563056 0
M  V30 4302 H 392.299 -0.662879 1.83281 0
M  V30 4303 H 391.395 -2.12062 2.2899 0
M  V30 4304 N 391.696 -1.35014 -0.812953 0
M  V30 4305 C 392.942 -1.2812 -1.57204 0
M  V30 4306 C 393.275 0.145869 -1.93651 0
M  V30 4307 O 392.55 1.0937 -1.60836 0
M  V30 4308 C 392.833 -2.18162 -2.86492 0
M  V30 4309 C 392.686 -3.69454 -2.56561 0
M  V30 4310 C 394.005 -2.07439 -3.88145 0
M  V30 4311 H 391.124 -0.466746 -0.570366 0
M  V30 4312 H 393.766 -1.65357 -0.935783 0
M  V30 4313 H 391.916 -1.86535 -3.40789 0
M  V30 4314 H 393.588 -4.11493 -2.08497 0
M  V30 4315 H 391.831 -3.9005 -1.89851 0
M  V30 4316 H 392.502 -4.27835 -3.48799 0
M  V30 4317 H 394.978 -2.35228 -3.4323 0
M  V30 4318 H 393.854 -2.7265 -4.76396 0
M  V30 4319 H 394.115 -1.05439 -4.29343 0
M  V30 4320 N 393.175 1.03435 -1.18907 0
M  V30 4321 C 394.421 1.77005 -0.989798 0
M  V30 4322 C 394.754 1.88205 0.478816 0
M  V30 4323 O 394.029 1.39481 1.35556 0
M  V30 4324 C 394.312 3.19925 -1.65287 0
M  V30 4325 C 394.165 3.1663 -3.19477 0
M  V30 4326 C 395.484 4.18189 -1.37134 0
M  V30 4327 H 392.603 0.642538 -0.360991 0
M  V30 4328 H 395.245 1.20784 -1.46667 0
M  V30 4329 H 393.395 3.67929 -1.24741 0
M  V30 4330 H 395.067 2.76567 -3.692 0
M  V30 4331 H 393.31 2.54491 -3.51307 0
M  V30 4332 H 393.981 4.1758 -3.61013 0
M  V30 4333 H 396.457 3.78761 -1.72276 0
M  V30 4334 H 395.333 5.16394 -1.86087 0
M  V30 4335 H 395.594 4.41112 -0.295424 0
M  V30 4336 N 394.653 0.992116 1.22453 0
M  V30 4337 C 395.563 0.55065 2.28046 0
M  V30 4338 C 396.579 -0.400189 1.69335 0
M  V30 4339 O 397.755 -0.267215 1.99619 0
M  V30 4340 C 394.82 -0.128496 3.46462 0
M  V30 4341 C 393.881 0.865208 4.20491 0
M  V30 4342 C 393.114 0.218377 5.33253 0
M  V30 4343 O 393.337 -0.987894 5.6178 0
M  V30 4344 O 392.271 0.922845 5.94783 0
M  V30 4345 H 396.097 1.4291 2.67975 0
M  V30 4346 H 393.682 0.760326 1.28606 0
M  V30 4347 H 395.564 -0.508947 4.18315 0
M  V30 4348 H 394.239 -0.981526 3.0846 0
M  V30 4349 H 393.146 1.29658 3.50913 0
M  V30 4350 H 394.479 1.68741 4.62371 0
M  V30 4351 N 396.131 -1.37776 0.765217 0
M  V30 4352 C 397.378 -1.99849 0.326588 0
M  V30 4353 C 397.706 -1.60746 -1.09504 0
M  V30 4354 O 396.961 -0.84202 -1.76659 0
M  V30 4355 C 397.26 -3.5504 0.410053 0
M  V30 4356 C 396.926 -4.13891 1.78899 0
M  V30 4357 C 395.588 -4.29678 2.16635 0
M  V30 4358 C 397.94 -4.46236 2.69301 0
M  V30 4359 C 395.268 -4.7511 3.44221 0
M  V30 4360 C 397.62 -4.93089 3.9629 0
M  V30 4361 C 396.284 -5.07082 4.34078 0
M  V30 4362 H 395.554 -0.7313 0.119507 0
M  V30 4363 H 398.201 -1.64645 0.977968 0
M  V30 4364 H 396.506 -3.90451 -0.324878 0
M  V30 4365 H 398.203 -4.00966 0.0520699 0
M  V30 4366 H 394.793 -4.02026 1.48569 0
M  V30 4367 H 398.977 -4.3363 2.41409 0
M  V30 4368 H 394.233 -4.84129 3.73402 0
M  V30 4369 H 398.407 -5.17084 4.66472 0
M  V30 4370 H 396.034 -5.42046 5.33001 0
M  V30 4371 N 397.609 -0.515225 -1.4894 0
M  V30 4372 C 398.539 0.244628 -2.32215 0
M  V30 4373 C 399.52 0.949136 -1.41157 0
M  V30 4374 O 400.705 0.937783 -1.70057 0
M  V30 4375 C 397.835 1.30096 -3.22013 0
M  V30 4376 C 396.789 0.715486 -4.21977 0
M  V30 4377 C 396.115 1.87339 -5.00808 0
M  V30 4378 C 397.415 -0.302982 -5.2142 0
M  V30 4379 H 399.109 -0.450501 -2.95991 0
M  V30 4380 H 396.655 -0.218098 -1.42339 0
M  V30 4381 H 398.608 1.84037 -3.79089 0
M  V30 4382 H 397.332 2.02547 -2.56207 0
M  V30 4383 H 395.991 0.197715 -3.66066 0
M  V30 4384 H 395.639 2.58592 -4.31438 0
M  V30 4385 H 395.339 1.48764 -5.68457 0
M  V30 4386 H 396.863 2.41686 -5.60732 0
M  V30 4387 H 398.277 0.148802 -5.73107 0
M  V30 4388 H 396.674 -0.60532 -5.97039 0
M  V30 4389 H 397.744 -1.21395 -4.69459 0
M  V30 4390 N 399.087 1.5561 -0.249682 0
M  V30 4391 C 400.364 1.90932 0.424761 0
M  V30 4392 C 400.744 1.17078 1.75658 0
M  V30 4393 O 400.092 0.289176 2.26663 0
M  V30 4394 C 400.302 3.43975 0.590109 0
M  V30 4395 C 401.65 4.15281 0.884714 0
M  V30 4396 O 402.674 3.49729 0.67587 0
M  V30 4397 O 401.533 5.31236 1.28259 0
M  V30 4398 H 398.627 0.794815 0.228468 0
M  V30 4399 H 401.173 1.67135 -0.293954 0
M  V30 4400 H 399.945 3.89748 -0.34818 0
M  V30 4401 H 399.568 3.73644 1.35926 0
M  V30 4402 N 400.565 -0.0233959 1.57583 0
M  V30 4403 C 401.842 -0.748794 1.807 0
M  V30 4404 C 402.222 -1.9327 0.849106 0
M  V30 4405 O 401.57 -2.28247 -0.107468 0
M  V30 4406 C 401.78 -1.17651 3.28571 0
M  V30 4407 C 403.128 -1.59008 3.93702 0
M  V30 4408 O 404.152 -1.27094 3.32755 0
M  V30 4409 O 403.011 -2.18264 5.01022 0
M  V30 4410 H 400.105 -0.362578 0.743281 0
M  V30 4411 H 402.651 0.000261958 1.697 0
M  V30 4412 H 401.423 -0.331603 3.89892 0
M  V30 4413 H 401.046 -1.98541 3.44481 0
M  V30 4414 N 402.043 -1.548 -0.295768 0
M  V30 4415 C 403.459 -1.4613 -0.641722 0
M  V30 4416 C 403.659 -0.656771 -1.90496 0
M  V30 4417 O 402.715 -0.166547 -2.5195 0
M  V30 4418 C 404.028 -2.90141 -0.789852 0
M  V30 4419 C 405.576 -3.00216 -0.885396 0
M  V30 4420 C 406.051 -4.45434 -1.06548 0
M  V30 4421 N 407.542 -4.49166 -1.13156 0
M  V30 4422 C 408.277 -5.58717 -1.28929 0
M  V30 4423 N 407.773 -6.78182 -1.41567 0
M  V30 4424 N 409.566 -5.46415 -1.31859 0
M  V30 4425 H 401.717 -2.05574 0.534147 0
M  V30 4426 H 403.98 -0.931259 0.177372 0
M  V30 4427 H 403.686 -3.51635 0.0675598 0
M  V30 4428 H 403.56 -3.37859 -1.67724 0
M  V30 4429 H 405.947 -2.38833 -1.73329 0
M  V30 4430 H 406.028 -2.55787 0.0261185 0
M  V30 4431 H 405.672 -5.07413 -0.222335 0
M  V30 4432 H 405.602 -4.87499 -1.9913 0
M  V30 4433 H 408.093 -3.631 -1.04721 0
M  V30 4434 H 408.406 -7.57428 -1.53372 0
M  V30 4435 H 406.751 -6.81037 -1.38613 0
M  V30 4436 H 409.942 -4.5203 -1.21601 0
M  V30 4437 H 410.115 -6.31841 -1.43808 0
M  V30 4438 N 403.521 0.559213 -1.47345 0
M  V30 4439 C 404.454 1.68201 -1.5422 0
M  V30 4440 C 405.432 1.57742 -0.394497 0
M  V30 4441 O 406.616 1.78628 -0.60201 0
M  V30 4442 C 403.743 3.0643 -1.44285 0
M  V30 4443 C 402.789 3.3534 -2.63532 0
M  V30 4444 S 403.622 3.24816 -4.25741 0
M  V30 4445 C 404.778 4.65542 -4.18355 0
M  V30 4446 H 405.011 1.62114 -2.49211 0
M  V30 4447 H 402.544 0.739871 -1.35519 0
M  V30 4448 H 404.502 3.86164 -1.3924 0
M  V30 4449 H 403.163 3.09984 -0.506816 0
M  V30 4450 H 402.356 4.36107 -2.52639 0
M  V30 4451 H 401.958 2.63221 -2.65689 0
M  V30 4452 H 404.25 5.56449 -3.86485 0
M  V30 4453 H 405.193 4.81493 -5.19202 0
M  V30 4454 H 405.601 4.43495 -3.49246 0
M  V30 4455 N 404.999 1.35443 0.805782 0
M  V30 4456 C 406.415 1.15499 1.10146 0
M  V30 4457 C 406.615 -0.0319975 2.01475 0
M  V30 4458 O 405.671 -0.70236 2.42535 0
M  V30 4459 C 406.984 2.45833 1.73166 0
M  V30 4460 C 408.532 2.52047 1.85583 0
M  V30 4461 C 409.007 3.82427 2.52019 0
M  V30 4462 N 410.498 3.83682 2.59504 0
M  V30 4463 C 411.233 4.81294 3.11679 0
M  V30 4464 N 410.729 5.89294 3.64287 0
M  V30 4465 N 412.522 4.6873 3.1024 0
M  V30 4466 H 404.673 2.11469 0.198678 0
M  V30 4467 H 406.936 0.93594 0.150731 0
M  V30 4468 H 406.642 3.32874 1.13526 0
M  V30 4469 H 406.516 2.6044 2.72857 0
M  V30 4470 H 408.903 1.65435 2.44367 0
M  V30 4471 H 408.984 2.41354 0.847455 0
M  V30 4472 H 408.628 4.69437 1.93885 0
M  V30 4473 H 408.558 3.90409 3.53395 0
M  V30 4474 H 411.049 3.05648 2.22234 0
M  V30 4475 H 411.362 6.59768 4.02401 0
M  V30 4476 H 409.707 5.92985 3.62483 0
M  V30 4477 H 412.898 3.83496 2.68419 0
M  V30 4478 H 413.071 5.44965 3.50596 0
M  V30 4479 N 406.477 -1.02803 1.19454 0
M  V30 4480 C 407.726 -1.7562 0.991996 0
M  V30 4481 C 408.039 -1.89672 -0.477901 0
M  V30 4482 O 409.245 -2.59468 -0.799287 0
M  V30 4483 C 407.701 -3.15812 1.72601 0
M  V30 4484 C 407.309 -3.0981 3.23607 0
M  V30 4485 C 409.053 -3.92918 1.60674 0
M  V30 4486 C 406.96 -4.44939 3.89594 0
M  V30 4487 H 405.89 -0.658352 0.367543 0
M  V30 4488 H 408.541 -1.15044 1.42959 0
M  V30 4489 H 406.923 -3.7686 1.21624 0
M  V30 4490 H 408.097 -2.58138 3.81709 0
M  V30 4491 H 406.412 -2.46201 3.35819 0
M  V30 4492 H 409.009 -4.9287 2.07323 0
M  V30 4493 H 409.352 -4.12502 0.561025 0
M  V30 4494 H 409.885 -3.38472 2.09001 0
M  V30 4495 H 406.624 -4.30559 4.94267 0
M  V30 4496 H 406.144 -4.96664 3.36281 0
M  V30 4497 H 407.823 -5.1382 3.93189 0
M  V30 4498 N 407.956 -0.998596 -1.21925 0
M  V30 4499 C 409.186 -0.695276 -1.94549 0
M  V30 4500 C 409.594 0.745079 -1.73911 0
M  V30 4501 O 408.937 1.51507 -1.03881 0
M  V30 4502 C 408.999 -0.928485 -3.47303 0
M  V30 4503 C 408.663 -2.35443 -3.91683 0
M  V30 4504 C 409.66 -3.33428 -3.98901 0
M  V30 4505 C 407.345 -2.69038 -4.24174 0
M  V30 4506 C 409.339 -4.63079 -4.37992 0
M  V30 4507 C 407.026 -3.98906 -4.62944 0
M  V30 4508 C 408.024 -4.95738 -4.69822 0
M  V30 4509 O 407.712 -6.23285 -5.07711 0
M  V30 4510 H 407.444 -0.255902 -0.625692 0
M  V30 4511 H 409.998 -1.33767 -1.5587 0
M  V30 4512 H 408.228 -0.228917 -3.86022 0
M  V30 4513 H 409.917 -0.619539 -4.01144 0
M  V30 4514 H 410.683 -3.08807 -3.73983 0
M  V30 4515 H 406.562 -1.94367 -4.18022 0
M  V30 4516 H 410.106 -5.38658 -4.43275 0
M  V30 4517 H 406.003 -4.23314 -4.87314 0
M  V30 4518 H 406.771 -6.27306 -5.25766 0
M  V30 4519 N 409.434 1.37368 -0.772513 0
M  V30 4520 C 410.682 1.99279 -0.336516 0
M  V30 4521 C 411.003 1.6163 1.09091 0
M  V30 4522 O 410.273 0.882109 1.74916 0
M  V30 4523 H 408.853 0.737063 -0.121435 0
M  V30 4524 H 411.515 1.67836 -0.990809 0
M  V30 4525 H 410.611 3.09332 -0.414763 0
M  V30 4526 N 410.912 0.523116 1.48665 0
M  V30 4527 C 412.189 -0.0775449 1.95446 0
M  V30 4528 C 412.569 -1.5197 1.4652 0
M  V30 4529 O 411.917 -2.17876 0.688657 0
M  V30 4530 C 412.127 0.0326135 3.48985 0
M  V30 4531 C 413.475 -0.130141 4.24401 0
M  V30 4532 O 414.499 -0.0415142 3.56176 0
M  V30 4533 O 413.358 -0.31491 5.45592 0
M  V30 4534 H 410.452 -0.0831012 0.822814 0
M  V30 4535 H 412.998 0.587227 1.59216 0
M  V30 4536 H 411.77 1.03748 3.77296 0
M  V30 4537 H 411.393 -0.671317 3.91892 0
M  V30 4538 N 412.39 -1.55475 0.257931 0
M  V30 4539 C 413.353 -2.20551 -0.623706 0
M  V30 4540 C 414.353 -1.17809 -1.09443 0
M  V30 4541 O 415.543 -1.42823 -0.997362 0
M  V30 4542 C 412.675 -2.85784 -1.8585 0
M  V30 4543 H 413.868 -2.99848 -0.0557743 0
M  V30 4544 H 411.421 -1.56298 0.0084422 0
M  V30 4545 H 412.156 -2.10453 -2.46739 0
M  V30 4546 H 411.941 -3.61057 -1.52907 0
M  V30 4547 H 413.431 -3.35553 -2.48584 0
M  V30 4548 N 413.868 0.0150385 -1.57593 0
M  V30 4549 C 415.279 0.559832 -1.78109 0
M  V30 4550 C 415.63 1.74814 -0.890756 0
M  V30 4551 O 414.755 2.16216 -0.0892482 0
M  V30 4552 C 415.35 1.02238 -3.23006 0
M  V30 4553 C 413.909 1.51258 -3.44671 0
M  V30 4554 C 413.056 0.456955 -2.73509 0
M  V30 4555 H 416.007 -0.211169 -1.57289 0
M  V30 4556 H 416.028 1.88912 -3.30292 0
M  V30 4557 H 415.54 0.157302 -3.87781 0
M  V30 4558 H 413.641 2.39905 -2.8509 0
M  V30 4559 H 413.754 1.55042 -4.5332 0
M  V30 4560 H 412.118 0.915196 -2.37689 0
M  V30 4561 H 412.901 -0.398896 -3.40975 0
M  V30 4562 N 415.346 1.54954 0.287554 0
M  V30 4563 C 416.256 1.8991 1.37736 0
M  V30 4564 C 417.272 0.794701 1.54792 0
M  V30 4565 O 418.448 1.09243 1.69198 0
M  V30 4566 C 415.513 2.15108 2.71899 0
M  V30 4567 C 414.574 3.38752 2.63715 0
M  V30 4568 C 413.807 3.62739 3.91479 0
M  V30 4569 O 414.03 2.89492 4.91478 0
M  V30 4570 O 412.964 4.56267 3.92561 0
M  V30 4571 H 416.79 2.82652 1.11092 0
M  V30 4572 H 414.375 1.41315 0.484807 0
M  V30 4573 H 416.257 2.32806 3.51254 0
M  V30 4574 H 414.932 1.25551 2.9836 0
M  V30 4575 H 413.839 3.26405 1.82786 0
M  V30 4576 H 415.172 4.28483 2.42205 0
M  V30 4577 N 416.824 -0.551391 1.4764 0
M  V30 4578 C 418.073 -1.30467 1.53822 0
M  V30 4579 C 418.386 -1.94495 0.207661 0
M  V30 4580 O 419.592 -2.71099 0.147533 0
M  V30 4581 C 418.048 -2.36616 2.71184 0
M  V30 4582 C 417.656 -1.78754 4.10793 0
M  V30 4583 C 419.4 -3.13088 2.86663 0
M  V30 4584 C 417.307 -2.82717 5.19447 0
M  V30 4585 H 416.237 -0.490584 0.572576 0
M  V30 4586 H 418.888 -0.58494 1.73927 0
M  V30 4587 H 417.27 -3.11529 2.4447 0
M  V30 4588 H 418.444 -1.10173 4.47435 0
M  V30 4589 H 416.759 -1.14846 4.00249 0
M  V30 4590 H 419.356 -3.90736 3.65007 0
M  V30 4591 H 419.699 -3.67635 1.95321 0
M  V30 4592 H 420.232 -2.45288 3.13175 0
M  V30 4593 H 416.971 -2.33018 6.12685 0
M  V30 4594 H 416.491 -3.4969 4.87316 0
M  V30 4595 H 418.17 -3.46102 5.46646 0
M  V30 4596 N 418.302 -1.35869 -0.798587 0
M  V30 4597 C 419.212 -1.31578 -1.94228 0
M  V30 4598 C 420.228 -0.21939 -1.72611 0
M  V30 4599 O 421.404 -0.450167 -1.96305 0
M  V30 4600 C 418.469 -1.09528 -3.28944 0
M  V30 4601 C 417.53 -2.28556 -3.63402 0
M  V30 4602 C 416.763 -2.07549 -4.9169 0
M  V30 4603 O 416.986 -1.046 -5.60727 0
M  V30 4604 O 415.92 -2.95106 -5.24591 0
M  V30 4605 H 419.746 -2.27847 -2.00796 0
M  V30 4606 H 417.331 -1.16322 -0.937526 0
M  V30 4607 H 419.213 -0.991127 -4.09579 0
M  V30 4608 H 417.888 -0.16315 -3.23289 0
M  V30 4609 H 416.795 -2.44538 -2.83112 0
M  V30 4610 H 418.128 -3.20244 -3.73771 0
M  V30 4611 N 419.78 1.02168 -1.19998 0
M  V30 4612 C 420.728 2.12717 -0.940967 0
M  V30 4613 C 421.722 1.69069 0.105841 0
M  V30 4614 O 422.928 1.79946 -0.0440583 0
M  V30 4615 H 419.303 0.695108 -0.28693 0
M  V30 4616 H 421.274 2.3175 -1.87975 0
M  V30 4617 C 420.023 3.44027 -0.504049 0
M  V30 4618 H 419.346 3.78036 -1.30112 0
M  V30 4619 H 420.786 4.22452 -0.361991 0
M  V30 4620 C 419.245 3.27678 0.782878 0
M  V30 4621 O 419.775 3.56949 1.84256 0
M  V30 4622 N 417.981 2.80943 0.742921 0
M  V30 4623 H 417.528 2.57322 -0.119687 0
M  V30 4624 H 417.486 2.70385 1.60435 0
M  V30 4625 N 421.258 1.00505 1.21394 0
M  V30 4626 C 422.188 0.585684 2.26035 0
M  V30 4627 C 423.169 -0.393525 1.65485 0
M  V30 4628 O 424.354 -0.281497 1.92149 0
M  V30 4629 C 421.484 -0.0884283 3.47187 0
M  V30 4630 C 420.438 0.810567 4.20254 0
M  V30 4631 C 419.764 0.00286382 5.347 0
M  V30 4632 C 421.064 2.1132 4.77641 0
M  V30 4633 H 422.758 1.46039 2.61368 0
M  V30 4634 H 420.304 0.703648 1.25638 0
M  V30 4635 H 422.257 -0.393286 4.19561 0
M  V30 4636 H 420.981 -0.997766 3.10986 0
M  V30 4637 H 419.64 1.09925 3.49731 0
M  V30 4638 H 419.288 -0.907765 4.94741 0
M  V30 4639 H 418.988 0.601444 5.84514 0
M  V30 4640 H 420.512 -0.295808 6.09883 0
M  V30 4641 H 421.926 1.87148 5.41893 0
M  V30 4642 H 420.323 2.66164 5.37845 0
M  V30 4643 H 421.393 2.78393 3.9702 0
M  V30 4644 N 422.737 -1.36956 0.779787 0
M  V30 4645 C 423.667 -2.32761 0.185651 0
M  V30 4646 C 424.648 -1.56177 -0.673989 0
M  V30 4647 O 425.833 -1.84378 -0.609797 0
M  V30 4648 C 422.963 -3.40418 -0.687964 0
M  V30 4649 C 421.917 -4.27941 0.0710102 0
M  V30 4650 C 421.243 -5.26681 -0.922573 0
M  V30 4651 C 422.543 -5.07006 1.25467 0
M  V30 4652 H 424.237 -2.82698 0.986008 0
M  V30 4653 H 421.783 -1.3592 0.475592 0
M  V30 4654 H 423.736 -4.06423 -1.11348 0
M  V30 4655 H 422.46 -2.89025 -1.52093 0
M  V30 4656 H 421.119 -3.63478 0.47739 0
M  V30 4657 H 420.767 -4.71565 -1.7503 0
M  V30 4658 H 420.467 -5.86103 -0.419237 0
M  V30 4659 H 421.991 -5.9556 -1.34686 0
M  V30 4660 H 423.405 -5.66105 0.905401 0
M  V30 4661 H 421.802 -5.75793 1.69063 0
M  V30 4662 H 422.872 -4.3921 2.05481 0
M  V30 4663 N 424.215 -0.530993 -1.48385 0
M  V30 4664 C 425.443 -0.00134122 -2.069 0
M  V30 4665 C 425.858 1.2805 -1.3874 0
M  V30 4666 O 425.215 1.76204 -0.475244 0
M  V30 4667 C 425.266 0.225256 -3.60798 0
M  V30 4668 O 424.987 -1.0058 -4.26398 0
M  V30 4669 C 426.488 0.795172 -4.3611 0
M  V30 4670 H 423.708 -0.0339704 -0.67014 0
M  V30 4671 H 426.252 -0.736926 -1.90761 0
M  V30 4672 H 424.407 0.910891 -3.76539 0
M  V30 4673 H 424.821 -0.787165 -5.1856 0
M  V30 4674 H 426.295 0.903143 -5.44562 0
M  V30 4675 H 426.772 1.80031 -4.00606 0
M  V30 4676 H 427.378 0.146069 -4.25049 0
M  V30 4677 N 425.693 1.55336 -0.266172 0
M  V30 4678 C 426.625 2.19544 0.658247 0
M  V30 4679 C 427.638 1.17746 1.12427 0
M  V30 4680 O 428.827 1.44517 1.04772 0
M  V30 4681 C 425.927 2.80032 1.9088 0
M  V30 4682 C 425.1 4.07436 1.59106 0
M  V30 4683 C 424.159 4.52056 2.69317 0
M  V30 4684 O 423.185 5.18023 2.35883 0
M  V30 4685 N 424.387 4.21448 3.99201 0
M  V30 4686 H 427.152 2.99503 0.108754 0
M  V30 4687 H 424.713 1.61667 -0.0869059 0
M  V30 4688 H 426.705 3.06831 2.63888 0
M  V30 4689 H 425.275 2.04119 2.36758 0
M  V30 4690 H 424.495 3.88021 0.695243 0
M  V30 4691 H 425.783 4.90462 1.35367 0
M  V30 4692 H 425.181 3.68528 4.29189 0
M  V30 4693 H 423.738 4.53039 4.68614 0
M  V30 4694 N 427.171 -0.0066808 1.57599 0
M  V30 4695 C 428.417 -0.68835 1.91398 0
M  V30 4696 C 428.772 -1.7175 0.86716 0
M  V30 4697 O 428.065 -1.91215 -0.121475 0
M  V30 4698 C 428.259 -1.37939 3.29708 0
M  V30 4699 C 428.088 -0.418689 4.47747 0
M  V30 4700 C 426.858 -0.031526 5.0529 0
M  V30 4701 C 429.056 0.312301 5.13351 0
M  V30 4702 N 427.038 0.928088 6.06844 0
M  V30 4703 C 428.409 1.12682 6.09674 0
M  V30 4704 C 430.464 0.376853 4.96472 0
M  V30 4705 C 429.167 2 6.90936 0
M  V30 4706 C 431.193 1.23723 5.78314 0
M  V30 4707 C 430.555 2.03962 6.74225 0
M  V30 4708 H 426.654 -0.225292 0.748844 0
M  V30 4709 H 429.238 0.0520973 1.9463 0
M  V30 4710 H 427.409 -2.09017 3.27363 0
M  V30 4711 H 429.141 -2.01522 3.50957 0
M  V30 4712 H 425.896 -0.398485 4.71921 0
M  V30 4713 H 426.32 1.40307 6.62301 0
M  V30 4714 H 430.962 -0.22921 4.22178 0
M  V30 4715 H 428.68 2.61676 7.64559 0
M  V30 4716 H 432.266 1.291 5.67296 0
M  V30 4717 H 431.146 2.69461 7.36451 0
M  V30 4718 N 428.649 -1.55105 -0.279332 0
M  V30 4719 C 429.559 -1.90638 -1.36727 0
M  V30 4720 C 430.575 -0.802899 -1.54368 0
M  V30 4721 O 431.751 -1.10138 -1.68616 0
M  V30 4722 C 428.816 -2.16547 -2.70755 0
M  V30 4723 C 427.877 -3.40146 -2.61915 0
M  V30 4724 C 427.11 -3.6481 -3.8955 0
M  V30 4725 O 427.333 -2.92095 -4.89935 0
M  V30 4726 O 426.267 -4.58343 -3.90135 0
M  V30 4727 H 430.093 -2.83237 -1.09591 0
M  V30 4728 H 427.678 -1.4157 -0.477306 0
M  V30 4729 H 429.56 -2.34665 -3.50014 0
M  V30 4730 H 428.235 -1.27131 -2.9769 0
M  V30 4731 H 427.142 -3.2737 -1.81052 0
M  V30 4732 H 428.475 -4.29761 -2.3993 0
M  V30 4733 N 430.127 0.543554 -1.4793 0
M  V30 4734 C 431.352 1.32995 -1.59145 0
M  V30 4735 C 431.777 1.86472 -0.246956 0
M  V30 4736 O 431.135 1.63696 0.779324 0
M  V30 4737 C 431.183 2.46623 -2.63077 0
M  V30 4738 O 430.287 3.49261 -2.19295 0
M  V30 4739 H 429.628 0.394472 -0.534124 0
M  V30 4740 H 432.158 0.655489 -1.93816 0
M  V30 4741 H 432.168 2.93001 -2.83926 0
M  V30 4742 H 430.843 2.07059 -3.60693 0
M  V30 4743 H 429.42 3.09094 -2.08603 0
M  V30 4744 N 431.605 1.3629 0.791371 0
M  V30 4745 C 432.845 1.31792 1.56238 0
M  V30 4746 C 433.209 -0.102237 1.91728 0
M  V30 4747 O 434.41 -0.271759 2.67423 0
M  V30 4748 C 432.681 2.21303 2.80642 0
M  V30 4749 S 434.24 2.34468 3.70904 0
M  V30 4750 H 431.058 0.468141 0.535131 0
M  V30 4751 H 433.66 1.71841 0.932246 0
M  V30 4752 H 432.364 3.23439 2.52617 0
M  V30 4753 H 431.895 1.82266 3.4863 0
M  V30 4754 H 433.91 1.54074 4.71673 0
M  V30 4755 N 433.083 -1.0153 1.20538 0
M  V30 4756 C 434.331 -1.74803 1.01432 0
M  V30 4757 C 434.652 -1.8963 -0.454456 0
M  V30 4758 O 433.922 -1.43975 -1.32846 0
M  V30 4759 H 432.502 -0.647598 0.372324 0
M  V30 4760 H 435.164 -1.22402 1.5167 0
M  V30 4761 H 434.26 -2.75114 1.47373 0
M  V30 4762 N 434.561 -1.01147 -1.20859 0
M  V30 4763 C 435.791 -0.715872 -1.93801 0
M  V30 4764 C 436.199 0.726592 -1.74692 0
M  V30 4765 O 435.542 1.50397 -1.05482 0
M  V30 4766 C 435.604 -0.965269 -3.46299 0
M  V30 4767 C 435.268 -2.39584 -3.89164 0
M  V30 4768 C 436.265 -3.3764 -3.95342 0
M  V30 4769 C 433.95 -2.73522 -4.21297 0
M  V30 4770 C 435.944 -4.67698 -4.33056 0
M  V30 4771 C 433.631 -4.03794 -4.58687 0
M  V30 4772 C 434.629 -5.00693 -4.64538 0
M  V30 4773 O 434.317 -6.28635 -5.01072 0
M  V30 4774 H 434.049 -0.262524 -0.622942 0
M  V30 4775 H 436.603 -1.35413 -1.54443 0
M  V30 4776 H 434.833 -0.269847 -3.85757 0
M  V30 4777 H 436.522 -0.662051 -4.00464 0
M  V30 4778 H 437.288 -3.12757 -3.70686 0
M  V30 4779 H 433.167 -1.9879 -4.15937 0
M  V30 4780 H 436.711 -5.4333 -4.37537 0
M  V30 4781 H 432.608 -4.28459 -4.82797 0
M  V30 4782 H 433.376 -6.32847 -5.19083 0
M  V30 4783 N 436.039 1.36541 -0.78704 0
M  V30 4784 C 437.455 1.52571 -0.46844 0
M  V30 4785 C 437.655 1.7415 1.01361 0
M  V30 4786 O 436.711 1.77163 1.79915 0
M  V30 4787 C 438.024 2.71299 -1.29682 0
M  V30 4788 C 439.572 2.85169 -1.29027 0
M  V30 4789 C 440.047 4.06898 -2.10233 0
M  V30 4790 N 441.538 4.1404 -2.07666 0
M  V30 4791 C 442.273 5.07301 -2.67271 0
M  V30 4792 N 441.769 6.06021 -3.35724 0
M  V30 4793 N 443.562 4.99898 -2.57018 0
M  V30 4794 H 435.713 1.20788 -1.74711 0
M  V30 4795 H 437.976 0.589364 -0.742532 0
M  V30 4796 H 437.682 2.61868 -2.34773 0
M  V30 4797 H 437.556 3.6539 -0.936479 0
M  V30 4798 H 439.943 2.94062 -0.247284 0
M  V30 4799 H 440.024 1.91992 -1.69035 0
M  V30 4800 H 439.668 3.98766 -3.1456 0
M  V30 4801 H 439.598 4.99218 -1.67597 0
M  V30 4802 H 442.089 3.43357 -1.57843 0
M  V30 4803 H 442.402 6.73741 -3.78541 0
M  V30 4804 H 440.747 6.06253 -3.39826 0
M  V30 4805 H 443.938 4.21724 -2.03142 0
M  V30 4806 H 444.111 5.72392 -3.03761 0
M  V30 4807 N 437.518 0.538854 1.48102 0
M  V30 4808 C 438.743 0.0102694 2.07397 0
M  V30 4809 C 439.168 -1.26562 1.39153 0
M  V30 4810 O 438.526 -1.75357 0.460387 0
M  V30 4811 C 438.574 -0.187602 3.60112 0
M  V30 4812 O 437.678 -1.25432 3.92862 0
M  V30 4813 H 437.019 0.0430975 0.6626 0
M  V30 4814 H 439.549 0.749301 1.90385 0
M  V30 4815 H 439.559 -0.407517 4.0596 0
M  V30 4816 H 438.234 0.744386 4.09184 0
M  V30 4817 H 436.811 -1.01636 3.58782 0
M  V30 4818 N 438.996 -1.55193 0.274407 0
M  V30 4819 C 440.243 -1.99581 -0.342579 0
M  V30 4820 C 440.571 -1.1628 -1.55914 0
M  V30 4821 O 439.826 -0.22029 -1.94456 0
M  V30 4822 C 440.125 -3.49019 -0.769458 0
M  V30 4823 C 439.791 -4.49598 0.342389 0
M  V30 4824 C 438.453 -4.76821 0.647686 0
M  V30 4825 C 440.805 -5.0964 1.09163 0
M  V30 4826 C 438.133 -5.61354 1.70581 0
M  V30 4827 C 440.485 -5.95323 2.13948 0
M  V30 4828 C 439.149 -6.20867 2.45113 0
M  V30 4829 H 438.419 -0.730319 -0.125358 0
M  V30 4830 H 441.066 -1.87529 0.387971 0
M  V30 4831 H 439.371 -3.58544 -1.57967 0
M  V30 4832 H 441.068 -3.8077 -1.25757 0
M  V30 4833 H 437.658 -4.28496 0.094318 0
M  V30 4834 H 441.842 -4.88632 0.869024 0
M  V30 4835 H 437.098 -5.79392 1.9523 0
M  V30 4836 H 441.272 -6.40881 2.72478 0
M  V30 4837 H 438.899 -6.86162 3.27239 0
M  V30 4838 N 440.474 -0.00167713 -1.576 0
M  V30 4839 C 441.384 1.00548 -2.1196 0
M  V30 4840 C 442.4 1.3758 -1.06526 0
M  V30 4841 O 443.576 1.46278 -1.38436 0
M  V30 4842 C 440.641 2.27809 -2.6135 0
M  V30 4843 C 439.702 1.97074 -3.81393 0
M  V30 4844 C 438.935 3.18267 -4.28417 0
M  V30 4845 O 439.158 4.30009 -3.74765 0
M  V30 4846 O 438.092 3.02167 -5.20556 0
M  V30 4847 H 441.918 0.573373 -2.98238 0
M  V30 4848 H 439.503 0.217255 -1.47812 0
M  V30 4849 H 441.385 3.02568 -2.93309 0
M  V30 4850 H 440.06 2.70254 -1.78169 0
M  V30 4851 H 438.967 1.19785 -3.54404 0
M  V30 4852 H 440.3 1.59464 -4.65652 0
M  V30 4853 N 441.952 1.55251 0.271103 0
M  V30 4854 C 443.182 1.79713 1.01916 0
M  V30 4855 C 443.59 0.571613 1.80359 0
M  V30 4856 O 442.933 -0.468853 1.77616 0
M  V30 4857 C 442.995 2.97138 2.02359 0
M  V30 4858 C 442.659 4.34104 1.42837 0
M  V30 4859 C 443.656 5.13019 0.843071 0
M  V30 4860 C 441.341 4.80765 1.455 0
M  V30 4861 C 443.335 6.36729 0.292333 0
M  V30 4862 C 441.022 6.0443 0.900402 0
M  V30 4863 C 442.02 6.8225 0.32007 0
M  V30 4864 O 441.708 8.03582 -0.226031 0
M  V30 4865 H 441.44 0.602431 0.306681 0
M  V30 4866 H 443.994 2.03097 0.306701 0
M  V30 4867 H 442.224 2.6945 2.77369 0
M  V30 4868 H 443.913 3.08907 2.63309 0
M  V30 4869 H 444.679 4.781 0.815178 0
M  V30 4870 H 440.558 4.20202 1.89609 0
M  V30 4871 H 444.102 6.97414 -0.161274 0
M  V30 4872 H 439.999 6.3883 0.925541 0
M  V30 4873 H 440.767 8.18418 -0.115572 0
M  V30 4874 N 443.43 -0.535701 1.48216 0
M  V30 4875 C 444.36 -1.65014 1.65204 0
M  V30 4876 C 445.341 -1.62554 0.501011 0
M  V30 4877 O 446.526 -1.7984 0.732886 0
M  V30 4878 C 443.656 -3.03616 1.68626 0
M  V30 4879 C 442.61 -3.20932 2.83172 0
M  V30 4880 C 441.936 -4.60537 2.71679 0
M  V30 4881 C 443.236 -3.04249 4.24535 0
M  V30 4882 H 444.93 -1.51053 2.58502 0
M  V30 4883 H 442.476 -0.725262 1.24402 0
M  V30 4884 H 444.429 -3.81446 1.79099 0
M  V30 4885 H 443.153 -3.18587 0.719026 0
M  V30 4886 H 441.812 -2.45517 2.72244 0
M  V30 4887 H 441.46 -4.72336 1.72937 0
M  V30 4888 H 441.16 -4.73069 3.48538 0
M  V30 4889 H 442.684 -5.40475 2.84112 0
M  V30 4890 H 444.098 -3.71877 4.36326 0
M  V30 4891 H 442.495 -3.28278 5.02348 0
M  V30 4892 H 443.565 -2.00739 4.41397 0
M  V30 4893 N 444.908 -1.36708 -0.784132 0
M  V30 4894 C 445.841 -1.25827 -1.90375 0
M  V30 4895 C 446.819 -0.141331 -1.61985 0
M  V30 4896 O 448.003 -0.313389 -1.85877 0
M  V30 4897 C 445.13 -0.942621 -3.25319 0
M  V30 4898 C 444.176 -2.07474 -3.72635 0
M  V30 4899 S 445.009 -3.69317 -3.8777 0
M  V30 4900 C 446.165 -3.39876 -5.25581 0
M  V30 4901 H 446.398 -2.20593 -1.99314 0
M  V30 4902 H 443.931 -1.22186 -0.943926 0
M  V30 4903 H 445.889 -0.767321 -4.03265 0
M  V30 4904 H 444.55 -0.0126566 -3.14097 0
M  V30 4905 H 443.743 -1.80858 -4.70432 0
M  V30 4906 H 443.345 -2.20953 -3.01754 0
M  V30 4907 H 445.637 -2.94097 -6.10339 0
M  V30 4908 H 446.58 -4.36956 -5.57203 0
M  V30 4909 H 446.988 -2.75098 -4.92931 0
M  V30 4910 N 446.386 1.0089 -1.21074 0
M  V30 4911 C 447.316 2.1145 -0.990523 0
M  V30 4912 C 448.297 1.69897 0.0831699 0
M  V30 4913 O 449.482 1.94052 -0.0758853 0
M  V30 4914 C 446.612 3.42914 -0.550177 0
M  V30 4915 C 445.566 3.98244 -1.56799 0
M  V30 4916 C 444.892 5.25568 -0.984013 0
M  V30 4917 C 446.192 4.30752 -2.95381 0
M  V30 4918 H 447.886 2.3013 -1.91521 0
M  V30 4919 H 445.432 1.10592 -0.92225 0
M  V30 4920 H 447.385 4.19653 -0.383305 0
M  V30 4921 H 446.109 3.24014 0.41015 0
M  V30 4922 H 444.768 3.23621 -1.72236 0
M  V30 4923 H 444.416 5.02998 -0.0155216 0
M  V30 4924 H 444.116 5.63551 -1.66384 0
M  V30 4925 H 445.64 6.04955 -0.828378 0
M  V30 4926 H 447.054 4.98349 -2.8341 0
M  V30 4927 H 445.451 4.79869 -3.60341 0
M  V30 4928 H 446.521 3.39192 -3.46521 0
M  V30 4929 N 447.864 1.01787 1.20321 0
M  V30 4930 C 448.814 0.559976 2.21016 0
M  V30 4931 C 449.798 -0.385366 1.56217 0
M  V30 4932 O 450.99 -0.208126 1.75772 0
M  V30 4933 C 448.119 -0.0990553 3.43157 0
M  V30 4934 C 447.205 0.86807 4.15121 0
M  V30 4935 N 447.596 2.0261 4.63447 0
M  V30 4936 C 445.894 0.689162 4.40643 0
M  V30 4937 C 446.595 2.63518 5.18588 0
M  V30 4938 N 445.571 1.91569 5.08726 0
M  V30 4939 H 449.373 1.44281 2.56048 0
M  V30 4940 H 446.887 0.883381 1.36272 0
M  V30 4941 H 448.884 -0.444643 4.14522 0
M  V30 4942 H 447.544 -0.977709 3.0963 0
M  V30 4943 H 448.555 2.40598 4.58621 0
M  V30 4944 H 445.232 -0.14133 4.17261 0
M  V30 4945 H 446.622 3.61527 5.66346 0
M  V30 4946 N 449.342 -1.36122 0.79427 0
M  V30 4947 C 450.588 -1.99406 0.369452 0
M  V30 4948 C 450.921 -1.62886 -1.05743 0
M  V30 4949 O 450.196 -0.886053 -1.73145 0
M  V30 4950 C 450.479 -3.56046 0.538833 0
M  V30 4951 C 450.332 -4.02404 2.00976 0
M  V30 4952 C 451.651 -4.40079 -0.0431359 0
M  V30 4953 H 448.77 -0.724397 0.135712 0
M  V30 4954 H 451.412 -1.61461 1.00151 0
M  V30 4955 H 449.562 -3.885 0.000771004 0
M  V30 4956 H 451.234 -3.80415 2.60926 0
M  V30 4957 H 449.477 -3.53765 2.51063 0
M  V30 4958 H 450.148 -5.11344 2.07922 0
M  V30 4959 H 452.624 -4.14013 0.416228 0
M  V30 4960 H 451.5 -5.48799 0.105374 0
M  V30 4961 H 451.761 -4.27264 -1.13571 0
M  V30 4962 N 450.82 -0.546701 -1.47814 0
M  V30 4963 C 452.068 -0.0187037 -2.02091 0
M  V30 4964 C 452.389 1.33168 -1.42447 0
M  V30 4965 O 451.659 1.86619 -0.595839 0
M  V30 4966 H 450.239 -0.00392531 -0.74699 0
M  V30 4967 H 452.901 -0.714327 -1.81338 0
M  V30 4968 H 451.997 0.0772219 -3.12004 0
M  V30 4969 N 452.299 1.55045 -0.282633 0
M  V30 4970 C 453.529 2.03872 0.334635 0
M  V30 4971 C 453.937 1.16018 1.49454 0
M  V30 4972 O 453.28 0.174449 1.8287 0
M  V30 4973 C 453.342 3.48791 0.870905 0
M  V30 4974 C 453.006 4.56715 -0.161338 0
M  V30 4975 C 454.003 5.10513 -0.983466 0
M  V30 4976 C 451.688 5.01417 -0.297745 0
M  V30 4977 C 453.682 6.07538 -1.92811 0
M  V30 4978 C 451.369 5.98265 -1.24586 0
M  V30 4979 C 452.367 6.51208 -2.05954 0
M  V30 4980 O 452.055 7.46162 -2.99162 0
M  V30 4981 H 451.787 0.671324 0.0793742 0
M  V30 4982 H 454.341 2.01169 -0.41473 0
M  V30 4983 H 452.571 3.48758 1.67047 0
M  V30 4984 H 454.26 3.80916 1.40207 0
M  V30 4985 H 455.026 4.76785 -0.888856 0
M  V30 4986 H 450.905 4.59849 0.325604 0
M  V30 4987 H 454.449 6.48787 -2.56363 0
M  V30 4988 H 450.346 6.31412 -1.34126 0
M  V30 4989 H 451.114 7.63903 -2.93929 0
M  V30 4990 N 453.777 0.010035 1.57597 0
M  V30 4991 C 454.725 -0.996272 2.10184 0
M  V30 4992 C 455.719 -1.34942 1.02406 0
M  V30 4993 O 456.925 -1.33389 1.20861 0
M  V30 4994 H 453.3 -0.338982 0.671264 0
M  V30 4995 H 455.271 -0.527272 2.93705 0
M  V30 4996 C 454.02 -2.27599 2.62857 0
M  V30 4997 H 453.343 -2.01295 3.45428 0
M  V30 4998 H 454.783 -2.96265 3.0332 0
M  V30 4999 C 453.242 -2.99269 1.54725 0
M  V30 5000 O 453.772 -3.90644 0.93597 0
M  V30 5001 N 451.978 -2.61269 1.27228 0
M  V30 5002 H 451.525 -1.87043 1.77123 0
M  V30 5003 H 451.483 -3.09534 0.550999 0
M  V30 5004 N 455.255 -1.55392 -0.262866 0
M  V30 5005 C 456.218 -1.88181 -1.30846 0
M  V30 5006 C 457.218 -0.757079 -1.41862 0
M  V30 5007 O 458.408 -1.02519 -1.40838 0
M  V30 5008 C 455.54 -2.09609 -2.68844 0
M  V30 5009 H 456.733 -2.81659 -1.02997 0
M  V30 5010 H 454.286 -1.48039 -0.501414 0
M  V30 5011 H 455.021 -1.18547 -3.01856 0
M  V30 5012 H 454.806 -2.91508 -2.62231 0
M  V30 5013 H 456.296 -2.36215 -3.44372 0
M  V30 5014 N 456.733 0.527833 -1.48498 0
M  V30 5015 C 457.98 1.28354 -1.56625 0
M  V30 5016 C 458.308 1.93 -0.241096 0
M  V30 5017 O 457.563 1.79967 0.768798 0
M  V30 5018 C 457.862 2.39275 -2.65485 0
M  V30 5019 C 457.528 1.92268 -4.07853 0
M  V30 5020 C 456.19 1.79166 -4.46602 0
M  V30 5021 C 458.542 1.56771 -4.97064 0
M  V30 5022 C 455.87 1.28905 -5.72364 0
M  V30 5023 C 458.222 1.07972 -6.23318 0
M  V30 5024 C 456.886 0.934887 -6.60921 0
M  V30 5025 H 456.156 0.469682 -0.573131 0
M  V30 5026 H 458.803 0.588781 -1.82224 0
M  V30 5027 H 457.108 3.1443 -2.33754 0
M  V30 5028 H 458.805 2.974 -2.68988 0
M  V30 5029 H 455.395 2.03417 -3.77252 0
M  V30 5030 H 459.579 1.65753 -4.67803 0
M  V30 5031 H 454.835 1.16381 -6.00221 0
M  V30 5032 H 459.009 0.795775 -6.91838 0
M  V30 5033 H 456.636 0.543231 -7.58257 0
M  V30 5034 N 458.211 1.37122 0.776871 0
M  V30 5035 C 459.436 1.354 1.57104 0
M  V30 5036 C 459.861 -0.0595562 1.88006 0
M  V30 5037 O 459.219 -1.03514 1.48844 0
M  V30 5038 C 459.267 2.19472 2.8612 0
M  V30 5039 O 458.371 1.59582 3.80273 0
M  V30 5040 H 457.712 0.462869 0.476076 0
M  V30 5041 H 460.242 1.80577 0.961932 0
M  V30 5042 H 460.252 2.32502 3.35271 0
M  V30 5043 H 458.927 3.22222 2.62956 0
M  V30 5044 H 457.504 1.55564 3.38902 0
M  V30 5045 N 459.689 -1.00246 1.21608 0
M  V30 5046 C 460.639 -2.07492 0.945051 0
M  V30 5047 C 461.623 -1.60585 -0.100675 0
M  V30 5048 O 462.815 -1.76667 0.10859 0
M  V30 5049 C 459.944 -3.39425 0.514342 0
M  V30 5050 C 459.03 -3.92993 1.59428 0
M  V30 5051 N 459.421 -4.19898 2.81991 0
M  V30 5052 C 457.719 -4.21297 1.46374 0
M  V30 5053 C 458.42 -4.63297 3.51754 0
M  V30 5054 N 457.396 -4.66421 2.79199 0
M  V30 5055 H 461.198 -2.26222 1.87619 0
M  V30 5056 H 458.712 -1.18339 1.11219 0
M  V30 5057 H 460.709 -4.15808 0.301527 0
M  V30 5058 H 459.369 -3.22101 -0.410008 0
M  V30 5059 H 460.38 -4.08377 3.1851 0
M  V30 5060 H 457.057 -4.13095 0.604863 0
M  V30 5061 H 458.447 -4.92816 4.56708 0
M  V30 5062 N 461.167 -1.02423 -1.1978 0
M  V30 5063 C 462.416 -0.713265 -1.88667 0
M  V30 5064 C 462.729 0.7609 -1.80193 0
M  V30 5065 O 463.935 1.18473 -2.44288 0
M  V30 5066 C 462.391 -1.22545 -3.38394 0
M  V30 5067 C 461.999 -2.72706 -3.55437 0
M  V30 5068 C 463.743 -0.990257 -4.12788 0
M  V30 5069 C 461.65 -3.17367 -4.99031 0
M  V30 5070 H 460.58 -0.263105 -0.706606 0
M  V30 5071 H 463.231 -1.23792 -1.35454 0
M  V30 5072 H 461.613 -0.628732 -3.90977 0
M  V30 5073 H 462.787 -3.37993 -3.13205 0
M  V30 5074 H 461.102 -2.94453 -2.94425 0
M  V30 5075 H 463.699 -1.29926 -5.18675 0
M  V30 5076 H 464.042 0.0730761 -4.16236 0
M  V30 5077 H 464.575 -1.55074 -3.66329 0
M  V30 5078 H 461.314 -4.23009 -5.00743 0
M  V30 5079 H 460.834 -2.56805 -5.42044 0
M  V30 5080 H 462.513 -3.10441 -5.67658 0
M  V30 5081 N 462.645 1.35699 -0.801477 0
M  V30 5082 C 463.87 2.03687 -0.390678 0
M  V30 5083 C 464.295 1.60015 0.988778 0
M  V30 5084 O 463.653 0.774357 1.63931 0
M  V30 5085 C 463.701 3.57439 -0.476404 0
M  V30 5086 O 462.805 4.09208 0.512106 0
M  V30 5087 H 462.146 0.64344 -0.163956 0
M  V30 5088 H 464.676 1.73403 -1.08594 0
M  V30 5089 H 464.686 4.06544 -0.344357 0
M  V30 5090 H 463.361 3.88576 -1.48262 0
M  V30 5091 H 461.938 3.7134 0.340721 0
M  V30 5092 N 464.123 0.554532 1.47522 0
M  V30 5093 C 465.363 0.0317994 2.04375 0
M  V30 5094 C 465.727 -1.29242 1.41988 0
M  V30 5095 O 466.928 -1.90269 1.89872 0
M  V30 5096 C 465.199 -0.0623344 3.57346 0
M  V30 5097 S 466.758 -0.531578 4.35568 0
M  V30 5098 H 463.576 0.0238553 0.7106 0
M  V30 5099 H 466.178 0.74066 1.80927 0
M  V30 5100 H 464.882 0.905857 4.00278 0
M  V30 5101 H 464.413 -0.794831 3.85287 0
M  V30 5102 H 466.428 -1.79175 4.62721 0
M  V30 5103 N 465.601 -1.54893 0.290851 0
M  V30 5104 C 466.826 -2.04804 -0.32712 0
M  V30 5105 C 467.251 -1.16721 -1.47506 0
M  V30 5106 O 466.609 -0.169107 -1.8051 0
M  V30 5107 C 466.657 -3.52268 -0.770689 0
M  V30 5108 O 465.761 -3.67236 -1.87647 0
M  V30 5109 H 465.102 -0.660789 -0.0652227 0
M  V30 5110 H 467.632 -2.00036 0.429739 0
M  V30 5111 H 467.642 -3.9393 -1.06223 0
M  V30 5112 H 466.317 -4.15843 0.069096 0
M  V30 5113 H 464.894 -3.37479 -1.58626 0
M  V30 5114 N 467.08 -0.0183926 -1.57589 0
M  V30 5115 C 468.329 0.66185 -1.90532 0
M  V30 5116 C 468.642 1.73904 -0.895366 0
M  V30 5117 O 469.848 2.47518 -1.11566 0
M  V30 5118 C 468.304 1.22844 -3.38286 0
M  V30 5119 C 467.912 0.185103 -4.47617 0
M  V30 5120 C 469.656 1.88581 -3.80312 0
M  V30 5121 C 467.563 0.762723 -5.86461 0
M  V30 5122 H 466.493 0.250972 -0.711006 0
M  V30 5123 H 469.144 -0.0819435 -1.83317 0
M  V30 5124 H 467.526 2.0235 -3.40398 0
M  V30 5125 H 468.7 -0.58671 -4.5705 0
M  V30 5126 H 467.015 -0.372889 -4.14727 0
M  V30 5127 H 469.612 2.32735 -4.81392 0
M  V30 5128 H 469.955 2.72408 -3.14801 0
M  V30 5129 H 470.488 1.15782 -3.80578 0
M  V30 5130 H 467.227 -0.0371713 -6.55489 0
M  V30 5131 H 466.747 1.50327 -5.80656 0
M  V30 5132 H 468.426 1.25576 -6.34697 0
M  V30 5133 O 468.597 1.61027 0.12348 0
M  V30 5134 H 469.288 1.78369 0.755254 0
M  V30 END ATOM
M  V30 BEGIN BOND
M  V30 END BOND
M  V30 END CTAB
M  END
$$$$
