drugbank_target|Q56408 Cytochrome c oxidase subunit 1 (DB02451)
 OpenBabel12092120433D

  0  0  0     0  0            999 V3000
M  V30 BEGIN CTAB
M  V30 COUNTS 1662 1691 0 0 0
M  V30 BEGIN ATOM
M  V30 1 H -0.908 1.98254 -0.117106 0
M  V30 2 N 0 1.576 0 0
M  V30 3 C 1.249 1.89747 0.684041 0
M  V30 4 C 1.562 0.87501 1.74937 0
M  V30 5 O 2.768 1.0867 2.48803 0
M  V30 6 C 1.224 3.36829 1.26783 0
M  V30 7 C 0.832 4.47371 0.237329 0
M  V30 8 C 2.576 3.78085 1.93007 0
M  V30 9 C 0.483 5.85531 0.831114 0
M  V30 10 H -0.587 0.708028 0.259253 0
M  V30 11 H 2.064 1.834 -0.060544 0
M  V30 12 H 0.446 3.38013 2.06309 0
M  V30 13 H 1.62 4.57703 -0.53333 0
M  V30 14 H -0.065 4.15134 -0.324463 0
M  V30 15 H 2.532 4.78644 2.38337 0
M  V30 16 H 2.875 3.116 2.76063 0
M  V30 17 H 3.408 3.79201 1.20215 0
M  V30 18 H 0.147 6.55488 0.0393298 0
M  V30 19 H -0.333 5.78862 1.57093 0
M  V30 20 H 1.346 6.33188 1.32975 0
M  V30 21 N 1.4781 -0.272755 1.55222 0
M  V30 22 C 2.8941 -0.619959 1.47067 0
M  V30 23 C 3.0941 -1.895 0.684978 0
M  V30 24 O 2.1501 -2.51675 0.203931 0
M  V30 25 C 3.4631 -0.746693 2.91282 0
M  V30 26 C 5.0111 -0.840731 3.01497 0
M  V30 27 C 5.4861 -0.99924 4.46967 0
M  V30 28 N 6.9771 -1.06476 4.50796 0
M  V30 29 C 7.7121 -1.20621 5.6057 0
M  V30 30 N 7.2081 -1.31483 6.80209 0
M  V30 31 N 9.0011 -1.23733 5.48312 0
M  V30 32 H 1.1521 0.564606 2.04758 0
M  V30 33 H 3.4151 0.191177 0.928523 0
M  V30 34 H 3.1211 0.119753 3.51496 0
M  V30 35 H 2.9951 -1.6269 3.40311 0
M  V30 36 H 5.3821 -1.69764 2.41379 0
M  V30 37 H 5.4631 0.0640874 2.5572 0
M  V30 38 H 5.1071 -0.146984 5.07687 0
M  V30 39 H 5.0371 -1.91871 4.90401 0
M  V30 40 H 7.5281 -0.993196 3.64615 0
M  V30 41 H 7.8411 -1.42111 7.59621 0
M  V30 42 H 6.1861 -1.28487 6.8302 0
M  V30 43 H 9.3771 -1.14877 4.53785 0
M  V30 44 H 9.5501 -1.34412 6.33906 0
M  V30 45 N 2.9562 -1.48159 -0.537278 0
M  V30 46 C 3.9192 -1.61665 -1.62472 0
M  V30 47 C 4.9192 -0.490395 -1.5314 0
M  V30 48 O 6.1092 -0.755998 -1.5694 0
M  V30 49 C 3.2412 -1.57997 -3.02076 0
M  V30 50 H 4.4342 -2.58621 -1.51839 0
M  V30 51 H 1.9872 -1.36647 -0.758771 0
M  V30 52 H 2.7222 -0.624913 -3.18222 0
M  V30 53 H 2.5072 -2.39755 -3.10258 0
M  V30 54 H 3.9972 -1.70627 -3.81151 0
M  V30 55 N 4.4343 0.785586 -1.36625 0
M  V30 56 C 5.3643 1.91259 -1.33949 0
M  V30 57 C 6.3453 1.68795 -0.210325 0
M  V30 58 O 7.5303 1.89854 -0.408561 0
M  V30 59 C 4.6603 3.28339 -1.13186 0
M  V30 60 C 3.6143 3.65335 -2.22967 0
M  V30 61 C 2.9403 5.00806 -1.87342 0
M  V30 62 C 4.2403 3.7352 -3.65075 0
M  V30 63 H 5.9343 1.93755 -2.28253 0
M  V30 64 H 3.4803 0.930788 -1.09874 0
M  V30 65 H 5.4333 4.06804 -1.09948 0
M  V30 66 H 4.1573 3.2624 -0.153332 0
M  V30 67 H 2.8163 2.89169 -2.25337 0
M  V30 68 H 2.4643 4.95233 -0.880545 0
M  V30 69 H 2.1643 5.26529 -2.60846 0
M  V30 70 H 3.6883 5.81687 -1.85667 0
M  V30 71 H 5.1023 4.42168 -3.64911 0
M  V30 72 H 3.4993 4.10731 -4.37516 0
M  V30 73 H 4.5693 2.74527 -3.99703 0
M  V30 74 N 5.9124 1.20967 1.01018 0
M  V30 75 C 7.3234 1.02319 1.56165 0
M  V30 76 C 7.6744 -0.418546 1.91684 0
M  V30 77 O 6.7994 -1.30096 1.72928 0
M  V30 78 C 7.3944 1.85109 2.8376 0
M  V30 79 C 5.9534 1.70809 3.35412 0
M  V30 80 C 5.1004 1.82643 2.08655 0
M  V30 81 H 8.0514 1.35065 0.833255 0
M  V30 82 H 8.0724 1.35827 3.55431 0
M  V30 83 H 7.5844 2.90035 2.57878 0
M  V30 84 H 5.6854 0.685464 3.66241 0
M  V30 85 H 5.7984 2.52467 4.07182 0
M  V30 86 H 4.1624 1.25896 2.21409 0
M  V30 87 H 4.9454 2.89066 1.85191 0
M  V30 88 N 7.3905 -1.2043 1.01659 0
M  V30 89 C 8.6365 -1.90356 0.716674 0
M  V30 90 C 8.9915 -1.77367 -0.745557 0
M  V30 91 O 8.2845 -1.1471 -1.53467 0
M  V30 92 C 8.4785 -3.40464 1.08714 0
M  V30 93 C 8.3075 -3.6806 2.58384 0
M  V30 94 C 7.0775 -3.86775 3.25167 0
M  V30 95 C 9.2755 -3.70623 3.56572 0
M  V30 96 N 7.2575 -4.01889 4.64067 0
M  V30 97 C 8.6285 -3.91161 4.81034 0
M  V30 98 C 10.6835 -3.53586 3.50544 0
M  V30 99 C 9.3865 -3.96428 6.00198 0
M  V30 100 C 11.4125 -3.60125 4.6911 0
M  V30 101 C 10.7745 -3.81135 5.92381 0
M  V30 102 H 6.8735 -0.716226 0.313918 0
M  V30 103 H 9.4575 -1.44815 1.30141 0
M  V30 104 H 7.6285 -3.84757 0.530745 0
M  V30 105 H 9.3605 -3.97863 0.740763 0
M  V30 106 H 6.1155 -3.85156 2.75594 0
M  V30 107 H 6.5395 -4.13323 5.36184 0
M  V30 108 H 11.1815 -3.36308 2.56235 0
M  V30 109 H 8.8995 -4.12502 6.94887 0
M  V30 110 H 12.4855 -3.4825 4.66062 0
M  V30 111 H 11.3655 -3.86054 6.82592 0
M  V30 112 N 8.8686 -0.792821 -1.36206 0
M  V30 113 C 10.1456 -0.290627 -1.93429 0
M  V30 114 C 10.5256 1.21773 -1.72437 0
M  V30 115 O 9.8736 2.0108 -1.08531 0
M  V30 116 C 10.0836 -0.686973 -3.42172 0
M  V30 117 C 11.4316 -0.668643 -4.19302 0
M  V30 118 O 12.4556 -0.627658 -3.50626 0
M  V30 119 O 11.3146 -0.714597 -5.41808 0
M  V30 120 H 8.4086 -0.0727927 -0.82379 0
M  V30 121 H 10.9546 -0.875593 -1.45367 0
M  V30 122 H 9.7266 -1.72711 -3.51122 0
M  V30 123 H 9.3496 -0.0760733 -3.97527 0
M  V30 124 N 10.3467 1.47872 -0.545128 0
M  V30 125 C 11.2947 2.31533 0.222512 0
M  V30 126 C 12.2887 1.42177 0.920985 0
M  V30 127 O 13.4947 1.59005 0.843645 0
M  V30 128 H 9.8697 0.746519 0.0906278 0
M  V30 129 H 11.8407 2.94139 -0.50246 0
M  V30 130 C 10.5897 3.2457 1.24699 0
M  V30 131 H 9.9127 3.93283 0.718944 0
M  V30 132 H 11.3527 3.85963 1.75523 0
M  V30 133 C 9.8117 2.47237 2.28856 0
M  V30 134 O 10.3417 2.20808 3.35569 0
M  V30 135 N 8.5477 2.08461 2.02466 0
M  V30 136 H 8.0947 2.30155 1.157 0
M  V30 137 H 8.0527 1.57033 2.72375 0
M  V30 138 N 11.8248 0.280983 1.55075 0
M  V30 139 C 13.2358 -0.215629 1.85451 0
M  V30 140 C 13.5868 -1.54991 1.203 0
M  V30 141 O 12.7118 -2.10699 0.493435 0
M  V30 142 C 13.3068 -0.398026 3.36454 0
M  V30 143 C 11.8658 -0.838866 3.66933 0
M  V30 144 C 11.0128 0.064458 2.77225 0
M  V30 145 H 13.9638 0.502601 1.50531 0
M  V30 146 H 13.9848 -1.23569 3.59876 0
M  V30 147 H 13.4968 0.573241 3.83843 0
M  V30 148 H 11.5978 -1.8214 3.25048 0
M  V30 149 H 11.7108 -0.672123 4.74362 0
M  V30 150 H 10.0748 -0.452863 2.50642 0
M  V30 151 H 10.8578 1.03172 3.2743 0
M  V30 152 N 13.3029 -1.57598 0.00835791 0
M  V30 153 C 14.2659 -2.07884 -0.965242 0
M  V30 154 C 15.2659 -0.989825 -1.26725 0
M  V30 155 O 16.4559 -1.25218 -1.21104 0
M  V30 156 C 13.5879 -2.52731 -2.28779 0
M  V30 157 H 14.7809 -2.95178 -0.530112 0
M  V30 158 H 12.3339 -1.54458 -0.239283 0
M  V30 159 H 13.0689 -1.68705 -2.76964 0
M  V30 160 H 12.8539 -3.32272 -2.08177 0
M  V30 161 H 14.3439 -2.91933 -2.98605 0
M  V30 162 N 14.781 0.264519 -1.55364 0
M  V30 163 C 16.028 0.994986 -1.7637 0
M  V30 164 C 16.356 1.85976 -0.5695 0
M  V30 165 O 15.611 1.90509 0.44776 0
M  V30 166 C 15.91 1.9004 -3.02687 0
M  V30 167 C 15.576 1.19243 -4.34847 0
M  V30 168 C 14.238 0.996709 -4.70764 0
M  V30 169 C 16.59 0.689296 -5.16622 0
M  V30 170 C 13.918 0.285261 -5.86006 0
M  V30 171 C 16.27 -0.00860079 -6.32599 0
M  V30 172 C 14.934 -0.215963 -6.67151 0
M  V30 173 H 14.204 0.364091 -0.645383 0
M  V30 174 H 16.851 0.266543 -1.89636 0
M  V30 175 H 15.156 2.69533 -2.84357 0
M  V30 176 H 16.853 2.46695 -3.16137 0
M  V30 177 H 13.443 1.3549 -4.06621 0
M  V30 178 H 17.627 0.828108 -4.89342 0
M  V30 179 H 12.883 0.113961 -6.11294 0
M  V30 180 H 17.057 -0.406186 -6.95214 0
M  V30 181 H 14.684 -0.769217 -7.56298 0
M  V30 182 N 16.2591 1.48442 0.529413 0
M  V30 183 C 17.5051 1.5672 1.28711 0
M  V30 184 C 17.8381 0.2406 1.92704 0
M  V30 185 O 17.1131 -0.753454 1.79313 0
M  V30 186 C 17.3961 2.70587 2.37603 0
M  V30 187 C 17.2491 4.12953 1.78297 0
M  V30 188 C 18.5681 2.80212 3.39366 0
M  V30 189 H 15.6871 0.570474 0.466613 0
M  V30 190 H 18.3291 1.80617 0.589706 0
M  V30 191 H 16.4791 2.50342 2.97088 0
M  V30 192 H 18.1511 4.44639 1.22858 0
M  V30 193 H 16.3941 4.19927 1.0883 0
M  V30 194 H 17.0651 4.88448 2.57144 0
M  V30 195 H 19.5411 2.98553 2.89836 0
M  V30 196 H 18.4171 3.61611 4.12951 0
M  V30 197 H 18.6781 1.88393 3.99951 0
M  V30 198 N 17.7372 -0.778329 1.37039 0
M  V30 199 C 18.7002 -1.87301 1.32102 0
M  V30 200 C 19.7002 -1.59198 0.226405 0
M  V30 201 O 20.8902 -1.67403 0.481861 0
M  V30 202 C 18.0222 -3.24309 1.05055 0
M  V30 203 H 19.2152 -1.93093 2.29467 0
M  V30 204 H 16.7682 -0.977358 1.21973 0
M  V30 205 H 17.5032 -3.24196 0.0819373 0
M  V30 206 H 17.2882 -3.46098 1.84279 0
M  V30 207 H 18.7782 -4.04382 1.04234 0
M  V30 208 N 19.2153 -1.21501 -1.00376 0
M  V30 209 C 20.6263 -1.03146 -1.55621 0
M  V30 210 C 20.9773 0.408375 -1.91903 0
M  V30 211 O 20.1023 1.29177 -1.73616 0
M  V30 212 C 20.6973 -1.86612 -2.82775 0
M  V30 213 C 19.2563 -1.72586 -3.34501 0
M  V30 214 C 18.4033 -1.83747 -2.07683 0
M  V30 215 H 21.3543 -1.35505 -0.826081 0
M  V30 216 H 21.3753 -1.3771 -3.54706 0
M  V30 217 H 20.8873 -2.91399 -2.56336 0
M  V30 218 H 18.9883 -0.704877 -3.65872 0
M  V30 219 H 19.1013 -2.54623 -4.05837 0
M  V30 220 H 17.4653 -1.27069 -2.20739 0
M  V30 221 H 18.2483 -2.90044 -1.83655 0
M  V30 222 N 20.6934 1.19889 -1.02296 0
M  V30 223 C 21.9394 1.89701 -0.717033 0
M  V30 224 C 22.2724 1.7905 0.751989 0
M  V30 225 O 21.5474 1.17891 1.547 0
M  V30 226 C 21.8304 3.40858 -1.16136 0
M  V30 227 C 21.6834 3.60411 -2.69117 0
M  V30 228 C 23.0024 4.33876 -0.737549 0
M  V30 229 H 20.1214 0.688874 -0.261957 0
M  V30 230 H 22.7634 1.41154 -1.27183 0
M  V30 231 H 20.9134 3.82335 -0.689342 0
M  V30 232 H 22.5854 3.28145 -3.2422 0
M  V30 233 H 20.8284 3.03665 -3.0979 0
M  V30 234 H 21.4994 4.66396 -2.95261 0
M  V30 235 H 23.9754 4.00081 -1.14344 0
M  V30 236 H 22.8514 5.38242 -1.0764 0
M  V30 237 H 23.1124 4.40628 0.360436 0
M  V30 238 N 22.1715 0.800033 1.35784 0
M  V30 239 C 23.1015 0.220184 2.3246 0
M  V30 240 C 24.0825 -0.65073 1.57161 0
M  V30 241 O 25.2675 -0.582359 1.85263 0
M  V30 242 C 22.3975 -0.637353 3.41402 0
M  V30 243 C 21.3515 0.134531 4.27789 0
M  V30 244 C 20.6775 -0.844285 5.27992 0
M  V30 245 C 21.9775 1.32979 5.05088 0
M  V30 246 H 23.6715 1.02787 2.81203 0
M  V30 247 H 21.2175 0.495717 1.35199 0
M  V30 248 H 23.1705 -1.05302 4.08031 0
M  V30 249 H 21.8945 -1.47785 2.91251 0
M  V30 250 H 20.5535 0.531296 3.6273 0
M  V30 251 H 20.2015 -1.68011 4.74111 0
M  V30 252 H 19.9015 -0.332184 5.8666 0
M  V30 253 H 21.4255 -1.2583 5.97494 0
M  V30 254 H 22.8395 0.98934 5.64699 0
M  V30 255 H 21.2365 1.77593 5.7322 0
M  V30 256 H 22.3065 2.11978 4.36111 0
M  V30 257 N 23.6496 -1.47581 0.552962 0
M  V30 258 C 24.8976 -2.02082 0.0272703 0
M  V30 259 C 25.2186 -1.4301 -1.32563 0
M  V30 260 O 24.4886 -0.603745 -1.86365 0
M  V30 261 H 23.0686 -0.746966 0.00709182 0
M  V30 262 H 25.7306 -1.81033 0.722008 0
M  V30 263 H 24.8266 -3.12034 -0.0639951 0
M  V30 264 N 25.1277 -0.289203 -1.54924 0
M  V30 265 C 26.0577 0.58549 -2.2604 0
M  V30 266 C 27.0387 1.14753 -1.25562 0
M  V30 267 O 28.2237 1.17906 -1.54311 0
M  V30 268 C 25.3537 1.76305 -2.99222 0
M  V30 269 C 24.3077 1.33191 -4.06748 0
M  V30 270 C 23.6337 2.5937 -4.6758 0
M  V30 271 C 24.9337 0.471775 -5.20165 0
M  V30 272 H 26.6277 -0.00763532 -2.99399 0
M  V30 273 H 24.1737 -0.00511229 -1.43999 0
M  V30 274 H 26.1267 2.38097 -3.47689 0
M  V30 275 H 24.8507 2.38223 -2.23422 0
M  V30 276 H 23.5097 0.737121 -3.59113 0
M  V30 277 H 23.1577 3.19576 -3.88433 0
M  V30 278 H 22.8577 2.31228 -5.40192 0
M  V30 279 H 24.3817 3.21985 -5.18804 0
M  V30 280 H 25.7957 0.995056 -5.64599 0
M  V30 281 H 24.1927 0.284639 -5.99425 0
M  V30 282 H 25.2627 -0.506041 -4.82252 0
M  V30 283 N 26.6058 1.57591 -0.0167156 0
M  V30 284 C 27.5358 2.12496 0.967858 0
M  V30 285 C 28.5168 1.03807 1.34752 0
M  V30 286 O 29.7018 1.31577 1.42833 0
M  V30 287 C 26.8318 2.64194 2.25431 0
M  V30 288 C 25.7858 3.77559 2.01576 0
M  V30 289 C 25.1118 4.15636 3.36379 0
M  V30 290 C 26.4118 5.04151 1.36489 0
M  V30 291 H 28.1058 2.95013 0.510643 0
M  V30 292 H 25.6518 1.41915 0.244181 0
M  V30 293 H 27.6048 3.01236 2.94678 0
M  V30 294 H 26.3288 1.78821 2.73296 0
M  V30 295 H 24.9878 3.40937 1.34751 0
M  V30 296 H 24.6358 3.27263 3.81979 0
M  V30 297 H 24.3358 4.92022 3.21229 0
M  V30 298 H 25.8598 4.5525 4.06915 0
M  V30 299 H 27.2738 5.38857 1.95718 0
M  V30 300 H 25.6708 5.85453 1.31776 0
M  V30 301 H 26.7408 4.83733 0.336219 0
M  V30 302 N 28.0839 -0.256276 1.55502 0
M  V30 303 C 29.3319 -0.983672 1.76545 0
M  V30 304 C 29.6529 -1.86206 0.578982 0
M  V30 305 O 28.9229 -1.91656 -0.405577 0
M  V30 306 H 27.5029 -0.366191 0.651086 0
M  V30 307 H 30.1649 -0.276479 1.92929 0
M  V30 308 H 29.2609 -1.61087 2.67315 0
M  V30 309 N 29.562 -1.4872 -0.521534 0
M  V30 310 C 30.809 -1.57168 -1.27689 0
M  V30 311 C 31.137 -0.249275 -1.92896 0
M  V30 312 O 30.392 0.761162 -1.80291 0
M  V30 313 C 30.691 -2.66497 -2.38148 0
M  V30 314 C 30.357 -4.08664 -1.90538 0
M  V30 315 C 29.019 -4.47357 -1.77271 0
M  V30 316 C 31.371 -4.97724 -1.54663 0
M  V30 317 C 28.699 -5.72905 -1.26478 0
M  V30 318 C 31.051 -6.2377 -1.05329 0
M  V30 319 C 29.715 -6.61311 -0.906861 0
M  V30 320 H 28.985 -0.575117 -0.467249 0
M  V30 321 H 31.632 -1.82472 -0.581051 0
M  V30 322 H 29.937 -2.35085 -3.13437 0
M  V30 323 H 31.634 -2.70246 -2.96257 0
M  V30 324 H 28.224 -3.78111 -2.01816 0
M  V30 325 H 32.408 -4.68501 -1.63768 0
M  V30 326 H 27.664 -6.00709 -1.13835 0
M  V30 327 H 31.838 -6.9217 -0.76644 0
M  V30 328 H 29.465 -7.5848 -0.511083 0
M  V30 329 N 31.0401 0.771051 -1.3745 0
M  V30 330 C 32.2891 1.52491 -1.3202 0
M  V30 331 C 32.6021 1.9538 0.0927347 0
M  V30 332 O 33.8081 2.70159 0.269503 0
M  V30 333 C 32.2641 2.75366 -2.31736 0
M  V30 334 C 31.8721 2.39573 -3.78562 0
M  V30 335 C 33.6161 3.53307 -2.35318 0
M  V30 336 C 31.5231 3.58954 -4.70007 0
M  V30 337 H 30.4531 0.572506 -0.490666 0
M  V30 338 H 33.1041 0.844474 -1.62914 0
M  V30 339 H 31.4861 3.45303 -1.93861 0
M  V30 340 H 32.6601 1.77415 -4.25277 0
M  V30 341 H 30.9751 1.74805 -3.77932 0
M  V30 342 H 33.5721 4.42039 -3.00842 0
M  V30 343 H 33.9151 3.93217 -1.36698 0
M  V30 344 H 34.4481 2.90367 -2.71904 0
M  V30 345 H 31.1871 3.24125 -5.69757 0
M  V30 346 H 30.7071 4.20214 -4.27996 0
M  V30 347 H 32.3861 4.25758 -4.87175 0
M  V30 348 N 32.5182 1.22032 0.997298 0
M  V30 349 C 33.9292 1.0397 1.55071 0
M  V30 350 C 34.2802 -0.398192 1.92117 0
M  V30 351 O 33.4052 -1.28254 1.74298 0
M  V30 352 C 34.0002 1.88109 2.81781 0
M  V30 353 C 32.5592 1.74357 3.33581 0
M  V30 354 C 31.7062 1.84846 2.06706 0
M  V30 355 H 34.6572 1.35941 0.818883 0
M  V30 356 H 34.6782 1.39589 3.53971 0
M  V30 357 H 34.1902 2.92754 2.54787 0
M  V30 358 H 32.2912 0.72427 3.65493 0
M  V30 359 H 32.4042 2.56772 4.04481 0
M  V30 360 H 30.7682 1.28238 2.20062 0
M  V30 361 H 31.5512 2.91014 1.82114 0
M  V30 362 N 33.9963 -1.19345 1.0293 0
M  V30 363 C 35.2443 -1.88665 0.724574 0
M  V30 364 C 35.5653 -1.80036 -0.749144 0
M  V30 365 O 34.8353 -1.2111 -1.53978 0
M  V30 366 H 33.4153 -0.698406 0.265025 0
M  V30 367 H 36.0773 -1.44885 1.30362 0
M  V30 368 H 35.1733 -2.94987 1.01926 0
M  V30 369 N 35.4744 -0.807222 -1.35358 0
M  V30 370 C 36.7224 -0.387122 -1.98358 0
M  V30 371 C 37.0434 1.04942 -1.64354 0
M  V30 372 O 36.3134 1.72615 -0.926339 0
M  V30 373 H 34.8934 -0.140154 -0.733734 0
M  V30 374 H 37.5554 -1.0332 -1.6526 0
M  V30 375 H 36.6514 -0.493352 -3.08176 0
M  V30 376 N 36.9525 1.47285 -0.560781 0
M  V30 377 C 37.9155 2.28535 0.174488 0
M  V30 378 C 38.9155 1.37153 0.839388 0
M  V30 379 O 40.1055 1.59748 0.694702 0
M  V30 380 C 37.2375 3.16934 1.25561 0
M  V30 381 H 38.4305 2.95012 -0.539262 0
M  V30 382 H 35.9835 1.53034 -0.317865 0
M  V30 383 H 36.7185 2.55157 2.00164 0
M  V30 384 H 36.5035 3.8419 0.783604 0
M  V30 385 H 37.9935 3.78143 1.77193 0
M  V30 386 N 38.4306 0.297415 1.54768 0
M  V30 387 C 39.6786 -0.312295 1.99673 0
M  V30 388 C 39.9996 -1.54686 1.18732 0
M  V30 389 O 39.2696 -1.93854 0.282382 0
M  V30 390 H 37.8496 -0.118381 0.73756 0
M  V30 391 H 40.5116 0.407915 1.90583 0
M  V30 392 H 39.6076 -0.586813 3.06534 0
M  V30 393 N 39.9087 -1.5758 0.0250728 0
M  V30 394 C 41.1567 -1.91255 -0.653151 0
M  V30 395 C 41.4777 -0.901691 -1.729 0
M  V30 396 O 40.7477 0.0573785 -1.95816 0
M  V30 397 H 39.3277 -0.705942 -0.244243 0
M  V30 398 H 41.9897 -1.94767 0.0719209 0
M  V30 399 H 41.0857 -2.91752 -1.10847 0
M  V30 400 N 41.3868 0.248026 -1.55636 0
M  V30 401 C 42.6358 0.974134 -1.76617 0
M  V30 402 C 42.9488 1.86528 -0.588796 0
M  V30 403 O 44.1548 2.62805 -0.681594 0
M  V30 404 C 42.6108 1.78213 -3.12679 0
M  V30 405 C 42.2188 0.93843 -4.38061 0
M  V30 406 C 43.9628 2.50104 -3.42999 0
M  V30 407 C 41.8698 1.74225 -5.65155 0
M  V30 408 H 40.7998 0.36745 -0.658405 0
M  V30 409 H 43.4508 0.22884 -1.82067 0
M  V30 410 H 41.8328 2.56933 -3.01333 0
M  V30 411 H 43.0068 0.193635 -4.60393 0
M  V30 412 H 41.3218 0.332905 -4.15067 0
M  V30 413 H 43.9188 3.10694 -4.3517 0
M  V30 414 H 44.2618 3.21662 -2.64271 0
M  V30 415 H 44.7948 1.78395 -3.55556 0
M  V30 416 H 41.5338 1.07043 -6.46701 0
M  V30 417 H 41.0538 2.46235 -5.46926 0
M  V30 418 H 42.7328 2.30967 -6.0437 0
M  V30 419 N 42.8649 1.48995 0.513639 0
M  V30 420 C 44.1109 1.58076 1.27042 0
M  V30 421 C 44.4439 0.261026 1.92438 0
M  V30 422 O 43.7189 -0.734393 1.80103 0
M  V30 423 C 44.0019 2.73091 2.34719 0
M  V30 424 C 43.8549 4.14821 1.73907 0
M  V30 425 C 45.1739 2.83796 3.36375 0
M  V30 426 H 42.2929 0.575391 0.460536 0
M  V30 427 H 44.9349 1.81232 0.570516 0
M  V30 428 H 43.0849 2.53479 2.94416 0
M  V30 429 H 44.7569 4.45917 1.18135 0
M  V30 430 H 42.9999 4.21058 1.0437 0
M  V30 431 H 43.6709 4.91147 2.51949 0
M  V30 432 H 46.1469 3.01611 2.86653 0
M  V30 433 H 45.0229 3.65971 4.09093 0
M  V30 434 H 45.2839 1.92624 3.9793 0
M  V30 435 N 44.343 -0.763751 1.37857 0
M  V30 436 C 45.291 -1.89864 1.34367 0
M  V30 437 C 46.285 -1.67816 0.231143 0
M  V30 438 O 47.491 -1.75508 0.399617 0
M  V30 439 H 43.866 -0.624501 0.41893 0
M  V30 440 H 45.837 -1.89925 2.30155 0
M  V30 441 C 44.586 -3.27227 1.1755 0
M  V30 442 H 43.909 -3.44773 2.02414 0
M  V30 443 H 45.349 -4.06911 1.1916 0
M  V30 444 C 43.808 -3.36692 -0.118311 0
M  V30 445 O 44.338 -3.86374 -1.09902 0
M  V30 446 N 42.544 -2.90092 -0.171717 0
M  V30 447 H 42.091 -2.49853 0.627012 0
M  V30 448 H 42.049 -2.96806 -1.03699 0
M  V30 449 N 45.8211 -1.22559 -0.990812 0
M  V30 450 C 46.7841 -0.998863 -2.0629 0
M  V30 451 C 47.7841 0.0354834 -1.60761 0
M  V30 452 O 48.9741 -0.203231 -1.7301 0
M  V30 453 C 46.1061 -0.509203 -3.37076 0
M  V30 454 H 47.2991 -1.95014 -2.27837 0
M  V30 455 H 44.8521 -1.04456 -1.16269 0
M  V30 456 H 45.5871 0.446335 -3.21214 0
M  V30 457 H 45.3721 -1.25547 -3.71457 0
M  V30 458 H 46.8621 -0.370888 -4.1595 0
M  V30 459 N 47.2992 1.18797 -1.03562 0
M  V30 460 C 48.5242 1.9314 -0.755764 0
M  V30 461 C 48.9492 1.7537 0.68022 0
M  V30 462 O 48.3072 1.06046 1.47051 0
M  V30 463 C 48.3552 3.42747 -1.12058 0
M  V30 464 O 47.4592 4.11683 -0.243124 0
M  V30 465 H 46.8002 0.602724 -0.278604 0
M  V30 466 H 49.3302 1.50678 -1.3841 0
M  V30 467 H 49.3402 3.93437 -1.08035 0
M  V30 468 H 48.0152 3.55002 -2.16672 0
M  V30 469 H 46.5922 3.71323 -0.342539 0
M  V30 470 N 48.7773 0.814389 1.34928 0
M  V30 471 C 50.0243 0.398423 1.98542 0
M  V30 472 C 50.3523 -1.03638 1.64589 0
M  V30 473 O 49.6073 -1.73509 0.90516 0
M  V30 474 C 49.9063 0.537781 3.53331 0
M  V30 475 C 49.5723 1.93704 4.07172 0
M  V30 476 C 48.2343 2.31984 4.21589 0
M  V30 477 C 50.5863 2.85213 4.36237 0
M  V30 478 C 47.9143 3.61125 4.62391 0
M  V30 479 C 50.2663 4.13809 4.78482 0
M  V30 480 C 48.9303 4.52077 4.91104 0
M  V30 481 H 48.2003 0.145793 0.726516 0
M  V30 482 H 50.8473 1.03669 1.61012 0
M  V30 483 H 49.1523 -0.183906 3.91368 0
M  V30 484 H 50.8493 0.196588 4.00518 0
M  V30 485 H 47.4393 1.62966 3.96409 0
M  V30 486 H 51.6233 2.56885 4.24645 0
M  V30 487 H 46.8793 3.90612 4.70353 0
M  V30 488 H 51.0533 4.84811 4.99932 0
M  V30 489 H 48.6803 5.52196 5.22478 0
M  V30 490 N 50.2554 -1.46986 0.568584 0
M  V30 491 C 51.4834 -2.0683 0.0539956 0
M  V30 492 C 51.8984 -1.41953 -1.24478 0
M  V30 493 O 51.2554 -0.519933 -1.74937 0
M  V30 494 C 51.3064 -3.61254 -0.133362 0
M  V30 495 O 51.0274 -4.237 1.11399 0
M  V30 496 C 52.5284 -4.37992 -0.683927 0
M  V30 497 H 49.7484 -0.669058 0.0510141 0
M  V30 498 H 52.2924 -1.88824 0.785234 0
M  V30 499 H 50.4474 -3.78735 -0.81477 0
M  V30 500 H 50.8614 -5.16388 0.91888 0
M  V30 501 H 52.3354 -5.46684 -0.764263 0
M  V30 502 H 52.8124 -4.05058 -1.69778 0
M  V30 503 H 53.4184 -4.25283 -0.0378494 0
M  V30 504 N 51.7335 -0.305618 -1.54608 0
M  V30 505 C 52.6635 0.561482 -2.26649 0
M  V30 506 C 53.6445 1.13415 -1.26772 0
M  V30 507 O 54.8295 1.16262 -1.55553 0
M  V30 508 C 51.9595 1.73122 -3.01075 0
M  V30 509 C 50.9135 1.2887 -4.08138 0
M  V30 510 C 50.2395 2.54396 -4.70305 0
M  V30 511 C 51.5395 0.416578 -5.20636 0
M  V30 512 H 53.2335 -0.0393902 -2.99374 0
M  V30 513 H 50.7795 -0.020385 -1.43986 0
M  V30 514 H 52.7325 2.34396 -3.50195 0
M  V30 515 H 51.4565 2.3584 -2.25936 0
M  V30 516 H 50.1155 0.698991 -3.59875 0
M  V30 517 H 49.7635 3.15439 -3.918 0
M  V30 518 H 49.4635 2.25486 -5.42614 0
M  V30 519 H 50.9875 3.16464 -5.2219 0
M  V30 520 H 52.4015 0.935116 -5.65622 0
M  V30 521 H 50.7985 0.221046 -5.99693 0
M  V30 522 H 51.8685 -0.557162 -4.81688 0
M  V30 523 N 53.2116 1.57565 -0.0334293 0
M  V30 524 C 54.4886 1.83282 0.683163 0
M  V30 525 C 54.8686 0.91823 1.90084 0
M  V30 526 O 54.2166 -0.025113 2.28486 0
M  V30 527 C 54.4266 3.32599 1.0573 0
M  V30 528 C 55.7746 3.99179 1.44711 0
M  V30 529 O 56.7986 3.3712 1.15015 0
M  V30 530 O 55.6576 5.08565 2.0006 0
M  V30 531 H 52.7516 0.755869 0.335546 0
M  V30 532 H 55.2976 1.69589 -0.0614402 0
M  V30 533 H 54.0696 3.90834 0.190828 0
M  V30 534 H 53.6926 3.51415 1.85993 0
M  V30 535 N 54.6897 -0.239769 1.55765 0
M  V30 536 C 55.9197 -0.982743 1.8173 0
M  V30 537 C 56.3277 -1.7917 0.607835 0
M  V30 538 O 55.6707 -1.78525 -0.432973 0
M  V30 539 C 55.7327 -1.96332 3.01155 0
M  V30 540 C 55.3967 -1.34062 4.36894 0
M  V30 541 C 56.3937 -0.739539 5.14613 0
M  V30 542 C 54.0787 -1.35784 4.83599 0
M  V30 543 C 56.0727 -0.163989 6.37189 0
M  V30 544 C 53.7597 -0.778441 6.06122 0
M  V30 545 C 54.7577 -0.182548 6.82756 0
M  V30 546 O 54.4457 0.387887 8.02964 0
M  V30 547 H 54.1777 -0.294481 0.608487 0
M  V30 548 H 56.7317 -0.26572 2.03674 0
M  V30 549 H 54.9617 -2.71884 2.74984 0
M  V30 550 H 56.6507 -2.57032 3.14149 0
M  V30 551 H 57.4167 -0.718687 4.79646 0
M  V30 552 H 53.2957 -1.81105 4.23936 0
M  V30 553 H 56.8397 0.301753 6.96947 0
M  V30 554 H 52.7367 -0.796645 6.40565 0
M  V30 555 H 53.5047 0.28044 8.18019 0
M  V30 556 N 56.1678 -1.49265 -0.50573 0
M  V30 557 C 57.4138 -1.58748 -1.26202 0
M  V30 558 C 57.7468 -0.271227 -1.92297 0
M  V30 559 O 57.0218 0.724831 -1.80489 0
M  V30 560 C 57.3048 -2.74332 -2.33268 0
M  V30 561 C 57.1578 -4.15737 -1.71705 0
M  V30 562 C 58.4768 -2.85576 -3.34865 0
M  V30 563 H 55.5958 -0.577826 -0.457478 0
M  V30 564 H 58.2378 -1.81532 -0.560897 0
M  V30 565 H 56.3878 -2.55036 -2.93068 0
M  V30 566 H 58.0598 -4.46537 -1.15769 0
M  V30 567 H 56.3028 -4.21605 -1.02135 0
M  V30 568 H 56.9738 -4.92477 -2.49341 0
M  V30 569 H 59.4498 -3.03127 -2.8505 0
M  V30 570 H 58.3258 -3.68135 -4.07146 0
M  V30 571 H 58.5868 -1.94732 -3.96903 0
M  V30 572 N 57.6459 0.756429 -1.3826 0
M  V30 573 C 58.8919 1.51772 -1.34511 0
M  V30 574 C 59.2249 1.94089 0.0656691 0
M  V30 575 O 58.4999 1.65221 1.02626 0
M  V30 576 C 58.7829 2.77226 -2.29821 0
M  V30 577 C 58.6359 2.41065 -3.79747 0
M  V30 578 C 59.9549 3.79236 -2.23312 0
M  V30 579 H 57.0739 0.550578 -0.489931 0
M  V30 580 H 59.7159 0.866607 -1.69086 0
M  V30 581 H 57.8659 3.32784 -2.00467 0
M  V30 582 H 59.5379 1.91303 -4.19763 0
M  V30 583 H 57.7809 1.7356 -3.97567 0
M  V30 584 H 58.4519 3.3081 -4.41892 0
M  V30 585 H 60.9279 3.3321 -2.49219 0
M  V30 586 H 59.8039 4.64714 -2.92116 0
M  V30 587 H 60.0649 4.24615 -1.23102 0
M  V30 588 N 59.124 1.23083 0.984299 0
M  V30 589 C 60.074 0.975749 2.06066 0
M  V30 590 C 61.058 -0.0768251 1.60716 0
M  V30 591 O 62.25 0.134805 1.76486 0
M  V30 592 C 59.379 0.564673 3.38624 0
M  V30 593 C 58.465 1.65244 3.90583 0
M  V30 594 N 58.856 2.88193 4.15666 0
M  V30 595 C 57.154 1.52612 4.19077 0
M  V30 596 C 57.855 3.58593 4.58024 0
M  V30 597 N 56.831 2.86093 4.62225 0
M  V30 598 H 60.633 1.90957 2.23411 0
M  V30 599 H 58.147 1.12963 1.16675 0
M  V30 600 H 60.144 0.36322 4.15315 0
M  V30 601 H 58.804 -0.362147 3.22674 0
M  V30 602 H 59.815 3.24537 4.03604 0
M  V30 603 H 56.492 0.666121 4.12152 0
M  V30 604 H 57.882 4.63974 4.85982 0
M  V30 605 N 60.6021 -1.18246 1.0419 0
M  V30 606 C 61.5501 -2.23968 0.627792 0
M  V30 607 C 62.5441 -1.65828 -0.346019 0
M  V30 608 O 63.7501 -1.78733 -0.213175 0
M  V30 609 H 60.1251 -0.728939 0.184802 0
M  V30 610 H 62.0961 -2.56202 1.52981 0
M  V30 611 C 60.8451 -3.47699 0.00796591 0
M  V30 612 H 60.1681 -3.92734 0.748347 0
M  V30 613 H 61.6081 -4.23294 -0.24455 0
M  V30 614 C 60.0671 -3.13153 -1.24246 0
M  V30 615 O 60.5971 -3.27003 -2.33307 0
M  V30 616 N 58.8031 -2.67467 -1.13622 0
M  V30 617 H 58.3501 -2.56396 -0.248734 0
M  V30 618 H 58.3081 -2.44724 -1.97377 0
M  V30 619 N 62.0802 -0.821533 -1.34494 0
M  V30 620 C 63.3082 -0.421884 -2.02553 0
M  V30 621 C 63.7232 0.971745 -1.61872 0
M  V30 622 O 63.0802 1.62864 -0.823496 0
M  V30 623 C 63.1312 -0.51285 -3.57844 0
M  V30 624 O 62.8522 -1.85155 -3.97051 0
M  V30 625 C 64.3532 -0.107921 -4.43169 0
M  V30 626 H 61.5732 -0.169482 -0.649243 0
M  V30 627 H 64.1172 -1.1093 -1.71798 0
M  V30 628 H 62.2722 0.126474 -3.87193 0
M  V30 629 H 62.6862 -1.82482 -4.91732 0
M  V30 630 H 64.1602 -0.222657 -5.51551 0
M  V30 631 H 64.6372 0.948401 -4.28838 0
M  V30 632 H 65.2432 -0.720989 -4.19144 0
M  V30 633 N 63.5583 1.46682 -0.576371 0
M  V30 634 C 64.5213 2.28707 0.150239 0
M  V30 635 C 65.5213 1.38035 0.824794 0
M  V30 636 O 66.7113 1.60476 0.677719 0
M  V30 637 C 63.8433 3.18248 1.22192 0
M  V30 638 H 65.0363 2.94423 -0.570521 0
M  V30 639 H 62.5893 1.52688 -0.334078 0
M  V30 640 H 63.3243 2.57265 1.97447 0
M  V30 641 H 63.1093 3.85 0.742812 0
M  V30 642 H 64.5993 3.80001 1.73172 0
M  V30 643 N 65.0364 0.313813 1.54444 0
M  V30 644 C 66.2824 -0.284918 2.01395 0
M  V30 645 C 66.6374 -1.50537 1.19818 0
M  V30 646 O 65.9304 -1.89692 0.269748 0
M  V30 647 C 66.1244 -0.680386 3.50864 0
M  V30 648 C 65.9534 0.500198 4.4691 0
M  V30 649 C 64.7234 0.996248 4.95382 0
M  V30 650 C 66.9214 1.34928 4.96285 0
M  V30 651 N 64.9034 2.14226 5.75309 0
M  V30 652 C 66.2744 2.3426 5.7404 0
M  V30 653 C 68.3294 1.37818 4.78446 0
M  V30 654 C 67.0324 3.36272 6.35856 0
M  V30 655 C 69.0584 2.38695 5.4109 0
M  V30 656 C 68.4204 3.36755 6.18688 0
M  V30 657 H 64.5194 -0.0683689 0.779006 0
M  V30 658 H 67.1034 0.44664 1.89508 0
M  V30 659 H 65.2744 -1.38109 3.63016 0
M  V30 660 H 67.0064 -1.25975 3.84594 0
M  V30 661 H 63.7614 0.56912 4.70168 0
M  V30 662 H 64.1854 2.72005 6.19953 0
M  V30 663 H 68.8274 0.633747 4.18023 0
M  V30 664 H 66.5454 4.11627 6.95405 0
M  V30 665 H 70.1314 2.41721 5.29209 0
M  V30 666 H 69.0114 4.13535 6.66302 0
M  V30 667 N 66.5145 -1.57545 0.0417849 0
M  V30 668 C 67.7605 -1.92601 -0.635021 0
M  V30 669 C 68.0935 -0.919627 -1.71045 0
M  V30 670 O 67.3685 0.0557892 -1.9442 0
M  V30 671 C 67.6515 -3.38085 -1.23979 0
M  V30 672 C 67.5045 -4.49467 -0.173057 0
M  V30 673 C 68.8235 -3.83776 -2.15416 0
M  V30 674 H 65.9425 -0.700397 -0.229374 0
M  V30 675 H 68.5845 -1.89728 0.101633 0
M  V30 676 H 66.7345 -3.40664 -1.86762 0
M  V30 677 H 68.4065 -4.59018 0.458312 0
M  V30 678 H 66.6495 -4.30909 0.499996 0
M  V30 679 H 67.3205 -5.48323 -0.636054 0
M  V30 680 H 69.7965 -3.83013 -1.62605 0
M  V30 681 H 68.6725 -4.8624 -2.54679 0
M  V30 682 H 68.9335 -3.19998 -3.05047 0
M  V30 683 N 67.9926 0.231505 -1.5589 0
M  V30 684 C 69.4036 0.799327 -1.68724 0
M  V30 685 C 69.7546 1.85398 -0.642022 0
M  V30 686 O 68.8796 2.1539 0.208784 0
M  V30 687 C 69.4746 1.45664 -3.05888 0
M  V30 688 C 68.0336 1.97197 -3.20609 0
M  V30 689 C 67.1806 0.828552 -2.64632 0
M  V30 690 H 70.1316 0.00702616 -1.58698 0
M  V30 691 H 70.1526 2.32517 -3.01191 0
M  V30 692 H 69.6646 0.688808 -3.81939 0
M  V30 693 H 67.7656 2.76813 -2.4941 0
M  V30 694 H 67.8786 2.15878 -4.27707 0
M  V30 695 H 66.2426 1.23321 -2.22854 0
M  V30 696 H 67.0256 0.0735544 -3.43221 0
M  V30 697 N 69.4707 1.49531 0.497807 0
M  V30 698 C 70.7187 1.58865 1.24926 0
M  V30 699 C 71.0397 0.278721 1.92998 0
M  V30 700 O 70.3097 -0.702144 1.82885 0
M  V30 701 H 68.8897 0.585343 0.464094 0
M  V30 702 H 71.5517 1.86174 0.57666 0
M  V30 703 H 70.6477 2.38633 2.01149 0
M  V30 704 N 70.9488 -0.749086 1.3866 0
M  V30 705 C 71.8988 -1.85368 1.32751 0
M  V30 706 C 72.8828 -1.59511 0.210945 0
M  V30 707 O 74.0748 -1.71255 0.447299 0
M  V30 708 C 71.2038 -3.23131 1.15935 0
M  V30 709 C 70.2898 -3.54864 2.32233 0
M  V30 710 N 70.6808 -3.57625 3.57684 0
M  V30 711 C 68.9788 -3.85154 2.24883 0
M  V30 712 C 69.6798 -3.86753 4.34508 0
M  V30 713 N 68.6558 -4.03812 3.63918 0
M  V30 714 H 72.4578 -1.85787 2.27729 0
M  V30 715 H 69.9718 -0.946658 1.31955 0
M  V30 716 H 71.9688 -4.02185 1.09786 0
M  V30 717 H 70.6288 -3.23961 0.218947 0
M  V30 718 H 71.6398 -3.39276 3.91295 0
M  V30 719 H 68.3168 -3.93672 1.39027 0
M  V30 720 H 69.7068 -3.95474 5.43185 0
M  V30 721 N 72.4269 -1.23603 -0.977757 0
M  V30 722 C 73.6739 -1.06971 -1.71941 0
M  V30 723 C 74.0019 0.393009 -1.90488 0
M  V30 724 O 73.2569 1.30719 -1.4564 0
M  V30 725 C 73.5559 -1.7433 -3.11999 0
M  V30 726 C 73.2219 -3.24252 -3.13323 0
M  V30 727 C 71.8839 -3.65156 -3.13392 0
M  V30 728 C 74.2359 -4.20141 -3.08433 0
M  V30 729 C 71.5639 -5.00403 -3.0629 0
M  V30 730 C 73.9159 -5.55384 -3.02873 0
M  V30 731 C 72.5799 -5.95647 -3.01265 0
M  V30 732 H 71.8499 -0.391433 -0.629175 0
M  V30 733 H 74.4969 -1.53572 -1.14403 0
M  V30 734 H 72.8019 -1.20096 -3.7294 0
M  V30 735 H 74.4989 -1.58936 -3.68158 0
M  V30 736 H 71.0889 -2.91692 -3.14029 0
M  V30 737 H 75.2729 -3.89547 -3.07517 0
M  V30 738 H 70.5289 -5.3081 -3.03399 0
M  V30 739 H 74.7029 -6.29398 -2.98046 0
M  V30 740 H 72.3299 -7.0041 -2.95516 0
M  V30 741 N 73.905 1.17692 -1.04816 0
M  V30 742 C 74.855 2.1952 -0.616042 0
M  V30 743 C 75.839 1.57147 0.345485 0
M  V30 744 O 77.031 1.76245 0.163325 0
M  V30 745 C 74.16 3.43298 0.0116917 0
M  V30 746 C 73.246 4.12777 -0.973435 0
M  V30 747 N 73.637 4.5814 -2.14339 0
M  V30 748 C 71.935 4.38747 -0.80108 0
M  V30 749 C 72.636 5.11713 -2.7663 0
M  V30 750 N 71.612 5.03686 -2.04453 0
M  V30 751 H 75.414 2.52293 -1.5075 0
M  V30 752 H 72.928 1.3398 -0.917776 0
M  V30 753 H 74.925 4.15519 0.339006 0
M  V30 754 H 73.585 3.12018 0.898593 0
M  V30 755 H 74.596 4.52349 -2.52191 0
M  V30 756 H 71.273 4.17485 0.0350934 0
M  V30 757 H 72.663 5.56962 -3.75823 0
M  V30 758 N 75.3831 0.828654 1.34056 0
M  V30 759 C 76.3131 0.269443 2.3194 0
M  V30 760 C 77.2941 -0.617247 1.58506 0
M  V30 761 O 78.4791 -0.542931 1.86456 0
M  V30 762 C 75.6091 -0.564793 3.42677 0
M  V30 763 C 74.5631 0.225241 4.27407 0
M  V30 764 C 73.8891 -0.7321 5.29664 0
M  V30 765 C 75.1891 1.43663 5.02154 0
M  V30 766 H 76.8831 1.08728 2.7896 0
M  V30 767 H 74.4291 0.524283 1.34117 0
M  V30 768 H 76.3821 -0.966233 4.10173 0
M  V30 769 H 75.1061 -1.41574 2.9432 0
M  V30 770 H 73.7651 0.608117 3.61521 0
M  V30 771 H 73.4131 -1.57916 4.77568 0
M  V30 772 H 73.1131 -0.20767 5.87233 0
M  V30 773 H 74.6371 -1.13128 6.00029 0
M  V30 774 H 76.0511 1.1089 5.62473 0
M  V30 775 H 74.4481 1.89711 5.69324 0
M  V30 776 H 75.5181 2.21181 4.31517 0
M  V30 777 N 76.8612 -1.46375 0.584142 0
M  V30 778 C 77.7932 -2.28443 -0.186119 0
M  V30 779 C 78.8062 -1.38596 -0.854115 0
M  V30 780 O 79.9952 -1.63183 -0.723438 0
M  V30 781 C 77.0952 -3.13671 -1.28311 0
M  V30 782 C 76.2682 -4.31652 -0.706758 0
M  V30 783 C 75.3272 -4.98267 -1.69163 0
M  V30 784 O 74.3532 -5.55815 -1.22712 0
M  V30 785 N 75.5552 -4.95408 -3.02575 0
M  V30 786 H 78.3202 -2.9519 0.517986 0
M  V30 787 H 75.8812 -1.56303 0.42201 0
M  V30 788 H 77.8732 -3.55101 -1.94128 0
M  V30 789 H 76.4432 -2.48989 -1.89005 0
M  V30 790 H 75.6632 -3.93989 0.128908 0
M  V30 791 H 76.9512 -5.07906 -0.301506 0
M  V30 792 H 76.3492 -4.49902 -3.42936 0
M  V30 793 H 74.9062 -5.40774 -3.63877 0
M  V30 794 N 78.3393 -0.321999 -1.54275 0
M  V30 795 C 79.5853 0.281461 -2.00837 0
M  V30 796 C 79.9183 1.51909 -1.20985 0
M  V30 797 O 79.1933 1.923 -0.291733 0
M  V30 798 C 79.4763 0.617162 -3.54772 0
M  V30 799 C 79.3293 -0.631064 -4.45351 0
M  V30 800 C 80.6483 1.43542 -4.16033 0
M  V30 801 H 77.7673 0.100826 -0.730071 0
M  V30 802 H 80.4093 -0.438268 -1.84876 0
M  V30 803 H 78.5593 1.23034 -3.68504 0
M  V30 804 H 80.2313 -1.26934 -4.43492 0
M  V30 805 H 78.4743 -1.26025 -4.15091 0
M  V30 806 H 79.1453 -0.351735 -5.50878 0
M  V30 807 H 81.6213 0.917134 -4.05867 0
M  V30 808 H 80.4973 1.63907 -5.23856 0
M  V30 809 H 80.7583 2.43108 -3.69257 0
M  V30 810 N 79.8174 1.5752 -0.0501392 0
M  V30 811 C 80.7804 2.1037 0.909786 0
M  V30 812 C 81.7804 1.02308 1.24056 0
M  V30 813 O 82.9704 1.28385 1.17741 0
M  V30 814 C 80.1024 2.58708 2.21998 0
M  V30 815 H 81.2954 2.96479 0.451665 0
M  V30 816 H 78.8484 1.55038 0.198248 0
M  V30 817 H 79.5834 1.75989 2.72394 0
M  V30 818 H 79.3684 3.37675 1.99295 0
M  V30 819 H 80.8584 2.99747 2.9076 0
M  V30 820 N 81.2955 -0.223234 1.56011 0
M  V30 821 C 82.5205 -0.968978 1.83373 0
M  V30 822 C 82.9455 -1.77227 0.630254 0
M  V30 823 O 82.3035 -1.76345 -0.420959 0
M  V30 824 C 82.3515 -1.86363 3.08709 0
M  V30 825 O 81.4555 -2.95873 2.87285 0
M  V30 826 H 80.7965 -0.274461 0.604622 0
M  V30 827 H 83.3265 -0.237056 2.03222 0
M  V30 828 H 83.3365 -2.27376 3.38768 0
M  V30 829 H 82.0115 -1.27319 3.95933 0
M  V30 830 H 80.5885 -2.58818 2.68454 0
M  V30 831 N 82.7736 -1.49793 -0.48987 0
M  V30 832 C 83.7036 -1.70201 -1.59856 0
M  V30 833 C 84.6846 -0.55076 -1.60937 0
M  V30 834 O 85.8696 -0.787841 -1.77501 0
M  V30 835 C 82.9996 -1.77882 -2.98287 0
M  V30 836 C 81.9536 -2.92907 -3.12073 0
M  V30 837 C 81.2796 -2.85712 -4.51965 0
M  V30 838 C 82.5796 -4.3369 -2.91051 0
M  V30 839 H 84.2736 -2.63025 -1.43032 0
M  V30 840 H 81.8196 -1.26574 -0.686664 0
M  V30 841 H 83.7726 -1.90744 -3.75759 0
M  V30 842 H 82.4966 -0.816653 -3.16225 0
M  V30 843 H 81.1556 -2.79665 -2.37029 0
M  V30 844 H 80.8036 -1.8738 -4.66795 0
M  V30 845 H 80.5036 -3.62921 -4.62128 0
M  V30 846 H 82.0276 -3.00598 -5.31482 0
M  V30 847 H 83.4416 -4.47555 -3.58284 0
M  V30 848 H 81.8386 -5.12205 -3.12675 0
M  V30 849 H 82.9086 -4.47362 -1.87071 0
M  V30 850 N 84.2517 0.741722 -1.39055 0
M  V30 851 C 85.4977 1.50336 -1.36113 0
M  V30 852 C 85.8307 1.94148 0.0450796 0
M  V30 853 O 85.1057 1.66301 1.00868 0
M  V30 854 C 85.3887 2.74773 -2.32749 0
M  V30 855 C 85.2417 2.37023 -3.82283 0
M  V30 856 C 86.5607 3.76846 -2.27322 0
M  V30 857 H 83.6797 0.545351 -0.495743 0
M  V30 858 H 86.3217 0.848624 -1.69995 0
M  V30 859 H 84.4717 3.30639 -2.03986 0
M  V30 860 H 86.1437 1.8684 -4.21768 0
M  V30 861 H 84.3867 1.69334 -3.99385 0
M  V30 862 H 85.0577 3.26104 -4.45376 0
M  V30 863 H 87.5337 3.30548 -2.5274 0
M  V30 864 H 86.4097 4.6159 -2.97028 0
M  V30 865 H 86.6707 4.23286 -1.27599 0
M  V30 866 N 85.7298 1.2412 0.971189 0
M  V30 867 C 86.9578 1.10575 1.74874 0
M  V30 868 C 87.3728 -0.342017 1.85676 0
M  V30 869 O 86.7298 -1.23617 1.34258 0
M  V30 870 C 86.7808 1.73579 3.171 0
M  V30 871 O 86.5018 3.12695 3.06844 0
M  V30 872 C 88.0028 1.65598 4.11208 0
M  V30 873 H 85.2228 0.386504 0.548503 0
M  V30 874 H 87.7668 1.64156 1.21955 0
M  V30 875 H 85.9218 1.24009 3.67016 0
M  V30 876 H 86.3358 3.43412 3.96445 0
M  V30 877 H 87.8098 2.1437 5.08674 0
M  V30 878 H 88.2868 0.616532 4.34851 0
M  V30 879 H 88.8928 2.14578 3.67201 0
M  V30 880 N 87.2079 -1.17134 1.05439 0
M  V30 881 C 88.1379 -2.2342 0.678649 0
M  V30 882 C 89.1189 -1.66971 -0.32476 0
M  V30 883 O 90.3039 -1.93149 -0.201802 0
M  V30 884 C 87.4339 -3.47256 0.0552099 0
M  V30 885 C 86.3879 -4.16543 0.98365 0
M  V30 886 C 85.7139 -5.34231 0.223961 0
M  V30 887 C 87.0139 -4.68495 2.3089 0
M  V30 888 H 88.7079 -2.55105 1.56722 0
M  V30 889 H 86.2539 -1.2262 0.754998 0
M  V30 890 H 88.2069 -4.20828 -0.21946 0
M  V30 891 H 86.9309 -3.14846 -0.868319 0
M  V30 892 H 85.5899 -3.44887 1.24293 0
M  V30 893 H 85.2379 -4.98071 -0.702412 0
M  V30 894 H 84.9379 -5.81527 0.842627 0
M  V30 895 H 86.4619 -6.10585 -0.0433671 0
M  V30 896 H 87.8759 -5.33691 2.09396 0
M  V30 897 H 86.2729 -5.26379 2.88176 0
M  V30 898 H 87.3429 -3.85169 2.94572 0
M  V30 899 N 88.686 -0.835752 -1.33615 0
M  V30 900 C 89.914 -0.443344 -2.02094 0
M  V30 901 C 90.329 0.954522 -1.62894 0
M  V30 902 O 89.686 1.61982 -0.840723 0
M  V30 903 C 89.737 -0.550775 -3.5728 0
M  V30 904 O 89.458 -1.89356 -3.95065 0
M  V30 905 C 90.959 -0.154919 -4.43029 0
M  V30 906 H 88.179 -0.176359 -0.647409 0
M  V30 907 H 90.723 -1.12746 -1.70612 0
M  V30 908 H 88.878 0.0853997 -3.87306 0
M  V30 909 H 89.292 -1.87687 -4.89769 0
M  V30 910 H 90.766 -0.281144 -5.51284 0
M  V30 911 H 91.243 0.902863 -4.2982 0
M  V30 912 H 91.849 -0.765404 -4.18356 0
M  V30 913 N 90.1641 1.46063 -0.591896 0
M  V30 914 C 91.1271 2.28854 0.125973 0
M  V30 915 C 92.1271 1.38903 0.810107 0
M  V30 916 O 93.3171 1.61186 0.66066 0
M  V30 917 C 90.4491 3.19526 1.1881 0
M  V30 918 H 91.6421 2.93802 -0.601717 0
M  V30 919 H 89.1951 1.52325 -0.350254 0
M  V30 920 H 89.9301 2.59345 1.94707 0
M  V30 921 H 89.7151 3.85766 0.701936 0
M  V30 922 H 91.2051 3.81817 1.69132 0
M  V30 923 N 91.6422 0.330177 1.54103 0
M  V30 924 C 92.5752 -0.575477 2.20825 0
M  V30 925 C 93.5532 -1.11064 1.18758 0
M  V30 926 O 94.7372 -1.17341 1.47524 0
M  V30 927 C 91.8642 -1.79032 2.87516 0
M  V30 928 C 90.9102 -1.38581 4.03358 0
M  V30 929 S 91.7432 -0.416911 5.33875 0
M  V30 930 C 92.8992 -1.63889 6.04062 0
M  V30 931 H 93.1322 -0.00872114 2.97299 0
M  V30 932 H 90.6652 0.114254 1.53977 0
M  V30 933 H 92.6232 -2.48734 3.2656 0
M  V30 934 H 91.2842 -2.32827 2.10832 0
M  V30 935 H 90.4772 -2.29123 4.48908 0
M  V30 936 H 90.0792 -0.768419 3.66021 0
M  V30 937 H 92.3712 -2.57536 6.26643 0
M  V30 938 H 93.3142 -1.22542 6.97416 0
M  V30 939 H 93.7222 -1.82887 5.34053 0
M  V30 940 N 93.1203 -1.57491 0.0584922 0
M  V30 941 C 94.3683 -1.92597 -0.612436 0
M  V30 942 C 94.6893 -0.938162 -1.70949 0
M  V30 943 O 93.9593 0.0158301 -1.95894 0
M  V30 944 H 92.5393 -0.710964 -0.229214 0
M  V30 945 H 95.2013 -1.94571 0.113218 0
M  V30 946 H 94.2973 -2.94038 -1.04633 0
M  V30 947 N 94.5984 0.214957 -1.56127 0
M  V30 948 C 95.8234 0.95924 -1.83884 0
M  V30 949 C 96.2484 1.7689 -0.639644 0
M  V30 950 O 95.6064 1.76566 0.411601 0
M  V30 951 C 95.6544 1.84723 -3.09693 0
M  V30 952 O 94.7584 2.94346 -2.8885 0
M  V30 953 H 94.0994 0.27125 -0.606069 0
M  V30 954 H 96.6294 0.226276 -2.03345 0
M  V30 955 H 96.6394 2.25576 -3.39969 0
M  V30 956 H 95.3144 1.25218 -3.96602 0
M  V30 957 H 93.8914 2.57391 -2.69823 0
M  V30 958 N 96.0765 1.50051 0.48192 0
M  V30 959 C 97.0065 1.71046 1.58951 0
M  V30 960 C 97.9875 0.559288 1.60642 0
M  V30 961 O 99.1725 0.797243 1.77081 0
M  V30 962 C 96.3025 1.79462 2.97339 0
M  V30 963 C 95.2565 2.94558 3.10515 0
M  V30 964 C 94.5825 2.88105 4.50444 0
M  V30 965 C 95.8825 4.35227 2.88747 0
M  V30 966 H 97.5765 2.6378 1.41635 0
M  V30 967 H 95.1225 1.26936 0.679942 0
M  V30 968 H 97.0755 1.92734 3.74742 0
M  V30 969 H 95.7995 0.833412 3.15788 0
M  V30 970 H 94.4585 2.80918 2.35543 0
M  V30 971 H 94.1065 1.89853 4.65795 0
M  V30 972 H 93.8065 3.65366 4.60197 0
M  V30 973 H 95.3305 3.03412 5.29881 0
M  V30 974 H 96.7445 4.49449 3.55905 0
M  V30 975 H 95.1415 5.13856 3.09955 0
M  V30 976 H 96.2115 4.48347 1.84696 0
M  V30 977 N 97.5546 -0.734337 1.39446 0
M  V30 978 C 98.7846 -1.52137 1.39778 0
M  V30 979 C 99.1926 -1.89198 -0.00929312 0
M  V30 980 O 98.5356 -1.54666 -0.991168 0
M  V30 981 C 98.5976 -2.83762 2.20724 0
M  V30 982 C 98.2616 -2.69131 3.69347 0
M  V30 983 C 99.2586 -2.37635 4.62413 0
M  V30 984 C 96.9436 -2.85982 4.1294 0
M  V30 985 C 98.9376 -2.23172 5.97054 0
M  V30 986 C 96.6246 -2.71137 5.47657 0
M  V30 987 C 97.6226 -2.39777 6.39528 0
M  V30 988 O 97.3106 -2.25026 7.71763 0
M  V30 989 H 97.0426 -0.476717 0.479288 0
M  V30 990 H 99.5966 -0.915012 1.83893 0
M  V30 991 H 97.8266 -3.4666 1.71359 0
M  V30 992 H 99.5156 -3.45383 2.13226 0
M  V30 993 H 100.282 -2.24267 4.30034 0
M  V30 994 H 96.1606 -3.09383 3.41765 0
M  V30 995 H 99.7046 -1.98617 6.68728 0
M  V30 996 H 95.6016 -2.84083 5.79626 0
M  V30 997 H 96.3696 -2.40091 7.82495 0
M  V30 998 N 99.0327 -1.24633 -0.964593 0
M  V30 999 C 100.279 -1.09957 -1.71117 0
M  V30 1000 C 100.634 0.357422 -1.89051 0
M  V30 1001 O 99.9267 1.26029 -1.44317 0
M  V30 1002 C 100.121 -1.7763 -3.10133 0
M  V30 1003 C 99.9497 -3.29759 -3.05759 0
M  V30 1004 C 98.7197 -3.98981 -3.10068 0
M  V30 1005 C 100.918 -4.26305 -2.87695 0
M  V30 1006 N 98.8997 -5.37966 -2.95747 0
M  V30 1007 C 100.271 -5.52308 -2.81702 0
M  V30 1008 C 102.326 -4.16842 -2.72299 0
M  V30 1009 C 101.029 -6.69931 -2.61887 0
M  V30 1010 C 103.055 -5.34147 -2.53853 0
M  V30 1011 C 102.417 -6.59084 -2.48572 0
M  V30 1012 H 98.5157 -0.457003 -0.634564 0
M  V30 1013 H 101.1 -1.57592 -1.14337 0
M  V30 1014 H 99.2707 -1.32504 -3.65099 0
M  V30 1015 H 101.003 -1.55786 -3.73514 0
M  V30 1016 H 97.7577 -3.50169 -3.18871 0
M  V30 1017 H 98.1817 -6.10877 -2.91818 0
M  V30 1018 H 102.824 -3.21007 -2.75163 0
M  V30 1019 H 100.542 -7.65886 -2.57767 0
M  V30 1020 H 104.128 -5.28678 -2.4288 0
M  V30 1021 H 103.008 -7.48324 -2.34481 0
M  V30 1022 N 100.511 1.16574 -1.06058 0
M  V30 1023 C 101.441 2.23057 -0.690488 0
M  V30 1024 C 102.422 1.67141 0.315901 0
M  V30 1025 O 103.607 1.93253 0.191556 0
M  V30 1026 C 100.737 3.47222 -0.073625 0
M  V30 1027 C 99.6908 4.16016 -1.00573 0
M  V30 1028 C 99.0168 5.34104 -0.252289 0
M  V30 1029 C 100.317 4.67264 -2.33371 0
M  V30 1030 H 102.011 2.54271 -1.58072 0
M  V30 1031 H 99.5568 1.22218 -0.76149 0
M  V30 1032 H 101.51 4.20939 0.19714 0
M  V30 1033 H 100.234 3.15302 0.85161 0
M  V30 1034 H 98.8928 3.44223 -1.2612 0
M  V30 1035 H 98.5408 4.98437 0.675988 0
M  V30 1036 H 98.2408 5.81072 -0.873455 0
M  V30 1037 H 99.7648 6.10599 0.0109857 0
M  V30 1038 H 101.179 5.32573 -2.12223 0
M  V30 1039 H 99.5758 5.24843 -2.90963 0
M  V30 1040 H 100.646 3.83602 -2.96611 0
M  V30 1041 N 101.989 0.842826 1.3317 0
M  V30 1042 C 102.919 0.294028 2.31641 0
M  V30 1043 C 103.9 -0.600401 1.59151 0
M  V30 1044 O 105.085 -0.523124 1.87022 0
M  V30 1045 C 102.215 -0.528416 3.43257 0
M  V30 1046 C 101.169 0.27056 4.27144 0
M  V30 1047 C 100.495 -0.675881 5.30411 0
M  V30 1048 C 101.795 1.48981 5.00602 0
M  V30 1049 H 103.489 1.11681 2.77791 0
M  V30 1050 H 101.035 0.538478 1.33553 0
M  V30 1051 H 102.988 -0.922674 4.11175 0
M  V30 1052 H 101.712 -1.38445 2.95805 0
M  V30 1053 H 100.371 0.646427 3.60856 0
M  V30 1054 H 100.019 -1.52842 4.79216 0
M  V30 1055 H 99.7189 -0.145374 5.8742 0
M  V30 1056 H 101.243 -1.06757 6.01195 0
M  V30 1057 H 102.657 1.16849 5.61266 0
M  V30 1058 H 101.054 1.95739 5.6728 0
M  V30 1059 H 102.124 2.25746 4.29147 0
M  V30 1060 N 103.467 -1.45747 0.599634 0
M  V30 1061 C 104.878 -1.85853 0.177681 0
M  V30 1062 C 105.229 -1.50102 -1.26348 0
M  V30 1063 O 104.354 -0.923905 -1.95686 0
M  V30 1064 C 104.949 -3.37326 0.315688 0
M  V30 1065 C 103.508 -3.76365 -0.0515144 0
M  V30 1066 C 102.655 -2.69722 0.643822 0
M  V30 1067 H 105.606 -1.36661 0.806814 0
M  V30 1068 H 105.627 -3.77778 -0.454321 0
M  V30 1069 H 105.139 -3.63315 1.36468 0
M  V30 1070 H 103.24 -3.55993 -1.09999 0
M  V30 1071 H 103.353 -4.77916 0.336594 0
M  V30 1072 H 101.717 -2.54567 0.0822881 0
M  V30 1073 H 102.5 -2.98549 1.6948 0
M  V30 1074 N 104.945 -0.338344 -1.53925 0
M  V30 1075 C 105.893 0.536231 -2.26335 0
M  V30 1076 C 106.887 1.1063 -1.28286 0
M  V30 1077 O 108.093 1.05264 -1.46012 0
M  V30 1078 H 104.468 0.191602 -0.727181 0
M  V30 1079 H 106.439 -0.0965747 -2.98244 0
M  V30 1080 C 105.188 1.67803 -3.04528 0
M  V30 1081 H 104.511 1.24864 -3.79801 0
M  V30 1082 H 105.951 2.26526 -3.58416 0
M  V30 1083 C 104.41 2.60439 -2.13712 0
M  V30 1084 O 104.94 3.6255 -1.72975 0
M  V30 1085 N 103.146 2.29006 -1.78898 0
M  V30 1086 H 102.693 1.46011 -2.12223 0
M  V30 1087 H 102.651 2.91248 -1.18416 0
M  V30 1088 N 106.423 1.57458 -0.0668435 0
M  V30 1089 C 107.353 2.15468 0.899764 0
M  V30 1090 C 108.334 1.08042 1.31381 0
M  V30 1091 O 109.519 1.36054 1.38574 0
M  V30 1092 C 106.649 2.71232 2.16911 0
M  V30 1093 C 105.603 3.83781 1.89463 0
M  V30 1094 C 104.929 4.26127 3.22986 0
M  V30 1095 C 106.229 5.08238 1.20381 0
M  V30 1096 H 107.923 2.96488 0.416529 0
M  V30 1097 H 105.469 1.4262 0.198908 0
M  V30 1098 H 107.422 3.10458 2.84945 0
M  V30 1099 H 106.146 1.87426 2.67468 0
M  V30 1100 H 104.805 3.45051 1.23836 0
M  V30 1101 H 104.453 3.39249 3.71374 0
M  V30 1102 H 104.153 5.01993 3.05413 0
M  V30 1103 H 105.677 4.67966 3.92225 0
M  V30 1104 H 107.091 5.44811 1.78475 0
M  V30 1105 H 105.488 5.89349 1.13083 0
M  V30 1106 H 106.558 4.84558 0.182153 0
M  V30 1107 N 107.901 -0.206675 1.56239 0
M  V30 1108 C 109.129 -0.945345 1.8404 0
M  V30 1109 C 109.544 -1.77336 0.647885 0
M  V30 1110 O 108.901 -1.78425 -0.383511 0
M  V30 1111 C 108.952 -1.8509 3.10522 0
M  V30 1112 O 108.673 -1.05634 4.25174 0
M  V30 1113 C 110.174 -2.70222 3.51418 0
M  V30 1114 H 107.394 -0.276372 0.61144 0
M  V30 1115 H 109.938 -0.217417 2.03341 0
M  V30 1116 H 108.093 -2.53259 2.93153 0
M  V30 1117 H 108.507 -1.67238 4.97124 0
M  V30 1118 H 109.981 -3.29438 4.42916 0
M  V30 1119 H 110.458 -3.43358 2.73864 0
M  V30 1120 H 111.064 -2.07443 3.71278 0
M  V30 1121 N 109.379 -1.50304 -0.473955 0
M  V30 1122 C 110.627 -1.60832 -1.22382 0
M  V30 1123 C 110.948 -0.30939 -1.9253 0
M  V30 1124 O 110.218 0.67296 -1.83978 0
M  V30 1125 H 108.798 -0.592652 -0.454723 0
M  V30 1126 H 111.46 -1.87068 -0.546968 0
M  V30 1127 H 110.556 -2.41803 -1.97327 0
M  V30 1128 N 110.857 0.726932 -1.39834 0
M  V30 1129 C 111.804 1.841 -1.39197 0
M  V30 1130 C 112.774 1.642 -0.250502 0
M  V30 1131 O 113.959 1.85494 -0.446846 0
M  V30 1132 C 111.099 3.21697 -1.24919 0
M  V30 1133 C 110.212 3.53247 -2.48678 0
M  V30 1134 C 109.347 4.80289 -2.26928 0
M  V30 1135 C 108.386 5.04707 -3.4632 0
M  V30 1136 N 107.523 6.22956 -3.23836 0
M  V30 1137 H 112.363 1.83979 -2.34427 0
M  V30 1138 H 109.9 0.898876 -1.16442 0
M  V30 1139 H 111.858 4.01137 -1.1465 0
M  V30 1140 H 110.488 3.21076 -0.333153 0
M  V30 1141 H 109.54 2.68447 -2.69519 0
M  V30 1142 H 110.852 3.67205 -3.37582 0
M  V30 1143 H 110.006 5.67725 -2.13947 0
M  V30 1144 H 108.745 4.68519 -1.35431 0
M  V30 1145 H 107.75 4.1573 -3.5979 0
M  V30 1146 H 108.975 5.18357 -4.38729 0
M  V30 1147 H 106.921 6.12459 -2.35011 0
M  V30 1148 H 106.838 6.37539 -4.063 0
M  V30 1149 H 108.106 7.1321 -3.14566 0
M  V30 1150 N 112.336 1.25143 0.95797 0
M  V30 1151 C 113.747 1.08851 1.51685 0
M  V30 1152 C 114.098 -0.33687 1.93286 0
M  V30 1153 O 113.223 -1.22644 1.7829 0
M  V30 1154 C 113.818 1.96978 2.75654 0
M  V30 1155 C 112.377 1.84881 3.27866 0
M  V30 1156 C 111.524 1.91329 2.0072 0
M  V30 1157 H 114.475 1.38478 0.77522 0
M  V30 1158 H 114.496 1.5078 3.4935 0
M  V30 1159 H 114.008 3.00712 2.45345 0
M  V30 1160 H 112.109 0.840182 3.63004 0
M  V30 1161 H 112.222 2.6951 3.96107 0
M  V30 1162 H 110.586 1.35174 2.15871 0
M  V30 1163 H 111.369 2.96661 1.72764 0
M  V30 1164 N 113.814 -1.1601 1.06675 0
M  V30 1165 C 115.063 -1.85973 0.780818 0
M  V30 1166 C 115.376 -1.82819 -0.695444 0
M  V30 1167 O 116.582 -2.484 -1.09589 0
M  V30 1168 C 115.038 -3.33757 1.34665 0
M  V30 1169 C 114.646 -3.45374 2.85343 0
M  V30 1170 C 116.39 -4.0895 1.13843 0
M  V30 1171 C 114.297 -4.87266 3.35151 0
M  V30 1172 H 113.227 -0.696661 0.288407 0
M  V30 1173 H 115.878 -1.30903 1.28595 0
M  V30 1174 H 114.26 -3.88456 0.769274 0
M  V30 1175 H 115.434 -3.00816 3.49065 0
M  V30 1176 H 113.749 -2.83619 3.04876 0
M  V30 1177 H 116.346 -5.13654 1.4854 0
M  V30 1178 H 116.689 -4.16229 0.0770282 0
M  V30 1179 H 117.222 -3.605 1.68179 0
M  V30 1180 H 113.961 -4.85168 4.40786 0
M  V30 1181 H 113.481 -5.32433 2.76179 0
M  V30 1182 H 115.16 -5.56097 3.30704 0
M  V30 1183 N 115.292 -0.849877 -1.32721 0
M  V30 1184 C 116.517 -0.463856 -2.02146 0
M  V30 1185 C 116.942 0.930449 -1.63476 0
M  V30 1186 O 116.3 1.61033 -0.832952 0
M  V30 1187 C 116.348 -0.604955 -3.55489 0
M  V30 1188 O 115.452 0.36425 -4.10788 0
M  V30 1189 H 114.793 -0.187046 -0.637111 0
M  V30 1190 H 117.323 -1.14775 -1.69375 0
M  V30 1191 H 117.333 -0.490696 -4.05038 0
M  V30 1192 H 116.008 -1.62174 -3.82978 0
M  V30 1193 H 114.585 0.206628 -3.72327 0
M  V30 1194 N 116.77 1.45427 -0.607355 0
M  V30 1195 C 118.047 1.9557 -0.0344566 0
M  V30 1196 C 118.427 1.54979 1.43334 0
M  V30 1197 O 117.775 0.812241 2.13576 0
M  V30 1198 C 117.985 3.48226 -0.232321 0
M  V30 1199 C 119.333 4.2445 -0.113001 0
M  V30 1200 O 120.357 3.55829 -0.162431 0
M  V30 1201 O 119.216 5.465 0.00209442 0
M  V30 1202 H 116.31 0.826222 0.0358667 0
M  V30 1203 H 118.856 1.55594 -0.6774 0
M  V30 1204 H 117.628 3.70739 -1.25174 0
M  V30 1205 H 117.251 3.95092 0.445896 0
M  V30 1206 N 118.248 0.346503 1.53744 0
M  V30 1207 C 119.211 -0.496439 2.23759 0
M  V30 1208 C 120.211 -1.0252 1.2388 0
M  V30 1209 O 121.401 -0.913974 1.48297 0
M  V30 1210 C 118.533 -1.69187 2.95954 0
M  V30 1211 H 119.726 0.115952 2.99676 0
M  V30 1212 H 117.279 0.0978939 1.55993 0
M  V30 1213 H 118.014 -2.34288 2.24231 0
M  V30 1214 H 117.799 -1.31989 3.69217 0
M  V30 1215 H 119.289 -2.28969 3.49232 0
M  V30 1216 N 119.726 -1.57421 0.075193 0
M  V30 1217 C 120.658 -2.09904 -0.920483 0
M  V30 1218 C 121.671 -1.03191 -1.25918 0
M  V30 1219 O 122.86 -1.30695 -1.21577 0
M  V30 1220 C 119.96 -2.54726 -2.23534 0
M  V30 1221 C 119.133 -3.8505 -2.07498 0
M  V30 1222 C 118.192 -4.15929 -3.22319 0
M  V30 1223 O 117.218 -4.85474 -2.9716 0
M  V30 1224 N 118.42 -3.69745 -4.47514 0
M  V30 1225 H 121.185 -2.95954 -0.472359 0
M  V30 1226 H 118.746 -1.61523 -0.110444 0
M  V30 1227 H 120.738 -2.72443 -2.9926 0
M  V30 1228 H 119.308 -1.73795 -2.59835 0
M  V30 1229 H 118.528 -3.76679 -1.16219 0
M  V30 1230 H 119.816 -4.70348 -1.94038 0
M  V30 1231 H 119.214 -3.13569 -4.7084 0
M  V30 1232 H 117.771 -3.92655 -5.20255 0
M  V30 1233 N 121.204 0.198386 -1.56346 0
M  V30 1234 C 122.62 0.549085 -1.49857 0
M  V30 1235 C 122.82 1.86016 -0.774611 0
M  V30 1236 O 121.876 2.50416 -0.323776 0
M  V30 1237 C 123.189 0.606868 -2.94512 0
M  V30 1238 C 124.737 0.695925 -3.05165 0
M  V30 1239 C 125.212 0.784848 -4.51225 0
M  V30 1240 N 126.703 0.848463 -4.55363 0
M  V30 1241 C 127.438 0.937378 -5.65686 0
M  V30 1242 N 126.934 0.9888 -6.85707 0
M  V30 1243 N 128.727 0.974312 -5.53592 0
M  V30 1244 H 120.878 -0.661655 -2.01831 0
M  V30 1245 H 123.141 -0.235261 -0.918344 0
M  V30 1246 H 122.847 -0.28732 -3.50524 0
M  V30 1247 H 122.721 1.46268 -3.47686 0
M  V30 1248 H 125.108 1.58055 -2.49204 0
M  V30 1249 H 125.189 -0.186022 -2.55123 0
M  V30 1250 H 124.833 -0.0954072 -5.0781 0
M  V30 1251 H 124.763 1.68255 -4.98997 0
M  V30 1252 H 127.254 0.818103 -3.68938 0
M  V30 1253 H 127.567 1.05707 -7.65536 0
M  V30 1254 H 125.912 0.957534 -6.88372 0
M  V30 1255 H 129.103 0.930954 -4.58749 0
M  V30 1256 H 129.276 1.04015 -6.39597 0
M  V30 1257 N 122.682 1.50554 0.465978 0
M  V30 1258 C 124.098 1.38093 0.800154 0
M  V30 1259 C 124.298 0.440988 1.96615 0
M  V30 1260 O 123.354 -0.114499 2.5224 0
M  V30 1261 C 124.667 2.79565 1.10742 0
M  V30 1262 C 126.215 2.88516 1.21357 0
M  V30 1263 C 126.69 4.30833 1.55393 0
M  V30 1264 N 128.181 4.33807 1.62375 0
M  V30 1265 C 128.916 5.40927 1.90225 0
M  V30 1266 N 128.412 6.58247 2.16062 0
M  V30 1267 N 130.205 5.28376 1.9177 0
M  V30 1268 H 122.356 2.10237 -0.302366 0
M  V30 1269 H 124.619 0.945203 -0.0727746 0
M  V30 1270 H 124.325 3.50208 0.323661 0
M  V30 1271 H 124.199 3.17125 2.04234 0
M  V30 1272 H 126.586 2.1809 1.98799 0
M  V30 1273 H 126.667 2.54492 0.258321 0
M  V30 1274 H 126.311 5.01799 0.784889 0
M  V30 1275 H 126.241 4.62347 2.52076 0
M  V30 1276 H 128.732 3.49212 1.44427 0
M  V30 1277 H 129.045 7.3569 2.36601 0
M  V30 1278 H 127.39 6.61413 2.13444 0
M  V30 1279 H 130.581 4.35715 1.71085 0
M  V30 1280 H 130.754 6.11944 2.13139 0
M  V30 1281 N 124.16 -0.719506 1.40217 0
M  V30 1282 C 125.09 -1.8465 1.42922 0
M  V30 1283 C 126.071 -1.67599 0.29062 0
M  V30 1284 O 127.256 -1.87688 0.498677 0
M  V30 1285 C 124.386 -3.22565 1.28722 0
M  V30 1286 C 123.34 -3.54281 2.40144 0
M  V30 1287 C 122.666 -4.91298 2.11023 0
M  V30 1288 C 123.966 -3.55676 3.82481 0
M  V30 1289 H 125.66 -1.82644 2.37237 0
M  V30 1290 H 123.206 -0.877305 1.1419 0
M  V30 1291 H 125.159 -4.01095 1.29232 0
M  V30 1292 H 123.883 -3.25137 0.308811 0
M  V30 1293 H 122.542 -2.78088 2.38877 0
M  V30 1294 H 122.19 -4.90468 1.11582 0
M  V30 1295 H 121.89 -5.13485 2.8567 0
M  V30 1296 H 123.414 -5.72166 2.13209 0
M  V30 1297 H 124.828 -4.24254 3.85592 0
M  V30 1298 H 123.225 -3.89388 4.56614 0
M  V30 1299 H 124.295 -2.55144 4.12346 0
M  V30 1300 N 125.638 -1.25649 -0.95132 0
M  V30 1301 C 126.886 -1.10375 -1.69298 0
M  V30 1302 C 127.207 0.355339 -1.91735 0
M  V30 1303 O 126.477 1.25188 -1.50681 0
M  V30 1304 H 125.057 -0.405461 -0.627384 0
M  V30 1305 H 127.719 -1.57823 -1.14358 0
M  V30 1306 H 126.815 -1.61465 -2.67087 0
M  V30 1307 N 127.117 1.15442 -1.07289 0
M  V30 1308 C 128.047 2.22312 -0.714107 0
M  V30 1309 C 129.028 1.67467 0.298155 0
M  V30 1310 O 130.213 1.93445 0.171048 0
M  V30 1311 C 127.343 3.47124 -0.110448 0
M  V30 1312 C 126.297 4.14926 -1.04979 0
M  V30 1313 C 125.623 5.33807 -0.308924 0
M  V30 1314 C 126.923 4.64762 -2.38314 0
M  V30 1315 H 128.617 2.5258 -1.6076 0
M  V30 1316 H 126.163 1.21404 -0.77441 0
M  V30 1317 H 128.116 4.21124 0.152482 0
M  V30 1318 H 126.84 3.16187 0.81812 0
M  V30 1319 H 125.499 3.42866 -1.29764 0
M  V30 1320 H 125.147 4.99126 0.623084 0
M  V30 1321 H 124.847 5.80113 -0.935036 0
M  V30 1322 H 126.371 6.10576 -0.0537771 0
M  V30 1323 H 127.785 5.30292 -2.1786 0
M  V30 1324 H 126.182 5.21728 -2.96514 0
M  V30 1325 H 127.252 3.80434 -3.00663 0
M  V30 1326 N 128.595 0.856903 1.32268 0
M  V30 1327 C 129.558 0.308171 2.27119 0
M  V30 1328 C 130.558 -0.533421 1.51695 0
M  V30 1329 O 131.748 -0.344607 1.70757 0
M  V30 1330 C 128.88 -0.563757 3.36206 0
M  V30 1331 H 130.073 1.14535 2.77167 0
M  V30 1332 H 127.626 0.631421 1.42978 0
M  V30 1333 H 128.361 -1.42266 2.91429 0
M  V30 1334 H 128.146 0.0386749 3.92081 0
M  V30 1335 H 129.636 -0.940386 4.06874 0
M  V30 1336 N 130.073 -1.45103 0.615059 0
M  V30 1337 C 131.319 -2.02483 0.113347 0
M  V30 1338 C 131.652 -1.48146 -1.25564 0
M  V30 1339 O 130.927 -0.659104 -1.82992 0
M  V30 1340 C 131.21 -3.60005 0.0825278 0
M  V30 1341 C 131.063 -4.2466 1.48271 0
M  V30 1342 C 132.382 -4.35972 -0.601401 0
M  V30 1343 H 129.501 -0.735764 0.0426632 0
M  V30 1344 H 132.143 -1.72868 0.788461 0
M  V30 1345 H 130.293 -3.85367 -0.492378 0
M  V30 1346 H 131.965 -4.10458 2.10527 0
M  V30 1347 H 130.208 -3.82772 2.04127 0
M  V30 1348 H 130.879 -5.336 1.41332 0
M  V30 1349 H 133.355 -4.15947 -0.112666 0
M  V30 1350 H 132.231 -5.45697 -0.592097 0
M  V30 1351 H 132.492 -4.09391 -1.66887 0
M  V30 1352 N 131.551 -0.354651 -1.53558 0
M  V30 1353 C 132.797 0.238797 -2.01389 0
M  V30 1354 C 133.13 1.49309 -1.2418 0
M  V30 1355 O 132.405 1.91638 -0.332457 0
M  V30 1356 C 132.688 0.541771 -3.56001 0
M  V30 1357 C 132.541 -0.725388 -4.43912 0
M  V30 1358 C 133.86 1.34685 -4.18984 0
M  V30 1359 H 130.979 0.0853177 -0.732045 0
M  V30 1360 H 133.621 -0.477384 -1.83905 0
M  V30 1361 H 131.771 1.15189 -3.71031 0
M  V30 1362 H 133.443 -1.36313 -4.407 0
M  V30 1363 H 131.686 -1.34801 -4.12324 0
M  V30 1364 H 132.357 -0.468505 -5.50008 0
M  V30 1365 H 134.833 0.830837 -4.07721 0
M  V30 1366 H 133.709 1.52759 -5.27215 0
M  V30 1367 H 133.97 2.35221 -3.74331 0
M  V30 1368 N 133.029 1.57378 -0.0835403 0
M  V30 1369 C 134.275 1.95025 0.577664 0
M  V30 1370 C 134.63 0.964049 1.66505 0
M  V30 1371 O 133.923 -0.0118235 1.91596 0
M  V30 1372 C 134.117 3.37063 1.1884 0
M  V30 1373 C 133.946 4.49409 0.16171 0
M  V30 1374 C 132.716 5.04642 -0.257756 0
M  V30 1375 C 134.914 5.10722 -0.605634 0
M  V30 1376 N 132.896 6.00537 -1.27393 0
M  V30 1377 C 134.267 6.02225 -1.47395 0
M  V30 1378 C 136.322 4.93501 -0.660418 0
M  V30 1379 C 135.025 6.78355 -2.39221 0
M  V30 1380 C 137.051 5.70283 -1.56623 0
M  V30 1381 C 136.413 6.61444 -2.4222 0
M  V30 1382 H 132.512 0.760512 0.182058 0
M  V30 1383 H 135.096 1.94013 -0.163419 0
M  V30 1384 H 133.267 3.3879 1.89936 0
M  V30 1385 H 134.999 3.61917 1.81103 0
M  V30 1386 H 131.754 4.73428 0.127702 0
M  V30 1387 H 132.178 6.53184 -1.77987 0
M  V30 1388 H 136.82 4.22798 -0.0128221 0
M  V30 1389 H 134.538 7.48327 -3.05011 0
M  V30 1390 H 138.124 5.58976 -1.61361 0
M  V30 1391 H 137.004 7.1982 -3.11174 0
M  V30 1392 N 134.507 -0.190092 1.56449 0
M  V30 1393 C 135.437 -1.23816 1.97969 0
M  V30 1394 C 136.418 -1.47201 0.852395 0
M  V30 1395 O 137.603 -1.58854 1.1171 0
M  V30 1396 C 134.733 -2.5813 2.3235 0
M  V30 1397 C 133.687 -2.49348 3.47864 0
M  V30 1398 C 133.013 -3.8798 3.67934 0
M  V30 1399 C 134.313 -2.01424 4.81898 0
M  V30 1400 H 136.007 -0.89311 2.85769 0
M  V30 1401 H 133.553 -0.428177 1.37487 0
M  V30 1402 H 135.506 -3.31637 2.59991 0
M  V30 1403 H 134.23 -2.94386 1.41438 0
M  V30 1404 H 132.889 -1.78297 3.20321 0
M  V30 1405 H 132.537 -4.21597 2.74344 0
M  V30 1406 H 132.237 -3.82978 4.45648 0
M  V30 1407 H 133.761 -4.63101 3.97957 0
M  V30 1408 H 135.175 -2.64693 5.08538 0
M  V30 1409 H 133.572 -2.07413 5.63116 0
M  V30 1410 H 134.642 -0.967677 4.75146 0
M  V30 1411 N 135.985 -1.50799 -0.457987 0
M  V30 1412 C 137.231 -1.63648 -1.20792 0
M  V30 1413 C 137.586 -0.338662 -1.89396 0
M  V30 1414 O 136.879 0.664291 -1.79716 0
M  V30 1415 C 137.073 -2.76358 -2.2663 0
M  V30 1416 C 136.902 -4.16974 -1.68411 0
M  V30 1417 C 135.672 -4.83199 -1.47807 0
M  V30 1418 C 137.87 -5.00774 -1.17176 0
M  V30 1419 N 135.852 -6.07991 -0.849692 0
M  V30 1420 C 137.223 -6.16397 -0.667403 0
M  V30 1421 C 139.278 -4.86452 -1.06155 0
M  V30 1422 C 137.981 -7.19272 -0.0636908 0
M  V30 1423 C 140.007 -5.89515 -0.471759 0
M  V30 1424 C 139.369 -7.04397 0.0221557 0
M  V30 1425 H 135.468 -0.652888 -0.43042 0
M  V30 1426 H 138.052 -1.87962 -0.507785 0
M  V30 1427 H 136.223 -2.53744 -2.94056 0
M  V30 1428 H 137.955 -2.78496 -2.93636 0
M  V30 1429 H 134.71 -4.40714 -1.73403 0
M  V30 1430 H 135.134 -6.74733 -0.553537 0
M  V30 1431 H 139.776 -3.97907 -1.42932 0
M  V30 1432 H 137.494 -8.07481 0.316253 0
M  V30 1433 H 141.08 -5.805 -0.388671 0
M  V30 1434 H 139.96 -7.82782 0.471375 0
M  V30 1435 N 137.463 0.71206 -1.40597 0
M  V30 1436 C 138.71 1.47197 -1.39065 0
M  V30 1437 C 139.038 1.94499 0.00583891 0
M  V30 1438 O 138.293 1.68752 0.99102 0
M  V30 1439 C 138.592 2.71039 -2.32965 0
M  V30 1440 C 138.258 2.42484 -3.80148 0
M  V30 1441 C 136.92 2.34406 -4.20247 0
M  V30 1442 C 139.272 2.18598 -4.73143 0
M  V30 1443 C 136.6 2.00516 -5.51371 0
M  V30 1444 C 138.952 1.8622 -6.0457 0
M  V30 1445 C 137.616 1.76626 -6.43708 0
M  V30 1446 H 136.886 0.538634 -0.508876 0
M  V30 1447 H 139.533 0.815325 -1.73276 0
M  V30 1448 H 137.838 3.41558 -1.91951 0
M  V30 1449 H 139.535 3.29138 -2.29061 0
M  V30 1450 H 136.125 2.49659 -3.4838 0
M  V30 1451 H 140.309 2.23793 -4.42979 0
M  V30 1452 H 135.565 1.91628 -5.80593 0
M  V30 1453 H 139.739 1.66752 -6.76141 0
M  V30 1454 H 137.366 1.50133 -7.45228 0
M  V30 1455 N 138.941 1.26152 0.944643 0
M  V30 1456 C 139.871 1.09902 2.06019 0
M  V30 1457 C 140.852 0.00519538 1.70099 0
M  V30 1458 O 142.037 0.176583 1.93396 0
M  V30 1459 C 139.167 0.727562 3.39594 0
M  V30 1460 C 138.121 1.77274 3.89561 0
M  V30 1461 C 137.447 1.25569 5.19747 0
M  V30 1462 C 138.747 3.17357 4.14827 0
M  V30 1463 H 140.441 2.03217 2.19871 0
M  V30 1464 H 137.987 0.978452 1.05652 0
M  V30 1465 H 139.94 0.600777 4.17095 0
M  V30 1466 H 138.664 -0.241287 3.25707 0
M  V30 1467 H 137.323 1.88814 3.14237 0
M  V30 1468 H 136.971 0.276783 5.02238 0
M  V30 1469 H 136.671 1.95433 5.54148 0
M  V30 1470 H 138.195 1.1415 5.99835 0
M  V30 1471 H 139.609 3.08914 4.82954 0
M  V30 1472 H 138.006 3.84781 4.60504 0
M  V30 1473 H 139.076 3.63673 3.20734 0
M  V30 1474 N 140.419 -1.14872 1.07899 0
M  V30 1475 C 141.667 -1.85422 0.803941 0
M  V30 1476 C 141.988 -1.83051 -0.67211 0
M  V30 1477 O 141.258 -1.27532 -1.48703 0
M  V30 1478 H 139.838 -0.686537 0.294408 0
M  V30 1479 H 142.5 -1.39226 1.3639 0
M  V30 1480 H 141.596 -2.90399 1.14346 0
M  V30 1481 N 141.898 -0.863906 -1.31812 0
M  V30 1482 C 142.831 -0.259963 -2.26714 0
M  V30 1483 C 143.809 0.607392 -1.50829 0
M  V30 1484 O 144.993 0.562155 -1.79922 0
M  V30 1485 C 142.12 0.632456 -3.32743 0
M  V30 1486 C 141.166 -0.162743 -4.26189 0
M  V30 1487 S 141.999 -1.53726 -5.12961 0
M  V30 1488 C 143.155 -0.650803 -6.22507 0
M  V30 1489 H 143.388 -1.06445 -2.77591 0
M  V30 1490 H 140.921 -0.662071 -1.39485 0
M  V30 1491 H 142.879 1.14167 -3.94305 0
M  V30 1492 H 141.54 1.41083 -2.80632 0
M  V30 1493 H 140.733 0.517366 -5.01338 0
M  V30 1494 H 140.335 -0.60385 -3.69093 0
M  V30 1495 H 142.627 0.141134 -6.77353 0
M  V30 1496 H 143.57 -1.37322 -6.94657 0
M  V30 1497 H 143.978 -0.221041 -5.64067 0
M  V30 1498 N 143.376 1.44774 -0.622745 0
M  V30 1499 C 144.309 2.27792 0.136329 0
M  V30 1500 C 145.287 1.38041 0.859264 0
M  V30 1501 O 146.471 1.67478 0.86506 0
M  V30 1502 C 143.598 3.16776 1.19878 0
M  V30 1503 C 142.644 4.22575 0.57731 0
M  V30 1504 S 143.477 5.31825 -0.626294 0
M  V30 1505 C 144.633 6.24377 0.436378 0
M  V30 1506 H 144.866 2.91824 -0.567967 0
M  V30 1507 H 142.399 1.48838 -0.410677 0
M  V30 1508 H 144.357 3.68596 1.80686 0
M  V30 1509 H 143.018 2.5198 1.87523 0
M  V30 1510 H 142.211 4.84818 1.37721 0
M  V30 1511 H 141.813 3.73974 0.0440439 0
M  V30 1512 H 144.105 6.64689 1.31128 0
M  V30 1513 H 145.048 7.07941 -0.150271 0
M  V30 1514 H 145.456 5.59381 0.758513 0
M  V30 1515 N 144.854 0.36279 1.53368 0
M  V30 1516 C 146.103 -0.22888 2.00397 0
M  V30 1517 C 146.416 -1.50096 1.25421 0
M  V30 1518 O 147.622 -2.17106 1.63025 0
M  V30 1519 C 146.078 -0.458417 3.56969 0
M  V30 1520 C 145.686 0.798877 4.4082 0
M  V30 1521 C 147.43 -1.00789 4.12361 0
M  V30 1522 C 145.337 0.539078 5.88938 0
M  V30 1523 H 144.267 -0.089305 0.748693 0
M  V30 1524 H 146.918 0.481099 1.77081 0
M  V30 1525 H 145.3 -1.22959 3.76427 0
M  V30 1526 H 146.474 1.57262 4.33134 0
M  V30 1527 H 144.789 1.27137 3.96516 0
M  V30 1528 H 147.386 -1.21754 5.20653 0
M  V30 1529 H 147.729 -1.9692 3.66781 0
M  V30 1530 H 148.262 -0.296961 3.9669 0
M  V30 1531 H 145.001 1.47064 6.3879 0
M  V30 1532 H 144.521 -0.196222 5.99479 0
M  V30 1533 H 146.2 0.163542 6.46793 0
M  V30 1534 N 146.332 -1.57332 0.0918853 0
M  V30 1535 C 147.265 -2.09499 -0.904735 0
M  V30 1536 C 148.243 -1.00479 -1.27839 0
M  V30 1537 O 149.427 -1.27954 -1.38419 0
M  V30 1538 C 146.554 -2.56931 -2.2069 0
M  V30 1539 C 145.6 -3.77579 -1.98334 0
M  V30 1540 S 146.433 -5.21317 -1.22428 0
M  V30 1541 C 147.589 -5.72097 -2.53882 0
M  V30 1542 H 147.822 -2.93705 -0.460922 0
M  V30 1543 H 145.355 -1.53923 -0.121332 0
M  V30 1544 H 147.313 -2.84917 -2.95521 0
M  V30 1545 H 145.974 -1.72956 -2.62192 0
M  V30 1546 H 145.167 -4.08824 -2.94752 0
M  V30 1547 H 144.769 -3.5007 -1.31633 0
M  V30 1548 H 147.061 -5.80168 -3.49874 0
M  V30 1549 H 148.004 -6.70654 -2.27219 0
M  V30 1550 H 148.412 -5.00012 -2.62007 0
M  V30 1551 N 147.81 0.181792 -1.56548 0
M  V30 1552 C 148.773 1.20894 -1.94724 0
M  V30 1553 C 149.773 1.37738 -0.829747 0
M  V30 1554 O 150.963 1.35323 -1.09697 0
M  V30 1555 C 148.095 2.57593 -2.23291 0
M  V30 1556 H 149.288 0.882275 -2.86629 0
M  V30 1557 H 146.841 0.423838 -1.50444 0
M  V30 1558 H 147.576 2.95291 -1.34067 0
M  V30 1559 H 147.361 2.46735 -3.04736 0
M  V30 1560 H 148.851 3.31637 -2.53785 0
M  V30 1561 N 149.288 1.51039 0.449983 0
M  V30 1562 C 150.534 1.63322 1.20223 0
M  V30 1563 C 150.867 0.34241 1.91158 0
M  V30 1564 O 150.142 -0.657344 1.83055 0
M  V30 1565 C 150.425 2.82801 2.22925 0
M  V30 1566 C 150.278 4.21823 1.56157 0
M  V30 1567 C 151.597 2.97807 3.24035 0
M  V30 1568 H 148.716 0.594407 0.435718 0
M  V30 1569 H 151.358 1.83489 0.493136 0
M  V30 1570 H 149.508 2.65738 2.834 0
M  V30 1571 H 151.18 4.50526 0.991162 0
M  V30 1572 H 149.423 4.25105 0.864172 0
M  V30 1573 H 150.094 5.01391 2.30891 0
M  V30 1574 H 152.57 3.13497 2.73603 0
M  V30 1575 H 151.446 3.82992 3.93202 0
M  V30 1576 H 151.707 2.09328 3.89402 0
M  V30 1577 N 150.766 -0.704594 1.40972 0
M  V30 1578 C 152.014 -1.46169 1.39568 0
M  V30 1579 C 152.335 -1.95 0.00253745 0
M  V30 1580 O 151.605 -1.71095 -0.954114 0
M  V30 1581 H 150.185 -0.542326 0.513704 0
M  V30 1582 H 152.847 -0.834553 1.76128 0
M  V30 1583 H 151.943 -2.32922 2.07735 0
M  V30 1584 N 152.244 -1.26651 -0.937939 0
M  V30 1585 C 153.174 -1.10993 -2.05433 0
M  V30 1586 C 154.155 -0.0142161 -1.70094 0
M  V30 1587 O 155.34 -0.186837 -1.93299 0
M  V30 1588 C 152.47 -0.745561 -3.39203 0
M  V30 1589 C 151.424 -1.79337 -3.88616 0
M  V30 1590 C 150.75 -1.28324 -5.19073 0
M  V30 1591 C 152.05 -3.19553 -4.13138 0
M  V30 1592 H 153.744 -2.0438 -2.1879 0
M  V30 1593 H 151.29 -0.984041 -1.05131 0
M  V30 1594 H 153.243 -0.622888 -4.16771 0
M  V30 1595 H 151.967 0.22401 -3.25831 0
M  V30 1596 H 150.626 -1.90477 -3.13231 0
M  V30 1597 H 150.274 -0.303414 -5.02084 0
M  V30 1598 H 149.974 -1.98369 -5.53103 0
M  V30 1599 H 151.498 -1.1733 -5.99221 0
M  V30 1600 H 152.912 -3.11471 -4.81309 0
M  V30 1601 H 151.309 -3.87218 -4.58457 0
M  V30 1602 H 152.379 -3.65368 -3.18801 0
M  V30 1603 N 153.722 1.14298 -1.08507 0
M  V30 1604 C 154.672 2.17449 -0.685569 0
M  V30 1605 C 155.656 1.58167 0.295315 0
M  V30 1606 O 156.848 1.76675 0.107172 0
M  V30 1607 C 153.977 3.43161 -0.0975318 0
M  V30 1608 C 153.063 4.09471 -1.10426 0
M  V30 1609 N 153.454 4.51089 -2.28806 0
M  V30 1610 C 151.752 4.35976 -0.940258 0
M  V30 1611 C 152.453 5.02654 -2.9277 0
M  V30 1612 N 151.429 4.96927 -2.20374 0
M  V30 1613 H 155.231 2.47369 -1.587 0
M  V30 1614 H 152.745 1.30992 -0.959936 0
M  V30 1615 H 154.742 4.16388 0.20664 0
M  V30 1616 H 153.402 3.14719 0.798872 0
M  V30 1617 H 154.413 4.44097 -2.66455 0
M  V30 1618 H 151.09 4.17386 -0.0977441 0
M  V30 1619 H 152.48 5.44723 -3.93352 0
M  V30 1620 N 155.201 0.870884 1.31352 0
M  V30 1621 C 156.447 0.492314 1.97352 0
M  V30 1622 C 156.802 -0.945174 1.67583 0
M  V30 1623 O 156.095 -1.65674 0.962423 0
M  V30 1624 C 156.289 0.687157 3.50732 0
M  V30 1625 C 156.118 2.14203 3.95407 0
M  V30 1626 C 154.888 2.78382 4.21701 0
M  V30 1627 C 157.086 3.1144 4.09279 0
M  V30 1628 N 155.068 4.14611 4.52737 0
M  V30 1629 C 156.439 4.32702 4.44037 0
M  V30 1630 C 158.494 3.07418 3.91661 0
M  V30 1631 C 157.197 5.50463 4.63015 0
M  V30 1632 C 159.223 4.24438 4.11833 0
M  V30 1633 C 158.585 5.44463 4.46923 0
M  V30 1634 H 154.684 0.229206 0.747655 0
M  V30 1635 H 157.268 1.12568 1.5886 0
M  V30 1636 H 155.439 0.083384 3.8831 0
M  V30 1637 H 157.171 0.276883 4.03752 0
M  V30 1638 H 153.926 2.29326 4.14375 0
M  V30 1639 H 154.35 4.84928 4.72413 0
M  V30 1640 H 158.992 2.15732 3.6362 0
M  V30 1641 H 156.71 6.42666 4.89904 0
M  V30 1642 H 160.296 4.2278 3.99685 0
M  V30 1643 H 159.176 6.33504 4.62214 0
M  V30 1644 N 156.679 -1.44442 0.630414 0
M  V30 1645 C 157.642 -2.29107 -0.0652523 0
M  V30 1646 C 158.642 -1.41002 -0.772995 0
M  V30 1647 O 159.832 -1.62881 -0.617692 0
M  V30 1648 C 156.964 -3.22564 -1.10296 0
M  V30 1649 H 158.157 -2.92103 0.679401 0
M  V30 1650 H 155.71 -1.51343 0.390517 0
M  V30 1651 H 156.445 -2.64416 -1.87762 0
M  V30 1652 H 156.23 -3.87491 -0.59941 0
M  V30 1653 H 157.72 -3.86167 -1.5895 0
M  V30 1654 N 158.157 -0.370918 -1.53173 0
M  V30 1655 C 159.405 0.216673 -2.00935 0
M  V30 1656 C 159.726 1.48845 -1.25977 0
M  V30 1657 O 158.996 1.92286 -0.374551 0
M  V30 1658 H 157.576 0.0830565 -0.742368 0
M  V30 1659 H 160.238 -0.49838 -1.8842 0
M  V30 1660 H 159.334 0.439893 -3.08984 0
M  V30 1661 O 159.674 1.59701 -0.240351 0
M  V30 1662 H 160.365 1.90754 0.336524 0
M  V30 END ATOM
M  V30 BEGIN BOND
M  V30 END BOND
M  V30 END CTAB
M  END
$$$$
