drugbank_target|Q56694 NADP-dependent fatty aldehyde dehydrogenase (DB03461)
 OpenBabel12092120283D

  0  0  0     0  0            999 V3000
M  V30 BEGIN CTAB
M  V30 COUNTS 7625 7711 0 0 0
M  V30 BEGIN ATOM
M  V30 1 H -0.908 1.98254 -0.117106 0
M  V30 2 N 0 1.576 0 0
M  V30 3 C 0.933 2.03868 1.02534 0
M  V30 4 C 1.911 0.928543 1.3348 0
M  V30 5 O 3.095 1.19667 1.45644 0
M  V30 6 C 0.222 2.43627 2.35294 0
M  V30 7 C -0.732 3.65373 2.2001 0
M  V30 8 S 0.101 5.13292 1.52614 0
M  V30 9 C 1.257 5.56322 2.86805 0
M  V30 10 H 1.49 2.90518 0.631377 0
M  V30 11 H -0.977 1.52953 0.210867 0
M  V30 12 H 0.981 2.67203 3.11629 0
M  V30 13 H -0.358 1.57376 2.7183 0
M  V30 14 H -1.165 3.90944 3.18086 0
M  V30 15 H -1.563 3.418 1.51819 0
M  V30 16 H 0.729 5.58782 3.83104 0
M  V30 17 H 1.672 6.56266 2.65933 0
M  V30 18 H 2.08 4.83886 2.90714 0
M  V30 19 N 1.4781 -0.272755 1.55222 0
M  V30 20 C 2.4261 -1.35705 1.88909 0
M  V30 21 C 3.4201 -1.5112 0.765456 0
M  V30 22 O 4.6261 -1.52901 0.949802 0
M  V30 23 H 1.0011 -0.453868 0.59959 0
M  V30 24 H 2.9721 -1.04544 2.79487 0
M  V30 25 C 1.7211 -2.71049 2.17779 0
M  V30 26 H 1.0441 -2.59979 3.03728 0
M  V30 27 H 2.4841 -3.45858 2.45272 0
M  V30 28 C 0.9431 -3.22165 0.985473 0
M  V30 29 O 1.4731 -4.01096 0.220233 0
M  V30 30 N -0.3209 -2.7985 0.783108 0
M  V30 31 H -0.7739 -2.15775 1.40708 0
M  V30 32 H -0.8159 -3.14397 -0.0130392 0
M  V30 33 N 2.9562 -1.48159 -0.537278 0
M  V30 34 C 4.3672 -1.49429 -1.11928 0
M  V30 35 C 4.7182 -0.26 -1.9447 0
M  V30 36 O 3.8432 0.633489 -2.0692 0
M  V30 37 C 4.4382 -2.70758 -2.03656 0
M  V30 38 C 2.9972 -2.74923 -2.57088 0
M  V30 39 C 2.1442 -2.42835 -1.3389 0
M  V30 40 H 5.0952 -1.55381 -0.322886 0
M  V30 41 H 5.1162 -2.48861 -2.87834 0
M  V30 42 H 4.6282 -3.60575 -1.43553 0
M  V30 43 H 2.7292 -1.89296 -3.20933 0
M  V30 44 H 2.8422 -3.76157 -2.9672 0
M  V30 45 H 1.2062 -1.93836 -1.65226 0
M  V30 46 H 1.9892 -3.34884 -0.755504 0
M  V30 47 N 4.4343 0.785586 -1.36625 0
M  V30 48 C 5.3663 1.90711 -1.2713 0
M  V30 49 C 6.3793 1.61688 -0.189986 0
M  V30 50 O 7.5683 1.72864 -0.445014 0
M  V30 51 C 4.6683 3.25611 -0.939713 0
M  V30 52 C 3.8413 3.82385 -2.12369 0
M  V30 53 C 2.9003 4.95732 -1.76456 0
M  V30 54 O 1.9263 5.12047 -2.48589 0
M  V30 55 N 3.1283 5.76258 -0.700492 0
M  V30 56 H 5.8933 1.99376 -2.23762 0
M  V30 57 H 3.4543 0.964041 -1.30069 0
M  V30 58 H 5.4463 3.98937 -0.680554 0
M  V30 59 H 4.0163 3.12538 -0.0624074 0
M  V30 60 H 3.2363 3.01001 -2.54543 0
M  V30 61 H 4.5243 4.17047 -2.9146 0
M  V30 62 H 3.9223 5.65609 -0.101624 0
M  V30 63 H 2.4793 6.4987 -0.501165 0
M  V30 64 N 5.9124 1.20967 1.01018 0
M  V30 65 C 7.1404 1.04956 1.78303 0
M  V30 66 C 7.5554 -0.400915 1.84494 0
M  V30 67 O 6.9124 -1.27826 1.30257 0
M  V30 68 C 6.9634 1.63403 3.22462 0
M  V30 69 O 6.6844 3.02775 3.16637 0
M  V30 70 C 8.1854 1.52432 4.16268 0
M  V30 71 H 5.4054 0.368858 0.560522 0
M  V30 72 H 7.9494 1.60193 1.27116 0
M  V30 73 H 6.1044 1.1227 3.70775 0
M  V30 74 H 6.5184 3.30626 4.07169 0
M  V30 75 H 7.9924 1.98078 5.15237 0
M  V30 76 H 8.4694 0.477875 4.36592 0
M  V30 77 H 9.0754 2.02787 3.73841 0
M  V30 78 N 7.3905 -1.2043 1.01659 0
M  V30 79 C 8.6675 -1.8548 0.621004 0
M  V30 80 C 9.0475 -1.9091 -0.900919 0
M  V30 81 O 8.3955 -1.41694 -1.79263 0
M  V30 82 C 8.6055 -3.25119 1.2688 0
M  V30 83 C 9.9535 -4.01403 1.38423 0
M  V30 84 O 10.9775 -3.34473 1.22501 0
M  V30 85 O 9.8365 -5.21265 1.64151 0
M  V30 86 H 6.9305 -0.798761 0.214266 0
M  V30 87 H 9.4765 -1.28019 1.11396 0
M  V30 88 H 8.2485 -3.15932 2.30873 0
M  V30 89 H 7.8715 -3.90212 0.762917 0
M  V30 90 N 8.8686 -0.792821 -1.36206 0
M  V30 91 C 9.8166 -0.181555 -2.3189 0
M  V30 92 C 10.8106 0.661025 -1.55971 0
M  V30 93 O 12.0166 0.555728 -1.71206 0
M  V30 94 H 8.3916 -0.0399382 -0.750939 0
M  V30 95 H 10.3626 -1.00394 -2.81005 0
M  V30 96 C 9.1116 0.666444 -3.41253 0
M  V30 97 H 8.4346 0.0274489 -3.99791 0
M  V30 98 H 9.8746 1.06076 -4.10517 0
M  V30 99 C 8.3336 1.82614 -2.83114 0
M  V30 100 O 8.8636 2.9229 -2.75553 0
M  V30 101 N 7.0696 1.63333 -2.40356 0
M  V30 102 H 6.6166 0.741217 -2.46706 0
M  V30 103 H 6.5746 2.41087 -2.01803 0
M  V30 104 N 10.3467 1.47872 -0.545128 0
M  V30 105 C 11.5927 2.02793 -0.0166104 0
M  V30 106 C 11.9257 1.41987 1.32489 0
M  V30 107 O 11.2007 0.571045 1.85928 0
M  V30 108 C 11.4837 3.59989 0.0893294 0
M  V30 109 C 11.3367 4.3125 -1.27841 0
M  V30 110 C 12.6557 4.32606 0.808724 0
M  V30 111 H 9.7747 0.736962 -0.00751035 0
M  V30 112 H 12.4167 1.76433 -0.705085 0
M  V30 113 H 10.5667 3.82579 0.675681 0
M  V30 114 H 12.2387 4.20035 -1.90704 0
M  V30 115 H 10.4817 3.92076 -1.85632 0
M  V30 116 H 11.1527 5.39736 -1.15713 0
M  V30 117 H 13.6287 4.14936 0.310992 0
M  V30 118 H 12.5047 5.42251 0.851782 0
M  V30 119 H 12.7657 4.00963 1.86229 0
M  V30 120 N 11.8248 0.280983 1.55075 0
M  V30 121 C 13.0718 -0.334115 1.99725 0
M  V30 122 C 13.3998 -1.5542 1.1694 0
M  V30 123 O 12.6548 -1.94361 0.228531 0
M  V30 124 C 12.9538 -0.754656 3.49342 0
M  V30 125 C 12.6198 0.361445 4.49449 0
M  V30 126 C 11.2818 0.667893 4.76542 0
M  V30 127 C 13.6338 1.11322 5.09173 0
M  V30 128 C 10.9618 1.7296 5.60626 0
M  V30 129 C 13.3138 2.1647 5.9441 0
M  V30 130 C 11.9778 2.47742 6.19822 0
M  V30 131 H 11.2478 -0.122261 0.730844 0
M  V30 132 H 13.8948 0.395917 1.87363 0
M  V30 133 H 12.1998 -1.56446 3.5921 0
M  V30 134 H 13.8968 -1.24142 3.813 0
M  V30 135 H 10.4868 0.112481 4.28452 0
M  V30 136 H 14.6708 0.88973 4.8826 0
M  V30 137 H 9.9268 1.97684 5.78559 0
M  V30 138 H 14.1008 2.75193 6.3972 0
M  V30 139 H 11.7278 3.30145 6.84769 0
M  V30 140 N 13.3029 -1.57598 0.00835791 0
M  V30 141 C 14.5329 -1.94931 -0.684496 0
M  V30 142 C 14.9409 -0.882233 -1.67372 0
M  V30 143 O 14.2839 0.146621 -1.83114 0
M  V30 144 C 14.3459 -3.283 -1.4649 0
M  V30 145 C 14.0099 -4.52548 -0.63634 0
M  V30 146 C 15.0069 -5.19839 0.0795586 0
M  V30 147 C 12.6919 -4.98942 -0.579849 0
M  V30 148 C 14.6859 -6.3183 0.840843 0
M  V30 149 C 12.3729 -6.10819 0.185155 0
M  V30 150 C 13.3709 -6.77121 0.894227 0
M  V30 151 O 13.0589 -7.86853 1.64673 0
M  V30 152 H 12.7909 -0.647249 -0.19505 0
M  V30 153 H 15.3449 -2.05318 0.0581272 0
M  V30 154 H 13.5749 -3.14345 -2.2522 0
M  V30 155 H 15.2639 -3.50685 -2.04389 0
M  V30 156 H 16.0299 -4.84979 0.0451202 0
M  V30 157 H 11.9089 -4.47155 -1.1213 0
M  V30 158 H 15.4529 -6.83513 1.39483 0
M  V30 159 H 11.3499 -6.4512 0.221384 0
M  V30 160 H 12.1179 -8.03412 1.56432 0
M  V30 161 N 14.781 0.264519 -1.55364 0
M  V30 162 C 15.744 1.31046 -1.88042 0
M  V30 163 C 16.744 1.41943 -0.755569 0
M  V30 164 O 17.934 1.40947 -1.02369 0
M  V30 165 C 15.066 2.69067 -2.09323 0
M  V30 166 H 16.259 1.03297 -2.81549 0
M  V30 167 H 13.812 0.502989 -1.47986 0
M  V30 168 H 14.547 3.01982 -1.18226 0
M  V30 169 H 14.332 2.62542 -2.91229 0
M  V30 170 H 15.822 3.44623 -2.35848 0
M  V30 171 N 16.2591 1.48442 0.529413 0
M  V30 172 C 17.4871 1.60151 1.30994 0
M  V30 173 C 17.9021 0.261985 1.86973 0
M  V30 174 O 17.2591 -0.748805 1.66431 0
M  V30 175 C 17.3101 2.64854 2.46038 0
M  V30 176 O 17.0311 3.93608 1.92365 0
M  V30 177 C 18.5321 2.87007 3.37849 0
M  V30 178 H 15.7521 0.539971 0.398338 0
M  V30 179 H 18.2961 1.94273 0.638597 0
M  V30 180 H 16.4511 2.33589 3.09055 0
M  V30 181 H 16.8651 4.51055 2.67675 0
M  V30 182 H 18.3391 3.64068 4.14919 0
M  V30 183 H 18.8161 1.95852 3.93114 0
M  V30 184 H 19.4221 3.19579 2.80623 0
M  V30 185 N 17.7372 -0.778329 1.37039 0
M  V30 186 C 18.6852 -1.91278 1.32345 0
M  V30 187 C 19.6792 -1.68051 0.213331 0
M  V30 188 O 20.8852 -1.75922 0.38098 0
M  V30 189 H 17.2602 -0.628909 0.412283 0
M  V30 190 H 19.2312 -1.92355 2.28127 0
M  V30 191 C 17.9802 -3.28455 1.14073 0
M  V30 192 H 17.3032 -3.46901 1.98746 0
M  V30 193 H 18.7432 -4.08152 1.14837 0
M  V30 194 C 17.2022 -3.36548 -0.154015 0
M  V30 195 O 17.7322 -3.85186 -1.13993 0
M  V30 196 N 15.9382 -2.89894 -0.202475 0
M  V30 197 H 15.4852 -2.50504 0.600476 0
M  V30 198 H 15.4432 -2.9569 -1.06841 0
M  V30 199 N 19.2153 -1.21501 -1.00376 0
M  V30 200 C 20.1783 -0.976927 -2.07337 0
M  V30 201 C 21.1783 0.0525322 -1.60714 0
M  V30 202 O 22.3683 -0.184869 -1.73216 0
M  V30 203 C 19.5003 -0.473423 -3.37597 0
M  V30 204 H 20.6933 -1.92587 -2.29892 0
M  V30 205 H 18.2463 -1.03217 -1.17371 0
M  V30 206 H 18.9813 0.480379 -3.20722 0
M  V30 207 H 18.7663 -1.216 -3.72768 0
M  V30 208 H 20.2563 -0.32675 -4.1632 0
M  V30 209 N 20.6934 1.19889 -1.02296 0
M  V30 210 C 21.9404 1.8942 -0.715972 0
M  V30 211 C 22.2684 1.79251 0.754944 0
M  V30 212 O 21.5234 1.17526 1.56481 0
M  V30 213 C 21.8224 3.39883 -1.10518 0
M  V30 214 C 21.4884 3.70254 -2.57337 0
M  V30 215 C 20.1504 3.78254 -2.97452 0
M  V30 216 C 22.5024 3.84052 -3.52354 0
M  V30 217 C 19.8304 3.97514 -4.31509 0
M  V30 218 C 22.1824 4.04824 -4.86108 0
M  V30 219 C 20.8464 4.11054 -5.25919 0
M  V30 220 H 20.1164 0.693138 -0.261993 0
M  V30 221 H 22.7634 1.42012 -1.28472 0
M  V30 222 H 21.0684 3.8915 -0.454953 0
M  V30 223 H 22.7654 3.9199 -0.845261 0
M  V30 224 H 19.3554 3.64632 -2.25258 0
M  V30 225 H 23.5394 3.77221 -3.22518 0
M  V30 226 H 18.7954 4.00574 -4.61898 0
M  V30 227 H 22.9694 4.14442 -5.59653 0
M  V30 228 H 20.5964 4.2573 -6.29808 0
M  V30 229 N 22.1715 0.800033 1.35784 0
M  V30 230 C 23.3995 0.389606 2.03199 0
M  V30 231 C 23.8145 -0.997375 1.60306 0
M  V30 232 O 23.1715 -1.64154 0.797481 0
M  V30 233 C 23.2225 0.455855 3.58614 0
M  V30 234 O 22.9435 1.78815 3.99946 0
M  V30 235 C 24.4445 0.0374032 4.43284 0
M  V30 236 H 21.6645 0.159132 0.651857 0
M  V30 237 H 24.2085 1.08183 1.73541 0
M  V30 238 H 22.3635 -0.188057 3.86943 0
M  V30 239 H 22.7775 1.74636 4.94573 0
M  V30 240 H 24.2515 0.134882 5.51835 0
M  V30 241 H 24.7285 -1.01651 4.27275 0
M  V30 242 H 25.3345 0.654215 4.20238 0
M  V30 243 N 23.6496 -1.47581 0.552962 0
M  V30 244 C 24.8976 -2.02082 0.0272703 0
M  V30 245 C 25.2186 -1.4301 -1.32563 0
M  V30 246 O 24.4886 -0.603745 -1.86365 0
M  V30 247 H 23.0686 -0.746966 0.00709182 0
M  V30 248 H 25.7306 -1.81033 0.722008 0
M  V30 249 H 24.8266 -3.12034 -0.0639951 0
M  V30 250 N 25.1277 -0.289203 -1.54924 0
M  V30 251 C 26.0377 0.601863 -2.26748 0
M  V30 252 C 27.0537 1.15834 -1.2984 0
M  V30 253 O 28.2297 1.18564 -1.62802 0
M  V30 254 C 25.2947 1.76299 -2.98529 0
M  V30 255 C 24.3557 1.24178 -4.10948 0
M  V30 256 C 23.5887 2.34757 -4.79296 0
M  V30 257 O 23.8117 3.54411 -4.46933 0
M  V30 258 O 22.7457 2.02115 -5.66951 0
M  V30 259 H 26.5717 0.0195879 -3.03694 0
M  V30 260 H 24.1567 -0.0560868 -1.49295 0
M  V30 261 H 26.0387 2.43973 -3.43592 0
M  V30 262 H 24.7137 2.33209 -2.24488 0
M  V30 263 H 23.6207 0.531104 -3.70311 0
M  V30 264 H 24.9537 0.718252 -4.86931 0
M  V30 265 N 26.6058 1.57591 -0.0167156 0
M  V30 266 C 27.5688 2.08393 0.954204 0
M  V30 267 C 28.5688 0.996531 1.26198 0
M  V30 268 O 29.7588 1.25858 1.20438 0
M  V30 269 C 26.8908 2.5394 2.27436 0
M  V30 270 H 28.0838 2.95455 0.514451 0
M  V30 271 H 25.6368 1.54582 0.231089 0
M  V30 272 H 26.3718 1.70171 2.76066 0
M  V30 273 H 26.1568 3.33371 2.06412 0
M  V30 274 H 27.6468 2.93512 2.97053 0
M  V30 275 N 28.0839 -0.256276 1.55502 0
M  V30 276 C 29.0139 -1.32102 1.92539 0
M  V30 277 C 29.9949 -1.50684 0.789194 0
M  V30 278 O 31.1799 -1.63449 1.04872 0
M  V30 279 C 28.3099 -2.67752 2.21192 0
M  V30 280 C 27.2639 -2.63878 3.36975 0
M  V30 281 C 26.5899 -4.03236 3.51147 0
M  V30 282 C 27.8899 -2.21682 4.72921 0
M  V30 283 H 29.5839 -1.01351 2.81724 0
M  V30 284 H 27.1299 -0.486105 1.35547 0
M  V30 285 H 29.0829 -3.42365 2.45691 0
M  V30 286 H 27.8069 -3.0012 1.28824 0
M  V30 287 H 26.4659 -1.91722 3.12471 0
M  V30 288 H 26.1139 -4.32854 2.56216 0
M  V30 289 H 25.8139 -4.01535 4.29003 0
M  V30 290 H 27.3379 -4.79563 3.77957 0
M  V30 291 H 28.7519 -2.86023 4.96854 0
M  V30 292 H 27.1489 -2.3111 5.53812 0
M  V30 293 H 28.2189 -1.16833 4.70615 0
M  V30 294 N 29.562 -1.4872 -0.521534 0
M  V30 295 C 30.973 -1.50607 -1.10337 0
M  V30 296 C 31.324 -0.280612 -1.94183 0
M  V30 297 O 30.449 0.611507 -2.0758 0
M  V30 298 C 31.044 -2.72903 -2.00772 0
M  V30 299 C 29.603 -2.77634 -2.54158 0
M  V30 300 C 28.75 -2.44241 -1.31307 0
M  V30 301 H 31.701 -1.55714 -0.306388 0
M  V30 302 H 31.722 -2.519 -2.85178 0
M  V30 303 H 31.234 -3.62077 -1.39721 0
M  V30 304 H 29.335 -1.92689 -3.18907 0
M  V30 305 H 29.448 -3.79283 -2.92714 0
M  V30 306 H 27.812 -1.95577 -1.63161 0
M  V30 307 H 28.595 -3.35666 -0.719943 0
M  V30 308 N 31.0401 0.771051 -1.3745 0
M  V30 309 C 31.9701 1.89827 -1.3597 0
M  V30 310 C 32.9511 1.68562 -0.228216 0
M  V30 311 O 34.1361 1.8941 -0.428675 0
M  V30 312 C 31.2661 3.2712 -1.16662 0
M  V30 313 C 30.2201 3.6295 -2.2683 0
M  V30 314 C 29.5461 4.98791 -1.92644 0
M  V30 315 C 30.8461 3.69627 -3.69017 0
M  V30 316 H 32.5401 1.91323 -2.30295 0
M  V30 317 H 30.0861 0.919082 -1.10855 0
M  V30 318 H 32.0391 4.05615 -1.14256 0
M  V30 319 H 30.7631 3.26059 -0.187926 0
M  V30 320 H 29.4221 2.86763 -2.28392 0
M  V30 321 H 29.0701 4.94271 -0.933021 0
M  V30 322 H 28.7701 5.23733 -2.66416 0
M  V30 323 H 30.2941 5.79685 -1.91826 0
M  V30 324 H 31.7081 4.38273 -3.69581 0
M  V30 325 H 30.1051 4.06067 -4.41848 0
M  V30 326 H 31.1751 2.70273 -4.02592 0
M  V30 327 N 32.5182 1.22032 0.997298 0
M  V30 328 C 33.4812 0.987909 2.06816 0
M  V30 329 C 34.4812 -0.0440084 1.6074 0
M  V30 330 O 35.6712 0.194053 1.73116 0
M  V30 331 C 32.8032 0.49132 3.37341 0
M  V30 332 H 33.9962 1.93803 2.28868 0
M  V30 333 H 31.5492 1.03838 1.16822 0
M  V30 334 H 32.2842 -0.463364 3.20973 0
M  V30 335 H 32.0692 1.23575 3.72118 0
M  V30 336 H 33.5592 0.348824 4.16141 0
M  V30 337 N 33.9963 -1.19345 1.0293 0
M  V30 338 C 35.2433 -1.89038 0.726008 0
M  V30 339 C 35.5713 -1.79649 -0.745427 0
M  V30 340 O 34.8263 -1.18354 -1.55855 0
M  V30 341 C 35.1253 -3.39292 1.12319 0
M  V30 342 C 34.7913 -3.68885 2.59297 0
M  V30 343 C 33.4533 -3.76671 2.99453 0
M  V30 344 C 35.8053 -3.82178 3.54386 0
M  V30 345 C 33.1333 -3.9522 4.33611 0
M  V30 346 C 35.4853 -4.0224 4.88248 0
M  V30 347 C 34.1493 -4.08259 5.28092 0
M  V30 348 H 33.4193 -0.691739 0.265665 0
M  V30 349 H 36.0663 -1.41328 1.29223 0
M  V30 350 H 34.3713 -3.88903 0.475584 0
M  V30 351 H 36.0683 -3.91536 0.866037 0
M  V30 352 H 32.6583 -3.63433 2.27189 0
M  V30 353 H 36.8423 -3.75505 3.24514 0
M  V30 354 H 32.0983 -3.98119 4.64016 0
M  V30 355 H 36.2723 -4.11468 5.61843 0
M  V30 356 H 33.8993 -4.22384 6.32057 0
M  V30 357 N 35.4744 -0.807222 -1.35358 0
M  V30 358 C 36.8854 -0.44876 -1.81226 0
M  V30 359 C 37.2364 1.02929 -1.67033 0
M  V30 360 O 36.3614 1.79991 -1.20133 0
M  V30 361 C 36.9564 -0.807774 -3.2903 0
M  V30 362 C 35.5154 -0.501901 -3.73039 0
M  V30 363 C 34.6624 -1.03304 -2.57339 0
M  V30 364 H 37.6134 -0.998808 -1.23327 0
M  V30 365 H 37.6344 -0.10554 -3.80354 0
M  V30 366 H 37.1464 -1.88357 -3.39328 0
M  V30 367 H 35.2474 0.565128 -3.68289 0
M  V30 368 H 35.3604 -1.03497 -4.67787 0
M  V30 369 H 33.7244 -0.455339 -2.50597 0
M  V30 370 H 34.5074 -2.11496 -2.70415 0
M  V30 371 N 36.9525 1.47285 -0.560781 0
M  V30 372 C 38.1985 2.02764 -0.0381184 0
M  V30 373 C 38.5315 1.43384 1.30976 0
M  V30 374 O 37.8065 0.590733 1.85312 0
M  V30 375 C 38.0895 3.60064 0.0511427 0
M  V30 376 C 37.9425 4.2987 -1.32408 0
M  V30 377 C 39.2615 4.33439 0.762795 0
M  V30 378 H 36.3805 0.736841 -0.0153264 0
M  V30 379 H 39.0225 1.75675 -0.723759 0
M  V30 380 H 37.1725 3.83274 0.635065 0
M  V30 381 H 38.8445 4.17989 -1.95148 0
M  V30 382 H 37.0875 3.90085 -1.8978 0
M  V30 383 H 37.7585 5.38478 -1.21431 0
M  V30 384 H 40.2345 4.15243 0.266965 0
M  V30 385 H 39.1105 5.43124 0.794221 0
M  V30 386 H 39.3715 4.02915 1.81966 0
M  V30 387 N 38.4306 0.297415 1.54768 0
M  V30 388 C 39.3806 -0.595275 2.20092 0
M  V30 389 C 40.3646 -1.10163 1.17273 0
M  V30 390 O 41.5566 -1.043 1.43006 0
M  V30 391 C 38.6856 -1.7684 2.94249 0
M  V30 392 C 37.7716 -1.27818 4.0438 0
M  V30 393 N 38.1626 -0.505695 5.03266 0
M  V30 394 C 36.4606 -1.55923 4.17857 0
M  V30 395 C 37.1616 -0.245094 5.81183 0
M  V30 396 N 36.1376 -0.823881 5.3732 0
M  V30 397 H 39.9396 0.00250837 2.939 0
M  V30 398 H 37.4536 0.102007 1.62079 0
M  V30 399 H 39.4506 -2.41944 3.39513 0
M  V30 400 H 38.1106 -2.36992 2.21957 0
M  V30 401 H 39.1216 -0.150928 5.1768 0
M  V30 402 H 35.7986 -2.16849 3.56767 0
M  V30 403 H 37.1886 0.375084 6.70852 0
M  V30 404 N 39.9087 -1.5758 0.0250728 0
M  V30 405 C 41.1367 -1.9593 -0.664747 0
M  V30 406 C 41.5517 -0.901352 -1.65895 0
M  V30 407 O 40.9087 0.117255 -1.82123 0
M  V30 408 C 40.9597 -3.34342 -1.37468 0
M  V30 409 O 40.6807 -4.36079 -0.420324 0
M  V30 410 C 42.1817 -3.873 -2.1567 0
M  V30 411 H 39.4017 -0.645405 -0.183557 0
M  V30 412 H 41.9457 -2.04329 0.0836372 0
M  V30 413 H 40.1007 -3.27175 -2.0745 0
M  V30 414 H 40.5147 -5.16297 -0.923991 0
M  V30 415 H 41.9887 -4.86504 -2.60803 0
M  V30 416 H 42.4657 -3.21331 -2.99405 0
M  V30 417 H 43.0717 -3.97723 -1.50654 0
M  V30 418 N 41.3868 0.248026 -1.55636 0
M  V30 419 C 42.2968 1.32859 -1.93354 0
M  V30 420 C 43.3128 1.52719 -0.833838 0
M  V30 421 O 44.4888 1.66363 -1.13513 0
M  V30 422 C 41.5538 2.66337 -2.21958 0
M  V30 423 C 40.6148 2.55008 -3.45354 0
M  V30 424 C 39.8478 3.82121 -3.72584 0
M  V30 425 O 40.0708 4.83951 -3.01907 0
M  V30 426 O 39.0048 3.80822 -4.6611 0
M  V30 427 H 42.8308 1.03862 -2.85388 0
M  V30 428 H 40.4158 0.448686 -1.42503 0
M  V30 429 H 42.2978 3.45216 -2.4167 0
M  V30 430 H 40.9728 2.95068 -1.33103 0
M  V30 431 H 39.8798 1.7442 -3.30951 0
M  V30 432 H 41.2128 2.31222 -4.34508 0
M  V30 433 N 42.8649 1.48995 0.513639 0
M  V30 434 C 44.1109 1.58076 1.27042 0
M  V30 435 C 44.4439 0.261026 1.92438 0
M  V30 436 O 43.7189 -0.734393 1.80103 0
M  V30 437 C 44.0019 2.73091 2.34719 0
M  V30 438 C 43.8549 4.14821 1.73907 0
M  V30 439 C 45.1739 2.83796 3.36375 0
M  V30 440 H 42.2929 0.575391 0.460536 0
M  V30 441 H 44.9349 1.81232 0.570516 0
M  V30 442 H 43.0849 2.53479 2.94416 0
M  V30 443 H 44.7569 4.45917 1.18135 0
M  V30 444 H 42.9999 4.21058 1.0437 0
M  V30 445 H 43.6709 4.91147 2.51949 0
M  V30 446 H 46.1469 3.01611 2.86653 0
M  V30 447 H 45.0229 3.65971 4.09093 0
M  V30 448 H 45.2839 1.92624 3.9793 0
M  V30 449 N 44.343 -0.763751 1.37857 0
M  V30 450 C 45.253 -1.90817 1.36478 0
M  V30 451 C 46.269 -1.71997 0.263248 0
M  V30 452 O 47.445 -1.95095 0.499979 0
M  V30 453 C 44.51 -3.2605 1.17864 0
M  V30 454 C 43.571 -3.57467 2.3773 0
M  V30 455 C 42.804 -4.86249 2.19995 0
M  V30 456 O 43.027 -5.57884 1.18836 0
M  V30 457 O 41.961 -5.16911 3.08361 0
M  V30 458 H 45.787 -1.94933 2.32884 0
M  V30 459 H 43.372 -0.907619 1.1867 0
M  V30 460 H 45.254 -4.06924 1.09504 0
M  V30 461 H 43.929 -3.22769 0.245372 0
M  V30 462 H 42.836 -2.76796 2.51664 0
M  V30 463 H 44.169 -3.655 3.29652 0
M  V30 464 N 45.8211 -1.22559 -0.990812 0
M  V30 465 C 47.0671 -1.05297 -1.73322 0
M  V30 466 C 47.4001 0.410655 -1.89808 0
M  V30 467 O 46.6751 1.30439 -1.44277 0
M  V30 468 C 46.9581 -1.76713 -3.13759 0
M  V30 469 C 46.8111 -3.30684 -3.04907 0
M  V30 470 C 48.1301 -1.52121 -4.12974 0
M  V30 471 H 45.2491 -0.38392 -0.629106 0
M  V30 472 H 47.8911 -1.50926 -1.15418 0
M  V30 473 H 46.0411 -1.37924 -3.63193 0
M  V30 474 H 47.7131 -3.7893 -2.63077 0
M  V30 475 H 45.9561 -3.60253 -2.41661 0
M  V30 476 H 46.6271 -3.75833 -4.04294 0
M  V30 477 H 49.1031 -1.85819 -3.72304 0
M  V30 478 H 47.9791 -2.04582 -5.0935 0
M  V30 479 H 48.2401 -0.454257 -4.3976 0
M  V30 480 N 47.2992 1.18797 -1.03562 0
M  V30 481 C 48.2472 2.24297 -0.615905 0
M  V30 482 C 49.2412 1.65643 0.354808 0
M  V30 483 O 50.4472 1.78618 0.22265 0
M  V30 484 H 46.8222 0.729909 -0.180934 0
M  V30 485 H 48.7932 2.5701 -1.5162 0
M  V30 486 C 47.5422 3.47698 0.0104735 0
M  V30 487 H 46.8652 3.93125 -0.727509 0
M  V30 488 H 48.3052 4.23159 0.266995 0
M  V30 489 C 46.7642 3.12489 1.25905 0
M  V30 490 O 47.2942 3.25761 2.35038 0
M  V30 491 N 45.5002 2.6686 1.15039 0
M  V30 492 H 45.0472 2.56261 0.262328 0
M  V30 493 H 45.0052 2.43674 1.98672 0
M  V30 494 N 48.7773 0.814389 1.34928 0
M  V30 495 C 49.7093 0.187834 2.28429 0
M  V30 496 C 50.7223 -0.617374 1.5064 0
M  V30 497 O 51.9113 -0.448454 1.72775 0
M  V30 498 C 49.0113 -0.755962 3.30361 0
M  V30 499 C 48.1843 0.00456686 4.374 0
M  V30 500 C 47.2433 -0.858876 5.19143 0
M  V30 501 O 46.2693 -0.306968 5.68372 0
M  V30 502 N 47.4713 -2.17988 5.38016 0
M  V30 503 H 50.2363 0.991105 2.82838 0
M  V30 504 H 47.7973 0.670561 1.4736 0
M  V30 505 H 49.7893 -1.338 3.81942 0
M  V30 506 H 48.3593 -1.46001 2.7641 0
M  V30 507 H 47.5793 0.767865 3.86649 0
M  V30 508 H 48.8673 0.528422 5.06049 0
M  V30 509 H 48.2653 -2.65212 4.99679 0
M  V30 510 H 46.8223 -2.71098 5.92747 0
M  V30 511 N 50.2554 -1.46986 0.568584 0
M  V30 512 C 51.2184 -2.28624 -0.162366 0
M  V30 513 C 52.2184 -1.37596 -0.832103 0
M  V30 514 O 53.4084 -1.60115 -0.68622 0
M  V30 515 C 50.5404 -3.17596 -1.23878 0
M  V30 516 H 51.7334 -2.94722 0.554899 0
M  V30 517 H 49.2864 -1.52863 0.325976 0
M  V30 518 H 50.0214 -2.56214 -1.98808 0
M  V30 519 H 49.8064 -3.846 -0.763219 0
M  V30 520 H 51.2964 -3.79078 -1.75185 0
M  V30 521 N 51.7335 -0.305618 -1.54608 0
M  V30 522 C 52.6965 0.555591 -2.22364 0
M  V30 523 C 53.6965 1.05768 -1.21119 0
M  V30 524 O 54.8865 0.952972 -1.45822 0
M  V30 525 C 52.0185 1.76974 -2.91364 0
M  V30 526 H 53.2115 -0.0364572 -2.99878 0
M  V30 527 H 50.7645 -0.0565007 -1.56198 0
M  V30 528 H 51.4995 2.40151 -2.17941 0
M  V30 529 H 51.2845 1.41732 -3.65588 0
M  V30 530 H 52.7745 2.38148 -3.43038 0
M  V30 531 N 53.2116 1.57565 -0.0334293 0
M  V30 532 C 54.4396 1.9628 0.654347 0
M  V30 533 C 54.8546 0.910138 1.65414 0
M  V30 534 O 54.2116 -0.107595 1.82183 0
M  V30 535 C 54.2626 3.35067 1.35693 0
M  V30 536 O 53.9836 4.36296 0.397191 0
M  V30 537 C 55.4846 3.88439 2.13613 0
M  V30 538 H 52.7046 0.646369 0.180132 0
M  V30 539 H 55.2486 2.04282 -0.0944721 0
M  V30 540 H 53.4036 3.2827 2.05712 0
M  V30 541 H 53.8176 5.1678 0.896597 0
M  V30 542 H 55.2916 4.8788 2.58219 0
M  V30 543 H 55.7686 3.22914 2.97696 0
M  V30 544 H 56.3746 3.98516 1.48543 0
M  V30 545 N 54.6897 -0.239769 1.55765 0
M  V30 546 C 55.6527 -1.28038 1.90103 0
M  V30 547 C 56.6527 -1.40723 0.778055 0
M  V30 548 O 57.8427 -1.39301 1.04599 0
M  V30 549 C 54.9747 -2.65702 2.13577 0
M  V30 550 H 56.1677 -0.988048 2.83157 0
M  V30 551 H 53.7207 -0.479382 1.48767 0
M  V30 552 H 54.4557 -3.00063 1.23015 0
M  V30 553 H 54.2407 -2.57875 2.95369 0
M  V30 554 H 55.7307 -3.40828 2.41301 0
M  V30 555 N 56.1678 -1.49265 -0.50573 0
M  V30 556 C 57.1308 -1.65075 -1.59006 0
M  V30 557 C 58.1308 -0.522768 -1.52065 0
M  V30 558 O 59.3208 -0.789117 -1.55302 0
M  V30 559 C 56.4528 -1.64369 -2.98656 0
M  V30 560 H 57.6458 -2.61784 -1.46319 0
M  V30 561 H 55.1988 -1.38226 -0.729616 0
M  V30 562 H 55.9338 -0.692272 -3.16825 0
M  V30 563 H 55.7188 -2.46282 -3.05103 0
M  V30 564 H 57.2088 -1.78674 -3.77446 0
M  V30 565 N 57.6459 0.756429 -1.3826 0
M  V30 566 C 58.6089 1.85176 -1.35065 0
M  V30 567 C 59.6089 1.58818 -0.251703 0
M  V30 568 O 60.7989 1.66615 -0.508433 0
M  V30 569 C 57.9309 3.22596 -1.10201 0
M  V30 570 H 59.1239 1.89417 -2.3251 0
M  V30 571 H 56.6769 0.95783 -1.23512 0
M  V30 572 H 57.4119 3.24025 -0.133504 0
M  V30 573 H 57.1969 3.43122 -1.89762 0
M  V30 574 H 58.6869 4.02673 -1.10654 0
M  V30 575 N 59.124 1.23083 0.984299 0
M  V30 576 C 60.071 1.00854 2.07598 0
M  V30 577 C 61.041 -0.0726709 1.65941 0
M  V30 578 O 62.226 0.0786535 1.90638 0
M  V30 579 C 59.366 0.601645 3.39815 0
M  V30 580 C 58.479 1.75456 3.94765 0
M  V30 581 C 57.614 1.29482 5.15177 0
M  V30 582 C 56.653 2.41873 5.62284 0
M  V30 583 N 55.79 1.96885 6.73929 0
M  V30 584 H 60.63 1.943 2.25946 0
M  V30 585 H 58.167 0.968001 1.10762 0
M  V30 586 H 60.125 0.346854 4.15756 0
M  V30 587 H 58.755 -0.295803 3.21442 0
M  V30 588 H 57.807 2.12346 3.15616 0
M  V30 589 H 59.119 2.59965 4.25699 0
M  V30 590 H 58.273 0.997923 5.98437 0
M  V30 591 H 57.012 0.420046 4.85888 0
M  V30 592 H 56.017 2.72342 4.77608 0
M  V30 593 H 57.242 3.29881 5.93595 0
M  V30 594 H 55.188 1.11782 6.46406 0
M  V30 595 H 55.105 2.74956 7.04227 0
M  V30 596 H 56.373 1.70289 7.60672 0
M  V30 597 N 60.6021 -1.18246 1.0419 0
M  V30 598 C 61.8481 -1.88536 0.747122 0
M  V30 599 C 62.1811 -1.80223 -0.723409 0
M  V30 600 O 61.4561 -1.20337 -1.52804 0
M  V30 601 C 61.7391 -3.38968 1.21544 0
M  V30 602 C 61.5921 -3.56084 2.74816 0
M  V30 603 C 62.9111 -4.32648 0.806482 0
M  V30 604 H 60.0301 -0.684619 0.272883 0
M  V30 605 H 62.6721 -1.39113 1.29413 0
M  V30 606 H 60.8221 -3.8119 0.750081 0
M  V30 607 H 62.4941 -3.22946 3.29399 0
M  V30 608 H 60.7371 -2.98699 3.14582 0
M  V30 609 H 61.4081 -4.61639 3.02644 0
M  V30 610 H 63.8841 -3.98211 1.20695 0
M  V30 611 H 62.7601 -5.36462 1.1619 0
M  V30 612 H 63.0211 -4.41146 -0.29029 0
M  V30 613 N 62.0802 -0.821533 -1.34494 0
M  V30 614 C 63.0432 -0.247847 -2.27856 0
M  V30 615 C 64.0432 0.573453 -1.50227 0
M  V30 616 O 65.2332 0.389759 -1.69784 0
M  V30 617 C 62.3652 0.652698 -3.34593 0
M  V30 618 H 63.5582 -1.07146 -2.80107 0
M  V30 619 H 61.1112 -0.593291 -1.44602 0
M  V30 620 H 61.8462 1.49943 -2.87555 0
M  V30 621 H 61.6312 0.065292 -3.92046 0
M  V30 622 H 63.1212 1.04793 -4.04238 0
M  V30 623 N 63.5583 1.46682 -0.576371 0
M  V30 624 C 64.9743 1.57822 -0.237562 0
M  V30 625 C 65.1743 1.57237 1.26011 0
M  V30 626 O 64.2303 1.48596 2.04146 0
M  V30 627 C 65.5433 2.87499 -0.881168 0
M  V30 628 C 67.0913 3.01119 -0.85417 0
M  V30 629 C 67.5663 4.33524 -1.4772 0
M  V30 630 N 69.0573 4.40207 -1.44125 0
M  V30 631 C 69.7923 5.4126 -1.89276 0
M  V30 632 N 69.2883 6.49021 -2.42371 0
M  V30 633 N 71.0813 5.32422 -1.80231 0
M  V30 634 H 63.2323 1.45306 -1.54919 0
M  V30 635 H 65.4953 0.692733 -0.647167 0
M  V30 636 H 65.2013 2.9372 -1.93447 0
M  V30 637 H 65.0753 3.75224 -0.385592 0
M  V30 638 H 67.4623 2.94485 0.190491 0
M  V30 639 H 67.5433 2.14887 -1.3877 0
M  V30 640 H 67.1873 4.40916 -2.52103 0
M  V30 641 H 67.1173 5.1852 -0.918947 0
M  V30 642 H 69.6083 3.62931 -1.05307 0
M  V30 643 H 69.9213 7.2233 -2.74698 0
M  V30 644 H 68.2663 6.49858 -2.46393 0
M  V30 645 H 71.4573 4.47137 -1.38514 0
M  V30 646 H 71.6303 6.11034 -2.15735 0
M  V30 647 N 65.0364 0.313813 1.54444 0
M  V30 648 C 66.3134 -0.345447 1.92525 0
M  V30 649 C 66.6934 -1.70667 1.24242 0
M  V30 650 O 66.0414 -2.25273 0.382654 0
M  V30 651 C 66.2514 -0.44737 3.46121 0
M  V30 652 C 67.5994 -0.712238 4.18584 0
M  V30 653 O 68.6234 -0.530678 3.52225 0
M  V30 654 O 67.4824 -1.06183 5.36085 0
M  V30 655 H 64.5764 -0.195407 0.803583 0
M  V30 656 H 67.1224 0.362813 1.65776 0
M  V30 657 H 65.8944 0.509043 3.87975 0
M  V30 658 H 65.5174 -1.20359 3.78945 0
M  V30 659 N 66.5145 -1.57545 0.0417849 0
M  V30 660 C 67.7615 -1.92317 -0.634082 0
M  V30 661 C 68.0895 -0.919334 -1.71402 0
M  V30 662 O 67.3445 0.0698253 -1.95575 0
M  V30 663 C 67.6435 -3.33794 -1.27735 0
M  V30 664 C 67.3095 -4.49716 -0.326543 0
M  V30 665 C 65.9715 -4.81156 -0.0648814 0
M  V30 666 C 68.3235 -5.20182 0.325623 0
M  V30 667 C 65.6515 -5.80414 0.856539 0
M  V30 668 C 68.0035 -6.20424 1.23518 0
M  V30 669 C 66.6675 -6.50298 1.5056 0
M  V30 670 H 65.9375 -0.703736 -0.232027 0
M  V30 671 H 68.5845 -1.91205 0.106259 0
M  V30 672 H 66.8895 -3.31228 -2.09274 0
M  V30 673 H 68.5865 -3.57975 -1.80707 0
M  V30 674 H 65.1765 -4.25176 -0.540665 0
M  V30 675 H 69.3605 -4.96112 0.136546 0
M  V30 676 H 64.6165 -6.019 1.07363 0
M  V30 677 H 68.7905 -6.74141 1.74664 0
M  V30 678 H 66.4175 -7.27025 2.22123 0
M  V30 679 N 67.9926 0.231505 -1.5589 0
M  V30 680 C 69.4086 0.580748 -1.48659 0
M  V30 681 C 69.6086 1.87617 -0.73498 0
M  V30 682 O 68.6646 2.51046 -0.270586 0
M  V30 683 C 69.9776 0.669202 -2.93159 0
M  V30 684 C 71.5256 0.760499 -3.03621 0
M  V30 685 C 72.0006 0.880383 -4.49459 0
M  V30 686 N 73.4916 0.944861 -4.53461 0
M  V30 687 C 74.2266 1.05716 -5.63571 0
M  V30 688 N 73.7226 1.13403 -6.83456 0
M  V30 689 N 75.5156 1.09152 -5.514 0
M  V30 690 H 67.6666 -0.618695 -2.03189 0
M  V30 691 H 69.9296 -0.215728 -0.923128 0
M  V30 692 H 69.6356 -0.212904 -3.51055 0
M  V30 693 H 69.5096 1.5361 -3.44505 0
M  V30 694 H 71.8966 1.63305 -2.45796 0
M  V30 695 H 71.9776 -0.131864 -2.5546 0
M  V30 696 H 71.6216 0.0123284 -5.07899 0
M  V30 697 H 71.5516 1.78802 -4.95316 0
M  V30 698 H 74.0426 0.896176 -3.6712 0
M  V30 699 H 74.3556 1.21921 -7.63122 0
M  V30 700 H 72.7006 1.10333 -6.86186 0
M  V30 701 H 75.8916 1.02805 -4.56671 0
M  V30 702 H 76.0646 1.17558 -6.37247 0
M  V30 703 N 69.4707 1.49531 0.497807 0
M  V30 704 C 70.8867 1.36365 0.829266 0
M  V30 705 C 71.0867 0.399184 1.97506 0
M  V30 706 O 70.1427 -0.167977 2.51941 0
M  V30 707 C 71.4557 2.77153 1.16647 0
M  V30 708 C 73.0037 2.85877 1.27449 0
M  V30 709 C 73.4787 4.2744 1.64497 0
M  V30 710 N 74.9697 4.30265 1.7154 0
M  V30 711 C 75.7047 5.3677 2.01656 0
M  V30 712 N 75.2007 6.53516 2.29976 0
M  V30 713 N 76.9937 5.24189 2.02934 0
M  V30 714 H 69.1447 2.10831 -0.257703 0
M  V30 715 H 71.4077 0.946534 -0.0527091 0
M  V30 716 H 71.1137 3.49442 0.397872 0
M  V30 717 H 70.9877 3.12722 2.10915 0
M  V30 718 H 73.3747 2.13824 2.0338 0
M  V30 719 H 73.4557 2.53887 0.312244 0
M  V30 720 H 73.0997 5.00021 0.891151 0
M  V30 721 H 73.0297 4.56896 2.61827 0
M  V30 722 H 75.5207 3.4607 1.51802 0
M  V30 723 H 75.8337 7.30506 2.52153 0
M  V30 724 H 74.1787 6.56737 2.27425 0
M  V30 725 H 77.3697 4.31988 1.80289 0
M  V30 726 H 77.5427 6.07286 2.26071 0
M  V30 727 N 70.9488 -0.749086 1.3866 0
M  V30 728 C 71.8788 -1.8764 1.38973 0
M  V30 729 C 72.8598 -1.68178 0.255004 0
M  V30 730 O 74.0448 -1.88704 0.458754 0
M  V30 731 C 71.1748 -3.25222 1.21851 0
M  V30 732 C 70.1288 -3.59295 2.32575 0
M  V30 733 C 69.4548 -4.95663 2.00555 0
M  V30 734 C 70.7548 -3.63709 3.7485 0
M  V30 735 H 72.4488 -1.87635 2.3331 0
M  V30 736 H 69.9948 -0.901329 1.12303 0
M  V30 737 H 71.9478 -4.03746 1.20695 0
M  V30 738 H 70.6718 -3.25719 0.239775 0
M  V30 739 H 69.3308 -2.83093 2.32925 0
M  V30 740 H 68.9788 -4.92724 1.01154 0
M  V30 741 H 68.6788 -5.19429 2.74714 0
M  V30 742 H 70.2028 -5.7656 2.01024 0
M  V30 743 H 71.6168 -4.32338 3.76506 0
M  V30 744 H 70.0138 -3.98986 4.48252 0
M  V30 745 H 71.0838 -2.63834 4.06841 0
M  V30 746 N 72.4269 -1.23603 -0.977757 0
M  V30 747 C 73.3749 -1.01704 -2.09187 0
M  V30 748 C 74.3689 0.0448214 -1.69341 0
M  V30 749 O 75.5749 -0.108902 -1.7967 0
M  V30 750 H 71.9499 -0.311803 -0.684312 0
M  V30 751 H 73.9209 -1.96207 -2.24823 0
M  V30 752 C 72.6699 -0.627746 -3.41986 0
M  V30 753 H 71.9929 -1.43656 -3.73099 0
M  V30 754 H 73.4329 -0.514053 -4.20872 0
M  V30 755 C 71.8919 0.664238 -3.30287 0
M  V30 756 O 72.4219 1.71268 -3.6336 0
M  V30 757 N 70.6279 0.641156 -2.83439 0
M  V30 758 H 70.1749 -0.212376 -2.56723 0
M  V30 759 H 70.1329 1.50583 -2.75993 0
M  V30 760 N 73.905 1.17692 -1.04816 0
M  V30 761 C 74.853 2.23632 -0.63966 0
M  V30 762 C 75.847 1.6601 0.337219 0
M  V30 763 O 77.053 1.78844 0.203693 0
M  V30 764 H 73.428 0.727949 -0.188665 0
M  V30 765 H 75.399 2.55387 -1.54337 0
M  V30 766 C 74.148 3.4769 -0.0264051 0
M  V30 767 H 73.471 3.92331 -0.769164 0
M  V30 768 H 74.911 4.23418 0.222098 0
M  V30 769 C 73.37 3.13807 1.22584 0
M  V30 770 O 73.9 3.28236 2.31569 0
M  V30 771 N 72.106 2.68065 1.12202 0
M  V30 772 H 71.653 2.56525 0.235133 0
M  V30 773 H 71.611 2.45767 1.96076 0
M  V30 774 N 75.3831 0.828654 1.34056 0
M  V30 775 C 76.6081 0.431637 2.02859 0
M  V30 776 C 77.0331 -0.956339 1.61975 0
M  V30 777 O 76.3911 -1.62338 0.807228 0
M  V30 778 C 76.4391 0.548323 3.56407 0
M  V30 779 O 75.5431 -0.429556 4.10157 0
M  V30 780 H 74.8841 0.176886 0.640006 0
M  V30 781 H 77.4141 1.12066 1.71179 0
M  V30 782 H 77.4241 0.426196 4.05768 0
M  V30 783 H 76.0991 1.5606 3.8551 0
M  V30 784 H 74.6761 -0.265836 3.71951 0
M  V30 785 N 76.8612 -1.46375 0.584142 0
M  V30 786 C 77.8082 -2.30323 -0.148286 0
M  V30 787 C 78.7782 -1.40703 -0.882713 0
M  V30 788 O 79.9632 -1.69651 -0.873099 0
M  V30 789 C 77.1032 -3.25196 -1.15507 0
M  V30 790 C 76.2162 -4.29915 -0.423943 0
M  V30 791 C 75.3512 -5.11914 -1.41838 0
M  V30 792 C 74.3902 -6.08381 -0.673736 0
M  V30 793 N 73.5272 -6.83242 -1.6163 0
M  V30 794 H 78.3672 -2.92427 0.573644 0
M  V30 795 H 75.9042 -1.44118 0.294703 0
M  V30 796 H 77.8622 -3.78646 -1.75166 0
M  V30 797 H 76.4922 -2.64898 -1.8447 0
M  V30 798 H 75.5442 -3.7931 0.287714 0
M  V30 799 H 76.8562 -4.98549 0.158128 0
M  V30 800 H 76.0102 -5.69648 -2.08773 0
M  V30 801 H 74.7492 -4.43243 -2.03438 0
M  V30 802 H 73.7542 -5.49799 0.00938483 0
M  V30 803 H 74.9792 -6.79071 -0.0631082 0
M  V30 804 H 72.9252 -6.1728 -2.22038 0
M  V30 805 H 72.8422 -7.48144 -1.08707 0
M  V30 806 H 74.1102 -7.45534 -2.27596 0
M  V30 807 N 78.3393 -0.321999 -1.54275 0
M  V30 808 C 79.7553 0.0306999 -1.5957 0
M  V30 809 C 79.9553 1.50614 -1.33857 0
M  V30 810 O 79.0113 2.2619 -1.12223 0
M  V30 811 C 80.3243 -0.386122 -2.98211 0
M  V30 812 C 81.8723 -0.336647 -3.11184 0
M  V30 813 C 82.3473 -0.728607 -4.52167 0
M  V30 814 N 83.8383 -0.681952 -4.58152 0
M  V30 815 C 84.5733 -0.957449 -5.6535 0
M  V30 816 N 84.0693 -1.3 -6.80494 0
M  V30 817 N 85.8623 -0.883113 -5.55119 0
M  V30 818 H 78.0133 -1.28332 -1.69247 0
M  V30 819 H 80.2763 -0.521716 -0.791528 0
M  V30 820 H 79.9823 -1.41404 -3.22022 0
M  V30 821 H 79.8563 0.249662 -3.76373 0
M  V30 822 H 82.2433 0.682058 -2.8711 0
M  V30 823 H 82.3243 -1.00734 -2.3513 0
M  V30 824 H 81.9683 -1.74522 -4.76974 0
M  V30 825 H 81.8983 -0.0356152 -5.26588 0
M  V30 826 H 84.3893 -0.428985 -3.75457 0
M  V30 827 H 84.7023 -1.49563 -7.58189 0
M  V30 828 H 83.0473 -1.33824 -6.81994 0
M  V30 829 H 86.2383 -0.615001 -4.64042 0
M  V30 830 H 86.4113 -1.10118 -6.38575 0
M  V30 831 N 79.8174 1.5752 -0.0501392 0
M  V30 832 C 80.7804 2.1037 0.909786 0
M  V30 833 C 81.7804 1.02308 1.24056 0
M  V30 834 O 82.9704 1.28385 1.17741 0
M  V30 835 C 80.1024 2.58708 2.21998 0
M  V30 836 H 81.2954 2.96479 0.451665 0
M  V30 837 H 78.8484 1.55038 0.198248 0
M  V30 838 H 79.5834 1.75989 2.72394 0
M  V30 839 H 79.3684 3.37675 1.99295 0
M  V30 840 H 80.8584 2.99747 2.9076 0
M  V30 841 N 81.2955 -0.223234 1.56011 0
M  V30 842 C 82.5205 -0.968978 1.83373 0
M  V30 843 C 82.9455 -1.77227 0.630254 0
M  V30 844 O 82.3035 -1.76345 -0.420959 0
M  V30 845 C 82.3515 -1.86363 3.08709 0
M  V30 846 O 81.4555 -2.95873 2.87285 0
M  V30 847 H 80.7965 -0.274461 0.604622 0
M  V30 848 H 83.3265 -0.237056 2.03222 0
M  V30 849 H 83.3365 -2.27376 3.38768 0
M  V30 850 H 82.0115 -1.27319 3.95933 0
M  V30 851 H 80.5885 -2.58818 2.68454 0
M  V30 852 N 82.7736 -1.49793 -0.48987 0
M  V30 853 C 83.7036 -1.70201 -1.59856 0
M  V30 854 C 84.6846 -0.55076 -1.60937 0
M  V30 855 O 85.8696 -0.787841 -1.77501 0
M  V30 856 C 82.9996 -1.77882 -2.98287 0
M  V30 857 C 81.9536 -2.92907 -3.12073 0
M  V30 858 C 81.2796 -2.85712 -4.51965 0
M  V30 859 C 82.5796 -4.3369 -2.91051 0
M  V30 860 H 84.2736 -2.63025 -1.43032 0
M  V30 861 H 81.8196 -1.26574 -0.686664 0
M  V30 862 H 83.7726 -1.90744 -3.75759 0
M  V30 863 H 82.4966 -0.816653 -3.16225 0
M  V30 864 H 81.1556 -2.79665 -2.37029 0
M  V30 865 H 80.8036 -1.8738 -4.66795 0
M  V30 866 H 80.5036 -3.62921 -4.62128 0
M  V30 867 H 82.0276 -3.00598 -5.31482 0
M  V30 868 H 83.4416 -4.47555 -3.58284 0
M  V30 869 H 81.8386 -5.12205 -3.12675 0
M  V30 870 H 82.9086 -4.47362 -1.87071 0
M  V30 871 N 84.2517 0.741722 -1.39055 0
M  V30 872 C 85.1817 1.869 -1.39966 0
M  V30 873 C 86.1627 1.6804 -0.26392 0
M  V30 874 O 87.3477 1.88458 -0.468755 0
M  V30 875 C 84.4777 3.24572 -1.23574 0
M  V30 876 C 83.4317 3.58056 -2.34477 0
M  V30 877 C 82.7577 4.94593 -2.0318 0
M  V30 878 C 84.0577 3.61716 -3.76774 0
M  V30 879 H 85.7517 1.86395 -2.34302 0
M  V30 880 H 83.2977 0.895361 -1.1278 0
M  V30 881 H 85.2507 4.031 -1.22834 0
M  V30 882 H 83.9747 3.25587 -0.257045 0
M  V30 883 H 82.6337 2.81854 -2.34423 0
M  V30 884 H 82.2817 4.92181 -1.03765 0
M  V30 885 H 81.9817 5.17964 -2.77465 0
M  V30 886 H 83.5057 5.75486 -2.04079 0
M  V30 887 H 84.9197 4.30335 -3.78794 0
M  V30 888 H 83.3167 3.96603 -4.50362 0
M  V30 889 H 84.3867 2.61672 -4.08235 0
M  V30 890 N 85.7298 1.2412 0.971189 0
M  V30 891 C 87.1458 1.00584 1.23916 0
M  V30 892 C 87.3458 -0.287481 1.99439 0
M  V30 893 O 86.4018 -1.00454 2.31658 0
M  V30 894 C 87.7148 2.21864 2.0297 0
M  V30 895 C 89.2628 2.26452 2.16076 0
M  V30 896 C 89.7378 3.47343 2.98524 0
M  V30 897 N 91.2288 3.47639 3.06107 0
M  V30 898 C 91.9638 4.37837 3.70251 0
M  V30 899 N 91.4598 5.38286 4.36142 0
M  V30 900 N 93.2528 4.25558 3.67228 0
M  V30 901 H 85.4038 2.07236 0.465499 0
M  V30 902 H 87.6668 0.909236 0.268315 0
M  V30 903 H 87.3728 3.15771 1.54861 0
M  V30 904 H 87.2468 2.23698 3.03709 0
M  V30 905 H 89.6338 1.33078 2.6339 0
M  V30 906 H 89.7148 2.28645 1.14696 0
M  V30 907 H 89.3588 4.41029 2.51905 0
M  V30 908 H 89.2888 3.42393 4.00093 0
M  V30 909 H 91.7798 2.74966 2.59233 0
M  V30 910 H 92.0928 6.03352 4.82894 0
M  V30 911 H 90.4378 5.42176 4.34822 0
M  V30 912 H 93.6288 3.46322 3.14927 0
M  V30 913 H 93.8018 4.96054 4.16935 0
M  V30 914 N 87.2079 -1.17134 1.05439 0
M  V30 915 C 88.4359 -1.91372 0.786414 0
M  V30 916 C 88.8509 -1.76955 -0.658202 0
M  V30 917 O 88.2079 -1.10838 -1.44987 0
M  V30 918 C 88.2589 -3.42356 1.1608 0
M  V30 919 O 87.9799 -3.56332 2.54871 0
M  V30 920 C 89.4809 -4.33663 0.919322 0
M  V30 921 H 86.7009 -0.607118 0.285743 0
M  V30 922 H 89.2449 -1.48525 1.40572 0
M  V30 923 H 87.3999 -3.82939 0.586191 0
M  V30 924 H 87.8139 -4.49896 2.69618 0
M  V30 925 H 89.2879 -5.38099 1.231 0
M  V30 926 H 89.7649 -4.38959 -0.145359 0
M  V30 927 H 90.3709 -3.98796 1.47789 0
M  V30 928 N 88.686 -0.835752 -1.33615 0
M  V30 929 C 89.935 -0.426289 -1.97144 0
M  V30 930 C 90.248 1.01912 -1.66953 0
M  V30 931 O 91.454 1.53311 -2.24072 0
M  V30 932 C 89.91 -0.711321 -3.52801 0
M  V30 933 C 89.518 -2.1712 -3.91871 0
M  V30 934 C 91.262 -0.368654 -4.22896 0
M  V30 935 C 89.169 -2.40044 -5.40493 0
M  V30 936 H 88.099 -0.15567 -0.737755 0
M  V30 937 H 90.75 -1.0239 -1.52278 0
M  V30 938 H 89.132 -0.0433766 -3.95976 0
M  V30 939 H 90.306 -2.87936 -3.59763 0
M  V30 940 H 88.621 -2.47654 -3.34749 0
M  V30 941 H 91.218 -0.517601 -5.32189 0
M  V30 942 H 91.561 0.688078 -4.10574 0
M  V30 943 H 92.094 -0.991702 -3.8524 0
M  V30 944 H 88.833 -3.44271 -5.57815 0
M  V30 945 H 88.353 -1.73785 -5.74072 0
M  V30 946 H 90.032 -2.23042 -6.0734 0
M  V30 947 N 90.1641 1.46063 -0.591896 0
M  V30 948 C 91.1271 2.28854 0.125973 0
M  V30 949 C 92.1271 1.38903 0.810107 0
M  V30 950 O 93.3171 1.61186 0.66066 0
M  V30 951 C 90.4491 3.19526 1.1881 0
M  V30 952 H 91.6421 2.93802 -0.601717 0
M  V30 953 H 89.1951 1.52325 -0.350254 0
M  V30 954 H 89.9301 2.59345 1.94707 0
M  V30 955 H 89.7151 3.85766 0.701936 0
M  V30 956 H 91.2051 3.81817 1.69132 0
M  V30 957 N 91.6422 0.330177 1.54103 0
M  V30 958 C 92.8672 -0.274893 2.0557 0
M  V30 959 C 93.2922 -1.44487 1.20437 0
M  V30 960 O 92.6502 -1.80021 0.214991 0
M  V30 961 C 92.6982 -0.68079 3.54115 0
M  V30 962 O 91.8022 -1.7824 3.71893 0
M  V30 963 H 91.1432 -0.0483849 0.662235 0
M  V30 964 H 93.6732 0.480508 1.98878 0
M  V30 965 H 93.6832 -0.961635 3.96505 0
M  V30 966 H 92.3582 0.174903 4.15532 0
M  V30 967 H 90.9352 -1.49985 3.41407 0
M  V30 968 N 93.1203 -1.57491 0.0584922 0
M  V30 969 C 94.0303 -2.15448 -0.928414 0
M  V30 970 C 95.0463 -1.11416 -1.3365 0
M  V30 971 O 96.2223 -1.4362 -1.41193 0
M  V30 972 C 93.2873 -2.69393 -2.18239 0
M  V30 973 C 92.3483 -3.88249 -1.83196 0
M  V30 974 C 91.5813 -4.39613 -3.02616 0
M  V30 975 O 91.8043 -3.90023 -4.16219 0
M  V30 976 O 90.7383 -5.31111 -2.83204 0
M  V30 977 H 94.5643 -3.00112 -0.465483 0
M  V30 978 H 92.1493 -1.48499 -0.163826 0
M  V30 979 H 94.0313 -3.04026 -2.91798 0
M  V30 980 H 92.7063 -1.87796 -2.63656 0
M  V30 981 H 91.6133 -3.58492 -1.06931 0
M  V30 982 H 92.9463 -4.71098 -1.42573 0
M  V30 983 N 94.5984 0.214957 -1.56127 0
M  V30 984 C 95.5284 1.2695 -1.95974 0
M  V30 985 C 96.5094 1.48539 -0.828868 0
M  V30 986 O 97.6944 1.60611 -1.09168 0
M  V30 987 C 94.8244 2.61794 -2.28214 0
M  V30 988 C 93.7784 2.54851 -3.43853 0
M  V30 989 C 93.1044 3.93785 -3.61715 0
M  V30 990 C 94.4044 2.09065 -4.78632 0
M  V30 991 H 96.0984 0.93846 -2.84312 0
M  V30 992 H 93.6444 0.449996 -1.36788 0
M  V30 993 H 95.5974 3.35731 -2.54682 0
M  V30 994 H 94.3214 2.96599 -1.36736 0
M  V30 995 H 92.9804 1.8337 -3.17444 0
M  V30 996 H 92.6284 4.25908 -2.67602 0
M  V30 997 H 92.3284 3.90019 -4.39498 0
M  V30 998 H 93.8524 4.69374 -3.90539 0
M  V30 999 H 95.2664 2.7275 -5.04262 0
M  V30 1000 H 93.6634 2.16346 -5.59745 0
M  V30 1001 H 94.7334 1.04315 -4.73547 0
M  V30 1002 N 96.0765 1.50051 0.48192 0
M  V30 1003 C 96.9865 1.7089 1.60728 0
M  V30 1004 C 98.0025 0.591788 1.63627 0
M  V30 1005 O 99.1785 0.868817 1.81696 0
M  V30 1006 C 96.2435 1.78855 2.97005 0
M  V30 1007 C 95.3045 3.02537 3.04581 0
M  V30 1008 C 94.5375 3.10112 4.34357 0
M  V30 1009 O 94.7605 2.24765 5.24249 0
M  V30 1010 O 93.6945 4.02747 4.47301 0
M  V30 1011 H 97.5205 2.66264 1.46072 0
M  V30 1012 H 95.1055 1.34018 0.660264 0
M  V30 1013 H 96.9875 1.86336 3.77964 0
M  V30 1014 H 95.6625 0.866628 3.11883 0
M  V30 1015 H 94.5695 3.00563 2.22739 0
M  V30 1016 H 95.9025 3.94272 2.94636 0
M  V30 1017 N 97.5546 -0.734337 1.39446 0
M  V30 1018 C 98.5176 -1.83004 1.37994 0
M  V30 1019 C 99.5176 -1.58397 0.276938 0
M  V30 1020 O 100.708 -1.65785 0.534875 0
M  V30 1021 C 97.8396 -3.20802 1.1532 0
M  V30 1022 H 99.0326 -1.85694 2.35494 0
M  V30 1023 H 96.5856 -0.938059 1.25021 0
M  V30 1024 H 97.3206 -3.23772 0.185036 0
M  V30 1025 H 97.1056 -3.4006 1.95197 0
M  V30 1026 H 98.5956 -4.00862 1.17046 0
M  V30 1027 N 99.0327 -1.24633 -0.964593 0
M  V30 1028 C 100.449 -1.01239 -1.2338 0
M  V30 1029 C 100.649 0.2769 -1.99588 0
M  V30 1030 O 99.7047 0.992241 -2.32187 0
M  V30 1031 C 101.018 -2.22937 -2.01791 0
M  V30 1032 C 102.566 -2.27594 -2.14872 0
M  V30 1033 C 103.041 -3.48921 -2.96678 0
M  V30 1034 N 104.532 -3.49257 -3.04259 0
M  V30 1035 C 105.267 -4.39795 -3.67924 0
M  V30 1036 N 104.763 -5.40591 -4.33281 0
M  V30 1037 N 106.556 -4.275 -3.64966 0
M  V30 1038 H 98.7067 -2.0748 -0.454502 0
M  V30 1039 H 100.97 -0.910647 -0.26349 0
M  V30 1040 H 100.676 -3.16587 -1.53184 0
M  V30 1041 H 100.55 -2.25306 -3.02518 0
M  V30 1042 H 102.937 -1.34473 -2.6268 0
M  V30 1043 H 103.018 -2.2925 -1.13482 0
M  V30 1044 H 102.662 -4.42359 -2.49562 0
M  V30 1045 H 102.592 -3.4451 -3.98272 0
M  V30 1046 H 105.083 -2.76337 -2.57771 0
M  V30 1047 H 105.396 -6.05904 -4.79687 0
M  V30 1048 H 103.741 -5.44475 -4.3194 0
M  V30 1049 H 106.932 -3.47987 -3.13086 0
M  V30 1050 H 107.105 -4.98258 -4.14298 0
M  V30 1051 N 100.511 1.16574 -1.06058 0
M  V30 1052 C 101.736 1.91493 -0.796562 0
M  V30 1053 C 102.161 1.76773 0.642868 0
M  V30 1054 O 101.519 1.09142 1.44768 0
M  V30 1055 C 101.567 3.40293 -1.19303 0
M  V30 1056 O 100.671 4.11074 -0.330394 0
M  V30 1057 H 100.012 0.596678 -0.291326 0
M  V30 1058 H 102.542 1.47708 -1.41575 0
M  V30 1059 H 102.552 3.91057 -1.16356 0
M  V30 1060 H 101.227 3.50326 -2.24153 0
M  V30 1061 H 99.8038 3.70513 -0.421225 0
M  V30 1062 N 101.989 0.842826 1.3317 0
M  V30 1063 C 103.266 0.362216 1.92217 0
M  V30 1064 C 103.646 -1.15289 1.76838 0
M  V30 1065 O 102.994 -1.96914 1.15919 0
M  V30 1066 C 103.204 0.813495 3.39387 0
M  V30 1067 C 104.552 0.823804 4.16532 0
M  V30 1068 O 105.576 0.757358 3.48055 0
M  V30 1069 O 104.435 0.915193 5.38782 0
M  V30 1070 H 101.529 0.103317 0.820521 0
M  V30 1071 H 104.075 0.928942 1.42017 0
M  V30 1072 H 102.847 1.85624 3.4447 0
M  V30 1073 H 102.47 0.223561 3.96971 0
M  V30 1074 N 103.467 -1.45747 0.599634 0
M  V30 1075 C 104.744 -1.95585 0.0240846 0
M  V30 1076 C 105.124 -1.54217 -1.44154 0
M  V30 1077 O 104.472 -0.800903 -2.14004 0
M  V30 1078 C 104.682 -3.48344 0.21385 0
M  V30 1079 C 106.03 -4.24504 0.0904902 0
M  V30 1080 O 107.054 -3.55911 0.143558 0
M  V30 1081 O 105.913 -5.46491 -0.0310766 0
M  V30 1082 H 103.007 -0.82602 -0.0402478 0
M  V30 1083 H 105.553 -1.55951 0.669139 0
M  V30 1084 H 104.325 -3.71397 1.23206 0
M  V30 1085 H 103.948 -3.9485 -0.466842 0
M  V30 1086 N 104.945 -0.338344 -1.53925 0
M  V30 1087 C 106.194 0.260732 -2.00008 0
M  V30 1088 C 106.507 1.52073 -1.23017 0
M  V30 1089 O 107.713 2.19672 -1.5955 0
M  V30 1090 C 106.169 0.51515 -3.56194 0
M  V30 1091 C 105.777 -0.728645 -4.42035 0
M  V30 1092 C 107.521 1.07337 -4.10706 0
M  V30 1093 C 105.428 -0.445315 -5.89721 0
M  V30 1094 H 104.358 0.101205 -0.747177 0
M  V30 1095 H 107.009 -0.452866 -1.77824 0
M  V30 1096 H 105.391 1.28932 -3.74423 0
M  V30 1097 H 106.565 -1.50352 -4.35581 0
M  V30 1098 H 104.88 -1.20813 -3.98489 0
M  V30 1099 H 107.477 1.30022 -5.18651 0
M  V30 1100 H 107.82 2.0273 -3.63602 0
M  V30 1101 H 108.353 0.360034 -3.96167 0
M  V30 1102 H 105.092 -1.36883 -6.41049 0
M  V30 1103 H 104.612 0.291569 -5.99091 0
M  V30 1104 H 106.291 -0.0606218 -6.46972 0
M  V30 1105 N 106.423 1.57458 -0.0668435 0
M  V30 1106 C 107.672 1.92477 0.602947 0
M  V30 1107 C 107.985 0.948419 1.71068 0
M  V30 1108 O 109.191 1.19124 2.43971 0
M  V30 1109 C 107.647 3.41903 1.12383 0
M  V30 1110 C 107.255 4.47975 0.04737 0
M  V30 1111 C 108.999 3.85931 1.76797 0
M  V30 1112 C 106.906 5.88529 0.582022 0
M  V30 1113 H 105.836 0.718387 0.22899 0
M  V30 1114 H 108.487 1.82978 -0.138276 0
M  V30 1115 H 106.869 3.46459 1.91787 0
M  V30 1116 H 108.043 4.55029 -0.726978 0
M  V30 1117 H 106.358 4.13384 -0.500243 0
M  V30 1118 H 108.955 4.88322 2.17821 0
M  V30 1119 H 109.298 3.23029 2.62599 0
M  V30 1120 H 109.831 3.83958 1.04024 0
M  V30 1121 H 106.57 6.55065 -0.238721 0
M  V30 1122 H 106.09 5.85004 1.324 0
M  V30 1123 H 107.769 6.38258 1.05999 0
M  V30 1124 N 107.901 -0.206675 1.56239 0
M  V30 1125 C 108.864 -1.23976 1.92776 0
M  V30 1126 C 109.864 -1.39041 0.807729 0
M  V30 1127 O 111.054 -1.37051 1.0753 0
M  V30 1128 C 108.186 -2.61112 2.19165 0
M  V30 1129 H 109.379 -0.927764 2.85189 0
M  V30 1130 H 106.932 -0.447718 1.4975 0
M  V30 1131 H 107.667 -2.97386 1.29352 0
M  V30 1132 H 107.452 -2.51552 3.00772 0
M  V30 1133 H 108.942 -3.35633 2.48476 0
M  V30 1134 N 109.379 -1.50304 -0.473955 0
M  V30 1135 C 110.795 -1.37667 -0.807466 0
M  V30 1136 C 110.995 -0.430555 -1.96846 0
M  V30 1137 O 110.051 0.127874 -2.52176 0
M  V30 1138 C 111.364 -2.78974 -1.12223 0
M  V30 1139 C 112.912 -2.87868 -1.22885 0
M  V30 1140 C 113.387 -4.30003 -1.57676 0
M  V30 1141 N 114.878 -4.3294 -1.64673 0
M  V30 1142 C 115.613 -5.3991 -1.93091 0
M  V30 1143 N 115.109 -6.57092 -2.1955 0
M  V30 1144 N 116.902 -5.27351 -1.94569 0
M  V30 1145 H 109.053 -2.10394 0.291212 0
M  V30 1146 H 111.316 -0.945575 0.0677609 0
M  V30 1147 H 111.022 -3.50031 -0.342229 0
M  V30 1148 H 110.896 -3.16038 -2.05913 0
M  V30 1149 H 113.283 -2.17032 -1.99953 0
M  V30 1150 H 113.364 -2.54352 -0.271814 0
M  V30 1151 H 113.008 -5.01375 -0.81149 0
M  V30 1152 H 112.938 -4.61004 -2.54525 0
M  V30 1153 H 115.429 -3.48441 -1.46277 0
M  V30 1154 H 115.742 -7.34425 -2.405 0
M  V30 1155 H 114.087 -6.60272 -2.16948 0
M  V30 1156 H 117.278 -4.34801 -1.73394 0
M  V30 1157 H 117.451 -6.10805 -2.16381 0
M  V30 1158 N 110.857 0.726932 -1.39834 0
M  V30 1159 C 111.82 1.82269 -1.38962 0
M  V30 1160 C 112.82 1.58248 -0.285334 0
M  V30 1161 O 114.01 1.65499 -0.54366 0
M  V30 1162 C 111.142 3.20186 -1.17019 0
M  V30 1163 H 112.335 1.84443 -2.36476 0
M  V30 1164 H 109.888 0.931416 -1.25516 0
M  V30 1165 H 110.623 3.23669 -0.202204 0
M  V30 1166 H 110.408 3.3902 -1.96998 0
M  V30 1167 H 111.898 4.00235 -1.1917 0
M  V30 1168 N 112.336 1.25143 0.95797 0
M  V30 1169 C 113.286 1.01924 2.0395 0
M  V30 1170 C 114.27 -0.0427175 1.60843 0
M  V30 1171 O 115.462 0.17221 1.7616 0
M  V30 1172 C 112.591 0.636373 3.3735 0
M  V30 1173 C 111.677 1.73492 3.8699 0
M  V30 1174 N 112.068 2.96945 4.0946 0
M  V30 1175 C 110.366 1.61467 4.15746 0
M  V30 1176 C 111.067 3.68228 4.50315 0
M  V30 1177 N 110.043 2.95833 4.56053 0
M  V30 1178 H 113.845 1.95653 2.19311 0
M  V30 1179 H 111.359 1.15413 1.14253 0
M  V30 1180 H 113.356 0.451233 4.14451 0
M  V30 1181 H 112.016 -0.293621 3.2337 0
M  V30 1182 H 113.027 3.33025 3.96629 0
M  V30 1183 H 109.704 0.753394 4.10646 0
M  V30 1184 H 111.094 4.74178 4.76031 0
M  V30 1185 N 113.814 -1.1601 1.06675 0
M  V30 1186 C 114.744 -2.22688 0.702307 0
M  V30 1187 C 115.725 -1.67306 -0.307032 0
M  V30 1188 O 116.91 -1.93352 -0.181305 0
M  V30 1189 C 114.04 -3.47178 0.092038 0
M  V30 1190 C 112.994 -4.15477 1.02777 0
M  V30 1191 C 112.32 -5.33963 0.28061 0
M  V30 1192 C 113.62 -4.66019 2.35846 0
M  V30 1193 H 115.314 -2.53429 1.59419 0
M  V30 1194 H 112.86 -1.21813 0.767961 0
M  V30 1195 H 114.813 -4.21037 -0.174814 0
M  V30 1196 H 113.537 -3.15749 -0.834877 0
M  V30 1197 H 112.196 -3.43549 1.27944 0
M  V30 1198 H 111.844 -4.98788 -0.649545 0
M  V30 1199 H 111.544 -5.806 0.904258 0
M  V30 1200 H 113.068 -6.10596 0.021396 0
M  V30 1201 H 114.482 -5.3144 2.15045 0
M  V30 1202 H 112.879 -5.23293 2.93743 0
M  V30 1203 H 113.949 -3.82023 2.98641 0
M  V30 1204 N 115.292 -0.849877 -1.32721 0
M  V30 1205 C 116.202 -0.293791 -2.32753 0
M  V30 1206 C 117.218 0.585906 -1.63839 0
M  V30 1207 O 118.394 0.487413 -1.95413 0
M  V30 1208 C 115.459 0.512752 -3.42887 0
M  V30 1209 C 114.52 -0.39252 -4.27502 0
M  V30 1210 C 113.753 0.375625 -5.32377 0
M  V30 1211 O 113.976 1.60613 -5.4732 0
M  V30 1212 O 112.91 -0.256094 -6.01355 0
M  V30 1213 H 116.736 -1.12242 -2.82197 0
M  V30 1214 H 114.321 -0.612685 -1.36259 0
M  V30 1215 H 116.203 0.970704 -4.10067 0
M  V30 1216 H 114.878 1.31826 -2.95641 0
M  V30 1217 H 113.785 -0.898547 -3.63149 0
M  V30 1218 H 115.118 -1.16309 -4.7826 0
M  V30 1219 N 116.77 1.45427 -0.607355 0
M  V30 1220 C 117.998 2.06614 -0.108814 0
M  V30 1221 C 118.413 1.45204 1.2067 0
M  V30 1222 O 117.77 0.566132 1.73497 0
M  V30 1223 C 117.821 3.61481 0.0375347 0
M  V30 1224 O 117.542 4.20598 -1.22593 0
M  V30 1225 C 119.043 4.39652 0.567561 0
M  V30 1226 H 116.263 0.66747 -0.0687351 0
M  V30 1227 H 118.807 1.86675 -0.835022 0
M  V30 1228 H 116.962 3.80762 0.714068 0
M  V30 1229 H 117.376 5.1377 -1.05547 0
M  V30 1230 H 118.85 5.48518 0.61905 0
M  V30 1231 H 119.327 4.09417 1.58978 0
M  V30 1232 H 119.933 4.25234 -0.0749202 0
M  V30 1233 N 118.248 0.346503 1.53744 0
M  V30 1234 C 119.211 -0.496439 2.23759 0
M  V30 1235 C 120.211 -1.0252 1.2388 0
M  V30 1236 O 121.401 -0.913974 1.48297 0
M  V30 1237 C 118.533 -1.69187 2.95954 0
M  V30 1238 H 119.726 0.115952 2.99676 0
M  V30 1239 H 117.279 0.0978939 1.55993 0
M  V30 1240 H 118.014 -2.34288 2.24231 0
M  V30 1241 H 117.799 -1.31989 3.69217 0
M  V30 1242 H 119.289 -2.28969 3.49232 0
M  V30 1243 N 119.726 -1.57421 0.075193 0
M  V30 1244 C 120.656 -2.15942 -0.888324 0
M  V30 1245 C 121.637 -1.08737 -1.30806 0
M  V30 1246 O 122.822 -1.36787 -1.37851 0
M  V30 1247 C 119.952 -2.72379 -2.1547 0
M  V30 1248 C 118.906 -3.8478 -1.87425 0
M  V30 1249 C 118.232 -4.27834 -3.20721 0
M  V30 1250 C 119.532 -5.08869 -1.17684 0
M  V30 1251 H 121.226 -2.96705 -0.400799 0
M  V30 1252 H 118.772 -1.42723 -0.191342 0
M  V30 1253 H 120.725 -3.11965 -2.83295 0
M  V30 1254 H 119.449 -1.88841 -2.6647 0
M  V30 1255 H 118.108 -3.45703 -1.22004 0
M  V30 1256 H 117.756 -3.41214 -3.6957 0
M  V30 1257 H 117.456 -5.03605 -3.02746 0
M  V30 1258 H 118.98 -4.70039 -3.89738 0
M  V30 1259 H 120.394 -5.4575 -1.75584 0
M  V30 1260 H 118.791 -5.8994 -1.09956 0
M  V30 1261 H 119.861 -4.84648 -0.156453 0
M  V30 1262 N 121.204 0.198386 -1.56346 0
M  V30 1263 C 122.615 0.763358 -1.70381 0
M  V30 1264 C 122.966 1.83995 -0.681203 0
M  V30 1265 O 122.091 2.15785 0.16305 0
M  V30 1266 C 122.686 1.39143 -3.08909 0
M  V30 1267 C 121.245 1.90352 -3.2472 0
M  V30 1268 C 120.392 0.772233 -2.6633 0
M  V30 1269 H 123.343 -0.0266377 -1.58678 0
M  V30 1270 H 123.364 2.26076 -3.06055 0
M  V30 1271 H 122.876 0.607638 -3.83314 0
M  V30 1272 H 120.977 2.71461 -2.55225 0
M  V30 1273 H 121.09 2.06757 -4.3219 0
M  V30 1274 H 119.454 1.18566 -2.2542 0
M  V30 1275 H 120.237 0.00073556 -3.433 0
M  V30 1276 N 122.682 1.50554 0.465978 0
M  V30 1277 C 123.592 1.72585 1.58907 0
M  V30 1278 C 124.608 0.60911 1.6299 0
M  V30 1279 O 125.784 0.88804 1.80765 0
M  V30 1280 C 122.849 1.81995 2.95091 0
M  V30 1281 C 121.91 3.05751 3.01355 0
M  V30 1282 C 121.143 3.14702 4.31043 0
M  V30 1283 O 121.366 2.30313 5.21835 0
M  V30 1284 O 120.3 4.07468 4.43005 0
M  V30 1285 H 124.126 2.67799 1.43239 0
M  V30 1286 H 121.711 1.34711 0.646013 0
M  V30 1287 H 123.593 1.90335 3.75966 0
M  V30 1288 H 122.268 0.899659 3.10947 0
M  V30 1289 H 121.175 3.02908 2.19539 0
M  V30 1290 H 122.508 3.97375 2.90437 0
M  V30 1291 N 124.16 -0.719506 1.40217 0
M  V30 1292 C 125.406 -1.48152 1.38488 0
M  V30 1293 C 125.739 -1.94195 -0.0141867 0
M  V30 1294 O 125.014 -1.67884 -0.982096 0
M  V30 1295 C 125.297 -2.71035 2.37091 0
M  V30 1296 C 125.15 -2.30912 3.86005 0
M  V30 1297 C 126.469 -3.73182 2.33288 0
M  V30 1298 H 123.588 -0.537395 0.504357 0
M  V30 1299 H 126.23 -0.821472 1.71324 0
M  V30 1300 H 124.38 -3.27352 2.0922 0
M  V30 1301 H 126.052 -1.80107 4.24687 0
M  V30 1302 H 124.295 -1.62958 4.02029 0
M  V30 1303 H 124.966 -3.18978 4.50508 0
M  V30 1304 H 127.442 -3.26485 2.57966 0
M  V30 1305 H 126.318 -4.56806 3.04334 0
M  V30 1306 H 126.579 -4.21202 1.34317 0
M  V30 1307 N 125.638 -1.25649 -0.95132 0
M  V30 1308 C 127.054 -1.02542 -1.223 0
M  V30 1309 C 127.254 0.255715 -1.99871 0
M  V30 1310 O 126.31 0.967558 -2.33226 0
M  V30 1311 C 127.623 -2.25065 -1.99415 0
M  V30 1312 C 129.171 -2.29861 -2.12446 0
M  V30 1313 C 129.646 -3.52048 -2.92961 0
M  V30 1314 N 131.137 -3.52465 -3.00538 0
M  V30 1315 C 131.872 -4.43672 -3.63239 0
M  V30 1316 N 131.368 -5.45157 -4.27523 0
M  V30 1317 N 133.161 -4.31346 -3.60412 0
M  V30 1318 H 125.312 -2.07951 -0.432471 0
M  V30 1319 H 127.575 -0.91339 -0.253816 0
M  V30 1320 H 127.281 -3.18194 -1.49817 0
M  V30 1321 H 127.155 -2.28502 -3.00111 0
M  V30 1322 H 129.542 -1.37252 -2.61239 0
M  V30 1323 H 129.623 -2.3044 -1.11044 0
M  V30 1324 H 129.267 -4.44981 -2.44856 0
M  V30 1325 H 129.197 -3.48715 -3.94596 0
M  V30 1326 H 131.688 -2.79056 -2.54826 0
M  V30 1327 H 132.001 -6.10958 -4.73234 0
M  V30 1328 H 130.346 -5.49025 -4.26141 0
M  V30 1329 H 133.537 -3.51288 -3.09377 0
M  V30 1330 H 133.71 -5.02624 -4.0899 0
M  V30 1331 N 127.117 1.15442 -1.07289 0
M  V30 1332 C 128.047 2.22312 -0.714107 0
M  V30 1333 C 129.028 1.67467 0.298155 0
M  V30 1334 O 130.213 1.93445 0.171048 0
M  V30 1335 C 127.343 3.47124 -0.110448 0
M  V30 1336 C 126.297 4.14926 -1.04979 0
M  V30 1337 C 125.623 5.33807 -0.308924 0
M  V30 1338 C 126.923 4.64762 -2.38314 0
M  V30 1339 H 128.617 2.5258 -1.6076 0
M  V30 1340 H 126.163 1.21404 -0.77441 0
M  V30 1341 H 128.116 4.21124 0.152482 0
M  V30 1342 H 126.84 3.16187 0.81812 0
M  V30 1343 H 125.499 3.42866 -1.29764 0
M  V30 1344 H 125.147 4.99126 0.623084 0
M  V30 1345 H 124.847 5.80113 -0.935036 0
M  V30 1346 H 126.371 6.10576 -0.0537771 0
M  V30 1347 H 127.785 5.30292 -2.1786 0
M  V30 1348 H 126.182 5.21728 -2.96514 0
M  V30 1349 H 127.252 3.80434 -3.00663 0
M  V30 1350 N 128.595 0.856903 1.32268 0
M  V30 1351 C 129.823 0.475439 2.01363 0
M  V30 1352 C 130.238 -0.928486 1.64392 0
M  V30 1353 O 129.595 -1.60624 0.866387 0
M  V30 1354 C 129.646 0.607545 3.56358 0
M  V30 1355 O 129.367 1.95617 3.92002 0
M  V30 1356 C 130.868 0.225382 4.42727 0
M  V30 1357 H 128.088 0.186636 0.644521 0
M  V30 1358 H 130.632 1.15446 1.68797 0
M  V30 1359 H 128.787 -0.0237719 3.87393 0
M  V30 1360 H 129.201 1.95455 4.86721 0
M  V30 1361 H 130.675 0.368813 5.50767 0
M  V30 1362 H 131.152 -0.834369 4.31202 0
M  V30 1363 H 131.758 0.831864 4.17085 0
M  V30 1364 N 130.073 -1.45103 0.615059 0
M  V30 1365 C 131.321 -2.01784 0.112955 0
M  V30 1366 C 131.642 -1.48504 -1.26378 0
M  V30 1367 O 130.912 -0.682245 -1.83636 0
M  V30 1368 H 129.492 -0.745993 0.0387668 0
M  V30 1369 H 132.154 -1.77808 0.798141 0
M  V30 1370 H 131.25 -3.12025 0.0684069 0
M  V30 1371 N 131.551 -0.354651 -1.53558 0
M  V30 1372 C 132.461 0.50515 -2.29097 0
M  V30 1373 C 133.477 1.10223 -1.34636 0
M  V30 1374 O 134.653 1.11553 -1.67684 0
M  V30 1375 C 131.718 1.63479 -3.05738 0
M  V30 1376 C 130.779 1.06636 -4.15845 0
M  V30 1377 C 130.012 2.14217 -4.88822 0
M  V30 1378 O 130.235 3.35137 -4.61562 0
M  V30 1379 O 129.169 1.77887 -5.75013 0
M  V30 1380 H 132.995 -0.109237 -3.03503 0
M  V30 1381 H 130.58 -0.119357 -1.48922 0
M  V30 1382 H 132.462 2.2918 -3.5363 0
M  V30 1383 H 131.137 2.23478 -2.34178 0
M  V30 1384 H 130.044 0.373565 -3.7223 0
M  V30 1385 H 131.377 0.511081 -4.89539 0
M  V30 1386 N 133.029 1.57378 -0.0835403 0
M  V30 1387 C 134.278 1.93106 0.582498 0
M  V30 1388 C 134.591 0.96651 1.70053 0
M  V30 1389 O 135.797 1.21705 2.42693 0
M  V30 1390 C 134.253 3.43076 1.08751 0
M  V30 1391 C 133.861 4.48 -0.000146404 0
M  V30 1392 C 135.605 3.87785 1.72694 0
M  V30 1393 C 133.512 5.89113 0.519568 0
M  V30 1394 H 132.442 0.720775 0.221358 0
M  V30 1395 H 135.093 1.82821 -0.157675 0
M  V30 1396 H 133.475 3.48474 1.88101 0
M  V30 1397 H 134.649 4.54233 -0.775199 0
M  V30 1398 H 132.964 4.1283 -0.54406 0
M  V30 1399 H 135.561 4.90604 2.1263 0
M  V30 1400 H 135.904 3.25796 2.59158 0
M  V30 1401 H 136.437 3.8504 0.999457 0
M  V30 1402 H 133.176 6.54775 -0.308186 0
M  V30 1403 H 132.696 5.86376 1.26188 0
M  V30 1404 H 134.375 6.39346 0.992237 0
M  V30 1405 N 134.507 -0.190092 1.56449 0
M  V30 1406 C 135.47 -1.21925 1.9408 0
M  V30 1407 C 136.47 -1.38176 0.822431 0
M  V30 1408 O 137.66 -1.35903 1.08977 0
M  V30 1409 C 134.792 -2.58773 2.21922 0
M  V30 1410 H 135.985 -0.897464 2.86157 0
M  V30 1411 H 133.538 -0.43181 1.50217 0
M  V30 1412 H 134.273 -2.95998 1.32499 0
M  V30 1413 H 134.058 -2.48348 3.03424 0
M  V30 1414 H 135.548 -3.32978 2.52022 0
M  V30 1415 N 135.985 -1.50799 -0.457987 0
M  V30 1416 C 137.401 -1.38515 -0.792819 0
M  V30 1417 C 137.601 -0.451409 -1.96379 0
M  V30 1418 O 136.657 0.10112 -2.52297 0
M  V30 1419 C 137.97 -2.80149 -1.09258 0
M  V30 1420 C 139.518 -2.89156 -1.19825 0
M  V30 1421 C 139.993 -4.31651 -1.53106 0
M  V30 1422 N 141.484 -4.34662 -1.60072 0
M  V30 1423 C 142.219 -5.41928 -1.87354 0
M  V30 1424 N 141.715 -6.59384 -2.12568 0
M  V30 1425 N 143.508 -5.29385 -1.88965 0
M  V30 1426 H 135.659 -2.10073 0.313511 0
M  V30 1427 H 137.922 -0.944803 0.0777862 0
M  V30 1428 H 137.628 -3.50374 -0.305084 0
M  V30 1429 H 137.502 -3.18204 -2.02549 0
M  V30 1430 H 139.889 -2.19141 -1.97639 0
M  V30 1431 H 139.97 -2.54626 -0.244821 0
M  V30 1432 H 139.614 -5.02208 -0.758266 0
M  V30 1433 H 139.544 -4.63678 -2.49621 0
M  V30 1434 H 142.035 -3.49973 -1.42573 0
M  V30 1435 H 142.348 -7.36934 -2.32696 0
M  V30 1436 H 140.693 -6.62535 -2.09933 0
M  V30 1437 H 143.884 -4.36616 -1.68772 0
M  V30 1438 H 144.057 -6.13066 -2.09891 0
M  V30 1439 N 137.463 0.71206 -1.40597 0
M  V30 1440 C 138.691 1.50111 -1.42388 0
M  V30 1441 C 139.106 1.88784 -0.0245395 0
M  V30 1442 O 138.463 1.55681 0.952351 0
M  V30 1443 C 138.514 2.7742 -2.31776 0
M  V30 1444 O 138.235 2.40382 -3.66262 0
M  V30 1445 C 139.736 3.7129 -2.42196 0
M  V30 1446 H 136.956 0.46314 -0.485533 0
M  V30 1447 H 139.5 0.878068 -1.8469 0
M  V30 1448 H 137.655 3.36001 -1.92827 0
M  V30 1449 H 138.069 3.22324 -4.13772 0
M  V30 1450 H 139.543 4.57448 -3.08943 0
M  V30 1451 H 140.02 4.14641 -1.44809 0
M  V30 1452 H 140.626 3.18619 -2.81712 0
M  V30 1453 N 138.941 1.26152 0.944643 0
M  V30 1454 C 139.904 1.07474 2.0244 0
M  V30 1455 C 140.904 0.0242064 1.60782 0
M  V30 1456 O 142.094 0.267302 1.72137 0
M  V30 1457 C 139.226 0.633956 3.34953 0
M  V30 1458 H 140.419 2.03336 2.20442 0
M  V30 1459 H 137.972 1.087 1.12312 0
M  V30 1460 H 138.707 -0.326811 3.22649 0
M  V30 1461 H 138.492 1.39247 3.66542 0
M  V30 1462 H 139.982 0.52501 4.14287 0
M  V30 1463 N 140.419 -1.14872 1.07899 0
M  V30 1464 C 141.367 -2.21857 0.698727 0
M  V30 1465 C 142.361 -1.66845 -0.293086 0
M  V30 1466 O 143.567 -1.79321 -0.156204 0
M  V30 1467 H 139.942 -0.722691 0.207899 0
M  V30 1468 H 141.913 -2.51205 1.61054 0
M  V30 1469 C 140.662 -3.47498 0.11858 0
M  V30 1470 H 139.985 -3.90154 0.872914 0
M  V30 1471 H 141.425 -4.23858 -0.109759 0
M  V30 1472 C 139.884 -3.16947 -1.1422 0
M  V30 1473 O 140.414 -3.3426 -2.22785 0
M  V30 1474 N 138.62 -2.70946 -1.05055 0
M  V30 1475 H 138.167 -2.57058 -0.167038 0
M  V30 1476 H 138.125 -2.50879 -1.89491 0
M  V30 1477 N 141.898 -0.863906 -1.31812 0
M  V30 1478 C 142.83 -0.272485 -2.27575 0
M  V30 1479 C 143.843 0.56104 -1.52827 0
M  V30 1480 O 145.032 0.384021 -1.7432 0
M  V30 1481 C 142.132 0.63283 -3.32939 0
M  V30 1482 C 141.305 -0.166902 -4.37081 0
M  V30 1483 C 140.364 0.665608 -5.21973 0
M  V30 1484 O 139.39 0.0958091 -5.69119 0
M  V30 1485 N 140.592 1.9787 -5.45736 0
M  V30 1486 H 143.357 -1.0954 -2.78964 0
M  V30 1487 H 140.918 -0.724791 -1.4477 0
M  V30 1488 H 142.91 1.19532 -3.86645 0
M  V30 1489 H 141.48 1.35642 -2.81638 0
M  V30 1490 H 140.7 -0.910838 -3.83533 0
M  V30 1491 H 141.988 -0.715874 -5.03739 0
M  V30 1492 H 141.386 2.46484 -5.09178 0
M  V30 1493 H 139.943 2.48911 -6.024 0
M  V30 1494 N 143.376 1.44774 -0.622745 0
M  V30 1495 C 144.306 2.33382 0.0741861 0
M  V30 1496 C 145.287 1.47719 0.843387 0
M  V30 1497 O 146.472 1.76458 0.810934 0
M  V30 1498 C 143.602 3.30663 1.06204 0
M  V30 1499 C 142.556 4.26079 0.405037 0
M  V30 1500 C 141.882 5.13165 1.5022 0
M  V30 1501 C 143.182 5.1781 -0.683414 0
M  V30 1502 H 144.876 2.91905 -0.665713 0
M  V30 1503 H 142.422 1.40363 -0.321587 0
M  V30 1504 H 144.375 3.9153 1.55827 0
M  V30 1505 H 143.099 2.70331 1.83272 0
M  V30 1506 H 141.758 3.66532 -0.0704683 0
M  V30 1507 H 141.406 4.49191 2.26355 0
M  V30 1508 H 141.106 5.77812 1.06803 0
M  V30 1509 H 142.63 5.76902 2.00041 0
M  V30 1510 H 144.044 5.72661 -0.270631 0
M  V30 1511 H 142.441 5.91015 -1.04023 0
M  V30 1512 H 143.511 4.59326 -1.55395 0
M  V30 1513 N 144.854 0.36279 1.53368 0
M  V30 1514 C 146.27 0.0116182 1.59596 0
M  V30 1515 C 146.47 -1.47012 1.37803 0
M  V30 1516 O 145.526 -2.23136 1.18181 0
M  V30 1517 C 146.839 0.465052 2.97082 0
M  V30 1518 C 148.387 0.419033 3.10182 0
M  V30 1519 C 148.862 0.848235 4.50077 0
M  V30 1520 N 150.353 0.803183 4.56183 0
M  V30 1521 C 151.088 1.107 5.62613 0
M  V30 1522 N 150.584 1.47996 6.76808 0
M  V30 1523 N 152.377 1.02998 5.52583 0
M  V30 1524 H 144.528 1.32775 1.65785 0
M  V30 1525 H 146.791 0.542518 0.777417 0
M  V30 1526 H 146.497 1.49892 3.18159 0
M  V30 1527 H 146.371 -0.149786 3.76902 0
M  V30 1528 H 148.758 -0.605696 2.88817 0
M  V30 1529 H 148.839 1.06933 2.32377 0
M  V30 1530 H 148.483 1.87107 4.7218 0
M  V30 1531 H 148.413 0.175218 5.26308 0
M  V30 1532 H 150.904 0.52838 3.74188 0
M  V30 1533 H 151.217 1.69613 7.53957 0
M  V30 1534 H 149.562 1.51859 6.78206 0
M  V30 1535 H 152.753 0.737817 4.62249 0
M  V30 1536 H 152.926 1.2701 6.35431 0
M  V30 1537 N 146.332 -1.57332 0.0918853 0
M  V30 1538 C 147.262 -2.16872 -0.865371 0
M  V30 1539 C 148.243 -1.10118 -1.29646 0
M  V30 1540 O 149.428 -1.38242 -1.36392 0
M  V30 1541 C 146.558 -2.74649 -2.12569 0
M  V30 1542 C 145.512 -3.86747 -1.83333 0
M  V30 1543 C 144.838 -4.31212 -3.16166 0
M  V30 1544 C 146.138 -5.10089 -1.1228 0
M  V30 1545 H 147.832 -2.97114 -0.369307 0
M  V30 1546 H 145.378 -1.42918 -0.176194 0
M  V30 1547 H 147.331 -3.14952 -2.7997 0
M  V30 1548 H 146.055 -1.91657 -2.64452 0
M  V30 1549 H 144.714 -3.46978 -1.18331 0
M  V30 1550 H 144.362 -3.45115 -3.6593 0
M  V30 1551 H 144.062 -5.06788 -2.97388 0
M  V30 1552 H 145.586 -4.74146 -3.84731 0
M  V30 1553 H 147 -5.47582 -1.69785 0
M  V30 1554 H 145.397 -5.91073 -1.03693 0
M  V30 1555 H 146.467 -4.84786 -0.105041 0
M  V30 1556 N 147.81 0.181792 -1.56548 0
M  V30 1557 C 149.057 0.900097 -1.81396 0
M  V30 1558 C 149.385 1.82695 -0.667281 0
M  V30 1559 O 148.64 1.92614 0.346146 0
M  V30 1560 C 148.939 1.73728 -3.12335 0
M  V30 1561 C 148.605 0.960255 -4.40556 0
M  V30 1562 C 147.267 0.745766 -4.75386 0
M  V30 1563 C 149.619 0.414477 -5.19549 0
M  V30 1564 C 146.947 -0.0257694 -5.86694 0
M  V30 1565 C 149.299 -0.343916 -6.31664 0
M  V30 1566 C 147.963 -0.569301 -6.65068 0
M  V30 1567 H 147.233 0.329369 -0.663775 0
M  V30 1568 H 149.88 0.165647 -1.90782 0
M  V30 1569 H 148.185 2.54081 -2.98245 0
M  V30 1570 H 149.882 2.29591 -3.28769 0
M  V30 1571 H 146.472 1.13746 -4.13231 0
M  V30 1572 H 150.656 0.567554 -4.93044 0
M  V30 1573 H 145.912 -0.210233 -6.11038 0
M  V30 1574 H 150.086 -0.774133 -6.92084 0
M  V30 1575 H 147.713 -1.16903 -7.51158 0
M  V30 1576 N 149.288 1.51039 0.449983 0
M  V30 1577 C 150.251 1.70863 1.5277 0
M  V30 1578 C 151.251 0.578846 1.5002 0
M  V30 1579 O 152.441 0.846213 1.52266 0
M  V30 1580 C 149.573 1.75341 2.9235 0
M  V30 1581 H 150.766 2.67034 1.36502 0
M  V30 1582 H 148.319 1.40838 0.677812 0
M  V30 1583 H 149.054 0.809383 3.14037 0
M  V30 1584 H 148.839 2.57436 2.95752 0
M  V30 1585 H 150.329 1.92559 3.70555 0
M  V30 1586 N 150.766 -0.704594 1.40972 0
M  V30 1587 C 152.043 -1.45847 1.30338 0
M  V30 1588 C 152.423 -2.10973 -0.0732344 0
M  V30 1589 O 151.771 -2.00997 -1.08685 0
M  V30 1590 C 151.981 -2.48525 2.45023 0
M  V30 1591 C 153.329 -3.1404 2.8577 0
M  V30 1592 O 154.353 -2.58848 2.44696 0
M  V30 1593 O 153.212 -4.13981 3.56766 0
M  V30 1594 H 150.306 -0.649092 0.512454 0
M  V30 1595 H 152.852 -0.735836 1.52917 0
M  V30 1596 H 151.624 -1.98994 3.36923 0
M  V30 1597 H 151.247 -3.2831 2.24272 0
M  V30 1598 N 152.244 -1.26651 -0.937939 0
M  V30 1599 C 153.49 -1.12553 -1.687 0
M  V30 1600 C 153.823 0.329782 -1.91379 0
M  V30 1601 O 153.098 1.24202 -1.4968 0
M  V30 1602 C 153.381 -1.89862 -3.05981 0
M  V30 1603 C 153.234 -3.43318 -2.90607 0
M  V30 1604 C 154.553 -1.69499 -4.0615 0
M  V30 1605 H 151.672 -0.410257 -0.612257 0
M  V30 1606 H 154.314 -1.55685 -1.08913 0
M  V30 1607 H 152.464 -1.53204 -3.57017 0
M  V30 1608 H 154.136 -3.89747 -2.46769 0
M  V30 1609 H 152.379 -3.70179 -2.26164 0
M  V30 1610 H 153.05 -3.92642 -3.8799 0
M  V30 1611 H 155.526 -2.01442 -3.64088 0
M  V30 1612 H 154.402 -2.26002 -5.00214 0
M  V30 1613 H 154.663 -0.640365 -4.37438 0
M  V30 1614 N 153.722 1.14298 -1.08507 0
M  V30 1615 C 154.968 1.85633 -0.816581 0
M  V30 1616 C 155.301 1.82784 0.656021 0
M  V30 1617 O 154.576 1.25926 1.48233 0
M  V30 1618 C 154.859 3.34223 -1.34041 0
M  V30 1619 C 154.712 3.45639 -2.87843 0
M  V30 1620 C 156.031 4.29356 -0.9665 0
M  V30 1621 H 153.15 0.67402 -0.298104 0
M  V30 1622 H 155.792 1.34214 -1.34487 0
M  V30 1623 H 153.942 3.78144 -0.89104 0
M  V30 1624 H 155.614 3.10498 -3.41158 0
M  V30 1625 H 153.857 2.86817 -3.25451 0
M  V30 1626 H 154.528 4.50089 -3.19569 0
M  V30 1627 H 157.004 3.93457 -1.35391 0
M  V30 1628 H 155.88 5.3178 -1.3602 0
M  V30 1629 H 156.141 4.41919 0.126362 0
M  V30 1630 N 155.201 0.870884 1.31352 0
M  V30 1631 C 156.149 0.316445 2.30437 0
M  V30 1632 C 157.143 -0.568965 1.59559 0
M  V30 1633 O 158.349 -0.454964 1.74155 0
M  V30 1634 H 154.724 0.0836521 0.747333 0
M  V30 1635 H 156.695 1.16606 2.74673 0
M  V30 1636 C 155.444 -0.46635 3.44558 0
M  V30 1637 H 154.767 0.205687 3.99271 0
M  V30 1638 H 156.207 -0.819614 4.16003 0
M  V30 1639 C 154.666 -1.65797 2.9328 0
M  V30 1640 O 155.196 -2.75728 2.92125 0
M  V30 1641 N 153.402 -1.49041 2.4947 0
M  V30 1642 H 152.949 -0.59612 2.50608 0
M  V30 1643 H 152.907 -2.28911 2.15516 0
M  V30 1644 N 156.679 -1.44442 0.630414 0
M  V30 1645 C 157.904 -2.06927 0.139944 0
M  V30 1646 C 158.329 -1.46795 -1.17613 0
M  V30 1647 O 157.687 -0.569144 -1.72135 0
M  V30 1648 C 157.735 -3.6058 0.0379581 0
M  V30 1649 O 156.839 -3.99937 -1.0062 0
M  V30 1650 H 156.18 -0.658608 0.0844483 0
M  V30 1651 H 158.71 -1.85327 0.866891 0
M  V30 1652 H 158.72 -4.07714 -0.152856 0
M  V30 1653 H 157.395 -4.03728 0.998809 0
M  V30 1654 H 155.972 -3.64436 -0.79001 0
M  V30 1655 N 158.157 -0.370918 -1.53173 0
M  V30 1656 C 159.405 0.216673 -2.00935 0
M  V30 1657 C 159.726 1.48845 -1.25977 0
M  V30 1658 O 158.996 1.92286 -0.374551 0
M  V30 1659 H 157.576 0.0830565 -0.742368 0
M  V30 1660 H 160.238 -0.49838 -1.8842 0
M  V30 1661 H 159.334 0.439893 -3.08984 0
M  V30 1662 N 159.635 1.57281 -0.100228 0
M  V30 1663 C 160.86 1.99302 0.573881 0
M  V30 1664 C 161.285 0.979059 1.60611 0
M  V30 1665 O 160.643 -0.0517803 1.81226 0
M  V30 1666 C 160.691 3.40274 1.19358 0
M  V30 1667 O 159.795 3.41676 2.30935 0
M  V30 1668 H 159.136 0.647944 0.145138 0
M  V30 1669 H 161.666 2.03779 -0.183156 0
M  V30 1670 H 161.676 3.78078 1.53365 0
M  V30 1671 H 160.351 4.13594 0.437385 0
M  V30 1672 H 158.928 3.15672 1.98509 0
M  V30 1673 N 161.113 -0.173488 1.56642 0
M  V30 1674 C 162.343 -0.904781 1.85734 0
M  V30 1675 C 162.751 -1.76431 0.68328 0
M  V30 1676 O 162.094 -1.802 -0.356865 0
M  V30 1677 C 162.156 -1.83382 3.09211 0
M  V30 1678 C 161.82 -1.15411 4.42187 0
M  V30 1679 C 162.817 -0.520609 5.17287 0
M  V30 1680 C 160.502 -1.15151 4.88923 0
M  V30 1681 C 162.496 0.106412 6.37311 0
M  V30 1682 C 160.183 -0.520664 6.08878 0
M  V30 1683 C 161.181 0.107196 6.82916 0
M  V30 1684 O 160.869 0.728102 8.00596 0
M  V30 1685 H 160.601 -0.268408 0.62043 0
M  V30 1686 H 163.155 -0.179096 2.04618 0
M  V30 1687 H 161.385 -2.59976 2.86268 0
M  V30 1688 H 163.074 -2.43476 3.24768 0
M  V30 1689 H 163.84 -0.514606 4.82262 0
M  V30 1690 H 159.719 -1.62961 4.31236 0
M  V30 1691 H 163.263 0.597081 6.9504 0
M  V30 1692 H 159.16 -0.524242 6.43368 0
M  V30 1693 H 159.928 0.627138 8.16094 0
M  V30 1694 N 162.591 -1.51276 -0.441967 0
M  V30 1695 C 163.541 -1.6864 -1.53442 0
M  V30 1696 C 164.525 -0.540444 -1.51552 0
M  V30 1697 O 165.717 -0.796157 -1.58083 0
M  V30 1698 C 162.846 -1.8106 -2.91672 0
M  V30 1699 C 161.932 -3.01424 -2.98336 0
M  V30 1700 N 162.323 -4.2467 -2.74752 0
M  V30 1701 C 160.621 -3.00584 -3.29493 0
M  V30 1702 C 161.322 -5.05891 -2.87139 0
M  V30 1703 N 160.298 -4.40442 -3.18609 0
M  V30 1704 H 164.1 -2.61598 -1.33954 0
M  V30 1705 H 161.614 -1.4886 -0.6492 0
M  V30 1706 H 163.611 -1.91609 -3.70259 0
M  V30 1707 H 162.271 -0.892795 -3.12185 0
M  V30 1708 H 163.282 -4.53691 -2.49769 0
M  V30 1709 H 159.959 -2.18417 -3.55809 0
M  V30 1710 H 161.349 -6.13983 -2.72899 0
M  V30 1711 N 164.069 0.697108 -1.41344 0
M  V30 1712 C 165.001 1.8224 -1.39001 0
M  V30 1713 C 166.014 1.60152 -0.292428 0
M  V30 1714 O 167.203 1.69684 -0.554048 0
M  V30 1715 C 164.303 3.18976 -1.14489 0
M  V30 1716 C 163.476 3.68105 -2.36258 0
M  V30 1717 C 162.535 4.83506 -2.07625 0
M  V30 1718 O 161.561 4.95201 -2.8065 0
M  V30 1719 N 162.763 5.70637 -1.06555 0
M  V30 1720 H 165.528 1.84742 -2.35988 0
M  V30 1721 H 163.089 0.87937 -1.35936 0
M  V30 1722 H 165.081 3.93801 -0.932885 0
M  V30 1723 H 163.651 3.11508 -0.261043 0
M  V30 1724 H 162.871 2.84204 -2.7317 0
M  V30 1725 H 164.159 3.97667 -3.17393 0
M  V30 1726 H 163.557 5.63817 -0.461125 0
M  V30 1727 H 162.114 6.45368 -0.913444 0
M  V30 1728 N 165.547 1.27147 0.931209 0
M  V30 1729 C 166.51 1.09615 2.01289 0
M  V30 1730 C 167.51 0.0412581 1.60747 0
M  V30 1731 O 168.7 0.285545 1.71844 0
M  V30 1732 C 165.832 0.669447 3.34262 0
M  V30 1733 H 167.025 2.05662 2.18273 0
M  V30 1734 H 164.578 1.09885 1.11153 0
M  V30 1735 H 165.313 -0.292572 3.22978 0
M  V30 1736 H 165.098 1.43127 3.65044 0
M  V30 1737 H 166.588 0.568921 4.13706 0
M  V30 1738 N 167.025 -1.13721 1.09112 0
M  V30 1739 C 168.274 -1.84275 0.82009 0
M  V30 1740 C 168.587 -1.84253 -0.656509 0
M  V30 1741 O 169.793 -2.50668 -1.04296 0
M  V30 1742 C 168.249 -3.30825 1.41714 0
M  V30 1743 C 167.857 -3.39244 2.92605 0
M  V30 1744 C 169.601 -4.06443 1.22492 0
M  V30 1745 C 167.508 -4.80047 3.45411 0
M  V30 1746 H 166.438 -0.690387 0.30312 0
M  V30 1747 H 169.089 -1.28146 1.31343 0
M  V30 1748 H 167.471 -3.86737 0.851498 0
M  V30 1749 H 168.645 -2.93344 3.55367 0
M  V30 1750 H 166.96 -2.77088 3.10823 0
M  V30 1751 H 169.557 -5.10387 1.59402 0
M  V30 1752 H 169.9 -4.15972 0.165299 0
M  V30 1753 H 170.433 -3.56852 1.75788 0
M  V30 1754 H 167.172 -4.75709 4.50978 0
M  V30 1755 H 166.692 -5.26455 2.87411 0
M  V30 1756 H 168.371 -5.48957 3.42425 0
M  V30 1757 N 168.503 -0.877838 -1.30888 0
M  V30 1758 C 169.433 -0.35534 -2.3078 0
M  V30 1759 C 170.414 0.557994 -1.60687 0
M  V30 1760 O 171.599 0.473355 -1.88343 0
M  V30 1761 C 168.729 0.437221 -3.44537 0
M  V30 1762 C 167.683 -0.383715 -4.26276 0
M  V30 1763 C 167.009 0.535014 -5.32017 0
M  V30 1764 C 168.309 -1.62201 -4.96476 0
M  V30 1765 H 170.003 -1.19007 -2.74732 0
M  V30 1766 H 167.549 -0.573698 -1.32078 0
M  V30 1767 H 169.502 0.813334 -4.13477 0
M  V30 1768 H 168.226 1.30553 -2.99372 0
M  V30 1769 H 166.885 -0.741874 -3.59015 0
M  V30 1770 H 166.533 1.40083 -4.831 0
M  V30 1771 H 166.233 -0.0104211 -5.87599 0
M  V30 1772 H 167.757 0.907799 -6.03814 0
M  V30 1773 H 169.171 -1.31689 -5.5797 0
M  V30 1774 H 167.568 -2.10711 -5.61891 0
M  V30 1775 H 168.638 -2.37044 -4.23011 0
M  V30 1776 N 169.982 1.44106 -0.638065 0
M  V30 1777 C 171.259 1.95453 -0.0759321 0
M  V30 1778 C 171.639 1.57984 1.40015 0
M  V30 1779 O 170.987 0.857361 2.11806 0
M  V30 1780 C 171.197 3.47655 -0.306132 0
M  V30 1781 C 172.545 4.24114 -0.203008 0
M  V30 1782 O 173.569 3.55405 -0.237871 0
M  V30 1783 O 172.428 5.46381 -0.113827 0
M  V30 1784 H 169.522 0.826797 0.0183332 0
M  V30 1785 H 172.068 1.54122 -0.710251 0
M  V30 1786 H 170.84 3.68 -1.3301 0
M  V30 1787 H 170.463 3.95949 0.361991 0
M  V30 1788 N 171.46 0.379036 1.52974 0
M  V30 1789 C 172.688 -0.20679 2.05864 0
M  V30 1790 C 173.103 -1.41356 1.25155 0
M  V30 1791 O 172.46 -1.8009 0.295588 0
M  V30 1792 C 172.511 -0.587045 3.56702 0
M  V30 1793 O 172.232 0.571776 4.34353 0
M  V30 1794 C 173.733 -1.22983 4.25899 0
M  V30 1795 H 170.953 -0.0336123 0.670158 0
M  V30 1796 H 173.497 0.541298 1.97206 0
M  V30 1797 H 171.652 -1.28504 3.65466 0
M  V30 1798 H 172.066 0.261544 5.23847 0
M  V30 1799 H 173.54 -1.44635 5.32715 0
M  V30 1800 H 174.017 -2.19416 3.80465 0
M  V30 1801 H 174.623 -0.572892 4.21424 0
M  V30 1802 N 172.938 -1.57226 0.108567 0
M  V30 1803 C 174.349 -1.8195 -0.418464 0
M  V30 1804 C 174.7 -1.02508 -1.67292 0
M  V30 1805 O 173.825 -0.258496 -2.14851 0
M  V30 1806 C 174.42 -3.30028 -0.765979 0
M  V30 1807 C 172.979 -3.55469 -1.23769 0
M  V30 1808 C 172.126 -2.7625 -0.241106 0
M  V30 1809 H 175.077 -1.55149 0.33384 0
M  V30 1810 H 175.098 -3.44086 -1.62434 0
M  V30 1811 H 174.61 -3.87821 0.147219 0
M  V30 1812 H 172.711 -3.03022 -2.16814 0
M  V30 1813 H 172.824 -4.6408 -1.19022 0
M  V30 1814 H 171.188 -2.44133 -0.72602 0
M  V30 1815 H 171.971 -3.36797 0.665007 0
M  V30 1816 N 174.416 0.165178 -1.56732 0
M  V30 1817 C 175.364 1.22369 -1.97809 0
M  V30 1818 C 176.358 1.45488 -0.867741 0
M  V30 1819 O 177.564 1.45995 -1.05288 0
M  V30 1820 H 173.939 0.411486 -0.629431 0
M  V30 1821 H 175.91 0.850425 -2.86025 0
M  V30 1822 C 174.659 2.55403 -2.35934 0
M  V30 1823 H 173.982 2.38438 -3.20916 0
M  V30 1824 H 175.422 3.2814 -2.68514 0
M  V30 1825 C 173.881 3.14611 -1.20506 0
M  V30 1826 O 174.411 3.98626 -0.496016 0
M  V30 1827 N 172.617 2.7379 -0.97403 0
M  V30 1828 H 172.164 2.0557 -1.55238 0
M  V30 1829 H 172.122 3.1374 -0.203573 0
M  V30 1830 N 175.894 1.51508 0.433938 0
M  V30 1831 C 177.305 1.56784 1.01369 0
M  V30 1832 C 177.656 0.393349 1.92217 0
M  V30 1833 O 176.781 -0.489441 2.10792 0
M  V30 1834 C 177.376 2.84144 1.8452 0
M  V30 1835 C 175.935 2.9198 2.37539 0
M  V30 1836 C 175.082 2.51482 1.16843 0
M  V30 1837 H 178.033 1.57236 0.215081 0
M  V30 1838 H 178.054 2.68098 2.70007 0
M  V30 1839 H 177.566 3.69607 1.18373 0
M  V30 1840 H 175.667 2.10955 3.0713 0
M  V30 1841 H 175.78 3.95704 2.70103 0
M  V30 1842 H 174.144 2.04758 1.51481 0
M  V30 1843 H 174.927 3.39293 0.523015 0
M  V30 1844 N 177.372 -0.689602 1.41712 0
M  V30 1845 C 178.6 -1.47827 1.44758 0
M  V30 1846 C 179.015 -1.88721 0.0545703 0
M  V30 1847 O 178.372 -1.57176 -0.927463 0
M  V30 1848 C 178.423 -2.73698 2.3616 0
M  V30 1849 O 178.144 -2.34524 3.7004 0
M  V30 1850 C 179.645 -3.67389 2.48072 0
M  V30 1851 H 176.865 -0.455357 0.49284 0
M  V30 1852 H 179.409 -0.848574 1.86063 0
M  V30 1853 H 177.564 -3.32891 1.98148 0
M  V30 1854 H 177.978 -3.15701 4.18847 0
M  V30 1855 H 179.452 -4.52475 3.16181 0
M  V30 1856 H 179.929 -4.12284 1.51388 0
M  V30 1857 H 180.535 -3.14097 2.86746 0
M  V30 1858 N 178.85 -1.27639 -0.924453 0
M  V30 1859 C 180.266 -1.05113 -1.20097 0
M  V30 1860 C 180.466 0.213262 -2.00368 0
M  V30 1861 O 179.522 0.91787 -2.35226 0
M  V30 1862 C 180.835 -2.29244 -1.94596 0
M  V30 1863 C 182.383 -2.34315 -2.07522 0
M  V30 1864 C 182.858 -3.58183 -2.85427 0
M  V30 1865 N 184.349 -3.5876 -2.92994 0
M  V30 1866 C 185.084 -4.51277 -3.53746 0
M  V30 1867 N 184.58 -5.54102 -4.15863 0
M  V30 1868 N 186.373 -4.38894 -3.51181 0
M  V30 1869 H 178.524 -2.08821 -0.388264 0
M  V30 1870 H 180.787 -0.918568 -0.234385 0
M  V30 1871 H 180.493 -3.21301 -1.43034 0
M  V30 1872 H 180.367 -2.34816 -2.95197 0
M  V30 1873 H 182.754 -1.42762 -2.58269 0
M  V30 1874 H 182.835 -2.32744 -1.06131 0
M  V30 1875 H 182.479 -4.50074 -2.35363 0
M  V30 1876 H 182.409 -3.57006 -3.8711 0
M  V30 1877 H 184.9 -2.84398 -2.4885 0
M  V30 1878 H 185.213 -6.20859 -4.60168 0
M  V30 1879 H 183.558 -5.57941 -4.144 0
M  V30 1880 H 186.749 -3.57772 -3.01856 0
M  V30 1881 H 186.922 -5.11186 -3.98237 0
M  V30 1882 N 180.328 1.1314 -1.09713 0
M  V30 1883 C 181.291 2.16831 -0.742751 0
M  V30 1884 C 182.291 1.59159 0.229129 0
M  V30 1885 O 183.481 1.74199 0.00693237 0
M  V30 1886 C 180.613 3.40756 -0.0989168 0
M  V30 1887 H 181.806 2.49695 -1.66109 0
M  V30 1888 H 179.359 1.2802 -0.896699 0
M  V30 1889 H 180.094 3.13485 0.830514 0
M  V30 1890 H 179.879 3.83888 -0.798265 0
M  V30 1891 H 181.369 4.17386 0.133524 0
M  V30 1892 N 181.806 0.884767 1.30421 0
M  V30 1893 C 183.217 0.553656 1.78302 0
M  V30 1894 C 183.568 -0.930153 1.7275 0
M  V30 1895 O 182.693 -1.72681 1.30423 0
M  V30 1896 C 183.288 0.998234 3.2376 0
M  V30 1897 C 181.847 0.71854 3.69478 0
M  V30 1898 C 180.994 1.18132 2.50879 0
M  V30 1899 H 183.945 1.06901 1.17294 0
M  V30 1900 H 183.966 0.327118 3.79091 0
M  V30 1901 H 183.478 2.0782 3.27769 0
M  V30 1902 H 181.579 -0.349444 3.70958 0
M  V30 1903 H 181.692 1.30595 4.60958 0
M  V30 1904 H 180.056 0.600669 2.47516 0
M  V30 1905 H 180.839 2.26902 2.57624 0
M  V30 1906 N 183.284 -1.43765 0.645699 0
M  V30 1907 C 184.214 -2.33471 -0.0370477 0
M  V30 1908 C 185.195 -1.49042 -0.819779 0
M  V30 1909 O 186.38 -1.77726 -0.782758 0
M  V30 1910 C 183.51 -3.32311 -1.0093 0
M  V30 1911 C 182.464 -4.2667 -0.337201 0
M  V30 1912 C 181.79 -5.1549 -1.42037 0
M  V30 1913 C 183.09 -5.16657 0.765706 0
M  V30 1914 H 184.784 -2.90809 0.712069 0
M  V30 1915 H 182.33 -1.39834 0.343876 0
M  V30 1916 H 184.283 -3.9396 -1.49578 0
M  V30 1917 H 183.007 -2.73213 -1.78948 0
M  V30 1918 H 181.666 -3.66374 0.128771 0
M  V30 1919 H 181.314 -4.52735 -2.1918 0
M  V30 1920 H 181.014 -5.79438 -0.975966 0
M  V30 1921 H 182.538 -5.80012 -1.90838 0
M  V30 1922 H 183.952 -5.72158 0.361702 0
M  V30 1923 H 182.349 -5.89286 1.13413 0
M  V30 1924 H 183.419 -4.56796 1.62683 0
M  V30 1925 N 184.763 -0.387143 -1.52771 0
M  V30 1926 C 186.174 0.0873634 -1.86495 0
M  V30 1927 C 186.525 1.46336 -1.30691 0
M  V30 1928 O 185.65 2.068 -0.637409 0
M  V30 1929 C 186.245 0.165305 -3.38396 0
M  V30 1930 C 184.804 0.584101 -3.7184 0
M  V30 1931 C 183.951 -0.255279 -2.76122 0
M  V30 1932 H 186.902 -0.605104 -1.46711 0
M  V30 1933 H 186.923 0.984848 -3.67534 0
M  V30 1934 H 186.435 -0.836301 -3.78982 0
M  V30 1935 H 184.536 1.59315 -3.36823 0
M  V30 1936 H 184.649 0.343749 -4.77865 0
M  V30 1937 H 183.013 0.279126 -2.53166 0
M  V30 1938 H 183.796 -1.25482 -3.19545 0
M  V30 1939 N 186.241 1.57166 -0.116904 0
M  V30 1940 C 187.188 2.15202 0.83408 0
M  V30 1941 C 188.158 1.07644 1.26499 0
M  V30 1942 O 189.343 1.35541 1.34288 0
M  V30 1943 C 186.483 2.75405 2.07957 0
M  V30 1944 C 185.596 3.97264 1.69721 0
M  V30 1945 C 184.731 4.45561 2.89221 0
M  V30 1946 C 183.77 5.59956 2.47215 0
M  V30 1947 N 182.907 6.03006 3.59622 0
M  V30 1948 H 187.747 2.96141 0.332335 0
M  V30 1949 H 185.284 1.46309 0.152349 0
M  V30 1950 H 187.242 3.08439 2.80929 0
M  V30 1951 H 185.872 1.97159 2.55594 0
M  V30 1952 H 184.924 3.70404 0.866316 0
M  V30 1953 H 186.236 4.80226 1.34849 0
M  V30 1954 H 185.39 4.80493 3.7042 0
M  V30 1955 H 184.129 3.61544 3.27318 0
M  V30 1956 H 183.134 5.2463 1.64448 0
M  V30 1957 H 184.359 6.45738 2.10238 0
M  V30 1958 H 182.305 5.21931 3.97396 0
M  V30 1959 H 182.222 6.80819 3.28667 0
M  V30 1960 H 183.49 6.42576 4.41267 0
M  V30 1961 N 187.719 -0.156864 1.56817 0
M  V30 1962 C 189.13 -0.717916 1.72345 0
M  V30 1963 C 189.481 -1.82124 0.729747 0
M  V30 1964 O 188.606 -2.16141 -0.105781 0
M  V30 1965 C 189.201 -1.30904 3.12489 0
M  V30 1966 C 187.76 -1.81676 3.29653 0
M  V30 1967 C 186.907 -0.701349 2.68284 0
M  V30 1968 H 189.858 0.0686989 1.58551 0
M  V30 1969 H 189.879 -2.17882 3.11942 0
M  V30 1970 H 189.391 -0.505796 3.8479 0
M  V30 1971 H 187.492 -2.64598 2.62333 0
M  V30 1972 H 187.605 -1.95226 4.3752 0
M  V30 1973 H 185.969 -1.12548 2.28484 0
M  V30 1974 H 186.752 0.0902846 3.43181 0
M  V30 1975 N 189.197 -1.51736 -0.425897 0
M  V30 1976 C 190.474 -1.55519 -1.1863 0
M  V30 1977 C 190.854 -0.326219 -2.08564 0
M  V30 1978 O 190.202 0.688012 -2.17896 0
M  V30 1979 C 190.412 -2.87521 -1.9782 0
M  V30 1980 C 191.76 -3.39899 -2.54468 0
M  V30 1981 O 192.784 -2.89148 -2.08019 0
M  V30 1982 O 191.643 -4.2848 -3.39215 0
M  V30 1983 H 188.737 -0.625739 -0.540721 0
M  V30 1984 H 191.283 -1.64055 -0.434038 0
M  V30 1985 H 190.055 -3.68422 -1.31836 0
M  V30 1986 H 189.678 -2.822 -2.80088 0
M  V30 1987 N 190.675 0.682077 -1.42076 0
M  V30 1988 C 191.924 1.43786 -1.41451 0
M  V30 1989 C 192.237 1.95574 -0.0317074 0
M  V30 1990 O 193.443 2.71326 0.0971462 0
M  V30 1991 C 191.899 2.60071 -2.48779 0
M  V30 1992 C 191.507 2.15013 -3.93031 0
M  V30 1993 C 193.251 3.37626 -2.57311 0
M  V30 1994 C 191.158 3.28336 -4.91883 0
M  V30 1995 H 190.088 0.540143 -0.526082 0
M  V30 1996 H 192.739 0.739157 -1.67955 0
M  V30 1997 H 191.121 3.32275 -2.15429 0
M  V30 1998 H 192.295 1.5001 -4.35699 0
M  V30 1999 H 190.61 1.50416 -3.88284 0
M  V30 2000 H 193.207 4.22012 -3.28345 0
M  V30 2001 H 193.55 3.83727 -1.61429 0
M  V30 2002 H 194.083 2.72488 -2.89819 0
M  V30 2003 H 190.822 2.87234 -5.89217 0
M  V30 2004 H 190.342 3.92145 -4.53853 0
M  V30 2005 H 192.021 3.93913 -5.13265 0
M  V30 2006 N 192.153 1.28127 0.917671 0
M  V30 2007 C 193.569 1.05749 1.19538 0
M  V30 2008 C 193.769 -0.202633 2.00479 0
M  V30 2009 O 192.825 -0.905382 2.3571 0
M  V30 2010 C 194.138 2.30273 1.93378 0
M  V30 2011 C 195.686 2.35412 2.06277 0
M  V30 2012 C 196.161 3.59692 2.83524 0
M  V30 2013 N 197.652 3.60309 2.91087 0
M  V30 2014 C 198.387 4.53147 3.51348 0
M  V30 2015 N 197.883 5.563 4.12919 0
M  V30 2016 N 199.676 4.40751 3.48849 0
M  V30 2017 H 191.827 2.09024 0.377184 0
M  V30 2018 H 194.09 0.919798 0.22951 0
M  V30 2019 H 193.796 3.22055 1.41328 0
M  V30 2020 H 193.67 2.36378 2.93947 0
M  V30 2021 H 196.057 1.4413 2.57508 0
M  V30 2022 H 196.138 2.33304 1.04895 0
M  V30 2023 H 195.782 4.51316 2.32973 0
M  V30 2024 H 195.712 3.59054 3.85211 0
M  V30 2025 H 198.203 2.85714 2.47338 0
M  V30 2026 H 198.516 6.2329 4.56869 0
M  V30 2027 H 196.861 5.60131 4.11435 0
M  V30 2028 H 200.052 3.59367 2.99955 0
M  V30 2029 H 200.225 5.13291 3.9552 0
M  V30 2030 N 193.631 -1.12557 1.10312 0
M  V30 2031 C 195.047 -1.36036 0.834649 0
M  V30 2032 C 195.247 -1.93946 -0.546539 0
M  V30 2033 O 194.303 -2.16484 -1.29966 0
M  V30 2034 C 195.616 -2.30312 1.9333 0
M  V30 2035 C 197.164 -2.43906 1.9616 0
M  V30 2036 C 197.639 -3.41496 3.05195 0
M  V30 2037 N 199.13 -3.49053 3.04494 0
M  V30 2038 C 199.865 -4.24471 3.85502 0
M  V30 2039 N 199.361 -5.02966 4.76442 0
M  V30 2040 N 201.154 -4.19864 3.73725 0
M  V30 2041 H 193.305 -0.733246 1.99342 0
M  V30 2042 H 195.568 -0.385234 0.866198 0
M  V30 2043 H 195.274 -1.94933 2.92735 0
M  V30 2044 H 195.148 -3.30421 1.81939 0
M  V30 2045 H 197.535 -2.78567 0.973886 0
M  V30 2046 H 197.616 -1.4369 2.11629 0
M  V30 2047 H 197.26 -3.07565 4.04186 0
M  V30 2048 H 197.19 -4.41539 2.86968 0
M  V30 2049 H 199.681 -2.93053 2.38596 0
M  V30 2050 H 199.994 -5.57846 5.34815 0
M  V30 2051 H 198.339 -5.02167 4.80472 0
M  V30 2052 H 201.53 -3.57623 3.02032 0
M  V30 2053 H 201.703 -4.78386 4.37093 0
M  V30 2054 N 195.109 -0.891671 -1.2995 0
M  V30 2055 C 196.041 -0.320695 -2.26945 0
M  V30 2056 C 197.054 0.528497 -1.53983 0
M  V30 2057 O 198.243 0.346959 -1.75096 0
M  V30 2058 C 195.343 0.562066 -3.34207 0
M  V30 2059 C 194.516 -0.259576 -4.36629 0
M  V30 2060 C 193.575 0.554739 -5.23268 0
M  V30 2061 O 192.601 -0.0249311 -5.69195 0
M  V30 2062 N 193.803 1.8625 -5.4981 0
M  V30 2063 H 196.568 -1.15432 -2.76578 0
M  V30 2064 H 194.129 -0.755336 -1.432 0
M  V30 2065 H 196.121 1.11304 -3.89093 0
M  V30 2066 H 194.691 1.29637 -2.84452 0
M  V30 2067 H 193.911 -0.991986 -3.81514 0
M  V30 2068 H 195.199 -0.822564 -5.02107 0
M  V30 2069 H 194.597 2.35628 -5.14292 0
M  V30 2070 H 193.154 2.36078 -6.07545 0
M  V30 2071 N 196.587 1.43421 -0.653314 0
M  V30 2072 C 197.519 2.29071 0.0769134 0
M  V30 2073 C 198.532 1.42513 0.787017 0
M  V30 2074 O 199.721 1.66449 0.644757 0
M  V30 2075 C 196.821 3.19436 1.13199 0
M  V30 2076 C 195.994 4.34533 0.500006 0
M  V30 2077 C 195.053 5.05771 1.45198 0
M  V30 2078 O 194.079 5.61037 0.960538 0
M  V30 2079 N 195.281 5.0928 2.78594 0
M  V30 2080 H 198.046 2.92382 -0.658235 0
M  V30 2081 H 195.607 1.54112 -0.496104 0
M  V30 2082 H 197.599 3.63958 1.76964 0
M  V30 2083 H 196.169 2.57724 1.7691 0
M  V30 2084 H 195.389 3.92925 -0.316738 0
M  V30 2085 H 196.677 5.08766 0.0588345 0
M  V30 2086 H 196.075 4.65751 3.2108 0
M  V30 2087 H 194.632 5.57519 3.37662 0
M  V30 2088 N 198.065 0.39524 1.52563 0
M  V30 2089 C 199.314 -0.186321 2.00838 0
M  V30 2090 C 199.627 -1.47402 1.28577 0
M  V30 2091 O 200.833 -2.13599 1.67593 0
M  V30 2092 C 199.289 -0.382595 3.57861 0
M  V30 2093 C 198.897 0.892202 4.39026 0
M  V30 2094 C 200.641 -0.9202 4.14406 0
M  V30 2095 C 198.548 0.66388 5.87662 0
M  V30 2096 H 197.478 -0.0734041 0.750418 0
M  V30 2097 H 200.129 0.518552 1.76021 0
M  V30 2098 H 198.511 -1.14946 3.7895 0
M  V30 2099 H 199.685 1.66414 4.29701 0
M  V30 2100 H 198 1.35519 3.9373 0
M  V30 2101 H 200.597 -1.10683 5.23119 0
M  V30 2102 H 200.94 -1.89096 3.70875 0
M  V30 2103 H 201.473 -0.212751 3.97231 0
M  V30 2104 H 198.212 1.6058 6.35527 0
M  V30 2105 H 197.732 -0.0690193 5.9976 0
M  V30 2106 H 199.411 0.300699 6.46301 0
M  V30 2107 N 199.544 -1.57102 0.125237 0
M  V30 2108 C 200.507 -2.14471 -0.80838 0
M  V30 2109 C 201.507 -1.0811 -1.19033 0
M  V30 2110 O 202.697 -1.33856 -1.11482 0
M  V30 2111 C 199.829 -2.69005 -2.09402 0
M  V30 2112 H 201.022 -2.98297 -0.309696 0
M  V30 2113 H 198.575 -1.55807 -0.124051 0
M  V30 2114 H 199.31 -1.88785 -2.63687 0
M  V30 2115 H 199.095 -3.46799 -1.82957 0
M  V30 2116 H 200.585 -3.13278 -2.76128 0
M  V30 2117 N 201.022 0.148545 -1.56898 0
M  V30 2118 C 201.952 1.18524 -2.01182 0
M  V30 2119 C 202.933 1.4489 -0.891123 0
M  V30 2120 O 204.118 1.55836 -1.15882 0
M  V30 2121 C 201.248 2.51879 -2.39112 0
M  V30 2122 C 200.202 2.40038 -3.54353 0
M  V30 2123 C 199.528 3.78089 -3.78091 0
M  V30 2124 C 200.828 1.88577 -4.87069 0
M  V30 2125 H 202.522 0.817029 -2.88036 0
M  V30 2126 H 200.068 0.391575 -1.38574 0
M  V30 2127 H 202.021 3.24627 -2.68692 0
M  V30 2128 H 200.745 2.90532 -1.49193 0
M  V30 2129 H 199.404 1.69742 -3.24936 0
M  V30 2130 H 199.052 4.14175 -2.85426 0
M  V30 2131 H 198.752 3.71028 -4.55645 0
M  V30 2132 H 200.276 4.52387 -4.10095 0
M  V30 2133 H 201.69 2.51117 -5.15377 0
M  V30 2134 H 200.087 1.9241 -5.68417 0
M  V30 2135 H 201.157 0.84136 -4.77545 0
M  V30 2136 N 202.5 1.5196 0.417844 0
M  V30 2137 C 203.748 1.65263 1.16329 0
M  V30 2138 C 204.069 0.380634 1.91249 0
M  V30 2139 O 203.339 -0.604214 1.86349 0
M  V30 2140 H 201.919 0.60912 0.432414 0
M  V30 2141 H 204.581 1.88969 0.477162 0
M  V30 2142 H 203.677 2.4896 1.88217 0
M  V30 2143 N 203.978 -0.674533 1.42435 0
M  V30 2144 C 205.389 -1.25514 1.38214 0
M  V30 2145 C 205.74 -1.96055 0.0755464 0
M  V30 2146 O 204.865 -2.00028 -0.8257 0
M  V30 2147 C 205.46 -2.28269 2.50357 0
M  V30 2148 C 204.019 -2.81856 2.49467 0
M  V30 2149 C 203.166 -1.56182 2.29134 0
M  V30 2150 H 206.117 -0.467902 1.51646 0
M  V30 2151 H 206.138 -3.10009 2.20624 0
M  V30 2152 H 205.65 -1.769 3.45439 0
M  V30 2153 H 203.751 -3.37346 1.58204 0
M  V30 2154 H 203.864 -3.30854 3.46515 0
M  V30 2155 H 202.228 -1.82761 1.774 0
M  V30 2156 H 203.011 -1.06778 3.26272 0
M  V30 2157 N 205.456 -1.28612 -0.910864 0
M  V30 2158 C 206.702 -1.16106 -1.66274 0
M  V30 2159 C 207.035 0.289113 -1.92036 0
M  V30 2160 O 206.31 1.21 -1.52281 0
M  V30 2161 C 206.593 -1.96309 -3.01885 0
M  V30 2162 C 206.446 -3.49405 -2.8326 0
M  V30 2163 C 207.765 -1.78076 -4.02463 0
M  V30 2164 H 204.884 -0.423152 -0.603417 0
M  V30 2165 H 207.526 -1.57961 -1.05586 0
M  V30 2166 H 205.676 -1.60742 -3.53687 0
M  V30 2167 H 207.348 -3.94894 -2.38446 0
M  V30 2168 H 205.591 -3.74893 -2.18261 0
M  V30 2169 H 206.262 -4.00784 -3.79574 0
M  V30 2170 H 208.738 -2.0912 -3.59733 0
M  V30 2171 H 207.614 -2.36561 -4.95308 0
M  V30 2172 H 207.875 -0.733008 -4.35981 0
M  V30 2173 N 206.934 1.1197 -1.10907 0
M  V30 2174 C 207.897 2.16031 -0.765707 0
M  V30 2175 C 208.897 1.59393 0.212235 0
M  V30 2176 O 210.087 1.74196 -0.0115441 0
M  V30 2177 C 207.219 3.40632 -0.135053 0
M  V30 2178 H 208.412 2.47919 -1.68748 0
M  V30 2179 H 205.965 1.27061 -0.910226 0
M  V30 2180 H 206.7 3.14348 0.797218 0
M  V30 2181 H 206.485 3.8302 -0.838937 0
M  V30 2182 H 207.975 4.17505 0.0892469 0
M  V30 2183 N 208.412 0.89855 1.29475 0
M  V30 2184 C 209.658 0.524658 1.95896 0
M  V30 2185 C 209.991 -0.926468 1.70676 0
M  V30 2186 O 209.266 -1.65665 1.01908 0
M  V30 2187 C 209.549 0.81633 3.50725 0
M  V30 2188 C 209.402 2.31907 3.85408 0
M  V30 2189 C 210.721 0.302038 4.39062 0
M  V30 2190 H 207.84 0.19209 0.711527 0
M  V30 2191 H 210.482 1.12502 1.53112 0
M  V30 2192 H 208.632 0.305369 3.87298 0
M  V30 2193 H 210.304 2.89949 3.58786 0
M  V30 2194 H 208.547 2.78027 3.32992 0
M  V30 2195 H 209.218 2.47373 4.93468 0
M  V30 2196 H 211.694 0.739551 4.09475 0
M  V30 2197 H 210.57 0.535331 5.46283 0
M  V30 2198 H 210.831 -0.797216 4.34853 0
M  V30 2199 N 209.89 -1.43072 0.660911 0
M  V30 2200 C 211.137 -2.01721 0.177445 0
M  V30 2201 C 211.465 -1.5218 -1.21126 0
M  V30 2202 O 210.72 -0.708659 -1.82419 0
M  V30 2203 C 211.019 -3.57103 0.145563 0
M  V30 2204 C 210.685 -4.26021 1.47705 0
M  V30 2205 C 209.347 -4.44563 1.84165 0
M  V30 2206 C 211.699 -4.64983 2.35458 0
M  V30 2207 C 209.027 -4.99334 3.0803 0
M  V30 2208 C 211.379 -5.21127 3.58622 0
M  V30 2209 C 210.043 -5.37884 3.95268 0
M  V30 2210 H 209.313 -0.73815 0.0649317 0
M  V30 2211 H 211.96 -1.71446 0.853144 0
M  V30 2212 H 210.265 -3.86965 -0.61361 0
M  V30 2213 H 211.962 -4.00248 -0.2455 0
M  V30 2214 H 208.552 -4.11939 1.18339 0
M  V30 2215 H 212.736 -4.50343 2.08579 0
M  V30 2216 H 207.992 -5.10493 3.36462 0
M  V30 2217 H 212.166 -5.50262 4.26831 0
M  V30 2218 H 209.793 -5.80089 4.91325 0
M  V30 2219 N 211.368 -0.403325 -1.52352 0
M  V30 2220 C 212.616 0.174003 -2.0135 0
M  V30 2221 C 212.937 1.46139 -1.29106 0
M  V30 2222 O 212.207 1.91448 -0.415253 0
M  V30 2223 H 210.787 0.0672911 -0.743963 0
M  V30 2224 H 213.449 -0.538235 -1.87321 0
M  V30 2225 H 212.545 0.374254 -3.09848 0
M  V30 2226 N 212.846 1.57033 -0.133567 0
M  V30 2227 C 213.809 2.14897 0.796995 0
M  V30 2228 C 214.809 1.0874 1.18458 0
M  V30 2229 O 215.999 1.34446 1.1077 0
M  V30 2230 C 213.131 2.70112 2.07973 0
M  V30 2231 H 214.324 2.98457 0.293873 0
M  V30 2232 H 211.877 1.55871 0.115787 0
M  V30 2233 H 212.612 1.9018 2.62682 0
M  V30 2234 H 212.397 3.47764 1.81115 0
M  V30 2235 H 213.887 3.14738 2.74462 0
M  V30 2236 N 214.325 -0.140222 1.56975 0
M  V30 2237 C 215.55 -0.870414 1.88251 0
M  V30 2238 C 215.975 -1.73637 0.723312 0
M  V30 2239 O 215.333 -1.78329 -0.32689 0
M  V30 2240 C 215.381 -1.69737 3.18154 0
M  V30 2241 O 214.485 -2.80229 3.02565 0
M  V30 2242 H 213.826 -0.242025 0.61832 0
M  V30 2243 H 216.356 -0.128999 2.04193 0
M  V30 2244 H 216.366 -2.09099 3.50345 0
M  V30 2245 H 215.041 -1.06152 4.02125 0
M  V30 2246 H 213.618 -2.44224 2.81796 0
M  V30 2247 N 215.803 -1.52179 -0.40978 0
M  V30 2248 C 216.751 -1.76086 -1.51975 0
M  V30 2249 C 217.745 -0.627964 -1.57331 0
M  V30 2250 O 218.951 -0.809993 -1.60745 0
M  V30 2251 H 215.326 -0.556829 -0.505416 0
M  V30 2252 H 217.297 -2.69077 -1.28996 0
M  V30 2253 C 216.046 -1.92799 -2.8935 0
M  V30 2254 H 215.369 -2.79392 -2.85972 0
M  V30 2255 H 216.809 -2.13527 -3.66309 0
M  V30 2256 C 215.268 -0.694923 -3.29655 0
M  V30 2257 O 215.798 0.13751 -4.01465 0
M  V30 2258 N 214.004 -0.53101 -2.85707 0
M  V30 2259 H 213.551 -1.20952 -2.27439 0
M  V30 2260 H 213.509 0.292718 -3.13034 0
M  V30 2261 N 217.281 0.66697 -1.42791 0
M  V30 2262 C 218.528 1.42699 -1.43678 0
M  V30 2263 C 218.856 1.94419 -0.0560425 0
M  V30 2264 O 218.111 1.7182 0.936831 0
M  V30 2265 C 218.41 2.6349 -2.4147 0
M  V30 2266 C 218.076 2.30267 -3.8767 0
M  V30 2267 C 216.738 2.20918 -4.27491 0
M  V30 2268 C 219.09 2.03435 -4.79858 0
M  V30 2269 C 216.418 1.82873 -5.57471 0
M  V30 2270 C 218.77 1.66892 -6.10188 0
M  V30 2271 C 217.434 1.56058 -6.49001 0
M  V30 2272 H 216.704 0.522171 -0.525755 0
M  V30 2273 H 219.351 0.759785 -1.75783 0
M  V30 2274 H 217.656 3.35279 -2.0272 0
M  V30 2275 H 219.353 3.21684 -2.39417 0
M  V30 2276 H 215.943 2.38449 -3.56146 0
M  V30 2277 H 220.127 2.09586 -4.49875 0
M  V30 2278 H 215.383 1.7306 -5.86396 0
M  V30 2279 H 219.557 1.45157 -6.81104 0
M  V30 2280 H 217.184 1.26348 -7.49627 0
M  V30 2281 N 218.759 1.29093 0.90403 0
M  V30 2282 C 220.17 1.15186 1.46932 0
M  V30 2283 C 220.521 -0.254587 1.94541 0
M  V30 2284 O 219.646 -1.14972 1.83332 0
M  V30 2285 C 220.241 2.08492 2.67051 0
M  V30 2286 C 218.8 1.98621 3.19729 0
M  V30 2287 C 217.947 1.9967 1.92425 0
M  V30 2288 H 220.898 1.41641 0.715789 0
M  V30 2289 H 220.919 1.65461 3.42641 0
M  V30 2290 H 220.431 3.10847 2.3237 0
M  V30 2291 H 218.532 0.993389 3.59114 0
M  V30 2292 H 218.645 2.86068 3.8432 0
M  V30 2293 H 217.009 1.44208 2.09943 0
M  V30 2294 H 217.792 3.03721 1.60026 0
M  V30 2295 N 220.237 -1.11381 1.11499 0
M  V30 2296 C 221.167 -2.19509 0.796125 0
M  V30 2297 C 222.148 -1.68458 -0.235796 0
M  V30 2298 O 223.333 -1.93947 -0.0991344 0
M  V30 2299 C 220.463 -3.46475 0.239205 0
M  V30 2300 C 219.417 -4.10744 1.20307 0
M  V30 2301 C 218.743 -5.32293 0.50683 0
M  V30 2302 C 220.043 -4.55597 2.55399 0
M  V30 2303 H 221.737 -2.46439 1.70024 0
M  V30 2304 H 219.283 -1.18446 0.818935 0
M  V30 2305 H 221.236 -4.214 0.00392006 0
M  V30 2306 H 219.96 -3.19006 -0.700206 0
M  V30 2307 H 218.619 -3.37813 1.42399 0
M  V30 2308 H 218.267 -5.01095 -0.437408 0
M  V30 2309 H 217.967 -5.76243 1.1497 0
M  V30 2310 H 219.491 -6.09956 0.280351 0
M  V30 2311 H 220.905 -5.21841 2.37391 0
M  V30 2312 H 219.302 -5.10363 3.15673 0
M  V30 2313 H 220.372 -3.69013 3.14575 0
M  V30 2314 N 221.715 -0.905404 -1.28997 0
M  V30 2315 C 222.678 -0.392253 -2.25819 0
M  V30 2316 C 223.678 0.476753 -1.5357 0
M  V30 2317 O 224.868 0.280994 -1.71919 0
M  V30 2318 C 222 0.438588 -3.38067 0
M  V30 2319 H 223.193 -1.24743 -2.72725 0
M  V30 2320 H 220.746 -0.684051 -1.40536 0
M  V30 2321 H 221.481 1.31352 -2.96508 0
M  V30 2322 H 221.266 -0.184167 -3.91667 0
M  V30 2323 H 222.756 0.78873 -4.10084 0
M  V30 2324 N 223.193 1.4272 -0.668489 0
M  V30 2325 C 224.44 2.01624 -0.18814 0
M  V30 2326 C 224.768 1.5282 1.20317 0
M  V30 2327 O 224.023 0.718323 1.8204 0
M  V30 2328 C 224.322 3.57021 -0.164499 0
M  V30 2329 C 223.988 4.25232 -1.49962 0
M  V30 2330 C 222.65 4.4358 -1.8652 0
M  V30 2331 C 225.002 4.63727 -2.37921 0
M  V30 2332 C 222.33 4.97694 -3.10674 0
M  V30 2333 C 224.682 5.19218 -3.6138 0
M  V30 2334 C 223.346 5.3578 -3.98115 0
M  V30 2335 H 222.616 0.737795 -0.0688454 0
M  V30 2336 H 225.263 1.70991 -0.862225 0
M  V30 2337 H 223.568 3.87285 0.593079 0
M  V30 2338 H 225.265 4.00372 0.224271 0
M  V30 2339 H 221.855 4.11306 -1.20522 0
M  V30 2340 H 226.039 4.4923 -2.10964 0
M  V30 2341 H 221.295 5.08702 -3.39164 0
M  V30 2342 H 225.469 5.4799 -4.29743 0
M  V30 2343 H 223.096 5.77475 -4.94395 0
M  V30 2344 N 224.671 0.411399 1.52136 0
M  V30 2345 C 225.896 -0.165538 2.06738 0
M  V30 2346 C 226.321 -1.379 1.27926 0
M  V30 2347 O 225.679 -1.78628 0.310114 0
M  V30 2348 C 225.727 -0.492124 3.57226 0
M  V30 2349 O 224.831 -1.58276 3.80818 0
M  V30 2350 H 224.172 -0.0132132 0.663869 0
M  V30 2351 H 226.702 0.585253 1.96051 0
M  V30 2352 H 226.712 -0.750104 4.01045 0
M  V30 2353 H 225.387 0.394922 4.14021 0
M  V30 2354 H 223.964 -1.31677 3.48877 0
M  V30 2355 N 226.149 -1.5696 0.141893 0
M  V30 2356 C 227.112 -2.15316 -0.785587 0
M  V30 2357 C 228.112 -1.09366 -1.1788 0
M  V30 2358 O 229.302 -1.35031 -1.10056 0
M  V30 2359 C 226.434 -2.71211 -2.06537 0
M  V30 2360 H 227.627 -2.98608 -0.278041 0
M  V30 2361 H 225.18 -1.5593 -0.107519 0
M  V30 2362 H 225.915 -1.91571 -2.6167 0
M  V30 2363 H 225.7 -3.4872 -1.79268 0
M  V30 2364 H 227.19 -3.16189 -2.72789 0
M  V30 2365 N 227.627 0.131896 -1.57047 0
M  V30 2366 C 228.59 1.14638 -1.98471 0
M  V30 2367 C 229.59 1.35029 -0.873148 0
M  V30 2368 O 230.78 1.31764 -1.13946 0
M  V30 2369 C 227.912 2.50358 -2.31373 0
M  V30 2370 H 229.105 0.79064 -2.8929 0
M  V30 2371 H 226.658 0.375761 -1.51716 0
M  V30 2372 H 227.393 2.90876 -1.43393 0
M  V30 2373 H 227.178 2.36915 -3.12432 0
M  V30 2374 H 228.668 3.23395 -2.64207 0
M  V30 2375 N 229.106 1.52395 0.401703 0
M  V30 2376 C 230.354 1.66488 1.14569 0
M  V30 2377 C 230.675 0.400897 1.90835 0
M  V30 2378 O 229.945 -0.584415 1.8698 0
M  V30 2379 H 228.525 0.613672 0.425929 0
M  V30 2380 H 231.187 1.89464 0.457093 0
M  V30 2381 H 230.283 2.50942 1.85566 0
M  V30 2382 N 230.584 -0.659388 1.43143 0
M  V30 2383 C 231.832 -1.41654 1.44147 0
M  V30 2384 C 232.153 -1.94893 0.0645739 0
M  V30 2385 O 231.423 -1.74044 -0.899198 0
M  V30 2386 H 230.003 -0.525708 0.530697 0
M  V30 2387 H 232.665 -0.778097 1.78694 0
M  V30 2388 H 231.761 -2.26195 2.1504 0
M  V30 2389 N 232.062 -1.29571 -0.897171 0
M  V30 2390 C 233.339 -1.08365 -1.62839 0
M  V30 2391 C 233.719 0.371331 -2.07808 0
M  V30 2392 O 233.067 1.3606 -1.83576 0
M  V30 2393 C 233.277 -2.0735 -2.80726 0
M  V30 2394 C 234.625 -2.38406 -3.51351 0
M  V30 2395 O 235.649 -2.05564 -2.90898 0
M  V30 2396 O 234.508 -2.9453 -4.60341 0
M  V30 2397 H 231.602 -0.415345 -0.715134 0
M  V30 2398 H 234.148 -1.40952 -0.945018 0
M  V30 2399 H 232.92 -3.05339 -2.44711 0
M  V30 2400 H 232.543 -1.75507 -3.56767 0
M  V30 2401 N 233.54 1.10788 -1.12088 0
M  V30 2402 C 234.768 1.86461 -0.896651 0
M  V30 2403 C 235.183 1.80492 0.553912 0
M  V30 2404 O 234.54 1.19102 1.38278 0
M  V30 2405 C 234.591 3.35006 -1.35843 0
M  V30 2406 O 234.312 3.40866 -2.75213 0
M  V30 2407 C 235.813 4.27565 -1.1706 0
M  V30 2408 H 233.033 0.589425 -0.320654 0
M  V30 2409 H 235.577 1.40076 -1.48993 0
M  V30 2410 H 233.732 3.7887 -0.808458 0
M  V30 2411 H 234.146 4.33411 -2.9539 0
M  V30 2412 H 235.62 5.30007 -1.54263 0
M  V30 2413 H 236.097 4.3906 -0.110814 0
M  V30 2414 H 236.703 3.89501 -1.70789 0
M  V30 2415 N 235.018 0.912232 1.28515 0
M  V30 2416 C 235.981 0.404223 2.25607 0
M  V30 2417 C 236.981 -0.468602 1.53821 0
M  V30 2418 O 238.171 -0.271873 1.72065 0
M  V30 2419 C 235.303 -0.420653 3.38295 0
M  V30 2420 H 236.496 1.26188 2.7206 0
M  V30 2421 H 234.049 0.691495 1.40171 0
M  V30 2422 H 234.784 -1.29777 2.97201 0
M  V30 2423 H 234.569 0.204935 3.91564 0
M  V30 2424 H 236.059 -0.766971 4.10496 0
M  V30 2425 N 236.496 -1.42363 0.676048 0
M  V30 2426 C 237.721 -2.06377 0.205705 0
M  V30 2427 C 238.146 -1.50463 -1.12883 0
M  V30 2428 O 237.504 -0.623619 -1.70237 0
M  V30 2429 C 237.552 -3.60277 0.152655 0
M  V30 2430 O 236.656 -4.02935 -0.87845 0
M  V30 2431 H 235.997 -0.655588 0.105359 0
M  V30 2432 H 238.527 -1.82475 0.925412 0
M  V30 2433 H 238.537 -4.07993 -0.0230675 0
M  V30 2434 H 237.212 -4.00346 1.12675 0
M  V30 2435 H 235.789 -3.66764 -0.673668 0
M  V30 2436 N 237.974 -0.419461 -1.51915 0
M  V30 2437 C 238.937 0.389116 -2.25873 0
M  V30 2438 C 239.937 0.964924 -1.28631 0
M  V30 2439 O 241.127 0.842179 -1.52489 0
M  V30 2440 C 238.259 1.54874 -3.03689 0
M  V30 2441 H 239.452 -0.258799 -2.98781 0
M  V30 2442 H 237.005 -0.172209 -1.55348 0
M  V30 2443 H 237.74 2.23323 -2.35154 0
M  V30 2444 H 237.525 1.14223 -3.75094 0
M  V30 2445 H 239.015 2.12046 -3.59759 0
M  V30 2446 N 239.452 1.56882 -0.150215 0
M  V30 2447 C 240.382 2.19935 0.784284 0
M  V30 2448 C 241.363 1.14854 1.25469 0
M  V30 2449 O 242.548 1.43209 1.31168 0
M  V30 2450 C 239.678 2.82349 2.02229 0
M  V30 2451 C 238.632 3.93285 1.68853 0
M  V30 2452 C 237.958 4.42649 2.99944 0
M  V30 2453 C 239.258 5.13904 0.932714 0
M  V30 2454 H 240.952 2.9828 0.258781 0
M  V30 2455 H 238.498 1.43473 0.123029 0
M  V30 2456 H 240.451 3.25126 2.68088 0
M  V30 2457 H 239.175 2.0134 2.57157 0
M  V30 2458 H 237.834 3.5113 1.05371 0
M  V30 2459 H 237.482 3.58458 3.52869 0
M  V30 2460 H 237.182 5.17476 2.78374 0
M  V30 2461 H 238.706 4.88099 3.66868 0
M  V30 2462 H 240.12 5.53506 1.49345 0
M  V30 2463 H 238.517 5.94515 0.81684 0
M  V30 2464 H 239.587 4.84842 -0.0749568 0
M  V30 2465 N 240.93 -0.123565 1.57115 0
M  V30 2466 C 241.893 -1.13583 1.99076 0
M  V30 2467 C 242.893 -1.34564 0.880296 0
M  V30 2468 O 244.083 -1.31158 1.14644 0
M  V30 2469 C 241.215 -2.49128 2.32698 0
M  V30 2470 H 242.408 -0.775287 2.89706 0
M  V30 2471 H 239.961 -0.36771 1.51913 0
M  V30 2472 H 240.696 -2.90111 1.44934 0
M  V30 2473 H 240.481 -2.35255 3.13684 0
M  V30 2474 H 241.971 -3.2199 2.65918 0
M  V30 2475 N 242.408 -1.52605 -0.393616 0
M  V30 2476 C 243.371 -1.76415 -1.46323 0
M  V30 2477 C 244.371 -0.634126 -1.47768 0
M  V30 2478 O 245.561 -0.902142 -1.4902 0
M  V30 2479 C 242.693 -1.8607 -2.85641 0
M  V30 2480 H 243.886 -2.71916 -1.26498 0
M  V30 2481 H 241.439 -1.43257 -0.625073 0
M  V30 2482 H 242.174 -0.925378 -3.10817 0
M  V30 2483 H 241.959 -2.68235 -2.85993 0
M  V30 2484 H 243.449 -2.06179 -3.63153 0
M  V30 2485 N 243.887 0.651787 -1.4349 0
M  V30 2486 C 245.135 1.40888 -1.44897 0
M  V30 2487 C 245.456 1.94856 -0.0749086 0
M  V30 2488 O 244.726 1.74518 0.889956 0
M  V30 2489 H 243.306 0.522887 -0.533478 0
M  V30 2490 H 245.968 0.768609 -1.79104 0
M  V30 2491 H 245.064 2.25052 -2.16236 0
M  V30 2492 N 245.365 1.30045 0.890287 0
M  V30 2493 C 246.605 1.19839 1.65584 0
M  V30 2494 C 246.969 -0.244175 1.90441 0
M  V30 2495 O 248.17 -0.469378 2.6467 0
M  V30 2496 C 246.441 1.99876 2.96284 0
M  V30 2497 S 248 2.06309 3.87275 0
M  V30 2498 H 244.818 0.427157 0.568382 0
M  V30 2499 H 247.42 1.64453 1.05715 0
M  V30 2500 H 246.124 3.03809 2.75913 0
M  V30 2501 H 245.655 1.55903 3.61189 0
M  V30 2502 H 247.67 1.18661 4.81803 0
M  V30 2503 N 246.843 -1.10192 1.12674 0
M  V30 2504 C 248.254 -1.63707 0.897604 0
M  V30 2505 C 248.605 -1.87812 -0.567546 0
M  V30 2506 O 247.73 -1.62196 -1.43253 0
M  V30 2507 C 248.325 -2.974 1.62292 0
M  V30 2508 C 246.884 -3.47772 1.43986 0
M  V30 2509 C 246.031 -2.22332 1.65722 0
M  V30 2510 H 248.982 -0.936587 1.28116 0
M  V30 2511 H 249.003 -3.64986 1.07541 0
M  V30 2512 H 248.515 -2.79824 2.68924 0
M  V30 2513 H 246.616 -3.70487 0.396206 0
M  V30 2514 H 246.729 -4.25723 2.19765 0
M  V30 2515 H 245.093 -2.30599 1.08149 0
M  V30 2516 H 245.876 -2.07285 2.73657 0
M  V30 2517 N 248.321 -0.919034 -1.28029 0
M  V30 2518 C 249.567 -0.555757 -1.95036 0
M  V30 2519 C 249.9 0.899198 -1.72128 0
M  V30 2520 O 249.175 1.64023 -1.04531 0
M  V30 2521 C 249.458 -0.872024 -3.49382 0
M  V30 2522 C 249.311 -2.3801 -3.81669 0
M  V30 2523 C 250.63 -0.37185 -4.38526 0
M  V30 2524 H 247.749 -0.203386 -0.708381 0
M  V30 2525 H 250.391 -1.14924 -1.51303 0
M  V30 2526 H 248.541 -0.366946 -3.86763 0
M  V30 2527 H 250.213 -2.9562 -3.54128 0
M  V30 2528 H 248.456 -2.83289 -3.28526 0
M  V30 2529 H 249.127 -2.55192 -4.8947 0
M  V30 2530 H 251.603 -0.804602 -4.08247 0
M  V30 2531 H 250.479 -0.622173 -5.45362 0
M  V30 2532 H 250.74 0.727934 -4.36066 0
M  V30 2533 N 249.799 1.42003 -0.683588 0
M  V30 2534 C 251.048 2.00638 -0.206681 0
M  V30 2535 C 251.361 1.5472 1.19671 0
M  V30 2536 O 252.567 2.05833 1.77045 0
M  V30 2537 C 251.023 3.58487 -0.318632 0
M  V30 2538 C 250.631 4.1339 -1.72663 0
M  V30 2539 C 252.375 4.24384 0.0991141 0
M  V30 2540 C 250.282 5.63633 -1.79087 0
M  V30 2541 H 249.212 0.750408 -0.0735107 0
M  V30 2542 H 251.863 1.62624 -0.850048 0
M  V30 2543 H 250.245 3.94047 0.392781 0
M  V30 2544 H 251.419 3.89273 -2.46583 0
M  V30 2545 H 249.734 3.59976 -2.09299 0
M  V30 2546 H 252.331 5.34652 0.0713833 0
M  V30 2547 H 252.674 4.00505 1.13586 0
M  V30 2548 H 253.207 3.93816 -0.561599 0
M  V30 2549 H 249.946 5.92323 -2.80774 0
M  V30 2550 H 249.466 5.89714 -1.09535 0
M  V30 2551 H 251.145 6.28201 -1.5483 0
M  V30 2552 N 251.277 0.427512 1.51691 0
M  V30 2553 C 252.523 -0.142439 2.02299 0
M  V30 2554 C 252.856 -1.43214 1.31162 0
M  V30 2555 O 252.131 -1.89833 0.423511 0
M  V30 2556 C 252.414 -0.371301 3.58181 0
M  V30 2557 C 252.267 0.936358 4.39946 0
M  V30 2558 C 253.586 -1.14542 4.24933 0
M  V30 2559 H 250.705 -0.0502937 0.735282 0
M  V30 2560 H 253.347 0.564584 1.81418 0
M  V30 2561 H 251.497 -0.973559 3.76104 0
M  V30 2562 H 253.169 1.57184 4.33694 0
M  V30 2563 H 251.412 1.5432 4.05423 0
M  V30 2564 H 252.083 0.730388 5.47147 0
M  V30 2565 H 254.559 -0.635362 4.11221 0
M  V30 2566 H 253.435 -1.27431 5.33903 0
M  V30 2567 H 253.696 -2.17093 3.85127 0
M  V30 2568 N 252.755 -1.56801 0.158532 0
M  V30 2569 C 253.702 -2.17337 -0.776729 0
M  V30 2570 C 254.672 -1.1096 -1.23601 0
M  V30 2571 O 255.857 -1.39054 -1.30647 0
M  V30 2572 C 252.997 -2.80822 -2.00582 0
M  V30 2573 C 252.11 -4.01624 -1.59129 0
M  V30 2574 C 251.245 -4.53072 -2.77306 0
M  V30 2575 C 250.284 -5.66314 -2.32282 0
M  V30 2576 N 249.421 -6.12329 -3.43508 0
M  V30 2577 H 254.261 -2.96918 -0.253701 0
M  V30 2578 H 251.798 -1.46661 -0.113504 0
M  V30 2579 H 253.756 -3.15779 -2.72652 0
M  V30 2580 H 252.386 -2.03866 -2.50277 0
M  V30 2581 H 251.438 -3.72571 -0.767806 0
M  V30 2582 H 252.75 -4.83633 -1.2207 0
M  V30 2583 H 251.904 -4.90145 -3.57551 0
M  V30 2584 H 250.643 -3.70095 -3.17617 0
M  V30 2585 H 249.648 -5.28806 -1.5048 0
M  V30 2586 H 250.873 -6.51085 -1.93043 0
M  V30 2587 H 248.819 -5.32284 -3.83418 0
M  V30 2588 H 248.736 -6.89293 -3.105 0
M  V30 2589 H 250.004 -6.5405 -4.24075 0
M  V30 2590 N 254.233 0.115231 -1.57178 0
M  V30 2591 C 255.481 0.820727 -1.84685 0
M  V30 2592 C 255.802 1.80237 -0.744279 0
M  V30 2593 O 255.072 1.94529 0.231375 0
M  V30 2594 H 253.652 0.306084 -0.681411 0
M  V30 2595 H 256.314 0.101656 -1.94635 0
M  V30 2596 H 255.41 1.36366 -2.80733 0
M  V30 2597 N 255.711 1.52812 0.385517 0
M  V30 2598 C 256.661 1.74219 1.47078 0
M  V30 2599 C 257.645 0.59632 1.49442 0
M  V30 2600 O 258.837 0.85428 1.5502 0
M  V30 2601 C 255.966 1.9176 2.84751 0
M  V30 2602 C 255.052 3.12289 2.86943 0
M  V30 2603 N 255.443 4.34575 2.58802 0
M  V30 2604 C 253.741 3.12605 3.1811 0
M  V30 2605 C 254.442 5.162 2.68166 0
M  V30 2606 N 253.418 4.51964 3.02043 0
M  V30 2607 H 257.22 2.6639 1.24152 0
M  V30 2608 H 254.734 1.51166 0.593504 0
M  V30 2609 H 256.731 2.05218 3.62893 0
M  V30 2610 H 255.391 1.00805 3.08656 0
M  V30 2611 H 256.402 4.62649 2.32759 0
M  V30 2612 H 253.079 2.31472 3.47458 0
M  V30 2613 H 254.469 6.23689 2.49923 0
M  V30 2614 N 257.189 -0.644168 1.43834 0
M  V30 2615 C 258.417 -1.43147 1.49387 0
M  V30 2616 C 258.832 -1.88452 0.114583 0
M  V30 2617 O 258.189 -1.60047 -0.876989 0
M  V30 2618 C 258.24 -2.66046 2.44748 0
M  V30 2619 O 257.961 -2.22633 3.77314 0
M  V30 2620 C 259.462 -3.59311 2.59635 0
M  V30 2621 H 256.682 -0.439447 0.507077 0
M  V30 2622 H 259.226 -0.78895 1.88669 0
M  V30 2623 H 257.381 -3.26418 2.08638 0
M  V30 2624 H 257.795 -3.02216 4.28679 0
M  V30 2625 H 259.269 -4.42187 3.30416 0
M  V30 2626 H 259.746 -4.07259 1.64427 0
M  V30 2627 H 260.352 -3.04816 2.96593 0
M  V30 2628 N 258.668 -1.30515 -0.883378 0
M  V30 2629 C 259.631 -1.1701 -1.97082 0
M  V30 2630 C 260.631 -0.10089 -1.60483 0
M  V30 2631 O 261.821 -0.349127 -1.70666 0
M  V30 2632 C 258.953 -0.793045 -3.31547 0
M  V30 2633 H 260.146 -2.13622 -2.10489 0
M  V30 2634 H 257.699 -1.13935 -1.06998 0
M  V30 2635 H 258.434 0.172499 -3.23841 0
M  V30 2636 H 258.219 -1.56576 -3.5948 0
M  V30 2637 H 259.709 -0.722073 -4.1131 0
M  V30 2638 N 260.146 1.09593 -1.13257 0
M  V30 2639 C 261.096 2.14345 -0.777179 0
M  V30 2640 C 262.08 1.59277 0.227966 0
M  V30 2641 O 263.272 1.76971 0.0321413 0
M  V30 2642 C 260.401 3.42439 -0.242991 0
M  V30 2643 C 259.487 4.04419 -1.27694 0
M  V30 2644 N 259.878 4.40979 -2.47732 0
M  V30 2645 C 258.176 4.31596 -1.12432 0
M  V30 2646 C 258.877 4.89784 -3.13826 0
M  V30 2647 N 257.853 4.87133 -2.41252 0
M  V30 2648 H 261.655 2.40415 -1.69049 0
M  V30 2649 H 259.169 1.26803 -1.01463 0
M  V30 2650 H 261.166 4.16889 0.0298496 0
M  V30 2651 H 259.826 3.17824 0.66467 0
M  V30 2652 H 260.837 4.32396 -2.85051 0
M  V30 2653 H 257.514 4.16595 -0.274684 0
M  V30 2654 H 258.904 5.2755 -4.16102 0
M  V30 2655 N 261.624 0.925811 1.2754 0
M  V30 2656 C 263.035 0.610102 1.7645 0
M  V30 2657 C 263.386 -0.874723 1.75622 0
M  V30 2658 O 262.511 -1.68444 1.35851 0
M  V30 2659 C 263.106 1.10073 3.20421 0
M  V30 2660 C 261.665 0.835723 3.67005 0
M  V30 2661 C 260.812 1.26054 2.46993 0
M  V30 2662 H 263.763 1.10579 1.13833 0
M  V30 2663 H 263.784 0.447557 3.77859 0
M  V30 2664 H 263.296 2.18143 3.20991 0
M  V30 2665 H 261.397 -0.231249 3.71882 0
M  V30 2666 H 261.51 1.45193 4.56569 0
M  V30 2667 H 259.874 0.679111 2.45479 0
M  V30 2668 H 260.657 2.34984 2.50275 0
M  V30 2669 N 263.102 -1.41638 0.69111 0
M  V30 2670 C 264.35 -2.00902 0.219758 0
M  V30 2671 C 264.671 -1.54994 -1.18329 0
M  V30 2672 O 263.941 -0.778628 -1.79762 0
M  V30 2673 H 262.521 -0.74289 0.0782558 0
M  V30 2674 H 265.183 -1.73327 0.891271 0
M  V30 2675 H 264.279 -3.11224 0.233708 0
M  V30 2676 N 264.58 -0.43555 -1.51462 0
M  V30 2677 C 265.808 0.130242 -2.0649 0
M  V30 2678 C 266.223 1.36614 -1.30315 0
M  V30 2679 O 265.58 1.78869 -0.362223 0
M  V30 2680 C 265.631 0.454253 -3.58635 0
M  V30 2681 O 265.352 -0.73259 -4.31931 0
M  V30 2682 C 266.853 1.07091 -4.3017 0
M  V30 2683 H 264.073 0.00871669 -0.670943 0
M  V30 2684 H 266.617 -0.614117 -1.95061 0
M  V30 2685 H 264.772 1.14851 -3.69984 0
M  V30 2686 H 265.186 -0.455787 -5.22516 0
M  V30 2687 H 266.66 1.24764 -5.37716 0
M  V30 2688 H 267.137 2.05144 -3.88346 0
M  V30 2689 H 267.743 0.416089 -4.2326 0
M  V30 2690 N 266.058 1.56714 -0.166846 0
M  V30 2691 C 267.283 2.01557 0.488833 0
M  V30 2692 C 267.708 1.0463 1.56314 0
M  V30 2693 O 267.066 0.0251304 1.81283 0
M  V30 2694 C 267.114 3.4503 1.04818 0
M  V30 2695 O 266.218 3.51163 2.16236 0
M  V30 2696 H 265.559 0.653516 0.117526 0
M  V30 2697 H 268.089 2.02818 -0.269421 0
M  V30 2698 H 268.099 3.84243 1.37191 0
M  V30 2699 H 266.774 4.15077 0.261572 0
M  V30 2700 H 265.351 3.23807 1.84942 0
M  V30 2701 N 267.536 -0.106894 1.57237 0
M  V30 2702 C 268.468 -1.15646 1.97885 0
M  V30 2703 C 269.481 -1.36981 0.879779 0
M  V30 2704 O 270.67 -1.35841 1.15799 0
M  V30 2705 C 267.77 -2.51425 2.27241 0
M  V30 2706 C 266.943 -2.50529 3.58545 0
M  V30 2707 C 266.002 -3.68145 3.75973 0
M  V30 2708 O 265.028 -3.51176 4.47956 0
M  V30 2709 N 266.23 -4.87177 3.15656 0
M  V30 2710 H 268.995 -0.81059 2.8853 0
M  V30 2711 H 266.556 -0.296024 1.59171 0
M  V30 2712 H 268.548 -3.28689 2.36105 0
M  V30 2713 H 267.118 -2.78147 1.42663 0
M  V30 2714 H 266.338 -1.58894 3.60758 0
M  V30 2715 H 267.626 -2.46997 4.44826 0
M  V30 2716 H 267.024 -5.03868 2.57165 0
M  V30 2717 H 265.581 -5.62075 3.30023 0
M  V30 2718 N 269.014 -1.53014 -0.377408 0
M  V30 2719 C 270.263 -1.67845 -1.11853 0
M  V30 2720 C 270.576 -0.430625 -1.90801 0
M  V30 2721 O 271.782 -0.459261 -2.67587 0
M  V30 2722 C 270.238 -2.96668 -2.03756 0
M  V30 2723 C 269.846 -4.28671 -1.30175 0
M  V30 2724 C 271.59 -3.20865 -2.77932 0
M  V30 2725 C 269.497 -5.48591 -2.20911 0
M  V30 2726 H 268.427 -0.625343 -0.421263 0
M  V30 2727 H 271.078 -1.79514 -0.380409 0
M  V30 2728 H 269.46 -2.78773 -2.8125 0
M  V30 2729 H 270.634 -4.57157 -0.578259 0
M  V30 2730 H 268.949 -4.10825 -0.679108 0
M  V30 2731 H 271.546 -4.07642 -3.46024 0
M  V30 2732 H 271.889 -2.36424 -3.4265 0
M  V30 2733 H 272.422 -3.39379 -2.07525 0
M  V30 2734 H 269.161 -6.35474 -1.6079 0
M  V30 2735 H 268.681 -5.244 -2.91144 0
M  V30 2736 H 270.36 -5.8292 -2.80736 0
M  V30 2737 N 270.492 0.636531 -1.44174 0
M  V30 2738 C 271.738 1.39826 -1.4689 0
M  V30 2739 C 272.071 1.93947 -0.0990585 0
M  V30 2740 O 271.346 1.73325 0.882544 0
M  V30 2741 C 271.629 2.56751 -2.5249 0
M  V30 2742 C 271.482 2.08014 -3.98811 0
M  V30 2743 C 272.801 3.58946 -2.54649 0
M  V30 2744 H 269.92 0.507075 -0.53483 0
M  V30 2745 H 272.562 0.720188 -1.75822 0
M  V30 2746 H 270.712 3.14597 -2.2795 0
M  V30 2747 H 272.384 1.5504 -4.34466 0
M  V30 2748 H 270.627 1.39242 -4.10846 0
M  V30 2749 H 271.298 2.92169 -4.68339 0
M  V30 2750 H 273.774 3.1089 -2.76563 0
M  V30 2751 H 272.65 4.38286 -3.3045 0
M  V30 2752 H 272.911 4.12655 -1.58646 0
M  V30 2753 N 271.97 1.30982 0.876444 0
M  V30 2754 C 272.933 1.18054 1.96459 0
M  V30 2755 C 273.933 0.109399 1.60427 0
M  V30 2756 O 275.123 0.358173 1.70478 0
M  V30 2757 C 272.255 0.810616 3.31122 0
M  V30 2758 H 273.448 2.14735 2.09354 0
M  V30 2759 H 271.001 1.145 1.06392 0
M  V30 2760 H 271.736 -0.155322 3.23928 0
M  V30 2761 H 271.521 1.58481 3.58645 0
M  V30 2762 H 273.011 0.743876 4.10921 0
M  V30 2763 N 273.449 -1.08991 1.13837 0
M  V30 2764 C 274.359 -2.19301 0.833333 0
M  V30 2765 C 275.375 -1.73026 -0.183847 0
M  V30 2766 O 276.551 -2.01395 -0.0138092 0
M  V30 2767 C 273.616 -3.45323 0.308651 0
M  V30 2768 C 272.677 -4.06255 1.38764 0
M  V30 2769 C 271.91 -5.26262 0.887896 0
M  V30 2770 O 272.133 -5.69747 -0.27287 0
M  V30 2771 O 271.067 -5.78435 1.66421 0
M  V30 2772 H 274.893 -2.47854 1.75506 0
M  V30 2773 H 272.478 -1.18012 0.916166 0
M  V30 2774 H 274.36 -4.21394 0.0216739 0
M  V30 2775 H 273.035 -3.18362 -0.585431 0
M  V30 2776 H 271.942 -3.318 1.72799 0
M  V30 2777 H 273.275 -4.37452 2.25602 0
M  V30 2778 N 274.927 -0.932562 -1.27047 0
M  V30 2779 C 276.167 -0.582919 -1.95912 0
M  V30 2780 C 276.531 0.860629 -1.71631 0
M  V30 2781 O 277.732 1.31878 -2.34225 0
M  V30 2782 C 276.003 -0.905673 -3.45734 0
M  V30 2783 S 277.562 -0.665277 -4.33727 0
M  V30 2784 H 274.38 -0.215 -0.677714 0
M  V30 2785 H 276.982 -1.20204 -1.54179 0
M  V30 2786 H 275.686 -1.95386 -3.60905 0
M  V30 2787 H 275.217 -0.275939 -3.92431 0
M  V30 2788 H 277.232 0.474635 -4.93925 0
M  V30 2789 N 276.405 1.4127 -0.698611 0
M  V30 2790 C 277.654 2.00408 -0.227949 0
M  V30 2791 C 277.967 1.55981 1.18023 0
M  V30 2792 O 279.173 2.07699 1.74852 0
M  V30 2793 C 277.629 3.58129 -0.356636 0
M  V30 2794 C 277.237 4.11536 -1.77037 0
M  V30 2795 C 278.981 4.24466 0.0540969 0
M  V30 2796 C 276.888 5.61701 -1.85055 0
M  V30 2797 H 275.818 0.749586 -0.0814657 0
M  V30 2798 H 278.469 1.61713 -0.867249 0
M  V30 2799 H 276.851 3.94442 0.350965 0
M  V30 2800 H 278.025 3.86636 -2.50698 0
M  V30 2801 H 276.34 3.57736 -2.13105 0
M  V30 2802 H 278.937 5.34698 0.0146723 0
M  V30 2803 H 279.28 4.01687 1.09332 0
M  V30 2804 H 279.813 3.93198 -0.603337 0
M  V30 2805 H 276.552 5.89312 -2.8704 0
M  V30 2806 H 276.072 5.88519 -1.15783 0
M  V30 2807 H 277.751 6.26524 -1.61484 0
M  V30 2808 N 277.883 0.443576 1.51229 0
M  V30 2809 C 278.793 -0.370721 2.31652 0
M  V30 2810 C 279.809 -1.02186 1.40833 0
M  V30 2811 O 280.985 -1.01586 1.73903 0
M  V30 2812 C 278.05 -1.45376 3.14749 0
M  V30 2813 C 277.111 -0.822099 4.21355 0
M  V30 2814 C 276.344 -1.85353 5.0048 0
M  V30 2815 O 276.567 -3.07656 4.80316 0
M  V30 2816 O 275.501 -1.4406 5.84406 0
M  V30 2817 H 279.327 0.286002 3.0235 0
M  V30 2818 H 276.912 0.20598 1.47973 0
M  V30 2819 H 278.794 -2.08173 3.66391 0
M  V30 2820 H 277.469 -2.09445 2.46809 0
M  V30 2821 H 276.376 -0.155909 3.73775 0
M  V30 2822 H 277.709 -0.224797 4.91686 0
M  V30 2823 N 279.361 -1.56624 0.175154 0
M  V30 2824 C 280.293 -2.15333 -0.785128 0
M  V30 2825 C 281.306 -1.1099 -1.19101 0
M  V30 2826 O 282.495 -1.38162 -1.13019 0
M  V30 2827 C 279.595 -2.68427 -2.06882 0
M  V30 2828 C 278.768 -3.97466 -1.8259 0
M  V30 2829 C 277.827 -4.35585 -2.95215 0
M  V30 2830 O 276.853 -5.03389 -2.65684 0
M  V30 2831 N 278.055 -3.97457 -4.23094 0
M  V30 2832 H 280.82 -2.98359 -0.283187 0
M  V30 2833 H 278.381 -1.61898 -0.00749817 0
M  V30 2834 H 280.373 -2.90924 -2.81328 0
M  V30 2835 H 278.943 -1.89968 -2.48256 0
M  V30 2836 H 278.163 -3.83307 -0.920287 0
M  V30 2837 H 279.451 -4.81736 -1.63733 0
M  V30 2838 H 278.849 -3.42878 -4.49945 0
M  V30 2839 H 277.406 -4.24947 -4.9423 0
M  V30 2840 N 280.839 0.0985539 -1.57292 0
M  V30 2841 C 281.802 1.10402 -2.00858 0
M  V30 2842 C 282.802 1.33146 -0.901593 0
M  V30 2843 O 283.992 1.29318 -1.16716 0
M  V30 2844 C 281.124 2.45394 -2.36632 0
M  V30 2845 H 282.317 0.729099 -2.90902 0
M  V30 2846 H 279.87 0.343495 -1.52479 0
M  V30 2847 H 280.605 2.87769 -1.49531 0
M  V30 2848 H 280.39 2.30235 -3.17387 0
M  V30 2849 H 281.88 3.17718 -2.71007 0
M  V30 2850 N 282.317 1.53212 0.369288 0
M  V30 2851 C 283.247 1.82365 1.45826 0
M  V30 2852 C 284.228 0.676907 1.56051 0
M  V30 2853 O 285.413 0.926401 1.70679 0
M  V30 2854 C 282.543 2.01023 2.83208 0
M  V30 2855 C 281.497 3.1678 2.8781 0
M  V30 2856 C 280.823 3.20724 4.27832 0
M  V30 2857 C 282.123 4.55447 2.55667 0
M  V30 2858 H 283.817 2.73559 1.21678 0
M  V30 2859 H 281.363 1.3163 0.583911 0
M  V30 2860 H 283.316 2.20001 3.59413 0
M  V30 2861 H 282.04 1.06536 3.08736 0
M  V30 2862 H 280.699 2.97616 2.14056 0
M  V30 2863 H 280.347 2.23882 4.50429 0
M  V30 2864 H 280.047 3.98496 4.31827 0
M  V30 2865 H 281.571 3.41881 5.05915 0
M  V30 2866 H 282.985 4.74611 3.21586 0
M  V30 2867 H 281.382 5.35432 2.70984 0
M  V30 2868 H 282.452 4.60812 1.5093 0
M  V30 2869 N 283.795 -0.628877 1.44509 0
M  V30 2870 C 284.742 -1.74074 1.51549 0
M  V30 2871 C 285.712 -1.62084 0.363021 0
M  V30 2872 O 286.897 -1.81975 0.573567 0
M  V30 2873 C 284.037 -3.12328 1.46784 0
M  V30 2874 C 283.15 -3.35277 2.72422 0
M  V30 2875 C 282.285 -4.63515 2.59475 0
M  V30 2876 C 281.324 -4.7965 3.80266 0
M  V30 2877 N 280.461 -5.99168 3.65981 0
M  V30 2878 H 285.301 -1.67392 2.46544 0
M  V30 2879 H 282.838 -0.816527 1.22357 0
M  V30 2880 H 284.796 -3.92286 1.42012 0
M  V30 2881 H 283.426 -3.18018 0.553544 0
M  V30 2882 H 282.478 -2.49242 2.87372 0
M  V30 2883 H 283.79 -3.43078 3.62076 0
M  V30 2884 H 282.944 -5.51638 2.52548 0
M  V30 2885 H 281.683 -4.58076 1.67384 0
M  V30 2886 H 280.688 -3.89957 3.87574 0
M  V30 2887 H 281.913 -4.86902 4.73395 0
M  V30 2888 H 279.859 -5.94814 2.76644 0
M  V30 2889 H 279.776 -6.08035 4.49254 0
M  V30 2890 H 281.044 -6.89846 3.6295 0
M  V30 2891 N 285.273 -1.31445 -0.869486 0
M  V30 2892 C 286.205 -1.14955 -1.98287 0
M  V30 2893 C 287.218 -0.0885037 -1.62559 0
M  V30 2894 O 288.407 -0.336044 -1.75308 0
M  V30 2895 C 285.507 -0.734255 -3.3085 0
M  V30 2896 C 284.68 -1.88042 -3.94917 0
M  V30 2897 C 283.739 -1.4511 -5.05796 0
M  V30 2898 O 282.765 -2.16082 -5.2659 0
M  V30 2899 N 283.967 -0.338763 -5.79511 0
M  V30 2900 H 286.732 -2.10856 -2.12979 0
M  V30 2901 H 284.293 -1.23786 -1.04349 0
M  V30 2902 H 286.285 -0.42975 -4.02412 0
M  V30 2903 H 284.855 0.133158 -3.12316 0
M  V30 2904 H 284.075 -2.35222 -3.1633 0
M  V30 2905 H 285.363 -2.6481 -4.34457 0
M  V30 2906 H 284.761 0.252274 -5.65137 0
M  V30 2907 H 283.318 -0.0937925 -6.51733 0
M  V30 2908 N 286.751 1.08385 -1.14413 0
M  V30 2909 C 287.661 2.18856 -0.844951 0
M  V30 2910 C 288.677 1.73121 0.174668 0
M  V30 2911 O 289.853 2.014 0.00312857 0
M  V30 2912 C 286.918 3.45155 -0.32696 0
M  V30 2913 C 285.979 4.05513 -1.40916 0
M  V30 2914 C 285.212 5.25784 -0.915793 0
M  V30 2915 O 285.435 5.69884 0.242651 0
M  V30 2916 O 284.369 5.77545 -1.69487 0
M  V30 2917 H 288.195 2.46919 -1.76818 0
M  V30 2918 H 285.78 1.17524 -0.922411 0
M  V30 2919 H 287.662 4.21377 -0.0440211 0
M  V30 2920 H 286.337 3.18668 0.568539 0
M  V30 2921 H 285.244 3.30879 -1.74556 0
M  V30 2922 H 286.577 4.3625 -2.27919 0
M  V30 2923 N 288.23 0.939286 1.26551 0
M  V30 2924 C 289.162 0.404704 2.25599 0
M  V30 2925 C 290.175 -0.470983 1.55838 0
M  V30 2926 O 291.364 -0.281734 1.76263 0
M  V30 2927 C 288.464 -0.43764 3.36062 0
M  V30 2928 C 287.637 0.421449 4.35365 0
M  V30 2929 C 286.696 -0.36015 5.24966 0
M  V30 2930 O 285.722 0.236167 5.6871 0
M  V30 2931 N 286.924 -1.65715 5.56344 0
M  V30 2932 H 289.689 1.25618 2.72103 0
M  V30 2933 H 287.25 0.807963 1.40298 0
M  V30 2934 H 289.242 -0.967866 3.92956 0
M  V30 2935 H 287.812 -1.18991 2.89067 0
M  V30 2936 H 287.032 1.1329 3.7757 0
M  V30 2937 H 288.32 1.00835 4.98708 0
M  V30 2938 H 287.718 -2.16378 5.22682 0
M  V30 2939 H 286.275 -2.13366 6.15888 0
M  V30 2940 N 289.708 -1.40897 0.706093 0
M  V30 2941 C 290.638 -2.33418 0.0620085 0
M  V30 2942 C 291.619 -1.52385 -0.755827 0
M  V30 2943 O 292.804 -1.80886 -0.706674 0
M  V30 2944 C 289.934 -3.36293 -0.867445 0
M  V30 2945 C 288.888 -4.27716 -0.155932 0
M  V30 2946 C 288.214 -5.2105 -1.20046 0
M  V30 2947 C 289.514 -5.12944 0.984149 0
M  V30 2948 H 291.208 -2.87527 0.83477 0
M  V30 2949 H 288.754 -1.38249 0.402875 0
M  V30 2950 H 290.707 -3.99949 -1.32735 0
M  V30 2951 H 289.431 -2.80556 -1.67199 0
M  V30 2952 H 288.09 -3.65498 0.284047 0
M  V30 2953 H 287.738 -4.61624 -1.99781 0
M  V30 2954 H 287.438 -5.83056 -0.729328 0
M  V30 2955 H 288.962 -5.87584 -1.66066 0
M  V30 2956 H 290.376 -5.70109 0.604048 0
M  V30 2957 H 288.773 -5.83945 1.38304 0
M  V30 2958 H 289.843 -4.49485 1.81911 0
M  V30 2959 N 291.186 -0.45159 -1.50991 0
M  V30 2960 C 292.597 0.00818571 -1.86698 0
M  V30 2961 C 292.948 1.40661 -1.3678 0
M  V30 2962 O 292.073 2.0391 -0.724546 0
M  V30 2963 C 292.668 0.0216303 -3.38793 0
M  V30 2964 C 291.227 0.425865 -3.73983 0
M  V30 2965 C 290.374 -0.372163 -2.74791 0
M  V30 2966 H 293.325 -0.666785 -1.44013 0
M  V30 2967 H 293.346 0.828078 -3.7138 0
M  V30 2968 H 292.858 -0.996288 -3.75094 0
M  V30 2969 H 290.959 1.44886 -3.43277 0
M  V30 2970 H 291.072 0.140761 -4.78893 0
M  V30 2971 H 289.436 0.171498 -2.54122 0
M  V30 2972 H 290.219 -1.38922 -3.13935 0
M  V30 2973 N 292.664 1.56529 -0.183458 0
M  V30 2974 C 293.596 2.15747 0.773697 0
M  V30 2975 C 294.609 1.1162 1.1851 0
M  V30 2976 O 295.798 1.3876 1.12285 0
M  V30 2977 C 292.898 2.6952 2.05456 0
M  V30 2978 C 292.071 3.98429 1.8048 0
M  V30 2979 C 291.13 4.37145 2.92901 0
M  V30 2980 O 290.156 5.04791 2.6301 0
M  V30 2981 N 291.358 3.99695 4.2098 0
M  V30 2982 H 294.123 2.98505 0.26736 0
M  V30 2983 H 291.684 1.619 -0.0010878 0
M  V30 2984 H 293.676 2.92412 2.79781 0
M  V30 2985 H 292.246 1.91282 2.47245 0
M  V30 2986 H 291.466 3.8379 0.899947 0
M  V30 2987 H 292.754 4.82597 1.61175 0
M  V30 2988 H 292.152 3.4526 4.48121 0
M  V30 2989 H 290.709 4.27562 4.9197 0
M  V30 2990 N 294.142 -0.090211 1.57342 0
M  V30 2991 C 295.105 -1.09335 2.01441 0
M  V30 2992 C 296.105 -1.32666 0.908641 0
M  V30 2993 O 297.295 -1.28697 1.174 0
M  V30 2994 C 294.427 -2.44136 2.3793 0
M  V30 2995 H 295.62 -0.713662 2.91285 0
M  V30 2996 H 293.173 -0.335404 1.52659 0
M  V30 2997 H 293.908 -2.86972 1.51055 0
M  V30 2998 H 293.693 -2.28548 3.18603 0
M  V30 2999 H 295.183 -3.16277 2.72688 0
M  V30 3000 N 295.62 -1.53406 -0.361157 0
M  V30 3001 C 296.869 -1.69022 -1.10066 0
M  V30 3002 C 297.182 -0.450838 -1.90333 0
M  V30 3003 O 298.388 -0.487617 -2.67085 0
M  V30 3004 C 296.844 -2.98812 -2.00598 0
M  V30 3005 C 296.452 -4.30027 -1.25621 0
M  V30 3006 C 298.196 -3.23795 -2.74513 0
M  V30 3007 C 296.103 -5.50903 -2.1508 0
M  V30 3008 H 295.033 -0.629776 -0.414606 0
M  V30 3009 H 297.684 -1.79907 -0.361348 0
M  V30 3010 H 296.066 -2.8174 -2.78278 0
M  V30 3011 H 297.24 -4.57745 -0.529739 0
M  V30 3012 H 295.555 -4.11522 -0.635496 0
M  V30 3013 H 298.152 -4.11289 -3.41681 0
M  V30 3014 H 298.495 -2.40045 -3.40123 0
M  V30 3015 H 299.028 -3.41561 -2.03914 0
M  V30 3016 H 295.767 -6.37143 -1.54041 0
M  V30 3017 H 295.287 -5.27459 -2.85565 0
M  V30 3018 H 296.966 -5.85865 -2.74538 0
M  V30 3019 N 297.098 0.621204 -1.44841 0
M  V30 3020 C 298.345 1.38055 -1.48145 0
M  V30 3021 C 298.673 1.94143 -0.117867 0
M  V30 3022 O 297.928 1.74713 0.881694 0
M  V30 3023 C 298.227 2.55675 -2.4973 0
M  V30 3024 C 297.893 2.17817 -3.94799 0
M  V30 3025 C 296.555 2.07205 -4.34303 0
M  V30 3026 C 298.907 1.88065 -4.86087 0
M  V30 3027 C 296.235 1.65045 -5.63007 0
M  V30 3028 C 298.587 1.47394 -6.15189 0
M  V30 3029 C 297.251 1.35331 -6.53637 0
M  V30 3030 H 296.521 0.505181 -0.542101 0
M  V30 3031 H 299.168 0.703477 -1.78111 0
M  V30 3032 H 297.473 3.2866 -2.13284 0
M  V30 3033 H 299.17 3.13904 -2.4953 0
M  V30 3034 H 295.76 2.26998 -3.63552 0
M  V30 3035 H 299.944 1.95168 -4.56315 0
M  V30 3036 H 295.2 1.54317 -5.91605 0
M  V30 3037 H 299.374 1.23415 -6.85377 0
M  V30 3038 H 297.001 1.02435 -7.53267 0
M  V30 3039 N 298.576 1.31904 0.862503 0
M  V30 3040 C 299.804 1.24998 1.64873 0
M  V30 3041 C 300.219 -0.183425 1.87907 0
M  V30 3042 O 299.576 -1.11794 1.44251 0
M  V30 3043 C 299.627 1.99829 3.01248 0
M  V30 3044 O 299.348 3.37575 2.79239 0
M  V30 3045 C 300.849 1.99852 3.95694 0
M  V30 3046 H 298.069 0.431599 0.513773 0
M  V30 3047 H 300.613 1.73901 1.07604 0
M  V30 3048 H 298.768 1.54668 3.55185 0
M  V30 3049 H 299.182 3.75776 3.65914 0
M  V30 3050 H 300.656 2.56709 4.88676 0
M  V30 3051 H 301.133 0.982852 4.28062 0
M  V30 3052 H 301.739 2.44926 3.47694 0
M  V30 3053 N 300.054 -1.07777 1.14986 0
M  V30 3054 C 300.984 -2.16865 0.865557 0
M  V30 3055 C 301.965 -1.69123 -0.182083 0
M  V30 3056 O 303.15 -1.94164 -0.0373815 0
M  V30 3057 C 300.28 -3.45539 0.349313 0
M  V30 3058 C 299.234 -4.06708 1.33313 0
M  V30 3059 C 298.56 -5.30411 0.675918 0
M  V30 3060 C 299.86 -4.47241 2.69764 0
M  V30 3061 H 301.554 -2.40905 1.77778 0
M  V30 3062 H 299.1 -1.15781 0.856203 0
M  V30 3063 H 301.053 -4.21174 0.137983 0
M  V30 3064 H 299.777 -3.21072 -0.598362 0
M  V30 3065 H 298.436 -3.33112 1.53075 0
M  V30 3066 H 298.084 -5.02232 -0.277767 0
M  V30 3067 H 297.784 -5.72293 1.33244 0
M  V30 3068 H 299.308 -6.08755 0.474262 0
M  V30 3069 H 300.722 -5.14025 2.53873 0
M  V30 3070 H 299.119 -5.00062 3.3175 0
M  V30 3071 H 300.189 -3.58818 3.26156 0
M  V30 3072 N 301.532 -0.945985 -1.26051 0
M  V30 3073 C 302.462 -0.477172 -2.28572 0
M  V30 3074 C 303.443 0.472032 -1.63419 0
M  V30 3075 O 304.628 0.372853 -1.90587 0
M  V30 3076 C 301.758 0.253975 -3.4637 0
M  V30 3077 C 300.712 -0.609135 -4.23643 0
M  V30 3078 C 300.038 0.252252 -5.34105 0
M  V30 3079 C 301.338 -1.8829 -4.8718 0
M  V30 3080 H 303.032 -1.33402 -2.68038 0
M  V30 3081 H 300.578 -0.642904 -1.28852 0
M  V30 3082 H 302.531 0.593016 -4.17207 0
M  V30 3083 H 301.255 1.145 -3.05871 0
M  V30 3084 H 299.914 -0.931138 -3.54578 0
M  V30 3085 H 299.562 1.14278 -4.89846 0
M  V30 3086 H 299.262 -0.32188 -5.86718 0
M  V30 3087 H 300.786 0.586454 -6.07777 0
M  V30 3088 H 302.2 -1.61081 -5.50205 0
M  V30 3089 H 300.597 -2.40199 -5.49931 0
M  V30 3090 H 301.667 -2.59134 -4.09851 0
M  V30 3091 N 303.011 1.40521 -0.713556 0
M  V30 3092 C 303.943 2.29191 -0.0203126 0
M  V30 3093 C 304.956 1.45723 0.725864 0
M  V30 3094 O 306.145 1.69033 0.573581 0
M  V30 3095 C 303.245 3.2395 0.995486 0
M  V30 3096 C 302.418 4.36262 0.315256 0
M  V30 3097 C 301.477 5.11474 1.23616 0
M  V30 3098 O 300.503 5.64606 0.721719 0
M  V30 3099 N 301.705 5.20638 2.56743 0
M  V30 3100 H 304.47 2.89327 -0.781652 0
M  V30 3101 H 302.031 1.51869 -0.561022 0
M  V30 3102 H 304.023 3.71137 1.61368 0
M  V30 3103 H 302.593 2.64995 1.6582 0
M  V30 3104 H 301.813 3.91228 -0.483106 0
M  V30 3105 H 303.101 5.08558 -0.157004 0
M  V30 3106 H 302.499 4.7895 3.01037 0
M  V30 3107 H 301.056 5.71339 3.13712 0
M  V30 3108 N 304.489 0.459591 1.5075 0
M  V30 3109 C 305.737 -0.0991532 2.01857 0
M  V30 3110 C 306.058 -1.41247 1.34441 0
M  V30 3111 O 305.328 -1.89775 0.486022 0
M  V30 3112 H 303.908 -0.039633 0.745948 0
M  V30 3113 H 306.57 0.607387 1.85194 0
M  V30 3114 H 305.666 -0.258998 3.11023 0
M  V30 3115 N 305.967 -1.56429 0.191757 0
M  V30 3116 C 306.915 -2.20273 -0.747174 0
M  V30 3117 C 307.909 -1.17288 -1.22229 0
M  V30 3118 O 309.115 -1.35441 -1.18557 0
M  V30 3119 H 305.49 -0.705885 -0.259289 0
M  V30 3120 H 307.461 -2.97826 -0.184963 0
M  V30 3121 C 306.21 -2.87356 -1.95759 0
M  V30 3122 H 305.533 -3.66341 -1.60106 0
M  V30 3123 H 306.973 -3.3547 -2.59299 0
M  V30 3124 C 305.432 -1.88213 -2.79423 0
M  V30 3125 O 305.962 -1.38033 -3.7724 0
M  V30 3126 N 304.168 -1.56516 -2.44849 0
M  V30 3127 H 303.715 -1.97516 -1.65364 0
M  V30 3128 H 303.673 -0.904369 -3.01112 0
M  V30 3129 N 307.445 0.0818655 -1.57387 0
M  V30 3130 C 308.377 1.12484 -1.997 0
M  V30 3131 C 309.39 1.35564 -0.90146 0
M  V30 3132 O 310.579 1.33982 -1.17945 0
M  V30 3133 C 307.679 2.47778 -2.31213 0
M  V30 3134 C 306.852 2.44793 -3.62485 0
M  V30 3135 C 305.911 3.62117 -3.81782 0
M  V30 3136 O 304.937 3.44005 -4.53486 0
M  V30 3137 N 306.139 4.82094 -3.23367 0
M  V30 3138 H 308.904 0.764585 -2.89783 0
M  V30 3139 H 306.465 0.270664 -1.59621 0
M  V30 3140 H 308.457 3.24891 -2.41304 0
M  V30 3141 H 307.027 2.75843 -1.4707 0
M  V30 3142 H 306.247 1.53134 -3.6324 0
M  V30 3143 H 307.535 2.39889 -4.48699 0
M  V30 3144 H 306.933 4.99713 -2.65148 0
M  V30 3145 H 305.49 5.56753 -3.38923 0
M  V30 3146 N 308.923 1.53595 0.353017 0
M  V30 3147 C 310.339 1.43648 0.695516 0
M  V30 3148 C 310.539 0.585617 1.92802 0
M  V30 3149 O 309.595 0.0729223 2.52395 0
M  V30 3150 C 310.908 2.8701 0.896991 0
M  V30 3151 C 312.456 2.96723 0.996209 0
M  V30 3152 C 312.931 4.41173 1.23007 0
M  V30 3153 N 314.422 4.44657 1.29749 0
M  V30 3154 C 315.157 5.53547 1.49577 0
M  V30 3155 N 314.653 6.72461 1.66639 0
M  V30 3156 N 316.446 5.41145 1.52048 0
M  V30 3157 H 308.597 2.07415 -0.457481 0
M  V30 3158 H 310.86 0.9372 -0.142687 0
M  V30 3159 H 310.566 3.51644 0.0629938 0
M  V30 3160 H 310.44 3.31401 1.80148 0
M  V30 3161 H 312.827 2.32235 1.82074 0
M  V30 3162 H 312.908 2.55707 0.0688331 0
M  V30 3163 H 312.552 5.06238 0.410505 0
M  V30 3164 H 312.482 4.79772 2.17086 0
M  V30 3165 H 314.973 3.58963 1.18126 0
M  V30 3166 H 315.286 7.51214 1.81378 0
M  V30 3167 H 313.631 6.75423 1.63794 0
M  V30 3168 H 316.822 4.47205 1.38294 0
M  V30 3169 H 316.995 6.26068 1.67159 0
M  V30 3170 N 310.401 -0.613514 1.45168 0
M  V30 3171 C 311.364 -1.7065 1.53007 0
M  V30 3172 C 312.364 -1.5548 0.410184 0
M  V30 3173 O 313.554 -1.60656 0.673455 0
M  V30 3174 C 310.686 -3.09875 1.42093 0
M  V30 3175 H 311.879 -1.65068 2.50385 0
M  V30 3176 H 309.432 -0.828728 1.32521 0
M  V30 3177 H 310.167 -3.21039 0.458769 0
M  V30 3178 H 309.952 -3.22293 2.23315 0
M  V30 3179 H 311.442 -3.895 1.50598 0
M  V30 3180 N 311.879 -1.3236 -0.855495 0
M  V30 3181 C 312.809 -1.23833 -1.97958 0
M  V30 3182 C 313.79 -0.122361 -1.69659 0
M  V30 3183 O 314.975 -0.30939 -1.9172 0
M  V30 3184 C 312.105 -0.959772 -3.33775 0
M  V30 3185 C 311.059 -2.03689 -3.76424 0
M  V30 3186 C 310.385 -1.61075 -5.09862 0
M  V30 3187 C 311.685 -3.4518 -3.9198 0
M  V30 3188 H 313.379 -2.1788 -2.0535 0
M  V30 3189 H 310.925 -1.04891 -0.986605 0
M  V30 3190 H 312.878 -0.886678 -4.11966 0
M  V30 3191 H 311.602 0.0163404 -3.26596 0
M  V30 3192 H 310.261 -2.10012 -3.00484 0
M  V30 3193 H 309.909 -0.622107 -4.99138 0
M  V30 3194 H 309.609 -2.33143 -5.39368 0
M  V30 3195 H 311.133 -1.55201 -5.90546 0
M  V30 3196 H 312.547 -3.4145 -4.60526 0
M  V30 3197 H 310.944 -4.1559 -4.32903 0
M  V30 3198 H 312.014 -3.84903 -2.94919 0
M  V30 3199 N 313.357 1.07166 -1.15556 0
M  V30 3200 C 314.605 1.79443 -0.929764 0
M  V30 3201 C 314.926 1.87246 0.544414 0
M  V30 3202 O 314.196 1.37473 1.39564 0
M  V30 3203 H 312.776 0.664625 -0.341003 0
M  V30 3204 H 315.438 1.29499 -1.45657 0
M  V30 3205 H 314.534 2.81832 -1.34079 0
M  V30 3206 N 314.835 0.952656 1.25548 0
M  V30 3207 C 315.767 0.428609 2.25157 0
M  V30 3208 C 316.78 -0.454428 1.56329 0
M  V30 3209 O 317.969 -0.263023 1.76552 0
M  V30 3210 C 315.069 -0.401972 3.36508 0
M  V30 3211 C 314.242 0.467601 4.34893 0
M  V30 3212 C 313.301 -0.30445 5.25319 0
M  V30 3213 O 312.327 0.296473 5.68427 0
M  V30 3214 N 313.529 -1.59805 5.5807 0
M  V30 3215 H 316.294 1.28497 2.70756 0
M  V30 3216 H 313.855 0.822798 1.39433 0
M  V30 3217 H 315.847 -0.926134 3.9396 0
M  V30 3218 H 314.417 -1.15918 2.90313 0
M  V30 3219 H 313.637 1.17288 3.76347 0
M  V30 3220 H 314.925 1.06119 4.97611 0
M  V30 3221 H 314.323 -2.10823 5.24948 0
M  V30 3222 H 312.88 -2.06822 6.18116 0
M  V30 3223 N 316.313 -1.40141 0.720998 0
M  V30 3224 C 317.276 -2.29058 0.0805834 0
M  V30 3225 C 318.276 -1.45632 -0.681758 0
M  V30 3226 O 319.466 -1.6648 -0.512856 0
M  V30 3227 C 316.598 -3.28925 -0.895593 0
M  V30 3228 H 317.791 -2.87191 0.863793 0
M  V30 3229 H 315.344 -1.48553 0.485975 0
M  V30 3230 H 316.079 -2.75822 -1.70566 0
M  V30 3231 H 315.864 -3.90519 -0.351766 0
M  V30 3232 H 317.354 -3.95494 -1.34069 0
M  V30 3233 N 317.792 -0.46758 -1.50504 0
M  V30 3234 C 318.722 0.318381 -2.31319 0
M  V30 3235 C 319.703 0.993564 -1.38066 0
M  V30 3236 O 320.888 0.991411 -1.66987 0
M  V30 3237 C 318.018 1.40275 -3.17711 0
M  V30 3238 C 316.972 0.849373 -4.19487 0
M  V30 3239 C 316.298 2.03177 -4.94594 0
M  V30 3240 C 317.598 -0.136942 -5.2212 0
M  V30 3241 H 319.292 -0.356106 -2.97275 0
M  V30 3242 H 316.838 -0.172703 -1.42961 0
M  V30 3243 H 318.791 1.96004 -3.73042 0
M  V30 3244 H 317.515 2.10596 -2.49634 0
M  V30 3245 H 316.174 0.314076 -3.65252 0
M  V30 3246 H 315.822 2.72187 -4.22993 0
M  V30 3247 H 315.522 1.66774 -5.63436 0
M  V30 3248 H 317.046 2.59403 -5.52759 0
M  V30 3249 H 318.46 0.331056 -5.72343 0
M  V30 3250 H 316.857 -0.41507 -5.98663 0
M  V30 3251 H 317.927 -1.06398 -4.73083 0
M  V30 3252 N 319.27 1.56325 -0.20005 0
M  V30 3253 C 320.516 1.98012 0.438059 0
M  V30 3254 C 320.849 1.08702 1.60927 0
M  V30 3255 O 320.124 0.140064 1.93995 0
M  V30 3256 C 320.407 3.48841 0.893419 0
M  V30 3257 C 320.26 4.48928 -0.279947 0
M  V30 3258 C 321.579 4.03498 1.75719 0
M  V30 3259 H 318.698 0.719918 0.157757 0
M  V30 3260 H 321.34 1.87743 -0.291968 0
M  V30 3261 H 319.49 3.57723 1.51547 0
M  V30 3262 H 321.162 4.52079 -0.91772 0
M  V30 3263 H 319.405 4.23694 -0.930919 0
M  V30 3264 H 320.076 5.5194 0.0812601 0
M  V30 3265 H 322.552 3.97427 1.23253 0
M  V30 3266 H 321.428 5.09393 2.04476 0
M  V30 3267 H 321.689 3.4906 2.71311 0
M  V30 3268 N 320.748 -0.0735177 1.57428 0
M  V30 3269 C 321.973 -0.789787 1.91774 0
M  V30 3270 C 322.398 -1.70413 0.796306 0
M  V30 3271 O 321.756 -1.79555 -0.250961 0
M  V30 3272 C 321.804 -1.5609 3.25067 0
M  V30 3273 O 320.908 -2.67144 3.14178 0
M  V30 3274 H 320.249 -0.215582 0.628029 0
M  V30 3275 H 322.779 -0.0422781 2.04556 0
M  V30 3276 H 322.789 -1.94052 3.58898 0
M  V30 3277 H 321.464 -0.890015 4.06265 0
M  V30 3278 H 320.041 -2.32052 2.91901 0
M  V30 3279 N 322.226 -1.5378 -0.344866 0
M  V30 3280 C 323.176 -1.78057 -1.42407 0
M  V30 3281 C 324.16 -0.635732 -1.47808 0
M  V30 3282 O 325.352 -0.89508 -1.527 0
M  V30 3283 C 322.481 -1.99242 -2.79566 0
M  V30 3284 C 321.567 -3.19787 -2.78562 0
M  V30 3285 N 321.958 -4.41284 -2.47189 0
M  V30 3286 C 320.256 -3.2093 -3.0971 0
M  V30 3287 C 320.957 -5.23128 -2.54385 0
M  V30 3288 N 319.933 -4.59813 -2.89953 0
M  V30 3289 H 323.735 -2.69588 -1.17046 0
M  V30 3290 H 321.249 -1.52687 -0.553217 0
M  V30 3291 H 323.246 -2.14768 -3.57324 0
M  V30 3292 H 321.906 -1.08953 -3.05875 0
M  V30 3293 H 322.917 -4.68657 -2.20411 0
M  V30 3294 H 319.594 -2.40603 -3.41199 0
M  V30 3295 H 320.984 -6.30096 -2.333 0
M  V30 3296 N 323.704 0.605807 -1.45491 0
M  V30 3297 C 325.115 1.18777 -1.44045 0
M  V30 3298 C 325.466 1.95471 -0.169001 0
M  V30 3299 O 324.591 2.0374 0.729324 0
M  V30 3300 C 325.186 2.16064 -2.60963 0
M  V30 3301 C 323.745 2.69633 -2.62631 0
M  V30 3302 C 322.892 1.45072 -2.36325 0
M  V30 3303 H 325.843 0.395017 -1.53705 0
M  V30 3304 H 325.864 2.9913 -2.35163 0
M  V30 3305 H 325.376 1.60217 -3.53486 0
M  V30 3306 H 323.477 3.29414 -1.74119 0
M  V30 3307 H 323.59 3.13944 -3.61906 0
M  V30 3308 H 321.954 1.74089 -1.85917 0
M  V30 3309 H 322.737 0.910899 -3.30995 0
M  V30 3310 N 325.182 1.32811 0.848464 0
M  V30 3311 C 326.092 1.24278 1.98978 0
M  V30 3312 C 327.108 0.155176 1.73307 0
M  V30 3313 O 328.284 0.376999 1.9784 0
M  V30 3314 C 325.349 0.972444 3.32783 0
M  V30 3315 C 324.41 2.14911 3.71634 0
M  V30 3316 C 323.643 1.89157 4.99054 0
M  V30 3317 O 323.866 0.837165 5.64223 0
M  V30 3318 O 322.8 2.75433 5.35183 0
M  V30 3319 H 326.626 2.20238 2.09115 0
M  V30 3320 H 324.211 1.12762 0.980052 0
M  V30 3321 H 326.093 0.838432 4.12975 0
M  V30 3322 H 324.768 0.043051 3.23671 0
M  V30 3323 H 323.675 2.33862 2.91992 0
M  V30 3324 H 325.008 3.06151 3.85399 0
M  V30 3325 N 326.66 -1.06551 1.16123 0
M  V30 3326 C 327.909 -1.78687 0.935622 0
M  V30 3327 C 328.222 -1.88056 -0.538001 0
M  V30 3328 O 329.428 -2.56794 -0.88143 0
M  V30 3329 C 327.884 -3.21143 1.62466 0
M  V30 3330 C 327.492 -3.19949 3.13587 0
M  V30 3331 C 329.236 -3.9783 1.48092 0
M  V30 3332 C 327.143 -4.57108 3.75241 0
M  V30 3333 H 326.073 -0.669712 0.346412 0
M  V30 3334 H 328.724 -1.19534 1.39226 0
M  V30 3335 H 327.106 -3.80539 1.09572 0
M  V30 3336 H 328.28 -2.70151 3.73303 0
M  V30 3337 H 326.595 -2.5676 3.27816 0
M  V30 3338 H 329.192 -4.99217 1.91538 0
M  V30 3339 H 329.535 -4.14078 0.429507 0
M  V30 3340 H 330.068 -3.4495 1.98127 0
M  V30 3341 H 326.807 -4.46065 4.80319 0
M  V30 3342 H 326.327 -5.07111 3.20309 0
M  V30 3343 H 328.006 -5.26069 3.76644 0
M  V30 3344 N 328.138 -0.959301 -1.25041 0
M  V30 3345 C 329.085 -0.482057 -2.2571 0
M  V30 3346 C 330.055 0.467939 -1.59372 0
M  V30 3347 O 331.24 0.380159 -1.86974 0
M  V30 3348 C 328.38 0.229623 -3.44335 0
M  V30 3349 C 327.493 -0.758156 -4.25295 0
M  V30 3350 C 326.628 -0.0234403 -5.31195 0
M  V30 3351 C 325.667 -1.00184 -6.03846 0
M  V30 3352 N 324.804 -0.29769 -7.01469 0
M  V30 3353 H 329.644 -1.34538 -2.65901 0
M  V30 3354 H 327.181 -0.674592 -1.3072 0
M  V30 3355 H 329.139 0.658856 -4.11965 0
M  V30 3356 H 327.769 1.05696 -3.05005 0
M  V30 3357 H 326.821 -1.30586 -3.57284 0
M  V30 3358 H 328.133 -1.50458 -4.75567 0
M  V30 3359 H 327.287 0.464201 -6.04922 0
M  V30 3360 H 326.026 0.755741 -4.81809 0
M  V30 3361 H 325.031 -1.50044 -5.2893 0
M  V30 3362 H 326.256 -1.78133 -6.55321 0
M  V30 3363 H 324.202 0.462668 -6.54366 0
M  V30 3364 H 324.119 -0.983128 -7.4958 0
M  V30 3365 H 325.387 0.16826 -7.79318 0
M  V30 3366 N 329.616 1.39756 -0.72842 0
M  V30 3367 C 330.579 2.29012 -0.0927297 0
M  V30 3368 C 331.579 1.45992 0.674025 0
M  V30 3369 O 332.769 1.66749 0.50402 0
M  V30 3370 C 329.901 3.29396 0.878137 0
M  V30 3371 H 331.094 2.86729 -0.879011 0
M  V30 3372 H 328.647 1.48293 -0.493847 0
M  V30 3373 H 329.382 2.76722 1.69101 0
M  V30 3374 H 329.167 3.907 0.331051 0
M  V30 3375 H 330.657 3.96199 1.3197 0
M  V30 3376 N 331.094 0.475555 1.50254 0
M  V30 3377 C 332.34 -0.0780073 2.0265 0
M  V30 3378 C 332.673 -1.38968 1.35652 0
M  V30 3379 O 331.948 -1.8839 0.483691 0
M  V30 3380 C 332.231 -0.257161 3.59181 0
M  V30 3381 C 332.084 1.07585 4.36744 0
M  V30 3382 C 333.403 -1.00965 4.28362 0
M  V30 3383 H 330.522 -0.0268758 0.73651 0
M  V30 3384 H 333.164 0.622015 1.7953 0
M  V30 3385 H 331.314 -0.853412 3.79011 0
M  V30 3386 H 332.986 1.70902 4.28474 0
M  V30 3387 H 331.229 1.6714 4.00308 0
M  V30 3388 H 331.9 0.904088 5.44546 0
M  V30 3389 H 334.376 -0.504214 4.13034 0
M  V30 3390 H 333.252 -1.10381 5.37687 0
M  V30 3391 H 333.513 -2.04731 3.91839 0
M  V30 3392 N 332.573 -1.56217 0.208337 0
M  V30 3393 C 333.821 -1.97558 -0.426076 0
M  V30 3394 C 334.142 -1.09683 -1.61229 0
M  V30 3395 O 333.412 -0.170956 -1.95153 0
M  V30 3396 H 331.992 -0.729575 -0.160405 0
M  V30 3397 H 334.654 -1.92606 0.298155 0
M  V30 3398 H 333.75 -3.02672 -0.761312 0
M  V30 3399 N 334.051 0.0651679 -1.57465 0
M  V30 3400 C 335.298 0.763063 -1.87573 0
M  V30 3401 C 335.626 1.77242 -0.800961 0
M  V30 3402 O 334.881 1.94651 0.202316 0
M  V30 3403 C 335.18 1.50081 -3.24362 0
M  V30 3404 C 334.846 0.630816 -4.46466 0
M  V30 3405 C 333.508 0.391082 -4.79608 0
M  V30 3406 C 335.86 0.0279465 -5.21193 0
M  V30 3407 C 333.188 -0.460894 -5.84887 0
M  V30 3408 C 335.54 -0.811522 -6.27373 0
M  V30 3409 C 334.204 -1.06106 -6.59013 0
M  V30 3410 H 333.474 0.279224 -0.686378 0
M  V30 3411 H 336.121 0.0236726 -1.91485 0
M  V30 3412 H 334.426 2.31258 -3.16271 0
M  V30 3413 H 336.123 2.04571 -3.44894 0
M  V30 3414 H 332.713 0.8278 -4.2053 0
M  V30 3415 H 336.897 0.200262 -4.95896 0
M  V30 3416 H 332.153 -0.662907 -6.07796 0
M  V30 3417 H 336.327 -1.28537 -6.84435 0
M  V30 3418 H 333.954 -1.723 -7.40417 0
M  V30 3419 N 335.529 1.53961 0.336706 0
M  V30 3420 C 336.757 1.75483 1.09605 0
M  V30 3421 C 337.172 0.4972 1.82136 0
M  V30 3422 O 336.529 -0.53149 1.74589 0
M  V30 3423 C 336.58 2.93943 2.10428 0
M  V30 3424 O 336.301 4.14842 1.40846 0
M  V30 3425 C 337.802 3.27571 2.98684 0
M  V30 3426 H 335.022 0.586166 0.326574 0
M  V30 3427 H 337.566 2.00808 0.38683 0
M  V30 3428 H 335.721 2.70929 2.76905 0
M  V30 3429 H 336.135 4.81383 2.08255 0
M  V30 3430 H 337.609 4.13791 3.6535 0
M  V30 3431 H 338.086 2.44168 3.65074 0
M  V30 3432 H 338.692 3.52615 2.37787 0
M  V30 3433 N 337.007 -0.598083 1.45811 0
M  V30 3434 C 338.255 -1.35413 1.50026 0
M  V30 3435 C 338.576 -1.94444 0.147177 0
M  V30 3436 O 337.846 -1.77701 -0.824571 0
M  V30 3437 H 336.426 -0.502727 0.552517 0
M  V30 3438 H 339.088 -0.701606 1.81834 0
M  V30 3439 H 338.184 -2.16871 2.2444 0
M  V30 3440 N 338.485 -1.33259 -0.841409 0
M  V30 3441 C 339.71 -1.2775 -1.63385 0
M  V30 3442 C 340.135 0.149188 -1.87507 0
M  V30 3443 O 339.493 1.10498 -1.43736 0
M  V30 3444 C 339.541 -2.05571 -2.96265 0
M  V30 3445 O 338.645 -1.41257 -3.87453 0
M  V30 3446 H 337.986 -0.439627 -0.497618 0
M  V30 3447 H 340.516 -1.75782 -1.04699 0
M  V30 3448 H 340.526 -2.16241 -3.45982 0
M  V30 3449 H 339.201 -3.09309 -2.7803 0
M  V30 3450 H 337.778 -1.39217 -3.45938 0
M  V30 3451 N 339.963 1.05934 -1.16686 0
M  V30 3452 C 341.209 1.79065 -0.95203 0
M  V30 3453 C 341.542 1.87147 0.518629 0
M  V30 3454 O 340.817 1.36574 1.38484 0
M  V30 3455 C 341.1 3.23359 -1.58464 0
M  V30 3456 C 340.953 3.23336 -3.12689 0
M  V30 3457 C 342.272 4.21004 -1.28232 0
M  V30 3458 H 339.391 0.65005 -0.34728 0
M  V30 3459 H 342.033 1.23868 -1.44072 0
M  V30 3460 H 340.183 3.70493 -1.16908 0
M  V30 3461 H 341.855 2.84336 -3.6325 0
M  V30 3462 H 340.098 2.61886 -3.4583 0
M  V30 3463 H 340.769 4.25144 -3.52075 0
M  V30 3464 H 343.245 3.8233 -1.64203 0
M  V30 3465 H 342.121 5.20225 -1.75092 0
M  V30 3466 H 342.382 4.41639 -0.201791 0
M  V30 3467 N 341.441 0.965919 1.2453 0
M  V30 3468 C 342.689 0.625593 1.92174 0
M  V30 3469 C 343.01 -0.841652 1.75901 0
M  V30 3470 O 342.28 -1.60061 1.12948 0
M  V30 3471 H 340.86 0.228388 0.71123 0
M  V30 3472 H 343.522 1.2266 1.51461 0
M  V30 3473 H 342.618 0.864653 2.99884 0
M  V30 3474 N 342.919 -1.39368 0.735821 0
M  V30 3475 C 344.167 -2.00101 0.283562 0
M  V30 3476 C 344.488 -1.5868 -1.13338 0
M  V30 3477 O 343.758 -0.835423 -1.77193 0
M  V30 3478 H 342.338 -0.740024 0.101851 0
M  V30 3479 H 345 -1.70404 0.945962 0
M  V30 3480 H 344.096 -3.10323 0.332604 0
M  V30 3481 N 344.397 -0.483516 -1.5 0
M  V30 3482 C 345.645 0.067027 -2.01989 0
M  V30 3483 C 345.966 1.3909 -1.36671 0
M  V30 3484 O 345.236 1.88978 -0.516152 0
M  V30 3485 H 343.816 0.0277606 -0.746484 0
M  V30 3486 H 346.478 -0.636773 -1.84204 0
M  V30 3487 H 345.574 0.209484 -3.11396 0
M  V30 3488 N 345.875 1.56104 -0.216619 0
M  V30 3489 C 347.291 1.58995 0.13886 0
M  V30 3490 C 347.491 1.23333 1.59346 0
M  V30 3491 O 346.547 0.966234 2.33281 0
M  V30 3492 C 347.86 3.00143 -0.182968 0
M  V30 3493 C 349.408 3.12751 -0.124807 0
M  V30 3494 C 349.883 4.56068 -0.420241 0
M  V30 3495 N 351.374 4.61723 -0.369634 0
M  V30 3496 C 352.109 5.70542 -0.571789 0
M  V30 3497 N 351.605 6.87744 -0.835453 0
M  V30 3498 N 353.398 5.59831 -0.504563 0
M  V30 3499 H 345.549 1.77562 -1.16557 0
M  V30 3500 H 347.812 0.825091 -0.466828 0
M  V30 3501 H 347.518 3.30871 -1.19237 0
M  V30 3502 H 347.392 3.73813 0.504367 0
M  V30 3503 H 349.779 2.81822 0.875223 0
M  V30 3504 H 349.86 2.41421 -0.845544 0
M  V30 3505 H 349.504 4.87713 -1.41769 0
M  V30 3506 H 349.434 5.25617 0.321631 0
M  V30 3507 H 351.925 3.77502 -0.173338 0
M  V30 3508 H 352.238 7.66587 -0.977938 0
M  V30 3509 H 350.583 6.895 -0.872592 0
M  V30 3510 H 353.774 4.67145 -0.298842 0
M  V30 3511 H 353.947 6.44573 -0.665519 0
M  V30 3512 N 347.353 -0.0568162 1.57498 0
M  V30 3513 C 348.316 -1.05038 2.03715 0
M  V30 3514 C 349.316 -1.30709 0.936577 0
M  V30 3515 O 350.506 -1.26178 1.20103 0
M  V30 3516 C 347.638 -2.39034 2.43055 0
M  V30 3517 H 348.831 -0.651715 2.92733 0
M  V30 3518 H 346.384 -0.302947 1.53336 0
M  V30 3519 H 347.119 -2.83703 1.57108 0
M  V30 3520 H 346.904 -2.21739 3.2338 0
M  V30 3521 H 348.394 -3.10421 2.79336 0
M  V30 3522 N 348.832 -1.54138 -0.328536 0
M  V30 3523 C 349.762 -1.86167 -1.40939 0
M  V30 3524 C 350.743 -0.718044 -1.54202 0
M  V30 3525 O 351.928 -0.971328 -1.68163 0
M  V30 3526 C 349.058 -2.08461 -2.77779 0
M  V30 3527 C 348.012 -3.24299 -2.7931 0
M  V30 3528 C 347.338 -3.31955 -4.19178 0
M  V30 3529 C 348.638 -4.62065 -2.43502 0
M  V30 3530 H 350.332 -2.76689 -1.14383 0
M  V30 3531 H 347.878 -1.33132 -0.548806 0
M  V30 3532 H 349.831 -2.29453 -3.53454 0
M  V30 3533 H 348.555 -1.14684 -3.05802 0
M  V30 3534 H 347.214 -3.03187 -2.0609 0
M  V30 3535 H 346.862 -2.35745 -4.44335 0
M  V30 3536 H 346.562 -4.09805 -4.2111 0
M  V30 3537 H 348.086 -3.55175 -4.96672 0
M  V30 3538 H 349.5 -4.8297 -3.08889 0
M  V30 3539 H 347.897 -5.42429 -2.56693 0
M  V30 3540 H 348.967 -4.64652 -1.38659 0
M  V30 3541 N 350.31 0.590341 -1.46126 0
M  V30 3542 C 351.557 1.34882 -1.5104 0
M  V30 3543 C 351.885 1.93849 -0.159021 0
M  V30 3544 O 351.14 1.76544 0.844436 0
M  V30 3545 C 351.439 2.5032 -2.55097 0
M  V30 3546 C 351.105 2.09394 -3.99331 0
M  V30 3547 C 349.767 1.97947 -4.38601 0
M  V30 3548 C 352.119 1.77712 -4.89967 0
M  V30 3549 C 349.447 1.53065 -5.66381 0
M  V30 3550 C 351.799 1.34312 -6.18177 0
M  V30 3551 C 350.463 1.21436 -6.56361 0
M  V30 3552 H 349.733 0.493568 -0.552695 0
M  V30 3553 H 352.38 0.665539 -1.79563 0
M  V30 3554 H 350.685 3.24062 -2.20207 0
M  V30 3555 H 352.382 3.08541 -2.56132 0
M  V30 3556 H 348.972 2.19235 -3.68285 0
M  V30 3557 H 353.156 1.85445 -4.60352 0
M  V30 3558 H 348.412 1.41733 -5.94745 0
M  V30 3559 H 352.586 1.08849 -6.87841 0
M  V30 3560 H 350.213 0.864345 -7.5527 0
M  V30 3561 N 351.788 1.33704 0.83433 0
M  V30 3562 C 352.736 1.24323 1.96587 0
M  V30 3563 C 353.73 0.143659 1.6879 0
M  V30 3564 O 354.936 0.30791 1.77347 0
M  V30 3565 H 351.311 0.385925 0.645419 0
M  V30 3566 H 353.282 2.19978 2.01624 0
M  V30 3567 C 352.031 1.00394 3.32891 0
M  V30 3568 H 351.354 1.84231 3.54822 0
M  V30 3569 H 352.794 0.97862 4.12552 0
M  V30 3570 C 351.253 -0.293047 3.35623 0
M  V30 3571 O 351.783 -1.29823 3.80143 0
M  V30 3572 N 349.989 -0.322174 2.88809 0
M  V30 3573 H 349.536 0.496379 2.52772 0
M  V30 3574 H 349.494 -1.18977 2.91019 0
M  V30 3575 N 353.266 -1.05314 1.17247 0
M  V30 3576 C 354.196 -2.1498 0.911362 0
M  V30 3577 C 355.177 -1.69471 -0.146169 0
M  V30 3578 O 356.362 -1.942 0.003812 0
M  V30 3579 C 353.492 -3.4472 0.422528 0
M  V30 3580 C 352.446 -4.03789 1.4191 0
M  V30 3581 C 351.772 -5.28858 0.788274 0
M  V30 3582 C 353.072 -4.41418 2.7919 0
M  V30 3583 H 354.766 -2.3708 1.82848 0
M  V30 3584 H 352.312 -1.13938 0.880569 0
M  V30 3585 H 354.265 -4.20787 0.227289 0
M  V30 3586 H 352.989 -3.22269 -0.530123 0
M  V30 3587 H 351.648 -3.2979 1.60106 0
M  V30 3588 H 351.296 -5.02709 -0.171173 0
M  V30 3589 H 350.996 -5.69338 1.45353 0
M  V30 3590 H 352.52 -6.07612 0.603282 0
M  V30 3591 H 353.934 -5.08524 2.64719 0
M  V30 3592 H 352.331 -4.92913 3.42282 0
M  V30 3593 H 353.401 -3.51819 3.33693 0
M  V30 3594 N 354.744 -0.972509 -1.24016 0
M  V30 3595 C 355.707 -0.511403 -2.23422 0
M  V30 3596 C 356.707 0.394679 -1.55881 0
M  V30 3597 O 357.897 0.189469 -1.73167 0
M  V30 3598 C 355.029 0.258769 -3.39916 0
M  V30 3599 H 356.222 -1.39024 -2.6573 0
M  V30 3600 H 353.775 -0.757585 -1.36713 0
M  V30 3601 H 354.51 1.1545 -3.03054 0
M  V30 3602 H 354.295 -0.391522 -3.9014 0
M  V30 3603 H 355.785 0.570244 -4.13688 0
M  V30 3604 N 356.222 1.38976 -0.743202 0
M  V30 3605 C 357.172 2.27843 -0.084513 0
M  V30 3606 C 358.156 1.44677 0.704094 0
M  V30 3607 O 359.348 1.67511 0.571755 0
M  V30 3608 C 356.477 3.33466 0.815781 0
M  V30 3609 C 355.563 4.24095 0.0208844 0
M  V30 3610 N 355.954 4.95609 -1.0102 0
M  V30 3611 C 354.252 4.45303 0.249293 0
M  V30 3612 C 354.953 5.62287 -1.49024 0
M  V30 3613 N 353.929 5.37571 -0.807377 0
M  V30 3614 H 357.731 2.80593 -0.87436 0
M  V30 3615 H 355.245 1.51755 -0.578283 0
M  V30 3616 H 357.242 3.96008 1.30321 0
M  V30 3617 H 355.902 2.82276 1.6047 0
M  V30 3618 H 356.913 4.98849 -1.39176 0
M  V30 3619 H 353.59 4.0504 1.01237 0
M  V30 3620 H 354.98 6.29519 -2.34853 0
M  V30 3621 N 357.7 0.491464 1.49741 0
M  V30 3622 C 358.61 -0.296835 2.32715 0
M  V30 3623 C 359.626 -0.976536 1.44013 0
M  V30 3624 O 360.802 -0.960023 1.77047 0
M  V30 3625 C 357.867 -1.35288 3.19215 0
M  V30 3626 C 356.928 -0.687632 4.23757 0
M  V30 3627 C 356.161 -1.69336 5.06123 0
M  V30 3628 O 356.384 -2.92219 4.89861 0
M  V30 3629 O 355.318 -1.25394 5.88693 0
M  V30 3630 H 359.144 0.382048 3.01287 0
M  V30 3631 H 356.729 0.252953 1.47243 0
M  V30 3632 H 358.611 -1.96411 3.72828 0
M  V30 3633 H 357.286 -2.01487 2.53347 0
M  V30 3634 H 356.193 -0.0369159 3.74082 0
M  V30 3635 H 357.526 -0.0682566 4.92153 0
M  V30 3636 N 359.178 -1.55987 0.224894 0
M  V30 3637 C 360.594 -1.59066 -0.130426 0
M  V30 3638 C 360.794 -1.24176 -1.5869 0
M  V30 3639 O 359.85 -0.978592 -2.32766 0
M  V30 3640 C 361.163 -3.00042 0.198883 0
M  V30 3641 C 362.711 -3.1268 0.141391 0
M  V30 3642 C 363.186 -4.55839 0.444422 0
M  V30 3643 N 364.677 -4.6152 0.394115 0
M  V30 3644 C 365.412 -5.70231 0.602038 0
M  V30 3645 N 364.908 -6.87291 0.871914 0
M  V30 3646 N 366.701 -5.59555 0.534245 0
M  V30 3647 H 358.852 -1.76941 1.17497 0
M  V30 3648 H 361.115 -0.822604 0.471197 0
M  V30 3649 H 360.821 -3.30234 1.2099 0
M  V30 3650 H 360.695 -3.74075 -0.484535 0
M  V30 3651 H 363.082 -2.82283 -0.860265 0
M  V30 3652 H 363.163 -2.40969 0.858335 0
M  V30 3653 H 362.807 -4.86954 1.44353 0
M  V30 3654 H 362.737 -5.2578 -0.293752 0
M  V30 3655 H 365.228 -3.77405 0.193356 0
M  V30 3656 H 365.541 -7.66058 1.01858 0
M  V30 3657 H 363.886 -6.89028 0.909145 0
M  V30 3658 H 367.077 -4.6698 0.323612 0
M  V30 3659 H 367.25 -6.44211 0.699693 0
M  V30 3660 N 360.656 0.0484629 -1.57525 0
M  V30 3661 C 362.067 0.597486 -1.76881 0
M  V30 3662 C 362.418 1.76664 -0.853475 0
M  V30 3663 O 361.543 2.16357 -0.0433656 0
M  V30 3664 C 362.138 1.09066 -3.20765 0
M  V30 3665 C 360.697 1.58535 -3.41385 0
M  V30 3666 C 359.844 0.514868 -2.72478 0
M  V30 3667 H 362.795 -0.177758 -1.57701 0
M  V30 3668 H 362.816 1.95875 -3.2621 0
M  V30 3669 H 362.328 0.239521 -3.8736 0
M  V30 3670 H 360.429 2.45898 -2.79937 0
M  V30 3671 H 360.542 1.64622 -4.49929 0
M  V30 3672 H 358.906 0.965407 -2.35695 0
M  V30 3673 H 359.689 -0.32648 -3.41744 0
M  V30 3674 N 362.134 1.5431 0.320358 0
M  V30 3675 C 363.044 1.86946 1.41734 0
M  V30 3676 C 364.06 0.761689 1.56443 0
M  V30 3677 O 365.236 1.05629 1.71477 0
M  V30 3678 C 362.301 2.09293 2.76401 0
M  V30 3679 C 361.362 3.33082 2.70841 0
M  V30 3680 C 360.595 3.54353 3.99086 0
M  V30 3681 O 360.818 2.79002 4.97508 0
M  V30 3682 O 359.752 4.47838 4.0215 0
M  V30 3683 H 363.578 2.80232 1.17062 0
M  V30 3684 H 361.163 1.40255 0.514673 0
M  V30 3685 H 363.045 2.25303 3.56113 0
M  V30 3686 H 361.72 1.19194 3.00956 0
M  V30 3687 H 360.627 3.22454 1.89668 0
M  V30 3688 H 361.96 4.23249 2.5124 0
M  V30 3689 N 363.613 -0.582584 1.46437 0
M  V30 3690 C 365.024 -1.1647 1.45916 0
M  V30 3691 C 365.375 -1.95177 0.200077 0
M  V30 3692 O 364.5 -2.04874 -0.696819 0
M  V30 3693 C 365.095 -2.11885 2.64367 0
M  V30 3694 C 363.654 -2.65421 2.66887 0
M  V30 3695 C 362.801 -1.41294 2.38603 0
M  V30 3696 H 365.752 -0.370514 1.54314 0
M  V30 3697 H 365.773 -2.9535 2.39892 0
M  V30 3698 H 365.285 -1.54573 3.5599 0
M  V30 3699 H 363.386 -3.26602 1.79338 0
M  V30 3700 H 363.499 -3.08147 3.66854 0
M  V30 3701 H 361.863 -1.71109 1.88663 0
M  V30 3702 H 362.646 -0.858125 3.32402 0
M  V30 3703 N 365.091 -1.34144 -0.827227 0
M  V30 3704 C 366.34 -1.25602 -1.5782 0
M  V30 3705 C 366.653 0.173445 -1.94829 0
M  V30 3706 O 367.859 0.380984 -2.68814 0
M  V30 3707 C 366.315 -2.20151 -2.84713 0
M  V30 3708 C 365.923 -3.68331 -2.55021 0
M  V30 3709 C 367.667 -2.20508 -3.62735 0
M  V30 3710 C 365.574 -4.54762 -3.78082 0
M  V30 3711 H 364.504 -0.466573 -0.592306 0
M  V30 3712 H 367.155 -1.59283 -0.911116 0
M  V30 3713 H 365.537 -1.79417 -3.53023 0
M  V30 3714 H 366.711 -4.17577 -1.94849 0
M  V30 3715 H 365.026 -3.7038 -1.90283 0
M  V30 3716 H 367.623 -2.82306 -4.54101 0
M  V30 3717 H 367.966 -1.20322 -3.98533 0
M  V30 3718 H 368.499 -2.59664 -3.01362 0
M  V30 3719 H 365.238 -5.55867 -3.47407 0
M  V30 3720 H 364.758 -4.10254 -4.37552 0
M  V30 3721 H 366.437 -4.69153 -4.45538 0
M  V30 3722 N 366.569 1.04691 -1.17803 0
M  V30 3723 C 367.98 1.59238 -0.974689 0
M  V30 3724 C 368.331 1.90306 0.477292 0
M  V30 3725 O 367.456 1.68846 1.35352 0
M  V30 3726 C 368.051 2.89318 -1.76296 0
M  V30 3727 C 366.61 3.40506 -1.60414 0
M  V30 3728 C 365.757 2.14172 -1.76141 0
M  V30 3729 H 368.708 0.874395 -1.32439 0
M  V30 3730 H 368.729 3.5944 -1.24833 0
M  V30 3731 H 368.241 2.66675 -2.81968 0
M  V30 3732 H 366.342 3.68175 -0.572519 0
M  V30 3733 H 366.455 4.14753 -2.39827 0
M  V30 3734 H 364.819 2.25176 -1.19028 0
M  V30 3735 H 365.602 1.93992 -2.83235 0
M  V30 3736 N 368.047 0.979072 1.23499 0
M  V30 3737 C 369.294 0.647219 1.91878 0
M  V30 3738 C 369.622 -0.819074 1.76413 0
M  V30 3739 O 368.877 -1.60616 1.11808 0
M  V30 3740 C 369.176 0.981932 3.43646 0
M  V30 3741 C 368.842 2.43822 3.79291 0
M  V30 3742 C 367.504 2.83622 3.88731 0
M  V30 3743 C 369.856 3.3828 3.96505 0
M  V30 3744 C 367.184 4.16897 4.12812 0
M  V30 3745 C 369.536 4.71197 4.22085 0
M  V30 3746 C 368.2 5.10758 4.29747 0
M  V30 3747 H 367.47 0.236834 0.702133 0
M  V30 3748 H 370.117 1.23268 1.46551 0
M  V30 3749 H 368.422 0.314365 3.90537 0
M  V30 3750 H 370.119 0.703395 3.94783 0
M  V30 3751 H 366.709 2.11966 3.72516 0
M  V30 3752 H 370.893 3.0871 3.88603 0
M  V30 3753 H 366.149 4.47157 4.16966 0
M  V30 3754 H 370.323 5.44348 4.34348 0
M  V30 3755 H 367.95 6.1405 4.48159 0
M  V30 3756 N 369.525 -1.3858 0.750561 0
M  V30 3757 C 370.755 -2.04175 0.31564 0
M  V30 3758 C 371.163 -1.56726 -1.05989 0
M  V30 3759 O 370.506 -0.734225 -1.68389 0
M  V30 3760 C 370.568 -3.58585 0.256389 0
M  V30 3761 C 370.232 -4.29077 1.57296 0
M  V30 3762 C 371.229 -4.54656 2.52159 0
M  V30 3763 C 368.914 -4.67324 1.84156 0
M  V30 3764 C 370.908 -5.17512 3.72103 0
M  V30 3765 C 368.595 -5.29905 3.04374 0
M  V30 3766 C 369.593 -5.54933 3.98168 0
M  V30 3767 O 369.281 -6.16212 5.16273 0
M  V30 3768 H 369.013 -0.662742 0.133226 0
M  V30 3769 H 371.567 -1.78313 1.01948 0
M  V30 3770 H 369.797 -3.83406 -0.503677 0
M  V30 3771 H 371.486 -4.05628 -0.148612 0
M  V30 3772 H 372.252 -4.25539 2.32683 0
M  V30 3773 H 368.131 -4.47191 1.11988 0
M  V30 3774 H 371.675 -5.36963 4.45327 0
M  V30 3775 H 367.572 -5.58444 3.23745 0
M  V30 3776 H 368.34 -6.34701 5.16815 0
M  V30 3777 N 371.003 -0.499398 -1.49478 0
M  V30 3778 C 372.251 0.0455996 -2.02049 0
M  V30 3779 C 372.572 1.37633 -1.38138 0
M  V30 3780 O 371.842 1.8842 -0.536166 0
M  V30 3781 H 370.422 0.0198416 -0.746736 0
M  V30 3782 H 373.084 -0.656274 -1.83519 0
M  V30 3783 H 372.18 0.176445 -3.11601 0
M  V30 3784 N 372.481 1.55866 -0.233164 0
M  V30 3785 C 373.391 2.24431 0.683217 0
M  V30 3786 C 374.407 1.2558 1.2044 0
M  V30 3787 O 375.583 1.58422 1.24356 0
M  V30 3788 C 372.648 2.91979 1.86947 0
M  V30 3789 C 371.709 4.06204 1.38912 0
M  V30 3790 C 370.942 4.70522 2.51883 0
M  V30 3791 O 371.165 4.33865 3.70293 0
M  V30 3792 O 370.099 5.59296 2.22423 0
M  V30 3793 H 373.925 3.03426 0.129059 0
M  V30 3794 H 371.51 1.494 -0.0022283 0
M  V30 3795 H 373.392 3.34573 2.56201 0
M  V30 3796 H 372.067 2.15935 2.41151 0
M  V30 3797 H 370.974 3.68155 0.664259 0
M  V30 3798 H 372.307 4.84025 0.893328 0
M  V30 3799 N 373.959 -0.0401083 1.57549 0
M  V30 3800 C 374.889 -1.04384 2.08869 0
M  V30 3801 C 375.87 -1.38407 0.988817 0
M  V30 3802 O 377.055 -1.47483 1.26342 0
M  V30 3803 C 374.185 -2.34808 2.55895 0
M  V30 3804 C 373.139 -2.15057 3.70047 0
M  V30 3805 C 372.465 -3.51145 4.03239 0
M  V30 3806 C 373.765 -1.54576 4.98902 0
M  V30 3807 H 375.459 -0.616666 2.92981 0
M  V30 3808 H 373.005 -0.295184 1.40942 0
M  V30 3809 H 374.958 -3.05346 2.90417 0
M  V30 3810 H 373.682 -2.79565 1.68853 0
M  V30 3811 H 372.341 -1.46954 3.35857 0
M  V30 3812 H 371.989 -3.93529 3.13279 0
M  V30 3813 H 371.689 -3.38758 4.80122 0
M  V30 3814 H 373.213 -4.23062 4.40285 0
M  V30 3815 H 374.627 -2.15017 5.31451 0
M  V30 3816 H 373.024 -1.52796 5.80322 0
M  V30 3817 H 374.094 -0.51039 4.82206 0
M  V30 3818 N 375.437 -1.54477 -0.31217 0
M  V30 3819 C 376.685 -1.72884 -1.04668 0
M  V30 3820 C 377.006 -0.511477 -1.88173 0
M  V30 3821 O 376.276 0.474407 -1.90069 0
M  V30 3822 H 374.856 -0.637461 -0.389425 0
M  V30 3823 H 377.518 -1.91807 -0.345852 0
M  V30 3824 H 376.614 -2.61334 -1.70619 0
M  V30 3825 N 376.915 0.57481 -1.46744 0
M  V30 3826 C 377.878 1.66533 -1.57478 0
M  V30 3827 C 378.878 1.54338 -0.451263 0
M  V30 3828 O 380.068 1.58814 -0.715813 0
M  V30 3829 C 377.2 3.05999 -1.50259 0
M  V30 3830 H 378.393 1.58372 -2.54673 0
M  V30 3831 H 375.946 0.793301 -1.34672 0
M  V30 3832 H 376.681 3.19709 -0.543725 0
M  V30 3833 H 376.466 3.16259 -2.31781 0
M  V30 3834 H 377.956 3.8537 -1.60872 0
M  V30 3835 N 378.394 1.34581 0.820102 0
M  V30 3836 C 379.643 1.26437 1.57151 0
M  V30 3837 C 379.956 -0.163111 1.94919 0
M  V30 3838 O 381.162 -0.366722 2.69012 0
M  V30 3839 C 379.618 2.21658 2.83541 0
M  V30 3840 C 379.226 3.69679 2.53065 0
M  V30 3841 C 380.97 2.22428 3.61561 0
M  V30 3842 C 378.877 4.56761 3.75664 0
M  V30 3843 H 377.807 0.469707 0.589823 0
M  V30 3844 H 380.458 1.59763 0.902656 0
M  V30 3845 H 378.84 1.81287 3.52067 0
M  V30 3846 H 380.014 4.18605 1.92631 0
M  V30 3847 H 378.329 3.71384 1.88316 0
M  V30 3848 H 380.926 2.8471 4.52597 0
M  V30 3849 H 381.269 1.22434 3.97889 0
M  V30 3850 H 381.802 2.61259 2.99981 0
M  V30 3851 H 378.541 5.57702 3.44454 0
M  V30 3852 H 378.061 4.12568 4.35371 0
M  V30 3853 H 379.74 4.71509 4.43044 0
M  V30 3854 N 379.872 -1.04064 1.18357 0
M  V30 3855 C 380.82 -2.14187 0.907007 0
M  V30 3856 C 381.814 -1.68879 -0.132725 0
M  V30 3857 O 383.02 -1.79993 0.0154248 0
M  V30 3858 H 379.395 -0.699585 0.275835 0
M  V30 3859 H 381.366 -2.34711 1.84264 0
M  V30 3860 C 380.115 -3.44785 0.449254 0
M  V30 3861 H 379.438 -3.80058 1.24081 0
M  V30 3862 H 380.878 -4.22974 0.294737 0
M  V30 3863 C 379.337 -3.26391 -0.834909 0
M  V30 3864 O 379.867 -3.53973 -1.89911 0
M  V30 3865 N 378.073 -2.79726 -0.787523 0
M  V30 3866 H 377.62 -2.5748 0.0787347 0
M  V30 3867 H 377.578 -2.67798 -1.64716 0
M  V30 3868 N 381.35 -0.985608 -1.22978 0
M  V30 3869 C 382.761 -0.693593 -1.73338 0
M  V30 3870 C 383.112 0.789935 -1.79595 0
M  V30 3871 O 382.237 1.61771 -1.43733 0
M  V30 3872 C 382.832 -1.25235 -3.14804 0
M  V30 3873 C 381.391 -1.00987 -3.626 0
M  V30 3874 C 380.538 -1.37695 -2.40698 0
M  V30 3875 H 383.489 -1.15884 -1.08428 0
M  V30 3876 H 383.51 -0.627329 -3.75293 0
M  V30 3877 H 383.022 -2.33209 -3.10218 0
M  V30 3878 H 381.123 0.0535565 -3.72562 0
M  V30 3879 H 381.236 -1.66812 -4.49122 0
M  V30 3880 H 379.6 -0.795459 -2.4196 0
M  V30 3881 H 380.383 -2.46657 -2.38779 0
M  V30 3882 N 382.828 1.3818 -0.7579 0
M  V30 3883 C 384.056 2.04301 -0.326937 0
M  V30 3884 C 384.471 1.57163 1.0462 0
M  V30 3885 O 383.828 0.746626 1.66529 0
M  V30 3886 C 383.879 3.59846 -0.345363 0
M  V30 3887 O 383.6 4.05256 -1.66432 0
M  V30 3888 C 385.101 4.4319 0.098927 0
M  V30 3889 H 382.321 0.656443 -0.139012 0
M  V30 3890 H 384.865 1.76786 -1.02796 0
M  V30 3891 H 383.02 3.86182 0.306955 0
M  V30 3892 H 383.434 4.99709 -1.59345 0
M  V30 3893 H 384.908 5.51989 0.0348745 0
M  V30 3894 H 385.385 4.23947 1.14741 0
M  V30 3895 H 385.991 4.22051 -0.52468 0
M  V30 3896 N 384.306 0.507319 1.49211 0
M  V30 3897 C 385.553 -0.0349529 2.0247 0
M  V30 3898 C 385.881 -1.36409 1.38647 0
M  V30 3899 O 385.136 -1.88841 0.513566 0
M  V30 3900 C 385.435 -0.229513 3.56662 0
M  V30 3901 C 385.101 1.02241 4.39156 0
M  V30 3902 C 383.763 1.36557 4.61417 0
M  V30 3903 C 386.115 1.85428 4.871 0
M  V30 3904 C 383.443 2.53999 5.28868 0
M  V30 3905 C 385.795 3.02028 5.55843 0
M  V30 3906 C 384.459 3.36717 5.76349 0
M  V30 3907 H 383.729 -0.0127902 0.74089 0
M  V30 3908 H 386.376 0.668756 1.79443 0
M  V30 3909 H 384.681 -1.0158 3.78403 0
M  V30 3910 H 386.378 -0.663641 3.9547 0
M  V30 3911 H 382.968 0.745124 4.22073 0
M  V30 3912 H 387.152 1.6023 4.69723 0
M  V30 3913 H 382.408 2.81105 5.42946 0
M  V30 3914 H 386.582 3.66808 5.91967 0
M  V30 3915 H 384.209 4.27821 6.28389 0
M  V30 3916 N 385.784 -1.5574 0.241426 0
M  V30 3917 C 387.033 -1.97986 -0.385295 0
M  V30 3918 C 387.346 -1.13267 -1.59468 0
M  V30 3919 O 388.552 -1.45501 -2.2922 0
M  V30 3920 C 387.008 -3.52275 -0.736884 0
M  V30 3921 C 386.616 -4.45726 0.450796 0
M  V30 3922 C 388.36 -4.03189 -1.3281 0
M  V30 3923 C 386.267 -5.91352 0.0756662 0
M  V30 3924 H 385.197 -0.739386 -0.147731 0
M  V30 3925 H 387.848 -1.80308 0.340779 0
M  V30 3926 H 386.23 -3.65628 -1.52094 0
M  V30 3927 H 387.404 -4.44131 1.22819 0
M  V30 3928 H 385.719 -4.05264 0.956573 0
M  V30 3929 H 388.316 -5.09505 -1.62201 0
M  V30 3930 H 388.659 -3.50212 -2.25071 0
M  V30 3931 H 389.192 -3.93141 -0.607069 0
M  V30 3932 H 385.931 -6.48354 0.965272 0
M  V30 3933 H 385.451 -5.96095 -0.665635 0
M  V30 3934 H 387.13 -6.46084 -0.344075 0
M  V30 3935 N 387.262 0.0317525 -1.57568 0
M  V30 3936 C 388.509 0.723104 -1.89149 0
M  V30 3937 C 388.837 1.75504 -0.838377 0
M  V30 3938 O 388.092 1.95037 0.160982 0
M  V30 3939 C 388.391 1.43167 -3.27472 0
M  V30 3940 C 388.057 0.535972 -4.47703 0
M  V30 3941 C 386.719 0.289262 -4.8033 0
M  V30 3942 C 389.071 -0.0826125 -5.21135 0
M  V30 3943 C 386.399 -0.584853 -5.83778 0
M  V30 3944 C 388.751 -0.944414 -6.25511 0
M  V30 3945 C 387.415 -1.20061 -6.56614 0
M  V30 3946 H 386.685 0.264602 -0.692146 0
M  V30 3947 H 389.332 -0.0169496 -1.91492 0
M  V30 3948 H 387.637 2.24497 -3.21105 0
M  V30 3949 H 389.334 1.97209 -3.49155 0
M  V30 3950 H 385.924 0.738414 -4.22191 0
M  V30 3951 H 390.108 0.0950302 -4.96209 0
M  V30 3952 H 385.364 -0.79168 -6.06253 0
M  V30 3953 H 389.538 -1.43026 -6.81554 0
M  V30 3954 H 387.165 -1.87967 -7.36595 0
M  V30 3955 N 388.74 1.54641 0.303973 0
M  V30 3956 C 390.151 1.64811 0.877163 0
M  V30 3957 C 390.502 0.554838 1.88191 0
M  V30 3958 O 389.627 -0.309033 2.14182 0
M  V30 3959 C 390.222 2.9876 1.59775 0
M  V30 3960 C 388.781 3.11061 2.11938 0
M  V30 3961 C 387.928 2.60479 0.951097 0
M  V30 3962 H 390.879 1.58493 0.0810486 0
M  V30 3963 H 390.9 2.90017 2.46314 0
M  V30 3964 H 390.412 3.7831 0.866226 0
M  V30 3965 H 388.513 2.36225 2.88146 0
M  V30 3966 H 388.626 4.17171 2.35595 0
M  V30 3967 H 386.99 2.16859 1.33583 0
M  V30 3968 H 387.773 3.42504 0.233581 0
M  V30 3969 N 390.218 -0.567019 1.47046 0
M  V30 3970 C 391.443 -1.3551 1.57009 0
M  V30 3971 C 391.868 -1.86841 0.217259 0
M  V30 3972 O 391.226 -1.62435 -0.805268 0
M  V30 3973 C 391.274 -2.50777 2.5912 0
M  V30 3974 O 390.378 -3.52706 2.13711 0
M  V30 3975 H 389.719 -0.402919 0.52778 0
M  V30 3976 H 392.249 -0.686241 1.92748 0
M  V30 3977 H 392.259 -2.97481 2.79229 0
M  V30 3978 H 390.934 -2.12771 3.57353 0
M  V30 3979 H 389.511 -3.12374 2.03659 0
M  V30 3980 N 391.696 -1.35014 -0.812953 0
M  V30 3981 C 392.659 -1.27292 -1.90602 0
M  V30 3982 C 393.659 -0.185817 -1.59723 0
M  V30 3983 O 394.849 -0.439102 -1.68575 0
M  V30 3984 C 391.981 -0.967676 -3.26877 0
M  V30 3985 H 393.174 -2.24479 -1.9887 0
M  V30 3986 H 390.727 -1.19446 -1.00808 0
M  V30 3987 H 391.462 0.0005954 -3.243 0
M  V30 3988 H 391.247 -1.75412 -3.50675 0
M  V30 3989 H 392.737 -0.939085 -4.06904 0
M  V30 3990 N 393.175 1.03435 -1.18907 0
M  V30 3991 C 394.108 2.11162 -0.86521 0
M  V30 3992 C 395.086 1.6165 0.175473 0
M  V30 3993 O 396.27 1.88425 0.0530129 0
M  V30 3994 C 393.397 3.37423 -0.293868 0
M  V30 3995 C 392.443 4.05795 -1.31274 0
M  V30 3996 S 393.276 4.52027 -2.8711 0
M  V30 3997 C 394.432 5.81513 -2.31504 0
M  V30 3998 H 394.665 2.38308 -1.77754 0
M  V30 3999 H 392.198 1.16295 -1.01562 0
M  V30 4000 H 394.156 4.1049 0.0292572 0
M  V30 4001 H 392.817 3.0838 0.596682 0
M  V30 4002 H 392.01 4.96574 -0.86198 0
M  V30 4003 H 391.612 3.38874 -1.58242 0
M  V30 4004 H 393.904 6.55784 -1.70157 0
M  V30 4005 H 394.847 6.3136 -3.20608 0
M  V30 4006 H 395.255 5.36921 -1.74286 0
M  V30 4007 N 394.653 0.992116 1.22453 0
M  V30 4008 C 396.069 0.702713 1.43297 0
M  V30 4009 C 396.269 -0.726909 1.87932 0
M  V30 4010 O 395.325 -1.49792 2.0327 0
M  V30 4011 C 396.638 1.70762 2.47509 0
M  V30 4012 C 398.186 1.72298 2.61309 0
M  V30 4013 C 398.661 2.71649 3.68742 0
M  V30 4014 N 400.152 2.70239 3.76199 0
M  V30 4015 C 400.887 3.43778 4.58917 0
M  V30 4016 N 400.383 4.26914 5.45633 0
M  V30 4017 N 402.176 3.32487 4.5322 0
M  V30 4018 H 394.327 1.91543 0.917871 0
M  V30 4019 H 396.59 0.826031 0.465162 0
M  V30 4020 H 396.296 2.73059 2.21657 0
M  V30 4021 H 396.17 1.49985 3.46099 0
M  V30 4022 H 398.557 0.706989 2.86506 0
M  V30 4023 H 398.638 1.97143 1.62997 0
M  V30 4024 H 398.282 3.73397 3.44292 0
M  V30 4025 H 398.212 2.44074 4.66622 0
M  V30 4026 H 400.703 2.09912 3.14237 0
M  V30 4027 H 401.016 4.79855 6.05771 0
M  V30 4028 H 399.361 4.31002 5.45218 0
M  V30 4029 H 402.552 2.6698 3.84499 0
M  V30 4030 H 402.725 3.90058 5.17454 0
M  V30 4031 N 396.131 -1.37776 0.765217 0
M  V30 4032 C 397.094 -2.28686 0.153416 0
M  V30 4033 C 398.094 -1.47727 -0.635081 0
M  V30 4034 O 399.284 -1.68027 -0.459632 0
M  V30 4035 C 396.416 -3.31608 -0.790495 0
M  V30 4036 H 397.609 -2.84297 0.954723 0
M  V30 4037 H 395.162 -1.46932 0.53299 0
M  V30 4038 H 395.897 -2.81109 -1.61705 0
M  V30 4039 H 395.682 -3.9144 -0.227348 0
M  V30 4040 H 397.172 -3.99559 -1.21419 0
M  V30 4041 N 397.609 -0.515225 -1.4894 0
M  V30 4042 C 398.556 0.255567 -2.29381 0
M  V30 4043 C 399.526 0.947387 -1.36432 0
M  V30 4044 O 400.711 0.951288 -1.65394 0
M  V30 4045 C 397.851 1.30551 -3.19453 0
M  V30 4046 C 396.964 0.624029 -4.27469 0
M  V30 4047 C 396.099 1.65563 -5.0474 0
M  V30 4048 C 395.138 0.956802 -6.04576 0
M  V30 4049 N 394.275 1.93326 -6.74959 0
M  V30 4050 H 399.115 -0.436607 -2.94784 0
M  V30 4051 H 396.652 -0.227154 -1.45336 0
M  V30 4052 H 398.61 1.92639 -3.70062 0
M  V30 4053 H 397.24 1.96626 -2.56004 0
M  V30 4054 H 396.292 -0.110459 -3.8024 0
M  V30 4055 H 397.604 0.0746092 -4.98744 0
M  V30 4056 H 396.758 2.35119 -5.59289 0
M  V30 4057 H 395.497 2.23893 -4.3327 0
M  V30 4058 H 394.502 0.247097 -5.49244 0
M  V30 4059 H 395.727 0.379814 -6.78037 0
M  V30 4060 H 393.673 2.50591 -6.06251 0
M  V30 4061 H 393.59 1.43489 -7.42258 0
M  V30 4062 H 394.858 2.62126 -7.34105 0
M  V30 4063 N 399.087 1.5561 -0.249682 0
M  V30 4064 C 400.05 2.20217 0.635394 0
M  V30 4065 C 401.05 1.17227 1.10066 0
M  V30 4066 O 402.24 1.42292 1.00492 0
M  V30 4067 C 399.372 2.84794 1.87363 0
M  V30 4068 H 400.565 2.99814 0.0716752 0
M  V30 4069 H 398.118 1.563 -0.000153234 0
M  V30 4070 H 398.853 2.09142 2.47851 0
M  V30 4071 H 398.638 3.60241 1.5482 0
M  V30 4072 H 400.128 3.3423 2.5036 0
M  V30 4073 N 400.565 -0.0233959 1.57583 0
M  V30 4074 C 401.842 -0.748794 1.807 0
M  V30 4075 C 402.222 -1.9327 0.849106 0
M  V30 4076 O 401.57 -2.28247 -0.107468 0
M  V30 4077 C 401.78 -1.17651 3.28571 0
M  V30 4078 C 403.128 -1.59008 3.93702 0
M  V30 4079 O 404.152 -1.27094 3.32755 0
M  V30 4080 O 403.011 -2.18264 5.01022 0
M  V30 4081 H 400.105 -0.362578 0.743281 0
M  V30 4082 H 402.651 0.000261958 1.697 0
M  V30 4083 H 401.423 -0.331603 3.89892 0
M  V30 4084 H 401.046 -1.98541 3.44481 0
M  V30 4085 N 402.043 -1.548 -0.295768 0
M  V30 4086 C 402.973 -1.89115 -1.36959 0
M  V30 4087 C 403.954 -0.75059 -1.52644 0
M  V30 4088 O 405.139 -1.00678 -1.66065 0
M  V30 4089 C 402.269 -2.14307 -2.73295 0
M  V30 4090 C 401.223 -3.30151 -2.72368 0
M  V30 4091 C 400.549 -3.40772 -4.12042 0
M  V30 4092 C 401.849 -4.67126 -2.33646 0
M  V30 4093 H 403.543 -2.79053 -1.08488 0
M  V30 4094 H 401.089 -1.34266 -0.520443 0
M  V30 4095 H 403.042 -2.36898 -3.48507 0
M  V30 4096 H 401.766 -1.21145 -3.03301 0
M  V30 4097 H 400.425 -3.0749 -1.99613 0
M  V30 4098 H 400.073 -2.45117 -4.39234 0
M  V30 4099 H 399.773 -4.18645 -4.12322 0
M  V30 4100 H 401.297 -3.6563 -4.89027 0
M  V30 4101 H 402.711 -4.89414 -2.98575 0
M  V30 4102 H 401.108 -5.47751 -2.45129 0
M  V30 4103 H 402.178 -4.67489 -1.28772 0
M  V30 4104 N 403.521 0.559213 -1.47345 0
M  V30 4105 C 404.484 1.64854 -1.59235 0
M  V30 4106 C 405.484 1.53851 -0.467607 0
M  V30 4107 O 406.674 1.58045 -0.732617 0
M  V30 4108 C 403.806 3.04388 -1.53496 0
M  V30 4109 H 404.999 1.55662 -2.56339 0
M  V30 4110 H 402.552 0.778973 -1.35505 0
M  V30 4111 H 403.287 3.19115 -0.577604 0
M  V30 4112 H 403.072 3.13783 -2.35123 0
M  V30 4113 H 404.562 3.83642 -1.6495 0
M  V30 4114 N 404.999 1.35443 0.805782 0
M  V30 4115 C 406.276 1.19325 1.54987 0
M  V30 4116 C 406.656 -0.227294 2.09873 0
M  V30 4117 O 406.004 -1.2309 1.92512 0
M  V30 4118 C 406.214 2.26196 2.65775 0
M  V30 4119 C 407.562 2.62043 3.34094 0
M  V30 4120 O 408.586 2.25115 2.76046 0
M  V30 4121 O 407.445 3.25542 4.38958 0
M  V30 4122 H 404.539 0.463623 0.684823 0
M  V30 4123 H 407.085 1.47127 0.845674 0
M  V30 4124 H 405.857 3.21471 2.23096 0
M  V30 4125 H 405.48 1.99667 3.43829 0
M  V30 4126 N 406.477 -1.02803 1.19454 0
M  V30 4127 C 407.409 -2.11181 0.890807 0
M  V30 4128 C 408.422 -1.6238 -0.116829 0
M  V30 4129 O 409.611 -1.78144 0.112694 0
M  V30 4130 C 406.711 -3.37461 0.311942 0
M  V30 4131 C 405.884 -4.15446 1.36834 0
M  V30 4132 C 404.943 -5.20039 0.802864 0
M  V30 4133 O 403.969 -5.49602 1.48077 0
M  V30 4134 N 405.171 -5.79165 -0.393417 0
M  V30 4135 H 407.936 -2.37827 1.82369 0
M  V30 4136 H 405.497 -1.19101 1.09666 0
M  V30 4137 H 407.489 -4.0462 -0.0802225 0
M  V30 4138 H 406.059 -3.08156 -0.52524 0
M  V30 4139 H 405.279 -3.43423 1.93531 0
M  V30 4140 H 406.567 -4.64335 2.08015 0
M  V30 4141 H 405.965 -5.57466 -0.961658 0
M  V30 4142 H 404.522 -6.47729 -0.727351 0
M  V30 4143 N 407.956 -0.998596 -1.21925 0
M  V30 4144 C 409.203 -0.677663 -1.90824 0
M  V30 4145 C 409.531 0.790905 -1.77693 0
M  V30 4146 O 408.786 1.58817 -1.14349 0
M  V30 4147 C 409.085 -1.03648 -3.42041 0
M  V30 4148 C 408.751 -2.49825 -3.75364 0
M  V30 4149 C 407.413 -2.8977 -3.8417 0
M  V30 4150 C 409.765 -3.44545 -3.91073 0
M  V30 4151 C 407.093 -4.23412 -4.06127 0
M  V30 4152 C 409.445 -4.77853 -4.14535 0
M  V30 4153 C 408.109 -5.17531 -4.21566 0
M  V30 4154 H 407.379 -0.247975 -0.698276 0
M  V30 4155 H 410.026 -1.25584 -1.44571 0
M  V30 4156 H 408.331 -0.376457 -3.89987 0
M  V30 4157 H 410.028 -0.766113 -3.93614 0
M  V30 4158 H 406.618 -2.17866 -3.69097 0
M  V30 4159 H 410.802 -3.14853 -3.83642 0
M  V30 4160 H 406.058 -4.53734 -4.09799 0
M  V30 4161 H 410.232 -5.51189 -4.25633 0
M  V30 4162 H 407.859 -6.21102 -4.38333 0
M  V30 4163 N 409.434 1.37368 -0.772513 0
M  V30 4164 C 410.68 1.99969 -0.337681 0
M  V30 4165 C 411.013 1.61184 1.08321 0
M  V30 4166 O 410.288 0.858395 1.74533 0
M  V30 4167 C 410.571 3.56858 -0.482121 0
M  V30 4168 C 410.424 4.0555 -1.94549 0
M  V30 4169 C 411.743 4.39955 0.113143 0
M  V30 4170 H 408.862 0.726464 -0.124171 0
M  V30 4171 H 411.504 1.63034 -0.975699 0
M  V30 4172 H 409.654 3.88452 0.0610361 0
M  V30 4173 H 411.326 3.84518 -2.54841 0
M  V30 4174 H 409.569 3.57715 -2.45403 0
M  V30 4175 H 410.24 5.14587 -1.9976 0
M  V30 4176 H 412.716 4.14623 -0.35031 0
M  V30 4177 H 411.592 5.48897 -0.0180514 0
M  V30 4178 H 411.853 4.25403 1.20354 0
M  V30 4179 N 410.912 0.523116 1.48665 0
M  V30 4180 C 411.875 -0.232592 2.28017 0
M  V30 4181 C 412.875 -0.874021 1.34972 0
M  V30 4182 O 414.065 -0.735132 1.57929 0
M  V30 4183 C 411.197 -1.33586 3.13636 0
M  V30 4184 H 412.39 0.464008 2.96289 0
M  V30 4185 H 409.943 0.278816 1.53793 0
M  V30 4186 H 410.678 -2.06593 2.4998 0
M  V30 4187 H 410.463 -0.881125 3.82071 0
M  V30 4188 H 411.953 -1.86759 3.73511 0
M  V30 4189 N 412.39 -1.55475 0.257931 0
M  V30 4190 C 413.615 -2.04064 -0.370488 0
M  V30 4191 C 414.04 -1.13565 -1.49948 0
M  V30 4192 O 413.398 -0.130781 -1.80828 0
M  V30 4193 C 413.446 -3.50554 -0.845237 0
M  V30 4194 O 412.55 -3.63173 -1.95394 0
M  V30 4195 H 411.891 -0.659257 -0.0792243 0
M  V30 4196 H 414.421 -2.00903 0.387212 0
M  V30 4197 H 414.431 -3.91588 -1.14555 0
M  V30 4198 H 413.106 -4.15896 -0.0191259 0
M  V30 4199 H 411.683 -3.34039 -1.65748 0
M  V30 4200 N 413.868 0.0150385 -1.57593 0
M  V30 4201 C 414.801 1.04475 -2.0288 0
M  V30 4202 C 415.779 1.3436 -0.915764 0
M  V30 4203 O 416.963 1.46779 -1.18271 0
M  V30 4204 C 414.09 2.37608 -2.41371 0
M  V30 4205 C 413.136 2.23487 -3.63257 0
M  V30 4206 S 413.969 1.57505 -5.11813 0
M  V30 4207 C 415.125 2.921 -5.5356 0
M  V30 4208 H 415.358 0.65907 -2.89903 0
M  V30 4209 H 412.891 0.225452 -1.52745 0
M  V30 4210 H 414.849 3.14165 -2.64217 0
M  V30 4211 H 413.51 2.7332 -1.54775 0
M  V30 4212 H 412.703 3.21802 -3.87891 0
M  V30 4213 H 412.305 1.55074 -3.40335 0
M  V30 4214 H 414.597 3.88419 -5.55101 0
M  V30 4215 H 415.54 2.72184 -6.53698 0
M  V30 4216 H 415.948 2.95318 -4.8109 0
M  V30 4217 N 415.346 1.54954 0.287554 0
M  V30 4218 C 416.574 1.78881 1.03967 0
M  V30 4219 C 416.989 0.554894 1.80462 0
M  V30 4220 O 416.346 -0.475676 1.76192 0
M  V30 4221 C 416.397 3.00488 2.0097 0
M  V30 4222 O 416.118 4.19113 1.27577 0
M  V30 4223 C 417.619 3.36907 2.88112 0
M  V30 4224 H 414.839 0.596259 0.307761 0
M  V30 4225 H 417.383 2.01937 0.322749 0
M  V30 4226 H 415.538 2.79601 2.68145 0
M  V30 4227 H 415.952 4.87765 1.92835 0
M  V30 4228 H 417.426 4.25205 3.52001 0
M  V30 4229 H 417.903 2.55659 3.57121 0
M  V30 4230 H 418.509 3.60001 2.26449 0
M  V30 4231 N 416.824 -0.551391 1.4764 0
M  V30 4232 C 417.757 -1.6738 1.5511 0
M  V30 4233 C 418.735 -1.5753 0.402856 0
M  V30 4234 O 419.919 -1.78307 0.611475 0
M  V30 4235 C 417.046 -3.05661 1.45908 0
M  V30 4236 C 416.092 -3.33938 2.65307 0
M  V30 4237 S 416.925 -3.22553 4.27457 0
M  V30 4238 C 418.081 -4.63317 4.20818 0
M  V30 4239 H 418.314 -1.6079 2.50068 0
M  V30 4240 H 415.847 -0.732674 1.35909 0
M  V30 4241 H 417.805 -3.8542 1.41286 0
M  V30 4242 H 416.466 -3.09711 0.523248 0
M  V30 4243 H 415.659 -4.34761 2.54948 0
M  V30 4244 H 415.261 -2.61809 2.67081 0
M  V30 4245 H 417.553 -5.54391 3.89431 0
M  V30 4246 H 418.496 -4.78732 5.21748 0
M  V30 4247 H 418.904 -4.41636 3.51593 0
M  V30 4248 N 418.302 -1.35869 -0.798587 0
M  V30 4249 C 419.55 -1.29332 -1.55298 0
M  V30 4250 C 419.871 0.129729 -1.94568 0
M  V30 4251 O 419.141 1.06796 -1.6423 0
M  V30 4252 H 417.721 -0.475737 -0.57592 0
M  V30 4253 H 420.383 -1.70062 -0.952093 0
M  V30 4254 H 419.479 -1.91458 -2.46476 0
M  V30 4255 N 419.78 1.02168 -1.19998 0
M  V30 4256 C 421.02 1.77232 -1.01825 0
M  V30 4257 C 421.384 1.86833 0.442428 0
M  V30 4258 O 422.585 2.58293 0.744189 0
M  V30 4259 C 420.856 3.15601 -1.67722 0
M  V30 4260 S 422.415 4.06765 -1.64584 0
M  V30 4261 H 419.233 0.610021 -0.365233 0
M  V30 4262 H 421.835 1.22368 -1.52467 0
M  V30 4263 H 420.539 3.06235 -2.73218 0
M  V30 4264 H 420.07 3.7554 -1.17189 0
M  V30 4265 H 422.085 4.91586 -0.67511 0
M  V30 4266 N 421.258 1.00505 1.21394 0
M  V30 4267 C 422.506 0.686415 1.90086 0
M  V30 4268 C 422.827 -0.785264 1.7849 0
M  V30 4269 O 422.097 -1.56387 1.17983 0
M  V30 4270 H 420.677 0.2509 0.703604 0
M  V30 4271 H 423.339 1.27417 1.47482 0
M  V30 4272 H 422.435 0.959621 2.96981 0
M  V30 4273 N 422.737 -1.36956 0.779787 0
M  V30 4274 C 423.669 -2.28833 0.129639 0
M  V30 4275 C 424.682 -1.4902 -0.655511 0
M  V30 4276 O 425.871 -1.71578 -0.492279 0
M  V30 4277 C 422.971 -3.2833 -0.839792 0
M  V30 4278 C 422.144 -4.3727 -0.10675 0
M  V30 4279 C 421.203 -5.16789 -0.990717 0
M  V30 4280 O 420.229 -5.67406 -0.451516 0
M  V30 4281 N 421.431 -5.32294 -2.3161 0
M  V30 4282 H 424.196 -2.85268 0.918803 0
M  V30 4283 H 421.757 -1.49019 0.632841 0
M  V30 4284 H 423.749 -3.78413 -1.43477 0
M  V30 4285 H 422.319 -2.72605 -1.52988 0
M  V30 4286 H 421.539 -3.88478 0.669216 0
M  V30 4287 H 422.827 -5.07229 0.399464 0
M  V30 4288 H 422.225 -4.92768 -2.77843 0
M  V30 4289 H 420.782 -5.85656 -2.86095 0
M  V30 4290 N 424.215 -0.530993 -1.48385 0
M  V30 4291 C 425.462 0.0027373 -2.025 0
M  V30 4292 C 425.79 1.34186 -1.40799 0
M  V30 4293 O 425.045 1.88 -0.543544 0
M  V30 4294 C 425.344 0.172742 -3.56982 0
M  V30 4295 C 425.01 -1.09215 -4.37473 0
M  V30 4296 C 423.672 -1.43881 -4.59186 0
M  V30 4297 C 426.024 -1.93153 -4.84088 0
M  V30 4298 C 423.352 -2.62381 -5.2476 0
M  V30 4299 C 425.704 -3.10833 -5.50968 0
M  V30 4300 C 424.368 -3.45843 -5.70919 0
M  V30 4301 H 423.638 0.00100165 -0.740999 0
M  V30 4302 H 426.285 -0.697219 -1.78357 0
M  V30 4303 H 424.59 0.955473 -3.79971 0
M  V30 4304 H 426.287 0.600642 -3.96476 0
M  V30 4305 H 422.877 -0.812177 -4.20834 0
M  V30 4306 H 427.061 -1.67683 -4.67115 0
M  V30 4307 H 422.317 -2.89707 -5.38405 0
M  V30 4308 H 426.491 -3.7618 -5.86056 0
M  V30 4309 H 424.118 -4.37764 -6.21503 0
M  V30 4310 N 425.693 1.55336 -0.266172 0
M  V30 4311 C 426.933 2.01303 0.354459 0
M  V30 4312 C 427.297 1.15046 1.53715 0
M  V30 4313 O 428.498 1.50554 2.22681 0
M  V30 4314 C 426.769 3.49748 0.735579 0
M  V30 4315 S 428.328 4.1771 1.34401 0
M  V30 4316 H 425.146 0.702333 0.110674 0
M  V30 4317 H 427.748 1.91653 -0.385916 0
M  V30 4318 H 426.452 4.10181 -0.134196 0
M  V30 4319 H 425.983 3.63364 1.50764 0
M  V30 4320 H 427.998 4.20594 2.63278 0
M  V30 4321 N 427.171 -0.0066808 1.57599 0
M  V30 4322 C 428.399 -0.704087 1.94551 0
M  V30 4323 C 428.814 -1.67677 0.867746 0
M  V30 4324 O 428.171 -1.8185 -0.153925 0
M  V30 4325 C 428.222 -1.44177 3.31505 0
M  V30 4326 O 427.943 -0.508097 4.35144 0
M  V30 4327 C 429.444 -2.23429 3.82876 0
M  V30 4328 H 426.664 -0.196523 0.641576 0
M  V30 4329 H 429.208 0.042453 2.04456 0
M  V30 4330 H 427.363 -2.13999 3.22929 0
M  V30 4331 H 427.777 -1.02782 5.14331 0
M  V30 4332 H 429.251 -2.70552 4.8115 0
M  V30 4333 H 429.728 -3.05818 3.15233 0
M  V30 4334 H 430.334 -1.58636 3.94607 0
M  V30 4335 N 428.649 -1.55105 -0.279332 0
M  V30 4336 C 429.596 -1.8755 -1.34513 0
M  V30 4337 C 430.566 -0.726384 -1.49375 0
M  V30 4338 O 431.751 -0.977063 -1.63884 0
M  V30 4339 C 428.891 -2.14738 -2.70151 0
M  V30 4340 C 428.004 -3.42285 -2.63562 0
M  V30 4341 C 427.139 -3.59206 -3.91337 0
M  V30 4342 C 426.178 -4.80467 -3.79233 0
M  V30 4343 N 425.315 -4.94079 -4.98829 0
M  V30 4344 H 430.155 -2.78456 -1.06143 0
M  V30 4345 H 427.692 -1.37867 -0.512936 0
M  V30 4346 H 429.65 -2.28501 -3.49061 0
M  V30 4347 H 428.28 -1.27075 -2.96735 0
M  V30 4348 H 427.332 -3.37029 -1.76397 0
M  V30 4349 H 428.644 -4.31328 -2.50515 0
M  V30 4350 H 427.798 -3.72751 -4.78687 0
M  V30 4351 H 426.537 -2.68337 -4.07243 0
M  V30 4352 H 425.542 -4.66932 -2.90266 0
M  V30 4353 H 426.767 -5.72765 -3.64852 0
M  V30 4354 H 424.713 -4.06139 -5.15158 0
M  V30 4355 H 424.63 -5.77156 -4.8829 0
M  V30 4356 H 425.898 -5.12003 -5.8777 0
M  V30 4357 N 430.127 0.543554 -1.4793 0
M  V30 4358 C 431.538 1.12561 -1.48953 0
M  V30 4359 C 431.889 1.94578 -0.251754 0
M  V30 4360 O 431.014 2.0665 0.642255 0
M  V30 4361 C 431.609 2.04801 -2.69892 0
M  V30 4362 C 430.168 2.58251 -2.73831 0
M  V30 4363 C 429.315 1.34918 -2.42265 0
M  V30 4364 H 432.266 0.32947 -1.55242 0
M  V30 4365 H 432.287 2.88886 -2.47639 0
M  V30 4366 H 431.799 1.4508 -3.59963 0
M  V30 4367 H 429.9 3.21732 -1.87934 0
M  V30 4368 H 430.013 2.98312 -3.74895 0
M  V30 4369 H 428.377 1.66046 -1.93134 0
M  V30 4370 H 429.16 0.769693 -3.3456 0
M  V30 4371 N 431.605 1.3629 0.791371 0
M  V30 4372 C 432.853 1.30154 1.5461 0
M  V30 4373 C 433.174 -0.119409 1.94634 0
M  V30 4374 O 432.444 -1.05924 1.64794 0
M  V30 4375 H 431.024 0.478784 0.573389 0
M  V30 4376 H 433.686 1.70565 0.94306 0
M  V30 4377 H 432.782 1.92762 2.45457 0
M  V30 4378 N 433.083 -1.0153 1.20538 0
M  V30 4379 C 434.329 -1.75408 1.01783 0
M  V30 4380 C 434.662 -1.88943 -0.448814 0
M  V30 4381 O 433.937 -1.4162 -1.33319 0
M  V30 4382 C 434.22 -3.17255 1.70356 0
M  V30 4383 C 434.073 -3.11508 3.24473 0
M  V30 4384 C 435.392 -4.15955 1.43769 0
M  V30 4385 H 432.511 -0.636713 0.371167 0
M  V30 4386 H 435.153 -1.18436 1.4857 0
M  V30 4387 H 433.303 -3.65898 1.30578 0
M  V30 4388 H 434.975 -2.70658 3.73553 0
M  V30 4389 H 433.218 -2.4887 3.55311 0
M  V30 4390 H 433.889 -4.11784 3.67611 0
M  V30 4391 H 436.365 -3.75973 1.7828 0
M  V30 4392 H 435.241 -5.13368 1.94279 0
M  V30 4393 H 435.502 -4.40586 0.365564 0
M  V30 4394 N 434.561 -1.01147 -1.20859 0
M  V30 4395 C 435.807 -0.698899 -1.90377 0
M  V30 4396 C 436.14 0.76904 -1.78324 0
M  V30 4397 O 435.415 1.55817 -1.16409 0
M  V30 4398 C 435.698 -1.12878 -3.41951 0
M  V30 4399 C 435.551 -2.65665 -3.62963 0
M  V30 4400 C 436.87 -0.696114 -4.3456 0
M  V30 4401 H 433.989 -0.255372 -0.691342 0
M  V30 4402 H 436.631 -1.25831 -1.42361 0
M  V30 4403 H 434.781 -0.652827 -3.82976 0
M  V30 4404 H 436.453 -3.21074 -3.31224 0
M  V30 4405 H 434.696 -3.06878 -3.06608 0
M  V30 4406 H 435.367 -2.90797 -4.69192 0
M  V30 4407 H 437.843 -1.10521 -4.01154 0
M  V30 4408 H 436.719 -1.025 -5.39245 0
M  V30 4409 H 436.98 0.402465 -4.40264 0
M  V30 4410 N 436.039 1.36541 -0.78704 0
M  V30 4411 C 437.286 1.99304 -0.358341 0
M  V30 4412 C 437.614 1.62467 1.06933 0
M  V30 4413 O 436.869 0.870019 1.75297 0
M  V30 4414 C 437.168 3.54343 -0.466485 0
M  V30 4415 C 436.834 4.10993 -1.85461 0
M  V30 4416 C 435.496 4.26177 -2.23443 0
M  V30 4417 C 437.848 4.41895 -2.76366 0
M  V30 4418 C 435.176 4.69573 -3.51736 0
M  V30 4419 C 437.528 4.86722 -4.04084 0
M  V30 4420 C 436.192 5.00112 -4.42091 0
M  V30 4421 H 435.462 0.729306 -0.131126 0
M  V30 4422 H 438.109 1.63068 -1.00404 0
M  V30 4423 H 436.414 3.90918 0.262719 0
M  V30 4424 H 438.111 4.00833 -0.115854 0
M  V30 4425 H 434.701 3.99612 -1.54946 0
M  V30 4426 H 438.885 4.29735 -2.48277 0
M  V30 4427 H 434.141 4.78127 -3.81057 0
M  V30 4428 H 438.315 5.09598 -4.7464 0
M  V30 4429 H 435.942 5.33498 -5.41557 0
M  V30 4430 N 437.518 0.538854 1.48102 0
M  V30 4431 C 438.481 -0.208395 2.28251 0
M  V30 4432 C 439.481 -0.859656 1.35892 0
M  V30 4433 O 440.671 -0.71834 1.58699 0
M  V30 4434 C 437.803 -1.30252 3.15035 0
M  V30 4435 H 438.996 0.495407 2.9578 0
M  V30 4436 H 436.549 0.295112 1.53489 0
M  V30 4437 H 437.284 -2.0393 2.52157 0
M  V30 4438 H 437.069 -0.840551 3.82985 0
M  V30 4439 H 438.559 -1.82787 3.75471 0
M  V30 4440 N 438.996 -1.55193 0.274407 0
M  V30 4441 C 439.926 -2.25471 -0.607032 0
M  V30 4442 C 440.907 -1.24461 -1.15946 0
M  V30 4443 O 442.092 -1.53179 -1.19373 0
M  V30 4444 C 439.222 -2.97526 -1.79153 0
M  V30 4445 C 438.176 -4.05459 -1.37067 0
M  V30 4446 C 437.502 -4.65084 -2.6382 0
M  V30 4447 C 438.802 -5.19691 -0.521389 0
M  V30 4448 H 440.496 -2.99393 -0.0209343 0
M  V30 4449 H 438.042 -1.43997 -0.00862866 0
M  V30 4450 H 439.995 -3.45402 -2.41404 0
M  V30 4451 H 438.719 -2.21138 -2.40344 0
M  V30 4452 H 437.378 -3.58393 -0.771355 0
M  V30 4453 H 437.026 -3.85365 -3.23268 0
M  V30 4454 H 436.726 -5.37961 -2.36372 0
M  V30 4455 H 438.25 -5.15708 -3.26921 0
M  V30 4456 H 439.664 -5.63623 -1.04889 0
M  V30 4457 H 438.061 -5.99126 -0.341825 0
M  V30 4458 H 439.131 -4.82713 0.46 0
M  V30 4459 N 440.474 -0.00167713 -1.576 0
M  V30 4460 C 441.422 1.0074 -2.09652 0
M  V30 4461 C 442.416 1.35483 -1.01689 0
M  V30 4462 O 443.622 1.34028 -1.20152 0
M  V30 4463 H 439.997 0.342537 -0.669457 0
M  V30 4464 H 441.968 0.542841 -2.93421 0
M  V30 4465 C 440.717 2.2899 -2.61647 0
M  V30 4466 H 440.04 2.03124 -3.44355 0
M  V30 4467 H 441.48 2.9787 -3.01744 0
M  V30 4468 C 439.939 3.00085 -1.53136 0
M  V30 4469 O 440.469 3.91135 -0.91524 0
M  V30 4470 N 438.675 2.6194 -1.25841 0
M  V30 4471 H 438.222 1.8798 -1.76129 0
M  V30 4472 H 438.18 3.09822 -0.534576 0
M  V30 4473 N 441.952 1.55251 0.271103 0
M  V30 4474 C 443.18 1.79974 1.02064 0
M  V30 4475 C 443.595 0.574003 1.79863 0
M  V30 4476 O 442.952 -0.456962 1.76686 0
M  V30 4477 C 443.003 3.02603 1.97772 0
M  V30 4478 O 442.724 4.20443 1.23124 0
M  V30 4479 C 444.225 3.39944 2.84522 0
M  V30 4480 H 441.445 0.599489 0.301419 0
M  V30 4481 H 443.989 2.02268 0.301313 0
M  V30 4482 H 442.144 2.8243 2.65165 0
M  V30 4483 H 442.558 4.89783 1.87651 0
M  V30 4484 H 444.032 4.28915 3.47471 0
M  V30 4485 H 444.509 2.59432 3.54389 0
M  V30 4486 H 445.115 3.62383 2.22618 0
M  V30 4487 N 443.43 -0.535701 1.48216 0
M  V30 4488 C 444.841 -1.11769 1.49548 0
M  V30 4489 C 445.192 -1.94442 0.26207 0
M  V30 4490 O 444.317 -2.06987 -0.631287 0
M  V30 4491 C 444.912 -2.03367 2.70975 0
M  V30 4492 C 443.471 -2.56795 2.75196 0
M  V30 4493 C 442.618 -1.33631 2.42977 0
M  V30 4494 H 445.569 -0.321232 1.55415 0
M  V30 4495 H 445.59 -2.87569 2.49167 0
M  V30 4496 H 445.102 -1.43169 3.60727 0
M  V30 4497 H 443.203 -3.20731 1.89638 0
M  V30 4498 H 443.316 -2.9632 3.76472 0
M  V30 4499 H 441.68 -1.6502 1.94012 0
M  V30 4500 H 442.463 -0.75194 3.34964 0
M  V30 4501 N 444.908 -1.36708 -0.784132 0
M  V30 4502 C 445.818 -1.3363 -1.92822 0
M  V30 4503 C 446.834 -0.237686 -1.72369 0
M  V30 4504 O 448.01 -0.470962 -1.95816 0
M  V30 4505 C 445.075 -1.13011 -3.27764 0
M  V30 4506 C 444.136 -2.32397 -3.60957 0
M  V30 4507 C 443.369 -2.12752 -4.89461 0
M  V30 4508 O 443.592 -1.10541 -5.59586 0
M  V30 4509 O 442.526 -3.00653 -5.21432 0
M  V30 4510 H 446.352 -2.29964 -1.98369 0
M  V30 4511 H 443.937 -1.1731 -0.925136 0
M  V30 4512 H 445.819 -1.03451 -4.08504 0
M  V30 4513 H 444.494 -0.19743 -3.23097 0
M  V30 4514 H 443.401 -2.47527 -2.80502 0
M  V30 4515 H 444.734 -3.2419 -3.70354 0
M  V30 4516 N 446.386 1.0089 -1.21074 0
M  V30 4517 C 447.614 1.78191 -1.05145 0
M  V30 4518 C 448.029 1.84537 0.398952 0
M  V30 4519 O 447.386 1.30393 1.27687 0
M  V30 4520 C 447.437 3.22288 -1.63746 0
M  V30 4521 O 447.158 3.16315 -3.03111 0
M  V30 4522 C 448.659 4.16106 -1.52875 0
M  V30 4523 H 445.879 0.560129 -0.369454 0
M  V30 4524 H 448.423 1.26945 -1.60328 0
M  V30 4525 H 446.578 3.70655 -1.12664 0
M  V30 4526 H 446.992 4.06817 -3.31059 0
M  V30 4527 H 448.466 5.15026 -1.98626 0
M  V30 4528 H 448.943 4.36541 -0.482521 0
M  V30 4529 H 449.549 3.73625 -2.03185 0
M  V30 4530 N 447.864 1.01787 1.20321 0
M  V30 4531 C 448.796 0.547357 2.22568 0
M  V30 4532 C 449.809 -0.370922 1.58518 0
M  V30 4533 O 450.998 -0.169067 1.77698 0
M  V30 4534 C 448.098 -0.223031 3.38165 0
M  V30 4535 C 447.271 0.697472 4.31803 0
M  V30 4536 C 446.33 -0.025562 5.26194 0
M  V30 4537 O 445.356 0.597367 5.66057 0
M  V30 4538 N 446.558 -1.29999 5.65757 0
M  V30 4539 H 449.323 1.42668 2.63564 0
M  V30 4540 H 446.884 0.895552 1.34876 0
M  V30 4541 H 448.876 -0.716002 3.98316 0
M  V30 4542 H 447.446 -1.00366 2.9605 0
M  V30 4543 H 446.666 1.37073 3.69601 0
M  V30 4544 H 447.954 1.32347 4.91286 0
M  V30 4545 H 447.352 -1.827 5.35385 0
M  V30 4546 H 445.909 -1.73766 6.28211 0
M  V30 4547 N 449.342 -1.36122 0.79427 0
M  V30 4548 C 450.305 -2.28309 0.201889 0
M  V30 4549 C 451.305 -1.49041 -0.603603 0
M  V30 4550 O 452.495 -1.68964 -0.423888 0
M  V30 4551 C 449.627 -3.3321 -0.719978 0
M  V30 4552 H 450.82 -2.82208 1.01481 0
M  V30 4553 H 448.373 -1.45768 0.564037 0
M  V30 4554 H 449.108 -2.84475 -1.55706 0
M  V30 4555 H 448.893 -3.91835 -0.144266 0
M  V30 4556 H 450.383 -4.02044 -1.12916 0
M  V30 4557 N 450.82 -0.546701 -1.47814 0
M  V30 4558 C 452.067 -0.0187407 -2.02491 0
M  V30 4559 C 452.395 1.32685 -1.42215 0
M  V30 4560 O 451.65 1.87413 -0.563454 0
M  V30 4561 C 451.949 0.134869 -3.57145 0
M  V30 4562 C 451.615 -1.13849 -4.3629 0
M  V30 4563 C 450.277 -1.48743 -4.57634 0
M  V30 4564 C 452.629 -1.98277 -4.82012 0
M  V30 4565 C 449.957 -2.67932 -5.21948 0
M  V30 4566 C 452.309 -3.16659 -5.4764 0
M  V30 4567 C 450.973 -3.51879 -5.67219 0
M  V30 4568 H 450.243 -0.0068577 -0.740968 0
M  V30 4569 H 452.89 -0.716097 -1.77607 0
M  V30 4570 H 451.195 0.915118 -3.80963 0
M  V30 4571 H 452.892 0.558556 -3.97091 0
M  V30 4572 H 449.482 -0.856767 -4.19949 0
M  V30 4573 H 453.666 -1.72628 -4.6531 0
M  V30 4574 H 448.922 -2.95401 -5.35302 0
M  V30 4575 H 453.096 -3.82374 -5.82033 0
M  V30 4576 H 450.723 -4.44331 -6.16825 0
M  V30 4577 N 452.299 1.55045 -0.282633 0
M  V30 4578 C 453.548 1.98938 0.332667 0
M  V30 4579 C 453.861 1.17455 1.56409 0
M  V30 4580 O 455.067 1.51527 2.25282 0
M  V30 4581 C 453.523 3.54105 0.643226 0
M  V30 4582 C 453.131 4.44374 -0.568814 0
M  V30 4583 C 454.875 4.06569 1.22074 0
M  V30 4584 C 452.782 5.90943 -0.232426 0
M  V30 4585 H 451.712 0.743043 0.128075 0
M  V30 4586 H 454.363 1.79341 -0.388464 0
M  V30 4587 H 452.745 3.69532 1.42346 0
M  V30 4588 H 453.919 4.40718 -1.34551 0
M  V30 4589 H 452.234 4.02585 -1.06369 0
M  V30 4590 H 454.831 5.13626 1.48635 0
M  V30 4591 H 455.174 3.56057 2.15707 0
M  V30 4592 H 455.707 3.94612 0.502621 0
M  V30 4593 H 452.446 6.45567 -1.13683 0
M  V30 4594 H 451.966 5.9765 0.507357 0
M  V30 4595 H 453.645 6.4677 0.172657 0
M  V30 4596 N 453.777 0.010035 1.57597 0
M  V30 4597 C 454.687 -0.994226 2.12491 0
M  V30 4598 C 455.703 -1.37013 1.07254 0
M  V30 4599 O 456.879 -1.45542 1.3921 0
M  V30 4600 C 453.944 -2.2642 2.62555 0
M  V30 4601 C 453.005 -1.95049 3.82432 0
M  V30 4602 C 452.238 -3.15991 4.30099 0
M  V30 4603 O 452.461 -4.28015 3.7704 0
M  V30 4604 O 451.395 -2.99403 5.22151 0
M  V30 4605 H 455.221 -0.557549 2.98538 0
M  V30 4606 H 452.806 -0.209413 1.47925 0
M  V30 4607 H 454.688 -3.01009 2.9491 0
M  V30 4608 H 453.363 -2.69306 1.796 0
M  V30 4609 H 452.27 -1.17904 3.55034 0
M  V30 4610 H 453.603 -1.56992 4.66491 0
M  V30 4611 N 455.255 -1.55392 -0.262866 0
M  V30 4612 C 456.483 -1.80513 -1.01108 0
M  V30 4613 C 456.898 -0.583533 -1.79556 0
M  V30 4614 O 456.255 0.447585 -1.76926 0
M  V30 4615 C 456.306 -3.03648 -1.96164 0
M  V30 4616 O 456.027 -4.2109 -1.20893 0
M  V30 4617 C 457.528 -3.41448 -2.82715 0
M  V30 4618 H 454.748 -0.601079 -0.298236 0
M  V30 4619 H 457.292 -2.02425 -0.290582 0
M  V30 4620 H 455.447 -2.83832 -2.63663 0
M  V30 4621 H 455.861 -4.90771 -1.85051 0
M  V30 4622 H 457.335 -4.30751 -3.45192 0
M  V30 4623 H 457.812 -2.61308 -3.53008 0
M  V30 4624 H 458.418 -3.63559 -2.20693 0
M  V30 4625 N 456.733 0.527833 -1.48498 0
M  V30 4626 C 457.696 1.61439 -1.62696 0
M  V30 4627 C 458.696 1.52824 -0.500136 0
M  V30 4628 O 459.886 1.56456 -0.765976 0
M  V30 4629 C 457.018 3.01063 -1.59918 0
M  V30 4630 H 458.211 1.50189 -2.59583 0
M  V30 4631 H 455.764 0.750055 -1.37127 0
M  V30 4632 H 456.499 3.17818 -0.645163 0
M  V30 4633 H 456.284 3.08725 -2.41726 0
M  V30 4634 H 457.774 3.80057 -1.73051 0
M  V30 4635 N 458.211 1.37122 0.776871 0
M  V30 4636 C 459.143 1.28342 1.89897 0
M  V30 4637 C 460.156 0.200277 1.61563 0
M  V30 4638 O 461.345 0.456012 1.72577 0
M  V30 4639 C 458.445 0.960427 3.25006 0
M  V30 4640 C 457.618 2.148 3.81025 0
M  V30 4641 C 456.677 1.79608 4.94598 0
M  V30 4642 O 455.703 2.51845 5.10454 0
M  V30 4643 N 456.905 0.737171 5.758 0
M  V30 4644 H 459.67 2.25027 1.97947 0
M  V30 4645 H 457.231 1.3068 0.955739 0
M  V30 4646 H 459.223 0.705942 3.98495 0
M  V30 4647 H 457.793 0.0823066 3.12492 0
M  V30 4648 H 457.013 2.56454 2.99374 0
M  V30 4649 H 458.301 2.9411 4.15183 0
M  V30 4650 H 457.699 0.137637 5.65533 0
M  V30 4651 H 456.256 0.542534 6.49538 0
M  V30 4652 N 459.689 -1.00246 1.21608 0
M  V30 4653 C 460.914 -1.78167 1.06167 0
M  V30 4654 C 461.339 -1.84138 -0.384035 0
M  V30 4655 O 460.697 -1.28683 -1.27712 0
M  V30 4656 C 460.745 -3.19786 1.66642 0
M  V30 4657 O 459.849 -4.02153 0.913613 0
M  V30 4658 H 459.19 -0.549 0.37349 0
M  V30 4659 H 461.72 -1.25994 1.61204 0
M  V30 4660 H 461.73 -3.70451 1.70969 0
M  V30 4661 H 460.405 -3.14754 2.7185 0
M  V30 4662 H 458.982 -3.60711 0.945635 0
M  V30 4663 N 461.167 -1.02423 -1.1978 0
M  V30 4664 C 462.097 -0.62157 -2.25075 0
M  V30 4665 C 463.078 0.367148 -1.6609 0
M  V30 4666 O 464.263 0.250892 -1.92573 0
M  V30 4667 C 461.393 0.0331826 -3.47284 0
M  V30 4668 C 460.347 -0.877323 -4.18912 0
M  V30 4669 C 459.673 -0.0879296 -5.34628 0
M  V30 4670 C 460.973 -2.18892 -4.74219 0
M  V30 4671 H 462.667 -1.50179 -2.59011 0
M  V30 4672 H 460.213 -0.723547 -1.24502 0
M  V30 4673 H 462.166 0.326488 -4.20133 0
M  V30 4674 H 460.89 0.948164 -3.12534 0
M  V30 4675 H 459.549 -1.15475 -3.47938 0
M  V30 4676 H 459.197 0.828941 -4.96123 0
M  V30 4677 H 458.897 -0.694359 -5.83483 0
M  V30 4678 H 460.421 0.198743 -6.10276 0
M  V30 4679 H 461.835 -1.95746 -5.38847 0
M  V30 4680 H 460.232 -2.74686 -5.33542 0
M  V30 4681 H 461.302 -2.84674 -3.92541 0
M  V30 4682 N 462.645 1.35699 -0.801477 0
M  V30 4683 C 463.894 1.98165 -0.375979 0
M  V30 4684 C 464.207 1.64306 1.06127 0
M  V30 4685 O 465.413 2.20097 1.58964 0
M  V30 4686 C 463.869 3.54497 -0.621305 0
M  V30 4687 C 463.477 3.9727 -2.07076 0
M  V30 4688 C 465.221 4.23697 -0.26091 0
M  V30 4689 C 463.128 5.46427 -2.26211 0
M  V30 4690 H 462.058 0.741478 -0.136844 0
M  V30 4691 H 464.709 1.54834 -0.984814 0
M  V30 4692 H 463.091 3.95958 0.0574112 0
M  V30 4693 H 464.265 3.66974 -2.78687 0
M  V30 4694 H 462.58 3.40943 -2.39054 0
M  V30 4695 H 465.177 5.33334 -0.381994 0
M  V30 4696 H 465.52 4.0869 0.792344 0
M  V30 4697 H 466.053 3.87639 -0.893339 0
M  V30 4698 H 462.792 5.66396 -3.29963 0
M  V30 4699 H 462.312 5.78309 -1.59119 0
M  V30 4700 H 463.991 6.12819 -2.07513 0
M  V30 4701 N 464.123 0.554532 1.47522 0
M  V30 4702 C 465.539 0.214107 1.58157 0
M  V30 4703 C 465.739 -1.28331 1.55349 0
M  V30 4704 O 464.795 -2.06329 1.45549 0
M  V30 4705 C 466.108 0.838391 2.88776 0
M  V30 4706 C 467.656 0.809374 3.02354 0
M  V30 4707 C 468.131 1.41268 4.35669 0
M  V30 4708 N 469.622 1.37574 4.42298 0
M  V30 4709 C 470.357 1.8122 5.4401 0
M  V30 4710 N 469.853 2.3271 6.52547 0
M  V30 4711 N 471.646 1.72307 5.35039 0
M  V30 4712 H 463.797 1.52744 1.4759 0
M  V30 4713 H 466.06 0.636812 0.702264 0
M  V30 4714 H 465.766 1.89065 2.96559 0
M  V30 4715 H 465.64 0.329847 3.75755 0
M  V30 4716 H 468.027 -0.234187 2.94169 0
M  V30 4717 H 468.108 1.35565 2.16924 0
M  V30 4718 H 467.752 2.45529 4.4461 0
M  V30 4719 H 467.682 0.841871 5.19827 0
M  V30 4720 H 470.173 0.999081 3.64454 0
M  V30 4721 H 470.486 2.63944 7.26329 0
M  V30 4722 H 468.831 2.36719 6.53444 0
M  V30 4723 H 472.022 1.3186 4.49144 0
M  V30 4724 H 472.195 2.06641 6.14169 0
M  V30 4725 N 465.601 -1.54893 0.290851 0
M  V30 4726 C 466.533 -2.20564 -0.623236 0
M  V30 4727 C 467.546 -1.19519 -1.1054 0
M  V30 4728 O 468.735 -1.46165 -1.02459 0
M  V30 4729 C 465.835 -2.83033 -1.86401 0
M  V30 4730 C 465.008 -4.09916 -1.52604 0
M  V30 4731 C 464.067 -4.56284 -2.62091 0
M  V30 4732 O 463.093 -5.2171 -2.27612 0
M  V30 4733 N 464.295 -4.27746 -3.92446 0
M  V30 4734 H 467.06 -2.99638 -0.0610915 0
M  V30 4735 H 464.621 -1.61508 0.112615 0
M  V30 4736 H 466.613 -3.1099 -2.58973 0
M  V30 4737 H 465.183 -2.0786 -2.33481 0
M  V30 4738 H 464.403 -3.89078 -0.633424 0
M  V30 4739 H 465.691 -4.92554 -1.27547 0
M  V30 4740 H 465.089 -3.7531 -4.23272 0
M  V30 4741 H 463.646 -4.60437 -4.61347 0
M  V30 4742 N 467.08 -0.0183926 -1.57589 0
M  V30 4743 C 468.012 0.995557 -2.06449 0
M  V30 4744 C 469.025 1.29556 -0.985849 0
M  V30 4745 O 470.214 1.2621 -1.26227 0
M  V30 4746 C 467.314 2.32572 -2.46502 0
M  V30 4747 C 466.487 2.21245 -3.77319 0
M  V30 4748 C 465.546 3.37104 -4.04039 0
M  V30 4749 O 464.572 3.14468 -4.74445 0
M  V30 4750 N 465.774 4.60553 -3.53372 0
M  V30 4751 H 468.539 0.578746 -2.94059 0
M  V30 4752 H 466.1 0.168603 -1.6102 0
M  V30 4753 H 468.092 3.08887 -2.61478 0
M  V30 4754 H 466.662 2.65931 -1.64315 0
M  V30 4755 H 465.882 1.29723 -3.72244 0
M  V30 4756 H 467.17 2.10868 -4.63047 0
M  V30 4757 H 466.568 4.81839 -2.96391 0
M  V30 4758 H 465.125 5.34072 -3.73644 0
M  V30 4759 N 468.558 1.5553 0.254621 0
M  V30 4760 C 469.783 1.81383 1.00573 0
M  V30 4761 C 470.208 0.594419 1.78461 0
M  V30 4762 O 469.566 -0.456403 1.75461 0
M  V30 4763 C 469.614 3.04892 1.92545 0
M  V30 4764 O 468.718 2.81266 3.01601 0
M  V30 4765 H 468.059 0.598969 0.286587 0
M  V30 4766 H 470.589 2.02703 0.277952 0
M  V30 4767 H 470.599 3.34119 2.34155 0
M  V30 4768 H 469.274 3.93287 1.3527 0
M  V30 4769 H 467.851 2.63185 2.64174 0
M  V30 4770 N 470.036 -0.519951 1.48776 0
M  V30 4771 C 471.447 -1.10177 1.50725 0
M  V30 4772 C 471.798 -1.94153 0.282678 0
M  V30 4773 O 470.923 -2.07645 -0.609298 0
M  V30 4774 C 471.518 -2.00482 2.73116 0
M  V30 4775 C 470.077 -2.53862 2.77905 0
M  V30 4776 C 469.224 -1.31047 2.44381 0
M  V30 4777 H 472.175 -0.30473 1.55747 0
M  V30 4778 H 472.196 -2.8491 2.52203 0
M  V30 4779 H 471.708 -1.39335 3.62225 0
M  V30 4780 H 469.809 -3.18702 1.93029 0
M  V30 4781 H 469.922 -2.9231 3.79594 0
M  V30 4782 H 468.286 -1.62953 1.95751 0
M  V30 4783 H 469.069 -0.71637 3.35743 0
M  V30 4784 N 471.514 -1.37532 -0.769588 0
M  V30 4785 C 472.739 -1.36231 -1.56384 0
M  V30 4786 C 473.164 0.0495849 -1.88035 0
M  V30 4787 O 472.522 1.02723 -1.49391 0
M  V30 4788 C 472.57 -2.20986 -2.84952 0
M  V30 4789 O 471.674 -1.61597 -3.79421 0
M  V30 4790 H 471.015 -0.465387 -0.473615 0
M  V30 4791 H 473.545 -1.81085 -0.952342 0
M  V30 4792 H 473.555 -2.34277 -3.34034 0
M  V30 4793 H 472.23 -3.23612 -2.61243 0
M  V30 4794 H 470.807 -1.57359 -3.38072 0
M  V30 4795 N 472.992 0.995999 -1.22138 0
M  V30 4796 C 474.22 1.77066 -1.07029 0
M  V30 4797 C 474.635 1.8495 0.379357 0
M  V30 4798 O 473.992 1.3174 1.26297 0
M  V30 4799 C 474.043 3.20533 -1.67155 0
M  V30 4800 O 473.764 3.13082 -3.06449 0
M  V30 4801 C 475.265 4.14461 -1.5728 0
M  V30 4802 H 472.485 0.556179 -0.375374 0
M  V30 4803 H 475.029 1.25238 -1.61666 0
M  V30 4804 H 473.184 3.6944 -1.16589 0
M  V30 4805 H 473.598 4.03283 -3.35355 0
M  V30 4806 H 475.072 5.1289 -2.04078 0
M  V30 4807 H 475.549 4.36005 -0.528795 0
M  V30 4808 H 476.155 3.71449 -2.07136 0
M  V30 4809 N 474.47 1.03057 1.19235 0
M  V30 4810 C 475.4 0.633497 2.24742 0
M  V30 4811 C 476.381 -0.358335 1.66283 0
M  V30 4812 O 477.566 -0.240676 1.92703 0
M  V30 4813 C 474.696 -0.0147648 3.47297 0
M  V30 4814 C 473.65 0.899527 4.18441 0
M  V30 4815 C 472.976 0.116281 5.34574 0
M  V30 4816 C 474.276 2.21404 4.73051 0
M  V30 4817 H 475.97 1.5155 2.58211 0
M  V30 4818 H 473.516 0.73014 1.24117 0
M  V30 4819 H 475.469 -0.304202 4.20301 0
M  V30 4820 H 474.193 -0.931577 3.13032 0
M  V30 4821 H 472.852 1.17319 3.47321 0
M  V30 4822 H 472.5 -0.802619 4.96555 0
M  V30 4823 H 472.2 0.725293 5.83107 0
M  V30 4824 H 473.724 -0.166376 6.10373 0
M  V30 4825 H 475.138 1.98601 5.37802 0
M  V30 4826 H 473.535 2.77512 5.32078 0
M  V30 4827 H 474.605 2.86752 3.91026 0
M  V30 4828 N 475.948 -1.35272 0.808662 0
M  V30 4829 C 476.878 -2.32315 0.234981 0
M  V30 4830 C 477.859 -1.57572 -0.64071 0
M  V30 4831 O 479.044 -1.8563 -0.570551 0
M  V30 4832 C 476.174 -3.41801 -0.615601 0
M  V30 4833 C 475.128 -4.27694 0.161767 0
M  V30 4834 C 474.454 -5.28519 -0.810649 0
M  V30 4835 C 475.754 -5.04231 1.36193 0
M  V30 4836 H 477.448 -2.80543 1.04575 0
M  V30 4837 H 474.994 -1.3488 0.504315 0
M  V30 4838 H 476.947 -4.08693 -1.02702 0
M  V30 4839 H 475.671 -2.92186 -1.45928 0
M  V30 4840 H 474.33 -3.62384 0.554382 0
M  V30 4841 H 473.978 -4.75171 -1.64988 0
M  V30 4842 H 473.678 -5.8686 -0.294822 0
M  V30 4843 H 475.202 -5.98283 -1.22023 0
M  V30 4844 H 476.616 -5.64058 1.02528 0
M  V30 4845 H 475.013 -5.72077 1.81239 0
M  V30 4846 H 476.083 -4.34753 2.14751 0
M  V30 4847 N 477.426 -0.562348 -1.47226 0
M  V30 4848 C 478.654 -0.0452275 -2.06851 0
M  V30 4849 C 479.069 1.25078 -1.41424 0
M  V30 4850 O 478.426 1.75156 -0.512513 0
M  V30 4851 C 478.477 0.148674 -3.61194 0
M  V30 4852 O 478.198 -1.09602 -4.24169 0
M  V30 4853 C 479.699 0.702488 -4.37699 0
M  V30 4854 H 476.919 -0.0481775 -0.669268 0
M  V30 4855 H 479.463 -0.777223 -1.89155 0
M  V30 4856 H 477.618 0.830817 -3.78386 0
M  V30 4857 H 478.032 -0.896982 -5.16773 0
M  V30 4858 H 479.506 0.78743 -5.46355 0
M  V30 4859 H 479.983 1.71493 -4.04335 0
M  V30 4860 H 480.589 0.0558772 -4.25263 0
M  V30 4861 N 478.904 1.54736 -0.299062 0
M  V30 4862 C 480.315 1.8569 0.193971 0
M  V30 4863 C 480.666 1.22101 1.53577 0
M  V30 4864 O 479.791 0.51799 2.10109 0
M  V30 4865 C 480.386 3.36895 0.358733 0
M  V30 4866 C 478.945 3.67887 0.795986 0
M  V30 4867 C 478.092 2.77131 -0.096807 0
M  V30 4868 H 481.043 1.49934 -0.520134 0
M  V30 4869 H 481.064 3.61294 1.19361 0
M  V30 4870 H 480.576 3.83148 -0.617998 0
M  V30 4871 H 478.677 3.27151 1.78334 0
M  V30 4872 H 478.79 4.75114 0.616718 0
M  V30 4873 H 477.154 2.51153 0.423581 0
M  V30 4874 H 477.937 3.26204 -1.06986 0
M  V30 4875 N 480.382 0.0267497 1.57577 0
M  V30 4876 C 481.63 -0.651116 1.91324 0
M  V30 4877 C 481.951 -1.72804 0.90353 0
M  V30 4878 O 481.221 -1.95822 -0.0552946 0
M  V30 4879 H 479.801 -0.243491 0.706202 0
M  V30 4880 H 482.463 0.0739935 1.94759 0
M  V30 4881 H 481.559 -1.10536 2.9187 0
M  V30 4882 N 481.861 -1.55662 -0.24637 0
M  V30 4883 C 483.11 -1.7672 -0.972254 0
M  V30 4884 C 483.423 -0.59078 -1.86465 0
M  V30 4885 O 484.629 -0.684391 -2.62732 0
M  V30 4886 C 483.085 -3.12869 -1.7788 0
M  V30 4887 C 482.693 -4.38161 -0.933768 0
M  V30 4888 C 484.437 -3.43265 -2.49738 0
M  V30 4889 C 482.344 -5.6534 -1.73623 0
M  V30 4890 H 481.274 -0.658795 -0.366749 0
M  V30 4891 H 483.925 -1.82092 -0.226902 0
M  V30 4892 H 482.307 -3.01606 -2.56612 0
M  V30 4893 H 483.481 -4.60413 -0.188736 0
M  V30 4894 H 481.796 -4.15102 -0.328488 0
M  V30 4895 H 484.393 -4.35501 -3.10231 0
M  V30 4896 H 484.736 -2.64614 -3.2138 0
M  V30 4897 H 485.269 -3.55746 -1.78016 0
M  V30 4898 H 482.008 -6.46814 -1.06354 0
M  V30 4899 H 481.528 -5.47188 -2.45653 0
M  V30 4900 H 483.207 -6.04616 -2.30323 0
M  V30 4901 N 483.339 0.512053 -1.4905 0
M  V30 4902 C 484.755 0.84224 -1.35567 0
M  V30 4903 C 484.955 1.97878 -0.380319 0
M  V30 4904 O 484.011 2.51769 0.19201 0
M  V30 4905 C 485.324 1.19286 -2.76028 0
M  V30 4906 C 486.872 1.30171 -2.84648 0
M  V30 4907 C 487.347 1.68568 -4.25851 0
M  V30 4908 N 488.838 1.75638 -4.28609 0
M  V30 4909 C 489.573 2.06769 -5.34821 0
M  V30 4910 N 489.069 2.36201 -6.51292 0
M  V30 4911 N 490.862 2.07927 -5.22229 0
M  V30 4912 H 483.013 -0.237574 -2.11067 0
M  V30 4913 H 485.276 -0.0436747 -0.946993 0
M  V30 4914 H 484.982 0.431199 -3.49047 0
M  V30 4915 H 484.856 2.13889 -3.10695 0
M  V30 4916 H 487.243 2.05411 -2.11873 0
M  V30 4917 H 487.324 0.336457 -2.53578 0
M  V30 4918 H 486.968 0.938824 -4.99148 0
M  V30 4919 H 486.898 2.66174 -4.54377 0
M  V30 4920 H 489.389 1.55097 -3.44606 0
M  V30 4921 H 489.702 2.59112 -7.28066 0
M  V30 4922 H 488.047 2.33681 -6.54536 0
M  V30 4923 H 491.238 1.84403 -4.30248 0
M  V30 4924 H 491.411 2.31856 -6.05101 0
M  V30 4925 N 484.817 1.37938 0.762283 0
M  V30 4926 C 486.094 1.24196 1.51112 0
M  V30 4927 C 486.474 -0.160409 2.1049 0
M  V30 4928 O 485.822 -1.16904 1.96331 0
M  V30 4929 C 486.032 2.34537 2.58445 0
M  V30 4930 C 487.38 2.7254 3.25588 0
M  V30 4931 O 488.404 2.33783 2.68745 0
M  V30 4932 O 487.263 3.39343 4.28379 0
M  V30 4933 H 484.357 0.485175 0.669727 0
M  V30 4934 H 486.903 1.49743 0.798438 0
M  V30 4935 H 485.675 3.28406 2.12756 0
M  V30 4936 H 485.298 2.10505 3.37303 0
M  V30 4937 N 486.295 -0.989507 1.22664 0
M  V30 4938 C 487.52 -1.77031 1.08051 0
M  V30 4939 C 487.945 -1.84535 -0.364483 0
M  V30 4940 O 487.303 -1.3003 -1.2634 0
M  V30 4941 C 487.351 -3.18 1.70024 0
M  V30 4942 O 486.455 -4.01161 0.956216 0
M  V30 4943 H 485.796 -0.545008 0.379292 0
M  V30 4944 H 488.326 -1.24277 1.62531 0
M  V30 4945 H 488.336 -3.68616 1.74888 0
M  V30 4946 H 487.011 -3.11853 2.75174 0
M  V30 4947 H 485.588 -3.59687 0.98384 0
M  V30 4948 N 487.773 -1.03688 -1.18687 0
M  V30 4949 C 489.003 -0.756819 -1.92239 0
M  V30 4950 C 489.411 0.689374 -1.76194 0
M  V30 4951 O 488.754 1.48126 -1.08648 0
M  V30 4952 C 488.816 -1.03851 -3.44173 0
M  V30 4953 C 488.48 -2.47785 -3.83994 0
M  V30 4954 C 489.477 -3.4595 -3.88091 0
M  V30 4955 C 487.162 -2.82397 -4.154 0
M  V30 4956 C 489.156 -4.76779 -4.23038 0
M  V30 4957 C 486.843 -4.13433 -4.50018 0
M  V30 4958 C 487.841 -5.10434 -4.53813 0
M  V30 4959 O 487.529 -6.39122 -4.87625 0
M  V30 4960 H 487.261 -0.275678 -0.617234 0
M  V30 4961 H 489.815 -1.38658 -1.51536 0
M  V30 4962 H 488.045 -0.351612 -3.85098 0
M  V30 4963 H 489.734 -0.746846 -3.9897 0
M  V30 4964 H 490.5 -3.20549 -3.63969 0
M  V30 4965 H 486.379 -2.07568 -4.11627 0
M  V30 4966 H 489.923 -5.52488 -4.25914 0
M  V30 4967 H 485.82 -4.38604 -4.736 0
M  V30 4968 H 486.588 -6.43715 -5.05542 0
M  V30 4969 N 489.251 1.34841 -0.815825 0
M  V30 4970 C 490.183 2.28409 -0.190265 0
M  V30 4971 C 491.196 1.50705 0.615771 0
M  V30 4972 O 492.385 1.72822 0.446616 0
M  V30 4973 C 489.485 3.30441 0.752446 0
M  V30 4974 C 488.658 4.37399 -0.00922152 0
M  V30 4975 C 487.717 5.19234 0.853351 0
M  V30 4976 O 486.743 5.68404 0.300919 0
M  V30 4977 N 487.945 5.38248 2.17416 0
M  V30 4978 H 490.71 2.82732 -0.994114 0
M  V30 4979 H 488.271 1.47289 -0.672129 0
M  V30 4980 H 490.263 3.82084 1.33394 0
M  V30 4981 H 488.833 2.76565 1.45707 0
M  V30 4982 H 488.053 3.86567 -0.771979 0
M  V30 4983 H 489.341 5.05992 -0.533807 0
M  V30 4984 H 488.739 4.99961 2.6468 0
M  V30 4985 H 487.296 5.93035 2.70467 0
M  V30 4986 N 490.729 0.570148 1.46925 0
M  V30 4987 C 491.954 0.0542592 2.07329 0
M  V30 4988 C 492.379 -1.23582 1.41806 0
M  V30 4989 O 491.737 -1.74341 0.497479 0
M  V30 4990 C 491.785 -0.111175 3.60429 0
M  V30 4991 O 490.889 -1.17071 3.95434 0
M  V30 4992 H 490.23 0.0571425 0.661537 0
M  V30 4993 H 492.76 0.789516 1.88753 0
M  V30 4994 H 492.77 -0.321315 4.06733 0
M  V30 4995 H 491.445 0.831012 4.07513 0
M  V30 4996 H 490.022 -0.940029 3.60857 0
M  V30 4997 N 492.207 -1.54576 0.307264 0
M  V30 4998 C 493.139 -2.21212 -0.599807 0
M  V30 4999 C 494.152 -1.20685 -1.09266 0
M  V30 5000 O 495.341 -1.47244 -1.00903 0
M  V30 5001 C 492.441 -2.84994 -1.83389 0
M  V30 5002 C 491.614 -4.11511 -1.48248 0
M  V30 5003 C 490.673 -4.59038 -2.57237 0
M  V30 5004 O 489.699 -5.24095 -2.22065 0
M  V30 5005 N 490.901 -4.31884 -3.87887 0
M  V30 5006 H 493.666 -2.99686 -0.0293075 0
M  V30 5007 H 491.227 -1.61379 0.129738 0
M  V30 5008 H 493.219 -3.1372 -2.5566 0
M  V30 5009 H 491.789 -2.10324 -2.31263 0
M  V30 5010 H 491.009 -3.89728 -0.592122 0
M  V30 5011 H 492.297 -4.93879 -1.22316 0
M  V30 5012 H 491.695 -3.79778 -4.19268 0
M  V30 5013 H 490.252 -4.65304 -4.56438 0
M  V30 5014 N 493.685 -0.035106 -1.57561 0
M  V30 5015 C 494.931 0.64318 -1.92331 0
M  V30 5016 C 495.264 1.71434 -0.912368 0
M  V30 5017 O 494.539 1.94395 0.0640303 0
M  V30 5018 C 494.822 1.25411 -3.37556 0
M  V30 5019 C 494.675 0.192109 -4.4939 0
M  V30 5020 C 495.994 2.17041 -3.82859 0
M  V30 5021 H 493.113 0.232341 -0.699419 0
M  V30 5022 H 495.755 -0.0935889 -1.89769 0
M  V30 5023 H 493.905 1.88205 -3.39869 0
M  V30 5024 H 495.577 -0.438849 -4.59208 0
M  V30 5025 H 493.82 -0.481725 -4.31117 0
M  V30 5026 H 494.491 0.659292 -5.48049 0
M  V30 5027 H 496.967 1.64228 -3.8232 0
M  V30 5028 H 495.843 2.56738 -4.85157 0
M  V30 5029 H 496.104 3.06401 -3.18702 0
M  V30 5030 N 495.163 1.55791 0.238111 0
M  V30 5031 C 496.409 1.78297 0.966337 0
M  V30 5032 C 496.742 0.601903 1.84637 0
M  V30 5033 O 496.017 -0.399499 1.90353 0
M  V30 5034 C 496.3 3.10758 1.81939 0
M  V30 5035 C 496.153 4.39283 0.966958 0
M  V30 5036 C 497.472 3.39519 2.80027 0
M  V30 5037 H 494.591 0.648654 0.349882 0
M  V30 5038 H 497.233 1.88525 0.236253 0
M  V30 5039 H 495.383 3.02168 2.44185 0
M  V30 5040 H 497.055 4.59873 0.362514 0
M  V30 5041 H 495.298 4.32948 0.271669 0
M  V30 5042 H 495.969 5.28368 1.59784 0
M  V30 5043 H 498.445 3.48128 2.27917 0
M  V30 5044 H 497.321 4.33402 3.36829 0
M  V30 5045 H 497.582 2.60864 3.56934 0
M  V30 5046 N 496.642 -0.504142 1.49319 0
M  V30 5047 C 497.867 -1.28729 1.62615 0
M  V30 5048 C 498.292 -1.85752 0.296309 0
M  V30 5049 O 497.65 -1.65704 -0.735649 0
M  V30 5050 C 497.698 -2.39561 2.69524 0
M  V30 5051 O 496.802 -3.43324 2.28478 0
M  V30 5052 H 496.143 -0.380172 0.544395 0
M  V30 5053 H 498.673 -0.603872 1.95485 0
M  V30 5054 H 498.683 -2.8537 2.91595 0
M  V30 5055 H 497.358 -1.97423 3.66056 0
M  V30 5056 H 495.935 -3.03455 2.16725 0
M  V30 5057 N 498.12 -1.38341 -0.754957 0
M  V30 5058 C 499.536 -1.19508 -1.05783 0
M  V30 5059 C 499.736 -0.0428005 -2.01455 0
M  V30 5060 O 498.792 0.611861 -2.44975 0
M  V30 5061 C 500.105 -2.52091 -1.63923 0
M  V30 5062 C 501.653 -2.58762 -1.76101 0
M  V30 5063 C 502.128 -3.91517 -2.37652 0
M  V30 5064 N 503.619 -3.93049 -2.45085 0
M  V30 5065 C 504.354 -4.9253 -2.93602 0
M  V30 5066 N 503.85 -6.02408 -3.42165 0
M  V30 5067 N 505.643 -4.79921 -2.92629 0
M  V30 5068 H 497.794 -2.1206 -0.120056 0
M  V30 5069 H 500.057 -0.94089 -0.11589 0
M  V30 5070 H 499.763 -3.36858 -1.01093 0
M  V30 5071 H 499.637 -2.70388 -2.63003 0
M  V30 5072 H 502.024 -1.74391 -2.38058 0
M  V30 5073 H 502.105 -2.44333 -0.757294 0
M  V30 5074 H 501.749 -4.76309 -1.76329 0
M  V30 5075 H 501.679 -4.03256 -3.38662 0
M  V30 5076 H 504.17 -3.13685 -2.10736 0
M  V30 5077 H 504.483 -6.74248 -3.77637 0
M  V30 5078 H 502.828 -6.0603 -3.40225 0
M  V30 5079 H 506.019 -3.93194 -2.54001 0
M  V30 5080 H 506.192 -5.57601 -3.30128 0
M  V30 5081 N 499.598 0.982988 -1.23187 0
M  V30 5082 C 500.846 1.72052 -1.06031 0
M  V30 5083 C 501.167 1.90769 0.404019 0
M  V30 5084 O 500.437 1.47446 1.28982 0
M  V30 5085 H 499.017 0.637499 -0.389363 0
M  V30 5086 H 501.679 1.18338 -1.54862 0
M  V30 5087 H 500.775 2.7111 -1.54615 0
M  V30 5088 N 501.076 1.04316 1.18135 0
M  V30 5089 C 502.301 0.768047 1.92655 0
M  V30 5090 C 502.726 -0.66904 1.758 0
M  V30 5091 O 502.084 -1.46372 1.06981 0
M  V30 5092 C 502.132 1.14239 3.42026 0
M  V30 5093 O 501.236 0.269333 4.1152 0
M  V30 5094 H 500.577 0.282436 0.600937 0
M  V30 5095 H 503.107 1.39367 1.49793 0
M  V30 5096 H 503.117 1.10538 3.92741 0
M  V30 5097 H 501.792 2.18928 3.53615 0
M  V30 5098 H 500.369 0.366175 3.71098 0
M  V30 5099 N 502.554 -1.34406 0.822964 0
M  V30 5100 C 503.831 -1.92733 0.333641 0
M  V30 5101 C 504.211 -1.75107 -1.17901 0
M  V30 5102 O 503.559 -1.12983 -1.98613 0
M  V30 5103 C 503.769 -3.40557 0.763023 0
M  V30 5104 C 505.117 -4.17709 0.761879 0
M  V30 5105 O 506.141 -3.49141 0.705606 0
M  V30 5106 O 505 -5.40082 0.835109 0
M  V30 5107 H 502.094 -0.821964 0.0911249 0
M  V30 5108 H 504.64 -1.4338 0.907757 0
M  V30 5109 H 503.412 -3.47187 1.8049 0
M  V30 5110 H 503.035 -3.97259 0.164605 0
M  V30 5111 N 504.032 -0.577932 -1.46621 0
M  V30 5112 C 505.309 0.00495287 -1.95599 0
M  V30 5113 C 505.689 1.46428 -1.5206 0
M  V30 5114 O 505.037 2.1517 -0.769046 0
M  V30 5115 C 505.247 -0.162114 -3.48623 0
M  V30 5116 C 506.595 -0.0274623 -4.24591 0
M  V30 5117 O 507.619 -0.0907067 -3.56084 0
M  V30 5118 O 506.478 0.1122 -5.46385 0
M  V30 5119 H 503.572 0.0525057 -0.825332 0
M  V30 5120 H 506.118 -0.645914 -1.56927 0
M  V30 5121 H 504.89 -1.17679 -3.73185 0
M  V30 5122 H 504.513 0.525407 -3.94113 0
M  V30 5123 N 505.51 1.54411 -0.315457 0
M  V30 5124 C 506.758 2.00023 0.288971 0
M  V30 5125 C 507.079 1.20529 1.5329 0
M  V30 5126 O 506.349 0.304986 1.93511 0
M  V30 5127 H 504.929 0.738891 0.109766 0
M  V30 5128 H 507.591 1.90094 -0.430129 0
M  V30 5129 H 506.687 3.07198 0.550999 0
M  V30 5130 N 506.988 0.0434614 1.5754 0
M  V30 5131 C 508.237 -0.631454 1.91561 0
M  V30 5132 C 508.55 -1.72457 0.92292 0
M  V30 5133 O 509.756 -2.45712 1.15489 0
M  V30 5134 C 508.212 -1.17447 3.40197 0
M  V30 5135 C 507.82 -0.113867 4.47855 0
M  V30 5136 C 509.564 -1.82507 3.83264 0
M  V30 5137 C 507.471 -0.669326 5.876 0
M  V30 5138 H 506.401 -0.239629 0.714908 0
M  V30 5139 H 509.052 0.111097 1.83163 0
M  V30 5140 H 507.434 -1.96909 3.43574 0
M  V30 5141 H 508.608 0.659348 4.56058 0
M  V30 5142 H 506.923 0.438821 4.14081 0
M  V30 5143 H 509.52 -2.25047 4.85034 0
M  V30 5144 H 509.863 -2.67365 3.19095 0
M  V30 5145 H 510.396 -1.09712 3.82372 0
M  V30 5146 H 507.135 0.141449 6.55347 0
M  V30 5147 H 506.655 -1.4107 5.82974 0
M  V30 5148 H 508.334 -1.15463 6.36614 0
M  V30 5149 N 508.466 -1.55915 -0.229846 0
M  V30 5150 C 509.743 -1.6932 -0.979295 0
M  V30 5151 C 510.123 -0.588321 -2.02736 0
M  V30 5152 O 509.471 0.40586 -2.24867 0
M  V30 5153 C 509.681 -3.10305 -1.59724 0
M  V30 5154 C 511.029 -3.6945 -2.09264 0
M  V30 5155 O 512.053 -3.13214 -1.69633 0
M  V30 5156 O 510.912 -4.68072 -2.82082 0
M  V30 5157 H 508.006 -0.689314 -0.456919 0
M  V30 5158 H 510.552 -1.68238 -0.222283 0
M  V30 5159 H 509.324 -3.82177 -0.840039 0
M  V30 5160 H 508.947 -3.1547 -2.42001 0
M  V30 5161 N 509.944 0.496216 -1.49584 0
M  V30 5162 C 511.19 1.25189 -1.59548 0
M  V30 5163 C 511.523 1.9212 -0.283466 0
M  V30 5164 O 510.798 1.80947 0.713324 0
M  V30 5165 C 511.081 2.31516 -2.75812 0
M  V30 5166 C 510.934 1.69054 -4.16822 0
M  V30 5167 C 512.253 3.3304 -2.87702 0
M  V30 5168 H 509.372 0.45379 -0.580727 0
M  V30 5169 H 512.014 0.549327 -1.81886 0
M  V30 5170 H 510.164 2.91438 -2.56897 0
M  V30 5171 H 511.836 1.12923 -4.47265 0
M  V30 5172 H 510.079 0.994485 -4.22247 0
M  V30 5173 H 510.75 2.462 -4.94054 0
M  V30 5174 H 513.226 2.83114 -3.04936 0
M  V30 5175 H 512.102 4.04794 -3.7072 0
M  V30 5176 H 512.363 3.95655 -1.97255 0
M  V30 5177 N 511.423 1.38739 0.74761 0
M  V30 5178 C 512.651 1.38521 1.53686 0
M  V30 5179 C 513.066 -0.0235129 1.88785 0
M  V30 5180 O 512.423 -0.991662 1.53207 0
M  V30 5181 C 512.474 2.24641 2.83229 0
M  V30 5182 O 512.195 3.60026 2.49625 0
M  V30 5183 C 513.696 2.32669 3.77333 0
M  V30 5184 H 510.916 0.473589 0.475347 0
M  V30 5185 H 513.46 1.82395 0.924786 0
M  V30 5186 H 511.615 1.84213 3.40799 0
M  V30 5187 H 512.029 4.05435 3.3275 0
M  V30 5188 H 513.503 2.97201 4.65162 0
M  V30 5189 H 513.98 1.3421 4.18192 0
M  V30 5190 H 514.586 2.73512 3.25685 0
M  V30 5191 N 512.901 -0.976442 1.23707 0
M  V30 5192 C 514.148 -1.71827 1.07153 0
M  V30 5193 C 514.476 -1.9053 -0.390982 0
M  V30 5194 O 513.731 -1.45779 -1.30564 0
M  V30 5195 C 514.03 -3.11814 1.74662 0
M  V30 5196 C 513.696 -3.12978 3.24585 0
M  V30 5197 C 512.358 -3.13003 3.6549 0
M  V30 5198 C 514.71 -3.07986 4.20469 0
M  V30 5199 C 512.038 -3.05757 5.00729 0
M  V30 5200 C 514.39 -3.02282 5.55705 0
M  V30 5201 C 513.054 -3.00631 5.95968 0
M  V30 5202 H 512.324 -0.628758 0.392102 0
M  V30 5203 H 514.971 -1.14239 1.53693 0
M  V30 5204 H 513.276 -3.72812 1.20492 0
M  V30 5205 H 514.973 -3.67989 1.59328 0
M  V30 5206 H 511.563 -3.13718 2.92026 0
M  V30 5207 H 515.747 -3.07103 3.89874 0
M  V30 5208 H 511.003 -3.02834 5.31132 0
M  V30 5209 H 515.177 -2.97376 6.29714 0
M  V30 5210 H 512.804 -2.94771 7.00724 0
M  V30 5211 N 514.379 -1.04941 -1.1758 0
M  V30 5212 C 515.604 -0.778253 -1.92245 0
M  V30 5213 C 516.029 0.659707 -1.76152 0
M  V30 5214 O 515.387 1.45803 -1.07755 0
M  V30 5215 C 515.435 -1.16051 -3.41416 0
M  V30 5216 O 514.539 -0.291153 -4.11371 0
M  V30 5217 H 513.88 -0.285619 -0.599431 0
M  V30 5218 H 516.41 -1.40159 -1.49052 0
M  V30 5219 H 516.42 -1.12619 -3.92149 0
M  V30 5220 H 515.095 -2.208 -3.52449 0
M  V30 5221 H 513.672 -0.385851 -3.70898 0
M  V30 5222 N 515.857 1.33968 -0.830081 0
M  V30 5223 C 516.789 2.28194 -0.21448 0
M  V30 5224 C 517.802 1.5135 0.599752 0
M  V30 5225 O 518.991 1.73286 0.42826 0
M  V30 5226 C 516.091 3.31221 0.717356 0
M  V30 5227 C 515.264 4.37365 -0.055613 0
M  V30 5228 C 514.323 5.2011 0.798231 0
M  V30 5229 O 513.349 5.68691 0.240616 0
M  V30 5230 N 514.551 5.40523 2.11695 0
M  V30 5231 H 517.316 2.81662 -1.02405 0
M  V30 5232 H 514.877 1.46568 -0.687713 0
M  V30 5233 H 516.869 3.83477 1.29334 0
M  V30 5234 H 515.439 2.78095 1.42765 0
M  V30 5235 H 514.659 3.85727 -0.812936 0
M  V30 5236 H 515.947 5.05397 -0.587444 0
M  V30 5237 H 515.345 5.0274 2.59363 0
M  V30 5238 H 513.902 5.95871 2.64162 0
M  V30 5239 N 517.335 0.585699 1.46312 0
M  V30 5240 C 518.298 -0.135673 2.28798 0
M  V30 5241 C 519.298 -0.815988 1.38558 0
M  V30 5242 O 520.488 -0.667487 1.60904 0
M  V30 5243 C 517.62 -1.20163 3.1902 0
M  V30 5244 H 518.813 0.589257 2.94054 0
M  V30 5245 H 516.366 0.343794 1.52472 0
M  V30 5246 H 517.101 -1.95804 2.58517 0
M  V30 5247 H 516.886 -0.718282 3.85465 0
M  V30 5248 H 518.376 -1.70749 3.81096 0
M  V30 5249 N 518.813 -1.54241 0.323641 0
M  V30 5250 C 519.723 -2.28033 -0.551205 0
M  V30 5251 C 520.739 -1.32388 -1.12913 0
M  V30 5252 O 521.915 -1.65403 -1.14908 0
M  V30 5253 C 518.98 -3.02382 -1.69606 0
M  V30 5254 C 518.041 -4.13612 -1.14993 0
M  V30 5255 C 517.274 -4.84407 -2.24022 0
M  V30 5256 O 517.497 -4.54716 -3.44368 0
M  V30 5257 O 516.431 -5.71312 -1.89436 0
M  V30 5258 H 520.257 -3.03662 0.048066 0
M  V30 5259 H 517.842 -1.49133 0.0893289 0
M  V30 5260 H 519.724 -3.48941 -2.36259 0
M  V30 5261 H 518.399 -2.29628 -2.28151 0
M  V30 5262 H 517.306 -3.71402 -0.448484 0
M  V30 5263 H 518.639 -4.8841 -0.609608 0
M  V30 5264 N 520.291 -0.0518155 -1.57515 0
M  V30 5265 C 521.516 0.634896 -1.97443 0
M  V30 5266 C 521.941 1.63546 -0.929207 0
M  V30 5267 O 521.299 1.80981 0.107484 0
M  V30 5268 C 521.347 1.29765 -3.36442 0
M  V30 5269 O 520.451 2.41333 -3.34413 0
M  V30 5270 H 519.792 0.164994 -0.643174 0
M  V30 5271 H 522.322 -0.120407 -2.04245 0
M  V30 5272 H 522.332 1.64918 -3.73184 0
M  V30 5273 H 521.007 0.564361 -4.12053 0
M  V30 5274 H 519.584 2.08122 -3.09418 0
M  V30 5275 N 521.769 1.56035 0.221574 0
M  V30 5276 C 523.18 1.69229 0.788567 0
M  V30 5277 C 523.531 0.653814 1.84986 0
M  V30 5278 O 522.656 -0.195065 2.15519 0
M  V30 5279 C 523.251 3.06809 1.43713 0
M  V30 5280 C 521.81 3.21858 1.95152 0
M  V30 5281 C 520.957 2.65155 0.811685 0
M  V30 5282 H 523.908 1.587 -0.00307894 0
M  V30 5283 H 523.929 3.02666 2.30594 0
M  V30 5284 H 523.441 3.82369 0.664475 0
M  V30 5285 H 521.542 2.51167 2.7522 0
M  V30 5286 H 521.655 4.29073 2.1315 0
M  V30 5287 H 520.019 2.23635 1.21899 0
M  V30 5288 H 520.802 3.43261 0.0516987 0
M  V30 5289 N 523.247 -0.488276 1.49845 0
M  V30 5290 C 524.487 -1.2516 1.61599 0
M  V30 5291 C 524.851 -1.89615 0.301706 0
M  V30 5292 O 526.052 -2.67182 0.29453 0
M  V30 5293 C 524.323 -2.2805 2.75187 0
M  V30 5294 S 525.882 -3.13552 3.0697 0
M  V30 5295 H 522.7 -0.425178 0.569864 0
M  V30 5296 H 525.302 -0.551545 1.87559 0
M  V30 5297 H 524.006 -1.7925 3.69185 0
M  V30 5298 H 523.537 -3.02708 2.5126 0
M  V30 5299 H 525.552 -4.28927 2.49471 0
M  V30 5300 N 524.725 -1.39134 -0.740242 0
M  V30 5301 C 525.971 -1.36273 -1.50192 0
M  V30 5302 C 526.304 0.0430136 -1.94152 0
M  V30 5303 O 525.579 1.00691 -1.66408 0
M  V30 5304 C 525.862 -2.33041 -2.74525 0
M  V30 5305 C 525.715 -3.82535 -2.36617 0
M  V30 5306 C 527.034 -2.27723 -3.76604 0
M  V30 5307 H 524.153 -0.496323 -0.544823 0
M  V30 5308 H 526.795 -1.70085 -0.846815 0
M  V30 5309 H 524.945 -2.04337 -3.30422 0
M  V30 5310 H 526.617 -4.21967 -1.86391 0
M  V30 5311 H 524.86 -3.99565 -1.68909 0
M  V30 5312 H 525.531 -4.45723 -3.2563 0
M  V30 5313 H 528.007 -2.53091 -3.30279 0
M  V30 5314 H 526.883 -2.97519 -4.61274 0
M  V30 5315 H 527.144 -1.28049 -4.2315 0
M  V30 5316 N 526.204 0.969867 -1.24223 0
M  V30 5317 C 527.167 2.04564 -1.03373 0
M  V30 5318 C 528.167 1.60798 0.00819206 0
M  V30 5319 O 529.357 1.72641 -0.232567 0
M  V30 5320 C 526.489 3.36163 -0.566343 0
M  V30 5321 H 527.682 2.24494 -1.98853 0
M  V30 5322 H 525.235 1.1448 -1.06415 0
M  V30 5323 H 525.97 3.21925 0.391751 0
M  V30 5324 H 525.755 3.69273 -1.31834 0
M  V30 5325 H 527.245 4.1526 -0.441435 0
M  V30 5326 N 527.682 1.05563 1.17022 0
M  V30 5327 C 528.907 0.788437 1.91829 0
M  V30 5328 C 529.332 -0.650356 1.76499 0
M  V30 5329 O 528.69 -1.45229 1.08527 0
M  V30 5330 C 528.738 1.1786 3.40795 0
M  V30 5331 O 527.842 0.312965 4.11211 0
M  V30 5332 H 527.183 0.288794 0.597908 0
M  V30 5333 H 529.713 1.40948 1.48307 0
M  V30 5334 H 529.723 1.14697 3.91546 0
M  V30 5335 H 528.398 2.22666 3.51273 0
M  V30 5336 H 526.975 0.405515 3.70689 0
M  V30 5337 N 529.16 -1.33526 0.837174 0
M  V30 5338 C 530.123 -2.27551 0.274421 0
M  V30 5339 C 531.123 -1.50886 -0.555881 0
M  V30 5340 O 532.313 -1.70227 -0.369918 0
M  V30 5341 C 529.445 -3.35332 -0.613605 0
M  V30 5342 H 530.638 -2.78837 1.10408 0
M  V30 5343 H 528.191 -1.439 0.610126 0
M  V30 5344 H 528.926 -2.89285 -1.46577 0
M  V30 5345 H 528.711 -3.92095 -0.0195341 0
M  V30 5346 H 530.201 -4.05433 -1.00068 0
M  V30 5347 N 530.638 -0.59345 -1.46 0
M  V30 5348 C 531.568 0.121192 -2.33185 0
M  V30 5349 C 532.549 0.872977 -1.4599 0
M  V30 5350 O 533.734 0.846321 -1.74789 0
M  V30 5351 C 530.864 1.12844 -3.28456 0
M  V30 5352 C 529.818 0.4908 -4.25177 0
M  V30 5353 C 529.144 1.60529 -5.10034 0
M  V30 5354 C 530.444 -0.578949 -5.19081 0
M  V30 5355 H 532.138 -0.606767 -2.93187 0
M  V30 5356 H 529.684 -0.293242 -1.40983 0
M  V30 5357 H 531.637 1.63684 -3.88311 0
M  V30 5358 H 530.361 1.88681 -2.66584 0
M  V30 5359 H 529.02 0.00339328 -3.666 0
M  V30 5360 H 528.668 2.35359 -4.44539 0
M  V30 5361 H 528.368 1.18422 -5.75543 0
M  V30 5362 H 529.892 2.11623 -5.72755 0
M  V30 5363 H 531.306 -0.155199 -5.7309 0
M  V30 5364 H 529.703 -0.920947 -5.92991 0
M  V30 5365 H 530.773 -1.46109 -4.62364 0
M  V30 5366 N 532.116 1.54067 -0.331816 0
M  V30 5367 C 533.363 2.00715 0.268269 0
M  V30 5368 C 533.691 1.21986 1.51491 0
M  V30 5369 O 532.946 0.292309 1.93505 0
M  V30 5370 C 533.245 3.51634 0.639392 0
M  V30 5371 C 532.911 4.48018 -0.509019 0
M  V30 5372 C 531.573 4.74089 -0.824209 0
M  V30 5373 C 533.925 5.05237 -1.28003 0
M  V30 5374 C 531.253 5.54637 -1.91298 0
M  V30 5375 C 533.605 5.86972 -2.35895 0
M  V30 5376 C 532.269 6.11342 -2.67987 0
M  V30 5377 H 531.539 0.734469 0.0981667 0
M  V30 5378 H 534.186 1.8596 -0.457304 0
M  V30 5379 H 532.491 3.6416 1.44551 0
M  V30 5380 H 534.188 3.85175 1.11539 0
M  V30 5381 H 530.778 4.27851 -0.253287 0
M  V30 5382 H 534.962 4.8507 -1.04978 0
M  V30 5383 H 530.218 5.71747 -2.16599 0
M  V30 5384 H 534.392 6.30327 -2.96076 0
M  V30 5385 H 532.019 6.73544 -3.5248 0
M  V30 5386 N 533.594 0.0601682 1.57485 0
M  V30 5387 C 534.84 -0.612501 1.93329 0
M  V30 5388 C 535.173 -1.6996 0.939526 0
M  V30 5389 O 534.448 -1.94472 -0.0330957 0
M  V30 5390 C 534.731 -1.20025 3.39508 0
M  V30 5391 C 534.584 -0.12059 4.49638 0
M  V30 5392 C 535.903 -2.10923 3.86264 0
M  V30 5393 H 533.022 -0.221185 0.703027 0
M  V30 5394 H 535.664 0.123768 1.89596 0
M  V30 5395 H 533.814 -1.82774 3.42821 0
M  V30 5396 H 535.486 0.51185 4.58452 0
M  V30 5397 H 533.729 0.550251 4.30296 0
M  V30 5398 H 534.4 -0.572019 5.49028 0
M  V30 5399 H 536.876 -1.58124 3.84884 0
M  V30 5400 H 535.752 -2.48987 4.8918 0
M  V30 5401 H 536.013 -3.01292 3.23536 0
M  V30 5402 N 535.072 -1.5615 -0.213296 0
M  V30 5403 C 536.3 -1.83638 -0.953139 0
M  V30 5404 C 536.715 -0.640362 -1.77609 0
M  V30 5405 O 536.072 0.391071 -1.78261 0
M  V30 5406 C 536.123 -3.09735 -1.86405 0
M  V30 5407 O 535.844 -4.24723 -1.07435 0
M  V30 5408 C 537.345 -3.5027 -2.71709 0
M  V30 5409 H 534.565 -0.610263 -0.278962 0
M  V30 5410 H 537.109 -2.03247 -0.226035 0
M  V30 5411 H 535.264 -2.92077 -2.545 0
M  V30 5412 H 535.678 -4.9641 -1.69343 0
M  V30 5413 H 537.152 -4.41515 -3.31313 0
M  V30 5414 H 537.629 -2.72406 -3.44516 0
M  V30 5415 H 538.235 -3.70396 -2.09015 0
M  V30 5416 N 536.55 0.480323 -1.50102 0
M  V30 5417 C 537.775 1.26126 -1.64642 0
M  V30 5418 C 538.2 1.85257 -0.325823 0
M  V30 5419 O 537.558 1.66854 0.709194 0
M  V30 5420 C 537.606 2.35243 -2.73301 0
M  V30 5421 O 536.71 3.39646 -2.33911 0
M  V30 5422 H 536.051 0.371463 -0.550374 0
M  V30 5423 H 538.581 0.572696 -1.96421 0
M  V30 5424 H 538.591 2.80695 -2.96098 0
M  V30 5425 H 537.266 1.91574 -3.6915 0
M  V30 5426 H 535.843 2.99969 -2.21525 0
M  V30 5427 N 538.028 1.39524 0.732853 0
M  V30 5428 C 539.253 1.40329 1.52717 0
M  V30 5429 C 539.678 0.000286574 1.881 0
M  V30 5430 O 539.036 -0.987262 1.52062 0
M  V30 5431 C 539.084 2.28464 2.78992 0
M  V30 5432 O 538.188 1.716 3.75003 0
M  V30 5433 H 537.529 0.47778 0.461109 0
M  V30 5434 H 540.059 1.83546 0.903996 0
M  V30 5435 H 540.069 2.43051 3.27705 0
M  V30 5436 H 538.744 3.30425 2.52572 0
M  V30 5437 H 537.321 1.66267 3.33781 0
M  V30 5438 N 539.506 -0.963266 1.24736 0
M  V30 5439 C 540.416 -2.09246 1.06082 0
M  V30 5440 C 541.432 -1.74 0.000363101 0
M  V30 5441 O 542.608 -2.0041 0.199479 0
M  V30 5442 C 539.673 -3.40115 0.672498 0
M  V30 5443 C 538.734 -3.89282 1.80993 0
M  V30 5444 C 537.967 -5.13905 1.44004 0
M  V30 5445 O 538.19 -5.69434 0.331835 0
M  V30 5446 O 537.124 -5.57566 2.26723 0
M  V30 5447 H 540.95 -2.27881 2.00759 0
M  V30 5448 H 538.535 -1.07649 1.03595 0
M  V30 5449 H 540.417 -4.18797 0.467668 0
M  V30 5450 H 539.092 -3.22771 -0.245102 0
M  V30 5451 H 537.999 -3.11642 2.06955 0
M  V30 5452 H 539.332 -4.1111 2.70646 0
M  V30 5453 N 540.985 -1.06182 -1.16461 0
M  V30 5454 C 541.933 -0.665716 -2.2287 0
M  V30 5455 C 542.927 0.317822 -1.66392 0
M  V30 5456 O 544.133 0.182807 -1.79069 0
M  V30 5457 H 540.508 -0.197148 -0.725697 0
M  V30 5458 H 542.479 -1.57307 -2.53569 0
M  V30 5459 C 541.228 -0.0669803 -3.47635 0
M  V30 5460 H 540.551 -0.814899 -3.91407 0
M  V30 5461 H 541.991 0.172669 -4.23648 0
M  V30 5462 C 540.45 1.18913 -3.15216 0
M  V30 5463 O 540.98 2.27723 -3.30916 0
M  V30 5464 N 539.186 1.09066 -2.69357 0
M  V30 5465 H 538.733 0.20518 -2.56782 0
M  V30 5466 H 538.691 1.93195 -2.48039 0
M  V30 5467 N 542.463 1.3308 -0.844243 0
M  V30 5468 C 543.709 1.98304 -0.452453 0
M  V30 5469 C 544.064 1.65645 0.978746 0
M  V30 5470 O 543.357 0.928849 1.6758 0
M  V30 5471 C 543.551 3.52045 -0.616354 0
M  V30 5472 C 543.38 3.99643 -2.06193 0
M  V30 5473 C 542.15 4.27224 -2.69829 0
M  V30 5474 C 544.348 4.15471 -3.03131 0
M  V30 5475 N 542.33 4.60998 -4.05406 0
M  V30 5476 C 543.701 4.52665 -4.23668 0
M  V30 5477 C 545.756 3.97776 -2.99465 0
M  V30 5478 C 544.459 4.74011 -5.41023 0
M  V30 5479 C 546.485 4.20301 -4.16055 0
M  V30 5480 C 545.847 4.57801 -5.35348 0
M  V30 5481 H 541.946 0.752122 -0.214096 0
M  V30 5482 H 544.53 1.61096 -1.09344 0
M  V30 5483 H 542.701 3.884 -0.00513205 0
M  V30 5484 H 544.433 4.04228 -0.19548 0
M  V30 5485 H 541.188 4.18911 -2.20931 0
M  V30 5486 H 541.612 4.82087 -4.75312 0
M  V30 5487 H 546.254 3.67893 -2.08362 0
M  V30 5488 H 543.972 5.02753 -6.32665 0
M  V30 5489 H 547.558 4.08122 -4.14641 0
M  V30 5490 H 546.438 4.74884 -6.24063 0
M  V30 5491 N 543.941 0.601185 1.45683 0
M  V30 5492 C 545.357 0.264315 1.57396 0
M  V30 5493 C 545.557 -1.23324 1.59353 0
M  V30 5494 O 544.613 -2.01594 1.52039 0
M  V30 5495 C 545.926 0.929839 2.85962 0
M  V30 5496 C 547.474 0.905156 2.99626 0
M  V30 5497 C 547.949 1.55057 4.30954 0
M  V30 5498 N 549.44 1.51576 4.37697 0
M  V30 5499 C 550.175 1.98436 5.37969 0
M  V30 5500 N 549.671 2.53352 6.44813 0
M  V30 5501 N 551.464 1.89242 5.29286 0
M  V30 5502 H 543.615 1.57363 1.42656 0
M  V30 5503 H 545.878 0.658831 0.681649 0
M  V30 5504 H 545.584 1.98404 2.90394 0
M  V30 5505 H 545.458 0.449224 3.74515 0
M  V30 5506 H 547.845 -0.14048 2.94765 0
M  V30 5507 H 547.926 1.42397 2.12501 0
M  V30 5508 H 547.57 2.5955 4.36573 0
M  V30 5509 H 547.5 1.00682 5.16886 0
M  V30 5510 H 549.991 1.11452 3.61091 0
M  V30 5511 H 550.304 2.86918 7.17564 0
M  V30 5512 H 548.649 2.57388 6.45582 0
M  V30 5513 H 551.84 1.46083 4.44722 0
M  V30 5514 H 552.013 2.26075 6.07284 0
M  V30 5515 N 545.419 -1.53889 0.339982 0
M  V30 5516 C 546.366 -2.24902 -0.518452 0
M  V30 5517 C 547.336 -1.24593 -1.09844 0
M  V30 5518 O 548.521 -1.53317 -1.13572 0
M  V30 5519 C 545.661 -3.02262 -1.66529 0
M  V30 5520 C 544.774 -4.17418 -1.11295 0
M  V30 5521 C 543.909 -4.82273 -2.2268 0
M  V30 5522 C 542.948 -5.89503 -1.6478 0
M  V30 5523 N 542.085 -6.48153 -2.69893 0
M  V30 5524 H 546.925 -2.97853 0.0936579 0
M  V30 5525 H 544.462 -1.46986 0.0579924 0
M  V30 5526 H 546.42 -3.45371 -2.3404 0
M  V30 5527 H 545.05 -2.31614 -2.24844 0
M  V30 5528 H 544.102 -3.78976 -0.328886 0
M  V30 5529 H 545.414 -4.94554 -0.649414 0
M  V30 5530 H 544.568 -5.28435 -2.98063 0
M  V30 5531 H 543.307 -4.04552 -2.72376 0
M  V30 5532 H 542.312 -5.42728 -0.879004 0
M  V30 5533 H 543.537 -6.6913 -1.1594 0
M  V30 5534 H 541.483 -5.73298 -3.1885 0
M  V30 5535 H 541.4 -7.20752 -2.28151 0
M  V30 5536 H 542.668 -6.98968 -3.45056 0
M  V30 5537 N 546.897 -0.0685191 -1.57451 0
M  V30 5538 C 547.847 0.909895 -2.09057 0
M  V30 5539 C 548.831 1.26088 -0.999528 0
M  V30 5540 O 550.023 1.24041 -1.26265 0
M  V30 5541 C 547.152 2.17863 -2.65312 0
M  V30 5542 C 546.238 1.85427 -3.81415 0
M  V30 5543 N 546.629 1.23426 -4.9051 0
M  V30 5544 C 544.927 2.15196 -3.90649 0
M  V30 5545 C 545.628 1.09008 -5.71395 0
M  V30 5546 N 544.604 1.59871 -5.1956 0
M  V30 5547 H 548.406 0.426145 -2.90794 0
M  V30 5548 H 545.92 0.135462 -1.61834 0
M  V30 5549 H 547.917 2.88872 -3.00597 0
M  V30 5550 H 546.577 2.66829 -1.85021 0
M  V30 5551 H 547.588 0.904305 -5.09944 0
M  V30 5552 H 544.265 2.66562 -3.21327 0
M  V30 5553 H 545.655 0.607305 -6.6915 0
M  V30 5554 N 548.375 1.56261 0.205012 0
M  V30 5555 C 549.786 1.70056 0.770574 0
M  V30 5556 C 550.137 0.673398 1.84282 0
M  V30 5557 O 549.262 -0.172196 2.15714 0
M  V30 5558 C 549.857 3.08316 1.40451 0
M  V30 5559 C 548.416 3.2391 1.91727 0
M  V30 5560 C 547.563 2.66001 0.783516 0
M  V30 5561 H 550.514 1.58688 -0.019911 0
M  V30 5562 H 550.535 3.05094 2.27371 0
M  V30 5563 H 550.047 3.83053 0.623882 0
M  V30 5564 H 548.148 2.54072 2.7254 0
M  V30 5565 H 548.261 4.3131 2.08588 0
M  V30 5566 H 546.625 2.24915 1.19521 0
M  V30 5567 H 547.408 3.43297 0.0152883 0
M  V30 5568 N 549.853 -0.472356 1.50355 0
M  V30 5569 C 550.816 -1.5529 1.68576 0
M  V30 5570 C 551.816 -1.50863 0.556511 0
M  V30 5571 O 553.006 -1.53505 0.823516 0
M  V30 5572 C 550.138 -2.94921 1.70981 0
M  V30 5573 H 551.331 -1.40451 2.64978 0
M  V30 5574 H 548.884 -0.698645 1.39816 0
M  V30 5575 H 549.619 -3.15204 0.762675 0
M  V30 5576 H 549.404 -2.99541 2.53017 0
M  V30 5577 H 550.894 -3.73372 1.87037 0
M  V30 5578 N 551.331 -1.39911 -0.725443 0
M  V30 5579 C 552.577 -1.38862 -1.48624 0
M  V30 5580 C 552.932 0.0125913 -1.92396 0
M  V30 5581 O 552.225 0.981046 -1.64578 0
M  V30 5582 C 552.419 -2.30368 -2.7325 0
M  V30 5583 C 552.248 -3.79247 -2.41665 0
M  V30 5584 C 551.018 -4.48119 -2.3349 0
M  V30 5585 C 553.216 -4.70988 -2.06579 0
M  V30 5586 N 551.198 -5.82282 -1.94476 0
M  V30 5587 C 552.569 -5.93873 -1.78087 0
M  V30 5588 C 554.624 -4.58917 -1.9313 0
M  V30 5589 C 553.327 -7.06036 -1.37499 0
M  V30 5590 C 555.353 -5.71012 -1.53946 0
M  V30 5591 C 554.715 -6.92976 -1.26345 0
M  V30 5592 H 550.814 -0.563394 -0.54232 0
M  V30 5593 H 553.398 -1.75542 -0.842213 0
M  V30 5594 H 551.569 -1.95831 -3.35417 0
M  V30 5595 H 553.301 -2.20245 -3.39521 0
M  V30 5596 H 550.056 -4.01677 -2.50904 0
M  V30 5597 H 550.48 -6.53307 -1.77535 0
M  V30 5598 H 555.122 -3.65149 -2.13134 0
M  V30 5599 H 552.84 -7.99697 -1.16237 0
M  V30 5600 H 556.426 -5.63664 -1.44132 0
M  V30 5601 H 555.306 -7.78243 -0.964787 0
M  V30 5602 N 552.809 0.956637 -1.25245 0
M  V30 5603 C 553.719 2.0868 -1.0719 0
M  V30 5604 C 554.735 1.73997 -0.00959074 0
M  V30 5605 O 555.911 2.00301 -0.210104 0
M  V30 5606 C 552.976 3.39754 -0.690526 0
M  V30 5607 C 552.037 3.88316 -1.83055 0
M  V30 5608 C 551.27 5.13134 -1.46728 0
M  V30 5609 O 551.493 5.6925 -0.362029 0
M  V30 5610 O 550.427 5.56356 -2.29677 0
M  V30 5611 H 554.253 2.26813 -2.01965 0
M  V30 5612 H 551.838 1.07098 -1.04165 0
M  V30 5613 H 553.72 4.18543 -0.489871 0
M  V30 5614 H 552.395 3.22896 0.227981 0
M  V30 5615 H 551.302 3.1054 -2.08604 0
M  V30 5616 H 552.635 4.09669 -2.72822 0
M  V30 5617 N 554.287 1.06798 1.15896 0
M  V30 5618 C 555.197 0.694564 2.24083 0
M  V30 5619 C 556.213 -0.291687 1.71538 0
M  V30 5620 O 557.389 -0.139723 2.00915 0
M  V30 5621 C 554.454 0.0921014 3.46578 0
M  V30 5622 C 553.515 1.13087 4.14137 0
M  V30 5623 C 552.748 0.557064 5.30785 0
M  V30 5624 O 552.971 -0.628623 5.66925 0
M  V30 5625 O 551.905 1.29924 5.8771 0
M  V30 5626 H 555.731 1.59663 2.58344 0
M  V30 5627 H 553.316 0.840575 1.2351 0
M  V30 5628 H 555.198 -0.241884 4.20705 0
M  V30 5629 H 553.873 -0.78337 3.14078 0
M  V30 5630 H 552.78 1.51712 3.41957 0
M  V30 5631 H 554.113 1.97805 4.50704 0
M  V30 5632 N 555.766 -1.3263 0.851289 0
M  V30 5633 C 556.676 -2.32722 0.296268 0
M  V30 5634 C 557.692 -1.63901 -0.584162 0
M  V30 5635 O 558.868 -1.95465 -0.485334 0
M  V30 5636 C 555.933 -3.42942 -0.509103 0
M  V30 5637 C 554.994 -4.2746 0.397069 0
M  V30 5638 C 554.227 -5.32416 -0.36996 0
M  V30 5639 O 554.45 -5.47491 -1.6003 0
M  V30 5640 O 553.384 -6.01327 0.262493 0
M  V30 5641 H 557.21 -2.82078 1.12543 0
M  V30 5642 H 554.795 -1.36194 0.614135 0
M  V30 5643 H 556.677 -4.1017 -0.96634 0
M  V30 5644 H 555.352 -2.95781 -1.31512 0
M  V30 5645 H 554.259 -3.63053 0.902411 0
M  V30 5646 H 555.592 -4.78136 1.16818 0
M  V30 5647 N 557.244 -0.608902 -1.45362 0
M  V30 5648 C 558.493 -0.10218 -2.01441 0
M  V30 5649 C 558.806 1.27546 -1.48295 0
M  V30 5650 O 560.012 1.87498 -1.96359 0
M  V30 5651 C 558.468 -0.131985 -3.59658 0
M  V30 5652 C 558.076 -1.50956 -4.21801 0
M  V30 5653 C 559.82 0.319427 -4.23296 0
M  V30 5654 C 557.727 -1.49568 -5.72174 0
M  V30 5655 H 556.657 -0.0344314 -0.753213 0
M  V30 5656 H 559.308 -0.764426 -1.6682 0
M  V30 5657 H 557.69 0.596939 -3.91475 0
M  V30 5658 H 558.864 -2.26029 -4.01556 0
M  V30 5659 H 557.179 -1.90318 -3.70362 0
M  V30 5660 H 559.776 0.349013 -5.3356 0
M  V30 5661 H 560.119 1.34237 -3.94064 0
M  V30 5662 H 560.652 -0.356273 -3.96201 0
M  V30 5663 H 557.391 -2.49626 -6.06108 0
M  V30 5664 H 556.911 -0.787542 -5.94607 0
M  V30 5665 H 558.59 -1.21989 -6.35396 0
M  V30 5666 N 558.722 1.53707 -0.348139 0
M  V30 5667 C 559.969 2.00988 0.246966 0
M  V30 5668 C 560.297 1.23586 1.50189 0
M  V30 5669 O 559.552 0.312817 1.93184 0
M  V30 5670 C 559.851 3.52292 0.602061 0
M  V30 5671 C 559.517 4.47453 -0.556509 0
M  V30 5672 C 558.179 4.73188 -0.874446 0
M  V30 5673 C 560.531 5.03851 -1.33354 0
M  V30 5674 C 557.859 5.52577 -1.9717 0
M  V30 5675 C 560.211 5.84437 -2.42108 0
M  V30 5676 C 558.875 6.08465 -2.74456 0
M  V30 5677 H 558.145 0.735469 0.0903712 0
M  V30 5678 H 560.792 1.85464 -0.477001 0
M  V30 5679 H 559.097 3.65672 1.40681 0
M  V30 5680 H 560.794 3.86337 1.07447 0
M  V30 5681 H 557.384 4.27558 -0.298652 0
M  V30 5682 H 561.568 4.8393 -1.10117 0
M  V30 5683 H 556.824 5.69418 -2.22651 0
M  V30 5684 H 560.998 6.27151 -3.02745 0
M  V30 5685 H 558.625 6.69768 -3.59604 0
M  V30 5686 N 560.2 0.0768682 1.57412 0
M  V30 5687 C 561.448 -0.589918 1.93299 0
M  V30 5688 C 561.769 -1.69842 0.958049 0
M  V30 5689 O 561.039 -1.95899 0.00703261 0
M  V30 5690 H 559.619 -0.220901 0.713591 0
M  V30 5691 H 562.281 0.135917 1.94425 0
M  V30 5692 H 561.377 -1.01195 2.95239 0
M  V30 5693 N 561.678 -1.56367 -0.196722 0
M  V30 5694 C 563.089 -1.70462 -0.761545 0
M  V30 5695 C 563.44 -0.683161 -1.83922 0
M  V30 5696 O 562.565 0.160753 -2.15802 0
M  V30 5697 C 563.16 -3.09057 -1.38814 0
M  V30 5698 C 561.719 -3.24922 -1.90007 0
M  V30 5699 C 560.866 -2.66412 -0.769399 0
M  V30 5700 H 563.817 -1.58675 0.0283263 0
M  V30 5701 H 563.838 -3.06296 -2.2575 0
M  V30 5702 H 563.35 -3.83378 -0.603559 0
M  V30 5703 H 561.451 -2.55514 -2.71189 0
M  V30 5704 H 561.564 -4.3241 -2.06297 0
M  V30 5705 H 559.928 -2.25546 -1.18326 0
M  V30 5706 H 560.711 -3.433 0.00291773 0
M  V30 5707 N 563.156 0.464375 -1.50603 0
M  V30 5708 C 564.088 1.57916 -1.66118 0
M  V30 5709 C 565.101 1.53497 -0.54246 0
M  V30 5710 O 566.29 1.58763 -0.815877 0
M  V30 5711 C 563.39 2.96809 -1.63577 0
M  V30 5712 C 562.563 3.26026 -2.91592 0
M  V30 5713 C 561.622 4.44506 -2.81604 0
M  V30 5714 O 560.648 4.44484 -3.55559 0
M  V30 5715 N 561.85 5.46549 -1.95614 0
M  V30 5716 H 564.615 1.45022 -2.62276 0
M  V30 5717 H 562.176 0.652903 -1.48151 0
M  V30 5718 H 564.168 3.74048 -1.54499 0
M  V30 5719 H 562.738 3.03438 -0.751262 0
M  V30 5720 H 561.958 2.37337 -3.14746 0
M  V30 5721 H 563.246 3.42361 -3.76386 0
M  V30 5722 H 562.644 5.49391 -1.34854 0
M  V30 5723 H 561.201 6.22746 -1.92435 0
M  V30 5724 N 564.634 1.40294 0.718013 0
M  V30 5725 C 565.859 1.41941 1.5122 0
M  V30 5726 C 566.284 0.0202371 1.88089 0
M  V30 5727 O 565.642 -0.971078 1.53101 0
M  V30 5728 C 565.69 2.3141 2.76554 0
M  V30 5729 O 564.794 1.75567 3.73162 0
M  V30 5730 H 564.135 0.482644 0.456016 0
M  V30 5731 H 566.665 1.84494 0.884478 0
M  V30 5732 H 566.675 2.46513 3.25108 0
M  V30 5733 H 565.35 3.33085 2.49053 0
M  V30 5734 H 563.927 1.69798 3.31999 0
M  V30 5735 N 566.112 -0.949982 1.2575 0
M  V30 5736 C 567.042 -2.06483 1.09028 0
M  V30 5737 C 568.023 -1.701 -0.00201532 0
M  V30 5738 O 569.208 -1.93469 0.168383 0
M  V30 5739 C 566.338 -3.39899 0.71316 0
M  V30 5740 C 565.292 -3.90309 1.75621 0
M  V30 5741 C 564.618 -5.20274 1.23365 0
M  V30 5742 C 565.918 -4.16169 3.15596 0
M  V30 5743 H 567.612 -2.20731 2.02283 0
M  V30 5744 H 565.158 -1.06066 0.973964 0
M  V30 5745 H 567.111 -4.17346 0.58309 0
M  V30 5746 H 565.835 -3.25602 -0.255091 0
M  V30 5747 H 564.494 -3.15035 1.8748 0
M  V30 5748 H 564.142 -5.02351 0.255491 0
M  V30 5749 H 563.842 -5.54971 1.93082 0
M  V30 5750 H 565.366 -6.00314 1.11607 0
M  V30 5751 H 566.78 -4.84259 3.06864 0
M  V30 5752 H 565.177 -4.62131 3.82825 0
M  V30 5753 H 566.247 -3.22273 3.6231 0
M  V30 5754 N 567.59 -1.07411 -1.15328 0
M  V30 5755 C 568.839 -0.792643 -1.85473 0
M  V30 5756 C 569.152 0.683789 -1.83259 0
M  V30 5757 O 570.358 1.08005 -2.49093 0
M  V30 5758 C 568.814 -1.36787 -3.32892 0
M  V30 5759 C 568.422 -2.87536 -3.43551 0
M  V30 5760 C 570.166 -1.16444 -4.08217 0
M  V30 5761 C 568.073 -3.38247 -4.85122 0
M  V30 5762 H 567.003 -0.292838 -0.694811 0
M  V30 5763 H 569.654 -1.29426 -1.30082 0
M  V30 5764 H 568.036 -0.793993 -3.87958 0
M  V30 5765 H 569.21 -3.50973 -2.98588 0
M  V30 5766 H 567.525 -3.06676 -2.81672 0
M  V30 5767 H 570.122 -1.51808 -5.12697 0
M  V30 5768 H 570.465 -0.10353 -4.16171 0
M  V30 5769 H 570.998 -1.70472 -3.59422 0
M  V30 5770 H 567.737 -4.43866 -4.82351 0
M  V30 5771 H 567.257 -2.79564 -5.30664 0
M  V30 5772 H 568.936 -3.34238 -5.5398 0
M  V30 5773 N 569.068 1.32177 -0.85831 0
M  V30 5774 C 570.314 1.97417 -0.46417 0
M  V30 5775 C 570.647 1.67746 0.978514 0
M  V30 5776 O 569.922 0.967654 1.68721 0
M  V30 5777 C 570.205 3.53069 -0.708094 0
M  V30 5778 C 570.058 3.92357 -2.19946 0
M  V30 5779 C 571.377 4.39783 -0.166881 0
M  V30 5780 H 568.496 0.717097 -0.17012 0
M  V30 5781 H 571.138 1.56499 -1.07741 0
M  V30 5782 H 569.288 3.88054 -0.186128 0
M  V30 5783 H 570.96 3.67533 -2.78779 0
M  V30 5784 H 569.203 3.41384 -2.67656 0
M  V30 5785 H 569.874 5.00841 -2.32082 0
M  V30 5786 H 572.35 4.11556 -0.613285 0
M  V30 5787 H 571.226 5.47671 -0.367093 0
M  V30 5788 H 571.487 4.32196 0.930559 0
M  V30 5789 N 570.547 0.616602 1.45037 0
M  V30 5790 C 571.793 0.115501 2.02471 0
M  V30 5791 C 572.126 -1.25406 1.4828 0
M  V30 5792 O 571.401 -1.82922 0.661051 0
M  V30 5793 C 571.684 0.0863588 3.59996 0
M  V30 5794 C 571.537 1.48723 4.24501 0
M  V30 5795 C 572.856 -0.596762 4.36035 0
M  V30 5796 H 569.975 0.0434461 0.735718 0
M  V30 5797 H 572.617 0.7903 1.72784 0
M  V30 5798 H 570.767 -0.488277 3.85419 0
M  V30 5799 H 572.439 2.10964 4.10234 0
M  V30 5800 H 570.682 2.04534 3.82555 0
M  V30 5801 H 571.353 1.419 5.3345 0
M  V30 5802 H 573.829 -0.10824 4.15959 0
M  V30 5803 H 572.705 -0.586289 5.4576 0
M  V30 5804 H 572.966 -1.66451 4.09569 0
M  V30 5805 N 572.025 -1.5352 0.356285 0
M  V30 5806 C 573.265 -2.03027 -0.23649 0
M  V30 5807 C 573.629 -1.23813 -1.46746 0
M  V30 5808 O 574.83 -1.63281 -2.13525 0
M  V30 5809 C 573.101 -3.53442 -0.530415 0
M  V30 5810 S 574.66 -4.24836 -1.09819 0
M  V30 5811 H 571.478 -0.707591 -0.0695378 0
M  V30 5812 H 574.08 -1.89077 0.496999 0
M  V30 5813 H 572.784 -4.087 0.373114 0
M  V30 5814 H 572.315 -3.71536 -1.29323 0
M  V30 5815 H 574.33 -4.35228 -2.38309 0
M  V30 5816 N 573.503 -0.0852151 -1.57369 0
M  V30 5817 C 574.413 0.891712 -2.16992 0
M  V30 5818 C 575.429 1.3174 -1.13669 0
M  V30 5819 O 576.605 1.38735 -1.45995 0
M  V30 5820 C 573.67 2.13635 -2.73059 0
M  V30 5821 C 572.731 1.7658 -3.91303 0
M  V30 5822 C 571.964 2.95111 -4.44686 0
M  V30 5823 O 572.187 4.09539 -3.97032 0
M  V30 5824 O 571.121 2.74149 -5.35841 0
M  V30 5825 H 574.947 0.414477 -3.00858 0
M  V30 5826 H 572.532 0.138598 -1.48756 0
M  V30 5827 H 574.414 2.86595 -3.08935 0
M  V30 5828 H 573.089 2.6043 -1.92244 0
M  V30 5829 H 571.996 1.00831 -3.60255 0
M  V30 5830 H 573.329 1.34557 -4.7345 0
M  V30 5831 N 574.981 1.5647 0.188427 0
M  V30 5832 C 575.929 1.95971 1.25293 0
M  V30 5833 C 576.923 0.846047 1.4676 0
M  V30 5834 O 578.129 1.03109 1.47542 0
M  V30 5835 H 574.504 0.623253 0.420784 0
M  V30 5836 H 576.475 2.84731 0.892792 0
M  V30 5837 C 575.224 2.32116 2.58877 0
M  V30 5838 H 574.547 3.17341 2.43176 0
M  V30 5839 H 575.987 2.63613 3.3209 0
M  V30 5840 C 574.446 1.15823 3.16365 0
M  V30 5841 O 574.976 0.436785 3.99318 0
M  V30 5842 N 573.182 0.933278 2.75206 0
M  V30 5843 H 572.729 1.52169 2.07852 0
M  V30 5844 H 572.687 0.156976 3.14008 0
M  V30 5845 N 576.459 -0.456382 1.50847 0
M  V30 5846 C 577.705 -1.20914 1.62811 0
M  V30 5847 C 578.038 -1.91301 0.334304 0
M  V30 5848 O 577.313 -1.82775 -0.665098 0
M  V30 5849 C 577.596 -2.24122 2.81853 0
M  V30 5850 C 577.449 -1.57944 4.21158 0
M  V30 5851 C 578.768 -3.25295 2.96431 0
M  V30 5852 H 575.887 -0.438233 0.592554 0
M  V30 5853 H 578.529 -0.50091 1.83278 0
M  V30 5854 H 576.679 -2.84524 2.64534 0
M  V30 5855 H 578.351 -1.01025 4.50102 0
M  V30 5856 H 576.594 -0.882185 4.24735 0
M  V30 5857 H 577.265 -2.33014 5.00408 0
M  V30 5858 H 579.741 -2.7493 3.12335 0
M  V30 5859 H 578.617 -3.94822 3.81322 0
M  V30 5860 H 578.878 -3.90286 2.07676 0
M  V30 5861 N 577.937 -1.40673 -0.710563 0
M  V30 5862 C 578.9 -1.4108 -1.80635 0
M  V30 5863 C 579.9 -0.303783 -1.57904 0
M  V30 5864 O 581.09 -0.562937 -1.64853 0
M  V30 5865 C 578.222 -1.20748 -3.18799 0
M  V30 5866 H 579.415 -2.38612 -1.81671 0
M  V30 5867 H 576.968 -1.26595 -0.916704 0
M  V30 5868 H 577.703 -0.239964 -3.23411 0
M  V30 5869 H 577.488 -2.00941 -3.36698 0
M  V30 5870 H 578.978 -1.23833 -3.98817 0
M  V30 5871 N 579.415 0.9433 -1.26252 0
M  V30 5872 C 580.692 1.66639 -1.02424 0
M  V30 5873 C 581.072 2.06335 0.446006 0
M  V30 5874 O 580.42 1.78551 1.42589 0
M  V30 5875 C 580.63 2.88019 -1.97094 0
M  V30 5876 C 581.978 3.59718 -2.25584 0
M  V30 5877 O 583.002 2.9812 -1.94943 0
M  V30 5878 O 581.861 4.7066 -2.77743 0
M  V30 5879 H 578.955 0.729643 -0.389294 0
M  V30 5880 H 581.501 0.995218 -1.37454 0
M  V30 5881 H 580.273 2.5556 -2.96319 0
M  V30 5882 H 579.896 3.62863 -1.62532 0
M  V30 5883 N 580.893 1.08022 1.14757 0
M  V30 5884 C 581.826 0.650738 2.18725 0
M  V30 5885 C 582.804 -0.335496 1.59101 0
M  V30 5886 O 583.988 -0.240295 1.86962 0
M  V30 5887 C 581.115 -0.0434377 3.38672 0
M  V30 5888 C 580.161 0.90232 4.16846 0
M  V30 5889 S 580.994 2.40693 4.78359 0
M  V30 5890 C 582.15 1.72475 6.01667 0
M  V30 5891 H 582.383 1.53152 2.54817 0
M  V30 5892 H 579.916 0.894823 1.25826 0
M  V30 5893 H 581.874 -0.437684 4.0816 0
M  V30 5894 H 580.535 -0.900659 3.0091 0
M  V30 5895 H 579.728 0.363445 5.02688 0
M  V30 5896 H 579.33 1.23728 3.52941 0
M  V30 5897 H 581.622 1.0404 6.69464 0
M  V30 5898 H 582.565 2.56175 6.60136 0
M  V30 5899 H 582.973 1.19979 5.51602 0
M  V30 5900 N 582.371 -1.3172 0.865308 0
M  V30 5901 C 583.301 -2.31109 0.333302 0
M  V30 5902 C 584.282 -1.60148 -0.573301 0
M  V30 5903 O 585.467 -1.87882 -0.491305 0
M  V30 5904 C 582.597 -3.44104 -0.470078 0
M  V30 5905 C 581.551 -4.26623 0.343021 0
M  V30 5906 C 580.877 -5.31482 -0.585756 0
M  V30 5907 C 582.177 -4.98001 1.57456 0
M  V30 5908 H 583.871 -2.75855 1.1638 0
M  V30 5909 H 581.417 -1.3262 0.561069 0
M  V30 5910 H 583.37 -4.12682 -0.852752 0
M  V30 5911 H 582.094 -2.98112 -1.33404 0
M  V30 5912 H 580.753 -3.59707 0.707583 0
M  V30 5913 H 580.401 -4.81741 -1.44686 0
M  V30 5914 H 580.101 -5.87582 -0.0456494 0
M  V30 5915 H 581.625 -6.0292 -0.965375 0
M  V30 5916 H 583.039 -5.59201 1.26359 0
M  V30 5917 H 581.436 -5.63876 2.05339 0
M  V30 5918 H 582.506 -4.25253 2.32997 0
M  V30 5919 N 583.85 -0.624285 -1.44708 0
M  V30 5920 C 585.075 -0.131171 -2.06985 0
M  V30 5921 C 585.5 1.18234 -1.46295 0
M  V30 5922 O 584.858 1.72375 -0.561842 0
M  V30 5923 C 584.906 -0.0226724 -3.60593 0
M  V30 5924 O 584.01 1.02314 -3.99507 0
M  V30 5925 H 583.351 -0.0816556 -0.65896 0
M  V30 5926 H 585.88 -0.859027 -1.85693 0
M  V30 5927 H 585.891 0.170138 -4.07645 0
M  V30 5928 H 584.566 -0.981685 -4.04148 0
M  V30 5929 H 583.143 0.805452 -3.64097 0
M  V30 5930 N 585.328 1.53329 -0.364422 0
M  V30 5931 C 586.258 2.28627 0.474543 0
M  V30 5932 C 587.239 1.31009 1.08492 0
M  V30 5933 O 588.424 1.59878 1.10239 0
M  V30 5934 C 585.554 3.07465 1.61501 0
M  V30 5935 C 584.508 4.1276 1.13194 0
M  V30 5936 C 583.834 4.79674 2.36255 0
M  V30 5937 C 585.134 5.21847 0.217507 0
M  V30 5938 H 586.828 2.99005 -0.153656 0
M  V30 5939 H 584.374 1.43803 -0.0753406 0
M  V30 5940 H 586.327 3.58889 2.20855 0
M  V30 5941 H 585.051 2.34775 2.27042 0
M  V30 5942 H 583.71 3.62281 0.56109 0
M  V30 5943 H 583.358 4.03557 3.00251 0
M  V30 5944 H 583.058 5.50827 2.04606 0
M  V30 5945 H 584.582 5.33892 2.96297 0
M  V30 5946 H 585.996 5.6878 0.718493 0
M  V30 5947 H 584.393 6.00099 -0.00806408 0
M  V30 5948 H 585.463 4.7921 -0.740653 0
M  V30 5949 N 586.806 0.0935595 1.57322 0
M  V30 5950 C 588.031 -0.582324 1.99057 0
M  V30 5951 C 588.456 -1.61025 0.972242 0
M  V30 5952 O 587.814 -1.81202 -0.0594622 0
M  V30 5953 C 587.862 -1.20799 3.39765 0
M  V30 5954 O 586.966 -2.32382 3.40694 0
M  V30 5955 H 586.307 -0.147884 0.647323 0
M  V30 5956 H 588.837 0.174516 2.03854 0
M  V30 5957 H 588.847 -1.54966 3.77425 0
M  V30 5958 H 587.522 -0.454914 4.13405 0
M  V30 5959 H 586.099 -1.99845 3.14827 0
M  V30 5960 N 588.284 -1.56567 -0.180126 0
M  V30 5961 C 589.194 -1.98947 -1.24327 0
M  V30 5962 C 590.21 -0.899446 -1.4895 0
M  V30 5963 O 591.386 -1.20639 -1.61271 0
M  V30 5964 C 588.451 -2.33328 -2.56435 0
M  V30 5965 C 587.512 -3.56114 -2.39752 0
M  V30 5966 C 586.745 -3.88845 -3.65561 0
M  V30 5967 O 586.968 -3.22662 -4.70368 0
M  V30 5968 O 585.902 -4.82226 -3.60197 0
M  V30 5969 H 589.728 -2.89634 -0.913565 0
M  V30 5970 H 587.313 -1.44319 -0.386306 0
M  V30 5971 H 589.195 -2.5645 -3.34382 0
M  V30 5972 H 587.87 -1.45806 -2.89002 0
M  V30 5973 H 586.777 -3.38221 -1.59866 0
M  V30 5974 H 588.11 -4.4415 -2.12113 0
M  V30 5975 N 589.762 0.448376 -1.51087 0
M  V30 5976 C 590.695 1.56298 -1.66272 0
M  V30 5977 C 591.673 1.54381 -0.510419 0
M  V30 5978 O 592.857 1.73671 -0.732854 0
M  V30 5979 C 589.984 2.94883 -1.66618 0
M  V30 5980 C 589.03 3.14868 -2.87681 0
M  V30 5981 S 589.863 2.9234 -4.48662 0
M  V30 5982 C 591.019 4.33227 -4.51735 0
M  V30 5983 H 591.252 1.43182 -2.6055 0
M  V30 5984 H 588.785 0.637309 -1.40633 0
M  V30 5985 H 590.743 3.74771 -1.67502 0
M  V30 5986 H 589.404 3.05371 -0.735358 0
M  V30 5987 H 588.597 4.16166 -2.84292 0
M  V30 5988 H 588.199 2.42788 -2.84482 0
M  V30 5989 H 590.491 5.26247 -4.26697 0
M  V30 5990 H 591.434 4.41653 -5.53487 0
M  V30 5991 H 591.842 4.16367 -3.81181 0
M  V30 5992 N 591.24 1.41047 0.703093 0
M  V30 5993 C 592.17 1.45067 1.82969 0
M  V30 5994 C 593.151 0.31016 1.67248 0
M  V30 5995 O 594.336 0.520548 1.87093 0
M  V30 5996 C 591.466 1.32478 3.2104 0
M  V30 5997 C 590.42 2.44262 3.51454 0
M  V30 5998 C 589.746 2.16742 4.88801 0
M  V30 5999 C 591.046 3.86606 3.51189 0
M  V30 6000 H 592.74 2.39353 1.79863 0
M  V30 6001 H 590.286 1.15206 0.863919 0
M  V30 6002 H 592.239 1.33904 3.99559 0
M  V30 6003 H 590.963 0.346735 3.24754 0
M  V30 6004 H 589.622 2.42107 2.75282 0
M  V30 6005 H 589.27 1.17299 4.89132 0
M  V30 6006 H 588.97 2.91643 5.10116 0
M  V30 6007 H 590.494 2.19872 5.69639 0
M  V30 6008 H 591.908 3.90517 4.19725 0
M  V30 6009 H 590.305 4.61128 3.84033 0
M  V30 6010 H 591.375 4.15296 2.50315 0
M  V30 6011 N 592.718 -0.936591 1.26751 0
M  V30 6012 C 593.681 -2.01752 1.08761 0
M  V30 6013 C 594.681 -1.60763 0.0344435 0
M  V30 6014 O 595.871 -1.71963 0.278258 0
M  V30 6015 C 593.003 -3.34543 0.655271 0
M  V30 6016 H 594.196 -2.19143 2.04735 0
M  V30 6017 H 591.749 -1.11618 1.09413 0
M  V30 6018 H 592.484 -3.22851 -0.30626 0
M  V30 6019 H 592.269 -3.65647 1.41578 0
M  V30 6020 H 593.759 -4.13944 0.551378 0
M  V30 6021 N 594.196 -1.08629 -1.14182 0
M  V30 6022 C 595.444 -0.815731 -1.84906 0
M  V30 6023 C 595.765 0.660441 -1.83475 0
M  V30 6024 O 595.035 1.47888 -1.28476 0
M  V30 6025 H 593.615 -0.298773 -0.684648 0
M  V30 6026 H 596.277 -1.37274 -1.38354 0
M  V30 6027 H 595.373 -1.16193 -2.89665 0
M  V30 6028 N 595.674 1.31259 -0.872281 0
M  V30 6029 C 596.899 2.0133 -0.498099 0
M  V30 6030 C 597.324 1.65031 0.902568 0
M  V30 6031 O 596.682 0.860164 1.59596 0
M  V30 6032 C 596.73 3.54411 -0.665205 0
M  V30 6033 O 595.834 4.11347 0.294473 0
M  V30 6034 H 595.175 0.633844 -0.197832 0
M  V30 6035 H 597.705 1.67402 -1.17633 0
M  V30 6036 H 597.715 4.04147 -0.559373 0
M  V30 6037 H 596.39 3.80171 -1.68651 0
M  V30 6038 H 594.967 3.72624 0.143403 0
M  V30 6039 N 597.152 0.631951 1.44375 0
M  V30 6040 C 598.082 -0.0593243 2.33425 0
M  V30 6041 C 599.063 -0.833964 1.48253 0
M  V30 6042 O 600.248 -0.799682 1.76971 0
M  V30 6043 C 597.378 -1.04096 3.31333 0
M  V30 6044 C 596.332 -0.377899 4.26328 0
M  V30 6045 C 595.658 -1.4695 5.14111 0
M  V30 6046 C 596.958 0.716371 5.17364 0
M  V30 6047 H 598.652 0.684287 2.91475 0
M  V30 6048 H 596.198 0.330518 1.40156 0
M  V30 6049 H 598.151 -1.53331 3.92514 0
M  V30 6050 H 596.875 -1.81547 2.71493 0
M  V30 6051 H 595.534 0.0938054 3.6648 0
M  V30 6052 H 595.182 -2.2349 4.50623 0
M  V30 6053 H 594.882 -1.03121 5.78481 0
M  V30 6054 H 596.406 -1.96363 5.78164 0
M  V30 6055 H 597.82 0.307089 5.72477 0
M  V30 6056 H 596.217 1.07784 5.90341 0
M  V30 6057 H 597.287 1.58316 4.58327 0
M  V30 6058 N 598.631 -1.53133 0.372548 0
M  V30 6059 C 599.859 -2.05774 -0.215515 0
M  V30 6060 C 600.274 -1.24555 -1.41886 0
M  V30 6061 O 599.631 -0.287951 -1.80214 0
M  V30 6062 C 599.682 -3.5645 -0.602161 0
M  V30 6063 O 599.403 -4.34591 0.553359 0
M  V30 6064 C 600.904 -4.25374 -1.24787 0
M  V30 6065 H 598.124 -0.670009 -0.0364529 0
M  V30 6066 H 600.668 -1.97434 0.532934 0
M  V30 6067 H 598.823 -3.64918 -1.30052 0
M  V30 6068 H 599.237 -5.23954 0.239336 0
M  V30 6069 H 600.711 -5.32097 -1.46891 0
M  V30 6070 H 601.188 -3.79531 -2.21026 0
M  V30 6071 H 601.794 -4.21177 -0.590752 0
M  V30 6072 N 600.109 -0.101901 -1.5727 0
M  V30 6073 C 601.072 0.840129 -2.13247 0
M  V30 6074 C 602.072 1.20625 -1.06331 0
M  V30 6075 O 603.262 1.13456 -1.32186 0
M  V30 6076 C 600.394 2.13372 -2.65867 0
M  V30 6077 H 601.587 0.353945 -2.97804 0
M  V30 6078 H 599.14 0.147167 -1.55606 0
M  V30 6079 H 599.875 2.66461 -1.84849 0
M  V30 6080 H 599.66 1.88085 -3.44044 0
M  V30 6081 H 601.15 2.80748 -3.09145 0
M  V30 6082 N 601.587 1.56661 0.17182 0
M  V30 6083 C 602.815 1.861 0.904115 0
M  V30 6084 C 603.23 0.687227 1.75848 0
M  V30 6085 O 602.587 -0.343671 1.79235 0
M  V30 6086 C 602.638 3.14568 1.78127 0
M  V30 6087 O 602.359 4.27422 0.961366 0
M  V30 6088 C 603.86 3.5735 2.62327 0
M  V30 6089 H 601.08 0.617445 0.262684 0
M  V30 6090 H 603.624 2.03775 0.172068 0
M  V30 6091 H 601.779 2.98721 2.46666 0
M  V30 6092 H 602.193 5.00725 1.56123 0
M  V30 6093 H 603.667 4.50144 3.1949 0
M  V30 6094 H 604.144 2.81445 3.37173 0
M  V30 6095 H 604.75 3.75807 1.99121 0
M  V30 6096 N 603.065 -0.440357 1.51323 0
M  V30 6097 C 604.314 -1.18697 1.63076 0
M  V30 6098 C 604.627 -1.92418 0.35136 0
M  V30 6099 O 605.833 -2.69258 0.348221 0
M  V30 6100 C 604.289 -2.15849 2.87988 0
M  V30 6101 C 603.897 -1.47789 4.22921 0
M  V30 6102 C 605.641 -2.90962 3.09098 0
M  V30 6103 C 603.548 -2.43407 5.38987 0
M  V30 6104 H 602.478 -0.44676 0.607389 0
M  V30 6105 H 605.129 -0.454313 1.77787 0
M  V30 6106 H 603.511 -2.92537 2.66905 0
M  V30 6107 H 604.685 -0.7668 4.54375 0
M  V30 6108 H 603 -0.848404 4.07665 0
M  V30 6109 H 605.597 -3.62584 3.92985 0
M  V30 6110 H 605.94 -3.52133 2.22053 0
M  V30 6111 H 606.473 -2.21381 3.30507 0
M  V30 6112 H 603.212 -1.86929 6.28282 0
M  V30 6113 H 602.732 -3.12579 5.11913 0
M  V30 6114 H 604.411 -3.046 5.70813 0
M  V30 6115 N 604.543 -1.41418 -0.695603 0
M  V30 6116 C 605.493 -1.39731 -1.80165 0
M  V30 6117 C 606.477 -0.271689 -1.5859 0
M  V30 6118 O 607.669 -0.512354 -1.69422 0
M  V30 6119 C 604.798 -1.28187 -3.1847 0
M  V30 6120 C 603.884 -2.45612 -3.45739 0
M  V30 6121 N 604.275 -3.71077 -3.43708 0
M  V30 6122 C 602.573 -2.39424 -3.76288 0
M  V30 6123 C 603.274 -4.48957 -3.69882 0
M  V30 6124 N 602.25 -3.7907 -3.89624 0
M  V30 6125 H 606.052 -2.34656 -1.76957 0
M  V30 6126 H 603.566 -1.35473 -0.89559 0
M  V30 6127 H 605.563 -1.2506 -3.977 0
M  V30 6128 H 604.223 -0.342468 -3.22889 0
M  V30 6129 H 605.234 -4.03963 -3.2409 0
M  V30 6130 H 601.911 -1.53955 -3.88077 0
M  V30 6131 H 603.301 -5.57887 -3.74448 0
M  V30 6132 N 606.021 0.929856 -1.27246 0
M  V30 6133 C 606.984 2.01172 -1.09829 0
M  V30 6134 C 607.984 1.60743 -0.0429687 0
M  V30 6135 O 609.174 1.71813 -0.287373 0
M  V30 6136 C 606.306 3.34191 -0.673003 0
M  V30 6137 H 607.499 2.18054 -2.05895 0
M  V30 6138 H 605.052 1.11036 -1.10003 0
M  V30 6139 H 605.787 3.23009 0.289134 0
M  V30 6140 H 605.572 3.64892 -1.43515 0
M  V30 6141 H 607.062 4.13646 -0.573323 0
M  V30 6142 N 607.499 1.09233 1.13605 0
M  V30 6143 C 608.727 0.848908 1.88683 0
M  V30 6144 C 609.142 -0.599667 1.79024 0
M  V30 6145 O 608.499 -1.41265 1.15544 0
M  V30 6146 C 608.55 1.27273 3.38355 0
M  V30 6147 O 608.271 2.66449 3.47759 0
M  V30 6148 C 609.772 1.0614 4.30406 0
M  V30 6149 H 606.992 0.305549 0.597395 0
M  V30 6150 H 609.536 1.4538 1.43823 0
M  V30 6151 H 607.691 0.711776 3.80805 0
M  V30 6152 H 608.105 2.84264 4.40788 0
M  V30 6153 H 609.579 1.40725 5.33761 0
M  V30 6154 H 610.056 -0.000960332 4.392 0
M  V30 6155 H 610.662 1.60821 3.93722 0
M  V30 6156 N 608.977 -1.30795 0.87923 0
M  V30 6157 C 609.887 -2.32041 0.345565 0
M  V30 6158 C 610.903 -1.65103 -0.549265 0
M  V30 6159 O 612.079 -1.9645 -0.443763 0
M  V30 6160 C 609.144 -3.43944 -0.436245 0
M  V30 6161 C 608.205 -4.26521 0.48765 0
M  V30 6162 C 607.438 -5.33081 -0.256943 0
M  V30 6163 O 607.661 -5.50762 -1.48381 0
M  V30 6164 O 606.595 -6.00635 0.389985 0
M  V30 6165 H 610.421 -2.79627 1.18501 0
M  V30 6166 H 608.006 -1.3486 0.642885 0
M  V30 6167 H 609.888 -4.12128 -0.879119 0
M  V30 6168 H 608.563 -2.98504 -1.25208 0
M  V30 6169 H 607.47 -3.61057 0.979216 0
M  V30 6170 H 608.803 -4.75551 1.26933 0
M  V30 6171 N 610.455 -0.639598 -1.44038 0
M  V30 6172 C 611.365 0.0612377 -2.3452 0
M  V30 6173 C 612.381 0.826717 -1.53106 0
M  V30 6174 O 613.557 0.777059 -1.85806 0
M  V30 6175 C 610.622 1.02492 -3.31204 0
M  V30 6176 C 609.683 0.25788 -4.28525 0
M  V30 6177 C 608.916 1.17566 -5.2059 0
M  V30 6178 O 609.139 2.41461 -5.16771 0
M  V30 6179 O 608.073 0.655407 -5.98321 0
M  V30 6180 H 611.899 -0.68318 -2.95916 0
M  V30 6181 H 609.484 -0.399784 -1.43952 0
M  V30 6182 H 611.366 1.57911 -3.90694 0
M  V30 6183 H 610.041 1.7498 -2.7233 0
M  V30 6184 H 608.948 -0.339566 -3.72556 0
M  V30 6185 H 610.281 -0.427154 -4.90343 0
M  V30 6186 N 611.933 1.52934 -0.380664 0
M  V30 6187 C 613.21 1.93845 0.261417 0
M  V30 6188 C 613.59 1.31544 1.65104 0
M  V30 6189 O 612.938 0.480234 2.23397 0
M  V30 6190 C 613.148 3.47739 0.296466 0
M  V30 6191 C 614.496 4.21284 0.529578 0
M  V30 6192 O 615.52 3.54199 0.377041 0
M  V30 6193 O 614.379 5.40195 0.827753 0
M  V30 6194 H 611.473 0.811318 0.160285 0
M  V30 6195 H 614.019 1.64042 -0.434544 0
M  V30 6196 H 612.791 3.85395 -0.67724 0
M  V30 6197 H 612.414 3.8382 1.0377 0
M  V30 6198 N 613.412 0.11024 1.57214 0
M  V30 6199 C 614.642 -0.557025 1.98949 0
M  V30 6200 C 615.05 -1.61317 0.988606 0
M  V30 6201 O 614.393 -1.83679 -0.0279159 0
M  V30 6202 C 614.455 -1.24956 3.37085 0
M  V30 6203 C 614.119 -0.342398 4.55716 0
M  V30 6204 C 615.116 0.415511 5.18237 0
M  V30 6205 C 612.801 -0.256029 5.01647 0
M  V30 6206 C 614.795 1.24761 6.25071 0
M  V30 6207 C 612.482 0.579713 6.08344 0
M  V30 6208 C 613.48 1.33017 6.69922 0
M  V30 6209 O 613.168 2.15205 7.74559 0
M  V30 6210 H 612.9 -0.152792 0.658506 0
M  V30 6211 H 615.454 0.19076 2.04512 0
M  V30 6212 H 613.684 -2.04424 3.2825 0
M  V30 6213 H 615.373 -1.81286 3.63167 0
M  V30 6214 H 616.139 0.358605 4.83672 0
M  V30 6215 H 612.018 -0.829831 4.5347 0
M  V30 6216 H 615.562 1.83386 6.73064 0
M  V30 6217 H 611.459 0.638044 6.42339 0
M  V30 6218 H 612.227 2.08052 7.91617 0
M  V30 6219 N 614.89 -1.56749 -0.16351 0
M  V30 6220 C 616.301 -1.72039 -0.725216 0
M  V30 6221 C 616.652 -0.72202 -1.82432 0
M  V30 6222 O 615.777 0.114942 -2.16095 0
M  V30 6223 C 616.372 -3.11932 -1.32227 0
M  V30 6224 C 614.931 -3.28879 -1.83072 0
M  V30 6225 C 614.078 -2.67984 -0.712716 0
M  V30 6226 H 617.029 -1.58579 0.0619772 0
M  V30 6227 H 617.05 -3.11015 -2.19202 0
M  V30 6228 H 616.562 -3.84572 -0.522103 0
M  V30 6229 H 614.663 -2.61209 -2.65708 0
M  V30 6230 H 614.776 -4.36688 -1.97079 0
M  V30 6231 H 613.14 -2.28005 -1.13515 0
M  V30 6232 H 613.923 -3.43216 0.0757361 0
M  V30 6233 N 616.368 0.432326 -1.51554 0
M  V30 6234 C 617.3 1.54357 -1.6943 0
M  V30 6235 C 618.313 1.52311 -0.574897 0
M  V30 6236 O 619.502 1.56997 -0.849369 0
M  V30 6237 C 616.602 2.93273 -1.69836 0
M  V30 6238 C 615.775 3.19768 -2.98442 0
M  V30 6239 C 614.834 4.38433 -2.90969 0
M  V30 6240 O 613.86 4.36842 -3.64908 0
M  V30 6241 N 615.062 5.42276 -2.07163 0
M  V30 6242 H 617.827 1.39426 -2.65293 0
M  V30 6243 H 615.388 0.621331 -1.49503 0
M  V30 6244 H 617.38 3.70687 -1.62399 0
M  V30 6245 H 615.95 3.01777 -0.815456 0
M  V30 6246 H 615.17 2.30607 -3.19709 0
M  V30 6247 H 616.458 3.343 -3.83563 0
M  V30 6248 H 615.856 5.46407 -1.46477 0
M  V30 6249 H 614.413 6.18524 -2.05601 0
M  V30 6250 N 617.846 1.41785 0.688094 0
M  V30 6251 C 619.092 1.41753 1.4503 0
M  V30 6252 C 619.425 0.0290745 1.94178 0
M  V30 6253 O 618.7 -0.944456 1.7003 0
M  V30 6254 C 618.983 2.43069 2.65686 0
M  V30 6255 C 618.836 3.91053 2.22256 0
M  V30 6256 C 620.155 2.41543 3.67893 0
M  V30 6257 H 617.274 0.516202 0.526027 0
M  V30 6258 H 619.916 1.73111 0.783105 0
M  V30 6259 H 618.066 2.1646 3.2261 0
M  V30 6260 H 619.738 4.28594 1.70602 0
M  V30 6261 H 617.981 4.05559 1.53963 0
M  V30 6262 H 618.652 4.57501 3.08863 0
M  V30 6263 H 621.128 2.65175 3.20658 0
M  V30 6264 H 620.004 3.14434 4.49914 0
M  V30 6265 H 620.265 1.43666 4.18106 0
M  V30 6266 N 619.324 -0.923095 1.27737 0
M  V30 6267 C 620.549 -1.71054 1.17283 0
M  V30 6268 C 620.974 -1.86208 -0.266153 0
M  V30 6269 O 620.332 -1.36545 -1.1927 0
M  V30 6270 C 620.38 -3.0854 1.86642 0
M  V30 6271 O 619.484 -3.95528 1.16752 0
M  V30 6272 H 618.825 -0.524136 0.407649 0
M  V30 6273 H 621.355 -1.15487 1.6889 0
M  V30 6274 H 621.365 -3.58828 1.94182 0
M  V30 6275 H 620.04 -2.96828 2.91317 0
M  V30 6276 H 618.617 -3.53967 1.17312 0
M  V30 6277 N 620.802 -1.09834 -1.13024 0
M  V30 6278 C 621.734 -0.699379 -2.18269 0
M  V30 6279 C 622.747 0.260841 -1.60697 0
M  V30 6280 O 623.936 0.0462538 -1.7844 0
M  V30 6281 C 621.036 -0.0104537 -3.38898 0
M  V30 6282 C 620.209 -0.993275 -4.25973 0
M  V30 6283 C 619.268 -0.336982 -5.2512 0
M  V30 6284 O 618.294 -0.985892 -5.60597 0
M  V30 6285 N 619.496 0.90716 -5.73368 0
M  V30 6286 H 622.261 -1.60486 -2.5311 0
M  V30 6287 H 619.822 -0.986337 -1.28386 0
M  V30 6288 H 621.814 0.43991 -4.02302 0
M  V30 6289 H 620.384 0.797335 -3.0226 0
M  V30 6290 H 619.604 -1.62208 -3.5928 0
M  V30 6291 H 620.892 -1.65876 -4.81002 0
M  V30 6292 H 620.29 1.45384 -5.46699 0
M  V30 6293 H 618.847 1.30077 -6.38689 0
M  V30 6294 N 622.28 1.30327 -0.886154 0
M  V30 6295 C 623.21 2.30549 -0.370028 0
M  V30 6296 C 624.191 1.61039 0.547751 0
M  V30 6297 O 625.376 1.8864 0.461353 0
M  V30 6298 C 622.506 3.44808 0.415275 0
M  V30 6299 C 621.46 4.26024 -0.41085 0
M  V30 6300 C 620.786 5.32347 0.501128 0
M  V30 6301 C 622.086 4.95433 -1.65359 0
M  V30 6302 H 623.78 2.73969 -1.20754 0
M  V30 6303 H 621.326 1.3171 -0.582097 0
M  V30 6304 H 623.279 4.13986 0.78699 0
M  V30 6305 H 622.003 3.00197 1.28644 0
M  V30 6306 H 620.662 3.58535 -0.764719 0
M  V30 6307 H 620.31 4.83982 1.37004 0
M  V30 6308 H 620.01 5.87581 -0.0478356 0
M  V30 6309 H 621.534 6.0438 0.869333 0
M  V30 6310 H 622.948 5.5712 -1.35239 0
M  V30 6311 H 621.345 5.60537 -2.14284 0
M  V30 6312 H 622.415 4.21493 -2.39733 0
M  V30 6313 N 623.758 0.647228 1.43697 0
M  V30 6314 C 625.007 0.155552 2.01099 0
M  V30 6315 C 625.32 -1.23569 1.51624 0
M  V30 6316 O 626.526 -1.82226 2.01261 0
M  V30 6317 C 624.982 0.227296 3.59182 0
M  V30 6318 C 624.59 1.62086 4.17651 0
M  V30 6319 C 626.334 -0.207085 4.23995 0
M  V30 6320 C 624.241 1.64685 5.68008 0
M  V30 6321 H 623.171 0.0543895 0.752036 0
M  V30 6322 H 625.822 0.808386 1.64734 0
M  V30 6323 H 624.204 -0.492937 3.9292 0
M  V30 6324 H 625.378 2.36597 3.95422 0
M  V30 6325 H 623.693 2.0007 3.65186 0
M  V30 6326 H 626.29 -0.207426 5.34298 0
M  V30 6327 H 626.633 -1.23742 3.97484 0
M  V30 6328 H 627.166 0.461193 3.95118 0
M  V30 6329 H 623.905 2.65608 5.99277 0
M  V30 6330 H 623.425 0.944914 5.9231 0
M  V30 6331 H 625.104 1.38792 6.31938 0
M  V30 6332 N 625.236 -1.5273 0.388769 0
M  V30 6333 C 626.647 -1.86505 -0.0853788 0
M  V30 6334 C 626.998 -1.30847 -1.46197 0
M  V30 6335 O 626.123 -0.639609 -2.06732 0
M  V30 6336 C 626.718 -3.38414 -0.161703 0
M  V30 6337 C 625.277 -3.71902 -0.580144 0
M  V30 6338 C 624.424 -2.76095 0.258218 0
M  V30 6339 H 627.375 -1.46647 0.606665 0
M  V30 6340 H 627.396 -3.67638 -0.980936 0
M  V30 6341 H 626.908 -3.78893 0.840333 0
M  V30 6342 H 625.009 -3.36992 -1.58957 0
M  V30 6343 H 625.122 -4.77902 -0.338663 0
M  V30 6344 H 623.486 -2.53195 -0.276432 0
M  V30 6345 H 624.269 -3.19411 1.25822 0
M  V30 6346 N 626.714 -0.118576 -1.57153 0
M  V30 6347 C 628.13 0.238014 -1.57815 0
M  V30 6348 C 628.33 1.66747 -1.13127 0
M  V30 6349 O 627.386 2.38867 -0.818462 0
M  V30 6350 C 628.699 0.00508207 -3.007 0
M  V30 6351 C 630.247 0.0710139 -3.12919 0
M  V30 6352 C 630.722 -0.13422 -4.57803 0
M  V30 6353 N 632.213 -0.0801755 -4.63131 0
M  V30 6354 C 632.948 -0.213885 -5.73001 0
M  V30 6355 N 632.444 -0.403742 -6.91623 0
M  V30 6356 N 634.237 -0.15349 -5.6189 0
M  V30 6357 H 626.388 -1.05226 -1.84503 0
M  V30 6358 H 628.651 -0.414318 -0.852669 0
M  V30 6359 H 628.357 -0.983125 -3.3768 0
M  V30 6360 H 628.231 0.73714 -3.69927 0
M  V30 6361 H 630.618 1.04975 -2.75798 0
M  V30 6362 H 630.699 -0.692918 -2.46236 0
M  V30 6363 H 630.343 -1.10992 -4.95624 0
M  V30 6364 H 630.273 0.649692 -5.22577 0
M  V30 6365 H 632.764 0.0630689 -3.77847 0
M  V30 6366 H 633.077 -0.496645 -7.71202 0
M  V30 6367 H 631.422 -0.43971 -6.93608 0
M  V30 6368 H 634.613 -0.00613174 -4.681 0
M  V30 6369 H 634.786 -0.261138 -6.47474 0
M  V30 6370 N 628.193 1.56834 0.155195 0
M  V30 6371 C 629.123 2.00678 1.19376 0
M  V30 6372 C 630.104 0.884973 1.45266 0
M  V30 6373 O 631.289 1.1522 1.56326 0
M  V30 6374 C 628.419 2.38042 2.5289 0
M  V30 6375 C 627.373 3.53332 2.41538 0
M  V30 6376 C 626.699 3.76485 3.79688 0
M  V30 6377 C 627.999 4.86265 1.9064 0
M  V30 6378 H 629.693 2.87688 0.829232 0
M  V30 6379 H 627.239 1.38407 0.397445 0
M  V30 6380 H 629.192 2.67314 3.25763 0
M  V30 6381 H 627.916 1.4796 2.91162 0
M  V30 6382 H 626.575 3.24213 1.71117 0
M  V30 6383 H 626.223 2.83667 4.15382 0
M  V30 6384 H 625.923 4.54068 3.72956 0
M  V30 6385 H 627.447 4.08174 4.54122 0
M  V30 6386 H 628.861 5.14308 2.53299 0
M  V30 6387 H 627.258 5.67597 1.94818 0
M  V30 6388 H 628.328 4.77184 0.861596 0
M  V30 6389 N 629.671 -0.424282 1.51781 0
M  V30 6390 C 630.581 -1.54087 1.76902 0
M  V30 6391 C 631.597 -1.61249 0.653826 0
M  V30 6392 O 632.773 -1.78247 0.937552 0
M  V30 6393 C 629.838 -2.8996 1.90063 0
M  V30 6394 C 628.899 -2.92809 3.13945 0
M  V30 6395 C 628.132 -4.22201 3.26469 0
M  V30 6396 O 628.355 -5.15286 2.44616 0
M  V30 6397 O 627.289 -4.31599 4.1953 0
M  V30 6398 H 631.115 -1.358 2.71647 0
M  V30 6399 H 628.7 -0.608618 1.36441 0
M  V30 6400 H 630.582 -3.70575 2.0063 0
M  V30 6401 H 629.257 -3.08347 0.985067 0
M  V30 6402 H 628.164 -2.11102 3.08847 0
M  V30 6403 H 629.497 -2.79369 4.05233 0
M  V30 6404 N 631.149 -1.42148 -0.680565 0
M  V30 6405 C 632.059 -1.47565 -1.82378 0
M  V30 6406 C 633.075 -0.36489 -1.70131 0
M  V30 6407 O 634.251 -0.614916 -1.91783 0
M  V30 6408 C 631.316 -1.37013 -3.18478 0
M  V30 6409 C 630.377 -2.58532 -3.42724 0
M  V30 6410 C 629.61 -2.48473 -4.72331 0
M  V30 6411 O 629.833 -1.51745 -5.49845 0
M  V30 6412 O 628.767 -3.38503 -4.97694 0
M  V30 6413 H 632.593 -2.44045 -1.80764 0
M  V30 6414 H 630.178 -1.23849 -0.835569 0
M  V30 6415 H 632.06 -1.33468 -3.99705 0
M  V30 6416 H 630.735 -0.436552 -3.20743 0
M  V30 6417 H 629.642 -2.67652 -2.61368 0
M  V30 6418 H 630.975 -3.50769 -3.45286 0
M  V30 6419 N 632.627 0.916307 -1.28225 0
M  V30 6420 C 633.876 1.65975 -1.14608 0
M  V30 6421 C 634.189 1.93204 0.305191 0
M  V30 6422 O 635.395 2.65611 0.562432 0
M  V30 6423 C 633.851 2.98989 -2.00333 0
M  V30 6424 C 633.459 2.79417 -3.50186 0
M  V30 6425 C 635.203 3.76856 -1.95397 0
M  V30 6426 C 633.11 4.08056 -4.28071 0
M  V30 6427 H 632.04 0.622587 -0.425324 0
M  V30 6428 H 634.691 1.01705 -1.52736 0
M  V30 6429 H 633.073 3.6438 -1.5506 0
M  V30 6430 H 634.247 2.22723 -4.034 0
M  V30 6431 H 632.562 2.14966 -3.56621 0
M  V30 6432 H 635.159 4.72203 -2.50856 0
M  V30 6433 H 635.502 4.05776 -0.930137 0
M  V30 6434 H 636.035 3.1828 -2.38626 0
M  V30 6435 H 632.774 3.8431 -5.31024 0
M  V30 6436 H 632.294 4.64371 -3.79631 0
M  V30 6437 H 633.973 4.76333 -4.37854 0
M  V30 6438 N 634.105 1.10431 1.1244 0
M  V30 6439 C 635.068 0.756542 2.16354 0
M  V30 6440 C 636.068 -0.21899 1.59302 0
M  V30 6441 O 637.258 0.00415969 1.742 0
M  V30 6442 C 634.39 0.120612 3.40687 0
M  V30 6443 H 635.583 1.67696 2.48632 0
M  V30 6444 H 633.136 0.904832 1.27446 0
M  V30 6445 H 633.871 -0.810536 3.14008 0
M  V30 6446 H 633.656 0.822693 3.83372 0
M  V30 6447 H 635.146 -0.106945 4.17463 0
M  V30 6448 N 635.583 -1.29855 0.893053 0
M  V30 6449 C 636.831 -1.9544 0.514566 0
M  V30 6450 C 637.152 -1.70795 -0.940959 0
M  V30 6451 O 636.422 -1.03601 -1.66264 0
M  V30 6452 H 635.002 -0.723137 0.187302 0
M  V30 6453 H 637.664 -1.58234 1.13789 0
M  V30 6454 H 636.76 -3.04341 0.691581 0
M  V30 6455 N 637.061 -0.65484 -1.43351 0
M  V30 6456 C 638.477 -0.32255 -1.56307 0
M  V30 6457 C 638.677 1.17324 -1.63821 0
M  V30 6458 O 637.733 1.95813 -1.59417 0
M  V30 6459 C 639.046 -1.03533 -2.82314 0
M  V30 6460 C 640.594 -1.01574 -2.9606 0
M  V30 6461 C 641.069 -1.70945 -4.24902 0
M  V30 6462 N 642.56 -1.67716 -4.3177 0
M  V30 6463 C 643.295 -2.18265 -5.30234 0
M  V30 6464 N 642.791 -2.7711 -6.34966 0
M  V30 6465 N 644.584 -2.08756 -5.21898 0
M  V30 6466 H 636.735 -1.62549 -1.36717 0
M  V30 6467 H 638.998 -0.683676 -0.656727 0
M  V30 6468 H 638.704 -2.09045 -2.8283 0
M  V30 6469 H 638.578 -0.587913 -3.7259 0
M  V30 6470 H 640.965 0.0309834 -2.95084 0
M  V30 6471 H 641.046 -1.50186 -2.07069 0
M  V30 6472 H 640.69 -2.75574 -4.26639 0
M  V30 6473 H 640.62 -1.19797 -5.12793 0
M  V30 6474 H 643.111 -1.24777 -3.56706 0
M  V30 6475 H 643.424 -3.13353 -7.06421 0
M  V30 6476 H 641.769 -2.81171 -6.35585 0
M  V30 6477 H 644.96 -1.62488 -4.38994 0
M  V30 6478 H 645.133 -2.48459 -5.98475 0
M  V30 6479 N 638.539 1.52521 -0.396863 0
M  V30 6480 C 639.469 2.29582 0.425941 0
M  V30 6481 C 640.45 1.33281 1.05689 0
M  V30 6482 O 641.635 1.62181 1.06823 0
M  V30 6483 C 638.765 3.10821 1.54943 0
M  V30 6484 C 637.719 4.15069 1.04413 0
M  V30 6485 C 637.045 4.84578 2.26028 0
M  V30 6486 C 638.345 5.22191 0.106767 0
M  V30 6487 H 640.039 2.98612 -0.217045 0
M  V30 6488 H 637.585 1.43611 -0.105826 0
M  V30 6489 H 639.538 3.63492 2.13193 0
M  V30 6490 H 638.262 2.39538 2.22011 0
M  V30 6491 H 636.921 3.63389 0.484118 0
M  V30 6492 H 636.569 4.09835 2.91623 0
M  V30 6493 H 636.269 5.55043 1.92876 0
M  V30 6494 H 637.793 5.40056 2.84906 0
M  V30 6495 H 639.207 5.70176 0.597685 0
M  V30 6496 H 637.604 5.99947 -0.135352 0
M  V30 6497 H 638.674 4.77531 -0.842134 0
M  V30 6498 N 640.017 0.126909 1.57088 0
M  V30 6499 C 641.263 -0.529952 1.95753 0
M  V30 6500 C 641.596 -1.65823 1.01077 0
M  V30 6501 O 640.871 -1.94437 0.0494162 0
M  V30 6502 C 641.154 -1.05517 3.44294 0
M  V30 6503 C 641.007 0.0702253 4.49745 0
M  V30 6504 C 642.326 -1.9435 3.94862 0
M  V30 6505 H 639.445 -0.191168 0.711775 0
M  V30 6506 H 642.087 0.204071 1.88901 0
M  V30 6507 H 640.237 -1.68069 3.50264 0
M  V30 6508 H 641.909 0.705834 4.55868 0
M  V30 6509 H 640.152 0.732259 4.27575 0
M  V30 6510 H 640.823 -0.338642 5.5096 0
M  V30 6511 H 643.299 -1.41658 3.91244 0
M  V30 6512 H 642.175 -2.28015 4.993 0
M  V30 6513 H 642.436 -2.87299 3.36024 0
M  V30 6514 N 641.495 -1.56914 -0.146875 0
M  V30 6515 C 642.742 -1.83356 -0.859467 0
M  V30 6516 C 643.07 -0.707811 -1.81164 0
M  V30 6517 O 642.325 0.303155 -1.93338 0
M  V30 6518 C 642.624 -3.16128 -1.66727 0
M  V30 6519 C 642.29 -4.42586 -0.861881 0
M  V30 6520 C 640.952 -4.76929 -0.639687 0
M  V30 6521 C 643.304 -5.20344 -0.298643 0
M  V30 6522 C 640.632 -5.86491 0.156451 0
M  V30 6523 C 642.984 -6.30742 0.484536 0
M  V30 6524 C 641.648 -6.63635 0.717306 0
M  V30 6525 H 640.918 -0.670947 -0.314501 0
M  V30 6526 H 643.565 -1.91104 -0.123108 0
M  V30 6527 H 641.87 -3.03831 -2.47374 0
M  V30 6528 H 643.567 -3.33802 -2.2221 0
M  V30 6529 H 640.157 -4.15662 -1.04513 0
M  V30 6530 H 644.341 -4.94186 -0.457585 0
M  V30 6531 H 639.597 -6.10419 0.346292 0
M  V30 6532 H 643.771 -6.90188 0.928105 0
M  V30 6533 H 641.398 -7.48367 1.33607 0
M  V30 6534 N 642.974 0.416227 -1.52004 0
M  V30 6535 C 643.922 1.5272 -1.7544 0
M  V30 6536 C 644.916 1.57596 -0.621289 0
M  V30 6537 O 646.122 1.61087 -0.803172 0
M  V30 6538 H 642.497 0.507772 -0.554682 0
M  V30 6539 H 644.468 1.30136 -2.68528 0
M  V30 6540 C 643.217 2.90165 -1.91571 0
M  V30 6541 H 642.54 2.87154 -2.78178 0
M  V30 6542 H 643.98 3.67211 -2.11972 0
M  V30 6543 C 642.439 3.29947 -0.680942 0
M  V30 6544 O 642.969 4.01403 0.154527 0
M  V30 6545 N 641.175 2.8593 -0.518894 0
M  V30 6546 H 640.722 2.2795 -1.19986 0
M  V30 6547 H 640.68 3.12907 0.305985 0
M  V30 6548 N 644.452 1.42507 0.673017 0
M  V30 6549 C 645.7 1.42789 1.43023 0
M  V30 6550 C 646.021 0.0459738 1.94946 0
M  V30 6551 O 645.291 -0.915765 1.73178 0
M  V30 6552 H 643.871 0.525657 0.530748 0
M  V30 6553 H 646.533 1.77944 0.795113 0
M  V30 6554 H 645.629 2.12872 2.28237 0
M  V30 6555 N 645.93 -0.909495 1.28709 0
M  V30 6556 C 647.176 -1.66175 1.17293 0
M  V30 6557 C 647.531 -1.90426 -0.274891 0
M  V30 6558 O 646.824 -1.49659 -1.19635 0
M  V30 6559 C 647.018 -3.02117 1.90945 0
M  V30 6560 C 646.847 -2.91134 3.42741 0
M  V30 6561 C 645.617 -2.92429 4.12085 0
M  V30 6562 C 647.815 -2.68889 4.3841 0
M  V30 6563 N 645.797 -2.72078 5.50315 0
M  V30 6564 C 647.168 -2.57423 5.64033 0
M  V30 6565 C 649.223 -2.53919 4.28287 0
M  V30 6566 C 647.926 -2.32513 6.80683 0
M  V30 6567 C 649.952 -2.3039 5.44678 0
M  V30 6568 C 649.314 -2.19682 6.69268 0
M  V30 6569 H 645.413 -0.614095 0.48416 0
M  V30 6570 H 647.997 -1.07377 1.62414 0
M  V30 6571 H 646.168 -3.58993 1.48252 0
M  V30 6572 H 647.9 -3.66388 1.71878 0
M  V30 6573 H 644.655 -3.03345 3.63701 0
M  V30 6574 H 645.079 -2.64983 6.22987 0
M  V30 6575 H 649.721 -2.60946 3.32666 0
M  V30 6576 H 647.439 -2.24225 7.76369 0
M  V30 6577 H 651.025 -2.19665 5.38738 0
M  V30 6578 H 649.905 -2.01725 7.5781 0
M  V30 6579 N 647.408 -1.11026 -1.11852 0
M  V30 6580 C 648.819 -0.873203 -1.65021 0
M  V30 6581 C 649.17 0.595364 -1.86949 0
M  V30 6582 O 648.295 1.45645 -1.60051 0
M  V30 6583 C 648.89 -1.57859 -2.99777 0
M  V30 6584 C 647.449 -1.38807 -3.49871 0
M  V30 6585 C 646.596 -1.62403 -2.24768 0
M  V30 6586 H 649.547 -1.26712 -0.955503 0
M  V30 6587 H 649.568 -1.02111 -3.66543 0
M  V30 6588 H 649.08 -2.6474 -2.83786 0
M  V30 6589 H 647.181 -0.341163 -3.71035 0
M  V30 6590 H 647.294 -2.13421 -4.28938 0
M  V30 6591 H 645.658 -1.04714 -2.32179 0
M  V30 6592 H 646.441 -2.70549 -2.11324 0
M  V30 6593 N 648.886 1.2938 -0.899927 0
M  V30 6594 C 650.114 1.99691 -0.541386 0
M  V30 6595 C 650.529 1.67355 0.873936 0
M  V30 6596 O 649.886 0.918728 1.57688 0
M  V30 6597 C 649.937 3.54168 -0.72438 0
M  V30 6598 O 649.658 3.85359 -2.08399 0
M  V30 6599 C 651.159 4.41746 -0.370819 0
M  V30 6600 H 648.379 0.638037 -0.207726 0
M  V30 6601 H 650.923 1.6491 -1.20934 0
M  V30 6602 H 649.078 3.87261 -0.103607 0
M  V30 6603 H 649.492 4.80032 -2.11352 0
M  V30 6604 H 650.966 5.49256 -0.549693 0
M  V30 6605 H 651.443 4.33712 0.692148 0
M  V30 6606 H 652.049 4.14125 -0.968543 0
M  V30 6607 N 650.364 0.662433 1.43002 0
M  V30 6608 C 651.612 0.179237 2.01304 0
M  V30 6609 C 651.933 -1.21428 1.52579 0
M  V30 6610 O 651.203 -1.81294 0.742252 0
M  V30 6611 H 649.783 0.0632725 0.744316 0
M  V30 6612 H 652.445 0.856169 1.75088 0
M  V30 6613 H 651.541 0.170957 3.11631 0
M  V30 6614 N 651.842 -1.52309 0.404946 0
M  V30 6615 C 653.088 -2.02065 -0.172455 0
M  V30 6616 C 653.421 -1.29022 -1.45145 0
M  V30 6617 O 652.696 -0.395284 -1.90441 0
M  V30 6618 C 652.979 -3.5759 -0.424433 0
M  V30 6619 C 652.832 -4.41287 0.870945 0
M  V30 6620 C 654.151 -4.23186 -1.20837 0
M  V30 6621 H 651.27 -0.734454 -0.0612035 0
M  V30 6622 H 653.912 -1.82236 0.53759 0
M  V30 6623 H 652.062 -3.74617 -1.02929 0
M  V30 6624 H 653.734 -4.3598 1.50729 0
M  V30 6625 H 651.977 -4.07669 1.48284 0
M  V30 6626 H 652.648 -5.48171 0.649083 0
M  V30 6627 H 655.124 -4.10232 -0.696338 0
M  V30 6628 H 654 -5.31953 -1.35343 0
M  V30 6629 H 654.261 -3.81862 -2.22786 0
M  V30 6630 N 653.32 -0.135238 -1.57019 0
M  V30 6631 C 654.23 0.822226 -2.19719 0
M  V30 6632 C 655.246 1.28057 -1.17802 0
M  V30 6633 O 656.422 1.3402 -1.50335 0
M  V30 6634 C 653.487 2.0484 -2.79717 0
M  V30 6635 C 652.548 1.64042 -3.96723 0
M  V30 6636 C 651.781 2.80814 -4.53849 0
M  V30 6637 O 652.004 3.967 -4.0986 0
M  V30 6638 O 650.938 2.56963 -5.44292 0
M  V30 6639 H 654.764 0.318552 -3.02025 0
M  V30 6640 H 652.349 0.0912021 -1.49121 0
M  V30 6641 H 654.231 2.76622 -3.17897 0
M  V30 6642 H 652.906 2.54182 -2.00432 0
M  V30 6643 H 651.813 0.893182 -3.63281 0
M  V30 6644 H 653.146 1.19426 -4.77492 0
M  V30 6645 N 654.798 1.5699 0.138552 0
M  V30 6646 C 656.044 1.84081 0.85099 0
M  V30 6647 C 656.377 0.718107 1.80435 0
M  V30 6648 O 655.652 -0.277633 1.92508 0
M  V30 6649 C 655.935 3.21699 1.61808 0
M  V30 6650 C 655.788 4.44544 0.685633 0
M  V30 6651 C 657.107 3.5664 2.57868 0
M  V30 6652 H 654.226 0.669592 0.307922 0
M  V30 6653 H 656.868 1.89646 0.11588 0
M  V30 6654 H 655.018 3.17086 2.24474 0
M  V30 6655 H 656.69 4.61248 0.0693179 0
M  V30 6656 H 654.933 4.338 -0.00421993 0
M  V30 6657 H 655.604 5.3746 1.25858 0
M  V30 6658 H 658.08 3.61918 2.05316 0
M  V30 6659 H 656.956 4.53946 3.08584 0
M  V30 6660 H 657.217 2.83036 3.39622 0
M  V30 6661 N 656.276 -0.40816 1.52223 0
M  V30 6662 C 657.524 -1.15274 1.66001 0
M  V30 6663 C 657.845 -1.91003 0.392803 0
M  V30 6664 O 657.115 -1.8673 -0.592336 0
M  V30 6665 H 655.695 -0.428526 0.611861 0
M  V30 6666 H 658.357 -0.46512 1.89269 0
M  V30 6667 H 657.453 -1.86628 2.50153 0
M  V30 6668 N 657.755 -1.42862 -0.66545 0
M  V30 6669 C 658.985 -1.47032 -1.45138 0
M  V30 6670 C 659.393 -0.0829977 -1.89018 0
M  V30 6671 O 658.736 0.914551 -1.59316 0
M  V30 6672 C 658.798 -2.34302 -2.72659 0
M  V30 6673 C 658.462 -3.82034 -2.50796 0
M  V30 6674 C 659.459 -4.73453 -2.14799 0
M  V30 6675 C 657.144 -4.26397 -2.655 0
M  V30 6676 C 659.138 -6.07228 -1.93785 0
M  V30 6677 C 656.825 -5.6023 -2.44103 0
M  V30 6678 C 657.823 -6.50462 -2.08299 0
M  V30 6679 O 657.511 -7.8182 -1.87116 0
M  V30 6680 H 657.243 -0.501969 -0.452772 0
M  V30 6681 H 659.797 -1.88137 -0.82423 0
M  V30 6682 H 658.027 -1.88063 -3.37889 0
M  V30 6683 H 659.716 -2.29818 -3.34572 0
M  V30 6684 H 660.482 -4.4046 -2.03026 0
M  V30 6685 H 656.361 -3.56448 -2.92345 0
M  V30 6686 H 659.905 -6.7762 -1.65763 0
M  V30 6687 H 655.802 -5.92793 -2.55475 0
M  V30 6688 H 656.57 -7.93274 -2.01639 0
M  V30 6689 N 659.233 0.902656 -1.29189 0
M  V30 6690 C 660.196 1.98797 -1.14071 0
M  V30 6691 C 661.196 1.60615 -0.0770549 0
M  V30 6692 O 662.386 1.71165 -0.323753 0
M  V30 6693 C 659.518 3.32688 -0.743739 0
M  V30 6694 H 660.711 2.13637 -2.10473 0
M  V30 6695 H 658.264 1.08678 -1.12334 0
M  V30 6696 H 658.999 3.23549 0.220554 0
M  V30 6697 H 658.784 3.61765 -1.51223 0
M  V30 6698 H 660.274 4.12337 -0.660935 0
M  V30 6699 N 660.711 1.11618 1.11262 0
M  V30 6700 C 661.644 0.719995 2.16544 0
M  V30 6701 C 662.622 -0.28471 1.60088 0
M  V30 6702 O 663.806 -0.180693 1.87632 0
M  V30 6703 C 660.933 0.0643302 3.38639 0
M  V30 6704 C 659.979 1.03448 4.13764 0
M  V30 6705 S 660.812 2.55789 4.70459 0
M  V30 6706 C 661.968 1.91529 5.95875 0
M  V30 6707 H 662.201 1.61181 2.49816 0
M  V30 6708 H 659.734 0.934401 1.22916 0
M  V30 6709 H 661.692 -0.307609 4.09346 0
M  V30 6710 H 660.353 -0.804471 3.03623 0
M  V30 6711 H 659.546 0.523188 5.01277 0
M  V30 6712 H 659.148 1.34893 3.48826 0
M  V30 6713 H 661.44 1.25286 6.65815 0
M  V30 6714 H 662.383 2.77047 6.51652 0
M  V30 6715 H 662.791 1.37468 5.47506 0
M  V30 6716 N 662.189 -1.289 0.906776 0
M  V30 6717 C 663.435 -1.95558 0.53712 0
M  V30 6718 C 663.768 -1.71262 -0.915582 0
M  V30 6719 O 663.043 -1.02961 -1.65013 0
M  V30 6720 C 663.326 -3.50198 0.838645 0
M  V30 6721 C 663.179 -3.83923 2.34357 0
M  V30 6722 C 664.498 -4.38861 0.329988 0
M  V30 6723 H 661.617 -0.710289 0.196617 0
M  V30 6724 H 664.259 -1.52392 1.13475 0
M  V30 6725 H 662.409 -3.87096 0.330024 0
M  V30 6726 H 664.081 -3.56933 2.92227 0
M  V30 6727 H 662.324 -3.31215 2.80141 0
M  V30 6728 H 662.995 -4.91883 2.5051 0
M  V30 6729 H 665.471 -4.08996 0.765609 0
M  V30 6730 H 664.347 -5.45931 0.570105 0
M  V30 6731 H 664.608 -4.35352 -0.769511 0
M  V30 6732 N 663.667 -0.670007 -1.42649 0
M  V30 6733 C 664.617 0.0339546 -2.27975 0
M  V30 6734 C 665.601 0.778295 -1.40824 0
M  V30 6735 O 666.793 0.657997 -1.64315 0
M  V30 6736 C 663.922 0.987899 -3.28779 0
M  V30 6737 C 663.008 0.241153 -4.23414 0
M  V30 6738 N 663.399 -0.751392 -5.00188 0
M  V30 6739 C 661.697 0.480269 -4.43407 0
M  V30 6740 C 662.398 -1.19615 -5.69269 0
M  V30 6741 N 661.374 -0.527045 -5.41039 0
M  V30 6742 H 665.176 -0.727425 -2.84756 0
M  V30 6743 H 662.69 -0.498673 -1.54554 0
M  V30 6744 H 664.687 1.50716 -3.88703 0
M  V30 6745 H 663.347 1.74916 -2.73559 0
M  V30 6746 H 664.358 -1.13075 -5.05405 0
M  V30 6747 H 661.035 1.2214 -3.99234 0
M  V30 6748 H 662.425 -2.01836 -6.40868 0
M  V30 6749 N 665.145 1.52092 -0.413018 0
M  V30 6750 C 666.393 2.01456 0.161178 0
M  V30 6751 C 666.714 1.30034 1.45314 0
M  V30 6752 O 665.984 0.427435 1.9118 0
M  V30 6753 H 664.564 0.744376 0.0625526 0
M  V30 6754 H 667.226 1.86974 -0.550151 0
M  V30 6755 H 666.322 3.1008 0.354517 0
M  V30 6756 N 666.623 0.143563 1.56945 0
M  V30 6757 C 667.871 -0.507402 1.95627 0
M  V30 6758 C 668.192 -1.65626 1.02922 0
M  V30 6759 O 667.462 -1.95693 0.0901136 0
M  V30 6760 H 666.042 -0.190436 0.722318 0
M  V30 6761 H 668.704 0.218257 1.93674 0
M  V30 6762 H 667.8 -0.885816 2.99265 0
M  V30 6763 N 668.101 -1.57061 -0.130224 0
M  V30 6764 C 669.512 -1.73539 -0.68856 0
M  V30 6765 C 669.863 -0.760554 -1.80859 0
M  V30 6766 O 668.988 0.0690796 -2.1629 0
M  V30 6767 C 669.583 -3.14666 -1.25581 0
M  V30 6768 C 668.142 -3.32689 -1.76055 0
M  V30 6769 C 667.289 -2.69436 -0.655712 0
M  V30 6770 H 670.24 -1.58412 0.0956002 0
M  V30 6771 H 670.261 -3.15595 -2.12556 0
M  V30 6772 H 669.773 -3.85593 -0.440412 0
M  V30 6773 H 667.874 -2.66786 -2.60108 0
M  V30 6774 H 667.987 -4.4077 -1.87772 0
M  V30 6775 H 666.351 -2.30362 -1.08654 0
M  V30 6776 H 667.134 -3.42979 0.14852 0
M  V30 6777 N 669.579 0.400081 -1.52437 0
M  V30 6778 C 670.809 1.16598 -1.70553 0
M  V30 6779 C 671.217 1.8451 -0.418665 0
M  V30 6780 O 670.56 1.73069 0.615855 0
M  V30 6781 C 670.622 2.26517 -2.7916 0
M  V30 6782 C 670.286 1.78666 -4.20628 0
M  V30 6783 C 671.283 1.26946 -5.04163 0
M  V30 6784 C 668.968 1.85225 -4.66902 0
M  V30 6785 C 670.962 0.824187 -6.32049 0
M  V30 6786 C 668.649 1.40309 -5.94774 0
M  V30 6787 C 669.647 0.889922 -6.77178 0
M  V30 6788 O 669.335 0.447281 -8.02655 0
M  V30 6789 H 669.067 0.356023 -0.574651 0
M  V30 6790 H 671.621 0.475598 -1.99818 0
M  V30 6791 H 669.851 2.98946 -2.45292 0
M  V30 6792 H 671.54 2.88237 -2.85787 0
M  V30 6793 H 672.306 1.21244 -4.69601 0
M  V30 6794 H 668.185 2.24111 -4.02859 0
M  V30 6795 H 671.729 0.422958 -6.96317 0
M  V30 6796 H 667.626 1.45693 -6.28843 0
M  V30 6797 H 668.394 0.569768 -8.16514 0
M  V30 6798 N 671.057 1.43213 0.657864 0
M  V30 6799 C 672.468 1.39669 1.23893 0
M  V30 6800 C 672.819 0.0984217 1.95953 0
M  V30 6801 O 671.944 -0.8023 2.00978 0
M  V30 6802 C 672.539 2.53004 2.25332 0
M  V30 6803 C 671.098 2.5274 2.78926 0
M  V30 6804 C 670.245 2.30941 1.53497 0
M  V30 6805 H 673.196 1.52181 0.450172 0
M  V30 6806 H 673.217 2.24226 3.07413 0
M  V30 6807 H 672.729 3.4748 1.72856 0
M  V30 6808 H 670.83 1.6213 3.35477 0
M  V30 6809 H 670.943 3.50352 3.26787 0
M  V30 6810 H 669.307 1.7952 1.80678 0
M  V30 6811 H 670.09 3.27496 1.02963 0
M  V30 6812 N 672.536 -0.895792 1.29666 0
M  V30 6813 C 673.499 -1.98189 1.15124 0
M  V30 6814 C 674.499 -1.60572 0.0855717 0
M  V30 6815 O 675.689 -1.70991 0.332826 0
M  V30 6816 C 672.821 -3.32289 0.761372 0
M  V30 6817 H 674.014 -2.12518 2.11603 0
M  V30 6818 H 671.567 -1.0808 1.12908 0
M  V30 6819 H 672.302 -3.23662 -0.203393 0
M  V30 6820 H 672.087 -3.60958 1.53139 0
M  V30 6821 H 673.577 -4.1198 0.682792 0
M  V30 6822 N 674.014 -1.12206 -1.10668 0
M  V30 6823 C 675.239 -0.898938 -1.86906 0
M  V30 6824 C 675.664 0.546346 -1.79991 0
M  V30 6825 O 675.022 1.38655 -1.1681 0
M  V30 6826 C 675.07 -1.37529 -3.33344 0
M  V30 6827 O 674.174 -0.55218 -4.08687 0
M  V30 6828 H 673.515 -0.323163 -0.580053 0
M  V30 6829 H 676.045 -1.49355 -1.39837 0
M  V30 6830 H 676.055 -1.3733 -3.84193 0
M  V30 6831 H 674.73 -2.42767 -3.37693 0
M  V30 6832 H 673.307 -0.620947 -3.67694 0
M  V30 6833 N 675.492 1.28418 -0.913599 0
M  V30 6834 C 676.72 1.99106 -0.562536 0
M  V30 6835 C 677.135 1.68273 0.856137 0
M  V30 6836 O 676.492 0.935401 1.56705 0
M  V30 6837 C 676.543 3.5338 -0.761903 0
M  V30 6838 O 676.264 3.83127 -2.12475 0
M  V30 6839 C 677.765 4.41328 -0.417651 0
M  V30 6840 H 674.985 0.635798 -0.214481 0
M  V30 6841 H 677.529 1.63618 -1.22676 0
M  V30 6842 H 675.684 3.8713 -0.144676 0
M  V30 6843 H 676.098 4.77763 -2.16431 0
M  V30 6844 H 677.572 5.48642 -0.607919 0
M  V30 6845 H 678.049 4.34422 0.646108 0
M  V30 6846 H 678.655 4.13074 -1.01241 0
M  V30 6847 N 676.97 0.677563 1.42291 0
M  V30 6848 C 677.92 -0.0218641 2.2799 0
M  V30 6849 C 678.904 -0.770816 1.41235 0
M  V30 6850 O 680.096 -0.649273 1.64662 0
M  V30 6851 C 677.225 -0.970449 3.29298 0
M  V30 6852 C 676.311 -0.218695 4.23536 0
M  V30 6853 N 676.702 0.777908 4.99782 0
M  V30 6854 C 675 -0.456748 4.43655 0
M  V30 6855 C 675.701 1.22632 5.68627 0
M  V30 6856 N 674.677 0.55573 5.40752 0
M  V30 6857 H 678.479 0.742516 2.84366 0
M  V30 6858 H 675.993 0.506862 1.54288 0
M  V30 6859 H 677.99 -1.48652 3.89497 0
M  V30 6860 H 676.65 -1.73463 2.74483 0
M  V30 6861 H 677.661 1.15754 5.04798 0
M  V30 6862 H 674.338 -1.20021 3.99877 0
M  V30 6863 H 675.728 2.05231 6.39789 0
M  V30 6864 N 678.448 -1.51871 0.421078 0
M  V30 6865 C 679.673 -2.0684 -0.152371 0
M  V30 6866 C 680.098 -1.28802 -1.37083 0
M  V30 6867 O 679.456 -0.321482 -1.78427 0
M  V30 6868 C 679.504 -3.57532 -0.469368 0
M  V30 6869 O 678.608 -3.81818 -1.55848 0
M  V30 6870 H 677.949 -0.663939 -0.00898586 0
M  V30 6871 H 680.479 -1.95674 0.597724 0
M  V30 6872 H 680.489 -4.01515 -0.724553 0
M  V30 6873 H 679.164 -4.13761 0.421276 0
M  V30 6874 H 677.741 -3.49709 -1.29453 0
M  V30 6875 N 679.926 -0.151884 -1.56866 0
M  V30 6876 C 680.889 0.771861 -2.15812 0
M  V30 6877 C 681.889 1.17181 -1.10115 0
M  V30 6878 O 683.079 1.09194 -1.35729 0
M  V30 6879 C 680.211 2.04806 -2.7252 0
M  V30 6880 H 681.404 0.259021 -2.98779 0
M  V30 6881 H 678.957 0.097588 -1.55995 0
M  V30 6882 H 679.692 2.60445 -1.93233 0
M  V30 6883 H 679.477 1.77044 -3.49854 0
M  V30 6884 H 680.967 2.70771 -3.1792 0
M  V30 6885 N 681.404 1.57128 0.121893 0
M  V30 6886 C 682.629 1.89254 0.848385 0
M  V30 6887 C 683.054 0.743527 1.72781 0
M  V30 6888 O 682.412 -0.306056 1.78698 0
M  V30 6889 C 682.46 3.20113 1.66012 0
M  V30 6890 O 681.564 3.05815 2.76679 0
M  V30 6891 H 680.905 0.621103 0.234793 0
M  V30 6892 H 683.435 2.0433 0.10516 0
M  V30 6893 H 683.445 3.52761 2.04996 0
M  V30 6894 H 682.12 4.03336 1.01452 0
M  V30 6895 H 680.697 2.84627 2.40918 0
M  V30 6896 N 682.882 -0.391992 1.52647 0
M  V30 6897 C 684.11 -1.1586 1.71418 0
M  V30 6898 C 684.525 -1.8381 0.431216 0
M  V30 6899 O 683.882 -1.7256 -0.594085 0
M  V30 6900 C 683.933 -2.20888 2.86165 0
M  V30 6901 O 683.654 -1.5571 4.09495 0
M  V30 6902 C 685.155 -3.103 3.1659 0
M  V30 6903 H 682.375 -0.347494 0.574011 0
M  V30 6904 H 684.919 -0.458972 1.99283 0
M  V30 6905 H 683.074 -2.86492 2.6077 0
M  V30 6906 H 683.488 -2.25474 4.73563 0
M  V30 6907 H 684.962 -3.8003 4.00351 0
M  V30 6908 H 685.439 -3.73639 2.30848 0
M  V30 6909 H 686.045 -2.50345 3.43813 0
M  V30 6910 N 684.36 -1.4356 -0.65026 0
M  V30 6911 C 685.585 -1.48995 -1.44275 0
M  V30 6912 C 686.01 -0.109954 -1.87778 0
M  V30 6913 O 685.368 0.896926 -1.57559 0
M  V30 6914 C 685.416 -2.44341 -2.65198 0
M  V30 6915 O 684.52 -1.93172 -3.6436 0
M  V30 6916 H 683.861 -0.503852 -0.432469 0
M  V30 6917 H 686.391 -1.88504 -0.795446 0
M  V30 6918 H 686.401 -2.61743 -3.12977 0
M  V30 6919 H 685.076 -3.44588 -2.32877 0
M  V30 6920 H 683.653 -1.85445 -3.23519 0
M  V30 6921 N 685.838 0.888903 -1.30139 0
M  V30 6922 C 687.084 1.6428 -1.18912 0
M  V30 6923 C 687.417 1.92499 0.256477 0
M  V30 6924 O 686.692 1.54312 1.18397 0
M  V30 6925 C 686.975 2.9851 -2.01405 0
M  V30 6926 C 686.828 2.77288 -3.54163 0
M  V30 6927 C 688.147 3.99383 -1.84882 0
M  V30 6928 H 685.266 0.596148 -0.433333 0
M  V30 6929 H 687.908 1.0289 -1.5973 0
M  V30 6930 H 686.058 3.50907 -1.66722 0
M  V30 6931 H 687.73 2.31709 -3.98884 0
M  V30 6932 H 685.973 2.11867 -3.78543 0
M  V30 6933 H 686.644 3.72717 -4.07168 0
M  V30 6934 H 689.12 3.56132 -2.15196 0
M  V30 6935 H 687.996 4.91222 -2.44934 0
M  V30 6936 H 688.257 4.34674 -0.806902 0
M  V30 6937 N 687.317 1.12792 1.10072 0
M  V30 6938 C 688.565 0.883796 1.81751 0
M  V30 6939 C 688.886 -0.591891 1.858 0
M  V30 6940 O 688.156 -1.43017 1.33876 0
M  V30 6941 H 686.736 0.323978 0.673088 0
M  V30 6942 H 689.398 1.42314 1.33164 0
M  V30 6943 H 688.494 1.26863 2.85153 0
M  V30 6944 N 688.795 -1.27931 0.920396 0
M  V30 6945 C 689.758 -2.25345 0.41858 0
M  V30 6946 C 690.758 -1.54116 -0.458798 0
M  V30 6947 O 691.948 -1.72235 -0.260912 0
M  V30 6948 C 689.08 -3.38556 -0.399104 0
M  V30 6949 H 690.273 -2.71251 1.27918 0
M  V30 6950 H 687.826 -1.39728 0.700406 0
M  V30 6951 H 688.561 -2.98021 -1.27882 0
M  V30 6952 H 688.346 -3.91426 0.229863 0
M  V30 6953 H 689.836 -4.10976 -0.740817 0
M  V30 6954 N 690.273 -0.685099 -1.4193 0
M  V30 6955 C 691.183 -0.013404 -2.34596 0
M  V30 6956 C 692.199 0.777589 -1.55658 0
M  V30 6957 O 693.375 0.717553 -1.88184 0
M  V30 6958 C 690.44 0.919031 -3.34297 0
M  V30 6959 C 689.501 0.121417 -4.29128 0
M  V30 6960 C 688.734 1.00944 -5.24067 0
M  V30 6961 O 688.957 2.24898 -5.24192 0
M  V30 6962 O 687.891 0.464724 -6.00103 0
M  V30 6963 H 691.717 -0.776978 -2.93593 0
M  V30 6964 H 689.302 -0.445379 -1.42607 0
M  V30 6965 H 691.184 1.45402 -3.9552 0
M  V30 6966 H 689.859 1.66228 -2.77759 0
M  V30 6967 H 688.766 -0.45792 -3.71287 0
M  V30 6968 H 690.099 -0.582937 -4.88736 0
M  V30 6969 N 691.751 1.51645 -0.429126 0
M  V30 6970 C 692.714 2.26116 0.374726 0
M  V30 6971 C 693.714 1.29242 0.956714 0
M  V30 6972 O 694.904 1.53022 0.832452 0
M  V30 6973 C 692.036 3.04669 1.52937 0
M  V30 6974 H 693.229 2.9861 -0.277818 0
M  V30 6975 H 690.782 1.55236 -0.182097 0
M  V30 6976 H 691.517 2.36571 2.21821 0
M  V30 6977 H 691.302 3.75814 1.11833 0
M  V30 6978 H 692.792 3.61102 2.09751 0
M  V30 6979 N 693.229 0.160201 1.56784 0
M  V30 6980 C 694.478 -0.487619 1.95717 0
M  V30 6981 C 694.791 -1.65136 1.0483 0
M  V30 6982 O 695.997 -2.36468 1.33398 0
M  V30 6983 C 694.453 -0.91888 3.47972 0
M  V30 6984 C 694.061 0.218655 4.47466 0
M  V30 6985 C 695.805 -1.53575 3.95746 0
M  V30 6986 C 693.712 -0.231614 5.90946 0
M  V30 6987 H 692.642 -0.185939 0.730714 0
M  V30 6988 H 695.293 0.246657 1.81835 0
M  V30 6989 H 693.675 -1.70881 3.57234 0
M  V30 6990 H 694.849 0.995825 4.49911 0
M  V30 6991 H 693.164 0.744767 4.09685 0
M  V30 6992 H 695.761 -1.88448 5.00391 0
M  V30 6993 H 696.104 -2.42959 3.38048 0
M  V30 6994 H 696.637 -0.810467 3.89456 0
M  V30 6995 H 693.376 0.62718 6.52493 0
M  V30 6996 H 692.896 -0.974379 5.91833 0
M  V30 6997 H 694.575 -0.67922 6.43425 0
M  V30 6998 N 694.707 -1.5719 -0.113559 0
M  V30 6999 C 695.657 -1.97166 -1.14497 0
M  V30 7000 C 696.641 -0.847413 -1.36776 0
M  V30 7001 O 697.833 -1.11114 -1.37777 0
M  V30 7002 C 694.962 -2.38411 -2.47013 0
M  V30 7003 C 694.048 -3.5748 -2.28185 0
M  V30 7004 N 694.439 -4.72998 -1.79182 0
M  V30 7005 C 692.737 -3.63218 -2.58821 0
M  V30 7006 C 693.438 -5.55007 -1.74191 0
M  V30 7007 N 692.414 -4.9765 -2.18735 0
M  V30 7008 H 696.216 -2.83937 -0.758733 0
M  V30 7009 H 693.73 -1.59191 -0.321234 0
M  V30 7010 H 695.727 -2.65269 -3.21618 0
M  V30 7011 H 694.387 -1.53007 -2.8639 0
M  V30 7012 H 695.398 -4.96109 -1.48649 0
M  V30 7013 H 692.075 -2.88434 -3.01847 0
M  V30 7014 H 693.465 -6.57678 -1.37512 0
M  V30 7015 N 696.185 0.383891 -1.52853 0
M  V30 7016 C 697.601 0.724316 -1.42218 0
M  V30 7017 C 697.801 1.93943 -0.546654 0
M  V30 7018 O 696.857 2.5249 -0.0220562 0
M  V30 7019 C 698.17 0.954635 -2.85144 0
M  V30 7020 C 699.718 1.05579 -2.94656 0
M  V30 7021 C 700.193 1.3187 -4.38605 0
M  V30 7022 N 701.684 1.38681 -4.41952 0
M  V30 7023 C 702.419 1.60699 -5.50421 0
M  V30 7024 N 701.915 1.80154 -6.68967 0
M  V30 7025 N 703.708 1.6292 -5.37972 0
M  V30 7026 H 695.859 -0.4156 -2.08294 0
M  V30 7027 H 698.122 -0.123776 -0.939885 0
M  V30 7028 H 697.828 0.133829 -3.51445 0
M  V30 7029 H 697.702 1.86788 -3.27704 0
M  V30 7030 H 700.089 1.86716 -2.2852 0
M  V30 7031 H 700.17 0.120338 -2.55517 0
M  V30 7032 H 699.814 0.512416 -5.05309 0
M  V30 7033 H 699.744 2.26708 -4.75301 0
M  V30 7034 H 702.235 1.25334 -3.56511 0
M  V30 7035 H 702.548 1.96476 -7.47407 0
M  V30 7036 H 700.893 1.77368 -6.71986 0
M  V30 7037 H 704.084 1.47276 -4.44328 0
M  V30 7038 H 704.257 1.79739 -6.22574 0
M  V30 7039 N 697.663 1.43903 0.642637 0
M  V30 7040 C 698.909 1.47291 1.40275 0
M  V30 7041 C 699.264 0.0996024 1.92142 0
M  V30 7042 O 698.557 -0.883423 1.70018 0
M  V30 7043 C 698.751 2.45907 2.59354 0
M  V30 7044 C 698.58 3.92691 2.19143 0
M  V30 7045 C 697.35 4.6097 2.06966 0
M  V30 7046 C 699.548 4.82231 1.78768 0
M  V30 7047 N 697.53 5.9263 1.60196 0
M  V30 7048 C 698.901 6.03246 1.43159 0
M  V30 7049 C 700.956 4.69397 1.66045 0
M  V30 7050 C 699.659 7.12851 0.961014 0
M  V30 7051 C 701.685 5.79016 1.20392 0
M  V30 7052 C 701.047 6.99164 0.857271 0
M  V30 7053 H 697.146 0.594055 0.50855 0
M  V30 7054 H 699.73 1.80153 0.738434 0
M  V30 7055 H 697.901 2.15054 3.23429 0
M  V30 7056 H 699.633 2.39665 3.26102 0
M  V30 7057 H 696.388 4.15622 2.27058 0
M  V30 7058 H 696.812 6.62547 1.39143 0
M  V30 7059 H 701.454 3.76954 1.91482 0
M  V30 7060 H 699.172 8.05113 0.694148 0
M  V30 7061 H 702.758 5.71109 1.11023 0
M  V30 7062 H 701.638 7.82544 0.509408 0
M  V30 7063 N 699.141 -0.881989 1.30609 0
M  V30 7064 C 700.071 -2.00413 1.1982 0
M  V30 7065 C 701.052 -1.69871 0.0881538 0
M  V30 7066 O 702.237 -1.92304 0.2707 0
M  V30 7067 C 699.367 -3.35641 0.89233 0
M  V30 7068 C 698.321 -3.80451 1.96064 0
M  V30 7069 C 697.647 -5.13003 1.5077 0
M  V30 7070 C 698.947 -3.98855 3.37213 0
M  V30 7071 H 700.641 -2.09698 2.13699 0
M  V30 7072 H 698.187 -1.00754 1.02882 0
M  V30 7073 H 700.14 -4.13669 0.803497 0
M  V30 7074 H 698.864 -3.26497 -0.0821381 0
M  V30 7075 H 697.523 -3.04654 2.03916 0
M  V30 7076 H 697.171 -5.0029 0.521417 0
M  V30 7077 H 696.871 -5.43956 2.22229 0
M  V30 7078 H 698.395 -5.93554 1.43271 0
M  V30 7079 H 699.809 -4.67312 3.32103 0
M  V30 7080 H 698.206 -4.41188 4.06784 0
M  V30 7081 H 699.276 -3.02614 3.78883 0
M  V30 7082 N 700.619 -1.13374 -1.09472 0
M  V30 7083 C 702.035 -0.871846 -1.33682 0
M  V30 7084 C 702.235 0.492847 -1.9538 0
M  V30 7085 O 701.291 1.23946 -2.19985 0
M  V30 7086 C 702.604 -1.99608 -2.24893 0
M  V30 7087 C 704.152 -2.02812 -2.38404 0
M  V30 7088 C 704.627 -3.14497 -3.3295 0
M  V30 7089 N 706.118 -3.14004 -3.40523 0
M  V30 7090 C 706.853 -3.97061 -4.13679 0
M  V30 7091 N 706.349 -4.90131 -4.89636 0
M  V30 7092 N 708.142 -3.85162 -4.09398 0
M  V30 7093 H 700.293 -2.01288 -0.677995 0
M  V30 7094 H 702.556 -0.876492 -0.361201 0
M  V30 7095 H 702.262 -2.98 -1.86786 0
M  V30 7096 H 702.136 -1.90981 -3.25278 0
M  V30 7097 H 704.523 -1.05034 -2.75775 0
M  V30 7098 H 704.604 -2.15511 -1.37799 0
M  V30 7099 H 704.248 -4.12514 -2.96302 0
M  V30 7100 H 704.178 -2.99035 -4.33458 0
M  V30 7101 H 706.669 -2.46587 -2.86362 0
M  V30 7102 H 706.982 -5.49996 -5.42885 0
M  V30 7103 H 705.327 -4.94138 -4.88726 0
M  V30 7104 H 708.518 -3.11779 -3.49158 0
M  V30 7105 H 708.691 -4.5012 -4.6615 0
M  V30 7106 N 702.098 1.27442 -0.927168 0
M  V30 7107 C 703.509 1.76385 -0.611979 0
M  V30 7108 C 703.86 1.75715 0.872853 0
M  V30 7109 O 702.985 1.3603 1.683 0
M  V30 7110 C 703.58 3.20303 -1.10414 0
M  V30 7111 C 702.139 3.66916 -0.839628 0
M  V30 7112 C 701.286 2.46859 -1.26317 0
M  V30 7113 H 704.237 1.13716 -1.107 0
M  V30 7114 H 704.258 3.77811 -0.451578 0
M  V30 7115 H 703.77 3.20759 -2.18484 0
M  V30 7116 H 701.871 3.71906 0.227292 0
M  V30 7117 H 701.984 4.56415 -1.45679 0
M  V30 7118 H 700.348 2.45407 -0.681723 0
M  V30 7119 H 701.131 2.50025 -2.3525 0
M  V30 7120 N 703.576 0.692616 1.41565 0
M  V30 7121 C 704.822 0.222664 2.01574 0
M  V30 7122 C 705.155 -1.1737 1.54719 0
M  V30 7123 O 704.43 -1.79161 0.757084 0
M  V30 7124 C 704.713 0.277064 3.59033 0
M  V30 7125 C 704.566 1.71016 4.16021 0
M  V30 7126 C 705.885 -0.36479 4.38586 0
M  V30 7127 H 703.004 0.0823839 0.732381 0
M  V30 7128 H 705.646 0.880778 1.68352 0
M  V30 7129 H 703.796 -0.283288 3.87466 0
M  V30 7130 H 705.468 2.32413 3.98475 0
M  V30 7131 H 703.711 2.24525 3.71175 0
M  V30 7132 H 704.382 1.69978 5.25178 0
M  V30 7133 H 706.858 0.112404 4.15948 0
M  V30 7134 H 705.734 -0.296169 5.481 0
M  V30 7135 H 705.995 -1.44506 4.17816 0
M  V30 7136 N 705.054 -1.51416 0.437162 0
M  V30 7137 C 706.017 -2.26312 -0.362729 0
M  V30 7138 C 707.017 -1.29748 -0.949847 0
M  V30 7139 O 708.207 -1.53462 -0.824325 0
M  V30 7140 C 705.339 -3.05475 -1.5132 0
M  V30 7141 H 706.532 -2.98459 0.29365 0
M  V30 7142 H 704.085 -1.55137 0.190327 0
M  V30 7143 H 704.82 -2.37744 -2.20563 0
M  V30 7144 H 704.605 -3.76401 -1.09838 0
M  V30 7145 H 706.095 -3.62209 -2.07833 0
M  V30 7146 N 706.532 -0.168513 -1.56696 0
M  V30 7147 C 707.762 0.482802 -2.0088 0
M  V30 7148 C 708.17 1.57537 -1.0478 0
M  V30 7149 O 707.513 1.83656 -0.0402746 0
M  V30 7150 C 707.575 1.1236 -3.4149 0
M  V30 7151 C 707.239 0.173027 -4.56672 0
M  V30 7152 C 708.236 -0.607565 -5.16338 0
M  V30 7153 C 705.921 0.0696691 -5.02252 0
M  V30 7154 C 707.915 -1.47874 -6.2001 0
M  V30 7155 C 705.602 -0.805096 -6.05773 0
M  V30 7156 C 706.6 -1.57789 -6.64524 0
M  V30 7157 O 706.288 -2.43804 -7.66038 0
M  V30 7158 H 706.02 0.128246 -0.663723 0
M  V30 7159 H 708.574 -0.266532 -2.03663 0
M  V30 7160 H 706.804 1.921 -3.35611 0
M  V30 7161 H 708.493 1.67683 -3.69645 0
M  V30 7162 H 709.259 -0.53787 -4.82008 0
M  V30 7163 H 705.138 0.660957 -4.56237 0
M  V30 7164 H 708.682 -2.0824 -6.65794 0
M  V30 7165 H 704.579 -0.876005 -6.39528 0
M  V30 7166 H 705.347 -2.37289 -7.83349 0
M  V30 7167 N 708.01 1.57248 0.105221 0
M  V30 7168 C 708.942 1.98008 1.15436 0
M  V30 7169 C 709.955 0.881236 1.36887 0
M  V30 7170 O 711.144 1.15943 1.35718 0
M  V30 7171 C 708.244 2.27509 2.51183 0
M  V30 7172 C 707.417 3.58811 2.50147 0
M  V30 7173 C 706.476 3.76365 3.67745 0
M  V30 7174 O 705.502 4.48329 3.50699 0
M  V30 7175 N 706.704 3.16174 4.86841 0
M  V30 7176 H 709.469 2.88616 0.807519 0
M  V30 7177 H 707.03 1.59202 0.29433 0
M  V30 7178 H 709.022 2.36455 3.28438 0
M  V30 7179 H 707.592 1.42959 2.77995 0
M  V30 7180 H 706.812 3.60927 1.5851 0
M  V30 7181 H 708.1 4.45088 2.46524 0
M  V30 7182 H 707.498 2.57701 5.03594 0
M  V30 7183 H 706.055 3.30621 5.61723 0
M  V30 7184 N 709.488 -0.375779 1.53054 0
M  V30 7185 C 710.451 -1.44254 1.7811 0
M  V30 7186 C 711.451 -1.47018 0.651328 0
M  V30 7187 O 712.641 -1.47957 0.919472 0
M  V30 7188 C 709.773 -2.8345 1.89391 0
M  V30 7189 H 710.966 -1.23316 2.73374 0
M  V30 7190 H 708.519 -0.608312 1.43977 0
M  V30 7191 H 709.254 -3.09716 0.961589 0
M  V30 7192 H 709.039 -2.82844 2.71555 0
M  V30 7193 H 710.529 -3.60722 2.10404 0
M  V30 7194 N 710.966 -1.44241 -0.634997 0
M  V30 7195 C 711.896 -1.53632 -1.7584 0
M  V30 7196 C 712.877 -0.389603 -1.65578 0
M  V30 7197 O 714.062 -0.609219 -1.84397 0
M  V30 7198 C 711.192 -1.47644 -3.14354 0
M  V30 7199 C 710.146 -2.60752 -3.394 0
M  V30 7200 C 709.472 -2.39817 -4.77904 0
M  V30 7201 C 710.772 -4.02921 -3.32343 0
M  V30 7202 H 712.466 -2.47662 -1.68238 0
M  V30 7203 H 710.012 -1.19197 -0.807969 0
M  V30 7204 H 711.965 -1.52815 -3.92716 0
M  V30 7205 H 710.689 -0.501284 -3.2273 0
M  V30 7206 H 709.348 -2.54965 -2.63417 0
M  V30 7207 H 708.996 -1.40502 -4.82978 0
M  V30 7208 H 708.696 -3.15649 -4.9562 0
M  V30 7209 H 710.22 -2.46799 -5.585 0
M  V30 7210 H 711.634 -4.10098 -4.00615 0
M  V30 7211 H 710.031 -4.78925 -3.61595 0
M  V30 7212 H 711.101 -4.26766 -2.30215 0
M  V30 7213 N 712.444 0.87505 -1.31075 0
M  V30 7214 C 713.855 1.4433 -1.18431 0
M  V30 7215 C 714.206 1.9506 0.211189 0
M  V30 7216 O 713.331 1.85847 1.10859 0
M  V30 7217 C 713.926 2.62341 -2.14389 0
M  V30 7218 C 712.485 3.15225 -2.05694 0
M  V30 7219 C 711.632 1.87929 -2.03907 0
M  V30 7220 H 714.583 0.684061 -1.432 0
M  V30 7221 H 714.604 3.3887 -1.73053 0
M  V30 7222 H 714.116 2.25388 -3.15946 0
M  V30 7223 H 712.217 3.56812 -1.07314 0
M  V30 7224 H 712.33 3.77853 -2.94558 0
M  V30 7225 H 710.694 2.06679 -1.48849 0
M  V30 7226 H 711.477 1.53221 -3.07211 0
M  V30 7227 N 713.922 1.13953 1.08869 0
M  V30 7228 C 714.832 0.835666 2.19212 0
M  V30 7229 C 715.848 -0.182005 1.73045 0
M  V30 7230 O 717.024 -0.0116661 2.01397 0
M  V30 7231 C 714.089 0.312325 3.4529 0
M  V30 7232 C 713.15 1.39196 4.06107 0
M  V30 7233 C 712.383 0.893496 5.26168 0
M  V30 7234 O 712.606 -0.266807 5.69776 0
M  V30 7235 O 711.54 1.67037 5.78258 0
M  V30 7236 H 715.366 1.75769 2.47667 0
M  V30 7237 H 712.951 0.917421 1.17914 0
M  V30 7238 H 714.833 0.0261582 4.21392 0
M  V30 7239 H 713.508 -0.582042 3.18424 0
M  V30 7240 H 712.415 1.73152 3.31616 0
M  V30 7241 H 713.748 2.26068 4.37212 0
M  V30 7242 N 715.4 -1.26948 0.933913 0
M  V30 7243 C 716.625 -1.98724 0.593589 0
M  V30 7244 C 717.05 -1.6915 -0.822801 0
M  V30 7245 O 716.408 -0.93533 -1.5531 0
M  V30 7246 C 716.456 -3.50834 0.833542 0
M  V30 7247 O 715.56 -4.12284 -0.0978788 0
M  V30 7248 H 714.901 -0.623683 0.227849 0
M  V30 7249 H 717.431 -1.61599 1.25486 0
M  V30 7250 H 717.441 -4.01018 0.75156 0
M  V30 7251 H 716.116 -3.71691 1.86597 0
M  V30 7252 H 714.693 -3.72884 0.0345443 0
M  V30 7253 N 716.879 -0.700114 -1.41195 0
M  V30 7254 C 717.809 -0.0521132 -2.33442 0
M  V30 7255 C 718.79 0.76228 -1.52063 0
M  V30 7256 O 719.975 0.714336 -1.80585 0
M  V30 7257 C 717.105 0.881693 -3.35922 0
M  V30 7258 C 716.059 0.174062 -4.27646 0
M  V30 7259 C 715.385 1.22254 -5.20536 0
M  V30 7260 C 716.685 -0.962396 -5.13357 0
M  V30 7261 H 718.379 -0.822574 -2.87879 0
M  V30 7262 H 715.925 -0.397011 -1.38419 0
M  V30 7263 H 717.878 1.34429 -3.99383 0
M  V30 7264 H 716.602 1.68387 -2.79845 0
M  V30 7265 H 715.261 -0.268551 -3.65615 0
M  V30 7266 H 714.909 2.01736 -4.60773 0
M  V30 7267 H 714.609 0.754038 -5.82742 0
M  V30 7268 H 716.133 1.68555 -5.86874 0
M  V30 7269 H 717.547 -0.579875 -5.7036 0
M  V30 7270 H 715.944 -1.35828 -5.84526 0
M  V30 7271 H 717.014 -1.80003 -4.50252 0
M  V30 7272 N 718.357 1.51182 -0.445186 0
M  V30 7273 C 719.287 2.30821 0.352686 0
M  V30 7274 C 720.268 1.36576 1.01395 0
M  V30 7275 O 721.453 1.65497 1.01609 0
M  V30 7276 C 718.583 3.15593 1.44976 0
M  V30 7277 C 717.537 4.1818 0.911553 0
M  V30 7278 C 716.863 4.91523 2.10497 0
M  V30 7279 C 718.163 5.22266 -0.059418 0
M  V30 7280 H 719.857 2.97771 -0.311936 0
M  V30 7281 H 717.403 1.43201 -0.151461 0
M  V30 7282 H 719.356 3.70091 2.01521 0
M  V30 7283 H 718.08 2.4648 2.14278 0
M  V30 7284 H 716.739 3.64746 0.368264 0
M  V30 7285 H 716.387 4.18906 2.78437 0
M  V30 7286 H 716.087 5.60898 1.7512 0
M  V30 7287 H 717.611 5.48847 2.6758 0
M  V30 7288 H 719.025 5.71789 0.415985 0
M  V30 7289 H 717.422 5.99213 -0.326152 0
M  V30 7290 H 718.492 4.7461 -0.993631 0
M  V30 7291 N 719.835 0.176821 1.56605 0
M  V30 7292 C 721.246 -0.338963 1.83597 0
M  V30 7293 C 721.597 -1.62677 1.09684 0
M  V30 7294 O 720.722 -2.13524 0.351661 0
M  V30 7295 C 721.317 -0.62177 3.33046 0
M  V30 7296 C 719.876 -1.08198 3.60514 0
M  V30 7297 C 719.023 -0.120774 2.77037 0
M  V30 7298 H 721.974 0.400978 1.53551 0
M  V30 7299 H 721.995 -1.47321 3.50823 0
M  V30 7300 H 721.507 0.315692 3.86814 0
M  V30 7301 H 719.608 -2.03435 3.12162 0
M  V30 7302 H 719.721 -0.987329 4.68816 0
M  V30 7303 H 718.085 -0.619192 2.47059 0
M  V30 7304 H 718.868 0.810806 3.33588 0
M  V30 7305 N 721.313 -1.57302 -0.09688 0
M  V30 7306 C 722.59 -1.7701 -0.832272 0
M  V30 7307 C 722.97 -0.758025 -1.97021 0
M  V30 7308 O 722.318 0.213824 -2.27497 0
M  V30 7309 C 722.528 -3.22725 -1.32851 0
M  V30 7310 C 723.876 -3.85856 -1.772 0
M  V30 7311 O 724.9 -3.26464 -1.42478 0
M  V30 7312 O 723.759 -4.90295 -2.41398 0
M  V30 7313 H 720.853 -0.725558 -0.396856 0
M  V30 7314 H 723.399 -1.69516 -0.0789005 0
M  V30 7315 H 722.171 -3.87921 -0.51312 0
M  V30 7316 H 721.794 -3.34845 -2.14394 0
M  V30 7317 N 722.791 0.367657 -1.53252 0
M  V30 7318 C 724.016 1.13566 -1.73544 0
M  V30 7319 C 724.441 1.82329 -0.462344 0
M  V30 7320 O 723.799 1.71655 0.583472 0
M  V30 7321 C 723.847 2.14322 -2.89997 0
M  V30 7322 O 722.951 3.21359 -2.58461 0
M  V30 7323 H 722.292 0.329614 -0.576412 0
M  V30 7324 H 724.822 0.425417 -2.00128 0
M  V30 7325 H 724.832 2.57958 -3.16104 0
M  V30 7326 H 723.507 1.63664 -3.82344 0
M  V30 7327 H 722.084 2.8271 -2.43165 0
M  V30 7328 N 724.269 1.44576 0.627338 0
M  V30 7329 C 725.199 1.54562 1.75022 0
M  V30 7330 C 726.18 0.398378 1.65369 0
M  V30 7331 O 727.365 0.61899 1.84071 0
M  V30 7332 C 724.495 1.49309 3.13567 0
M  V30 7333 C 723.449 2.62549 3.38012 0
M  V30 7334 C 722.775 2.42348 4.76625 0
M  V30 7335 C 724.075 4.04678 3.30202 0
M  V30 7336 H 725.769 2.4855 1.66922 0
M  V30 7337 H 723.315 1.19624 0.801636 0
M  V30 7338 H 725.268 1.54895 3.919 0
M  V30 7339 H 723.992 0.518392 3.2246 0
M  V30 7340 H 722.651 2.56358 2.62061 0
M  V30 7341 H 722.299 1.43062 4.82226 0
M  V30 7342 H 721.999 3.18273 4.93939 0
M  V30 7343 H 723.523 2.49758 5.57183 0
M  V30 7344 H 724.937 4.12217 3.98435 0
M  V30 7345 H 723.334 4.80836 3.5905 0
M  V30 7346 H 724.404 4.2798 2.27949 0
M  V30 7347 N 725.747 -0.868086 1.31537 0
M  V30 7348 C 726.694 -1.97548 1.19346 0
M  V30 7349 C 727.664 -1.65913 0.0787922 0
M  V30 7350 O 728.849 -1.89129 0.251985 0
M  V30 7351 C 725.989 -3.32922 0.908692 0
M  V30 7352 C 725.102 -3.77141 2.10687 0
M  V30 7353 C 724.237 -5.01241 1.75873 0
M  V30 7354 C 723.276 -5.37914 2.92088 0
M  V30 7355 N 722.413 -6.53192 2.57457 0
M  V30 7356 H 727.253 -2.07307 2.14074 0
M  V30 7357 H 724.79 -1.01483 1.06487 0
M  V30 7358 H 726.748 -4.10867 0.724138 0
M  V30 7359 H 725.378 -3.228 -0.0017611 0
M  V30 7360 H 724.43 -2.94961 2.40213 0
M  V30 7361 H 725.742 -4.00248 2.97663 0
M  V30 7362 H 724.896 -5.86858 1.53891 0
M  V30 7363 H 723.635 -4.80041 0.86091 0
M  V30 7364 H 722.64 -4.50814 3.14717 0
M  V30 7365 H 723.865 -5.61077 3.82582 0
M  V30 7366 H 721.811 -6.33536 1.702 0
M  V30 7367 H 721.728 -6.76252 3.37963 0
M  V30 7368 H 722.996 -7.41997 2.38873 0
M  V30 7369 N 727.225 -1.14528 -1.08264 0
M  V30 7370 C 728.188 -0.83632 -2.13397 0
M  V30 7371 C 729.188 0.159715 -1.60005 0
M  V30 7372 O 730.378 -0.0688098 -1.74064 0
M  V30 7373 C 727.51 -0.246973 -3.40004 0
M  V30 7374 H 728.703 -1.76808 -2.42237 0
M  V30 7375 H 726.256 -0.951509 -1.24 0
M  V30 7376 H 726.991 0.693436 -3.168 0
M  V30 7377 H 726.776 -0.964412 -3.80055 0
M  V30 7378 H 728.266 -0.0480679 -4.17572 0
M  V30 7379 N 728.703 1.26451 -0.940633 0
M  V30 7380 C 729.613 2.30128 -0.455881 0
M  V30 7381 C 730.629 1.67536 0.469867 0
M  V30 7382 O 731.805 1.98344 0.349529 0
M  V30 7383 C 728.87 3.45634 0.271648 0
M  V30 7384 C 727.931 4.23709 -0.690594 0
M  V30 7385 C 727.164 5.337 0.00231047 0
M  V30 7386 O 727.387 5.57215 1.21935 0
M  V30 7387 O 726.321 5.98091 -0.676111 0
M  V30 7388 H 730.147 2.73655 -1.31707 0
M  V30 7389 H 727.732 1.3164 -0.706497 0
M  V30 7390 H 729.614 4.15853 0.681486 0
M  V30 7391 H 728.289 3.04138 1.10824 0
M  V30 7392 H 727.196 3.55974 -1.15037 0
M  V30 7393 H 728.529 4.68953 -1.49478 0
M  V30 7394 N 730.181 0.707592 1.40822 0
M  V30 7395 C 731.129 0.0386643 2.32568 0
M  V30 7396 C 732.123 -0.755653 1.51612 0
M  V30 7397 O 733.329 -0.659921 1.67467 0
M  V30 7398 H 729.704 -0.00629912 0.751974 0
M  V30 7399 H 731.675 0.8293 2.86645 0
M  V30 7400 C 730.424 -0.87496 3.36511 0
M  V30 7401 H 729.747 -0.273157 3.98866 0
M  V30 7402 H 731.187 -1.31111 4.03219 0
M  V30 7403 C 729.646 -1.99672 2.71353 0
M  V30 7404 O 730.176 -3.08676 2.57064 0
M  V30 7405 N 728.382 -1.77799 2.29861 0
M  V30 7406 H 727.929 -0.89147 2.41683 0
M  V30 7407 H 727.887 -2.53036 1.86601 0
M  V30 7408 N 731.66 -1.50943 0.453197 0
M  V30 7409 C 733.071 -1.86699 -0.00619892 0
M  V30 7410 C 733.422 -1.3693 -1.40515 0
M  V30 7411 O 732.547 -0.726715 -2.03833 0
M  V30 7412 C 733.142 -3.38795 -0.018025 0
M  V30 7413 C 731.701 -3.74028 -0.421885 0
M  V30 7414 C 730.848 -2.74752 0.375087 0
M  V30 7415 H 733.799 -1.43942 0.668317 0
M  V30 7416 H 733.82 -3.71468 -0.824125 0
M  V30 7417 H 733.332 -3.74988 1.00028 0
M  V30 7418 H 731.433 -3.43431 -1.44521 0
M  V30 7419 H 731.546 -4.78908 -0.135664 0
M  V30 7420 H 729.91 -2.5414 -0.168794 0
M  V30 7421 H 730.693 -3.13787 1.39256 0
M  V30 7422 N 733.138 -0.185124 -1.56509 0
M  V30 7423 C 734.068 0.735098 -2.21627 0
M  V30 7424 C 735.049 1.2288 -1.1762 0
M  V30 7425 O 736.234 1.27945 -1.46095 0
M  V30 7426 C 733.364 1.95889 -2.86783 0
M  V30 7427 C 732.318 1.6005 -3.96948 0
M  V30 7428 C 731.644 2.90009 -4.4922 0
M  V30 7429 C 732.944 0.818008 -5.15855 0
M  V30 7430 H 734.638 0.192274 -2.98782 0
M  V30 7431 H 732.184 0.0910393 -1.43712 0
M  V30 7432 H 734.137 2.60779 -3.31017 0
M  V30 7433 H 732.861 2.52608 -2.07018 0
M  V30 7434 H 731.52 0.975237 -3.5339 0
M  V30 7435 H 731.168 3.44797 -3.6623 0
M  V30 7436 H 730.868 2.66778 -5.23549 0
M  V30 7437 H 732.392 3.55904 -4.9615 0
M  V30 7438 H 733.806 1.36979 -5.56695 0
M  V30 7439 H 732.203 0.684207 -5.96187 0
M  V30 7440 H 733.273 -0.182939 -4.84555 0
M  V30 7441 N 734.616 1.57351 0.0885366 0
M  V30 7442 C 735.526 2.05858 1.12516 0
M  V30 7443 C 736.542 0.984758 1.43452 0
M  V30 7444 O 737.718 1.29836 1.53963 0
M  V30 7445 C 734.783 2.47882 2.42395 0
M  V30 7446 C 733.844 3.69487 2.18582 0
M  V30 7447 C 733.077 4.09497 3.42268 0
M  V30 7448 O 733.3 3.49536 4.50755 0
M  V30 7449 O 732.234 5.02406 3.31469 0
M  V30 7450 H 736.06 2.94467 0.743146 0
M  V30 7451 H 733.645 1.46326 0.301507 0
M  V30 7452 H 735.527 2.75509 3.18862 0
M  V30 7453 H 734.202 1.62408 2.8001 0
M  V30 7454 H 733.109 3.46967 1.39875 0
M  V30 7455 H 734.442 4.55761 1.85857 0
M  V30 7456 N 736.094 -0.359525 1.53444 0
M  V30 7457 C 737.343 -1.09886 1.69139 0
M  V30 7458 C 737.656 -1.90285 0.452863 0
M  V30 7459 O 738.862 -2.67033 0.490459 0
M  V30 7460 C 737.318 -2.0028 2.99025 0
M  V30 7461 C 736.926 -1.25164 4.30161 0
M  V30 7462 C 738.67 -2.74168 3.24086 0
M  V30 7463 C 736.577 -2.14494 5.51132 0
M  V30 7464 H 735.507 -0.413936 0.630217 0
M  V30 7465 H 738.158 -0.359434 1.79945 0
M  V30 7466 H 736.54 -2.77978 2.82036 0
M  V30 7467 H 737.714 -0.524867 4.57801 0
M  V30 7468 H 736.029 -0.631116 4.11589 0
M  V30 7469 H 738.626 -3.41243 4.11652 0
M  V30 7470 H 738.969 -3.39868 2.40407 0
M  V30 7471 H 739.502 -2.0355 3.41778 0
M  V30 7472 H 736.241 -1.53362 6.37307 0
M  V30 7473 H 735.761 -2.85004 5.27762 0
M  V30 7474 H 737.44 -2.73914 5.86157 0
M  V30 7475 N 737.572 -1.44907 -0.619662 0
M  V30 7476 C 738.535 -1.52282 -1.71297 0
M  V30 7477 C 739.535 -0.40359 -1.55653 0
M  V30 7478 O 740.725 -0.666638 -1.6094 0
M  V30 7479 C 737.857 -1.40778 -3.10474 0
M  V30 7480 H 739.05 -2.49683 -1.66128 0
M  V30 7481 H 736.603 -1.32168 -0.834339 0
M  V30 7482 H 737.338 -0.445156 -3.2123 0
M  V30 7483 H 737.123 -2.21947 -3.23237 0
M  V30 7484 H 738.613 -1.48946 -3.90135 0
M  V30 7485 N 739.05 0.861098 -1.31996 0
M  V30 7486 C 740.466 1.14827 -1.10846 0
M  V30 7487 C 740.666 2.0117 0.11528 0
M  V30 7488 O 739.722 2.39423 0.802048 0
M  V30 7489 C 741.035 1.83183 -2.38462 0
M  V30 7490 C 742.583 1.95847 -2.44158 0
M  V30 7491 C 743.058 2.67617 -3.71679 0
M  V30 7492 N 744.549 2.75147 -3.72624 0
M  V30 7493 C 745.284 3.31314 -4.67994 0
M  V30 7494 N 744.78 3.88343 -5.73726 0
M  V30 7495 N 746.573 3.29356 -4.55501 0
M  V30 7496 H 738.724 0.285951 -2.10466 0
M  V30 7497 H 740.987 0.189303 -0.928907 0
M  V30 7498 H 740.693 1.27193 -3.27895 0
M  V30 7499 H 740.567 2.83393 -2.48935 0
M  V30 7500 H 742.954 2.50999 -1.55189 0
M  V30 7501 H 743.035 0.94653 -2.37644 0
M  V30 7502 H 742.679 2.13131 -4.61018 0
M  V30 7503 H 742.609 3.69237 -3.75462 0
M  V30 7504 H 745.1 2.34682 -2.96197 0
M  V30 7505 H 745.413 4.29338 -6.42564 0
M  V30 7506 H 743.758 3.86693 -5.77489 0
M  V30 7507 H 746.949 2.84047 -3.72069 0
M  V30 7508 H 747.122 3.7283 -5.30001 0
M  V30 7509 N 740.528 1.15101 1.07655 0
M  V30 7510 C 741.491 0.847625 2.12951 0
M  V30 7511 C 742.491 -0.151227 1.60087 0
M  V30 7512 O 743.681 0.0780399 1.74025 0
M  V30 7513 C 740.813 0.265 3.39868 0
M  V30 7514 H 742.006 1.7809 2.41296 0
M  V30 7515 H 739.559 0.958072 1.23494 0
M  V30 7516 H 740.294 -0.676625 3.17163 0
M  V30 7517 H 740.079 0.984554 3.79538 0
M  V30 7518 H 741.569 0.0702121 4.17541 0
M  V30 7519 N 742.006 -1.2595 0.947325 0
M  V30 7520 C 743.252 -1.9375 0.599064 0
M  V30 7521 C 743.585 -1.74088 -0.860632 0
M  V30 7522 O 742.86 -1.08158 -1.61654 0
M  V30 7523 C 743.143 -3.47353 0.949634 0
M  V30 7524 C 742.996 -3.76273 2.46452 0
M  V30 7525 C 744.315 -4.37589 0.469442 0
M  V30 7526 H 741.434 -0.703674 0.219115 0
M  V30 7527 H 744.076 -1.48705 1.18266 0
M  V30 7528 H 742.226 -3.8585 0.453008 0
M  V30 7529 H 743.898 -3.47455 3.03435 0
M  V30 7530 H 742.141 -3.22135 2.90537 0
M  V30 7531 H 742.812 -4.83664 2.66032 0
M  V30 7532 H 745.288 -4.06353 0.89534 0
M  V30 7533 H 744.164 -5.43841 0.7435 0
M  V30 7534 H 744.425 -4.37579 -0.630618 0
M  V30 7535 N 743.484 -0.715051 -1.40445 0
M  V30 7536 C 744.761 -0.181503 -1.94756 0
M  V30 7537 C 745.141 1.31268 -1.65324 0
M  V30 7538 O 744.489 2.0686 -0.970631 0
M  V30 7539 C 744.699 -0.493663 -3.45491 0
M  V30 7540 C 746.047 -0.432032 -4.22396 0
M  V30 7541 O 747.071 -0.429692 -3.53599 0
M  V30 7542 O 745.93 -0.409091 -5.44967 0
M  V30 7543 H 743.024 -0.0263989 -0.826579 0
M  V30 7544 H 745.57 -0.792546 -1.50056 0
M  V30 7545 H 744.342 -1.52713 -3.6027 0
M  V30 7546 H 743.965 0.14737 -3.97327 0
M  V30 7547 N 744.962 1.50701 -0.461195 0
M  V30 7548 C 746.21 2.01867 0.0970051 0
M  V30 7549 C 746.531 1.34591 1.41104 0
M  V30 7550 O 745.801 0.488041 1.89723 0
M  V30 7551 H 744.381 0.74599 0.0388392 0
M  V30 7552 H 747.043 1.85129 -0.609357 0
M  V30 7553 H 746.139 3.11051 0.255688 0
M  V30 7554 N 746.441 0.193421 1.56409 0
M  V30 7555 C 747.388 -0.728124 2.19014 0
M  V30 7556 C 748.358 -1.21098 1.13686 0
M  V30 7557 O 749.543 -1.27517 1.4193 0
M  V30 7558 C 746.683 -1.94277 2.8522 0
M  V30 7559 C 745.796 -1.50143 4.05069 0
M  V30 7560 C 744.931 -2.67145 4.59137 0
M  V30 7561 C 743.97 -2.19609 5.71348 0
M  V30 7562 N 743.107 -3.29782 6.19829 0
M  V30 7563 H 747.947 -0.187499 2.9741 0
M  V30 7564 H 745.484 -0.0808064 1.46878 0
M  V30 7565 H 747.442 -2.65551 3.21774 0
M  V30 7566 H 746.072 -2.45673 2.09391 0
M  V30 7567 H 745.124 -0.684624 3.74189 0
M  V30 7568 H 746.436 -1.11266 4.86232 0
M  V30 7569 H 745.59 -3.46544 4.97988 0
M  V30 7570 H 744.329 -3.09295 3.77078 0
M  V30 7571 H 743.334 -1.38664 5.32027 0
M  V30 7572 H 744.559 -1.78492 6.55223 0
M  V30 7573 H 742.505 -3.71466 5.40693 0
M  V30 7574 H 742.422 -2.95069 6.96039 0
M  V30 7575 H 743.69 -4.094 6.63334 0
M  V30 7576 N 747.919 -1.57396 -0.0801906 0
M  V30 7577 C 748.882 -2.02133 -1.0805 0
M  V30 7578 C 749.882 -0.91707 -1.32085 0
M  V30 7579 O 751.072 -1.18217 -1.27947 0
M  V30 7580 C 748.204 -2.39479 -2.42616 0
M  V30 7581 H 749.397 -2.91733 -0.6951 0
M  V30 7582 H 746.95 -1.52869 -0.325677 0
M  V30 7583 H 747.685 -1.52879 -2.86004 0
M  V30 7584 H 747.47 -3.20052 -2.26515 0
M  V30 7585 H 748.96 -2.74697 -3.14534 0
M  V30 7586 N 749.397 0.351382 -1.53633 0
M  V30 7587 C 750.36 1.41403 -1.80383 0
M  V30 7588 C 751.36 1.45963 -0.674635 0
M  V30 7589 O 752.55 1.46476 -0.942895 0
M  V30 7590 C 749.682 2.80401 -1.93876 0
M  V30 7591 H 750.875 1.18951 -2.75301 0
M  V30 7592 H 748.428 0.58533 -1.44926 0
M  V30 7593 H 749.163 3.08147 -1.01074 0
M  V30 7594 H 748.948 2.78488 -2.7602 0
M  V30 7595 H 750.438 3.57329 -2.16116 0
M  V30 7596 N 750.875 1.45233 0.611969 0
M  V30 7597 C 751.825 1.49997 1.71711 0
M  V30 7598 C 752.809 0.363689 1.56736 0
M  V30 7599 O 754.001 0.610261 1.66147 0
M  V30 7600 C 751.13 1.46537 3.10454 0
M  V30 7601 C 750.216 2.65351 3.30831 0
M  V30 7602 N 750.607 3.90485 3.21489 0
M  V30 7603 C 748.905 2.60955 3.61688 0
M  V30 7604 C 749.606 4.69758 3.43078 0
M  V30 7605 N 748.582 4.01141 3.66861 0
M  V30 7606 H 752.384 2.44574 1.62975 0
M  V30 7607 H 749.898 1.40464 0.815082 0
M  V30 7608 H 751.895 1.48035 3.89732 0
M  V30 7609 H 750.555 0.530139 3.20343 0
M  V30 7610 H 751.566 4.22171 2.99987 0
M  V30 7611 H 748.243 1.76319 3.78441 0
M  V30 7612 H 749.633 5.7877 3.41285 0
M  V30 7613 N 752.353 -0.854086 1.3245 0
M  V30 7614 C 753.578 -1.64597 1.26185 0
M  V30 7615 C 754.003 -1.87357 -0.167074 0
M  V30 7616 O 753.361 -1.42675 -1.11864 0
M  V30 7617 C 753.409 -2.98213 2.02734 0
M  V30 7618 O 752.513 -3.88784 1.37554 0
M  V30 7619 H 751.854 -0.50179 0.434859 0
M  V30 7620 H 754.384 -1.06372 1.74775 0
M  V30 7621 H 754.394 -3.4803 2.1293 0
M  V30 7622 H 753.069 -2.80969 3.06642 0
M  V30 7623 H 751.646 -3.4725 1.3591 0
M  V30 7624 O 753.87 -1.27491 -0.991381 0
M  V30 7625 H 754.561 -1.07099 -1.61398 0
M  V30 END ATOM
M  V30 BEGIN BOND
M  V30 END BOND
M  V30 END CTAB
M  END
$$$$
