drugbank_target|Q56748 Sulfide dehydrogenase (DB02956)
 OpenBabel12092120263D

  0  0  0     0  0            999 V3000
M  V30 BEGIN CTAB
M  V30 COUNTS 2337 2357 0 0 0
M  V30 BEGIN ATOM
M  V30 1 H -0.908 1.98254 -0.117106 0
M  V30 2 N 0 1.576 0 0
M  V30 3 C 0.933 2.03868 1.02534 0
M  V30 4 C 1.911 0.928543 1.3348 0
M  V30 5 O 3.095 1.19667 1.45644 0
M  V30 6 C 0.222 2.43627 2.35294 0
M  V30 7 C -0.732 3.65373 2.2001 0
M  V30 8 S 0.101 5.13292 1.52614 0
M  V30 9 C 1.257 5.56322 2.86805 0
M  V30 10 H 1.49 2.90518 0.631377 0
M  V30 11 H -0.977 1.52953 0.210867 0
M  V30 12 H 0.981 2.67203 3.11629 0
M  V30 13 H -0.358 1.57376 2.7183 0
M  V30 14 H -1.165 3.90944 3.18086 0
M  V30 15 H -1.563 3.418 1.51819 0
M  V30 16 H 0.729 5.58782 3.83104 0
M  V30 17 H 1.672 6.56266 2.65933 0
M  V30 18 H 2.08 4.83886 2.90714 0
M  V30 19 N 1.4781 -0.272755 1.55222 0
M  V30 20 C 2.7251 -1.00433 1.7584 0
M  V30 21 C 3.0531 -1.86275 0.559629 0
M  V30 22 O 2.3081 -1.90269 -0.457857 0
M  V30 23 C 2.6071 -1.91642 3.01675 0
M  V30 24 C 2.2731 -1.21548 4.34208 0
M  V30 25 C 0.9351 -1.02166 4.70229 0
M  V30 26 C 3.2871 -0.716684 5.16249 0
M  V30 27 C 0.6151 -0.316334 5.85847 0
M  V30 28 C 2.9671 -0.0249476 6.32595 0
M  V30 29 C 1.6311 0.180579 6.67256 0
M  V30 30 H 0.9011 -0.367509 0.643443 0
M  V30 31 H 3.5481 -0.276596 1.89492 0
M  V30 32 H 1.8531 -2.71037 2.82924 0
M  V30 33 H 3.5501 -2.48369 3.14824 0
M  V30 34 H 0.1401 -1.37645 4.05896 0
M  V30 35 H 4.3241 -0.854047 4.88896 0
M  V30 36 H -0.4199 -0.146378 6.11225 0
M  V30 37 H 3.7541 0.369311 6.9542 0
M  V30 38 H 1.3811 0.729098 7.56696 0
M  V30 39 N 2.9562 -1.48159 -0.537278 0
M  V30 40 C 4.3722 -1.34118 -0.865129 0
M  V30 41 C 4.5722 -0.346678 -1.98495 0
M  V30 42 O 3.6282 0.234715 -2.51407 0
M  V30 43 C 4.9412 -2.73963 -1.23954 0
M  V30 44 C 6.4892 -2.82397 -1.34984 0
M  V30 45 C 6.9642 -4.22928 -1.75772 0
M  V30 46 N 8.4552 -4.25566 -1.82887 0
M  V30 47 C 9.1902 -5.31235 -2.15817 0
M  V30 48 N 8.6862 -6.47189 -2.47222 0
M  V30 49 N 10.4792 -5.18624 -2.16761 0
M  V30 50 H 2.6302 -2.1144 0.201715 0
M  V30 51 H 4.8932 -0.947598 0.0275949 0
M  V30 52 H 4.5992 -3.48264 -0.490381 0
M  V30 53 H 4.4732 -3.0702 -2.19132 0
M  V30 54 H 6.8602 -2.08356 -2.08978 0
M  V30 55 H 6.9412 -2.5297 -0.379448 0
M  V30 56 H 6.5852 -4.97482 -1.02341 0
M  V30 57 H 6.5152 -4.49794 -2.73848 0
M  V30 58 H 9.0062 -3.41924 -1.60924 0
M  V30 59 H 9.3192 -7.23564 -2.71433 0
M  V30 60 H 7.6642 -6.50476 -2.44757 0
M  V30 61 H 10.8552 -4.27056 -1.91679 0
M  V30 62 H 11.0282 -6.01078 -2.42093 0
M  V30 63 N 4.4343 0.785586 -1.36625 0
M  V30 64 C 5.3643 1.91259 -1.33949 0
M  V30 65 C 6.3453 1.68795 -0.210325 0
M  V30 66 O 7.5303 1.89854 -0.408561 0
M  V30 67 C 4.6603 3.28339 -1.13186 0
M  V30 68 C 3.6143 3.65335 -2.22967 0
M  V30 69 C 2.9403 5.00806 -1.87342 0
M  V30 70 C 4.2403 3.7352 -3.65075 0
M  V30 71 H 5.9343 1.93755 -2.28253 0
M  V30 72 H 3.4803 0.930788 -1.09874 0
M  V30 73 H 5.4333 4.06804 -1.09948 0
M  V30 74 H 4.1573 3.2624 -0.153332 0
M  V30 75 H 2.8163 2.89169 -2.25337 0
M  V30 76 H 2.4643 4.95233 -0.880545 0
M  V30 77 H 2.1643 5.26529 -2.60846 0
M  V30 78 H 3.6883 5.81687 -1.85667 0
M  V30 79 H 5.1023 4.42168 -3.64911 0
M  V30 80 H 3.4993 4.10731 -4.37516 0
M  V30 81 H 4.5693 2.74527 -3.99703 0
M  V30 82 N 5.9124 1.20967 1.01018 0
M  V30 83 C 7.1594 1.02374 1.74716 0
M  V30 84 C 7.4874 -0.443375 1.89379 0
M  V30 85 O 6.7424 -1.34535 1.42123 0
M  V30 86 C 7.0414 1.65997 3.16512 0
M  V30 87 C 6.7074 3.15831 3.2181 0
M  V30 88 C 5.3694 3.56719 3.22963 0
M  V30 89 C 7.7214 4.11816 3.19464 0
M  V30 90 C 5.0494 4.92107 3.19449 0
M  V30 91 C 7.4014 5.47158 3.17491 0
M  V30 92 C 6.0654 5.87451 3.16951 0
M  V30 93 H 5.3354 0.374614 0.639332 0
M  V30 94 H 7.9824 1.50485 1.18434 0
M  V30 95 H 6.2874 1.10166 3.75993 0
M  V30 96 H 7.9844 1.49119 3.72242 0
M  V30 97 H 4.5744 2.83263 3.21652 0
M  V30 98 H 8.7584 3.81257 3.17737 0
M  V30 99 H 4.0144 5.22579 3.17366 0
M  V30 100 H 8.1884 6.21274 3.14629 0
M  V30 101 H 5.8154 6.92329 3.13983 0
M  V30 102 N 7.3905 -1.2043 1.01659 0
M  V30 103 C 8.6365 -1.90079 0.706963 0
M  V30 104 C 8.9695 -1.78648 -0.761474 0
M  V30 105 O 8.2445 -1.17069 -1.55323 0
M  V30 106 C 8.5275 -3.41469 1.14327 0
M  V30 107 C 8.3805 -3.61833 2.67201 0
M  V30 108 C 9.6995 -4.34261 0.714529 0
M  V30 109 H 6.8185 -0.690254 0.2583 0
M  V30 110 H 9.4605 -1.41826 1.26433 0
M  V30 111 H 7.6105 -3.82696 0.669056 0
M  V30 112 H 9.2825 -3.2986 3.22475 0
M  V30 113 H 7.5255 -3.05304 3.08175 0
M  V30 114 H 8.1965 -4.67955 2.92783 0
M  V30 115 H 10.6725 -4.00682 1.12221 0
M  V30 116 H 9.5485 -5.38806 1.04784 0
M  V30 117 H 9.8095 -4.40431 -0.383799 0
M  V30 118 N 8.8686 -0.792821 -1.36206 0
M  V30 119 C 10.0966 -0.378825 -2.03402 0
M  V30 120 C 10.5116 1.00586 -1.59774 0
M  V30 121 O 9.8686 1.64574 -0.788764 0
M  V30 122 C 9.9196 -0.43683 -3.58851 0
M  V30 123 O 9.6406 -1.76691 -4.00889 0
M  V30 124 C 11.1416 -0.0138943 -4.43298 0
M  V30 125 H 8.3616 -0.155673 -0.652692 0
M  V30 126 H 10.9056 -1.07261 -1.74113 0
M  V30 127 H 9.0606 0.208575 -3.86838 0
M  V30 128 H 9.4746 -1.72011 -4.95492 0
M  V30 129 H 10.9486 -0.105615 -5.51899 0
M  V30 130 H 11.4256 1.03915 -4.2673 0
M  V30 131 H 12.0316 -0.63192 -4.20579 0
M  V30 132 N 10.3467 1.47872 -0.545128 0
M  V30 133 C 11.3097 2.28337 0.198717 0
M  V30 134 C 12.3097 1.36255 0.853888 0
M  V30 135 O 13.4997 1.59003 0.711606 0
M  V30 136 C 10.6317 3.15585 1.28915 0
M  V30 137 H 11.8247 2.95567 -0.507941 0
M  V30 138 H 9.3777 1.53362 -0.301616 0
M  V30 139 H 10.1127 2.53019 2.02859 0
M  V30 140 H 9.8977 3.83337 0.824309 0
M  V30 141 H 11.3877 3.76243 1.81194 0
M  V30 142 N 11.8248 0.280983 1.55075 0
M  V30 143 C 12.7548 -0.597469 2.25727 0
M  V30 144 C 13.7358 -1.15417 1.24952 0
M  V30 145 O 14.9208 -1.18722 1.53684 0
M  V30 146 C 12.0508 -1.7789 2.98283 0
M  V30 147 C 11.0048 -1.35347 4.06036 0
M  V30 148 C 10.3308 -2.61846 4.66198 0
M  V30 149 C 11.6308 -0.499354 5.19907 0
M  V30 150 H 13.3248 -0.00824265 2.99399 0
M  V30 151 H 10.8708 -0.0025244 1.44 0
M  V30 152 H 12.8238 -2.39937 3.46422 0
M  V30 153 H 11.5478 -2.39405 2.22155 0
M  V30 154 H 10.2068 -0.756156 3.58717 0
M  V30 155 H 9.8548 -3.21632 3.86732 0
M  V30 156 H 9.5548 -2.3409 5.38958 0
M  V30 157 H 11.0788 -3.24732 5.1709 0
M  V30 158 H 12.4928 -1.02498 5.64063 0
M  V30 159 H 10.8898 -0.316424 5.99265 0
M  V30 160 H 11.9598 0.480459 4.82514 0
M  V30 161 N 13.3029 -1.57598 0.00835791 0
M  V30 162 C 14.5519 -1.90107 -0.673968 0
M  V30 163 C 14.8649 -0.884275 -1.7447 0
M  V30 164 O 16.0709 -1.09987 -2.48224 0
M  V30 165 C 14.5269 -3.37497 -1.24995 0
M  V30 166 C 14.1349 -4.47491 -0.2136 0
M  V30 167 C 15.8789 -3.79104 -1.90999 0
M  V30 168 C 13.7859 -5.85963 -0.80005 0
M  V30 169 H 12.7159 -0.709393 -0.255495 0
M  V30 170 H 15.3669 -1.83365 0.0702693 0
M  V30 171 H 13.7489 -3.39102 -2.04513 0
M  V30 172 H 14.9229 -4.57414 0.557596 0
M  V30 173 H 13.2379 -4.14956 0.346474 0
M  V30 174 H 15.8349 -4.79901 -2.35795 0
M  V30 175 H 16.1779 -3.1306 -2.74407 0
M  V30 176 H 16.7109 -3.79833 -1.18203 0
M  V30 177 H 13.4499 -6.555 -0.00456708 0
M  V30 178 H 12.9699 -5.79687 -1.54021 0
M  V30 179 H 14.6489 -6.33884 -1.29615 0
M  V30 180 N 14.781 0.264519 -1.55364 0
M  V30 181 C 16.03 0.992812 -1.75574 0
M  V30 182 C 16.343 1.87142 -0.568979 0
M  V30 183 O 17.549 2.63513 -0.653682 0
M  V30 184 C 16.005 1.81519 -3.10771 0
M  V30 185 C 15.613 0.984839 -4.37041 0
M  V30 186 C 17.357 2.53727 -3.40327 0
M  V30 187 C 15.264 1.80209 -5.63275 0
M  V30 188 H 14.194 0.374412 -0.65447 0
M  V30 189 H 16.845 0.248138 -1.81815 0
M  V30 190 H 15.227 2.60115 -2.98591 0
M  V30 191 H 16.401 0.242455 -4.60162 0
M  V30 192 H 14.716 0.37691 -4.14691 0
M  V30 193 H 17.313 3.15292 -4.3185 0
M  V30 194 H 17.656 3.24447 -2.60845 0
M  V30 195 H 18.189 1.82156 -3.53644 0
M  V30 196 H 14.928 1.13896 -6.45529 0
M  V30 197 H 14.448 2.52022 -5.44284 0
M  V30 198 H 16.127 2.37364 -6.01887 0
M  V30 199 N 16.2591 1.48442 0.529413 0
M  V30 200 C 17.2221 1.62524 1.61612 0
M  V30 201 C 18.2221 0.498509 1.52877 0
M  V30 202 O 19.4121 0.76431 1.56537 0
M  V30 203 C 16.5441 1.59597 3.01233 0
M  V30 204 H 17.7371 2.59423 1.50465 0
M  V30 205 H 15.2901 1.37047 0.751514 0
M  V30 206 H 16.0251 0.641781 3.17886 0
M  V30 207 H 15.8101 2.41397 3.08982 0
M  V30 208 H 17.3001 1.72646 3.80241 0
M  V30 209 N 17.7372 -0.778329 1.37039 0
M  V30 210 C 18.6672 -1.90546 1.34962 0
M  V30 211 C 19.6482 -1.68681 0.219274 0
M  V30 212 O 20.8332 -1.89634 0.418624 0
M  V30 213 C 17.9632 -3.27734 1.14925 0
M  V30 214 C 16.9172 -3.64147 2.24902 0
M  V30 215 C 16.2432 -4.99806 1.89996 0
M  V30 216 C 17.5432 -3.71579 3.67051 0
M  V30 217 H 19.2372 -1.92541 2.29277 0
M  V30 218 H 16.7832 -0.924948 1.10366 0
M  V30 219 H 18.7362 -4.06215 1.12104 0
M  V30 220 H 17.4602 -3.26154 0.170631 0
M  V30 221 H 16.1192 -2.8797 2.26868 0
M  V30 222 H 15.7672 -4.94759 0.906796 0
M  V30 223 H 15.4672 -5.25139 2.63634 0
M  V30 224 H 16.9912 -5.80694 1.88749 0
M  V30 225 H 18.4052 -4.40227 3.67251 0
M  V30 226 H 16.8022 -4.08405 4.39688 0
M  V30 227 H 17.8722 -2.72404 4.01154 0
M  V30 228 N 19.2153 -1.21501 -1.00376 0
M  V30 229 C 20.4633 -1.03095 -1.73827 0
M  V30 230 C 20.7843 0.436341 -1.90055 0
M  V30 231 O 20.0543 1.31466 -1.45236 0
M  V30 232 H 18.6343 -0.378487 -0.644016 0
M  V30 233 H 21.2963 -1.52831 -1.20949 0
M  V30 234 H 20.3923 -1.49991 -2.73695 0
M  V30 235 N 20.6934 1.19889 -1.02296 0
M  V30 236 C 21.6234 2.25141 -0.619174 0
M  V30 237 C 22.6044 1.66051 0.368915 0
M  V30 238 O 23.7894 1.92546 0.252941 0
M  V30 239 C 20.9194 3.4728 0.0368783 0
M  V30 240 C 19.8734 4.19005 -0.872865 0
M  V30 241 C 19.1994 5.34637 -0.0822402 0
M  V30 242 C 20.4994 4.74452 -2.18387 0
M  V30 243 H 22.1934 2.59171 -1.49903 0
M  V30 244 H 19.7394 1.24579 -0.722222 0
M  V30 245 H 21.6924 4.20098 0.330958 0
M  V30 246 H 20.4164 3.12433 0.95149 0
M  V30 247 H 19.0754 3.48061 -1.15105 0
M  V30 248 H 18.7234 4.96034 0.83422 0
M  V30 249 H 18.4234 5.83557 -0.688149 0
M  V30 250 H 19.9474 6.10255 0.205238 0
M  V30 251 H 21.3614 5.39055 -1.95172 0
M  V30 252 H 19.7584 5.33834 -2.74119 0
M  V30 253 H 20.8284 3.92844 -2.84257 0
M  V30 254 N 22.1715 0.800033 1.35784 0
M  V30 255 C 23.1345 0.211565 2.28221 0
M  V30 256 C 24.1345 -0.59728 1.49296 0
M  V30 257 O 25.3245 -0.416721 1.69142 0
M  V30 258 C 22.4565 -0.705846 3.33513 0
M  V30 259 H 23.6495 1.02677 2.81776 0
M  V30 260 H 21.2025 0.570211 1.45528 0
M  V30 261 H 21.9375 -1.54498 2.85133 0
M  V30 262 H 21.7225 -0.127655 3.91892 0
M  V30 263 H 23.2125 -1.11211 4.02519 0
M  V30 264 N 23.6496 -1.47581 0.552962 0
M  V30 265 C 24.5816 -2.27997 -0.234533 0
M  V30 266 C 25.5946 -1.36753 -0.883321 0
M  V30 267 O 26.7836 -1.61612 -0.757889 0
M  V30 268 C 23.8836 -3.10879 -1.34935 0
M  V30 269 C 23.0566 -4.30056 -0.798158 0
M  V30 270 C 22.1156 -4.94567 -1.79694 0
M  V30 271 O 21.1416 -5.53087 -1.34474 0
M  V30 272 N 22.3436 -4.88878 -3.13015 0
M  V30 273 H 25.1086 -2.96222 0.455255 0
M  V30 274 H 22.6696 -1.57163 0.388761 0
M  V30 275 H 24.6616 -3.50903 -2.01616 0
M  V30 276 H 23.2316 -2.44924 -1.94244 0
M  V30 277 H 22.4516 -3.94174 0.0453079 0
M  V30 278 H 23.7396 -5.07152 -0.409173 0
M  V30 279 H 23.1376 -4.42526 -3.52402 0
M  V30 280 H 21.6946 -5.32934 -3.75266 0
M  V30 281 N 25.1277 -0.289203 -1.54924 0
M  V30 282 C 26.0907 0.579144 -2.21762 0
M  V30 283 C 27.0907 1.07047 -1.1999 0
M  V30 284 O 28.2807 0.968384 -1.44803 0
M  V30 285 C 25.4127 1.80055 -2.8947 0
M  V30 286 H 26.6057 -0.00464908 -2.999 0
M  V30 287 H 24.1587 -0.0399306 -1.56249 0
M  V30 288 H 24.8937 2.42449 -2.15381 0
M  V30 289 H 24.6787 1.45602 -3.64064 0
M  V30 290 H 26.1687 2.41773 -3.40493 0
M  V30 291 N 26.6058 1.57591 -0.0167156 0
M  V30 292 C 27.5378 2.06343 0.997753 0
M  V30 293 C 28.5508 0.984469 1.29661 0
M  V30 294 O 29.7398 1.26093 1.26344 0
M  V30 295 C 26.8398 2.46255 2.32834 0
M  V30 296 C 26.0128 3.77083 2.21646 0
M  V30 297 C 25.0718 4.0368 3.37534 0
M  V30 298 O 24.0978 4.7411 3.14973 0
M  V30 299 N 25.2998 3.52881 4.60929 0
M  V30 300 H 28.0648 2.93997 0.581875 0
M  V30 301 H 25.6258 1.61002 0.170316 0
M  V30 302 H 27.6178 2.61149 3.09166 0
M  V30 303 H 26.1878 1.64032 2.66106 0
M  V30 304 H 25.4078 3.72106 1.30119 0
M  V30 305 H 26.6958 4.62822 2.11361 0
M  V30 306 H 26.0938 2.95878 4.82154 0
M  V30 307 H 24.6508 3.73076 5.34469 0
M  V30 308 N 28.0839 -0.256276 1.55502 0
M  V30 309 C 29.0469 -1.30047 1.88734 0
M  V30 310 C 30.0469 -1.4154 0.763086 0
M  V30 311 O 31.2369 -1.40403 1.03115 0
M  V30 312 C 28.3689 -2.67953 2.10747 0
M  V30 313 H 29.5619 -1.01802 2.82093 0
M  V30 314 H 27.1149 -0.495134 1.4825 0
M  V30 315 H 27.8499 -3.01351 1.19825 0
M  V30 316 H 27.6349 -2.60993 2.92617 0
M  V30 317 H 29.1249 -3.43368 2.37673 0
M  V30 318 N 29.562 -1.4872 -0.521534 0
M  V30 319 C 30.525 -1.63379 -1.60748 0
M  V30 320 C 31.525 -0.50661 -1.52611 0
M  V30 321 O 32.715 -0.772601 -1.5613 0
M  V30 322 C 29.847 -1.61192 -3.00383 0
M  V30 323 H 31.04 -2.60217 -1.49087 0
M  V30 324 H 28.593 -1.37444 -0.744235 0
M  V30 325 H 29.328 -0.65863 -3.17541 0
M  V30 326 H 29.113 -2.43032 -3.07698 0
M  V30 327 H 30.603 -1.7466 -3.7932 0
M  V30 328 N 31.0401 0.771051 -1.3745 0
M  V30 329 C 32.3171 1.519 -1.23231 0
M  V30 330 C 32.6971 2.10383 0.173809 0
M  V30 331 O 32.0451 1.95583 1.18151 0
M  V30 332 C 32.2551 2.59933 -2.32886 0
M  V30 333 C 33.6031 3.27316 -2.70461 0
M  V30 334 O 34.6271 2.70228 -2.32068 0
M  V30 335 O 33.4861 4.30531 -3.36608 0
M  V30 336 H 30.5801 0.672803 -0.480901 0
M  V30 337 H 33.1261 0.807957 -1.49232 0
M  V30 338 H 31.8981 2.14842 -3.27045 0
M  V30 339 H 31.5211 3.38637 -2.08353 0
M  V30 340 N 32.5182 1.22032 0.997298 0
M  V30 341 C 33.4512 0.929735 2.08401 0
M  V30 342 C 34.4292 -0.125681 1.62114 0
M  V30 343 O 35.6132 0.00495409 1.88499 0
M  V30 344 C 32.7402 0.397488 3.3636 0
M  V30 345 C 31.7862 1.4369 4.01566 0
M  V30 346 S 32.6192 3.00874 4.42984 0
M  V30 347 C 33.7752 2.49276 5.74119 0
M  V30 348 H 34.0082 1.84998 2.32729 0
M  V30 349 H 31.5412 1.0509 1.13117 0
M  V30 350 H 33.4992 0.0969846 4.10385 0
M  V30 351 H 32.1602 -0.501571 3.10069 0
M  V30 352 H 31.3532 1.01427 4.93689 0
M  V30 353 H 30.9552 1.68588 3.33847 0
M  V30 354 H 33.2472 1.90242 6.50242 0
M  V30 355 H 34.1902 3.39872 6.21203 0
M  V30 356 H 34.5982 1.90714 5.31308 0
M  V30 357 N 33.9963 -1.19345 1.0293 0
M  V30 358 C 35.2443 -1.88665 0.724574 0
M  V30 359 C 35.5653 -1.80036 -0.749144 0
M  V30 360 O 34.8353 -1.2111 -1.53978 0
M  V30 361 H 33.4153 -0.698406 0.265025 0
M  V30 362 H 36.0773 -1.44885 1.30362 0
M  V30 363 H 35.1733 -2.94987 1.01926 0
M  V30 364 N 35.4744 -0.807222 -1.35358 0
M  V30 365 C 36.3844 -0.219594 -2.3357 0
M  V30 366 C 37.4004 0.637734 -1.61892 0
M  V30 367 O 38.5764 0.549336 -1.93763 0
M  V30 368 C 35.6414 0.62158 -3.41083 0
M  V30 369 C 34.7024 -0.256315 -4.28534 0
M  V30 370 C 33.9354 0.544807 -5.30912 0
M  V30 371 O 34.1584 1.77944 -5.41934 0
M  V30 372 O 33.0924 -0.0646478 -6.01865 0
M  V30 373 H 36.9184 -1.03208 -2.85625 0
M  V30 374 H 34.5034 -0.569025 -1.38139 0
M  V30 375 H 36.3854 1.10067 -4.06772 0
M  V30 376 H 35.0604 1.41165 -2.91297 0
M  V30 377 H 33.9674 -0.782559 -3.65823 0
M  V30 378 H 35.3004 -1.01034 -4.81719 0
M  V30 379 N 36.9525 1.47285 -0.560781 0
M  V30 380 C 37.8995 2.30058 0.18491 0
M  V30 381 C 38.8695 1.39281 0.904986 0
M  V30 382 O 40.0545 1.68241 0.899979 0
M  V30 383 C 37.1945 3.23317 1.20666 0
M  V30 384 C 36.3075 4.29186 0.492285 0
M  V30 385 C 35.4425 5.09592 1.49964 0
M  V30 386 C 34.4815 6.07232 0.770439 0
M  V30 387 N 33.6185 6.80584 1.72479 0
M  V30 388 H 38.4585 2.93302 -0.527048 0
M  V30 389 H 35.9955 1.44568 -0.271738 0
M  V30 390 H 37.9535 3.75811 1.81168 0
M  V30 391 H 36.5835 2.61929 1.88661 0
M  V30 392 H 35.6355 3.7972 -0.227333 0
M  V30 393 H 36.9475 4.98738 -0.0787929 0
M  V30 394 H 36.1015 5.66254 2.17809 0
M  V30 395 H 34.8405 4.3995 2.10464 0
M  V30 396 H 33.8455 5.49745 0.0780846 0
M  V30 397 H 35.0705 6.78884 0.171134 0
M  V30 398 H 33.0165 6.1367 2.3183 0
M  V30 399 H 32.9335 7.46319 1.20596 0
M  V30 400 H 34.2015 7.41818 2.39428 0
M  V30 401 N 38.4306 0.297415 1.54768 0
M  V30 402 C 39.6776 -0.312913 2.00068 0
M  V30 403 C 40.0056 -1.54171 1.18582 0
M  V30 404 O 39.2606 -1.94108 0.249133 0
M  V30 405 C 39.5596 -0.717561 3.50123 0
M  V30 406 C 39.2256 0.409095 4.4904 0
M  V30 407 C 37.8876 0.718399 4.75807 0
M  V30 408 C 40.2396 1.16717 5.07963 0
M  V30 409 C 37.5676 1.78896 5.5876 0
M  V30 410 C 39.9196 2.22762 5.92081 0
M  V30 411 C 38.5836 2.54303 6.1716 0
M  V30 412 H 37.8536 -0.114503 0.7321 0
M  V30 413 H 40.5006 0.415767 1.86932 0
M  V30 414 H 38.8056 -1.52627 3.60849 0
M  V30 415 H 40.5026 -1.20091 3.82595 0
M  V30 416 H 37.0926 0.157918 4.28309 0
M  V30 417 H 41.2766 0.941466 4.87289 0
M  V30 418 H 36.5326 2.0381 5.7643 0
M  V30 419 H 40.7066 2.81962 6.36765 0
M  V30 420 H 38.3336 3.3739 6.81229 0
M  V30 421 N 39.9087 -1.5758 0.0250728 0
M  V30 422 C 41.1857 -1.82917 -0.692873 0
M  V30 423 C 41.5657 -0.908137 -1.90568 0
M  V30 424 O 40.9137 0.0372298 -2.2847 0
M  V30 425 C 41.1237 -3.32034 -1.07492 0
M  V30 426 C 42.4717 -3.98406 -1.46826 0
M  V30 427 O 43.4957 -3.36505 -1.16801 0
M  V30 428 O 42.3547 -5.07497 -2.02754 0
M  V30 429 H 39.4487 -0.754079 -0.33955 0
M  V30 430 H 41.9947 -1.69619 0.0524456 0
M  V30 431 H 40.7667 -3.90728 -0.211552 0
M  V30 432 H 40.3897 -3.50424 -1.87854 0
M  V30 433 N 41.3868 0.248026 -1.55636 0
M  V30 434 C 42.3498 1.29044 -1.89421 0
M  V30 435 C 43.3498 1.41134 -0.770581 0
M  V30 436 O 44.5398 1.39854 -1.03858 0
M  V30 437 C 41.6718 2.66831 -2.12165 0
M  V30 438 H 42.8648 1.00305 -2.82629 0
M  V30 439 H 40.4178 0.487265 -1.48511 0
M  V30 440 H 41.1528 3.00711 -1.21422 0
M  V30 441 H 40.9378 2.59438 -2.93997 0
M  V30 442 H 42.4278 3.42103 -2.3949 0
M  V30 443 N 42.8649 1.48995 0.513639 0
M  V30 444 C 44.0929 1.61531 1.29288 0
M  V30 445 C 44.5079 0.281801 1.86685 0
M  V30 446 O 43.8649 -0.731111 1.67215 0
M  V30 447 C 43.9159 2.67449 2.43215 0
M  V30 448 O 43.6369 3.95626 1.88179 0
M  V30 449 C 45.1379 2.90575 3.34785 0
M  V30 450 H 42.3579 0.544165 0.392588 0
M  V30 451 H 44.9019 1.9494 0.617956 0
M  V30 452 H 43.0569 2.36853 3.0656 0
M  V30 453 H 43.4709 4.53868 2.62876 0
M  V30 454 H 44.9449 3.68449 4.11035 0
M  V30 455 H 45.4219 2.00011 3.91015 0
M  V30 456 H 46.0279 3.22538 2.77218 0
M  V30 457 N 44.343 -0.763751 1.37857 0
M  V30 458 C 45.59 -1.52257 1.33506 0
M  V30 459 C 45.918 -1.94343 -0.078022 0
M  V30 460 O 45.173 -1.64958 -1.05297 0
M  V30 461 C 45.472 -2.79499 2.22745 0
M  V30 462 C 45.138 -2.56426 3.70886 0
M  V30 463 C 43.8 -2.49842 4.11257 0
M  V30 464 C 46.152 -2.36008 4.64704 0
M  V30 465 C 43.48 -2.20841 5.43549 0
M  V30 466 C 45.832 -2.0853 5.97242 0
M  V30 467 C 44.496 -2.00396 6.36709 0
M  V30 468 H 43.766 -0.557149 0.488534 0
M  V30 469 H 46.413 -0.879073 1.70131 0
M  V30 470 H 44.718 -3.48447 1.79142 0
M  V30 471 H 46.415 -3.37413 2.16688 0
M  V30 472 H 43.005 -2.62416 3.38874 0
M  V30 473 H 47.189 -2.40079 4.34368 0
M  V30 474 H 42.445 -2.13045 5.73081 0
M  V30 475 H 46.619 -1.91732 6.69486 0
M  V30 476 H 44.246 -1.77688 7.39142 0
M  V30 477 N 45.8211 -1.22559 -0.990812 0
M  V30 478 C 46.7681 -0.997519 -2.0813 0
M  V30 479 C 47.7381 0.0814702 -1.659 0
M  V30 480 O 48.9231 -0.0685424 -1.90677 0
M  V30 481 C 46.0631 -0.583615 -3.40129 0
M  V30 482 C 45.1761 -1.7336 -3.9569 0
M  V30 483 C 44.3111 -1.26748 -5.15857 0
M  V30 484 C 43.3501 -2.38888 -5.63559 0
M  V30 485 N 42.4871 -1.93308 -6.74964 0
M  V30 486 H 47.3271 -1.93099 -2.26973 0
M  V30 487 H 44.8641 -0.962114 -1.11273 0
M  V30 488 H 46.8221 -0.324801 -4.15934 0
M  V30 489 H 45.4521 0.312845 -3.2128 0
M  V30 490 H 44.5041 -2.10669 -3.16738 0
M  V30 491 H 45.8161 -2.57704 -4.27071 0
M  V30 492 H 44.9701 -0.966173 -5.98957 0
M  V30 493 H 43.7091 -0.394272 -4.86104 0
M  V30 494 H 42.7141 -2.69805 -4.79046 0
M  V30 495 H 43.9391 -3.26728 -5.95336 0
M  V30 496 H 41.8851 -1.08352 -6.4699 0
M  V30 497 H 41.8021 -2.71217 -7.05675 0
M  V30 498 H 43.0701 -1.66252 -7.61564 0
M  V30 499 N 47.2992 1.18797 -1.03562 0
M  V30 500 C 48.2622 2.20464 -0.626769 0
M  V30 501 C 49.2622 1.57721 0.313173 0
M  V30 502 O 50.4522 1.73917 0.0992615 0
M  V30 503 C 47.5842 3.40802 0.0818498 0
M  V30 504 H 48.7772 2.58149 -1.5264 0
M  V30 505 H 46.3302 1.32593 -0.827578 0
M  V30 506 H 47.0652 3.08642 0.995518 0
M  V30 507 H 46.8502 3.8758 -0.593652 0
M  V30 508 H 48.3402 4.16092 0.354584 0
M  V30 509 N 48.7773 0.814389 1.34928 0
M  V30 510 C 49.7093 0.187834 2.28429 0
M  V30 511 C 50.7223 -0.617374 1.5064 0
M  V30 512 O 51.9113 -0.448454 1.72775 0
M  V30 513 C 49.0113 -0.755962 3.30361 0
M  V30 514 C 48.1843 0.00456686 4.374 0
M  V30 515 C 47.2433 -0.858876 5.19143 0
M  V30 516 O 46.2693 -0.306968 5.68372 0
M  V30 517 N 47.4713 -2.17988 5.38016 0
M  V30 518 H 50.2363 0.991105 2.82838 0
M  V30 519 H 47.7973 0.670561 1.4736 0
M  V30 520 H 49.7893 -1.338 3.81942 0
M  V30 521 H 48.3593 -1.46001 2.7641 0
M  V30 522 H 47.5793 0.767865 3.86649 0
M  V30 523 H 48.8673 0.528422 5.06049 0
M  V30 524 H 48.2653 -2.65212 4.99679 0
M  V30 525 H 46.8223 -2.71098 5.92747 0
M  V30 526 N 50.2554 -1.46986 0.568584 0
M  V30 527 C 51.5014 -2.02741 0.0488709 0
M  V30 528 C 51.8344 -1.44077 -1.30214 0
M  V30 529 O 51.1094 -0.600552 -1.84996 0
M  V30 530 C 51.3924 -3.60086 -0.032047 0
M  V30 531 C 51.2454 -4.29162 1.34686 0
M  V30 532 C 52.5644 -4.33838 -0.739798 0
M  V30 533 H 49.6834 -0.736749 0.0192338 0
M  V30 534 H 52.3254 -1.75289 0.733065 0
M  V30 535 H 50.4754 -3.83606 -0.61473 0
M  V30 536 H 52.1474 -4.16948 1.97362 0
M  V30 537 H 50.3904 -3.89073 1.91846 0
M  V30 538 H 51.0614 -5.37826 1.24285 0
M  V30 539 H 53.5374 -4.15378 -0.244939 0
M  V30 540 H 52.4134 -5.43537 -0.765406 0
M  V30 541 H 52.6744 -4.03875 -1.79827 0
M  V30 542 N 51.7335 -0.305618 -1.54608 0
M  V30 543 C 52.6805 0.568421 -2.23691 0
M  V30 544 C 53.6505 1.12592 -1.22116 0
M  V30 545 O 54.8355 1.16959 -1.50749 0
M  V30 546 C 51.9755 1.7322 -2.98477 0
M  V30 547 C 51.0885 1.20566 -4.14835 0
M  V30 548 C 50.2235 2.33368 -4.77193 0
M  V30 549 C 49.2625 1.7787 -5.85686 0
M  V30 550 N 48.3995 2.84263 -6.4198 0
M  V30 551 H 53.2395 -0.0272867 -2.97988 0
M  V30 552 H 50.7765 -0.0252363 -1.47078 0
M  V30 553 H 52.7345 2.41675 -3.40072 0
M  V30 554 H 51.3645 2.29947 -2.26548 0
M  V30 555 H 50.4165 0.413223 -3.78149 0
M  V30 556 H 51.7285 0.759417 -4.92985 0
M  V30 557 H 50.8825 3.09761 -5.21664 0
M  V30 558 H 49.6215 2.8132 -3.98385 0
M  V30 559 H 48.6265 0.99968 -5.40635 0
M  V30 560 H 49.8515 1.30816 -6.66381 0
M  V30 561 H 47.7975 3.31541 -5.66053 0
M  V30 562 H 47.7145 2.44149 -7.15491 0
M  V30 563 H 48.9825 3.6054 -6.91109 0
M  V30 564 N 53.2116 1.57565 -0.0334293 0
M  V30 565 C 54.1746 2.09393 0.932048 0
M  V30 566 C 55.1746 1.00986 1.25134 0
M  V30 567 O 56.3646 1.27129 1.19096 0
M  V30 568 C 53.4966 2.56338 2.2473 0
M  V30 569 H 54.6896 2.95984 0.483085 0
M  V30 570 H 52.2426 1.54819 0.21468 0
M  V30 571 H 52.9776 1.7309 2.74245 0
M  V30 572 H 52.7626 3.35542 2.02865 0
M  V30 573 H 54.2526 2.96646 2.93923 0
M  V30 574 N 54.6897 -0.239769 1.55765 0
M  V30 575 C 55.6527 -1.28038 1.90103 0
M  V30 576 C 56.6527 -1.40723 0.778055 0
M  V30 577 O 57.8427 -1.39301 1.04599 0
M  V30 578 C 54.9747 -2.65702 2.13577 0
M  V30 579 H 56.1677 -0.988048 2.83157 0
M  V30 580 H 53.7207 -0.479382 1.48767 0
M  V30 581 H 54.4557 -3.00063 1.23015 0
M  V30 582 H 54.2407 -2.57875 2.95369 0
M  V30 583 H 55.7307 -3.40828 2.41301 0
M  V30 584 N 56.1678 -1.49265 -0.50573 0
M  V30 585 C 57.1148 -1.65585 -1.6078 0
M  V30 586 C 58.0848 -0.497396 -1.58478 0
M  V30 587 O 59.2698 -0.72385 -1.76536 0
M  V30 588 C 56.4098 -1.72408 -2.98948 0
M  V30 589 C 55.5228 -2.99525 -3.11301 0
M  V30 590 C 54.6578 -2.97356 -4.40174 0
M  V30 591 C 53.6968 -4.19074 -4.46143 0
M  V30 592 N 52.8338 -4.14841 -5.66437 0
M  V30 593 H 57.6738 -2.59688 -1.46172 0
M  V30 594 H 55.2108 -1.28761 -0.711261 0
M  V30 595 H 57.1688 -1.74344 -3.79025 0
M  V30 596 H 55.7988 -0.817753 -3.1227 0
M  V30 597 H 54.8508 -3.07222 -2.24318 0
M  V30 598 H 56.1628 -3.89518 -3.11572 0
M  V30 599 H 55.3168 -2.97829 -5.28567 0
M  V30 600 H 54.0558 -2.05133 -4.42461 0
M  V30 601 H 53.0608 -4.1885 -3.56153 0
M  V30 602 H 54.2858 -5.12483 -4.45575 0
M  V30 603 H 52.2318 -3.25453 -5.69575 0
M  V30 604 H 52.1488 -4.98564 -5.68304 0
M  V30 605 H 53.4168 -4.1941 -6.57051 0
M  V30 606 N 57.6459 0.756429 -1.3826 0
M  V30 607 C 58.6089 1.85176 -1.35065 0
M  V30 608 C 59.6089 1.58818 -0.251703 0
M  V30 609 O 60.7989 1.66615 -0.508433 0
M  V30 610 C 57.9309 3.22596 -1.10201 0
M  V30 611 H 59.1239 1.89417 -2.3251 0
M  V30 612 H 56.6769 0.95783 -1.23512 0
M  V30 613 H 57.4119 3.24025 -0.133504 0
M  V30 614 H 57.1969 3.43122 -1.89762 0
M  V30 615 H 58.6869 4.02673 -1.10654 0
M  V30 616 N 59.124 1.23083 0.984299 0
M  V30 617 C 60.401 0.9689 1.69917 0
M  V30 618 C 60.781 -0.513604 2.04757 0
M  V30 619 O 60.129 -1.48383 1.73767 0
M  V30 620 C 60.339 1.87518 2.94343 0
M  V30 621 C 61.687 2.13636 3.6694 0
M  V30 622 O 62.711 1.85036 3.04368 0
M  V30 623 O 61.57 2.62119 4.79537 0
M  V30 624 H 58.664 0.365095 0.742048 0
M  V30 625 H 61.21 1.34107 1.03987 0
M  V30 626 H 59.982 2.87756 2.65164 0
M  V30 627 H 59.605 1.50514 3.6801 0
M  V30 628 N 60.6021 -1.18246 1.0419 0
M  V30 629 C 61.5351 -2.20746 0.578474 0
M  V30 630 C 62.5131 -1.57912 -0.387624 0
M  V30 631 O 63.6971 -1.86071 -0.301634 0
M  V30 632 C 60.8241 -3.38346 -0.154762 0
M  V30 633 C 59.8701 -4.19587 0.764782 0
M  V30 634 S 60.7031 -4.86014 2.24835 0
M  V30 635 C 61.8591 -6.07012 1.526 0
M  V30 636 H 62.0921 -2.59715 1.44691 0
M  V30 637 H 59.6251 -1.287 0.85297 0
M  V30 638 H 61.5831 -4.065 -0.571641 0
M  V30 639 H 60.2441 -2.97786 -0.999105 0
M  V30 640 H 59.4371 -5.03611 0.197976 0
M  V30 641 H 59.0391 -3.56818 1.12057 0
M  V30 642 H 61.3311 -6.72523 0.819733 0
M  V30 643 H 62.2741 -6.68202 2.34333 0
M  V30 644 H 62.6821 -5.55249 1.01779 0
M  V30 645 N 62.0802 -0.821533 -1.34494 0
M  V30 646 C 63.3262 -0.409552 -1.98622 0
M  V30 647 C 63.6592 1.0244 -1.64984 0
M  V30 648 O 62.9342 1.71325 -0.920758 0
M  V30 649 C 63.2172 -0.610458 -3.54888 0
M  V30 650 C 63.0702 -2.09043 -3.98273 0
M  V30 651 C 64.3892 -0.0455379 -4.40076 0
M  V30 652 H 61.5082 -0.15028 -0.721516 0
M  V30 653 H 64.1502 -1.03384 -1.59411 0
M  V30 654 H 62.3002 -0.079044 -3.8842 0
M  V30 655 H 63.9722 -2.68537 -3.75081 0
M  V30 656 H 62.2152 -2.58139 -3.48635 0
M  V30 657 H 62.8862 -2.18182 -5.07051 0
M  V30 658 H 65.3622 -0.499557 -4.1309 0
M  V30 659 H 64.2382 -0.215922 -5.48475 0
M  V30 660 H 64.4992 1.04939 -4.29465 0
M  V30 661 N 63.5583 1.46682 -0.576371 0
M  V30 662 C 64.4913 2.27243 0.208731 0
M  V30 663 C 65.4693 1.35238 0.902746 0
M  V30 664 O 66.6533 1.64641 0.917904 0
M  V30 665 C 63.7803 3.12802 1.29896 0
M  V30 666 C 62.8263 4.20524 0.711457 0
M  V30 667 S 63.6593 5.33548 -0.456781 0
M  V30 668 C 64.8153 6.22673 0.634798 0
M  V30 669 H 65.0483 2.93484 -0.474838 0
M  V30 670 H 62.5813 1.50069 -0.363118 0
M  V30 671 H 64.5393 3.62661 1.92321 0
M  V30 672 H 63.2003 2.45887 1.95444 0
M  V30 673 H 62.3933 4.80191 1.53076 0
M  V30 674 H 61.9953 3.73645 0.162999 0
M  V30 675 H 64.2873 6.60181 1.52209 0
M  V30 676 H 65.2303 7.0806 0.0750311 0
M  V30 677 H 65.6383 5.56684 0.936092 0
M  V30 678 N 65.0364 0.313813 1.54444 0
M  V30 679 C 65.9664 -0.549454 2.26943 0
M  V30 680 C 66.9474 -1.12741 1.27372 0
M  V30 681 O 68.1324 -1.15436 1.56167 0
M  V30 682 C 65.2624 -1.71523 3.01989 0
M  V30 683 C 64.2164 -1.26703 4.08816 0
M  V30 684 C 63.5424 -2.51898 4.71647 0
M  V30 685 C 64.8424 -0.388962 5.2085 0
M  V30 686 H 66.5364 0.0552661 2.99349 0
M  V30 687 H 64.0824 0.0280207 1.43973 0
M  V30 688 H 66.0354 -2.32535 3.51433 0
M  V30 689 H 64.7594 -2.34639 2.27183 0
M  V30 690 H 63.4184 -0.679896 3.6024 0
M  V30 691 H 63.0664 -3.13356 3.93468 0
M  V30 692 H 62.7664 -2.22605 5.43802 0
M  V30 693 H 64.2904 -3.1369 5.23861 0
M  V30 694 H 65.7044 -0.905107 5.6611 0
M  V30 695 H 64.1014 -0.18924 5.99802 0
M  V30 696 H 65.1714 0.582699 4.81386 0
M  V30 697 N 66.5145 -1.57545 0.0417849 0
M  V30 698 C 67.7395 -1.97035 -0.647455 0
M  V30 699 C 68.1645 -0.918775 -1.64135 0
M  V30 700 O 67.5225 0.119006 -1.80909 0
M  V30 701 C 67.5705 -3.35609 -1.31905 0
M  V30 702 O 66.6745 -3.3287 -2.43457 0
M  V30 703 H 66.0155 -0.64211 -0.169086 0
M  V30 704 H 68.5455 -2.04318 0.107399 0
M  V30 705 H 68.5555 -3.72126 -1.67291 0
M  V30 706 H 67.2305 -4.11685 -0.590586 0
M  V30 707 H 65.8075 -3.08087 -2.10088 0
M  V30 708 N 67.9926 0.231505 -1.5589 0
M  V30 709 C 69.4036 0.799327 -1.68724 0
M  V30 710 C 69.7546 1.85398 -0.642022 0
M  V30 711 O 68.8796 2.1539 0.208784 0
M  V30 712 C 69.4746 1.45664 -3.05888 0
M  V30 713 C 68.0336 1.97197 -3.20609 0
M  V30 714 C 67.1806 0.828552 -2.64632 0
M  V30 715 H 70.1316 0.00702616 -1.58698 0
M  V30 716 H 70.1526 2.32517 -3.01191 0
M  V30 717 H 69.6646 0.688808 -3.81939 0
M  V30 718 H 67.7656 2.76813 -2.4941 0
M  V30 719 H 67.8786 2.15878 -4.27707 0
M  V30 720 H 66.2426 1.23321 -2.22854 0
M  V30 721 H 67.0256 0.0735544 -3.43221 0
M  V30 722 N 69.4707 1.49531 0.497807 0
M  V30 723 C 70.4177 1.66436 1.59899 0
M  V30 724 C 71.3877 0.505793 1.58212 0
M  V30 725 O 72.5727 0.733202 1.7615 0
M  V30 726 C 69.7127 1.7399 2.98029 0
M  V30 727 C 68.8257 3.01172 3.09708 0
M  V30 728 C 67.9607 2.99686 4.38591 0
M  V30 729 C 66.9997 4.21434 4.43914 0
M  V30 730 N 66.1367 4.1784 5.64229 0
M  V30 731 H 70.9767 2.60459 1.44793 0
M  V30 732 H 68.5137 1.29137 0.704423 0
M  V30 733 H 70.4717 1.76352 3.78095 0
M  V30 734 H 69.1017 0.834301 3.11832 0
M  V30 735 H 68.1537 3.08408 2.22685 0
M  V30 736 H 69.4657 3.91165 3.09502 0
M  V30 737 H 68.6197 3.00628 5.2698 0
M  V30 738 H 67.3587 2.07477 4.41367 0
M  V30 739 H 66.3637 4.20733 3.53926 0
M  V30 740 H 67.5887 5.14839 4.42851 0
M  V30 741 H 65.5347 3.28469 5.67841 0
M  V30 742 H 65.4517 5.01571 5.65652 0
M  V30 743 H 66.7197 4.22889 6.54817 0
M  V30 744 N 70.9488 -0.749086 1.3866 0
M  V30 745 C 72.2258 -1.4992 1.25632 0
M  V30 746 C 72.6058 -2.10633 -0.140317 0
M  V30 747 O 71.9538 -1.97437 -1.15025 0
M  V30 748 C 72.1638 -2.56195 2.36992 0
M  V30 749 C 73.5118 -3.22972 2.75634 0
M  V30 750 O 74.5358 -2.66502 2.36337 0
M  V30 751 O 73.3948 -4.25122 3.43415 0
M  V30 752 H 70.4888 -0.665067 0.491544 0
M  V30 753 H 73.0348 -0.784113 1.50498 0
M  V30 754 H 71.8068 -2.09612 3.30422 0
M  V30 755 H 71.4298 -3.35279 2.13714 0
M  V30 756 N 72.4269 -1.23603 -0.977757 0
M  V30 757 C 73.3899 -1.02069 -2.05218 0
M  V30 758 C 74.3899 0.0184305 -1.60789 0
M  V30 759 O 75.5799 -0.221569 -1.72785 0
M  V30 760 C 72.7119 -0.544926 -3.36517 0
M  V30 761 H 73.9049 -1.9742 -2.25755 0
M  V30 762 H 71.4579 -1.05684 -1.15155 0
M  V30 763 H 72.1929 0.412241 -3.21669 0
M  V30 764 H 71.9779 -1.2948 -3.70105 0
M  V30 765 H 73.4679 -0.414985 -4.15533 0
M  V30 766 N 73.905 1.17692 -1.04816 0
M  V30 767 C 75.135 1.91508 -0.775128 0
M  V30 768 C 75.543 1.76844 0.67253 0
M  V30 769 O 74.886 1.10057 1.47082 0
M  V30 770 C 74.948 3.43167 -1.0713 0
M  V30 771 C 74.612 3.81612 -2.51438 0
M  V30 772 C 75.609 3.84772 -3.49638 0
M  V30 773 C 73.294 4.12687 -2.86348 0
M  V30 774 C 75.288 4.18469 -4.80794 0
M  V30 775 C 72.975 4.46053 -4.17708 0
M  V30 776 C 73.973 4.48921 -5.14741 0
M  V30 777 O 73.661 4.81504 -6.43746 0
M  V30 778 H 73.393 0.614575 -0.281555 0
M  V30 779 H 75.947 1.50206 -1.40098 0
M  V30 780 H 74.177 3.84745 -0.388342 0
M  V30 781 H 75.866 3.98239 -0.784883 0
M  V30 782 H 76.632 3.60893 -3.24008 0
M  V30 783 H 72.511 4.09627 -2.11486 0
M  V30 784 H 76.055 4.20623 -5.56527 0
M  V30 785 H 71.952 4.69393 -4.43103 0
M  V30 786 H 72.72 4.99377 -6.4851 0
M  V30 787 N 75.3831 0.828654 1.34056 0
M  V30 788 C 76.3301 0.252567 2.29414 0
M  V30 789 C 77.3001 -0.62588 1.53857 0
M  V30 790 O 78.4851 -0.566312 1.82202 0
M  V30 791 C 75.6251 -0.574831 3.40279 0
M  V30 792 C 74.7381 0.326499 4.30764 0
M  V30 793 C 73.8731 -0.511016 5.28736 0
M  V30 794 C 72.9121 0.389342 6.1086 0
M  V30 795 N 72.0491 -0.409439 7.00905 0
M  V30 796 H 76.8891 1.07108 2.78086 0
M  V30 797 H 74.4261 0.539677 1.36843 0
M  V30 798 H 76.3841 -1.06992 4.03248 0
M  V30 799 H 75.0141 -1.35841 2.92826 0
M  V30 800 H 74.0661 0.939837 3.68607 0
M  V30 801 H 75.3781 1.01857 4.88289 0
M  V30 802 H 74.5321 -1.07035 5.97184 0
M  V30 803 H 73.2711 -1.23657 4.71763 0
M  V30 804 H 72.2761 0.960769 5.4134 0
M  V30 805 H 73.5011 1.1131 6.69916 0
M  V30 806 H 71.4471 -1.11856 6.46393 0
M  V30 807 H 71.3641 0.224126 7.55668 0
M  V30 808 H 72.6321 -0.951336 7.73673 0
M  V30 809 N 76.8612 -1.46375 0.584142 0
M  V30 810 C 77.7912 -2.33103 -0.136037 0
M  V30 811 C 78.7722 -1.45431 -0.882255 0
M  V30 812 O 79.9572 -1.74246 -0.857434 0
M  V30 813 C 77.0872 -3.27731 -1.14933 0
M  V30 814 C 76.0412 -4.24855 -0.517862 0
M  V30 815 C 75.3672 -5.09001 -1.63773 0
M  V30 816 C 76.6672 -5.19439 0.545886 0
M  V30 817 H 78.3612 -2.93568 0.588086 0
M  V30 818 H 75.9072 -1.41166 0.284259 0
M  V30 819 H 77.8602 -3.87261 -1.66153 0
M  V30 820 H 76.5842 -2.65377 -1.90375 0
M  V30 821 H 75.2432 -3.6659 -0.0267361 0
M  V30 822 H 74.8912 -4.43031 -2.38185 0
M  V30 823 H 74.5912 -5.74777 -1.22085 0
M  V30 824 H 76.1152 -5.71396 -2.15266 0
M  V30 825 H 77.5292 -5.73177 0.118704 0
M  V30 826 H 75.9262 -5.93566 0.88317 0
M  V30 827 H 76.9962 -4.63285 1.43162 0
M  V30 828 N 78.3393 -0.321999 -1.54275 0
M  V30 829 C 79.2693 0.537411 -2.27231 0
M  V30 830 C 80.2503 1.12064 -1.27968 0
M  V30 831 O 81.4353 1.14606 -1.56777 0
M  V30 832 C 78.5653 1.69919 -3.02894 0
M  V30 833 C 77.5193 1.24534 -4.09482 0
M  V30 834 C 76.8453 2.49394 -4.72977 0
M  V30 835 C 78.1453 0.361335 -5.21049 0
M  V30 836 H 79.8393 -0.0711406 -2.99315 0
M  V30 837 H 77.3853 -0.0356555 -1.43956 0
M  V30 838 H 79.3383 2.30668 -3.52662 0
M  V30 839 H 78.0623 2.33431 -2.28424 0
M  V30 840 H 76.7213 0.660782 -3.60596 0
M  V30 841 H 76.3693 3.11265 -3.95124 0
M  V30 842 H 76.0693 2.19718 -5.44975 0
M  V30 843 H 77.5933 3.10908 -5.25517 0
M  V30 844 H 79.0073 0.875072 -5.66582 0
M  V30 845 H 77.4043 0.157428 -5.99893 0
M  V30 846 H 78.4743 -0.60822 -4.8107 0
M  V30 847 N 79.8174 1.5752 -0.0501392 0
M  V30 848 C 80.7494 2.08413 0.95376 0
M  V30 849 C 81.7624 1.01175 1.27544 0
M  V30 850 O 82.9514 1.28744 1.23641 0
M  V30 851 C 80.0514 2.51138 2.27559 0
M  V30 852 C 79.2244 3.817 2.13598 0
M  V30 853 C 78.2834 4.10749 3.28895 0
M  V30 854 O 77.3094 4.80685 3.04845 0
M  V30 855 N 78.5114 3.62579 4.5334 0
M  V30 856 H 81.2764 2.95165 0.519383 0
M  V30 857 H 78.8374 1.61327 0.136127 0
M  V30 858 H 80.8294 2.67648 3.03557 0
M  V30 859 H 79.3994 1.6964 2.62567 0
M  V30 860 H 78.6194 3.74782 1.22197 0
M  V30 861 H 79.9074 4.67201 2.01496 0
M  V30 862 H 79.3054 3.06039 4.75769 0
M  V30 863 H 77.8624 3.84329 5.26436 0
M  V30 864 N 81.2955 -0.223234 1.56011 0
M  V30 865 C 82.2055 -1.29766 1.95443 0
M  V30 866 C 83.2215 -1.51373 0.858028 0
M  V30 867 O 84.3975 -1.64536 1.16146 0
M  V30 868 C 81.4625 -2.62772 2.26167 0
M  V30 869 C 80.5235 -2.49482 3.49367 0
M  V30 870 C 79.7565 -3.76145 3.78616 0
M  V30 871 O 79.9795 -4.79087 3.09568 0
M  V30 872 O 78.9135 -3.73358 4.72109 0
M  V30 873 H 82.7395 -0.99309 2.87004 0
M  V30 874 H 80.3245 -0.425958 1.43199 0
M  V30 875 H 82.2065 -3.41327 2.47131 0
M  V30 876 H 80.8815 -2.92913 1.37781 0
M  V30 877 H 79.7885 -1.69133 3.33684 0
M  V30 878 H 81.1215 -2.2428 4.38131 0
M  V30 879 N 82.7736 -1.49793 -0.48987 0
M  V30 880 C 83.7216 -1.67783 -1.61095 0
M  V30 881 C 84.7156 -0.543683 -1.60438 0
M  V30 882 O 85.9216 -0.723647 -1.64813 0
M  V30 883 H 82.2966 -0.529255 -0.534222 0
M  V30 884 H 84.2676 -2.61861 -1.43078 0
M  V30 885 C 83.0166 -1.77191 -2.99164 0
M  V30 886 H 82.3396 -2.63841 -3.0038 0
M  V30 887 H 83.7796 -1.93809 -3.77113 0
M  V30 888 C 82.2386 -0.519203 -3.32875 0
M  V30 889 O 82.7686 0.350124 -4.00171 0
M  V30 890 N 80.9746 -0.378816 -2.8812 0
M  V30 891 H 80.5216 -1.08725 -2.33531 0
M  V30 892 H 80.4796 0.458239 -3.11043 0
M  V30 893 N 84.2517 0.741722 -1.39055 0
M  V30 894 C 85.6627 1.31966 -1.32068 0
M  V30 895 C 86.0137 1.96192 0.0180797 0
M  V30 896 O 85.1387 1.95861 0.920196 0
M  V30 897 C 85.7337 2.39954 -2.39181 0
M  V30 898 C 84.2927 2.93438 -2.35735 0
M  V30 899 C 83.4397 1.66936 -2.21422 0
M  V30 900 H 86.3907 0.539721 -1.4924 0
M  V30 901 H 86.4117 3.20182 -2.05581 0
M  V30 902 H 85.9237 1.9318 -3.36605 0
M  V30 903 H 84.0247 3.4451 -1.41929 0
M  V30 904 H 84.1377 3.4701 -3.30335 0
M  V30 905 H 82.5017 1.91016 -1.68478 0
M  V30 906 H 83.2847 1.22224 -3.20806 0
M  V30 907 N 85.7298 1.2412 0.971189 0
M  V30 908 C 87.0068 0.986867 1.6888 0
M  V30 909 C 87.3868 -0.491857 2.0529 0
M  V30 910 O 86.7348 -1.46531 1.75331 0
M  V30 911 C 86.9448 1.9063 2.92338 0
M  V30 912 C 88.2928 2.17515 3.64654 0
M  V30 913 O 89.3168 1.88254 3.02388 0
M  V30 914 O 88.1758 2.6719 4.7673 0
M  V30 915 H 85.2698 0.372944 0.738134 0
M  V30 916 H 87.8158 1.35203 1.02559 0
M  V30 917 H 86.5878 2.90552 2.62097 0
M  V30 918 H 86.2108 1.54408 3.66393 0
M  V30 919 N 87.2079 -1.17134 1.05439 0
M  V30 920 C 88.4569 -1.86791 0.761049 0
M  V30 921 C 88.7699 -1.82072 -0.714795 0
M  V30 922 O 89.9759 -2.47223 -1.12218 0
M  V30 923 C 88.4319 -3.35166 1.31117 0
M  V30 924 C 88.0399 -3.48381 2.81664 0
M  V30 925 C 89.7839 -4.10134 1.09499 0
M  V30 926 C 87.6909 -4.90793 3.29964 0
M  V30 927 H 86.6209 -0.699681 0.281002 0
M  V30 928 H 89.2719 -1.3226 1.27199 0
M  V30 929 H 87.6539 -3.8925 0.72803 0
M  V30 930 H 88.8279 -3.04502 3.45855 0
M  V30 931 H 87.1429 -2.86836 3.01851 0
M  V30 932 H 89.7399 -5.152 1.43084 0
M  V30 933 H 90.0829 -4.16287 0.0328772 0
M  V30 934 H 90.6159 -3.62264 1.64346 0
M  V30 935 H 87.3549 -4.89816 4.35616 0
M  V30 936 H 86.8749 -5.35333 2.70516 0
M  V30 937 H 88.5539 -5.59573 3.24787 0
M  V30 938 N 88.686 -0.835752 -1.33615 0
M  V30 939 C 89.914 -0.443344 -2.02094 0
M  V30 940 C 90.329 0.954522 -1.62894 0
M  V30 941 O 89.686 1.61982 -0.840723 0
M  V30 942 C 89.737 -0.550775 -3.5728 0
M  V30 943 O 89.458 -1.89356 -3.95065 0
M  V30 944 C 90.959 -0.154919 -4.43029 0
M  V30 945 H 88.179 -0.176359 -0.647409 0
M  V30 946 H 90.723 -1.12746 -1.70612 0
M  V30 947 H 88.878 0.0853997 -3.87306 0
M  V30 948 H 89.292 -1.87687 -4.89769 0
M  V30 949 H 90.766 -0.281144 -5.51284 0
M  V30 950 H 91.243 0.902863 -4.2982 0
M  V30 951 H 91.849 -0.765404 -4.18356 0
M  V30 952 N 90.1641 1.46063 -0.591896 0
M  V30 953 C 91.0941 2.33172 0.123673 0
M  V30 954 C 92.0751 1.45897 0.87453 0
M  V30 955 O 93.2601 1.74698 0.848181 0
M  V30 956 C 90.3901 3.28336 1.13194 0
M  V30 957 C 89.3441 4.25124 0.495324 0
M  V30 958 C 88.6701 5.09863 1.61071 0
M  V30 959 C 89.9701 5.19143 -0.573425 0
M  V30 960 H 91.6641 2.93252 -0.603646 0
M  V30 961 H 89.2101 1.41014 -0.291741 0
M  V30 962 H 91.1631 3.88137 1.64097 0
M  V30 963 H 89.8871 2.66383 1.88965 0
M  V30 964 H 88.5461 3.66599 0.00729452 0
M  V30 965 H 88.1941 4.44288 2.35832 0
M  V30 966 H 87.8941 5.75417 1.19035 0
M  V30 967 H 89.4181 5.72529 2.12233 0
M  V30 968 H 90.8321 5.73106 -0.1491 0
M  V30 969 H 89.2291 5.93089 -0.914636 0
M  V30 970 H 90.2991 4.62519 -1.45617 0
M  V30 971 N 91.6422 0.330177 1.54103 0
M  V30 972 C 92.8912 -0.271336 1.99867 0
M  V30 973 C 93.2042 -1.52723 1.22209 0
M  V30 974 O 94.4102 -2.20515 1.58383 0
M  V30 975 C 92.8662 -0.534032 3.55916 0
M  V30 976 C 92.4742 0.705193 4.42415 0
M  V30 977 C 94.2182 -1.09514 4.1013 0
M  V30 978 C 92.1252 0.414035 5.89949 0
M  V30 979 H 91.0552 -0.105166 0.74663 0
M  V30 980 H 93.7062 0.443429 1.78062 0
M  V30 981 H 92.0882 -1.30915 3.73734 0
M  V30 982 H 93.2622 1.4804 4.36372 0
M  V30 983 H 91.5772 1.18698 3.99124 0
M  V30 984 H 94.1742 -1.3277 5.17954 0
M  V30 985 H 94.5172 -2.04656 3.62521 0
M  V30 986 H 95.0502 -0.381038 3.95971 0
M  V30 987 H 91.7892 1.33481 6.41766 0
M  V30 988 H 91.3092 -0.323336 5.98928 0
M  V30 989 H 92.9882 0.0263105 6.46995 0
M  V30 990 N 93.1203 -1.57491 0.0584922 0
M  V30 991 C 94.3973 -1.84346 -0.653918 0
M  V30 992 C 94.7773 -0.948355 -1.88599 0
M  V30 993 O 94.1253 -0.0112403 -2.28497 0
M  V30 994 C 94.3353 -3.34239 -1.00425 0
M  V30 995 C 95.6833 -4.01431 -1.38342 0
M  V30 996 O 96.7073 -3.38907 -1.09637 0
M  V30 997 O 95.5663 -5.11683 -1.91943 0
M  V30 998 H 92.6603 -0.761112 -0.323478 0
M  V30 999 H 95.2063 -1.6947 0.0884125 0
M  V30 1000 H 93.9783 -3.91089 -0.128625 0
M  V30 1001 H 93.6013 -3.54329 -1.80378 0
M  V30 1002 N 94.5984 0.214957 -1.56127 0
M  V30 1003 C 95.8444 0.939762 -1.79712 0
M  V30 1004 C 96.1774 1.83723 -0.629247 0
M  V30 1005 O 95.4524 1.90925 0.371197 0
M  V30 1006 C 95.7354 1.77306 -3.13424 0
M  V30 1007 C 95.5884 0.90164 -4.40671 0
M  V30 1008 C 96.9074 2.74956 -3.43638 0
M  V30 1009 H 94.0264 0.340214 -0.653776 0
M  V30 1010 H 96.6684 0.20824 -1.88855 0
M  V30 1011 H 94.8184 2.39673 -3.0576 0
M  V30 1012 H 96.4904 0.294206 -4.60361 0
M  V30 1013 H 94.7334 0.207368 -4.33304 0
M  V30 1014 H 95.4044 1.51923 -5.30682 0
M  V30 1015 H 97.8804 2.22724 -3.51473 0
M  V30 1016 H 96.7564 3.30358 -4.38355 0
M  V30 1017 H 97.0174 3.53023 -2.66134 0
M  V30 1018 N 96.0765 1.50051 0.48192 0
M  V30 1019 C 97.4925 1.37237 0.814756 0
M  V30 1020 C 97.6925 0.420109 1.97072 0
M  V30 1021 O 96.7485 -0.141246 2.52105 0
M  V30 1022 C 98.0615 2.78375 1.13701 0
M  V30 1023 C 99.6095 2.87213 1.2441 0
M  V30 1024 C 100.084 4.29161 1.59954 0
M  V30 1025 N 101.575 4.32061 1.66967 0
M  V30 1026 C 102.31 5.38879 1.95952 0
M  V30 1027 N 101.806 6.55918 2.23031 0
M  V30 1028 N 103.599 5.26312 1.97363 0
M  V30 1029 H 95.7505 2.10546 -0.28005 0
M  V30 1030 H 98.0135 0.945921 -0.0627454 0
M  V30 1031 H 97.7195 3.49845 0.360787 0
M  V30 1032 H 97.5935 3.14941 2.07586 0
M  V30 1033 H 99.9805 2.15969 2.01101 0
M  V30 1034 H 100.061 2.54204 0.285299 0
M  V30 1035 H 99.7055 5.00938 0.838067 0
M  V30 1036 H 99.6355 4.59648 2.56966 0
M  V30 1037 H 102.126 3.47661 1.48123 0
M  V30 1038 H 102.439 7.33139 2.44391 0
M  V30 1039 H 100.784 6.59112 2.20447 0
M  V30 1040 H 103.975 4.33876 1.75697 0
M  V30 1041 H 104.148 6.09649 2.19618 0
M  V30 1042 N 97.5546 -0.734337 1.39446 0
M  V30 1043 C 98.8316 -1.48579 1.27215 0
M  V30 1044 C 99.2116 -2.1077 -0.117968 0
M  V30 1045 O 98.5596 -1.98646 -1.12924 0
M  V30 1046 C 98.7696 -2.53667 2.39696 0
M  V30 1047 C 100.118 -3.20031 2.79044 0
M  V30 1048 O 101.142 -2.6398 2.39151 0
M  V30 1049 O 100.001 -4.21455 3.47905 0
M  V30 1050 H 97.0946 -0.659816 0.49857 0
M  V30 1051 H 99.6406 -0.768106 1.51322 0
M  V30 1052 H 98.4126 -2.06096 3.32626 0
M  V30 1053 H 98.0356 -3.32994 2.17258 0
M  V30 1054 N 99.0327 -1.24633 -0.964593 0
M  V30 1055 C 100.444 -1.08045 -1.5226 0
M  V30 1056 C 100.795 0.347116 -1.93105 0
M  V30 1057 O 99.9197 1.23588 -1.77637 0
M  V30 1058 C 100.515 -1.95514 -2.76695 0
M  V30 1059 C 99.0737 -1.8314 -3.28841 0
M  V30 1060 C 98.2207 -1.90262 -2.01732 0
M  V30 1061 H 101.172 -1.38064 -0.782553 0
M  V30 1062 H 101.193 -1.48925 -3.50145 0
M  V30 1063 H 100.705 -2.99407 -2.46936 0
M  V30 1064 H 98.8057 -0.82092 -3.63444 0
M  V30 1065 H 98.9187 -2.67406 -3.97531 0
M  V30 1066 H 97.2827 -1.34027 -2.16584 0
M  V30 1067 H 98.0657 -2.9574 -1.74334 0
M  V30 1068 N 100.511 1.16574 -1.06058 0
M  V30 1069 C 101.788 1.83048 -0.689416 0
M  V30 1070 C 102.168 1.94122 0.829443 0
M  V30 1071 O 101.516 1.48249 1.7388 0
M  V30 1072 C 101.726 3.20186 -1.38859 0
M  V30 1073 C 103.074 3.95989 -1.53226 0
M  V30 1074 O 104.098 3.29696 -1.3483 0
M  V30 1075 O 102.957 5.14813 -1.83384 0
M  V30 1076 H 100.051 0.790258 -0.243764 0
M  V30 1077 H 102.597 1.23797 -1.16071 0
M  V30 1078 H 101.369 3.07146 -2.4244 0
M  V30 1079 H 100.992 3.87112 -0.907216 0
M  V30 1080 N 101.989 0.842826 1.3317 0
M  V30 1081 C 102.899 0.281444 2.32906 0
M  V30 1082 C 103.915 -0.594587 1.63526 0
M  V30 1083 O 105.091 -0.49777 1.95152 0
M  V30 1084 C 102.156 -0.530929 3.42611 0
M  V30 1085 C 101.217 0.369843 4.27704 0
M  V30 1086 C 100.45 -0.403853 5.3217 0
M  V30 1087 O 100.673 -1.63513 5.46461 0
M  V30 1088 O 99.6069 0.224199 6.01482 0
M  V30 1089 H 103.433 1.10744 2.82789 0
M  V30 1090 H 101.018 0.60545 1.36582 0
M  V30 1091 H 102.9 -0.992437 4.09547 0
M  V30 1092 H 101.575 -1.33392 2.94938 0
M  V30 1093 H 100.482 0.879275 3.6362 0
M  V30 1094 H 101.815 1.13771 4.78871 0
M  V30 1095 N 103.467 -1.45747 0.599634 0
M  V30 1096 C 104.397 -2.33235 -0.111306 0
M  V30 1097 C 105.378 -1.46359 -0.866781 0
M  V30 1098 O 106.563 -1.75146 -0.838904 0
M  V30 1099 C 103.693 -3.28932 -1.11451 0
M  V30 1100 C 102.647 -4.25381 -0.472772 0
M  V30 1101 C 101.973 -5.1071 -1.58365 0
M  V30 1102 C 103.273 -5.18831 0.600948 0
M  V30 1103 H 104.967 -2.92927 0.61919 0
M  V30 1104 H 102.513 -1.40857 0.299215 0
M  V30 1105 H 104.466 -3.89002 -1.62036 0
M  V30 1106 H 103.19 -2.67381 -1.8755 0
M  V30 1107 H 101.849 -3.66598 0.0121472 0
M  V30 1108 H 101.497 -4.45533 -2.33473 0
M  V30 1109 H 101.197 -5.7604 -1.15982 0
M  V30 1110 H 102.721 -5.73647 -2.09194 0
M  V30 1111 H 104.135 -5.73019 0.179491 0
M  V30 1112 H 102.532 -5.92595 0.946076 0
M  V30 1113 H 103.602 -4.6174 1.48068 0
M  V30 1114 N 104.945 -0.338344 -1.53925 0
M  V30 1115 C 105.892 0.520845 -2.24846 0
M  V30 1116 C 106.862 1.09976 -1.24477 0
M  V30 1117 O 108.047 1.13735 -1.53196 0
M  V30 1118 C 105.187 1.6685 -3.02084 0
M  V30 1119 C 104.3 1.11739 -4.17299 0
M  V30 1120 C 103.435 2.23193 -4.82036 0
M  V30 1121 C 102.474 1.65407 -5.89328 0
M  V30 1122 N 101.611 2.70582 -6.47866 0
M  V30 1123 H 106.451 -0.0904881 -2.97863 0
M  V30 1124 H 103.988 -0.0564282 -1.46992 0
M  V30 1125 H 105.946 2.34407 -3.45122 0
M  V30 1126 H 104.576 2.2509 -2.31375 0
M  V30 1127 H 103.628 0.332919 -3.7894 0
M  V30 1128 H 104.94 0.654677 -4.94485 0
M  V30 1129 H 104.094 2.98626 -5.28117 0
M  V30 1130 H 102.833 2.72807 -4.04262 0
M  V30 1131 H 101.838 0.884779 -5.42634 0
M  V30 1132 H 103.063 1.16652 -6.69006 0
M  V30 1133 H 101.009 3.1946 -5.72959 0
M  V30 1134 H 100.926 2.28917 -7.20509 0
M  V30 1135 H 102.194 3.45799 -6.98601 0
M  V30 1136 N 106.423 1.57458 -0.0668435 0
M  V30 1137 C 107.386 2.11323 0.887422 0
M  V30 1138 C 108.386 1.03618 1.22964 0
M  V30 1139 O 109.576 1.29626 1.16373 0
M  V30 1140 C 106.708 2.61048 2.19242 0
M  V30 1141 H 107.901 2.96942 0.420194 0
M  V30 1142 H 105.454 1.55239 0.181793 0
M  V30 1143 H 106.189 1.78868 2.70512 0
M  V30 1144 H 105.974 3.39769 1.95702 0
M  V30 1145 H 107.464 3.02814 2.87565 0
M  V30 1146 N 107.901 -0.206675 1.56239 0
M  V30 1147 C 108.834 -1.28383 1.88661 0
M  V30 1148 C 109.812 -1.44504 0.745481 0
M  V30 1149 O 110.996 -1.60079 0.995336 0
M  V30 1150 C 108.123 -2.65211 2.10667 0
M  V30 1151 C 107.169 -2.66025 3.33366 0
M  V30 1152 S 108.002 -2.18609 4.88846 0
M  V30 1153 C 109.158 -3.57283 5.13906 0
M  V30 1154 H 109.391 -1.00691 2.7973 0
M  V30 1155 H 106.924 -0.409627 1.48867 0
M  V30 1156 H 108.882 -3.43979 2.24029 0
M  V30 1157 H 107.543 -2.90121 1.20369 0
M  V30 1158 H 106.736 -3.66607 3.45855 0
M  V30 1159 H 106.338 -1.95331 3.18938 0
M  V30 1160 H 108.63 -4.53074 5.03717 0
M  V30 1161 H 109.573 -3.49699 6.15724 0
M  V30 1162 H 109.981 -3.51659 4.41583 0
M  V30 1163 N 109.379 -1.50304 -0.473955 0
M  V30 1164 C 110.627 -1.60832 -1.22382 0
M  V30 1165 C 110.948 -0.30939 -1.9253 0
M  V30 1166 O 110.218 0.67296 -1.83978 0
M  V30 1167 H 108.798 -0.592652 -0.454723 0
M  V30 1168 H 111.46 -1.87068 -0.546968 0
M  V30 1169 H 110.556 -2.41803 -1.97327 0
M  V30 1170 N 110.857 0.726932 -1.39834 0
M  V30 1171 C 111.804 1.841 -1.39197 0
M  V30 1172 C 112.774 1.642 -0.250502 0
M  V30 1173 O 113.959 1.85494 -0.446846 0
M  V30 1174 C 111.099 3.21697 -1.24919 0
M  V30 1175 C 110.212 3.53247 -2.48678 0
M  V30 1176 C 109.347 4.80289 -2.26928 0
M  V30 1177 C 108.386 5.04707 -3.4632 0
M  V30 1178 N 107.523 6.22956 -3.23836 0
M  V30 1179 H 112.363 1.83979 -2.34427 0
M  V30 1180 H 109.9 0.898876 -1.16442 0
M  V30 1181 H 111.858 4.01137 -1.1465 0
M  V30 1182 H 110.488 3.21076 -0.333153 0
M  V30 1183 H 109.54 2.68447 -2.69519 0
M  V30 1184 H 110.852 3.67205 -3.37582 0
M  V30 1185 H 110.006 5.67725 -2.13947 0
M  V30 1186 H 108.745 4.68519 -1.35431 0
M  V30 1187 H 107.75 4.1573 -3.5979 0
M  V30 1188 H 108.975 5.18357 -4.38729 0
M  V30 1189 H 106.921 6.12459 -2.35011 0
M  V30 1190 H 106.838 6.37539 -4.063 0
M  V30 1191 H 108.106 7.1321 -3.14566 0
M  V30 1192 N 112.336 1.25143 0.95797 0
M  V30 1193 C 113.747 1.08851 1.51685 0
M  V30 1194 C 114.098 -0.33687 1.93286 0
M  V30 1195 O 113.223 -1.22644 1.7829 0
M  V30 1196 C 113.818 1.96978 2.75654 0
M  V30 1197 C 112.377 1.84881 3.27866 0
M  V30 1198 C 111.524 1.91329 2.0072 0
M  V30 1199 H 114.475 1.38478 0.77522 0
M  V30 1200 H 114.496 1.5078 3.4935 0
M  V30 1201 H 114.008 3.00712 2.45345 0
M  V30 1202 H 112.109 0.840182 3.63004 0
M  V30 1203 H 112.222 2.6951 3.96107 0
M  V30 1204 H 110.586 1.35174 2.15871 0
M  V30 1205 H 111.369 2.96661 1.72764 0
M  V30 1206 N 113.814 -1.1601 1.06675 0
M  V30 1207 C 115.091 -1.82679 0.699114 0
M  V30 1208 C 115.471 -1.94559 -0.819137 0
M  V30 1209 O 114.819 -1.49169 -1.73092 0
M  V30 1210 C 115.029 -3.19445 1.40555 0
M  V30 1211 C 116.377 -3.95171 1.55323 0
M  V30 1212 O 117.401 -3.28976 1.36577 0
M  V30 1213 O 116.26 -5.13833 1.86112 0
M  V30 1214 H 113.354 -0.788954 0.247951 0
M  V30 1215 H 115.9 -1.23179 1.16726 0
M  V30 1216 H 114.672 -3.05856 2.44065 0
M  V30 1217 H 114.295 -3.86625 0.927733 0
M  V30 1218 N 115.292 -0.849877 -1.32721 0
M  V30 1219 C 116.538 -0.451591 -1.97708 0
M  V30 1220 C 116.871 0.989175 -1.6712 0
M  V30 1221 O 116.146 1.69334 -0.956891 0
M  V30 1222 C 116.429 -0.685598 -3.53513 0
M  V30 1223 C 116.282 -2.17444 -3.93749 0
M  V30 1224 C 117.601 -0.138874 -4.39881 0
M  V30 1225 H 114.72 -0.16555 -0.718166 0
M  V30 1226 H 117.362 -1.06742 -1.57182 0
M  V30 1227 H 115.512 -0.161416 -3.88165 0
M  V30 1228 H 117.184 -2.76433 -3.693 0
M  V30 1229 H 115.427 -2.65476 -3.43081 0
M  V30 1230 H 116.098 -2.28888 -5.02309 0
M  V30 1231 H 118.574 -0.587068 -4.11938 0
M  V30 1232 H 117.45 -0.332213 -5.47894 0
M  V30 1233 H 117.711 0.95806 -4.31594 0
M  V30 1234 N 116.77 1.45427 -0.607355 0
M  V30 1235 C 117.717 2.3053 0.111625 0
M  V30 1236 C 118.687 1.4209 0.860216 0
M  V30 1237 O 119.872 1.71019 0.845998 0
M  V30 1238 C 117.012 3.26992 1.10319 0
M  V30 1239 C 116.125 4.30535 0.355493 0
M  V30 1240 C 115.26 5.14105 1.33676 0
M  V30 1241 C 114.299 6.09376 0.576862 0
M  V30 1242 N 113.436 6.85727 1.5074 0
M  V30 1243 H 118.276 2.91477 -0.620093 0
M  V30 1244 H 115.813 1.43631 -0.317594 0
M  V30 1245 H 117.771 3.81385 1.6912 0
M  V30 1246 H 116.401 2.67799 1.80232 0
M  V30 1247 H 115.453 3.78805 -0.348023 0
M  V30 1248 H 116.765 4.98235 -0.237423 0
M  V30 1249 H 115.919 5.72897 1.99684 0
M  V30 1250 H 114.658 4.46423 1.9636 0
M  V30 1251 H 113.663 5.49715 -0.0968519 0
M  V30 1252 H 114.888 6.79085 -0.0449341 0
M  V30 1253 H 112.834 6.20735 2.12189 0
M  V30 1254 H 112.751 7.49778 0.967913 0
M  V30 1255 H 114.019 7.4906 2.15706 0
M  V30 1256 N 118.248 0.346503 1.53744 0
M  V30 1257 C 119.196 -0.52422 2.26616 0
M  V30 1258 C 120.19 -1.09948 1.28871 0
M  V30 1259 O 121.396 -1.04488 1.46568 0
M  V30 1260 H 117.771 -0.187743 0.728187 0
M  V30 1261 H 119.742 0.11239 2.98188 0
M  V30 1262 C 118.491 -1.66186 3.05414 0
M  V30 1263 H 117.814 -1.22848 3.80458 0
M  V30 1264 H 119.254 -2.24622 3.59612 0
M  V30 1265 C 117.713 -2.59302 2.1509 0
M  V30 1266 O 118.243 -3.61628 1.74895 0
M  V30 1267 N 116.449 -2.28055 1.8011 0
M  V30 1268 H 115.996 -1.44883 2.12994 0
M  V30 1269 H 115.954 -2.90615 1.19958 0
M  V30 1270 N 119.726 -1.57421 0.075193 0
M  V30 1271 C 120.956 -1.97659 -0.601203 0
M  V30 1272 C 121.364 -0.952427 -1.63479 0
M  V30 1273 O 120.707 0.0688241 -1.83571 0
M  V30 1274 C 120.769 -3.34218 -1.32434 0
M  V30 1275 C 120.433 -4.5484 -0.443826 0
M  V30 1276 C 121.43 -5.19034 0.299969 0
M  V30 1277 C 119.115 -5.00952 -0.367709 0
M  V30 1278 C 121.109 -6.27695 1.10807 0
M  V30 1279 C 118.796 -6.09484 0.444058 0
M  V30 1280 C 119.794 -6.72719 1.18061 0
M  V30 1281 O 119.482 -7.79161 1.97898 0
M  V30 1282 H 119.214 -0.65494 -0.167422 0
M  V30 1283 H 121.768 -2.04886 0.145157 0
M  V30 1284 H 119.998 -3.23615 -2.11685 0
M  V30 1285 H 121.687 -3.59038 -1.89331 0
M  V30 1286 H 122.453 -4.84351 0.250776 0
M  V30 1287 H 118.332 -4.51509 -0.930638 0
M  V30 1288 H 121.876 -6.76982 1.68347 0
M  V30 1289 H 117.773 -6.43601 0.494803 0
M  V30 1290 H 118.541 -7.96055 1.90367 0
M  V30 1291 N 121.204 0.198386 -1.56346 0
M  V30 1292 C 122.151 1.24589 -1.94284 0
M  V30 1293 C 123.121 1.454 -0.802997 0
M  V30 1294 O 124.306 1.58588 -1.06087 0
M  V30 1295 C 121.446 2.58631 -2.28482 0
M  V30 1296 C 120.559 2.45426 -3.55514 0
M  V30 1297 C 119.694 3.7215 -3.79049 0
M  V30 1298 C 118.733 3.53763 -4.99518 0
M  V30 1299 N 117.87 4.72491 -5.19323 0
M  V30 1300 H 122.71 0.915356 -2.83593 0
M  V30 1301 H 120.247 0.440629 -1.40346 0
M  V30 1302 H 122.205 3.3672 -2.46324 0
M  V30 1303 H 120.835 2.89734 -1.42317 0
M  V30 1304 H 119.887 1.58652 -3.45737 0
M  V30 1305 H 121.199 2.27772 -4.43758 0
M  V30 1306 H 120.353 4.58679 -3.97113 0
M  V30 1307 H 119.092 3.92754 -2.89129 0
M  V30 1308 H 118.097 2.65619 -4.8138 0
M  V30 1309 H 119.322 3.34607 -5.90944 0
M  V30 1310 H 117.268 4.93365 -4.3235 0
M  V30 1311 H 117.185 4.5765 -6.01741 0
M  V30 1312 H 118.453 5.6038 -5.41843 0
M  V30 1313 N 122.682 1.50554 0.465978 0
M  V30 1314 C 123.632 1.66177 1.56106 0
M  V30 1315 C 124.616 0.516265 1.52393 0
M  V30 1316 O 125.808 0.770906 1.5933 0
M  V30 1317 C 122.937 1.76396 2.94515 0
M  V30 1318 C 122.023 2.9664 3.03093 0
M  V30 1319 N 122.414 4.20245 2.81474 0
M  V30 1320 C 120.712 2.95304 3.34233 0
M  V30 1321 C 121.413 5.01259 2.95151 0
M  V30 1322 N 120.389 4.35318 3.25576 0
M  V30 1323 H 124.191 2.59434 1.38099 0
M  V30 1324 H 121.705 1.47808 0.6728 0
M  V30 1325 H 123.702 1.85694 3.73261 0
M  V30 1326 H 122.362 0.843017 3.13565 0
M  V30 1327 H 123.373 4.4966 2.56956 0
M  V30 1328 H 120.05 2.12729 3.59239 0
M  V30 1329 H 121.44 6.09564 2.82632 0
M  V30 1330 N 124.16 -0.719506 1.40217 0
M  V30 1331 C 125.093 -1.84298 1.34571 0
M  V30 1332 C 126.071 -1.61149 0.216741 0
M  V30 1333 O 127.255 -1.84212 0.399756 0
M  V30 1334 C 124.382 -3.20568 1.09335 0
M  V30 1335 C 123.428 -3.62551 2.24631 0
M  V30 1336 S 124.261 -3.7012 3.87004 0
M  V30 1337 C 125.417 -5.09154 3.64024 0
M  V30 1338 H 125.65 -1.88807 2.2965 0
M  V30 1339 H 123.183 -0.885901 1.26456 0
M  V30 1340 H 125.141 -3.99246 0.954602 0
M  V30 1341 H 123.802 -3.13696 0.159164 0
M  V30 1342 H 122.995 -4.61483 2.02606 0
M  V30 1343 H 122.597 -2.91119 2.34789 0
M  V30 1344 H 124.889 -5.95955 3.22248 0
M  V30 1345 H 125.832 -5.36213 4.62473 0
M  V30 1346 H 126.24 -4.79562 2.97793 0
M  V30 1347 N 125.638 -1.25649 -0.95132 0
M  V30 1348 C 126.863 -1.13443 -1.73624 0
M  V30 1349 C 127.288 0.307565 -1.85568 0
M  V30 1350 O 126.646 1.22282 -1.33854 0
M  V30 1351 C 126.694 -1.79723 -3.12621 0
M  V30 1352 O 125.798 -1.07912 -3.98031 0
M  V30 1353 H 125.139 -0.395872 -0.533086 0
M  V30 1354 H 127.669 -1.66276 -1.1922 0
M  V30 1355 H 127.679 -1.86141 -3.63064 0
M  V30 1356 H 126.354 -2.84633 -3.03244 0
M  V30 1357 H 124.931 -1.09398 -3.56492 0
M  V30 1358 N 127.117 1.15442 -1.07289 0
M  V30 1359 C 128.533 1.38201 -0.798288 0
M  V30 1360 C 128.733 1.92429 0.597769 0
M  V30 1361 O 127.789 2.12962 1.3566 0
M  V30 1362 C 129.102 2.35357 -1.87156 0
M  V30 1363 C 130.65 2.49021 -1.89624 0
M  V30 1364 C 131.125 3.49468 -2.96034 0
M  V30 1365 N 132.616 3.57003 -2.95132 0
M  V30 1366 C 133.351 4.34543 -3.74112 0
M  V30 1367 N 132.847 5.15421 -4.6294 0
M  V30 1368 N 134.64 4.29625 -3.62462 0
M  V30 1369 H 126.791 0.78584 -1.97328 0
M  V30 1370 H 129.054 0.408065 -0.855679 0
M  V30 1371 H 128.76 2.02626 -2.87464 0
M  V30 1372 H 128.634 3.35129 -1.73114 0
M  V30 1373 H 131.021 2.81051 -0.899687 0
M  V30 1374 H 131.102 1.4925 -2.07745 0
M  V30 1375 H 130.746 3.18173 -3.95889 0
M  V30 1376 H 130.676 4.48992 -2.75161 0
M  V30 1377 H 133.167 2.99276 -2.30743 0
M  V30 1378 H 133.48 5.7183 -5.19837 0
M  V30 1379 H 131.825 5.14729 -4.66989 0
M  V30 1380 H 135.016 3.65505 -2.92444 0
M  V30 1381 H 135.189 4.89807 -4.24256 0
M  V30 1382 N 128.595 0.856903 1.32268 0
M  V30 1383 C 129.843 0.460474 1.96784 0
M  V30 1384 C 130.164 -0.987701 1.68135 0
M  V30 1385 O 129.434 -1.69058 0.989765 0
M  V30 1386 H 128.014 0.167289 0.728027 0
M  V30 1387 H 130.676 1.09383 1.61312 0
M  V30 1388 H 129.772 0.60739 3.06133 0
M  V30 1389 N 130.073 -1.45103 0.615059 0
M  V30 1390 C 131.02 -2.30586 -0.0993978 0
M  V30 1391 C 131.99 -1.42544 -0.852669 0
M  V30 1392 O 133.175 -1.71465 -0.836917 0
M  V30 1393 C 130.315 -3.27572 -1.08583 0
M  V30 1394 C 129.428 -4.30717 -0.332656 0
M  V30 1395 C 128.563 -5.14807 -1.30947 0
M  V30 1396 C 127.602 -6.09673 -0.544538 0
M  V30 1397 N 126.739 -6.86517 -1.47101 0
M  V30 1398 H 131.579 -2.91144 0.635542 0
M  V30 1399 H 129.116 -1.4346 0.325206 0
M  V30 1400 H 131.074 -3.82276 -1.67095 0
M  V30 1401 H 129.704 -2.68751 -1.78809 0
M  V30 1402 H 128.756 -3.78615 0.368107 0
M  V30 1403 H 130.068 -4.98102 0.263842 0
M  V30 1404 H 129.222 -5.73948 -1.96643 0
M  V30 1405 H 127.961 -4.47458 -1.9399 0
M  V30 1406 H 126.966 -5.49656 0.126003 0
M  V30 1407 H 128.191 -6.79052 0.080947 0
M  V30 1408 H 126.137 -6.21851 -2.08895 0
M  V30 1409 H 126.054 -7.50281 -0.928137 0
M  V30 1410 H 127.322 -7.50194 -2.11731 0
M  V30 1411 N 131.551 -0.354651 -1.53558 0
M  V30 1412 C 132.481 0.489091 -2.2832 0
M  V30 1413 C 133.462 1.09324 -1.30316 0
M  V30 1414 O 134.647 1.11255 -1.59173 0
M  V30 1415 C 131.777 1.63456 -3.0643 0
M  V30 1416 C 130.731 1.1582 -4.12031 0
M  V30 1417 C 130.057 2.39305 -4.7816 0
M  V30 1418 C 131.357 0.250731 -5.21698 0
M  V30 1419 H 133.051 -0.134614 -2.99097 0
M  V30 1420 H 130.597 -0.0661826 -1.43848 0
M  V30 1421 H 132.55 2.23136 -3.57475 0
M  V30 1422 H 131.274 2.28533 -2.33325 0
M  V30 1423 H 129.933 0.584146 -3.61916 0
M  V30 1424 H 129.581 3.02814 -4.01637 0
M  V30 1425 H 129.281 2.08109 -5.49513 0
M  V30 1426 H 130.805 2.99691 -5.31994 0
M  V30 1427 H 132.219 0.754695 -5.68311 0
M  V30 1428 H 130.616 0.0301468 -6.00092 0
M  V30 1429 H 131.686 -0.710125 -4.79672 0
M  V30 1430 N 133.029 1.57378 -0.0835403 0
M  V30 1431 C 133.939 2.16897 0.894021 0
M  V30 1432 C 134.955 1.13528 1.31861 0
M  V30 1433 O 136.131 1.45848 1.3889 0
M  V30 1434 C 133.196 2.72831 2.13925 0
M  V30 1435 C 132.257 3.91115 1.76997 0
M  V30 1436 C 131.49 4.44371 2.95584 0
M  V30 1437 O 131.713 3.96596 4.09961 0
M  V30 1438 O 130.647 5.35549 2.74719 0
M  V30 1439 H 134.473 3.00814 0.417679 0
M  V30 1440 H 132.058 1.48741 0.140181 0
M  V30 1441 H 133.94 3.0863 2.86924 0
M  V30 1442 H 132.615 1.91967 2.60635 0
M  V30 1443 H 131.522 3.60148 1.01214 0
M  V30 1444 H 132.855 4.73307 1.3506 0
M  V30 1445 N 134.507 -0.190092 1.56449 0
M  V30 1446 C 135.918 -0.754312 1.70784 0
M  V30 1447 C 136.269 -1.83631 0.690951 0
M  V30 1448 O 135.394 -2.15868 -0.151604 0
M  V30 1449 C 135.989 -1.37503 3.09642 0
M  V30 1450 C 134.548 -1.88628 3.25725 0
M  V30 1451 C 133.695 -0.758098 2.66736 0
M  V30 1452 H 136.646 0.0350524 1.58661 0
M  V30 1453 H 136.667 -2.2445 3.0725 0
M  V30 1454 H 136.179 -0.587302 3.83631 0
M  V30 1455 H 134.28 -2.70103 2.56661 0
M  V30 1456 H 134.393 -2.04462 4.3328 0
M  V30 1457 H 132.757 -1.17369 2.26046 0
M  V30 1458 H 133.54 0.0174705 3.43296 0
M  V30 1459 N 135.985 -1.50799 -0.457987 0
M  V30 1460 C 136.915 -1.73553 -1.5621 0
M  V30 1461 C 137.896 -0.584774 -1.59732 0
M  V30 1462 O 139.081 -0.825314 -1.7579 0
M  V30 1463 C 136.211 -1.84169 -2.94447 0
M  V30 1464 C 135.165 -2.99461 -3.0579 0
M  V30 1465 C 134.491 -2.95235 -4.45803 0
M  V30 1466 C 135.791 -4.39766 -2.81786 0
M  V30 1467 H 137.485 -2.66 -1.37421 0
M  V30 1468 H 135.031 -1.28002 -0.659662 0
M  V30 1469 H 136.984 -1.98672 -3.71628 0
M  V30 1470 H 135.708 -0.883545 -3.14422 0
M  V30 1471 H 134.367 -2.8463 -2.31044 0
M  V30 1472 H 134.015 -1.97239 -4.62715 0
M  V30 1473 H 133.715 -3.72642 -4.54326 0
M  V30 1474 H 135.239 -3.11803 -5.24987 0
M  V30 1475 H 136.653 -4.55054 -3.4871 0
M  V30 1476 H 135.05 -5.18722 -3.0174 0
M  V30 1477 H 136.12 -4.51229 -1.7754 0
M  V30 1478 N 137.463 0.71206 -1.40597 0
M  V30 1479 C 138.393 1.83889 -1.43899 0
M  V30 1480 C 139.374 1.67442 -0.299504 0
M  V30 1481 O 140.559 1.87421 -0.508624 0
M  V30 1482 C 137.689 3.21877 -1.30431 0
M  V30 1483 C 136.643 3.53002 -2.42019 0
M  V30 1484 C 135.969 4.90172 -2.13626 0
M  V30 1485 C 137.269 3.53643 -3.84362 0
M  V30 1486 H 138.963 1.81383 -2.38203 0
M  V30 1487 H 136.509 0.871237 -1.14654 0
M  V30 1488 H 138.462 4.00404 -1.31357 0
M  V30 1489 H 137.186 3.24968 -0.326049 0
M  V30 1490 H 135.845 2.76818 -2.40349 0
M  V30 1491 H 135.493 4.89869 -1.14182 0
M  V30 1492 H 135.193 5.11962 -2.88389 0
M  V30 1493 H 136.717 5.71028 -2.1624 0
M  V30 1494 H 138.131 4.22203 -3.87837 0
M  V30 1495 H 136.528 3.86961 -4.58673 0
M  V30 1496 H 137.598 2.52954 -4.13693 0
M  V30 1497 N 138.941 1.26152 0.944643 0
M  V30 1498 C 139.904 1.07474 2.0244 0
M  V30 1499 C 140.904 0.0242064 1.60782 0
M  V30 1500 O 142.094 0.267302 1.72137 0
M  V30 1501 C 139.226 0.633956 3.34953 0
M  V30 1502 H 140.419 2.03336 2.20442 0
M  V30 1503 H 137.972 1.087 1.12312 0
M  V30 1504 H 138.707 -0.326811 3.22649 0
M  V30 1505 H 138.492 1.39247 3.66542 0
M  V30 1506 H 139.982 0.52501 4.14287 0
M  V30 1507 N 140.419 -1.14872 1.07899 0
M  V30 1508 C 141.366 -2.19791 0.704319 0
M  V30 1509 C 142.336 -1.63238 -0.306987 0
M  V30 1510 O 143.521 -1.8983 -0.192171 0
M  V30 1511 C 140.661 -3.44911 0.114244 0
M  V30 1512 C 139.774 -4.15637 1.1777 0
M  V30 1513 C 138.909 -5.28324 0.552037 0
M  V30 1514 C 137.948 -5.90875 1.59789 0
M  V30 1515 N 137.085 -6.95022 0.994404 0
M  V30 1516 H 141.925 -2.5119 1.60336 0
M  V30 1517 H 139.462 -1.23356 0.801352 0
M  V30 1518 H 141.42 -4.16477 -0.245544 0
M  V30 1519 H 140.05 -3.14011 -0.74813 0
M  V30 1520 H 139.102 -3.42512 1.65499 0
M  V30 1521 H 140.414 -4.5823 1.97046 0
M  V30 1522 H 139.568 -6.06538 0.1402 0
M  V30 1523 H 138.307 -4.86939 -0.272431 0
M  V30 1524 H 137.312 -5.11369 2.01945 0
M  V30 1525 H 138.537 -6.34337 2.42474 0
M  V30 1526 H 136.483 -6.55722 0.190939 0
M  V30 1527 H 136.4 -7.36073 1.72432 0
M  V30 1528 H 137.668 -7.77123 0.608253 0
M  V30 1529 N 141.898 -0.863906 -1.31812 0
M  V30 1530 C 143.123 -0.48527 -2.01643 0
M  V30 1531 C 143.548 0.913058 -1.64453 0
M  V30 1532 O 142.906 1.6014 -0.849985 0
M  V30 1533 C 142.954 -0.642625 -3.54828 0
M  V30 1534 O 142.058 0.320659 -4.11151 0
M  V30 1535 H 141.399 -0.193793 -0.635091 0
M  V30 1536 H 143.929 -1.16565 -1.68148 0
M  V30 1537 H 143.939 -0.533628 -4.04495 0
M  V30 1538 H 142.614 -1.66227 -3.81237 0
M  V30 1539 H 141.191 0.167126 -3.72525 0
M  V30 1540 N 143.376 1.44774 -0.622745 0
M  V30 1541 C 144.624 2.01721 -0.123655 0
M  V30 1542 C 144.945 1.49172 1.25589 0
M  V30 1543 O 144.215 0.691974 1.83272 0
M  V30 1544 H 142.795 0.745777 -0.0427225 0
M  V30 1545 H 145.457 1.77382 -0.807559 0
M  V30 1546 H 144.553 3.11984 -0.0849534 0
M  V30 1547 N 144.854 0.36279 1.53368 0
M  V30 1548 C 145.784 -0.476976 2.28576 0
M  V30 1549 C 146.765 -1.08631 1.30894 0
M  V30 1550 O 147.95 -1.10409 1.59761 0
M  V30 1551 C 145.08 -1.61828 3.07293 0
M  V30 1552 C 144.034 -1.13633 4.1264 0
M  V30 1553 C 143.36 -2.36766 4.79423 0
M  V30 1554 C 144.66 -0.223061 5.21823 0
M  V30 1555 H 146.354 0.150474 2.99022 0
M  V30 1556 H 143.9 0.0738103 1.43811 0
M  V30 1557 H 145.853 -2.21237 3.58653 0
M  V30 1558 H 144.577 -2.27292 2.34533 0
M  V30 1559 H 143.236 -0.564945 3.62221 0
M  V30 1560 H 142.884 -3.0068 4.03238 0
M  V30 1561 H 142.584 -2.05192 5.50609 0
M  V30 1562 H 144.108 -2.96865 5.33576 0
M  V30 1563 H 145.522 -0.724545 5.68703 0
M  V30 1564 H 143.919 0.001678 6.001 0
M  V30 1565 H 144.989 0.735553 4.79289 0
M  V30 1566 N 146.332 -1.57332 0.0918853 0
M  V30 1567 C 147.609 -1.85691 -0.614668 0
M  V30 1568 C 147.989 -0.988146 -1.86545 0
M  V30 1569 O 147.337 -0.0597055 -2.28422 0
M  V30 1570 C 147.547 -3.36294 -0.933126 0
M  V30 1571 C 148.895 -4.04275 -1.29796 0
M  V30 1572 O 149.919 -3.41157 -1.02424 0
M  V30 1573 O 148.778 -5.1564 -1.81047 0
M  V30 1574 H 145.872 -0.767802 -0.307261 0
M  V30 1575 H 148.418 -1.69244 0.12434 0
M  V30 1576 H 147.19 -3.91273 -0.0456404 0
M  V30 1577 H 146.813 -3.58076 -1.72822 0
M  V30 1578 N 147.81 0.181792 -1.56548 0
M  V30 1579 C 149.221 0.745244 -1.71181 0
M  V30 1580 C 149.572 1.83262 -0.70068 0
M  V30 1581 O 148.697 2.15946 0.140154 0
M  V30 1582 C 149.292 1.35859 -3.10367 0
M  V30 1583 C 147.851 1.86898 -3.2672 0
M  V30 1584 C 146.998 0.743942 -2.67134 0
M  V30 1585 H 149.949 -0.0434661 -1.5864 0
M  V30 1586 H 149.97 2.22817 -3.08436 0
M  V30 1587 H 149.482 0.566948 -3.83937 0
M  V30 1588 H 147.583 2.68738 -2.5809 0
M  V30 1589 H 147.696 2.02162 -4.34359 0
M  V30 1590 H 146.06 1.16169 -2.26665 0
M  V30 1591 H 146.843 -0.035676 -3.43281 0
M  V30 1592 N 149.288 1.51039 0.449983 0
M  V30 1593 C 150.198 1.74261 1.57067 0
M  V30 1594 C 151.214 0.626363 1.62335 0
M  V30 1595 O 152.39 0.907162 1.79812 0
M  V30 1596 C 149.455 1.85114 2.93144 0
M  V30 1597 C 148.516 3.0893 2.98095 0
M  V30 1598 C 147.749 3.19256 4.27681 0
M  V30 1599 O 147.972 2.35835 5.19363 0
M  V30 1600 O 146.906 4.12144 4.38658 0
M  V30 1601 H 150.732 2.69303 1.40391 0
M  V30 1602 H 148.317 1.35389 0.631688 0
M  V30 1603 H 150.199 1.94311 3.73926 0
M  V30 1604 H 148.874 0.932588 3.09975 0
M  V30 1605 H 147.781 3.0522 2.16314 0
M  V30 1606 H 149.114 4.00433 2.86206 0
M  V30 1607 N 150.766 -0.704594 1.40972 0
M  V30 1608 C 151.713 -1.81862 1.42109 0
M  V30 1609 C 152.683 -1.63781 0.276593 0
M  V30 1610 O 153.868 -1.84759 0.4763 0
M  V30 1611 C 151.008 -3.19669 1.30022 0
M  V30 1612 C 150.121 -3.49246 2.54267 0
M  V30 1613 C 149.256 -4.76618 2.3454 0
M  V30 1614 C 148.295 -4.99133 3.54306 0
M  V30 1615 N 147.432 -6.17726 3.33706 0
M  V30 1616 H 152.272 -1.80226 2.37324 0
M  V30 1617 H 149.809 -0.880238 1.17857 0
M  V30 1618 H 151.767 -3.99263 1.21018 0
M  V30 1619 H 150.397 -3.20506 0.384192 0
M  V30 1620 H 149.449 -2.64125 2.73756 0
M  V30 1621 H 150.761 -3.61788 3.43381 0
M  V30 1622 H 149.915 -5.64249 2.22952 0
M  V30 1623 H 148.654 -4.66305 1.42867 0
M  V30 1624 H 147.659 -4.09953 3.66359 0
M  V30 1625 H 148.884 -5.11311 4.4692 0
M  V30 1626 H 146.83 -6.08642 2.44725 0
M  V30 1627 H 146.747 -6.30995 4.16391 0
M  V30 1628 H 148.015 -7.08115 3.25873 0
M  V30 1629 N 152.244 -1.26651 -0.937939 0
M  V30 1630 C 153.655 -1.1125 -1.49934 0
M  V30 1631 C 154.006 0.306077 -1.93798 0
M  V30 1632 O 153.131 1.19792 -1.80219 0
M  V30 1633 C 153.726 -2.01339 -2.72485 0
M  V30 1634 C 152.285 -1.90074 -3.24883 0
M  V30 1635 C 151.432 -1.94498 -1.97651 0
M  V30 1636 H 154.383 -1.39693 -0.753091 0
M  V30 1637 H 154.404 -1.56319 -3.46907 0
M  V30 1638 H 153.916 -3.04577 -2.40529 0
M  V30 1639 H 152.017 -0.897827 -3.61621 0
M  V30 1640 H 152.13 -2.75778 -3.9177 0
M  V30 1641 H 150.494 -1.38591 -2.13693 0
M  V30 1642 H 151.277 -2.99372 -1.68022 0
M  V30 1643 N 153.722 1.14298 -1.08507 0
M  V30 1644 C 154.968 1.85633 -0.816581 0
M  V30 1645 C 155.301 1.82784 0.656021 0
M  V30 1646 O 154.576 1.25926 1.48233 0
M  V30 1647 C 154.859 3.34223 -1.34041 0
M  V30 1648 C 154.712 3.45639 -2.87843 0
M  V30 1649 C 156.031 4.29356 -0.9665 0
M  V30 1650 H 153.15 0.67402 -0.298104 0
M  V30 1651 H 155.792 1.34214 -1.34487 0
M  V30 1652 H 153.942 3.78144 -0.89104 0
M  V30 1653 H 155.614 3.10498 -3.41158 0
M  V30 1654 H 153.857 2.86817 -3.25451 0
M  V30 1655 H 154.528 4.50089 -3.19569 0
M  V30 1656 H 157.004 3.93457 -1.35391 0
M  V30 1657 H 155.88 5.3178 -1.3602 0
M  V30 1658 H 156.141 4.41919 0.126362 0
M  V30 1659 N 155.201 0.870884 1.31352 0
M  V30 1660 C 156.447 0.482987 1.96965 0
M  V30 1661 C 156.78 -0.962462 1.68672 0
M  V30 1662 O 156.055 -1.6779 0.98371 0
M  V30 1663 C 156.338 0.741752 3.52378 0
M  V30 1664 C 156.191 2.2368 3.9024 0
M  V30 1665 C 157.51 0.208838 4.39604 0
M  V30 1666 H 154.629 0.176955 0.715441 0
M  V30 1667 H 157.271 1.09229 1.55464 0
M  V30 1668 H 155.421 0.223149 3.87859 0
M  V30 1669 H 157.093 2.82273 3.64856 0
M  V30 1670 H 155.336 2.70901 3.38814 0
M  V30 1671 H 156.007 2.3685 4.98604 0
M  V30 1672 H 158.483 0.652529 4.10952 0
M  V30 1673 H 157.359 0.419336 5.47296 0
M  V30 1674 H 157.62 -0.889275 4.33064 0
M  V30 1675 N 156.679 -1.44442 0.630414 0
M  V30 1676 C 157.925 -2.02351 0.134816 0
M  V30 1677 C 158.258 -1.4947 -1.23986 0
M  V30 1678 O 157.533 -0.678475 -1.82283 0
M  V30 1679 C 157.816 -3.59898 0.120707 0
M  V30 1680 C 157.669 -4.23063 1.52767 0
M  V30 1681 C 158.988 -4.36585 -0.555127 0
M  V30 1682 H 156.107 -0.73527 0.0504646 0
M  V30 1683 H 158.749 -1.72022 0.806751 0
M  V30 1684 H 156.899 -3.85868 -0.451477 0
M  V30 1685 H 158.571 -4.08202 2.14869 0
M  V30 1686 H 156.814 -3.80586 2.08175 0
M  V30 1687 H 157.485 -5.32071 1.46984 0
M  V30 1688 H 159.961 -4.16044 -0.0685429 0
M  V30 1689 H 158.837 -5.46294 -0.534185 0
M  V30 1690 H 159.098 -4.11138 -1.62535 0
M  V30 1691 N 158.157 -0.370918 -1.53173 0
M  V30 1692 C 159.404 0.217102 -2.01333 0
M  V30 1693 C 159.732 1.48338 -1.25802 0
M  V30 1694 O 158.987 1.92698 -0.34146 0
M  V30 1695 C 159.286 0.549696 -3.53147 0
M  V30 1696 C 158.952 -0.622872 -4.46577 0
M  V30 1697 C 157.614 -0.944595 -4.71838 0
M  V30 1698 C 159.966 -1.40819 -5.01816 0
M  V30 1699 C 157.294 -2.05351 -5.49589 0
M  V30 1700 C 159.646 -2.50757 -5.80778 0
M  V30 1701 C 158.31 -2.83458 -6.04324 0
M  V30 1702 H 157.58 0.0794431 -0.736729 0
M  V30 1703 H 160.227 -0.504481 -1.84736 0
M  V30 1704 H 158.532 1.35237 -3.6772 0
M  V30 1705 H 160.229 1.017 -3.87889 0
M  V30 1706 H 156.819 -0.36209 -4.27068 0
M  V30 1707 H 161.003 -1.17289 -4.82242 0
M  V30 1708 H 156.259 -2.3108 -5.6605 0
M  V30 1709 H 160.433 -3.12022 -6.22588 0
M  V30 1710 H 158.06 -3.69508 -6.64355 0
M  V30 1711 N 159.635 1.57281 -0.100228 0
M  V30 1712 C 160.875 1.96419 0.56558 0
M  V30 1713 C 161.239 0.981265 1.65031 0
M  V30 1714 O 162.44 1.26133 2.37369 0
M  V30 1715 C 160.711 3.39996 1.10171 0
M  V30 1716 S 162.27 4.01134 1.77867 0
M  V30 1717 H 159.088 0.68667 0.184406 0
M  V30 1718 H 161.69 1.94662 -0.180851 0
M  V30 1719 H 160.394 4.09296 0.300803 0
M  V30 1720 H 159.925 3.45361 1.88385 0
M  V30 1721 H 161.94 3.90358 3.06326 0
M  V30 1722 N 161.113 -0.173488 1.56642 0
M  V30 1723 C 162.06 -1.21482 1.96242 0
M  V30 1724 C 163.03 -1.44104 0.826027 0
M  V30 1725 O 164.215 -1.5688 1.08597 0
M  V30 1726 C 161.355 -2.54964 2.32567 0
M  V30 1727 C 160.468 -2.39739 3.59373 0
M  V30 1728 C 159.603 -3.66072 3.84921 0
M  V30 1729 C 158.642 -3.45771 5.05083 0
M  V30 1730 N 157.779 -4.64169 5.26775 0
M  V30 1731 H 162.619 -0.870123 2.85014 0
M  V30 1732 H 160.156 -0.418245 1.41029 0
M  V30 1733 H 162.114 -3.32758 2.5165 0
M  V30 1734 H 160.744 -2.87433 1.46908 0
M  V30 1735 H 159.796 -1.53131 3.48217 0
M  V30 1736 H 161.108 -2.20683 4.47326 0
M  V30 1737 H 160.262 -4.52303 4.0436 0
M  V30 1738 H 159.001 -3.88105 2.9534 0
M  V30 1739 H 158.006 -2.57927 4.85545 0
M  V30 1740 H 159.231 -3.25163 5.96193 0
M  V30 1741 H 157.177 -4.86425 4.40144 0
M  V30 1742 H 157.094 -4.48019 6.08946 0
M  V30 1743 H 158.362 -5.51689 5.5069 0
M  V30 1744 N 162.591 -1.51276 -0.441967 0
M  V30 1745 C 163.819 -1.67516 -1.21434 0
M  V30 1746 C 164.234 -0.37055 -1.85128 0
M  V30 1747 O 163.591 0.650498 -1.70513 0
M  V30 1748 C 163.642 -2.78748 -2.30177 0
M  V30 1749 O 163.363 -4.04154 -1.69089 0
M  V30 1750 C 164.864 -3.06217 -3.20541 0
M  V30 1751 H 162.084 -0.562276 -0.366178 0
M  V30 1752 H 164.628 -1.97666 -0.524244 0
M  V30 1753 H 162.783 -2.5121 -2.94911 0
M  V30 1754 H 163.197 -4.65894 -2.40922 0
M  V30 1755 H 164.671 -3.8764 -3.92987 0
M  V30 1756 H 165.148 -2.18439 -3.81026 0
M  V30 1757 H 165.754 -3.35397 -2.61513 0
M  V30 1758 N 164.069 0.697108 -1.41344 0
M  V30 1759 C 165.032 1.79281 -1.42797 0
M  V30 1760 C 166.032 1.57607 -0.318837 0
M  V30 1761 O 167.222 1.64309 -0.578642 0
M  V30 1762 C 164.354 3.17632 -1.23785 0
M  V30 1763 H 165.547 1.79385 -2.40335 0
M  V30 1764 H 163.1 0.904582 -1.27464 0
M  V30 1765 H 163.835 3.23167 -0.270814 0
M  V30 1766 H 163.62 3.34765 -2.04144 0
M  V30 1767 H 165.11 3.97617 -1.27633 0
M  V30 1768 N 165.547 1.27147 0.931209 0
M  V30 1769 C 166.51 1.09615 2.01289 0
M  V30 1770 C 167.51 0.0412581 1.60747 0
M  V30 1771 O 168.7 0.285545 1.71844 0
M  V30 1772 C 165.832 0.669447 3.34262 0
M  V30 1773 H 167.025 2.05662 2.18273 0
M  V30 1774 H 164.578 1.09885 1.11153 0
M  V30 1775 H 165.313 -0.292572 3.22978 0
M  V30 1776 H 165.098 1.43127 3.65044 0
M  V30 1777 H 166.588 0.568921 4.13706 0
M  V30 1778 N 167.025 -1.13721 1.09112 0
M  V30 1779 C 168.441 -1.36914 0.820174 0
M  V30 1780 C 168.641 -1.93356 -0.567079 0
M  V30 1781 O 167.697 -2.15093 -1.32255 0
M  V30 1782 C 169.01 -2.3235 1.90877 0
M  V30 1783 C 170.558 -2.45973 1.93562 0
M  V30 1784 C 171.033 -3.44714 3.01556 0
M  V30 1785 N 172.524 -3.52263 3.00775 0
M  V30 1786 C 173.259 -4.28536 3.80978 0
M  V30 1787 N 172.755 -5.07991 4.71081 0
M  V30 1788 N 174.548 -4.23804 3.69251 0
M  V30 1789 H 166.699 -0.754348 1.98553 0
M  V30 1790 H 168.962 -0.3944 0.862063 0
M  V30 1791 H 168.668 -1.98027 2.90651 0
M  V30 1792 H 168.542 -3.32332 1.78424 0
M  V30 1793 H 170.929 -2.79584 0.944286 0
M  V30 1794 H 171.01 -1.45926 2.10093 0
M  V30 1795 H 170.654 -3.11835 4.00901 0
M  V30 1796 H 170.584 -4.44558 2.82269 0
M  V30 1797 H 173.075 -2.95567 2.35475 0
M  V30 1798 H 173.388 -5.63487 5.28869 0
M  V30 1799 H 171.733 -5.07235 4.75119 0
M  V30 1800 H 174.924 -3.60806 2.98222 0
M  V30 1801 H 175.097 -4.82995 4.31995 0
M  V30 1802 N 168.503 -0.877838 -1.30888 0
M  V30 1803 C 169.466 -0.344265 -2.266 0
M  V30 1804 C 170.466 0.50922 -1.52524 0
M  V30 1805 O 171.656 0.317398 -1.71284 0
M  V30 1806 C 168.788 0.510198 -3.37061 0
M  V30 1807 H 169.981 -1.1893 -2.7531 0
M  V30 1808 H 167.534 -0.654088 -1.41956 0
M  V30 1809 H 168.269 1.37612 -2.93655 0
M  V30 1810 H 168.054 -0.101047 -3.9197 0
M  V30 1811 H 169.544 0.875537 -4.08319 0
M  V30 1812 N 169.982 1.44106 -0.638065 0
M  V30 1813 C 170.945 2.29138 0.0531013 0
M  V30 1814 C 171.945 1.41409 0.765506 0
M  V30 1815 O 173.135 1.63206 0.609046 0
M  V30 1816 C 170.267 3.23144 1.08584 0
M  V30 1817 H 171.46 2.91739 -0.694883 0
M  V30 1818 H 169.013 1.51134 -0.398538 0
M  V30 1819 H 169.748 2.65408 1.86357 0
M  V30 1820 H 169.533 3.87804 0.578852 0
M  V30 1821 H 171.023 3.87004 1.56899 0
M  V30 1822 N 171.46 0.379036 1.52974 0
M  V30 1823 C 172.39 -0.452706 2.29069 0
M  V30 1824 C 173.371 -1.07237 1.32039 0
M  V30 1825 O 174.556 -1.08708 1.60923 0
M  V30 1826 C 171.686 -1.5856 3.08992 0
M  V30 1827 C 170.64 -1.0925 4.13822 0
M  V30 1828 C 169.966 -2.31668 4.81907 0
M  V30 1829 C 171.266 -0.167702 5.22031 0
M  V30 1830 H 172.96 0.182181 2.98845 0
M  V30 1831 H 170.506 0.0890592 1.43724 0
M  V30 1832 H 172.459 -2.1742 3.6098 0
M  V30 1833 H 171.183 -2.24792 2.36931 0
M  V30 1834 H 169.842 -0.526494 3.628 0
M  V30 1835 H 169.49 -2.96386 4.06404 0
M  V30 1836 H 169.19 -1.9934 5.52754 0
M  V30 1837 H 170.714 -2.91189 5.36695 0
M  V30 1838 H 172.128 -0.664186 5.6944 0
M  V30 1839 H 170.525 0.0653265 6.00064 0
M  V30 1840 H 171.595 0.786347 4.78482 0
M  V30 1841 N 172.938 -1.57226 0.108567 0
M  V30 1842 C 173.901 -2.13602 -0.831082 0
M  V30 1843 C 174.901 -1.06841 -1.20173 0
M  V30 1844 O 176.091 -1.32666 -1.12895 0
M  V30 1845 C 173.223 -2.66769 -2.12243 0
M  V30 1846 H 174.416 -2.97951 -0.341317 0
M  V30 1847 H 171.969 -1.55667 -0.14057 0
M  V30 1848 H 172.704 -1.85977 -2.65675 0
M  V30 1849 H 172.489 -3.44839 -1.86625 0
M  V30 1850 H 173.979 -3.10332 -2.79435 0
M  V30 1851 N 174.416 0.165178 -1.56732 0
M  V30 1852 C 175.664 0.879068 -1.8198 0
M  V30 1853 C 175.985 1.82514 -0.686561 0
M  V30 1854 O 175.255 1.93694 0.293146 0
M  V30 1855 H 173.835 0.327608 -0.671329 0
M  V30 1856 H 176.497 0.163526 -1.94213 0
M  V30 1857 H 175.593 1.45228 -2.76252 0
M  V30 1858 N 175.894 1.51508 0.433938 0
M  V30 1859 C 176.841 1.73068 1.52696 0
M  V30 1860 C 177.811 0.572441 1.55924 0
M  V30 1861 O 178.996 0.807253 1.72882 0
M  V30 1862 C 176.136 1.86474 2.90381 0
M  V30 1863 C 175.249 3.14037 2.96656 0
M  V30 1864 C 174.384 3.18019 4.25485 0
M  V30 1865 C 173.423 4.39882 4.2564 0
M  V30 1866 N 172.56 4.41394 5.45999 0
M  V30 1867 H 177.4 2.66366 1.33615 0
M  V30 1868 H 174.937 1.32008 0.649018 0
M  V30 1869 H 176.895 1.92229 3.70275 0
M  V30 1870 H 175.525 0.965809 3.08013 0
M  V30 1871 H 174.577 3.17575 2.09404 0
M  V30 1872 H 175.889 4.0394 2.92633 0
M  V30 1873 H 175.043 3.22708 5.13755 0
M  V30 1874 H 173.782 2.2601 4.3217 0
M  V30 1875 H 172.787 4.35366 3.35763 0
M  V30 1876 H 174.012 5.33159 4.20617 0
M  V30 1877 H 171.958 3.52258 5.53399 0
M  V30 1878 H 171.875 5.25111 5.4387 0
M  V30 1879 H 173.143 4.50281 6.36292 0
M  V30 1880 N 177.372 -0.689602 1.41712 0
M  V30 1881 C 178.6 -1.47827 1.44758 0
M  V30 1882 C 179.015 -1.88721 0.0545703 0
M  V30 1883 O 178.372 -1.57176 -0.927463 0
M  V30 1884 C 178.423 -2.73698 2.3616 0
M  V30 1885 O 178.144 -2.34524 3.7004 0
M  V30 1886 C 179.645 -3.67389 2.48072 0
M  V30 1887 H 176.865 -0.455357 0.49284 0
M  V30 1888 H 179.409 -0.848574 1.86063 0
M  V30 1889 H 177.564 -3.32891 1.98148 0
M  V30 1890 H 177.978 -3.15701 4.18847 0
M  V30 1891 H 179.452 -4.52475 3.16181 0
M  V30 1892 H 179.929 -4.12284 1.51388 0
M  V30 1893 H 180.535 -3.14097 2.86746 0
M  V30 1894 N 178.85 -1.27639 -0.924453 0
M  V30 1895 C 179.78 -1.13166 -2.04244 0
M  V30 1896 C 180.761 -0.032256 -1.70069 0
M  V30 1897 O 181.946 -0.207328 -1.9309 0
M  V30 1898 C 179.076 -0.781496 -3.38393 0
M  V30 1899 C 178.03 -1.83449 -3.86692 0
M  V30 1900 C 177.356 -1.33822 -5.17683 0
M  V30 1901 C 178.656 -3.23917 -4.09726 0
M  V30 1902 H 180.35 -2.06689 -2.1661 0
M  V30 1903 H 177.896 -0.995136 -1.04082 0
M  V30 1904 H 179.849 -0.667057 -4.16087 0
M  V30 1905 H 178.573 0.189439 -3.2605 0
M  V30 1906 H 177.232 -1.93789 -3.11193 0
M  V30 1907 H 176.88 -0.35665 -5.01734 0
M  V30 1908 H 176.58 -2.04224 -5.50968 0
M  V30 1909 H 178.104 -1.23679 -5.97943 0
M  V30 1910 H 179.518 -3.16559 -4.77978 0
M  V30 1911 H 177.915 -3.92059 -4.54324 0
M  V30 1912 H 178.985 -3.68729 -3.14908 0
M  V30 1913 N 180.328 1.1314 -1.09713 0
M  V30 1914 C 181.744 1.36477 -0.827423 0
M  V30 1915 C 181.944 1.93654 0.556817 0
M  V30 1916 O 181 2.15791 1.31112 0
M  V30 1917 C 182.313 2.31334 -1.92106 0
M  V30 1918 C 183.861 2.44943 -1.94864 0
M  V30 1919 C 184.336 3.4311 -3.0338 0
M  V30 1920 N 185.827 3.50662 -3.02639 0
M  V30 1921 C 186.562 4.2651 -3.83246 0
M  V30 1922 N 186.058 5.05485 -4.73768 0
M  V30 1923 N 187.851 4.2184 -3.71493 0
M  V30 1924 H 180.002 0.743807 -1.9895 0
M  V30 1925 H 182.265 0.389823 -0.864143 0
M  V30 1926 H 181.971 1.96483 -2.91698 0
M  V30 1927 H 181.845 3.31381 -1.80184 0
M  V30 1928 H 184.232 2.79079 -0.959099 0
M  V30 1929 H 184.313 1.4481 -2.10864 0
M  V30 1930 H 183.957 3.09704 -4.02549 0
M  V30 1931 H 183.887 4.43055 -2.84622 0
M  V30 1932 H 186.378 2.94315 -2.37039 0
M  V30 1933 H 186.691 5.60675 -5.3185 0
M  V30 1934 H 185.036 5.04708 -4.77802 0
M  V30 1935 H 188.227 3.5922 -3.00131 0
M  V30 1936 H 188.4 4.80697 -4.3455 0
M  V30 1937 N 181.806 0.884767 1.30421 0
M  V30 1938 C 182.716 0.355398 2.31892 0
M  V30 1939 C 183.732 -0.542261 1.65335 0
M  V30 1940 O 184.908 -0.435432 1.96637 0
M  V30 1941 C 181.973 -0.421661 3.44126 0
M  V30 1942 C 181.034 0.505727 4.26311 0
M  V30 1943 C 180.267 -0.234343 5.33185 0
M  V30 1944 O 180.49 -1.46045 5.51386 0
M  V30 1945 O 179.424 0.415443 6.00465 0
M  V30 1946 H 183.25 1.19685 2.79122 0
M  V30 1947 H 180.835 0.648596 1.34587 0
M  V30 1948 H 182.717 -0.861641 4.12497 0
M  V30 1949 H 181.392 -1.23942 2.99032 0
M  V30 1950 H 180.299 0.994513 3.60639 0
M  V30 1951 H 181.632 1.28948 4.75009 0
M  V30 1952 N 183.284 -1.43765 0.645699 0
M  V30 1953 C 184.514 -2.05953 0.163318 0
M  V30 1954 C 184.922 -1.48432 -1.17322 0
M  V30 1955 O 184.265 -0.607295 -1.73371 0
M  V30 1956 C 184.327 -3.59499 -0.0103065 0
M  V30 1957 C 183.991 -4.39563 1.25035 0
M  V30 1958 C 184.988 -4.72108 2.17739 0
M  V30 1959 C 182.673 -4.79697 1.48983 0
M  V30 1960 C 184.667 -5.43688 3.3269 0
M  V30 1961 C 182.354 -5.51023 2.64229 0
M  V30 1962 C 183.352 -5.8294 3.55908 0
M  V30 1963 O 183.04 -6.5281 4.69142 0
M  V30 1964 H 182.772 -0.670798 0.0836986 0
M  V30 1965 H 185.326 -1.85384 0.884407 0
M  V30 1966 H 183.556 -3.78613 -0.78669 0
M  V30 1967 H 185.245 -4.03408 -0.449087 0
M  V30 1968 H 186.011 -4.41627 2.00476 0
M  V30 1969 H 181.89 -4.54266 0.785078 0
M  V30 1970 H 185.434 -5.68517 4.04269 0
M  V30 1971 H 181.331 -5.8092 2.81429 0
M  V30 1972 H 182.099 -6.71288 4.6831 0
M  V30 1973 N 184.763 -0.387143 -1.52771 0
M  V30 1974 C 186.011 0.195349 -2.01154 0
M  V30 1975 C 186.332 1.475 -1.27549 0
M  V30 1976 O 185.602 1.91878 -0.394924 0
M  V30 1977 H 184.182 0.075178 -0.743207 0
M  V30 1978 H 186.844 -0.518337 -1.87881 0
M  V30 1979 H 185.94 0.407096 -3.09434 0
M  V30 1980 N 186.241 1.57166 -0.116904 0
M  V30 1981 C 187.488 1.95123 0.541603 0
M  V30 1982 C 187.816 1.00006 1.6682 0
M  V30 1983 O 187.071 0.0235658 1.95686 0
M  V30 1984 C 187.37 3.39508 1.11664 0
M  V30 1985 C 187.036 4.50762 0.111606 0
M  V30 1986 C 185.698 4.80918 -0.164758 0
M  V30 1987 C 188.05 5.18036 -0.573438 0
M  V30 1988 C 185.378 5.75666 -1.13249 0
M  V30 1989 C 187.73 6.13824 -1.52978 0
M  V30 1990 C 186.394 6.42374 -1.81415 0
M  V30 1991 H 185.664 0.714005 0.198187 0
M  V30 1992 H 188.311 1.9048 -0.197365 0
M  V30 1993 H 186.616 3.40835 1.93232 0
M  V30 1994 H 188.313 3.66189 1.63422 0
M  V30 1995 H 184.903 4.27272 0.337192 0
M  V30 1996 H 189.087 4.94896 -0.373092 0
M  V30 1997 H 184.343 5.96092 -1.35958 0
M  V30 1998 H 188.517 6.65039 -2.06629 0
M  V30 1999 H 186.144 7.15599 -2.56557 0
M  V30 2000 N 187.719 -0.156864 1.56817 0
M  V30 2001 C 188.666 -1.19394 1.97519 0
M  V30 2002 C 189.636 -1.4322 0.841265 0
M  V30 2003 O 190.821 -1.55719 1.10255 0
M  V30 2004 C 187.961 -2.52483 2.35258 0
M  V30 2005 C 187.074 -2.35914 3.61896 0
M  V30 2006 C 186.209 -3.61969 3.88782 0
M  V30 2007 C 185.248 -3.40395 5.08722 0
M  V30 2008 N 184.385 -4.58556 5.31668 0
M  V30 2009 H 189.225 -0.839845 2.85921 0
M  V30 2010 H 186.762 -0.403264 1.41464 0
M  V30 2011 H 188.72 -3.30071 2.55165 0
M  V30 2012 H 187.35 -2.85859 1.49949 0
M  V30 2013 H 186.402 -1.49429 3.49821 0
M  V30 2014 H 187.714 -2.15926 4.49641 0
M  V30 2015 H 186.868 -4.47989 4.09135 0
M  V30 2016 H 185.607 -3.84951 2.9944 0
M  V30 2017 H 184.612 -2.52763 4.88253 0
M  V30 2018 H 185.837 -3.18822 5.99608 0
M  V30 2019 H 183.783 -4.81729 4.45279 0
M  V30 2020 H 183.7 -4.41535 6.13664 0
M  V30 2021 H 184.968 -5.45817 5.5651 0
M  V30 2022 N 189.197 -1.51736 -0.425897 0
M  V30 2023 C 190.425 -1.68794 -1.1965 0
M  V30 2024 C 190.84 -0.390164 -1.84725 0
M  V30 2025 O 190.197 0.632376 -1.71194 0
M  V30 2026 C 190.248 -2.81174 -2.27208 0
M  V30 2027 O 189.969 -4.05925 -1.64793 0
M  V30 2028 C 191.47 -3.09599 -3.17275 0
M  V30 2029 H 188.69 -0.566128 -0.360194 0
M  V30 2030 H 191.234 -1.98211 -0.503249 0
M  V30 2031 H 189.389 -2.54324 -2.9223 0
M  V30 2032 H 189.803 -4.68423 -2.35967 0
M  V30 2033 H 191.277 -3.91786 -3.88854 0
M  V30 2034 H 191.754 -2.22468 -3.78688 0
M  V30 2035 H 192.36 -3.38151 -2.57941 0
M  V30 2036 N 190.675 0.682077 -1.42076 0
M  V30 2037 C 191.924 1.43786 -1.41451 0
M  V30 2038 C 192.237 1.95574 -0.0317074 0
M  V30 2039 O 193.443 2.71326 0.0971462 0
M  V30 2040 C 191.899 2.60071 -2.48779 0
M  V30 2041 C 191.507 2.15013 -3.93031 0
M  V30 2042 C 193.251 3.37626 -2.57311 0
M  V30 2043 C 191.158 3.28336 -4.91883 0
M  V30 2044 H 190.088 0.540143 -0.526082 0
M  V30 2045 H 192.739 0.739157 -1.67955 0
M  V30 2046 H 191.121 3.32275 -2.15429 0
M  V30 2047 H 192.295 1.5001 -4.35699 0
M  V30 2048 H 190.61 1.50416 -3.88284 0
M  V30 2049 H 193.207 4.22012 -3.28345 0
M  V30 2050 H 193.55 3.83727 -1.61429 0
M  V30 2051 H 194.083 2.72488 -2.89819 0
M  V30 2052 H 190.822 2.87234 -5.89217 0
M  V30 2053 H 190.342 3.92145 -4.53853 0
M  V30 2054 H 192.021 3.93913 -5.13265 0
M  V30 2055 N 192.153 1.28127 0.917671 0
M  V30 2056 C 193.383 1.17722 1.6978 0
M  V30 2057 C 193.791 -0.267261 1.87303 0
M  V30 2058 O 193.134 -1.19286 1.39702 0
M  V30 2059 C 193.196 1.79958 3.11216 0
M  V30 2060 C 192.86 3.29187 3.16993 0
M  V30 2061 C 193.857 4.25679 2.98485 0
M  V30 2062 C 191.542 3.70075 3.39632 0
M  V30 2063 C 193.536 5.61035 3.02521 0
M  V30 2064 C 191.223 5.05557 3.433 0
M  V30 2065 C 192.221 6.00847 3.24764 0
M  V30 2066 O 191.909 7.33859 3.28187 0
M  V30 2067 H 191.641 0.409788 0.537634 0
M  V30 2068 H 194.195 1.69694 1.15728 0
M  V30 2069 H 192.425 1.22475 3.66793 0
M  V30 2070 H 194.114 1.64125 3.71238 0
M  V30 2071 H 194.88 3.95426 2.80826 0
M  V30 2072 H 190.759 2.96373 3.53106 0
M  V30 2073 H 194.303 6.35388 2.87971 0
M  V30 2074 H 190.2 5.35462 3.60486 0
M  V30 2075 H 190.968 7.42436 3.44575 0
M  V30 2076 N 193.631 -1.12557 1.10312 0
M  V30 2077 C 194.579 -2.20325 0.745629 0
M  V30 2078 C 195.573 -1.67429 -0.25763 0
M  V30 2079 O 196.779 -1.79612 -0.118132 0
M  V30 2080 H 193.154 -0.718118 0.223182 0
M  V30 2081 H 195.125 -2.47733 1.66346 0
M  V30 2082 C 193.874 -3.47168 0.192262 0
M  V30 2083 H 193.197 -3.88215 0.955475 0
M  V30 2084 H 194.637 -4.23995 -0.0198274 0
M  V30 2085 C 193.096 -3.19298 -1.07472 0
M  V30 2086 O 193.626 -3.3891 -2.15645 0
M  V30 2087 N 191.832 -2.73113 -0.992847 0
M  V30 2088 H 191.379 -2.57354 -0.112474 0
M  V30 2089 H 191.337 -2.54842 -1.84127 0
M  V30 2090 N 195.109 -0.891671 -1.2995 0
M  V30 2091 C 196.334 -0.527932 -2.00568 0
M  V30 2092 C 196.759 0.877969 -1.66353 0
M  V30 2093 O 196.117 1.58301 -0.883762 0
M  V30 2094 C 196.165 -0.717745 -3.53385 0
M  V30 2095 O 195.269 0.233376 -4.11739 0
M  V30 2096 H 194.61 -0.20722 -0.630837 0
M  V30 2097 H 197.14 -1.20105 -1.65638 0
M  V30 2098 H 197.15 -0.619307 -4.03272 0
M  V30 2099 H 195.825 -1.74276 -3.77625 0
M  V30 2100 H 194.402 0.0880706 -3.72796 0
M  V30 2101 N 196.587 1.43421 -0.653314 0
M  V30 2102 C 197.497 2.34568 0.0388565 0
M  V30 2103 C 198.513 1.53888 0.81207 0
M  V30 2104 O 199.689 1.86539 0.759294 0
M  V30 2105 C 196.754 3.32167 0.993269 0
M  V30 2106 C 195.815 4.28751 0.216977 0
M  V30 2107 C 195.048 5.21688 1.12593 0
M  V30 2108 O 195.271 5.19052 2.36519 0
M  V30 2109 O 194.205 5.98919 0.598284 0
M  V30 2110 H 198.031 2.95251 -0.711386 0
M  V30 2111 H 195.616 1.43564 -0.413502 0
M  V30 2112 H 197.498 3.92183 1.54176 0
M  V30 2113 H 196.173 2.73987 1.72374 0
M  V30 2114 H 195.08 3.72215 -0.375101 0
M  V30 2115 H 196.413 4.89913 -0.473924 0
M  V30 2116 N 198.065 0.39524 1.52563 0
M  V30 2117 C 199.313 -0.184678 2.01254 0
M  V30 2118 C 199.634 -1.46822 1.28329 0
M  V30 2119 O 198.904 -1.91666 0.405094 0
M  V30 2120 H 197.484 -0.0712355 0.743596 0
M  V30 2121 H 200.146 0.528293 1.87603 0
M  V30 2122 H 199.242 -0.390681 3.09645 0
M  V30 2123 N 199.544 -1.57102 0.125237 0
M  V30 2124 C 200.792 -1.95021 -0.530198 0
M  V30 2125 C 201.113 -1.00982 -1.66816 0
M  V30 2126 O 200.383 -0.0672693 -1.95784 0
M  V30 2127 H 198.963 -0.720046 -0.198853 0
M  V30 2128 H 201.625 -1.93916 0.19564 0
M  V30 2129 H 200.721 -2.98211 -0.920681 0
M  V30 2130 N 201.022 0.148545 -1.56898 0
M  V30 2131 C 201.955 1.21293 -1.93296 0
M  V30 2132 C 202.933 1.41637 -0.798599 0
M  V30 2133 O 204.117 1.56275 -1.05406 0
M  V30 2134 C 201.244 2.5721 -2.20365 0
M  V30 2135 C 200.29 2.53469 -3.4301 0
M  V30 2136 S 201.123 2.00315 -4.96623 0
M  V30 2137 C 202.279 3.37964 -5.26812 0
M  V30 2138 H 202.512 0.902393 -2.83274 0
M  V30 2139 H 200.045 0.354094 -1.50285 0
M  V30 2140 H 202.003 3.35427 -2.36641 0
M  V30 2141 H 200.664 2.85454 -1.31054 0
M  V30 2142 H 199.857 3.53518 -3.59223 0
M  V30 2143 H 199.459 1.83359 -3.25968 0
M  V30 2144 H 201.751 4.34066 -5.20185 0
M  V30 2145 H 202.694 3.26606 -6.28279 0
M  V30 2146 H 203.102 3.35028 -4.54331 0
M  V30 2147 N 202.5 1.5196 0.417844 0
M  V30 2148 C 203.777 1.56146 1.17803 0
M  V30 2149 C 204.157 0.337275 2.08388 0
M  V30 2150 O 203.505 -0.676447 2.18258 0
M  V30 2151 C 203.715 2.88566 1.96293 0
M  V30 2152 C 205.063 3.41244 2.52662 0
M  V30 2153 O 206.087 2.90247 2.06483 0
M  V30 2154 O 204.946 4.30273 3.36938 0
M  V30 2155 H 202.04 0.628598 0.537395 0
M  V30 2156 H 204.586 1.64283 0.425331 0
M  V30 2157 H 203.358 3.69116 1.2988 0
M  V30 2158 H 202.981 2.83681 2.78587 0
M  V30 2159 N 203.978 -0.674533 1.42435 0
M  V30 2160 C 204.925 -1.78807 1.45934 0
M  V30 2161 C 205.895 -1.63157 0.311271 0
M  V30 2162 O 207.08 -1.83707 0.515383 0
M  V30 2163 C 204.22 -3.16839 1.36773 0
M  V30 2164 C 203.333 -3.43774 2.61617 0
M  V30 2165 C 202.468 -4.71536 2.44597 0
M  V30 2166 C 201.507 -4.91505 3.64814 0
M  V30 2167 N 200.644 -6.10508 3.46734 0
M  V30 2168 H 205.484 -1.75151 2.41093 0
M  V30 2169 H 203.021 -0.85504 1.19697 0
M  V30 2170 H 204.979 -3.96606 1.29459 0
M  V30 2171 H 203.609 -3.19619 0.452089 0
M  V30 2172 H 202.661 -2.58259 2.79297 0
M  V30 2173 H 203.973 -3.54423 3.50978 0
M  V30 2174 H 203.127 -5.59393 2.3487 0
M  V30 2175 H 201.866 -4.6317 1.52726 0
M  V30 2176 H 200.871 -4.0209 3.74972 0
M  V30 2177 H 202.096 -5.01716 4.57665 0
M  V30 2178 H 200.042 -6.03315 2.5758 0
M  V30 2179 H 199.959 -6.2202 4.29682 0
M  V30 2180 H 201.227 -7.01044 3.40819 0
M  V30 2181 N 205.456 -1.28612 -0.910864 0
M  V30 2182 C 206.702 -1.17116 -1.66299 0
M  V30 2183 C 207.057 0.276917 -1.90397 0
M  V30 2184 O 206.35 1.19795 -1.49532 0
M  V30 2185 C 206.544 -1.90624 -3.0232 0
M  V30 2186 C 206.373 -3.42431 -2.91498 0
M  V30 2187 C 205.143 -4.11773 -2.92867 0
M  V30 2188 C 207.341 -4.38124 -2.69355 0
M  V30 2189 N 205.323 -5.50025 -2.72664 0
M  V30 2190 C 206.694 -5.63759 -2.58023 0
M  V30 2191 C 208.749 -4.28016 -2.54375 0
M  V30 2192 C 207.452 -6.80436 -2.33238 0
M  V30 2193 C 209.478 -5.44433 -2.30969 0
M  V30 2194 C 208.84 -6.69034 -2.20394 0
M  V30 2195 H 204.939 -0.483506 -0.61461 0
M  V30 2196 H 207.523 -1.62299 -1.0755 0
M  V30 2197 H 205.694 -1.4787 -3.5915 0
M  V30 2198 H 207.426 -1.71488 -3.66571 0
M  V30 2199 H 204.181 -3.63378 -3.03732 0
M  V30 2200 H 204.605 -6.22705 -2.65646 0
M  V30 2201 H 209.247 -3.32388 -2.613 0
M  V30 2202 H 206.965 -7.7613 -2.25051 0
M  V30 2203 H 210.551 -5.38504 -2.20238 0
M  V30 2204 H 209.431 -7.57595 -2.02531 0
M  V30 2205 N 206.934 1.1197 -1.10907 0
M  V30 2206 C 207.864 2.19928 -0.784473 0
M  V30 2207 C 208.845 1.6833 0.244726 0
M  V30 2208 O 210.03 1.93892 0.109418 0
M  V30 2209 C 207.16 3.46597 -0.220827 0
M  V30 2210 C 206.114 4.11376 -1.18127 0
M  V30 2211 C 205.44 5.32554 -0.478594 0
M  V30 2212 C 206.74 4.56945 -2.52979 0
M  V30 2213 H 208.434 2.47337 -1.68715 0
M  V30 2214 H 205.98 1.18879 -0.812642 0
M  V30 2215 H 207.933 4.21396 0.0184278 0
M  V30 2216 H 206.657 3.1863 0.717113 0
M  V30 2217 H 205.316 3.38564 -1.40606 0
M  V30 2218 H 204.964 5.00856 0.463976 0
M  V30 2219 H 204.664 5.76844 -1.11912 0
M  V30 2220 H 206.188 6.10096 -0.248 0
M  V30 2221 H 207.602 5.23093 -2.3462 0
M  V30 2222 H 205.999 5.1203 -3.12962 0
M  V30 2223 H 207.069 3.70676 -3.12614 0
M  V30 2224 N 208.412 0.89855 1.29475 0
M  V30 2225 C 209.322 0.379974 2.31502 0
M  V30 2226 C 210.338 -0.524695 1.659 0
M  V30 2227 O 211.514 -0.414551 1.97087 0
M  V30 2228 C 208.579 -0.385138 3.44554 0
M  V30 2229 C 207.64 0.550914 4.2575 0
M  V30 2230 C 206.873 -0.177778 5.33404 0
M  V30 2231 O 207.096 -1.40189 5.52904 0
M  V30 2232 O 206.03 0.479106 5.9999 0
M  V30 2233 H 209.856 1.22639 2.77837 0
M  V30 2234 H 207.441 0.662834 1.33891 0
M  V30 2235 H 209.323 -0.817841 4.13388 0
M  V30 2236 H 207.998 -1.20763 3.0033 0
M  V30 2237 H 206.905 1.03271 3.59564 0
M  V30 2238 H 208.238 1.33979 4.73614 0
M  V30 2239 N 209.89 -1.43072 0.660911 0
M  V30 2240 C 210.8 -2.34585 -0.0264163 0
M  V30 2241 C 211.816 -1.54316 -0.803898 0
M  V30 2242 O 212.992 -1.86939 -0.749391 0
M  V30 2243 C 210.057 -3.32689 -0.975639 0
M  V30 2244 C 209.118 -4.2886 -0.194236 0
M  V30 2245 C 208.351 -5.22278 -1.09825 0
M  V30 2246 O 208.574 -5.20299 -2.33763 0
M  V30 2247 O 207.508 -5.99228 -0.566513 0
M  V30 2248 H 211.334 -2.94869 0.727034 0
M  V30 2249 H 208.919 -1.43342 0.42111 0
M  V30 2250 H 210.801 -3.92995 -1.52094 0
M  V30 2251 H 209.476 -2.74898 -1.70918 0
M  V30 2252 H 208.383 -3.72011 0.394835 0
M  V30 2253 H 209.716 -4.89655 0.499899 0
M  V30 2254 N 211.368 -0.403325 -1.52352 0
M  V30 2255 C 212.616 0.174003 -2.0135 0
M  V30 2256 C 212.937 1.46139 -1.29106 0
M  V30 2257 O 212.207 1.91448 -0.415253 0
M  V30 2258 H 210.787 0.0672911 -0.743963 0
M  V30 2259 H 213.449 -0.538235 -1.87321 0
M  V30 2260 H 212.545 0.374254 -3.09848 0
M  V30 2261 N 212.846 1.57033 -0.133567 0
M  V30 2262 C 213.776 2.1909 0.807567 0
M  V30 2263 C 214.757 1.13517 1.26681 0
M  V30 2264 O 215.942 1.41809 1.32679 0
M  V30 2265 C 213.072 2.80188 2.05212 0
M  V30 2266 C 212.026 3.91471 1.73015 0
M  V30 2267 C 211.352 4.39443 3.04622 0
M  V30 2268 C 212.652 5.12886 0.987168 0
M  V30 2269 H 214.346 2.97988 0.290403 0
M  V30 2270 H 211.892 1.43335 0.138239 0
M  V30 2271 H 213.845 3.22264 2.71521 0
M  V30 2272 H 212.569 1.98601 2.59278 0
M  V30 2273 H 211.228 3.49993 1.0909 0
M  V30 2274 H 210.876 3.54695 3.56651 0
M  V30 2275 H 210.576 5.14495 2.83847 0
M  V30 2276 H 212.1 4.8418 3.72024 0
M  V30 2277 H 213.514 5.51891 1.55208 0
M  V30 2278 H 211.911 5.93615 0.87985 0
M  V30 2279 H 212.981 4.84894 -0.0235286 0
M  V30 2280 N 214.325 -0.140222 1.56975 0
M  V30 2281 C 215.736 -0.699596 1.73097 0
M  V30 2282 C 216.087 -1.8134 0.749022 0
M  V30 2283 O 215.212 -2.16241 -0.0828503 0
M  V30 2284 C 215.807 -1.27582 3.1386 0
M  V30 2285 C 214.366 -1.78169 3.31561 0
M  V30 2286 C 213.513 -0.672855 2.69013 0
M  V30 2287 H 216.464 0.0855115 1.58469 0
M  V30 2288 H 216.485 -2.14561 3.14235 0
M  V30 2289 H 215.997 -0.464955 3.85305 0
M  V30 2290 H 214.098 -2.61801 2.65124 0
M  V30 2291 H 214.211 -1.90574 4.39566 0
M  V30 2292 H 212.575 -1.10118 2.29665 0
M  V30 2293 H 213.358 0.126679 3.43066 0
M  V30 2294 N 215.803 -1.52179 -0.40978 0
M  V30 2295 C 217.028 -1.70347 -1.18308 0
M  V30 2296 C 217.453 -0.411887 -1.83535 0
M  V30 2297 O 216.811 0.630587 -1.6998 0
M  V30 2298 C 216.859 -2.83977 -2.22238 0
M  V30 2299 O 215.963 -2.495 -3.28365 0
M  V30 2300 H 215.304 -0.567103 -0.345384 0
M  V30 2301 H 217.834 -1.98879 -0.480445 0
M  V30 2302 H 217.844 -3.0887 -2.66577 0
M  V30 2303 H 216.519 -3.77685 -1.74146 0
M  V30 2304 H 215.096 -2.35277 -2.89308 0
M  V30 2305 N 217.281 0.66697 -1.42791 0
M  V30 2306 C 218.211 1.79218 -1.49677 0
M  V30 2307 C 219.192 1.66405 -0.352623 0
M  V30 2308 O 220.377 1.85708 -0.567993 0
M  V30 2309 C 217.507 3.17565 -1.40605 0
M  V30 2310 C 216.461 3.45124 -2.53127 0
M  V30 2311 C 215.787 4.83127 -2.29112 0
M  V30 2312 C 217.087 3.41236 -3.95418 0
M  V30 2313 H 218.781 1.73713 -2.43853 0
M  V30 2314 H 216.327 0.83432 -1.17367 0
M  V30 2315 H 218.28 3.96022 -1.44029 0
M  V30 2316 H 217.004 3.23767 -0.429271 0
M  V30 2317 H 215.663 2.69031 -2.49034 0
M  V30 2318 H 215.311 4.85988 -1.29709 0
M  V30 2319 H 215.011 5.02528 -3.04531 0
M  V30 2320 H 216.535 5.63859 -2.34297 0
M  V30 2321 H 217.949 4.09651 -4.01073 0
M  V30 2322 H 216.346 3.72173 -4.70752 0
M  V30 2323 H 217.416 2.39665 -4.21532 0
M  V30 2324 N 218.759 1.29093 0.90403 0
M  V30 2325 C 220.036 1.075 1.63411 0
M  V30 2326 C 220.416 -0.382346 2.07609 0
M  V30 2327 O 219.764 -1.37031 1.82851 0
M  V30 2328 C 219.974 2.05858 2.81822 0
M  V30 2329 C 221.322 2.36539 3.52611 0
M  V30 2330 O 222.346 2.04019 2.91984 0
M  V30 2331 O 221.205 2.92085 4.61897 0
M  V30 2332 H 218.299 0.411547 0.717327 0
M  V30 2333 H 220.845 1.40449 0.952479 0
M  V30 2334 H 219.617 3.04037 2.46327 0
M  V30 2335 H 219.24 1.73613 3.57693 0
M  V30 2336 O 220.276 -1.03933 1.23613 0
M  V30 2337 H 220.967 -1.65369 1.0086 0
M  V30 END ATOM
M  V30 BEGIN BOND
M  V30 END BOND
M  V30 END CTAB
M  END
$$$$
