drugbank_target|Q56UN5 Mitogen-activated protein kinase kinase kinase 19 (DB12010)
 OpenBabel12092121143D

  0  0  0     0  0            999 V3000
M  V30 BEGIN CTAB
M  V30 COUNTS 21006 21221 0 0 0
M  V30 BEGIN ATOM
M  V30 1 H -0.908 1.98254 -0.117106 0
M  V30 2 N 0 1.576 0 0
M  V30 3 C 0.933 2.03868 1.02534 0
M  V30 4 C 1.911 0.928543 1.3348 0
M  V30 5 O 3.095 1.19667 1.45644 0
M  V30 6 C 0.222 2.43627 2.35294 0
M  V30 7 C -0.732 3.65373 2.2001 0
M  V30 8 S 0.101 5.13292 1.52614 0
M  V30 9 C 1.257 5.56322 2.86805 0
M  V30 10 H 1.49 2.90518 0.631377 0
M  V30 11 H -0.977 1.52953 0.210867 0
M  V30 12 H 0.981 2.67203 3.11629 0
M  V30 13 H -0.358 1.57376 2.7183 0
M  V30 14 H -1.165 3.90944 3.18086 0
M  V30 15 H -1.563 3.418 1.51819 0
M  V30 16 H 0.729 5.58782 3.83104 0
M  V30 17 H 1.672 6.56266 2.65933 0
M  V30 18 H 2.08 4.83886 2.90714 0
M  V30 19 N 1.4781 -0.272755 1.55222 0
M  V30 20 C 2.7031 -1.02683 1.80197 0
M  V30 21 C 3.1281 -1.79142 0.573551 0
M  V30 22 O 2.4861 -1.74917 -0.476849 0
M  V30 23 C 2.5341 -1.9609 3.02624 0
M  V30 24 O 1.6381 -3.04863 2.77727 0
M  V30 25 H 0.9791 -0.293557 0.595584 0
M  V30 26 H 3.5091 -0.30159 2.02365 0
M  V30 27 H 3.5191 -2.38039 3.31363 0
M  V30 28 H 2.1941 -1.39851 3.91682 0
M  V30 29 H 0.7711 -2.67228 2.60084 0
M  V30 30 N 2.9562 -1.48159 -0.537278 0
M  V30 31 C 4.1812 -1.59707 -1.32319 0
M  V30 32 C 4.6062 -0.254859 -1.86365 0
M  V30 33 O 3.9642 0.772378 -1.64024 0
M  V30 34 C 4.0122 -2.6412 -2.45505 0
M  V30 35 O 3.1162 -2.20774 -3.48328 0
M  V30 36 H 2.4572 -0.535791 -0.392204 0
M  V30 37 H 4.9872 -1.94092 -0.647268 0
M  V30 38 H 4.9972 -2.85166 -2.91795 0
M  V30 39 H 3.6722 -3.61567 -2.05528 0
M  V30 40 H 2.2492 -2.09911 -3.08207 0
M  V30 41 N 4.4343 0.785586 -1.36625 0
M  V30 42 C 5.3673 1.90509 -1.25625 0
M  V30 43 C 6.3453 1.62 -0.139607 0
M  V30 44 O 7.5293 1.8591 -0.31141 0
M  V30 45 C 4.6563 3.25419 -0.939158 0
M  V30 46 C 3.7023 3.72856 -2.07077 0
M  V30 47 S 4.5353 3.88162 -3.68904 0
M  V30 48 C 5.6913 5.25942 -3.39317 0
M  V30 49 H 5.9243 1.99549 -2.20381 0
M  V30 50 H 3.4573 0.945226 -1.22085 0
M  V30 51 H 5.4153 4.03346 -0.763029 0
M  V30 52 H 4.0763 3.14099 -0.00931402 0
M  V30 53 H 3.2693 4.70624 -1.80357 0
M  V30 54 H 2.8713 3.01989 -2.20632 0
M  V30 55 H 5.1633 6.10651 -2.93447 0
M  V30 56 H 6.1063 5.57668 -4.36363 0
M  V30 57 H 6.5143 4.93224 -2.74573 0
M  V30 58 N 5.9124 1.20967 1.01018 0
M  V30 59 C 7.3234 1.02319 1.56165 0
M  V30 60 C 7.6744 -0.418546 1.91684 0
M  V30 61 O 6.7994 -1.30096 1.72928 0
M  V30 62 C 7.3944 1.85109 2.8376 0
M  V30 63 C 5.9534 1.70809 3.35412 0
M  V30 64 C 5.1004 1.82643 2.08655 0
M  V30 65 H 8.0514 1.35065 0.833255 0
M  V30 66 H 8.0724 1.35827 3.55431 0
M  V30 67 H 7.5844 2.90035 2.57878 0
M  V30 68 H 5.6854 0.685464 3.66241 0
M  V30 69 H 5.7984 2.52467 4.07182 0
M  V30 70 H 4.1624 1.25896 2.21409 0
M  V30 71 H 4.9454 2.89066 1.85191 0
M  V30 72 N 7.3905 -1.2043 1.01659 0
M  V30 73 C 8.3375 -2.23215 0.586822 0
M  V30 74 C 9.3075 -1.61382 -0.393085 0
M  V30 75 O 10.4925 -1.88544 -0.292525 0
M  V30 76 C 7.6325 -3.45032 -0.0687464 0
M  V30 77 C 6.7455 -4.21296 0.955724 0
M  V30 78 C 5.8805 -5.30507 0.271208 0
M  V30 79 C 4.9195 -5.98515 1.28244 0
M  V30 80 N 4.0565 -6.99316 0.62459 0
M  V30 81 H 8.8965 -2.59336 1.46796 0
M  V30 82 H 6.4335 -1.27431 0.734836 0
M  V30 83 H 8.3915 -4.1459 -0.465965 0
M  V30 84 H 7.0215 -3.09604 -0.913529 0
M  V30 85 H 6.0735 -3.50803 1.4711 0
M  V30 86 H 7.3855 -4.6803 1.72479 0
M  V30 87 H 6.5395 -6.06428 -0.18151 0
M  V30 88 H 5.2785 -4.8481 -0.530163 0
M  V30 89 H 4.2835 -5.21355 1.74554 0
M  V30 90 H 5.5085 -6.46298 2.08509 0
M  V30 91 H 3.4545 -6.55812 -0.156914 0
M  V30 92 H 3.3715 -7.44178 1.33172 0
M  V30 93 H 4.6395 -7.79255 0.195462 0
M  V30 94 N 8.8686 -0.792821 -1.36206 0
M  V30 95 C 10.2796 -0.429513 -1.81692 0
M  V30 96 C 10.6306 1.04695 -1.65932 0
M  V30 97 O 9.7556 1.81256 -1.18218 0
M  V30 98 C 10.3506 -0.772831 -3.29868 0
M  V30 99 C 8.9096 -0.462307 -3.7355 0
M  V30 100 C 8.0566 -1.00569 -2.5842 0
M  V30 101 H 11.0076 -0.985672 -1.24379 0
M  V30 102 H 11.0286 -0.0651928 -3.80444 0
M  V30 103 H 10.5406 -1.84747 -3.41307 0
M  V30 104 H 8.6416 0.604158 -3.67669 0
M  V30 105 H 8.7546 -0.985299 -4.68859 0
M  V30 106 H 7.1186 -0.428734 -2.51066 0
M  V30 107 H 7.9016 -2.08616 -2.72643 0
M  V30 108 N 10.3467 1.47872 -0.545128 0
M  V30 109 C 11.2567 2.33633 0.212746 0
M  V30 110 C 12.2727 1.4744 0.923983 0
M  V30 111 O 13.4487 1.80393 0.895572 0
M  V30 112 C 10.5137 3.23884 1.23693 0
M  V30 113 C 9.5747 4.25961 0.534417 0
M  V30 114 C 8.8077 5.11899 1.5098 0
M  V30 115 O 9.0307 5.00077 2.7437 0
M  V30 116 O 7.9647 5.92831 1.0409 0
M  V30 117 H 11.7907 2.99714 -0.490416 0
M  V30 118 H 9.3757 1.46235 -0.305871 0
M  V30 119 H 11.2577 3.79666 1.82843 0
M  V30 120 H 9.9327 2.60446 1.92222 0
M  V30 121 H 8.8397 3.73972 -0.0979679 0
M  V30 122 H 10.1727 4.92079 -0.109213 0
M  V30 123 N 11.8248 0.280983 1.55075 0
M  V30 124 C 13.2408 -0.0729964 1.59433 0
M  V30 125 C 13.4408 -1.5411 1.29817 0
M  V30 126 O 12.4968 -2.29086 1.06187 0
M  V30 127 C 13.8098 0.306921 2.9913 0
M  V30 128 C 15.3578 0.254023 3.11968 0
M  V30 129 C 15.8328 0.608467 4.5394 0
M  V30 130 N 17.3238 0.560241 4.59799 0
M  V30 131 C 18.0588 0.80722 5.6769 0
M  V30 132 N 17.5548 1.11912 6.83701 0
M  V30 133 N 19.3478 0.735623 5.57266 0
M  V30 134 H 11.4988 1.238 1.7259 0
M  V30 135 H 13.7618 0.500547 0.805082 0
M  V30 136 H 13.4678 1.32816 3.25657 0
M  V30 137 H 13.3418 -0.349363 3.75579 0
M  V30 138 H 15.7288 -0.75794 2.852 0
M  V30 139 H 15.8098 0.944649 2.37718 0
M  V30 140 H 15.4538 1.61814 4.81434 0
M  V30 141 H 15.3838 -0.104013 5.26497 0
M  V30 142 H 17.8748 0.329288 3.76463 0
M  V30 143 H 18.1878 1.29409 7.61888 0
M  V30 144 H 16.5328 1.15695 6.85303 0
M  V30 145 H 19.7238 0.491752 4.6551 0
M  V30 146 H 19.8968 0.931482 6.4127 0
M  V30 147 N 13.3029 -1.57598 0.00835791 0
M  V30 148 C 14.2529 -2.05431 -0.989045 0
M  V30 149 C 15.2369 -0.950662 -1.29812 0
M  V30 150 O 16.4289 -1.21438 -1.28771 0
M  V30 151 C 13.5579 -2.56801 -2.27833 0
M  V30 152 C 12.6439 -3.74058 -1.99853 0
M  V30 153 N 13.0349 -4.8544 -1.42062 0
M  V30 154 C 11.3329 -3.82148 -2.29953 0
M  V30 155 C 12.0339 -5.66817 -1.30743 0
M  V30 156 N 11.0099 -5.13077 -1.7959 0
M  V30 157 H 14.8119 -2.88955 -0.536853 0
M  V30 158 H 12.3259 -1.61199 -0.197148 0
M  V30 159 H 14.3229 -2.89349 -3.00137 0
M  V30 160 H 12.9829 -1.74699 -2.73698 0
M  V30 161 H 13.9939 -5.0612 -1.09833 0
M  V30 162 H 10.6709 -3.10916 -2.78635 0
M  V30 163 H 12.0609 -6.66343 -0.862328 0
M  V30 164 N 14.781 0.264519 -1.55364 0
M  V30 165 C 15.744 1.31046 -1.88042 0
M  V30 166 C 16.744 1.41943 -0.755569 0
M  V30 167 O 17.934 1.40947 -1.02369 0
M  V30 168 C 15.066 2.69067 -2.09323 0
M  V30 169 H 16.259 1.03297 -2.81549 0
M  V30 170 H 13.812 0.502989 -1.47986 0
M  V30 171 H 14.547 3.01982 -1.18226 0
M  V30 172 H 14.332 2.62542 -2.91229 0
M  V30 173 H 15.822 3.44623 -2.35848 0
M  V30 174 N 16.2591 1.48442 0.529413 0
M  V30 175 C 17.1691 1.6569 1.66084 0
M  V30 176 C 18.1851 0.539432 1.65427 0
M  V30 177 O 19.3611 0.810572 1.84368 0
M  V30 178 C 16.4261 1.69315 3.02545 0
M  V30 179 C 15.4871 2.92694 3.14052 0
M  V30 180 C 14.7201 2.96137 4.44003 0
M  V30 181 O 14.9431 2.07973 5.31134 0
M  V30 182 O 13.8771 3.88312 4.59888 0
M  V30 183 H 17.7031 2.61483 1.54469 0
M  V30 184 H 15.2881 1.3185 0.702567 0
M  V30 185 H 17.1701 1.74217 3.83701 0
M  V30 186 H 15.8451 0.766966 3.14483 0
M  V30 187 H 14.7521 2.93324 2.32189 0
M  V30 188 H 16.0851 3.84699 3.0703 0
M  V30 189 N 17.7372 -0.778329 1.37039 0
M  V30 190 C 18.9622 -1.57248 1.35233 0
M  V30 191 C 19.3872 -1.87999 -0.0615568 0
M  V30 192 O 18.7452 -1.48734 -1.03672 0
M  V30 193 C 18.7932 -2.86353 2.19167 0
M  V30 194 O 17.8972 -3.80442 1.59178 0
M  V30 195 H 17.2382 -0.476569 0.462362 0
M  V30 196 H 19.7682 -0.963853 1.80474 0
M  V30 197 H 19.7782 -3.35519 2.32145 0
M  V30 198 H 18.4532 -2.63299 3.21942 0
M  V30 199 H 17.0302 -3.39067 1.55203 0
M  V30 200 N 19.2153 -1.21501 -1.00376 0
M  V30 201 C 20.1453 -0.999478 -2.11028 0
M  V30 202 C 21.1263 0.0759671 -1.6993 0
M  V30 203 O 22.3113 -0.0841106 -1.94018 0
M  V30 204 C 19.4413 -0.564709 -3.42678 0
M  V30 205 C 18.3953 -1.58486 -3.97576 0
M  V30 206 C 17.7213 -1.00628 -5.25146 0
M  V30 207 C 19.0213 -2.97204 -4.29496 0
M  V30 208 H 20.7153 -1.92495 -2.29317 0
M  V30 209 H 18.2613 -0.92693 -1.102 0
M  V30 210 H 20.2143 -0.401091 -4.19487 0
M  V30 211 H 18.9383 0.396411 -3.24185 0
M  V30 212 H 17.5973 -1.73606 -3.22888 0
M  V30 213 H 17.2453 -0.0368439 -5.02987 0
M  V30 214 H 16.9453 -1.68771 -5.62841 0
M  V30 215 H 18.4693 -0.854015 -6.04598 0
M  V30 216 H 19.8833 -2.8552 -4.97143 0
M  V30 217 H 18.2803 -3.62372 -4.78338 0
M  V30 218 H 19.3503 -3.47956 -3.3772 0
M  V30 219 N 20.6934 1.19889 -1.02296 0
M  V30 220 C 21.6234 2.25141 -0.619174 0
M  V30 221 C 22.6044 1.66051 0.368915 0
M  V30 222 O 23.7894 1.92546 0.252941 0
M  V30 223 C 20.9194 3.4728 0.0368783 0
M  V30 224 C 19.8734 4.19005 -0.872865 0
M  V30 225 C 19.1994 5.34637 -0.0822402 0
M  V30 226 C 20.4994 4.74452 -2.18387 0
M  V30 227 H 22.1934 2.59171 -1.49903 0
M  V30 228 H 19.7394 1.24579 -0.722222 0
M  V30 229 H 21.6924 4.20098 0.330958 0
M  V30 230 H 20.4164 3.12433 0.95149 0
M  V30 231 H 19.0754 3.48061 -1.15105 0
M  V30 232 H 18.7234 4.96034 0.83422 0
M  V30 233 H 18.4234 5.83557 -0.688149 0
M  V30 234 H 19.9474 6.10255 0.205238 0
M  V30 235 H 21.3614 5.39055 -1.95172 0
M  V30 236 H 19.7584 5.33834 -2.74119 0
M  V30 237 H 20.8284 3.92844 -2.84257 0
M  V30 238 N 22.1715 0.800033 1.35784 0
M  V30 239 C 23.4485 0.30088 1.93272 0
M  V30 240 C 23.8285 -1.20857 1.73081 0
M  V30 241 O 23.1765 -2.00502 1.09596 0
M  V30 242 C 23.3865 0.70511 3.41803 0
M  V30 243 C 24.7345 0.690871 4.18942 0
M  V30 244 O 25.7585 0.646244 3.50289 0
M  V30 245 O 24.6175 0.74332 5.41421 0
M  V30 246 H 21.7115 0.0771605 0.823393 0
M  V30 247 H 24.2575 0.88329 1.449 0
M  V30 248 H 23.0295 1.74571 3.50201 0
M  V30 249 H 22.6525 0.0971541 3.97481 0
M  V30 250 N 23.6496 -1.47581 0.552962 0
M  V30 251 C 24.8986 -2.01684 0.0251995 0
M  V30 252 C 25.2116 -1.43317 -1.33115 0
M  V30 253 O 26.4176 -1.89057 -1.94858 0
M  V30 254 C 24.8736 -3.599 -0.00542052 0
M  V30 255 C 24.4816 -4.27257 1.34742 0
M  V30 256 C 26.2256 -4.21768 -0.4808 0
M  V30 257 C 24.1326 -5.77467 1.27614 0
M  V30 258 H 23.0626 -0.753979 0.00565033 0
M  V30 259 H 25.7136 -1.69616 0.70018 0
M  V30 260 H 24.0956 -3.88911 -0.745961 0
M  V30 261 H 25.2696 -4.09893 2.10534 0
M  V30 262 H 23.5846 -3.77358 1.76039 0
M  V30 263 H 26.1816 -5.31838 -0.55246 0
M  V30 264 H 26.5246 -3.88651 -1.49184 0
M  V30 265 H 27.0576 -3.97273 0.204752 0
M  V30 266 H 23.7966 -6.15196 2.26304 0
M  V30 267 H 23.3166 -5.9718 0.55996 0
M  V30 268 H 24.9956 -6.3959 0.976421 0
M  V30 269 N 25.1277 -0.289203 -1.54924 0
M  V30 270 C 26.3677 0.324536 -2.01807 0
M  V30 271 C 26.7317 1.5199 -1.17316 0
M  V30 272 O 27.9327 2.20422 -1.53843 0
M  V30 273 C 26.2037 0.683578 -3.50802 0
M  V30 274 S 27.7627 1.28185 -4.19659 0
M  V30 275 H 24.5807 0.100236 -0.703899 0
M  V30 276 H 27.1827 -0.414325 -1.91059 0
M  V30 277 H 25.8867 -0.195073 -4.09936 0
M  V30 278 H 25.4177 1.45354 -3.65562 0
M  V30 279 H 27.4327 2.57006 -4.24456 0
M  V30 280 N 26.6058 1.57591 -0.0167156 0
M  V30 281 C 27.5558 2.05953 0.978137 0
M  V30 282 C 28.5398 0.957532 1.29306 0
M  V30 283 O 29.7318 1.22119 1.28125 0
M  V30 284 C 26.8608 2.58006 2.26468 0
M  V30 285 C 25.9468 3.75113 1.97867 0
M  V30 286 N 26.3378 4.86187 1.39486 0
M  V30 287 C 24.6358 3.83363 2.27924 0
M  V30 288 C 25.3368 5.67502 1.27735 0
M  V30 289 N 24.3128 5.14023 1.76866 0
M  V30 290 H 28.1148 2.89236 0.521522 0
M  V30 291 H 25.6288 1.61301 0.188596 0
M  V30 292 H 27.6258 2.90937 2.98599 0
M  V30 293 H 26.2858 1.76148 2.72767 0
M  V30 294 H 27.2968 5.06695 1.07147 0
M  V30 295 H 23.9738 3.1239 2.76982 0
M  V30 296 H 25.3638 6.66791 0.826978 0
M  V30 297 N 28.0839 -0.256276 1.55502 0
M  V30 298 C 29.3609 -1.00789 1.67633 0
M  V30 299 C 29.7409 -2.03706 0.553826 0
M  V30 300 O 29.0889 -2.24145 -0.443969 0
M  V30 301 C 29.2989 -1.64968 3.07549 0
M  V30 302 C 30.6469 -2.15505 3.65845 0
M  V30 303 O 31.6709 -1.74925 3.1029 0
M  V30 304 O 30.5299 -2.89986 4.63217 0
M  V30 305 H 27.6239 -0.468553 0.681459 0
M  V30 306 H 30.1699 -0.250806 1.67836 0
M  V30 307 H 28.9419 -0.904785 3.80696 0
M  V30 308 H 28.5649 -2.47321 3.11317 0
M  V30 309 N 29.562 -1.4872 -0.521534 0
M  V30 310 C 30.79 -1.60843 -1.30142 0
M  V30 311 C 31.205 -0.271897 -1.86832 0
M  V30 312 O 30.562 0.739969 -1.66825 0
M  V30 313 C 30.613 -2.66155 -2.4463 0
M  V30 314 O 30.334 -3.94623 -1.90275 0
M  V30 315 C 31.835 -2.88795 -3.36322 0
M  V30 316 H 29.055 -0.542075 -0.395468 0
M  V30 317 H 31.599 -1.94609 -0.628285 0
M  V30 318 H 29.754 -2.35224 -3.07812 0
M  V30 319 H 30.168 -4.52468 -2.65279 0
M  V30 320 H 31.642 -3.66264 -4.12983 0
M  V30 321 H 32.119 -1.97934 -3.9207 0
M  V30 322 H 32.725 -3.21063 -2.78924 0
M  V30 323 N 31.0401 0.771051 -1.3745 0
M  V30 324 C 31.9881 1.90574 -1.33358 0
M  V30 325 C 32.9821 1.67936 -0.22224 0
M  V30 326 O 34.1881 1.75717 -0.390304 0
M  V30 327 H 30.5631 0.626714 -0.415612 0
M  V30 328 H 32.5341 1.91142 -2.29144 0
M  V30 329 C 31.2831 3.27845 -1.15813 0
M  V30 330 H 30.6061 3.45842 -2.00583 0
M  V30 331 H 32.0461 4.07538 -1.17 0
M  V30 332 C 30.5051 3.36625 0.136165 0
M  V30 333 O 31.0351 3.85785 1.11949 0
M  V30 334 N 29.2411 2.89997 0.187099 0
M  V30 335 H 28.7881 2.50182 -0.613753 0
M  V30 336 H 28.7461 2.96252 1.05272 0
M  V30 337 N 32.5182 1.22032 0.997298 0
M  V30 338 C 33.7432 1.06921 1.77715 0
M  V30 339 C 34.1682 -0.376226 1.84299 0
M  V30 340 O 33.5262 -1.27165 1.29223 0
M  V30 341 C 33.5742 1.67996 3.19076 0
M  V30 342 O 32.6782 0.930653 4.01762 0
M  V30 343 H 32.0192 0.375814 0.547412 0
M  V30 344 H 34.5492 1.61737 1.25309 0
M  V30 345 H 34.5592 1.72538 3.69723 0
M  V30 346 H 33.2342 2.73182 3.13599 0
M  V30 347 H 31.8112 0.960917 3.60307 0
M  V30 348 N 33.9963 -1.19345 1.0293 0
M  V30 349 C 35.2213 -1.93538 0.745511 0
M  V30 350 C 35.6463 -1.75007 -0.689511 0
M  V30 351 O 35.0043 -1.05265 -1.47611 0
M  V30 352 C 35.0523 -3.43336 1.10239 0
M  V30 353 O 34.1563 -4.11806 0.221289 0
M  V30 354 H 33.4973 -0.604193 0.275404 0
M  V30 355 H 36.0273 -1.5141 1.37609 0
M  V30 356 H 36.0373 -3.94004 1.05947 0
M  V30 357 H 34.7123 -3.56146 2.14786 0
M  V30 358 H 33.2893 -3.715 0.322842 0
M  V30 359 N 35.4744 -0.807222 -1.35358 0
M  V30 360 C 36.8854 -0.44876 -1.81226 0
M  V30 361 C 37.2364 1.02929 -1.67033 0
M  V30 362 O 36.3614 1.79991 -1.20133 0
M  V30 363 C 36.9564 -0.807774 -3.2903 0
M  V30 364 C 35.5154 -0.501901 -3.73039 0
M  V30 365 C 34.6624 -1.03304 -2.57339 0
M  V30 366 H 37.6134 -0.998808 -1.23327 0
M  V30 367 H 37.6344 -0.10554 -3.80354 0
M  V30 368 H 37.1464 -1.88357 -3.39328 0
M  V30 369 H 35.2474 0.565128 -3.68289 0
M  V30 370 H 35.3604 -1.03497 -4.67787 0
M  V30 371 H 33.7244 -0.455339 -2.50597 0
M  V30 372 H 34.5074 -2.11496 -2.70415 0
M  V30 373 N 36.9525 1.47285 -0.560781 0
M  V30 374 C 38.1805 2.06855 -0.0430262 0
M  V30 375 C 38.5955 1.41291 1.25229 0
M  V30 376 O 37.9525 0.510648 1.7521 0
M  V30 377 C 38.0035 3.61178 0.152518 0
M  V30 378 O 37.7245 4.24285 -1.0915 0
M  V30 379 C 39.2255 4.37624 0.707145 0
M  V30 380 H 36.4455 0.669319 -0.0474652 0
M  V30 381 H 38.9895 1.89237 -0.77521 0
M  V30 382 H 37.1445 3.78298 0.834843 0
M  V30 383 H 37.5585 5.16868 -0.891482 0
M  V30 384 H 39.0325 5.46271 0.793244 0
M  V30 385 H 39.5095 4.04152 1.71923 0
M  V30 386 H 40.1155 4.25257 0.0604027 0
M  V30 387 N 38.4306 0.297415 1.54768 0
M  V30 388 C 39.7076 -0.365847 1.92148 0
M  V30 389 C 40.0876 -1.71975 1.22424 0
M  V30 390 O 39.4356 -2.25666 0.358739 0
M  V30 391 C 39.6456 -0.484056 3.45627 0
M  V30 392 C 40.9936 -0.756594 4.17805 0
M  V30 393 O 42.0176 -0.568007 3.51642 0
M  V30 394 O 40.8766 -1.11863 5.34929 0
M  V30 395 H 37.9706 -0.203919 0.801465 0
M  V30 396 H 40.5166 0.34521 1.66152 0
M  V30 397 H 39.2886 0.467865 3.88493 0
M  V30 398 H 38.9116 -1.24372 3.77647 0
M  V30 399 N 39.9087 -1.5758 0.0250728 0
M  V30 400 C 40.8387 -2.13007 -0.956575 0
M  V30 401 C 41.8197 -1.0452 -1.342 0
M  V30 402 O 43.0047 -1.32332 -1.42133 0
M  V30 403 C 40.1347 -2.65386 -2.24026 0
M  V30 404 C 39.0887 -3.78623 -1.99571 0
M  V30 405 C 38.4147 -4.17414 -3.3417 0
M  V30 406 C 39.7147 -5.04867 -1.33814 0
M  V30 407 H 41.4087 -2.9528 -0.494991 0
M  V30 408 H 38.9547 -1.42042 -0.236651 0
M  V30 409 H 40.9077 -3.02794 -2.93076 0
M  V30 410 H 39.6317 -1.80268 -2.72343 0
M  V30 411 H 38.2907 -3.41646 -1.32941 0
M  V30 412 H 37.9387 -3.29284 -3.80238 0
M  V30 413 H 37.6387 -4.93719 -3.18615 0
M  V30 414 H 39.1627 -4.57402 -4.04495 0
M  V30 415 H 40.5767 -5.39888 -1.92857 0
M  V30 416 H 38.9737 -5.86144 -1.28669 0
M  V30 417 H 40.0437 -4.83904 -0.310561 0
M  V30 418 N 41.3868 0.248026 -1.55636 0
M  V30 419 C 42.3198 1.3334 -1.85191 0
M  V30 420 C 43.2978 1.46429 -0.706906 0
M  V30 421 O 44.4818 1.62662 -0.952544 0
M  V30 422 C 41.6088 2.70703 -2.03562 0
M  V30 423 C 40.6548 2.7477 -3.26196 0
M  V30 424 S 41.4878 2.31493 -4.82878 0
M  V30 425 C 42.6438 3.70783 -5.04253 0
M  V30 426 H 42.8768 1.08072 -2.76962 0
M  V30 427 H 40.4098 0.448952 -1.47729 0
M  V30 428 H 42.3678 3.49798 -2.1483 0
M  V30 429 H 41.0288 2.9321 -1.12635 0
M  V30 430 H 40.2218 3.75648 -3.36013 0
M  V30 431 H 39.8238 2.03719 -3.13647 0
M  V30 432 H 42.1158 4.6627 -4.91527 0
M  V30 433 H 43.0588 3.65901 -6.06236 0
M  V30 434 H 43.4668 3.63244 -4.32105 0
M  V30 435 N 42.8649 1.48995 0.513639 0
M  V30 436 C 44.0929 1.61531 1.29288 0
M  V30 437 C 44.5079 0.281801 1.86685 0
M  V30 438 O 43.8649 -0.731111 1.67215 0
M  V30 439 C 43.9159 2.67449 2.43215 0
M  V30 440 O 43.6369 3.95626 1.88179 0
M  V30 441 C 45.1379 2.90575 3.34785 0
M  V30 442 H 42.3579 0.544165 0.392588 0
M  V30 443 H 44.9019 1.9494 0.617956 0
M  V30 444 H 43.0569 2.36853 3.0656 0
M  V30 445 H 43.4709 4.53868 2.62876 0
M  V30 446 H 44.9449 3.68449 4.11035 0
M  V30 447 H 45.4219 2.00011 3.91015 0
M  V30 448 H 46.0279 3.22538 2.77218 0
M  V30 449 N 44.343 -0.763751 1.37857 0
M  V30 450 C 45.589 -1.52483 1.33704 0
M  V30 451 C 45.922 -1.94051 -0.0759612 0
M  V30 452 O 45.197 -1.64675 -1.03501 0
M  V30 453 C 45.48 -2.78441 2.28348 0
M  V30 454 C 45.333 -2.43075 3.78463 0
M  V30 455 C 46.652 -3.80415 2.21298 0
M  V30 456 H 43.771 -0.553169 0.487005 0
M  V30 457 H 46.413 -0.875562 1.68624 0
M  V30 458 H 44.563 -3.33842 1.987 0
M  V30 459 H 46.235 -1.93527 4.18742 0
M  V30 460 H 44.478 -1.75666 3.96641 0
M  V30 461 H 45.149 -3.33149 4.40132 0
M  V30 462 H 47.625 -3.34527 2.47449 0
M  V30 463 H 46.501 -4.66257 2.89647 0
M  V30 464 H 46.762 -4.25262 1.20849 0
M  V30 465 N 45.8211 -1.22559 -0.990812 0
M  V30 466 C 47.0491 -1.07779 -1.76611 0
M  V30 467 C 47.4641 0.371513 -1.85109 0
M  V30 468 O 46.8211 1.25737 -1.32274 0
M  V30 469 C 46.8721 -1.68512 -3.19822 0
M  V30 470 O 46.5931 -3.07774 -3.1178 0
M  V30 471 C 48.0941 -1.59035 -4.13791 0
M  V30 472 H 45.3141 -0.377729 -0.554583 0
M  V30 473 H 47.8581 -1.62195 -1.24551 0
M  V30 474 H 46.0131 -1.18154 -3.68942 0
M  V30 475 H 46.4271 -3.37062 -4.01858 0
M  V30 476 H 47.9011 -2.0625 -5.1202 0
M  V30 477 H 48.3781 -0.547273 -4.35777 0
M  V30 478 H 48.9841 -2.08709 -3.70568 0
M  V30 479 N 47.2992 1.18797 -1.03562 0
M  V30 480 C 48.2462 2.22253 -0.622259 0
M  V30 481 C 49.2162 1.61987 0.36736 0
M  V30 482 O 50.4012 1.88986 0.262492 0
M  V30 483 C 47.5412 3.45097 0.0138462 0
M  V30 484 C 46.6542 4.19722 -1.02263 0
M  V30 485 C 45.7892 5.30009 -0.355573 0
M  V30 486 C 44.8282 5.96399 -1.37749 0
M  V30 487 N 43.9652 6.98234 -0.735766 0
M  V30 488 H 48.8052 2.56968 -1.50903 0
M  V30 489 H 46.3422 1.26245 -0.755017 0
M  V30 490 H 48.3002 4.15279 0.399948 0
M  V30 491 H 46.9302 3.11018 0.864158 0
M  V30 492 H 45.9822 3.48418 -1.52673 0
M  V30 493 H 47.2942 4.65227 -1.79903 0
M  V30 494 H 46.4482 6.0664 0.0850095 0
M  V30 495 H 45.1872 4.85592 0.452967 0
M  V30 496 H 44.1922 5.18512 -1.82826 0
M  V30 497 H 45.4172 6.42899 -2.18764 0
M  V30 498 H 43.3632 6.55979 0.0525597 0
M  V30 499 H 43.2802 7.41965 -1.44995 0
M  V30 500 H 44.5482 7.78845 -0.31941 0
M  V30 501 N 48.7773 0.814389 1.34928 0
M  V30 502 C 49.7253 0.218424 2.31572 0
M  V30 503 C 50.7193 -0.636128 1.57002 0
M  V30 504 O 51.9253 -0.52842 1.72069 0
M  V30 505 H 48.3003 0.0518799 0.750208 0
M  V30 506 H 50.2713 1.04852 2.79372 0
M  V30 507 C 49.0203 -0.61207 3.4227 0
M  V30 508 H 48.3433 0.0361578 3.99784 0
M  V30 509 H 49.7833 -0.995317 4.12152 0
M  V30 510 C 48.2423 -1.78087 2.85984 0
M  V30 511 O 48.7723 -2.8787 2.80168 0
M  V30 512 N 46.9783 -1.59488 2.42924 0
M  V30 513 H 46.5253 -0.701874 2.47854 0
M  V30 514 H 46.4833 -2.37846 2.05613 0
M  V30 515 N 50.2554 -1.46986 0.568584 0
M  V30 516 C 51.1874 -2.28233 -0.210337 0
M  V30 517 C 52.2004 -1.37682 -0.868767 0
M  V30 518 O 53.3894 -1.62406 -0.740705 0
M  V30 519 C 50.4894 -3.12293 -1.3163 0
M  V30 520 C 49.6624 -4.30878 -0.7525 0
M  V30 521 C 48.7214 -4.96445 -1.74439 0
M  V30 522 O 47.7474 -5.54482 -1.286 0
M  V30 523 N 48.9494 -4.92171 -3.07812 0
M  V30 524 H 51.7144 -2.95723 0.486648 0
M  V30 525 H 49.2754 -1.56742 0.405409 0
M  V30 526 H 51.2674 -3.53022 -1.97883 0
M  V30 527 H 49.8374 -2.46971 -1.91636 0
M  V30 528 H 49.0574 -3.94104 0.0871128 0
M  V30 529 H 50.3454 -5.07558 -0.35536 0
M  V30 530 H 49.7434 -4.46239 -3.47688 0
M  V30 531 H 48.3004 -5.36884 -3.69592 0
M  V30 532 N 51.7335 -0.305618 -1.54608 0
M  V30 533 C 52.6815 0.584119 -2.25146 0
M  V30 534 C 53.6755 1.13326 -1.25911 0
M  V30 535 O 54.8815 1.08337 -1.43747 0
M  V30 536 H 51.2565 0.206983 -0.722954 0
M  V30 537 H 53.2275 -0.033291 -2.98381 0
M  V30 538 C 51.9765 1.74225 -3.009 0
M  V30 539 H 51.2995 1.32892 -3.77067 0
M  V30 540 H 52.7395 2.34077 -3.53531 0
M  V30 541 C 51.1985 2.64914 -2.0814 0
M  V30 542 O 51.7285 3.66137 -1.65246 0
M  V30 543 N 49.9345 2.3275 -1.74 0
M  V30 544 H 49.4815 1.50479 -2.09078 0
M  V30 545 H 49.4395 2.93694 -1.12211 0
M  V30 546 N 53.2116 1.57565 -0.0334293 0
M  V30 547 C 54.4606 1.91155 0.643639 0
M  V30 548 C 54.7736 0.91192 1.73042 0
M  V30 549 O 55.9796 1.13923 2.46442 0
M  V30 550 C 54.4356 3.39443 1.1961 0
M  V30 551 C 54.0436 4.47774 0.142381 0
M  V30 552 C 55.7876 3.82094 1.84944 0
M  V30 553 C 53.6946 5.87162 0.706727 0
M  V30 554 H 52.6246 0.713368 0.244176 0
M  V30 555 H 55.2756 1.8323 -0.0994323 0
M  V30 556 H 53.6576 3.42313 1.99092 0
M  V30 557 H 54.8316 4.56469 -0.630296 0
M  V30 558 H 53.1466 4.14352 -0.412446 0
M  V30 559 H 55.7436 4.83591 2.2813 0
M  V30 560 H 56.0866 3.17386 2.69392 0
M  V30 561 H 56.6196 3.81665 1.12145 0
M  V30 562 H 53.3586 6.55424 -0.0997178 0
M  V30 563 H 52.8786 5.82064 1.44779 0
M  V30 564 H 54.5576 6.35866 1.19514 0
M  V30 565 N 54.6897 -0.239769 1.55765 0
M  V30 566 C 55.9387 -0.964754 1.77131 0
M  V30 567 C 56.2517 -1.86213 0.59868 0
M  V30 568 O 57.4577 -2.6244 0.695522 0
M  V30 569 C 55.9137 -1.76552 3.1362 0
M  V30 570 C 55.5217 -0.915185 4.38553 0
M  V30 571 C 57.2657 -2.48281 3.44321 0
M  V30 572 C 55.1727 -1.71225 5.66071 0
M  V30 573 H 54.1027 -0.363953 0.660344 0
M  V30 574 H 56.7537 -0.219181 1.82186 0
M  V30 575 H 55.1357 -2.55331 3.02691 0
M  V30 576 H 56.3097 -0.169217 4.60489 0
M  V30 577 H 54.6247 -0.310889 4.15238 0
M  V30 578 H 57.2217 -3.08382 4.36812 0
M  V30 579 H 57.5647 -3.20256 2.65973 0
M  V30 580 H 58.0977 -1.76507 3.56497 0
M  V30 581 H 54.8367 -1.03612 6.4726 0
M  V30 582 H 54.3567 -2.43331 5.48224 0
M  V30 583 H 56.0357 -2.27758 6.05587 0
M  V30 584 N 56.1678 -1.49265 -0.50573 0
M  V30 585 C 57.0978 -1.68495 -1.61653 0
M  V30 586 C 58.0788 -0.53366 -1.61512 0
M  V30 587 O 59.2638 -0.76897 -1.78327 0
M  V30 588 C 56.3938 -1.74709 -3.00157 0
M  V30 589 C 55.3478 -2.89581 -3.15162 0
M  V30 590 C 54.6738 -2.80903 -4.5497 0
M  V30 591 C 55.9738 -4.30578 -2.95634 0
M  V30 592 H 57.6678 -2.61493 -1.45814 0
M  V30 593 H 55.2138 -1.25838 -0.70005 0
M  V30 594 H 57.1668 -1.86748 -3.77761 0
M  V30 595 H 55.8908 -0.783067 -3.17074 0
M  V30 596 H 54.5498 -2.77136 -2.39982 0
M  V30 597 H 54.1978 -1.82419 -4.68756 0
M  V30 598 H 53.8978 -3.57999 -4.65951 0
M  V30 599 H 55.4218 -2.94944 -5.34641 0
M  V30 600 H 56.8358 -4.4373 -3.63011 0
M  V30 601 H 55.2328 -5.0886 -3.18091 0
M  V30 602 H 56.3028 -4.45352 -1.91806 0
M  V30 603 N 57.6459 0.756429 -1.3826 0
M  V30 604 C 58.5779 1.87971 -1.31147 0
M  V30 605 C 59.5909 1.61248 -0.224239 0
M  V30 606 O 60.7799 1.71881 -0.481581 0
M  V30 607 C 57.8799 3.23545 -1.00857 0
M  V30 608 C 57.0529 3.77794 -2.20432 0
M  V30 609 C 56.1119 4.91877 -1.86931 0
M  V30 610 O 55.1379 5.06659 -2.59395 0
M  V30 611 N 56.3399 5.74643 -0.822568 0
M  V30 612 H 59.1049 1.94585 -2.2794 0
M  V30 613 H 56.6659 0.936234 -1.32084 0
M  V30 614 H 58.6579 3.97403 -0.765021 0
M  V30 615 H 57.2279 3.12335 -0.128687 0
M  V30 616 H 56.4479 2.95534 -2.6087 0
M  V30 617 H 57.7359 4.10771 -3.00241 0
M  V30 618 H 57.1339 5.65266 -0.221575 0
M  V30 619 H 55.6909 6.48661 -0.638899 0
M  V30 620 N 59.124 1.23083 0.984299 0
M  V30 621 C 60.349 1.088 1.76571 0
M  V30 622 C 60.774 -0.356657 1.84688 0
M  V30 623 O 60.132 -1.25788 1.30565 0
M  V30 624 C 60.18 1.71371 3.17277 0
M  V30 625 O 59.284 0.973213 4.00752 0
M  V30 626 H 58.625 0.381599 0.543395 0
M  V30 627 H 61.155 1.63057 1.23587 0
M  V30 628 H 61.165 1.76449 3.67872 0
M  V30 629 H 59.84 2.76493 3.10684 0
M  V30 630 H 58.417 0.999078 3.59267 0
M  V30 631 N 60.6021 -1.18246 1.0419 0
M  V30 632 C 61.8511 -1.87588 0.741194 0
M  V30 633 C 62.1641 -1.81303 -0.734066 0
M  V30 634 O 63.3701 -2.46019 -1.14834 0
M  V30 635 C 61.8261 -3.36538 1.27555 0
M  V30 636 C 61.4341 -3.51349 2.77953 0
M  V30 637 C 63.1781 -4.11273 1.05143 0
M  V30 638 C 61.0851 -4.94265 3.2474 0
M  V30 639 H 60.0151 -0.702622 0.273565 0
M  V30 640 H 62.6661 -1.33601 1.25789 0
M  V30 641 H 61.0481 -3.9 0.686703 0
M  V30 642 H 62.2221 -3.08153 3.42605 0
M  V30 643 H 60.5371 -2.90022 2.98791 0
M  V30 644 H 63.1341 -5.16689 1.37611 0
M  V30 645 H 63.4771 -4.16298 -0.0112774 0
M  V30 646 H 64.0101 -3.63987 1.60495 0
M  V30 647 H 60.7491 -4.94408 4.30396 0
M  V30 648 H 60.2691 -5.38172 2.64823 0
M  V30 649 H 61.9481 -5.62987 3.18834 0
M  V30 650 N 62.0802 -0.821533 -1.34494 0
M  V30 651 C 63.3052 -0.420873 -2.03085 0
M  V30 652 C 63.7302 0.964915 -1.61465 0
M  V30 653 O 63.0882 1.62763 -0.798607 0
M  V30 654 C 63.1362 -0.529414 -3.56693 0
M  V30 655 O 62.2402 0.451302 -4.09923 0
M  V30 656 H 61.5812 -0.173489 -0.640935 0
M  V30 657 H 64.1112 -1.11157 -1.71771 0
M  V30 658 H 64.1212 -0.404671 -4.05988 0
M  V30 659 H 62.7962 -1.54014 -3.86332 0
M  V30 660 H 61.3732 0.285558 -3.71805 0
M  V30 661 N 63.5583 1.46682 -0.576371 0
M  V30 662 C 64.9743 1.57822 -0.237562 0
M  V30 663 C 65.1743 1.57237 1.26011 0
M  V30 664 O 64.2303 1.48596 2.04146 0
M  V30 665 C 65.5433 2.87499 -0.881168 0
M  V30 666 C 67.0913 3.01119 -0.85417 0
M  V30 667 C 67.5663 4.33524 -1.4772 0
M  V30 668 N 69.0573 4.40207 -1.44125 0
M  V30 669 C 69.7923 5.4126 -1.89276 0
M  V30 670 N 69.2883 6.49021 -2.42371 0
M  V30 671 N 71.0813 5.32422 -1.80231 0
M  V30 672 H 63.2323 1.45306 -1.54919 0
M  V30 673 H 65.4953 0.692733 -0.647167 0
M  V30 674 H 65.2013 2.9372 -1.93447 0
M  V30 675 H 65.0753 3.75224 -0.385592 0
M  V30 676 H 67.4623 2.94485 0.190491 0
M  V30 677 H 67.5433 2.14887 -1.3877 0
M  V30 678 H 67.1873 4.40916 -2.52103 0
M  V30 679 H 67.1173 5.1852 -0.918947 0
M  V30 680 H 69.6083 3.62931 -1.05307 0
M  V30 681 H 69.9213 7.2233 -2.74698 0
M  V30 682 H 68.2663 6.49858 -2.46393 0
M  V30 683 H 71.4573 4.47137 -1.38514 0
M  V30 684 H 71.6303 6.11034 -2.15735 0
M  V30 685 N 65.0364 0.313813 1.54444 0
M  V30 686 C 66.2614 -0.296681 2.05267 0
M  V30 687 C 66.6864 -1.45757 1.18897 0
M  V30 688 O 66.0444 -1.80239 0.195886 0
M  V30 689 C 66.0924 -0.71831 3.53373 0
M  V30 690 O 65.1964 -1.82175 3.69981 0
M  V30 691 H 64.5374 -0.0554061 0.661684 0
M  V30 692 H 67.0674 0.459387 1.99376 0
M  V30 693 H 67.0774 -1.00364 3.95463 0
M  V30 694 H 65.7524 0.130821 4.15694 0
M  V30 695 H 64.3294 -1.53598 3.39797 0
M  V30 696 N 66.5145 -1.57545 0.0417849 0
M  V30 697 C 67.4245 -2.14451 -0.951213 0
M  V30 698 C 68.4405 -1.09992 -1.34825 0
M  V30 699 O 69.6165 -1.42114 -1.42708 0
M  V30 700 C 66.6815 -2.67063 -2.21084 0
M  V30 701 C 65.7425 -3.86284 -1.87304 0
M  V30 702 C 64.9755 -4.36378 -3.07261 0
M  V30 703 O 65.1985 -3.85587 -4.20332 0
M  V30 704 O 64.1325 -5.28077 -2.88822 0
M  V30 705 H 67.9585 -2.99601 -0.497287 0
M  V30 706 H 65.5435 -1.48317 -0.179567 0
M  V30 707 H 67.4255 -3.00914 -2.95006 0
M  V30 708 H 66.1005 -1.84989 -2.65633 0
M  V30 709 H 65.0075 -3.57338 -1.10727 0
M  V30 710 H 66.3405 -4.6956 -1.47562 0
M  V30 711 N 67.9926 0.231505 -1.5589 0
M  V30 712 C 68.9026 1.308 -1.94752 0
M  V30 713 C 69.9186 1.51826 -0.849989 0
M  V30 714 O 71.0946 1.6515 -1.15271 0
M  V30 715 C 68.1596 2.63968 -2.24771 0
M  V30 716 C 67.2206 2.51331 -3.48039 0
M  V30 717 C 66.4536 3.78148 -3.76616 0
M  V30 718 O 66.6766 4.80722 -3.07022 0
M  V30 719 O 65.6106 3.75857 -4.70123 0
M  V30 720 H 69.4366 1.0083 -2.86474 0
M  V30 721 H 67.0216 0.433547 -1.42971 0
M  V30 722 H 68.9036 3.42633 -2.45318 0
M  V30 723 H 67.5786 2.9364 -1.36225 0
M  V30 724 H 66.4856 1.709 -3.32782 0
M  V30 725 H 67.8186 2.26601 -4.36936 0
M  V30 726 N 69.4707 1.49531 0.497807 0
M  V30 727 C 70.7177 1.59179 1.25173 0
M  V30 728 C 71.0457 0.279932 1.92475 0
M  V30 729 O 70.3007 -0.732383 1.81479 0
M  V30 730 C 70.5997 2.70252 2.33878 0
M  V30 731 C 70.2657 4.11644 1.84012 0
M  V30 732 C 68.9277 4.50121 1.70132 0
M  V30 733 C 71.2797 5.00121 1.46725 0
M  V30 734 C 68.6077 5.74845 1.17348 0
M  V30 735 C 70.9597 6.25366 0.95392 0
M  V30 736 C 69.6237 6.6267 0.801538 0
M  V30 737 H 68.8937 0.582478 0.45804 0
M  V30 738 H 71.5407 1.83373 0.551948 0
M  V30 739 H 69.8457 2.40041 3.09657 0
M  V30 740 H 71.5427 2.74925 2.9192 0
M  V30 741 H 68.1327 3.81274 1.95775 0
M  V30 742 H 72.3167 4.71048 1.56294 0
M  V30 743 H 67.5727 6.02444 1.04264 0
M  V30 744 H 71.7467 6.93301 0.656225 0
M  V30 745 H 69.3737 7.59197 0.390351 0
M  V30 746 N 70.9488 -0.749086 1.3866 0
M  V30 747 C 72.2258 -1.4992 1.25632 0
M  V30 748 C 72.6058 -2.10633 -0.140317 0
M  V30 749 O 71.9538 -1.97437 -1.15025 0
M  V30 750 C 72.1638 -2.56195 2.36992 0
M  V30 751 C 73.5118 -3.22972 2.75634 0
M  V30 752 O 74.5358 -2.66502 2.36337 0
M  V30 753 O 73.3948 -4.25122 3.43415 0
M  V30 754 H 70.4888 -0.665067 0.491544 0
M  V30 755 H 73.0348 -0.784113 1.50498 0
M  V30 756 H 71.8068 -2.09612 3.30422 0
M  V30 757 H 71.4298 -3.35279 2.13714 0
M  V30 758 N 72.4269 -1.23603 -0.977757 0
M  V30 759 C 73.3589 -0.977369 -2.07317 0
M  V30 760 C 74.3719 0.0495845 -1.62724 0
M  V30 761 O 75.5609 -0.186261 -1.77526 0
M  V30 762 C 72.6609 -0.451216 -3.35883 0
M  V30 763 C 71.8339 -1.53896 -4.09432 0
M  V30 764 C 70.8929 -1.01721 -5.16274 0
M  V30 765 O 69.9189 -1.70676 -5.43009 0
M  V30 766 N 71.1209 0.153594 -5.80297 0
M  V30 767 H 73.8859 -1.92047 -2.30082 0
M  V30 768 H 71.4469 -1.14497 -1.14465 0
M  V30 769 H 73.4389 -0.0871574 -4.04606 0
M  V30 770 H 72.0089 0.397368 -3.10064 0
M  V30 771 H 71.2289 -2.07566 -3.35127 0
M  V30 772 H 72.5169 -2.27037 -4.55337 0
M  V30 773 H 71.9149 0.730323 -5.60966 0
M  V30 774 H 70.4719 0.458892 -6.50183 0
M  V30 775 N 73.905 1.17692 -1.04816 0
M  V30 776 C 75.182 1.83768 -0.669963 0
M  V30 777 C 75.562 1.93232 0.849986 0
M  V30 778 O 74.91 1.46397 1.75443 0
M  V30 779 C 75.12 3.21641 -1.35455 0
M  V30 780 C 76.468 3.97592 -1.49017 0
M  V30 781 O 77.492 3.31107 -1.31326 0
M  V30 782 O 76.351 5.16729 -1.77914 0
M  V30 783 H 73.445 0.792799 -0.235368 0
M  V30 784 H 75.991 1.25021 -1.14751 0
M  V30 785 H 74.763 3.097 -2.39168 0
M  V30 786 H 74.386 3.88052 -0.866107 0
M  V30 787 N 75.3831 0.828654 1.34056 0
M  V30 788 C 76.6311 0.41863 1.97717 0
M  V30 789 C 76.9521 -1.02314 1.66002 0
M  V30 790 O 76.2221 -1.71119 0.953683 0
M  V30 791 H 74.8021 0.151809 0.731412 0
M  V30 792 H 77.4641 1.05936 1.63596 0
M  V30 793 H 76.5601 0.542318 3.07352 0
M  V30 794 N 76.8612 -1.46375 0.584142 0
M  V30 795 C 78.1382 -1.956 0.0033388 0
M  V30 796 C 78.5182 -1.52679 -1.45782 0
M  V30 797 O 77.8662 -0.77816 -2.14842 0
M  V30 798 C 78.0762 -3.48551 0.176891 0
M  V30 799 C 79.4242 -4.24576 0.0454609 0
M  V30 800 O 80.4482 -3.56043 0.105801 0
M  V30 801 O 79.3072 -5.46427 -0.0890376 0
M  V30 802 H 76.4012 -0.825547 -0.0490066 0
M  V30 803 H 78.9472 -1.56652 0.65256 0
M  V30 804 H 77.7192 -3.72683 1.1926 0
M  V30 805 H 77.3422 -3.94332 -0.508695 0
M  V30 806 N 78.3393 -0.321999 -1.54275 0
M  V30 807 C 79.5793 0.281657 -2.0245 0
M  V30 808 C 79.9433 1.49468 -1.20513 0
M  V30 809 O 81.1443 2.17109 -1.58484 0
M  V30 810 C 79.4153 0.609014 -3.52173 0
M  V30 811 S 80.9743 1.19255 -4.22284 0
M  V30 812 H 77.7923 0.0852825 -0.705867 0
M  V30 813 H 80.3943 -0.454758 -1.90137 0
M  V30 814 H 79.0983 -0.281982 -4.0943 0
M  V30 815 H 78.6293 1.37567 -3.68563 0
M  V30 816 H 80.6443 2.47944 -4.29812 0
M  V30 817 N 79.8174 1.5752 -0.0501392 0
M  V30 818 C 81.0424 1.97376 0.636997 0
M  V30 819 C 81.4674 0.927466 1.63645 0
M  V30 820 O 80.8254 -0.10941 1.8097 0
M  V30 821 C 80.8734 3.36304 1.30123 0
M  V30 822 O 79.9774 3.34156 2.41689 0
M  V30 823 H 79.3184 0.642998 0.165679 0
M  V30 824 H 81.8484 2.04258 -0.118233 0
M  V30 825 H 81.8584 3.73008 1.65315 0
M  V30 826 H 80.5334 4.11993 0.568746 0
M  V30 827 H 79.1104 3.09196 2.08451 0
M  V30 828 N 81.2955 -0.223234 1.56011 0
M  V30 829 C 82.2455 -1.28008 1.88674 0
M  V30 830 C 83.2295 -1.42369 0.749663 0
M  V30 831 O 84.4215 -1.45212 1.01205 0
M  V30 832 C 81.5505 -2.63084 2.20548 0
M  V30 833 C 80.6365 -2.52632 3.40643 0
M  V30 834 N 81.0275 -2.11829 4.59306 0
M  V30 835 C 79.3255 -2.83594 3.44224 0
M  V30 836 C 80.0265 -2.12587 5.41463 0
M  V30 837 N 79.0025 -2.5301 4.81131 0
M  V30 838 H 82.8045 -0.955487 2.77935 0
M  V30 839 H 80.3185 -0.431801 1.56554 0
M  V30 840 H 82.3155 -3.39385 2.42122 0
M  V30 841 H 80.9755 -2.96391 1.32599 0
M  V30 842 H 81.9865 -1.82988 4.84496 0
M  V30 843 H 78.6635 -3.21284 2.66614 0
M  V30 844 H 80.0535 -1.83179 6.46448 0
M  V30 845 N 82.7736 -1.49793 -0.48987 0
M  V30 846 C 83.9986 -1.63836 -1.27172 0
M  V30 847 C 84.4236 -0.31402 -1.8546 0
M  V30 848 O 83.7816 0.719803 -1.66399 0
M  V30 849 C 83.8296 -2.71797 -2.36978 0
M  V30 850 O 82.9336 -2.31744 -3.41128 0
M  V30 851 H 82.2746 -0.547997 -0.37496 0
M  V30 852 H 84.8046 -1.96053 -0.585191 0
M  V30 853 H 84.8146 -2.94305 -2.82575 0
M  V30 854 H 83.4896 -3.67923 -1.93921 0
M  V30 855 H 82.0666 -2.1961 -3.01373 0
M  V30 856 N 84.2517 0.741722 -1.39055 0
M  V30 857 C 85.4797 1.53098 -1.39171 0
M  V30 858 C 85.8947 1.88794 0.0155099 0
M  V30 859 O 85.2517 1.53626 0.985159 0
M  V30 860 C 85.3027 2.82274 -2.2584 0
M  V30 861 O 85.0237 2.48097 -3.61081 0
M  V30 862 C 86.5247 3.76343 -2.34266 0
M  V30 863 H 83.7447 0.473335 -0.4756 0
M  V30 864 H 86.2887 0.917045 -1.82785 0
M  V30 865 H 84.4437 3.40015 -1.85656 0
M  V30 866 H 84.8577 3.31029 -4.06842 0
M  V30 867 H 86.3317 4.63898 -2.9917 0
M  V30 868 H 86.8087 4.17619 -1.35982 0
M  V30 869 H 87.4147 3.24523 -2.74891 0
M  V30 870 N 85.7298 1.2412 0.971189 0
M  V30 871 C 86.6598 1.05508 2.08304 0
M  V30 872 C 87.6408 -0.0308864 1.70072 0
M  V30 873 O 88.8258 0.135521 1.93727 0
M  V30 874 C 85.9558 0.655365 3.4106 0
M  V30 875 C 84.9098 1.68971 3.93234 0
M  V30 876 C 84.2358 1.14516 5.22293 0
M  V30 877 C 85.5358 3.08487 4.21465 0
M  V30 878 H 87.2298 1.98507 2.24132 0
M  V30 879 H 84.7758 0.955821 1.07704 0
M  V30 880 H 86.7288 0.51217 4.18276 0
M  V30 881 H 85.4528 -0.31032 3.25122 0
M  V30 882 H 84.1118 1.82106 3.18171 0
M  V30 883 H 83.7598 0.170189 5.02712 0
M  V30 884 H 83.4598 1.83635 5.58168 0
M  V30 885 H 84.9838 1.01401 6.02121 0
M  V30 886 H 86.3978 2.98601 4.89398 0
M  V30 887 H 84.7948 3.74926 4.68562 0
M  V30 888 H 85.8648 3.56787 3.28376 0
M  V30 889 N 87.2079 -1.17134 1.05439 0
M  V30 890 C 88.4539 -1.87733 0.767077 0
M  V30 891 C 88.7869 -1.8098 -0.704253 0
M  V30 892 O 88.0619 -1.21951 -1.5152 0
M  V30 893 C 88.3449 -3.37659 1.25133 0
M  V30 894 C 88.1979 -3.53149 2.78578 0
M  V30 895 C 89.5169 -4.31768 0.852324 0
M  V30 896 H 86.6359 -0.681687 0.280129 0
M  V30 897 H 89.2779 -1.37732 1.30881 0
M  V30 898 H 87.4279 -3.80373 0.790469 0
M  V30 899 H 89.0999 -3.19434 3.32806 0
M  V30 900 H 87.3429 -2.95345 3.17732 0
M  V30 901 H 88.0139 -4.58403 3.07523 0
M  V30 902 H 90.4899 -3.96909 1.24911 0
M  V30 903 H 89.3659 -5.35199 1.21873 0
M  V30 904 H 89.6269 -4.41429 -0.243485 0
M  V30 905 N 88.686 -0.835752 -1.33615 0
M  V30 906 C 89.634 -0.255238 -2.31195 0
M  V30 907 C 90.628 0.61107 -1.57995 0
M  V30 908 O 91.834 0.500979 -1.72888 0
M  V30 909 H 88.209 -0.0638085 -0.749288 0
M  V30 910 H 90.18 -1.09283 -2.77669 0
M  V30 911 C 88.929 0.55754 -3.43201 0
M  V30 912 H 88.252 -0.0997553 -3.99676 0
M  V30 913 H 89.692 0.929622 -4.13683 0
M  V30 914 C 88.151 1.73515 -2.88781 0
M  V30 915 O 88.681 2.83376 -2.84712 0
M  V30 916 N 86.887 1.55603 -2.4543 0
M  V30 917 H 86.434 0.662354 -2.48939 0
M  V30 918 H 86.392 2.34545 -2.09371 0
M  V30 919 N 90.1641 1.46063 -0.591896 0
M  V30 920 C 91.0741 2.34192 0.13831 0
M  V30 921 C 92.0901 1.50305 0.876608 0
M  V30 922 O 93.2661 1.8315 0.837728 0
M  V30 923 C 90.3311 3.27656 1.13326 0
M  V30 924 C 89.3921 4.27445 0.39863 0
M  V30 925 C 88.6251 5.16443 1.34618 0
M  V30 926 O 88.8481 5.08553 2.58321 0
M  V30 927 O 87.7821 5.95843 0.851768 0
M  V30 928 H 91.6081 2.98002 -0.58552 0
M  V30 929 H 89.1931 1.45188 -0.352239 0
M  V30 930 H 91.0751 3.85291 1.70671 0
M  V30 931 H 89.7501 2.6643 1.83839 0
M  V30 932 H 88.6571 3.73471 -0.216895 0
M  V30 933 H 89.9901 4.91482 -0.265709 0
M  V30 934 N 91.6422 0.330177 1.54103 0
M  V30 935 C 92.5522 -0.541534 2.28264 0
M  V30 936 C 93.5682 -1.12351 1.32866 0
M  V30 937 O 94.7442 -1.14206 1.65888 0
M  V30 938 C 91.8092 -1.68322 3.03098 0
M  V30 939 C 90.8702 -1.13238 4.14096 0
M  V30 940 C 90.1032 -2.21966 4.85352 0
M  V30 941 O 90.3262 -3.42437 4.56172 0
M  V30 942 O 89.2602 -1.87013 5.7211 0
M  V30 943 H 93.0862 0.060938 3.03639 0
M  V30 944 H 90.6712 0.09565 1.49093 0
M  V30 945 H 92.5532 -2.34777 3.49939 0
M  V30 946 H 91.2282 -2.27176 2.30593 0
M  V30 947 H 90.1352 -0.432736 3.71589 0
M  V30 948 H 91.4682 -0.588898 4.88664 0
M  V30 949 N 93.1203 -1.57491 0.0584922 0
M  V30 950 C 94.0303 -2.15448 -0.928414 0
M  V30 951 C 95.0463 -1.11416 -1.3365 0
M  V30 952 O 96.2223 -1.4362 -1.41193 0
M  V30 953 C 93.2873 -2.69393 -2.18239 0
M  V30 954 C 92.3483 -3.88249 -1.83196 0
M  V30 955 C 91.5813 -4.39613 -3.02616 0
M  V30 956 O 91.8043 -3.90023 -4.16219 0
M  V30 957 O 90.7383 -5.31111 -2.83204 0
M  V30 958 H 94.5643 -3.00112 -0.465483 0
M  V30 959 H 92.1493 -1.48499 -0.163826 0
M  V30 960 H 94.0313 -3.04026 -2.91798 0
M  V30 961 H 92.7063 -1.87796 -2.63656 0
M  V30 962 H 91.6133 -3.58492 -1.06931 0
M  V30 963 H 92.9463 -4.71098 -1.42573 0
M  V30 964 N 94.5984 0.214957 -1.56127 0
M  V30 965 C 95.8754 0.963093 -1.70247 0
M  V30 966 C 96.2554 2.02166 -0.60764 0
M  V30 967 O 95.6034 2.25244 0.384385 0
M  V30 968 C 95.8134 1.56756 -3.11815 0
M  V30 969 C 97.1614 2.0573 -3.7143 0
M  V30 970 O 98.1854 1.66637 -3.14818 0
M  V30 971 O 97.0444 2.77603 -4.70743 0
M  V30 972 H 94.1384 0.450321 -0.693643 0
M  V30 973 H 96.6844 0.206219 -1.68442 0
M  V30 974 H 95.4564 0.803533 -3.82961 0
M  V30 975 H 95.0794 2.3898 -3.17765 0
M  V30 976 N 96.0765 1.50051 0.48192 0
M  V30 977 C 97.4875 1.5348 1.06305 0
M  V30 978 C 97.8385 0.331997 1.93371 0
M  V30 979 O 96.9635 -0.556256 2.09129 0
M  V30 980 C 97.5585 2.7813 1.93466 0
M  V30 981 C 96.1175 2.84275 2.46707 0
M  V30 982 C 95.2645 2.47637 1.24785 0
M  V30 983 H 98.2155 1.56472 0.264995 0
M  V30 984 H 98.2365 2.59372 2.78399 0
M  V30 985 H 97.7485 3.65654 1.30072 0
M  V30 986 H 95.8495 2.01077 3.13686 0
M  V30 987 H 95.9625 3.8691 2.82555 0
M  V30 988 H 94.3265 1.99835 1.57918 0
M  V30 989 H 95.1095 3.37457 0.630694 0
M  V30 990 N 97.5546 -0.734337 1.39446 0
M  V30 991 C 98.7796 -1.52866 1.40167 0
M  V30 992 C 99.2046 -1.881 -0.00171513 0
M  V30 993 O 98.5626 -1.51957 -0.988879 0
M  V30 994 C 98.6106 -2.79235 2.28167 0
M  V30 995 O 97.7146 -3.75185 1.71201 0
M  V30 996 H 97.0556 -0.461618 0.477289 0
M  V30 997 H 99.5856 -0.905949 1.8345 0
M  V30 998 H 99.5956 -3.27963 2.42702 0
M  V30 999 H 98.2706 -2.52923 3.30156 0
M  V30 1000 H 96.8476 -3.33958 1.65912 0
M  V30 1001 N 99.0327 -1.24633 -0.964593 0
M  V30 1002 C 100.281 -1.08573 -1.70459 0
M  V30 1003 C 100.602 0.375655 -1.91347 0
M  V30 1004 O 99.8717 1.26779 -1.49345 0
M  V30 1005 H 98.4517 -0.398784 -0.631649 0
M  V30 1006 H 101.114 -1.56601 -1.16026 0
M  V30 1007 H 100.21 -1.58623 -2.68785 0
M  V30 1008 N 100.511 1.16574 -1.06058 0
M  V30 1009 C 101.759 1.86677 -0.77434 0
M  V30 1010 C 102.08 1.81959 0.701147 0
M  V30 1011 O 101.35 1.2515 1.50713 0
M  V30 1012 H 99.9298 0.691134 -0.283449 0
M  V30 1013 H 102.592 1.41378 -1.34158 0
M  V30 1014 H 101.688 2.92181 -1.09711 0
M  V30 1015 N 101.989 0.842826 1.3317 0
M  V30 1016 C 103.405 0.531128 1.50503 0
M  V30 1017 C 103.605 -0.940734 1.78192 0
M  V30 1018 O 102.661 -1.72436 1.84451 0
M  V30 1019 C 103.974 1.40789 2.65705 0
M  V30 1020 C 105.522 1.40708 2.79589 0
M  V30 1021 C 105.997 2.26878 3.97857 0
M  V30 1022 N 107.488 2.24609 4.05099 0
M  V30 1023 C 108.223 2.88019 4.95815 0
M  V30 1024 N 107.719 3.60496 5.9162 0
M  V30 1025 N 109.512 2.77469 4.88843 0
M  V30 1026 H 101.663 1.79557 1.1346 0
M  V30 1027 H 103.926 0.766267 0.558156 0
M  V30 1028 H 103.632 2.454 2.51936 0
M  V30 1029 H 103.506 1.08677 3.61205 0
M  V30 1030 H 105.893 0.368668 2.92788 0
M  V30 1031 H 105.974 1.76829 1.84838 0
M  V30 1032 H 105.618 3.3078 3.85418 0
M  V30 1033 H 105.548 1.88096 4.91861 0
M  V30 1034 H 108.039 1.71906 3.36536 0
M  V30 1035 H 108.352 4.06076 6.57512 0
M  V30 1036 H 106.697 3.64604 5.91683 0
M  V30 1037 H 109.888 2.20406 4.12963 0
M  V30 1038 H 110.061 3.2717 5.59342 0
M  V30 1039 N 103.467 -1.45747 0.599634 0
M  V30 1040 C 104.399 -2.28628 -0.161879 0
M  V30 1041 C 105.412 -1.39494 -0.839367 0
M  V30 1042 O 106.601 -1.63941 -0.706089 0
M  V30 1043 C 103.701 -3.15014 -1.24976 0
M  V30 1044 C 102.874 -4.32378 -0.660935 0
M  V30 1045 C 101.933 -5.00033 -1.63869 0
M  V30 1046 O 100.959 -5.57085 -1.1681 0
M  V30 1047 N 102.161 -4.98589 -2.97303 0
M  V30 1048 H 104.926 -2.94624 0.549265 0
M  V30 1049 H 102.487 -1.55847 0.438565 0
M  V30 1050 H 104.479 -3.5714 -1.9035 0
M  V30 1051 H 103.049 -2.5098 -1.86354 0
M  V30 1052 H 102.269 -3.9383 0.170688 0
M  V30 1053 H 103.557 -5.08197 -0.247619 0
M  V30 1054 H 102.955 -4.53514 -3.38145 0
M  V30 1055 H 101.512 -5.44603 -3.58121 0
M  V30 1056 N 104.945 -0.338344 -1.53925 0
M  V30 1057 C 106.222 0.314774 -1.93051 0
M  V30 1058 C 106.602 1.68669 -1.26941 0
M  V30 1059 O 105.95 2.24636 -0.418445 0
M  V30 1060 C 106.16 0.392249 -3.46789 0
M  V30 1061 C 107.508 0.645554 -4.19664 0
M  V30 1062 O 108.532 0.474575 -3.53024 0
M  V30 1063 O 107.391 0.976408 -5.37707 0
M  V30 1064 H 104.485 0.182598 -0.80659 0
M  V30 1065 H 107.031 -0.389141 -1.65178 0
M  V30 1066 H 105.803 -0.570702 -3.87116 0
M  V30 1067 H 105.426 1.14316 -3.80812 0
M  V30 1068 N 106.423 1.57458 -0.0668435 0
M  V30 1069 C 107.669 1.94401 0.598316 0
M  V30 1070 C 108.024 0.946335 1.67518 0
M  V30 1071 O 107.317 -0.0321442 1.91573 0
M  V30 1072 C 107.511 3.35784 1.22409 0
M  V30 1073 C 107.34 4.49212 0.209367 0
M  V30 1074 C 106.11 5.04887 -0.204218 0
M  V30 1075 C 108.308 5.11335 -0.551431 0
M  V30 1076 N 106.29 6.01854 -1.21016 0
M  V30 1077 C 107.661 6.03754 -1.41 0
M  V30 1078 C 109.716 4.94173 -0.608038 0
M  V30 1079 C 108.419 6.80854 -2.32013 0
M  V30 1080 C 110.445 5.71912 -1.50566 0
M  V30 1081 C 109.807 6.63976 -2.35191 0
M  V30 1082 H 105.906 0.758538 0.190114 0
M  V30 1083 H 108.49 1.94175 -0.142832 0
M  V30 1084 H 106.661 3.36757 1.93518 0
M  V30 1085 H 108.393 3.59976 1.84931 0
M  V30 1086 H 105.148 4.73266 0.177908 0
M  V30 1087 H 105.572 6.55035 -1.71049 0
M  V30 1088 H 110.214 4.22788 0.032022 0
M  V30 1089 H 107.932 7.5152 -2.97057 0
M  V30 1090 H 111.518 5.60656 -1.55423 0
M  V30 1091 H 110.398 7.2308 -3.03522 0
M  V30 1092 N 107.901 -0.206675 1.56239 0
M  V30 1093 C 108.833 -1.27997 1.9013 0
M  V30 1094 C 109.846 -1.42299 0.790883 0
M  V30 1095 O 111.035 -1.42931 1.06925 0
M  V30 1096 C 108.135 -2.65368 2.10792 0
M  V30 1097 C 107.308 -2.72824 3.41886 0
M  V30 1098 C 106.367 -3.9131 3.51799 0
M  V30 1099 O 105.393 -3.78953 4.24716 0
M  V30 1100 N 106.595 -5.06265 2.84035 0
M  V30 1101 H 109.36 -0.992444 2.82791 0
M  V30 1102 H 106.921 -0.396652 1.56966 0
M  V30 1103 H 108.913 -3.43039 2.14724 0
M  V30 1104 H 107.483 -2.86657 1.24685 0
M  V30 1105 H 106.703 -1.81515 3.49923 0
M  V30 1106 H 107.991 -2.74786 4.28217 0
M  V30 1107 H 107.389 -5.19203 2.246 0
M  V30 1108 H 105.946 -5.81925 2.93609 0
M  V30 1109 N 109.379 -1.50304 -0.473955 0
M  V30 1110 C 110.79 -1.54042 -1.0549 0
M  V30 1111 C 111.141 -0.342248 -1.93192 0
M  V30 1112 O 110.266 0.545157 -2.09421 0
M  V30 1113 C 110.861 -2.79152 -1.91989 0
M  V30 1114 C 109.42 -2.8558 -2.45196 0
M  V30 1115 C 108.567 -2.48295 -1.2347 0
M  V30 1116 H 111.518 -1.5661 -0.256693 0
M  V30 1117 H 111.539 -2.60845 -2.7702 0
M  V30 1118 H 111.051 -3.66339 -1.28131 0
M  V30 1119 H 109.152 -2.02738 -3.12615 0
M  V30 1120 H 109.265 -3.88403 -2.80499 0
M  V30 1121 H 107.629 -2.00669 -1.56856 0
M  V30 1122 H 108.412 -3.37787 -0.612789 0
M  V30 1123 N 110.857 0.726932 -1.39834 0
M  V30 1124 C 112.273 1.03354 -1.21615 0
M  V30 1125 C 112.473 2.01327 -0.08338 0
M  V30 1126 O 111.529 2.46158 0.56238 0
M  V30 1127 C 112.842 1.58811 -2.55342 0
M  V30 1128 C 114.39 1.70851 -2.62257 0
M  V30 1129 C 114.865 2.29716 -3.96225 0
M  V30 1130 N 116.356 2.37116 -3.97907 0
M  V30 1131 C 117.091 2.83619 -4.98345 0
M  V30 1132 N 116.587 3.29958 -6.09179 0
M  V30 1133 N 118.38 2.82901 -4.8572 0
M  V30 1134 H 110.531 0.0773069 -2.12259 0
M  V30 1135 H 112.794 0.0969102 -0.943034 0
M  V30 1136 H 112.5 0.942855 -3.38826 0
M  V30 1137 H 112.374 2.57502 -2.75632 0
M  V30 1138 H 114.761 2.34497 -1.79152 0
M  V30 1139 H 114.842 0.707913 -2.45809 0
M  V30 1140 H 114.486 1.66696 -4.79765 0
M  V30 1141 H 114.416 3.30469 -4.09997 0
M  V30 1142 H 116.907 2.04374 -3.17868 0
M  V30 1143 H 117.22 3.63976 -6.8172 0
M  V30 1144 H 115.565 3.27946 -6.12761 0
M  V30 1145 H 118.756 2.46027 -3.98231 0
M  V30 1146 H 118.929 3.18827 -5.6414 0
M  V30 1147 N 112.336 1.25143 0.95797 0
M  V30 1148 C 113.564 1.12424 1.73691 0
M  V30 1149 C 113.979 -0.322304 1.86029 0
M  V30 1150 O 113.336 -1.22186 1.35561 0
M  V30 1151 C 113.387 1.76933 3.15241 0
M  V30 1152 O 113.108 3.15932 3.03511 0
M  V30 1153 C 114.609 1.6995 4.09429 0
M  V30 1154 H 111.829 0.3923 0.544373 0
M  V30 1155 H 114.373 1.6544 1.20207 0
M  V30 1156 H 112.528 1.27895 3.6568 0
M  V30 1157 H 112.942 3.47598 3.9278 0
M  V30 1158 H 114.416 2.19753 5.06372 0
M  V30 1159 H 114.893 0.662619 4.34173 0
M  V30 1160 H 115.499 2.18461 3.64904 0
M  V30 1161 N 113.814 -1.1601 1.06675 0
M  V30 1162 C 114.724 -2.24156 0.692179 0
M  V30 1163 C 115.74 -1.71507 -0.293513 0
M  V30 1164 O 116.916 -2.009 -0.141861 0
M  V30 1165 C 113.981 -3.46587 0.0884131 0
M  V30 1166 C 113.042 -4.14257 1.12646 0
M  V30 1167 C 112.275 -5.30844 0.551416 0
M  V30 1168 O 112.498 -5.66858 -0.634656 0
M  V30 1169 O 111.432 -5.87848 1.29298 0
M  V30 1170 H 115.258 -2.58513 1.59388 0
M  V30 1171 H 112.843 -1.23599 0.83926 0
M  V30 1172 H 114.725 -4.20679 -0.246361 0
M  V30 1173 H 113.4 -3.13994 -0.786712 0
M  V30 1174 H 112.307 -3.42118 1.51348 0
M  V30 1175 H 113.64 -4.50914 1.97325 0
M  V30 1176 N 115.292 -0.849877 -1.32721 0
M  V30 1177 C 116.54 -0.450032 -1.97026 0
M  V30 1178 C 116.861 0.996604 -1.67609 0
M  V30 1179 O 116.131 1.6958 -0.980786 0
M  V30 1180 H 114.711 -0.163426 -0.728904 0
M  V30 1181 H 117.373 -1.08526 -1.6189 0
M  V30 1182 H 116.469 -0.591146 -3.0645 0
M  V30 1183 N 116.77 1.45427 -0.607355 0
M  V30 1184 C 118.016 2.0254 -0.102607 0
M  V30 1185 C 118.349 1.47478 1.26348 0
M  V30 1186 O 117.624 0.64939 1.83339 0
M  V30 1187 C 117.907 3.60044 -0.0634347 0
M  V30 1188 C 117.76 4.2544 -1.46017 0
M  V30 1189 C 119.079 4.35646 0.624514 0
M  V30 1190 H 116.198 0.73598 -0.0387607 0
M  V30 1191 H 118.84 1.73284 -0.779282 0
M  V30 1192 H 116.99 3.85101 0.512808 0
M  V30 1193 H 118.662 4.11569 -2.08347 0
M  V30 1194 H 116.905 3.83849 -2.02094 0
M  V30 1195 H 117.576 5.34342 -1.385 0
M  V30 1196 H 120.052 4.15882 0.134723 0
M  V30 1197 H 118.928 5.45376 0.621028 0
M  V30 1198 H 119.189 4.08501 1.69055 0
M  V30 1199 N 118.248 0.346503 1.53744 0
M  V30 1200 C 119.158 -0.517293 2.28826 0
M  V30 1201 C 120.174 -1.10935 1.3405 0
M  V30 1202 O 121.35 -1.1244 1.6709 0
M  V30 1203 C 118.415 -1.65098 3.04866 0
M  V30 1204 C 117.476 -1.0884 4.15274 0
M  V30 1205 C 116.709 -2.16806 4.87679 0
M  V30 1206 O 116.932 -3.3758 4.59778 0
M  V30 1207 O 115.866 -1.80934 5.74061 0
M  V30 1208 H 119.692 0.0931396 3.03557 0
M  V30 1209 H 117.277 0.111458 1.48984 0
M  V30 1210 H 119.159 -2.31053 3.5241 0
M  V30 1211 H 117.834 -2.24717 2.32989 0
M  V30 1212 H 116.741 -0.3933 3.72027 0
M  V30 1213 H 118.074 -0.537036 4.89261 0
M  V30 1214 N 119.726 -1.57421 0.075193 0
M  V30 1215 C 120.975 -1.92794 -0.592731 0
M  V30 1216 C 121.288 -0.957478 -1.70563 0
M  V30 1217 O 122.494 -1.20417 -2.43335 0
M  V30 1218 C 120.95 -3.42495 -1.10569 0
M  V30 1219 C 120.558 -4.47994 -0.0236121 0
M  V30 1220 C 122.302 -3.86864 -1.74748 0
M  V30 1221 C 120.209 -5.88829 -0.550803 0
M  V30 1222 H 119.139 -0.719591 -0.225177 0
M  V30 1223 H 121.79 -1.82902 0.147978 0
M  V30 1224 H 120.172 -3.47471 -1.89947 0
M  V30 1225 H 121.346 -4.54637 0.751099 0
M  V30 1226 H 119.661 -4.13113 0.522159 0
M  V30 1227 H 122.258 -4.8947 -2.15229 0
M  V30 1228 H 122.601 -3.24417 -2.60882 0
M  V30 1229 H 123.134 -3.84504 -1.01986 0
M  V30 1230 H 119.873 -6.54929 0.273457 0
M  V30 1231 H 119.393 -5.85698 -1.29296 0
M  V30 1232 H 121.072 -6.38811 -1.02613 0
M  V30 1233 N 121.204 0.198386 -1.56346 0
M  V30 1234 C 122.432 0.935572 -1.84539 0
M  V30 1235 C 122.847 1.76989 -0.657281 0
M  V30 1236 O 122.204 1.78626 0.374043 0
M  V30 1237 C 122.255 1.8344 -3.11499 0
M  V30 1238 O 121.976 1.03377 -4.25728 0
M  V30 1239 C 123.477 2.68355 -3.52846 0
M  V30 1240 H 120.697 0.273126 -0.612897 0
M  V30 1241 H 123.241 0.20663 -2.03453 0
M  V30 1242 H 121.396 2.51701 -2.94492 0
M  V30 1243 H 121.81 1.64599 -4.98003 0
M  V30 1244 H 123.284 3.27085 -4.44657 0
M  V30 1245 H 123.761 3.41901 -2.75681 0
M  V30 1246 H 124.367 2.05471 -3.72373 0
M  V30 1247 N 122.682 1.50554 0.465978 0
M  V30 1248 C 123.928 1.62038 1.21949 0
M  V30 1249 C 124.261 0.322116 1.9151 0
M  V30 1250 O 123.536 -0.676723 1.82348 0
M  V30 1251 C 123.819 2.80421 2.25912 0
M  V30 1252 C 123.672 4.20144 1.60622 0
M  V30 1253 C 124.991 2.94354 3.27176 0
M  V30 1254 H 122.11 0.589752 0.441998 0
M  V30 1255 H 124.752 1.82956 0.51257 0
M  V30 1256 H 122.902 2.62717 2.86203 0
M  V30 1257 H 124.574 4.49449 1.03889 0
M  V30 1258 H 122.817 4.24165 0.909211 0
M  V30 1259 H 123.488 4.98914 2.36196 0
M  V30 1260 H 125.964 3.10578 2.76913 0
M  V30 1261 H 124.84 3.788 3.97242 0
M  V30 1262 H 125.101 2.05186 3.916 0
M  V30 1263 N 124.16 -0.719506 1.40217 0
M  V30 1264 C 125.388 -1.50864 1.41589 0
M  V30 1265 C 125.803 -1.88794 0.0145275 0
M  V30 1266 O 125.16 -1.55174 -0.960594 0
M  V30 1267 C 125.211 -2.78646 2.30302 0
M  V30 1268 O 124.932 -2.42321 3.64983 0
M  V30 1269 C 126.433 -3.72569 2.40224 0
M  V30 1270 H 123.653 -0.465709 0.48307 0
M  V30 1271 H 126.197 -0.88785 1.84221 0
M  V30 1272 H 124.352 -3.37019 1.91042 0
M  V30 1273 H 124.766 -3.24514 4.12057 0
M  V30 1274 H 126.24 -4.5908 3.06512 0
M  V30 1275 H 126.717 -4.15403 1.42608 0
M  V30 1276 H 127.323 -3.20109 2.80019 0
M  V30 1277 N 125.638 -1.25649 -0.95132 0
M  V30 1278 C 126.885 -1.10594 -1.69633 0
M  V30 1279 C 127.213 0.352515 -1.91279 0
M  V30 1280 O 126.468 1.27601 -1.4838 0
M  V30 1281 C 126.767 -1.80909 -3.08231 0
M  V30 1282 C 126.433 -3.30825 -3.06375 0
M  V30 1283 C 125.095 -3.71722 -3.05576 0
M  V30 1284 C 127.447 -4.26589 -2.99452 0
M  V30 1285 C 124.775 -5.06788 -2.95606 0
M  V30 1286 C 127.127 -5.61683 -2.91024 0
M  V30 1287 C 125.791 -6.01904 -2.88562 0
M  V30 1288 H 125.061 -0.404691 -0.620731 0
M  V30 1289 H 127.708 -1.55964 -1.11119 0
M  V30 1290 H 126.013 -1.27979 -3.70309 0
M  V30 1291 H 127.71 -1.6671 -3.64704 0
M  V30 1292 H 124.3 -2.98287 -3.07771 0
M  V30 1293 H 128.484 -3.95982 -2.99185 0
M  V30 1294 H 123.74 -5.37126 -2.92071 0
M  V30 1295 H 127.914 -6.35578 -2.84629 0
M  V30 1296 H 125.541 -7.06521 -2.80593 0
M  V30 1297 N 127.117 1.15442 -1.07289 0
M  V30 1298 C 128.528 1.67803 -0.818475 0
M  V30 1299 C 128.879 1.8489 0.656507 0
M  V30 1300 O 128.004 1.55176 1.50829 0
M  V30 1301 C 128.599 3.04805 -1.47917 0
M  V30 1302 C 127.158 3.54245 -1.27229 0
M  V30 1303 C 126.305 2.29986 -1.54925 0
M  V30 1304 H 129.256 0.996646 -1.23502 0
M  V30 1305 H 129.277 3.69702 -0.90005 0
M  V30 1306 H 128.789 2.92336 -2.55267 0
M  V30 1307 H 126.89 3.71956 -0.21899 0
M  V30 1308 H 127.003 4.35723 -1.99203 0
M  V30 1309 H 125.367 2.35496 -0.970242 0
M  V30 1310 H 126.15 2.20105 -2.63455 0
M  V30 1311 N 128.595 0.856903 1.32268 0
M  V30 1312 C 130.011 0.547061 1.49931 0
M  V30 1313 C 130.211 -0.921781 1.7918 0
M  V30 1314 O 129.267 -1.70469 1.8627 0
M  V30 1315 C 130.58 1.43599 2.64196 0
M  V30 1316 C 132.128 1.43665 2.78081 0
M  V30 1317 C 132.603 2.31085 3.95428 0
M  V30 1318 N 134.094 2.28893 4.02694 0
M  V30 1319 C 134.829 2.93262 4.92732 0
M  V30 1320 N 134.325 3.66751 5.87763 0
M  V30 1321 N 136.118 2.82638 4.85873 0
M  V30 1322 H 128.269 1.8075 1.11549 0
M  V30 1323 H 130.532 0.772144 0.549997 0
M  V30 1324 H 130.238 2.48058 2.49319 0
M  V30 1325 H 130.112 1.12502 3.60032 0
M  V30 1326 H 132.499 0.399701 2.92381 0
M  V30 1327 H 132.58 1.7878 1.82952 0
M  V30 1328 H 132.224 3.34849 3.81888 0
M  V30 1329 H 132.154 1.93302 4.89839 0
M  V30 1330 H 134.645 1.75466 3.34694 0
M  V30 1331 H 134.958 4.13027 6.53168 0
M  V30 1332 H 133.303 3.70859 5.87783 0
M  V30 1333 H 136.494 2.24774 4.10602 0
M  V30 1334 H 136.667 3.33084 5.55841 0
M  V30 1335 N 130.073 -1.45103 0.615059 0
M  V30 1336 C 131.35 -1.95549 0.0448276 0
M  V30 1337 C 131.73 -1.55737 -1.4251 0
M  V30 1338 O 131.078 -0.823556 -2.13143 0
M  V30 1339 C 131.288 -3.48098 0.250785 0
M  V30 1340 C 132.636 -4.24384 0.135509 0
M  V30 1341 O 133.66 -3.55738 0.181299 0
M  V30 1342 O 132.519 -5.46493 0.0268878 0
M  V30 1343 H 129.613 -0.8264 -0.0314845 0
M  V30 1344 H 132.159 -1.55232 0.685642 0
M  V30 1345 H 130.931 -3.7007 1.27139 0
M  V30 1346 H 130.554 -3.95323 -0.424937 0
M  V30 1347 N 131.551 -0.354651 -1.53558 0
M  V30 1348 C 132.797 0.238797 -2.01389 0
M  V30 1349 C 133.13 1.49309 -1.2418 0
M  V30 1350 O 132.405 1.91638 -0.332457 0
M  V30 1351 C 132.688 0.541771 -3.56001 0
M  V30 1352 C 132.541 -0.725388 -4.43912 0
M  V30 1353 C 133.86 1.34685 -4.18984 0
M  V30 1354 H 130.979 0.0853177 -0.732045 0
M  V30 1355 H 133.621 -0.477384 -1.83905 0
M  V30 1356 H 131.771 1.15189 -3.71031 0
M  V30 1357 H 133.443 -1.36313 -4.407 0
M  V30 1358 H 131.686 -1.34801 -4.12324 0
M  V30 1359 H 132.357 -0.468505 -5.50008 0
M  V30 1360 H 134.833 0.830837 -4.07721 0
M  V30 1361 H 133.709 1.52759 -5.27215 0
M  V30 1362 H 133.97 2.35221 -3.74331 0
M  V30 1363 N 133.029 1.57378 -0.0835403 0
M  V30 1364 C 134.254 1.98682 0.594987 0
M  V30 1365 C 134.679 0.961969 1.61641 0
M  V30 1366 O 134.037 -0.0709989 1.81161 0
M  V30 1367 C 134.085 3.38988 1.2296 0
M  V30 1368 O 133.189 3.39208 2.34546 0
M  V30 1369 H 132.53 0.646368 0.152002 0
M  V30 1370 H 135.06 2.03961 -0.161533 0
M  V30 1371 H 135.07 3.76431 1.57366 0
M  V30 1372 H 133.745 4.13107 0.481228 0
M  V30 1373 H 132.322 3.13548 2.01846 0
M  V30 1374 N 134.507 -0.190092 1.56449 0
M  V30 1375 C 135.918 -0.754312 1.70784 0
M  V30 1376 C 136.269 -1.83631 0.690951 0
M  V30 1377 O 135.394 -2.15868 -0.151604 0
M  V30 1378 C 135.989 -1.37503 3.09642 0
M  V30 1379 C 134.548 -1.88628 3.25725 0
M  V30 1380 C 133.695 -0.758098 2.66736 0
M  V30 1381 H 136.646 0.0350524 1.58661 0
M  V30 1382 H 136.667 -2.2445 3.0725 0
M  V30 1383 H 136.179 -0.587302 3.83631 0
M  V30 1384 H 134.28 -2.70103 2.56661 0
M  V30 1385 H 134.393 -2.04462 4.3328 0
M  V30 1386 H 132.757 -1.17369 2.26046 0
M  V30 1387 H 133.54 0.0174705 3.43296 0
M  V30 1388 N 135.985 -1.50799 -0.457987 0
M  V30 1389 C 137.396 -1.55152 -1.0385 0
M  V30 1390 C 137.747 -0.362719 -1.92818 0
M  V30 1391 O 136.872 0.522915 -2.09987 0
M  V30 1392 C 137.467 -2.81173 -1.89017 0
M  V30 1393 C 136.026 -2.88164 -2.42154 0
M  V30 1394 C 135.173 -2.49591 -1.20829 0
M  V30 1395 H 138.124 -1.56874 -0.240068 0
M  V30 1396 H 138.145 -2.63769 -2.74238 0
M  V30 1397 H 137.657 -3.67677 -1.24238 0
M  V30 1398 H 135.758 -2.06042 -3.10447 0
M  V30 1399 H 135.871 -3.91356 -2.76364 0
M  V30 1400 H 134.235 -2.02322 -1.54719 0
M  V30 1401 H 135.018 -3.38418 -0.576927 0
M  V30 1402 N 137.463 0.71206 -1.40597 0
M  V30 1403 C 138.395 1.83704 -1.37061 0
M  V30 1404 C 139.408 1.60453 -0.275426 0
M  V30 1405 O 140.597 1.70262 -0.53602 0
M  V30 1406 C 137.697 3.20172 -1.11099 0
M  V30 1407 C 136.87 3.7059 -2.3234 0
M  V30 1408 C 135.929 4.85681 -2.02485 0
M  V30 1409 O 134.955 4.9815 -2.75382 0
M  V30 1410 N 136.157 5.71735 -1.00497 0
M  V30 1411 H 138.922 1.87235 -2.34016 0
M  V30 1412 H 136.483 0.893739 -1.34996 0
M  V30 1413 H 138.475 3.94768 -0.891064 0
M  V30 1414 H 137.045 3.11767 -0.227989 0
M  V30 1415 H 136.265 2.87085 -2.7014 0
M  V30 1416 H 137.553 4.01011 -3.13157 0
M  V30 1417 H 136.951 5.64275 -0.401298 0
M  V30 1418 H 135.508 6.463 -0.844942 0
M  V30 1419 N 138.941 1.26152 0.944643 0
M  V30 1420 C 139.851 1.09176 2.07648 0
M  V30 1421 C 140.867 0.0261935 1.7398 0
M  V30 1422 O 142.043 0.229208 2.00091 0
M  V30 1423 C 139.108 0.722915 3.39079 0
M  V30 1424 C 138.169 1.86752 3.86552 0
M  V30 1425 C 137.402 1.51617 5.11711 0
M  V30 1426 O 137.625 0.416331 5.68879 0
M  V30 1427 O 136.559 2.34975 5.54139 0
M  V30 1428 H 140.385 2.0412 2.24875 0
M  V30 1429 H 137.97 1.05182 1.061 0
M  V30 1430 H 139.852 0.529787 4.18056 0
M  V30 1431 H 138.527 -0.197159 3.23099 0
M  V30 1432 H 137.434 2.11558 3.08535 0
M  V30 1433 H 138.767 2.76719 4.07047 0
M  V30 1434 N 140.419 -1.14872 1.07899 0
M  V30 1435 C 141.352 -2.18794 0.64841 0
M  V30 1436 C 142.33 -1.59065 -0.337189 0
M  V30 1437 O 143.514 -1.86936 -0.242284 0
M  V30 1438 C 140.641 -3.38667 -0.0470417 0
M  V30 1439 C 139.687 -4.16942 0.897884 0
M  V30 1440 S 140.52 -4.78615 2.40183 0
M  V30 1441 C 141.676 -6.0185 1.71834 0
M  V30 1442 H 141.909 -2.5498 1.52881 0
M  V30 1443 H 139.442 -1.25922 0.893484 0
M  V30 1444 H 141.4 -4.08113 -0.442027 0
M  V30 1445 H 140.061 -3.00814 -0.903861 0
M  V30 1446 H 139.254 -5.02726 0.358096 0
M  V30 1447 H 138.856 -3.53073 1.23352 0
M  V30 1448 H 141.148 -6.69574 1.03328 0
M  V30 1449 H 142.091 -6.60408 2.55473 0
M  V30 1450 H 142.499 -5.5173 1.19392 0
M  V30 1451 N 141.898 -0.863906 -1.31812 0
M  V30 1452 C 143.123 -0.48527 -2.01643 0
M  V30 1453 C 143.548 0.913058 -1.64453 0
M  V30 1454 O 142.906 1.6014 -0.849985 0
M  V30 1455 C 142.954 -0.642625 -3.54828 0
M  V30 1456 O 142.058 0.320659 -4.11151 0
M  V30 1457 H 141.399 -0.193793 -0.635091 0
M  V30 1458 H 143.929 -1.16565 -1.68148 0
M  V30 1459 H 143.939 -0.533628 -4.04495 0
M  V30 1460 H 142.614 -1.66227 -3.81237 0
M  V30 1461 H 141.191 0.167126 -3.72525 0
M  V30 1462 N 143.376 1.44774 -0.622745 0
M  V30 1463 C 144.308 2.28856 0.125485 0
M  V30 1464 C 145.321 1.40811 0.817069 0
M  V30 1465 O 146.51 1.65044 0.679918 0
M  V30 1466 C 143.61 3.16963 1.19949 0
M  V30 1467 C 142.783 4.33374 0.592064 0
M  V30 1468 C 141.842 5.02577 1.55893 0
M  V30 1469 O 140.868 5.58873 1.07933 0
M  V30 1470 N 142.07 5.03256 2.89334 0
M  V30 1471 H 144.835 2.93713 -0.596068 0
M  V30 1472 H 142.396 1.55129 -0.463303 0
M  V30 1473 H 144.388 3.60123 1.84644 0
M  V30 1474 H 142.958 2.53913 1.82337 0
M  V30 1475 H 142.178 3.93509 -0.233322 0
M  V30 1476 H 143.466 5.08527 0.166738 0
M  V30 1477 H 142.864 4.58836 3.30887 0
M  V30 1478 H 141.421 5.50232 3.49412 0
M  V30 1479 N 144.854 0.36279 1.53368 0
M  V30 1480 C 145.764 -0.492994 2.29362 0
M  V30 1481 C 146.78 -1.09507 1.35219 0
M  V30 1482 O 147.956 -1.10662 1.68273 0
M  V30 1483 C 145.021 -1.61855 3.066 0
M  V30 1484 C 144.082 -1.04429 4.16405 0
M  V30 1485 C 143.315 -2.11621 4.89951 0
M  V30 1486 O 143.538 -3.32684 4.63333 0
M  V30 1487 O 142.472 -1.74835 5.75948 0
M  V30 1488 H 146.298 0.125331 3.03441 0
M  V30 1489 H 143.883 0.127253 1.48857 0
M  V30 1490 H 145.765 -2.27302 3.54841 0
M  V30 1491 H 144.44 -2.22233 2.3536 0
M  V30 1492 H 143.347 -0.353819 3.72423 0
M  V30 1493 H 144.68 -0.485113 4.89804 0
M  V30 1494 N 146.332 -1.57332 0.0918853 0
M  V30 1495 C 147.609 -1.85691 -0.614668 0
M  V30 1496 C 147.989 -0.988146 -1.86545 0
M  V30 1497 O 147.337 -0.0597055 -2.28422 0
M  V30 1498 C 147.547 -3.36294 -0.933126 0
M  V30 1499 C 148.895 -4.04275 -1.29796 0
M  V30 1500 O 149.919 -3.41157 -1.02424 0
M  V30 1501 O 148.778 -5.1564 -1.81047 0
M  V30 1502 H 145.872 -0.767802 -0.307261 0
M  V30 1503 H 148.418 -1.69244 0.12434 0
M  V30 1504 H 147.19 -3.91273 -0.0456404 0
M  V30 1505 H 146.813 -3.58076 -1.72822 0
M  V30 1506 N 147.81 0.181792 -1.56548 0
M  V30 1507 C 148.74 1.22765 -1.98623 0
M  V30 1508 C 149.721 1.46747 -0.860189 0
M  V30 1509 O 150.906 1.58259 -1.12551 0
M  V30 1510 C 148.036 2.56894 -2.33715 0
M  V30 1511 C 146.99 2.475 -3.49182 0
M  V30 1512 C 146.316 3.86023 -3.69986 0
M  V30 1513 C 147.616 1.98866 -4.82959 0
M  V30 1514 H 149.31 0.877942 -2.86239 0
M  V30 1515 H 146.856 0.42088 -1.37712 0
M  V30 1516 H 148.809 3.30253 -2.61746 0
M  V30 1517 H 147.533 2.93632 -1.42997 0
M  V30 1518 H 146.192 1.76596 -3.21262 0
M  V30 1519 H 145.84 4.20136 -2.76576 0
M  V30 1520 H 145.54 3.80609 -4.47672 0
M  V30 1521 H 147.064 4.60984 -4.00407 0
M  V30 1522 H 148.478 2.61992 -5.09934 0
M  V30 1523 H 146.875 2.04424 -5.64208 0
M  V30 1524 H 147.945 0.942465 -4.75653 0
M  V30 1525 N 149.288 1.51039 0.449983 0
M  V30 1526 C 150.235 1.71439 1.54523 0
M  V30 1527 C 151.205 0.555871 1.56522 0
M  V30 1528 O 152.39 0.788871 1.73728 0
M  V30 1529 C 149.53 1.83384 2.92343 0
M  V30 1530 C 148.643 3.10873 2.9997 0
M  V30 1531 C 147.778 3.13488 4.28834 0
M  V30 1532 C 146.817 4.35343 4.30282 0
M  V30 1533 N 145.954 4.35579 5.5065 0
M  V30 1534 H 150.794 2.64934 1.36433 0
M  V30 1535 H 148.331 1.31312 0.662982 0
M  V30 1536 H 150.289 1.88291 3.72293 0
M  V30 1537 H 148.919 0.933086 3.0902 0
M  V30 1538 H 147.971 3.15336 2.12761 0
M  V30 1539 H 149.283 4.00814 2.96901 0
M  V30 1540 H 148.437 3.17241 5.17149 0
M  V30 1541 H 147.176 2.21414 4.34543 0
M  V30 1542 H 146.181 4.3178 3.40362 0
M  V30 1543 H 147.406 5.28668 4.26248 0
M  V30 1544 H 145.352 3.46369 5.57104 0
M  V30 1545 H 145.269 5.19313 5.49409 0
M  V30 1546 H 146.537 4.43507 6.41032 0
M  V30 1547 N 150.766 -0.704594 1.40972 0
M  V30 1548 C 151.676 -1.84856 1.44448 0
M  V30 1549 C 152.692 -1.70726 0.335961 0
M  V30 1550 O 153.868 -1.92799 0.582276 0
M  V30 1551 C 150.933 -3.20758 1.31587 0
M  V30 1552 C 149.994 -3.47063 2.52677 0
M  V30 1553 C 149.227 -4.76481 2.4042 0
M  V30 1554 O 149.45 -5.52341 1.42391 0
M  V30 1555 O 148.384 -5.03367 3.30007 0
M  V30 1556 H 152.21 -1.8488 2.40942 0
M  V30 1557 H 149.795 -0.85647 1.22413 0
M  V30 1558 H 151.677 -4.01913 1.26665 0
M  V30 1559 H 150.352 -3.21438 0.382049 0
M  V30 1560 H 149.259 -2.65873 2.63177 0
M  V30 1561 H 150.592 -3.5119 3.44858 0
M  V30 1562 N 152.244 -1.26651 -0.937939 0
M  V30 1563 C 153.191 -1.0849 -2.03712 0
M  V30 1564 C 154.161 0.011033 -1.66096 0
M  V30 1565 O 155.346 -0.149353 -1.90215 0
M  V30 1566 C 152.486 -0.72735 -3.37348 0
M  V30 1567 C 151.599 -1.89986 -3.87981 0
M  V30 1568 C 150.734 -1.48513 -5.10017 0
M  V30 1569 C 149.773 -2.62575 -5.5292 0
M  V30 1570 N 148.91 -2.21762 -6.66158 0
M  V30 1571 H 153.75 -2.02551 -2.18579 0
M  V30 1572 H 151.287 -1.00844 -1.07093 0
M  V30 1573 H 153.245 -0.50092 -4.14182 0
M  V30 1574 H 151.875 0.176298 -3.22318 0
M  V30 1575 H 150.927 -2.23913 -3.07518 0
M  V30 1576 H 152.239 -2.75586 -4.15757 0
M  V30 1577 H 151.393 -1.21934 -5.94321 0
M  V30 1578 H 150.132 -0.60009 -4.83994 0
M  V30 1579 H 149.137 -2.8988 -4.67172 0
M  V30 1580 H 150.362 -3.51685 -5.80943 0
M  V30 1581 H 148.308 -1.35696 -6.41812 0
M  V30 1582 H 148.225 -3.00903 -6.93537 0
M  V30 1583 H 149.493 -1.98403 -7.53828 0
M  V30 1584 N 153.722 1.14298 -1.08507 0
M  V30 1585 C 154.67 2.21483 -0.710483 0
M  V30 1586 C 155.664 1.66998 0.284234 0
M  V30 1587 O 156.87 1.79401 0.146692 0
M  V30 1588 H 153.245 0.721578 -0.211729 0
M  V30 1589 H 155.216 2.50348 -1.62384 0
M  V30 1590 C 153.965 3.4743 -0.137007 0
M  V30 1591 H 153.288 3.89686 -0.893592 0
M  V30 1592 H 154.728 4.2391 0.0872789 0
M  V30 1593 C 153.187 3.17548 1.12538 0
M  V30 1594 O 153.717 3.35437 2.21009 0
M  V30 1595 N 151.923 2.71499 1.03617 0
M  V30 1596 H 151.47 2.57143 0.153403 0
M  V30 1597 H 151.428 2.51881 1.88158 0
M  V30 1598 N 155.201 0.870884 1.31352 0
M  V30 1599 C 156.131 0.343096 2.30966 0
M  V30 1600 C 157.112 -0.566507 1.60389 0
M  V30 1601 O 158.297 -0.483336 1.88089 0
M  V30 1602 C 155.427 -0.455487 3.443 0
M  V30 1603 C 154.381 0.361103 4.26474 0
M  V30 1604 C 153.707 -0.563221 5.31725 0
M  V30 1605 C 155.007 1.59566 4.97329 0
M  V30 1606 H 156.701 1.17548 2.75359 0
M  V30 1607 H 154.247 0.566686 1.32381 0
M  V30 1608 H 156.2 -0.83525 4.13039 0
M  V30 1609 H 154.924 -1.32139 2.98675 0
M  V30 1610 H 153.583 0.722825 3.59403 0
M  V30 1611 H 153.231 -1.42643 4.82351 0
M  V30 1612 H 152.931 -0.0207409 5.87596 0
M  V30 1613 H 154.455 -0.939808 6.03324 0
M  V30 1614 H 155.869 1.28728 5.58661 0
M  V30 1615 H 154.266 2.07728 5.63 0
M  V30 1616 H 155.336 2.34798 4.24262 0
M  V30 1617 N 156.679 -1.44442 0.630414 0
M  V30 1618 C 157.928 -2.01267 0.132073 0
M  V30 1619 C 158.241 -1.50172 -1.25331 0
M  V30 1620 O 159.447 -1.9912 -1.84562 0
M  V30 1621 C 157.903 -3.59422 0.185362 0
M  V30 1622 C 157.511 -4.19514 1.57201 0
M  V30 1623 C 159.255 -4.23724 -0.256553 0
M  V30 1624 C 157.162 -5.69891 1.58045 0
M  V30 1625 H 156.092 -0.752619 0.0456092 0
M  V30 1626 H 158.743 -1.65666 0.789106 0
M  V30 1627 H 157.125 -3.92318 -0.538759 0
M  V30 1628 H 158.299 -3.98156 2.31966 0
M  V30 1629 H 156.614 -3.67496 1.95795 0
M  V30 1630 H 159.211 -5.34019 -0.269767 0
M  V30 1631 H 159.554 -3.96013 -1.28372 0
M  V30 1632 H 160.087 -3.95629 0.41505 0
M  V30 1633 H 156.826 -6.02336 2.58597 0
M  V30 1634 H 156.346 -5.93373 0.875725 0
M  V30 1635 H 158.025 -6.33515 1.31408 0
M  V30 1636 N 158.157 -0.370918 -1.53173 0
M  V30 1637 C 159.105 0.488101 -2.27421 0
M  V30 1638 C 160.099 1.07884 -1.30604 0
M  V30 1639 O 161.305 1.02143 -1.48212 0
M  V30 1640 H 157.68 0.176134 -0.731082 0
M  V30 1641 H 159.651 -0.159815 -2.97972 0
M  V30 1642 C 158.4 1.61306 -3.08019 0
M  V30 1643 H 157.723 1.1678 -3.82364 0
M  V30 1644 H 159.163 2.18872 -3.63141 0
M  V30 1645 C 157.622 2.55848 -2.19188 0
M  V30 1646 O 158.152 3.58799 -1.80626 0
M  V30 1647 N 156.358 2.2516 -1.83715 0
M  V30 1648 H 155.905 1.41476 -2.15273 0
M  V30 1649 H 155.863 2.8867 -1.24567 0
M  V30 1650 N 159.635 1.57281 -0.100228 0
M  V30 1651 C 160.86 1.99302 0.573881 0
M  V30 1652 C 161.285 0.979059 1.60611 0
M  V30 1653 O 160.643 -0.0517803 1.81226 0
M  V30 1654 C 160.691 3.40274 1.19358 0
M  V30 1655 O 159.795 3.41676 2.30935 0
M  V30 1656 H 159.136 0.647944 0.145138 0
M  V30 1657 H 161.666 2.03779 -0.183156 0
M  V30 1658 H 161.676 3.78078 1.53365 0
M  V30 1659 H 160.351 4.13594 0.437385 0
M  V30 1660 H 158.928 3.15672 1.98509 0
M  V30 1661 N 161.113 -0.173488 1.56642 0
M  V30 1662 C 162.338 -0.910149 1.86363 0
M  V30 1663 C 162.763 -1.75132 0.686318 0
M  V30 1664 O 162.121 -1.77595 -0.364643 0
M  V30 1665 C 162.169 -1.76447 3.14482 0
M  V30 1666 O 161.273 -2.86584 2.96553 0
M  V30 1667 H 160.614 -0.255086 0.613047 0
M  V30 1668 H 163.144 -0.172283 2.03873 0
M  V30 1669 H 163.154 -2.16483 3.45831 0
M  V30 1670 H 161.829 -1.14658 3.99783 0
M  V30 1671 H 160.406 -2.50146 2.76553 0
M  V30 1672 N 162.591 -1.51276 -0.441967 0
M  V30 1673 C 163.521 -1.752 -1.54361 0
M  V30 1674 C 164.502 -0.601682 -1.59103 0
M  V30 1675 O 165.687 -0.843913 -1.74905 0
M  V30 1676 C 162.817 -1.87282 -2.92477 0
M  V30 1677 C 161.771 -3.02687 -3.02596 0
M  V30 1678 C 161.097 -2.99947 -4.42647 0
M  V30 1679 C 162.397 -4.4273 -2.77106 0
M  V30 1680 H 164.091 -2.67442 -1.34592 0
M  V30 1681 H 161.637 -1.28694 -0.646048 0
M  V30 1682 H 163.59 -2.02602 -3.695 0
M  V30 1683 H 162.314 -0.916844 -3.13467 0
M  V30 1684 H 160.973 -2.87065 -2.28012 0
M  V30 1685 H 160.621 -2.02136 -4.60597 0
M  V30 1686 H 160.321 -3.77439 -4.50348 0
M  V30 1687 H 161.845 -3.17354 -5.2165 0
M  V30 1688 H 163.259 -4.58727 -3.43864 0
M  V30 1689 H 161.656 -5.21893 -2.96222 0
M  V30 1690 H 162.726 -4.53087 -1.72744 0
M  V30 1691 N 164.069 0.697108 -1.41344 0
M  V30 1692 C 165.001 1.8224 -1.39001 0
M  V30 1693 C 166.014 1.60152 -0.292428 0
M  V30 1694 O 167.203 1.69684 -0.554048 0
M  V30 1695 C 164.303 3.18976 -1.14489 0
M  V30 1696 C 163.476 3.68105 -2.36258 0
M  V30 1697 C 162.535 4.83506 -2.07625 0
M  V30 1698 O 161.561 4.95201 -2.8065 0
M  V30 1699 N 162.763 5.70637 -1.06555 0
M  V30 1700 H 165.528 1.84742 -2.35988 0
M  V30 1701 H 163.089 0.87937 -1.35936 0
M  V30 1702 H 165.081 3.93801 -0.932885 0
M  V30 1703 H 163.651 3.11508 -0.261043 0
M  V30 1704 H 162.871 2.84204 -2.7317 0
M  V30 1705 H 164.159 3.97667 -3.17393 0
M  V30 1706 H 163.557 5.63817 -0.461125 0
M  V30 1707 H 162.114 6.45368 -0.913444 0
M  V30 1708 N 165.547 1.27147 0.931209 0
M  V30 1709 C 166.457 1.11372 2.06478 0
M  V30 1710 C 167.473 0.044645 1.73943 0
M  V30 1711 O 168.649 0.250417 1.99837 0
M  V30 1712 C 165.714 0.758838 3.38294 0
M  V30 1713 C 164.775 1.90841 3.84549 0
M  V30 1714 C 164.008 1.57036 5.10074 0
M  V30 1715 O 164.231 0.476645 5.68405 0
M  V30 1716 O 163.165 2.40839 5.51616 0
M  V30 1717 H 166.991 2.06493 2.22698 0
M  V30 1718 H 164.576 1.06301 1.04978 0
M  V30 1719 H 166.458 0.574098 4.17471 0
M  V30 1720 H 165.133 -0.162879 3.2329 0
M  V30 1721 H 164.04 2.14819 3.06274 0
M  V30 1722 H 165.373 2.81021 4.04089 0
M  V30 1723 N 167.025 -1.13721 1.09112 0
M  V30 1724 C 168.271 -1.85413 0.836283 0
M  V30 1725 C 168.626 -1.8175 -0.631249 0
M  V30 1726 O 167.919 -1.24238 -1.45861 0
M  V30 1727 C 168.113 -3.32861 1.30146 0
M  V30 1728 C 167.942 -3.50882 2.81268 0
M  V30 1729 C 166.712 -3.65312 3.49106 0
M  V30 1730 C 168.91 -3.47196 3.7942 0
M  V30 1731 N 166.892 -3.71563 4.88686 0
M  V30 1732 C 168.263 -3.59777 5.04936 0
M  V30 1733 C 170.318 -3.30577 3.72321 0
M  V30 1734 C 169.021 -3.57455 6.24194 0
M  V30 1735 C 171.047 -3.29562 4.91063 0
M  V30 1736 C 170.409 -3.42691 6.15421 0
M  V30 1737 H 166.508 -0.694812 0.358832 0
M  V30 1738 H 169.092 -1.36246 1.39087 0
M  V30 1739 H 167.263 -3.80602 0.774361 0
M  V30 1740 H 168.995 -3.92346 0.99229 0
M  V30 1741 H 165.75 -3.6685 2.9953 0
M  V30 1742 H 166.174 -3.78387 5.61384 0
M  V30 1743 H 170.816 -3.19332 2.77105 0
M  V30 1744 H 168.534 -3.67475 7.19714 0
M  V30 1745 H 172.12 -3.17905 4.87266 0
M  V30 1746 H 171 -3.41862 7.05762 0
M  V30 1747 N 168.503 -0.877838 -1.30888 0
M  V30 1748 C 169.466 -0.344265 -2.266 0
M  V30 1749 C 170.466 0.50922 -1.52524 0
M  V30 1750 O 171.656 0.317398 -1.71284 0
M  V30 1751 C 168.788 0.510198 -3.37061 0
M  V30 1752 H 169.981 -1.1893 -2.7531 0
M  V30 1753 H 167.534 -0.654088 -1.41956 0
M  V30 1754 H 168.269 1.37612 -2.93655 0
M  V30 1755 H 168.054 -0.101047 -3.9197 0
M  V30 1756 H 169.544 0.875537 -4.08319 0
M  V30 1757 N 169.982 1.44106 -0.638065 0
M  V30 1758 C 170.914 2.28976 0.101205 0
M  V30 1759 C 171.927 1.4167 0.802088 0
M  V30 1760 O 173.116 1.65755 0.662375 0
M  V30 1761 C 170.216 3.18217 1.16581 0
M  V30 1762 C 169.389 4.33978 0.546066 0
M  V30 1763 C 168.448 5.04202 1.50554 0
M  V30 1764 O 167.474 5.59986 1.01999 0
M  V30 1765 N 168.676 5.06296 2.8398 0
M  V30 1766 H 171.441 2.93064 -0.627186 0
M  V30 1767 H 169.002 1.54629 -0.479731 0
M  V30 1768 H 170.994 3.62061 1.80815 0
M  V30 1769 H 169.564 2.55833 1.79634 0
M  V30 1770 H 168.784 3.93239 -0.275046 0
M  V30 1771 H 170.072 5.08675 0.112793 0
M  V30 1772 H 169.47 4.62319 3.26002 0
M  V30 1773 H 168.027 5.53907 3.43556 0
M  V30 1774 N 171.46 0.379036 1.52974 0
M  V30 1775 C 172.423 -0.448865 2.24762 0
M  V30 1776 C 173.423 -0.998689 1.26027 0
M  V30 1777 O 174.613 -0.882313 1.50203 0
M  V30 1778 C 171.745 -1.62872 2.99476 0
M  V30 1779 H 172.938 0.179491 2.99362 0
M  V30 1780 H 170.491 0.13096 1.5575 0
M  V30 1781 H 171.226 -2.29479 2.29151 0
M  V30 1782 H 171.011 -1.24128 3.71934 0
M  V30 1783 H 172.501 -2.2151 3.5401 0
M  V30 1784 N 172.938 -1.57226 0.108567 0
M  V30 1785 C 173.888 -2.11305 -0.856396 0
M  V30 1786 C 174.872 -1.03129 -1.23504 0
M  V30 1787 O 176.064 -1.29381 -1.20787 0
M  V30 1788 C 173.193 -2.70771 -2.11041 0
M  V30 1789 C 172.279 -3.86011 -1.7566 0
M  V30 1790 N 172.67 -4.93492 -1.10902 0
M  V30 1791 C 170.968 -3.95999 -2.05185 0
M  V30 1792 C 171.669 -5.73984 -0.944308 0
M  V30 1793 N 170.645 -5.2346 -1.46596 0
M  V30 1794 H 174.447 -2.91784 -0.352002 0
M  V30 1795 H 171.961 -1.62126 -0.0942324 0
M  V30 1796 H 173.958 -3.07851 -2.81128 0
M  V30 1797 H 172.618 -1.91751 -2.62034 0
M  V30 1798 H 173.629 -5.1208 -0.774235 0
M  V30 1799 H 170.306 -3.28007 -2.58298 0
M  V30 1800 H 171.696 -6.70479 -0.436813 0
M  V30 1801 N 174.416 0.165178 -1.56732 0
M  V30 1802 C 175.379 1.18822 -1.95995 0
M  V30 1803 C 176.379 1.3685 -0.84431 0
M  V30 1804 O 177.569 1.34152 -1.11126 0
M  V30 1805 C 174.701 2.5521 -2.26011 0
M  V30 1806 H 175.894 0.851825 -2.87548 0
M  V30 1807 H 173.447 0.407857 -1.50885 0
M  V30 1808 H 174.182 2.93852 -1.37191 0
M  V30 1809 H 173.967 2.43489 -3.07336 0
M  V30 1810 H 175.457 3.28927 -2.57288 0
M  V30 1811 N 175.894 1.51508 0.433938 0
M  V30 1812 C 177.14 1.64588 1.18484 0
M  V30 1813 C 177.473 0.362666 1.90784 0
M  V30 1814 O 176.748 -0.637892 1.83742 0
M  V30 1815 C 177.031 2.85149 2.19913 0
M  V30 1816 C 176.884 4.23456 1.51674 0
M  V30 1817 C 178.203 3.01227 3.20858 0
M  V30 1818 H 175.322 0.598994 0.429389 0
M  V30 1819 H 177.964 1.84002 0.473647 0
M  V30 1820 H 176.114 2.68729 2.80566 0
M  V30 1821 H 177.786 4.51552 0.943322 0
M  V30 1822 H 176.029 4.25998 0.819035 0
M  V30 1823 H 176.7 5.03812 2.2556 0
M  V30 1824 H 179.176 3.16382 2.70263 0
M  V30 1825 H 178.052 3.87141 3.89118 0
M  V30 1826 H 178.313 2.13447 3.8716 0
M  V30 1827 N 177.372 -0.689602 1.41712 0
M  V30 1828 C 178.597 -1.48329 1.44959 0
M  V30 1829 C 179.022 -1.8801 0.0581283 0
M  V30 1830 O 178.38 -1.55026 -0.940035 0
M  V30 1831 C 178.428 -2.71835 2.36935 0
M  V30 1832 O 177.532 -3.69549 1.8305 0
M  V30 1833 H 176.873 -0.446199 0.491734 0
M  V30 1834 H 179.403 -0.847127 1.86239 0
M  V30 1835 H 179.413 -3.20076 2.53013 0
M  V30 1836 H 178.088 -2.42291 3.38035 0
M  V30 1837 H 176.665 -3.2851 1.76452 0
M  V30 1838 N 178.85 -1.27639 -0.924453 0
M  V30 1839 C 179.8 -1.07295 -2.01176 0
M  V30 1840 C 180.784 5.77352e-05 -1.609 0
M  V30 1841 O 181.976 -0.218855 -1.75642 0
M  V30 1842 C 179.105 -0.725592 -3.35544 0
M  V30 1843 C 178.191 -1.83691 -3.82254 0
M  V30 1844 N 178.582 -3.07697 -4.01443 0
M  V30 1845 C 176.88 -1.72433 -4.11319 0
M  V30 1846 C 177.581 -3.80037 -4.40394 0
M  V30 1847 N 176.557 -3.0782 -4.48049 0
M  V30 1848 H 180.359 -2.01399 -2.14046 0
M  V30 1849 H 177.873 -1.18401 -1.11153 0
M  V30 1850 H 179.87 -0.560959 -4.13109 0
M  V30 1851 H 178.53 0.207782 -3.24034 0
M  V30 1852 H 179.541 -3.43424 -3.8766 0
M  V30 1853 H 176.218 -0.862005 -4.08504 0
M  V30 1854 H 177.608 -4.86632 -4.63291 0
M  V30 1855 N 180.328 1.1314 -1.09713 0
M  V30 1856 C 181.739 1.66029 -0.853885 0
M  V30 1857 C 182.09 1.86241 0.617142 0
M  V30 1858 O 181.215 1.5834 1.47503 0
M  V30 1859 C 181.81 3.01599 -1.5435 0
M  V30 1860 C 180.369 3.51467 -1.34714 0
M  V30 1861 C 179.516 2.26648 -1.59769 0
M  V30 1862 H 182.467 0.970226 -1.25588 0
M  V30 1863 H 182.488 3.67709 -0.978267 0
M  V30 1864 H 182 2.86856 -2.6141 0
M  V30 1865 H 180.101 3.71408 -0.297838 0
M  V30 1866 H 180.214 4.314 -2.08401 0
M  V30 1867 H 178.578 2.33385 -1.01998 0
M  V30 1868 H 179.361 2.14467 -2.68065 0
M  V30 1869 N 181.806 0.884767 1.30421 0
M  V30 1870 C 182.754 0.340869 2.30089 0
M  V30 1871 C 183.748 -0.55201 1.60154 0
M  V30 1872 O 184.954 -0.436467 1.74628 0
M  V30 1873 H 181.329 0.0915739 0.746404 0
M  V30 1874 H 183.3 1.19513 2.73421 0
M  V30 1875 C 182.049 -0.429779 3.45034 0
M  V30 1876 H 181.372 0.248024 3.9903 0
M  V30 1877 H 182.812 -0.775445 4.16849 0
M  V30 1878 C 181.271 -1.62677 2.95022 0
M  V30 1879 O 181.801 -2.72614 2.95033 0
M  V30 1880 N 180.007 -1.46387 2.51036 0
M  V30 1881 H 179.554 -0.569506 2.51226 0
M  V30 1882 H 179.512 -2.26612 2.17932 0
M  V30 1883 N 183.284 -1.43765 0.645699 0
M  V30 1884 C 184.194 -2.34544 -0.0512957 0
M  V30 1885 C 185.21 -1.53455 -0.82022 0
M  V30 1886 O 186.386 -1.86133 -0.769176 0
M  V30 1887 C 183.451 -3.31636 -1.01087 0
M  V30 1888 C 182.512 -4.2863 -0.239712 0
M  V30 1889 C 181.745 -5.21084 -1.15358 0
M  V30 1890 O 181.968 -5.1779 -2.39269 0
M  V30 1891 O 180.902 -5.98593 -0.630038 0
M  V30 1892 H 184.728 -2.95624 0.695718 0
M  V30 1893 H 182.313 -1.43781 0.405882 0
M  V30 1894 H 184.195 -3.9136 -1.56254 0
M  V30 1895 H 182.87 -2.73069 -1.73824 0
M  V30 1896 H 181.777 -3.72408 0.355356 0
M  V30 1897 H 183.11 -4.90157 0.447936 0
M  V30 1898 N 184.763 -0.387143 -1.52771 0
M  V30 1899 C 186.012 0.19697 -2.00736 0
M  V30 1900 C 186.325 1.48082 -1.27793 0
M  V30 1901 O 187.531 2.14485 -1.66458 0
M  V30 1902 C 185.987 0.401568 -3.57653 0
M  V30 1903 C 185.595 -0.868907 -4.39493 0
M  V30 1904 C 187.339 0.942164 -4.13912 0
M  V30 1905 C 185.246 -0.632705 -5.88006 0
M  V30 1906 H 184.176 0.0773827 -0.750019 0
M  V30 1907 H 186.827 -0.50921 -1.76293 0
M  V30 1908 H 185.209 1.16954 -3.78335 0
M  V30 1909 H 186.383 -1.64133 -4.30577 0
M  V30 1910 H 184.698 -1.33429 -3.94443 0
M  V30 1911 H 187.295 1.13455 -5.22525 0
M  V30 1912 H 187.638 1.9106 -3.69867 0
M  V30 1913 H 188.171 0.233814 -3.97112 0
M  V30 1914 H 184.91 -1.57208 -6.36369 0
M  V30 1915 H 184.43 0.100825 -5.99715 0
M  V30 1916 H 186.109 -0.26642 -6.46451 0
M  V30 1917 N 186.241 1.57166 -0.116904 0
M  V30 1918 C 187.151 2.18745 0.847812 0
M  V30 1919 C 188.167 1.163 1.29423 0
M  V30 1920 O 189.343 1.48761 1.35765 0
M  V30 1921 C 186.408 2.77307 2.0809 0
M  V30 1922 C 185.469 3.94781 1.68661 0
M  V30 1923 C 184.702 4.50541 2.86091 0
M  V30 1924 O 184.925 4.05202 4.01456 0
M  V30 1925 O 183.859 5.41256 2.63298 0
M  V30 1926 H 187.685 3.01632 0.353778 0
M  V30 1927 H 185.27 1.49005 0.108599 0
M  V30 1928 H 187.152 3.14647 2.80313 0
M  V30 1929 H 185.827 1.97452 2.56504 0
M  V30 1930 H 184.734 3.62214 0.935518 0
M  V30 1931 H 186.067 4.76065 1.24991 0
M  V30 1932 N 187.719 -0.156864 1.56817 0
M  V30 1933 C 188.947 -0.886316 1.86955 0
M  V30 1934 C 189.362 -1.75185 0.703975 0
M  V30 1935 O 188.719 -1.79555 -0.326552 0
M  V30 1936 C 188.77 -1.75117 3.16253 0
M  V30 1937 O 188.491 -0.920537 4.2832 0
M  V30 1938 C 189.992 -2.58905 3.59837 0
M  V30 1939 H 187.212 -0.25678 0.619923 0
M  V30 1940 H 189.756 -0.152615 2.0393 0
M  V30 1941 H 187.911 -2.43805 3.01062 0
M  V30 1942 H 188.325 -1.51337 5.02192 0
M  V30 1943 H 189.799 -3.1518 4.53172 0
M  V30 1944 H 190.276 -3.34472 2.84649 0
M  V30 1945 H 190.882 -1.95526 3.7769 0
M  V30 1946 N 189.197 -1.51736 -0.425897 0
M  V30 1947 C 190.443 -1.65214 -1.1761 0
M  V30 1948 C 190.776 -0.372778 -1.90589 0
M  V30 1949 O 190.051 0.628139 -1.84078 0
M  V30 1950 C 190.334 -2.86312 -2.18398 0
M  V30 1951 C 190.187 -4.24254 -1.49426 0
M  V30 1952 C 191.506 -3.02925 -3.19256 0
M  V30 1953 H 188.625 -0.601263 -0.426206 0
M  V30 1954 H 191.267 -1.8425 -0.463882 0
M  V30 1955 H 189.417 -2.70213 -2.79137 0
M  V30 1956 H 191.089 -4.52046 -0.919362 0
M  V30 1957 H 189.332 -4.26426 -0.796432 0
M  V30 1958 H 190.003 -5.05001 -2.22885 0
M  V30 1959 H 192.479 -3.1781 -2.68581 0
M  V30 1960 H 191.355 -3.89199 -3.8706 0
M  V30 1961 H 191.616 -2.15497 -3.86023 0
M  V30 1962 N 190.675 0.682077 -1.42076 0
M  V30 1963 C 191.585 1.82535 -1.47371 0
M  V30 1964 C 192.601 1.7017 -0.363079 0
M  V30 1965 O 193.777 1.91848 -0.612875 0
M  V30 1966 C 190.842 3.18624 -1.36674 0
M  V30 1967 C 189.903 3.42999 -2.58167 0
M  V30 1968 C 189.136 4.72595 -2.4797 0
M  V30 1969 O 189.359 5.50006 -1.5116 0
M  V30 1970 O 188.293 4.98054 -3.37974 0
M  V30 1971 H 192.119 1.81023 -2.43853 0
M  V30 1972 H 189.704 0.836887 -1.2376 0
M  V30 1973 H 191.586 3.99847 -1.33043 0
M  V30 1974 H 190.261 3.20789 -0.433138 0
M  V30 1975 H 189.168 2.61653 -2.67373 0
M  V30 1976 H 190.501 3.45659 -3.50401 0
M  V30 1977 N 192.153 1.28127 0.917671 0
M  V30 1978 C 193.083 1.14248 2.03641 0
M  V30 1979 C 194.064 0.0412748 1.7005 0
M  V30 1980 O 195.249 0.217566 1.92977 0
M  V30 1981 C 192.379 0.799431 3.37974 0
M  V30 1982 C 191.333 1.85497 3.85713 0
M  V30 1983 C 190.659 1.36565 5.16966 0
M  V30 1984 C 191.959 3.26085 4.08002 0
M  V30 1985 H 193.653 2.07835 2.15511 0
M  V30 1986 H 191.199 1.00064 1.03553 0
M  V30 1987 H 193.152 0.689114 4.15727 0
M  V30 1988 H 191.876 -0.172145 3.26146 0
M  V30 1989 H 190.535 1.95437 3.10161 0
M  V30 1990 H 190.183 0.383253 5.01538 0
M  V30 1991 H 189.883 2.07143 5.49878 0
M  V30 1992 H 191.407 1.26848 5.97279 0
M  V30 1993 H 192.821 3.19089 4.76293 0
M  V30 1994 H 191.218 3.94462 4.52238 0
M  V30 1995 H 192.288 3.70394 3.12948 0
M  V30 1996 N 193.631 -1.12557 1.10312 0
M  V30 1997 C 195.047 -1.36036 0.834649 0
M  V30 1998 C 195.247 -1.93946 -0.546539 0
M  V30 1999 O 194.303 -2.16484 -1.29966 0
M  V30 2000 C 195.616 -2.30312 1.9333 0
M  V30 2001 C 197.164 -2.43906 1.9616 0
M  V30 2002 C 197.639 -3.41496 3.05195 0
M  V30 2003 N 199.13 -3.49053 3.04494 0
M  V30 2004 C 199.865 -4.24471 3.85502 0
M  V30 2005 N 199.361 -5.02966 4.76442 0
M  V30 2006 N 201.154 -4.19864 3.73725 0
M  V30 2007 H 193.305 -0.733246 1.99342 0
M  V30 2008 H 195.568 -0.385234 0.866198 0
M  V30 2009 H 195.274 -1.94933 2.92735 0
M  V30 2010 H 195.148 -3.30421 1.81939 0
M  V30 2011 H 197.535 -2.78567 0.973886 0
M  V30 2012 H 197.616 -1.4369 2.11629 0
M  V30 2013 H 197.26 -3.07565 4.04186 0
M  V30 2014 H 197.19 -4.41539 2.86968 0
M  V30 2015 H 199.681 -2.93053 2.38596 0
M  V30 2016 H 199.994 -5.57846 5.34815 0
M  V30 2017 H 198.339 -5.02167 4.80472 0
M  V30 2018 H 201.53 -3.57623 3.02032 0
M  V30 2019 H 201.703 -4.78386 4.37093 0
M  V30 2020 N 195.109 -0.891671 -1.2995 0
M  V30 2021 C 196.056 -0.361736 -2.27948 0
M  V30 2022 C 197.026 0.551761 -1.56668 0
M  V30 2023 O 198.211 0.478736 -1.84696 0
M  V30 2024 C 195.351 0.411825 -3.42634 0
M  V30 2025 C 194.464 -0.531651 -4.28716 0
M  V30 2026 C 193.599 0.258167 -5.30572 0
M  V30 2027 C 192.638 -0.680349 -6.08307 0
M  V30 2028 N 191.775 0.0745613 -7.0206 0
M  V30 2029 H 196.615 -1.20254 -2.72659 0
M  V30 2030 H 194.152 -0.604352 -1.34112 0
M  V30 2031 H 196.11 0.876304 -4.07893 0
M  V30 2032 H 194.74 1.21715 -2.98974 0
M  V30 2033 H 193.792 -1.11463 -3.63703 0
M  V30 2034 H 195.104 -1.25038 -4.82874 0
M  V30 2035 H 194.258 0.784204 -6.0161 0
M  V30 2036 H 192.997 1.01008 -4.77126 0
M  V30 2037 H 192.002 -1.21796 -5.3614 0
M  V30 2038 H 193.227 -1.43145 -6.63842 0
M  V30 2039 H 191.173 0.808883 -6.50994 0
M  V30 2040 H 191.09 -0.584409 -7.53738 0
M  V30 2041 H 192.358 0.581123 -7.77331 0
M  V30 2042 N 196.587 1.43421 -0.653314 0
M  V30 2043 C 197.534 2.30768 0.0382271 0
M  V30 2044 C 198.504 1.44755 0.814576 0
M  V30 2045 O 199.689 1.73624 0.791162 0
M  V30 2046 C 196.829 3.30336 0.998599 0
M  V30 2047 C 195.942 4.31448 0.218342 0
M  V30 2048 C 195.077 5.18098 1.17252 0
M  V30 2049 C 194.116 6.10902 0.382702 0
M  V30 2050 N 193.253 6.90176 1.28848 0
M  V30 2051 H 198.093 2.89357 -0.712511 0
M  V30 2052 H 195.63 1.42548 -0.363128 0
M  V30 2053 H 197.588 3.86572 1.56901 0
M  V30 2054 H 196.218 2.73397 1.71621 0
M  V30 2055 H 195.27 3.77506 -0.46836 0
M  V30 2056 H 196.582 4.97227 -0.395812 0
M  V30 2057 H 195.736 5.7896 1.81356 0
M  V30 2058 H 194.475 4.52444 1.82058 0
M  V30 2059 H 193.48 5.49128 -0.27169 0
M  V30 2060 H 194.705 6.78598 -0.260957 0
M  V30 2061 H 192.651 6.27171 1.92334 0
M  V30 2062 H 192.568 7.52478 0.728887 0
M  V30 2063 H 193.836 7.55543 1.91766 0
M  V30 2064 N 198.065 0.39524 1.52563 0
M  V30 2065 C 199.012 -0.437036 2.26624 0
M  V30 2066 C 199.982 -1.05281 1.28472 0
M  V30 2067 O 201.167 -1.07971 1.57311 0
M  V30 2068 C 198.307 -1.55524 3.08069 0
M  V30 2069 C 197.42 -0.961745 4.21158 0
M  V30 2070 C 196.555 -2.05149 4.89987 0
M  V30 2071 C 195.594 -1.4342 5.95061 0
M  V30 2072 N 194.731 -2.46351 6.57462 0
M  V30 2073 H 199.571 0.200976 2.97322 0
M  V30 2074 H 197.108 0.110944 1.46681 0
M  V30 2075 H 199.066 -2.21437 3.53584 0
M  V30 2076 H 197.696 -2.16348 2.3957 0
M  V30 2077 H 196.748 -0.192048 3.79915 0
M  V30 2078 H 198.06 -0.470701 4.96574 0
M  V30 2079 H 197.214 -2.78819 5.38837 0
M  V30 2080 H 195.953 -2.57615 4.14109 0
M  V30 2081 H 194.958 -0.682774 5.45544 0
M  V30 2082 H 196.183 -0.917416 6.72875 0
M  V30 2083 H 194.129 -2.97975 5.8442 0
M  V30 2084 H 194.046 -2.02019 7.28508 0
M  V30 2085 H 195.314 -3.19633 7.10954 0
M  V30 2086 N 199.544 -1.57102 0.125237 0
M  V30 2087 C 200.474 -2.18659 -0.819174 0
M  V30 2088 C 201.455 -1.12843 -1.27281 0
M  V30 2089 O 202.64 -1.41104 -1.33429 0
M  V30 2090 C 199.77 -2.79096 -2.06695 0
M  V30 2091 C 198.724 -3.90548 -1.75088 0
M  V30 2092 C 198.05 -4.37821 -3.06948 0
M  V30 2093 C 199.35 -5.12356 -1.01435 0
M  V30 2094 H 201.044 -2.9783 -0.306202 0
M  V30 2095 H 198.59 -1.4326 -0.145839 0
M  V30 2096 H 200.543 -3.2082 -2.73226 0
M  V30 2097 H 199.267 -1.97223 -2.60328 0
M  V30 2098 H 197.926 -3.49409 -1.10944 0
M  V30 2099 H 197.574 -3.52799 -3.58527 0
M  V30 2100 H 197.274 -5.12982 -2.86571 0
M  V30 2101 H 198.798 -4.822 -3.74587 0
M  V30 2102 H 200.212 -5.5106 -1.58132 0
M  V30 2103 H 198.609 -5.9314 -0.911319 0
M  V30 2104 H 199.679 -4.849 -0.00218681 0
M  V30 2105 N 201.022 0.148545 -1.56898 0
M  V30 2106 C 202.25 0.876389 -1.87422 0
M  V30 2107 C 202.665 1.74809 -0.713256 0
M  V30 2108 O 202.022 1.79725 0.317025 0
M  V30 2109 C 202.073 1.73438 -3.17178 0
M  V30 2110 O 201.794 0.897809 -4.28802 0
M  V30 2111 C 203.295 2.56993 -3.61205 0
M  V30 2112 H 200.515 0.253489 -0.621277 0
M  V30 2113 H 203.059 0.141798 -2.04008 0
M  V30 2114 H 201.214 2.42205 -3.0235 0
M  V30 2115 H 201.628 1.48672 -5.02988 0
M  V30 2116 H 203.102 3.12773 -4.54838 0
M  V30 2117 H 203.579 3.32958 -2.86419 0
M  V30 2118 H 204.185 1.9352 -3.78722 0
M  V30 2119 N 202.5 1.5196 0.417844 0
M  V30 2120 C 203.433 1.69387 1.52916 0
M  V30 2121 C 204.411 0.541419 1.53321 0
M  V30 2122 O 205.595 0.767695 1.72159 0
M  V30 2123 C 202.722 1.72525 2.91467 0
M  V30 2124 C 201.768 2.93967 3.09008 0
M  V30 2125 S 202.601 4.54461 2.83242 0
M  V30 2126 C 203.757 4.60372 4.24038 0
M  V30 2127 H 203.99 2.63382 1.37903 0
M  V30 2128 H 201.523 1.41889 0.608845 0
M  V30 2129 H 203.481 1.75018 3.7132 0
M  V30 2130 H 202.142 0.796733 3.03827 0
M  V30 2131 H 201.335 2.92619 4.10353 0
M  V30 2132 H 200.937 2.89316 2.37007 0
M  V30 2133 H 203.229 4.37213 5.17544 0
M  V30 2134 H 204.172 5.62273 4.30412 0
M  V30 2135 H 204.58 3.89492 4.08602 0
M  V30 2136 N 203.978 -0.674533 1.42435 0
M  V30 2137 C 205.394 -0.98769 1.25367 0
M  V30 2138 C 205.594 -2.00879 0.158044 0
M  V30 2139 O 204.65 -2.48075 -0.470633 0
M  V30 2140 C 205.963 -1.49224 2.6106 0
M  V30 2141 C 207.511 -1.61 2.68417 0
M  V30 2142 C 207.986 -2.14852 4.04478 0
M  V30 2143 N 209.477 -2.22185 4.06434 0
M  V30 2144 C 210.212 -2.64928 5.08528 0
M  V30 2145 N 209.708 -3.07121 6.21006 0
M  V30 2146 N 211.501 -2.64679 4.95885 0
M  V30 2147 H 203.652 0.00152503 2.124 0
M  V30 2148 H 205.915 -0.0618434 0.945981 0
M  V30 2149 H 205.621 -0.816453 3.42092 0
M  V30 2150 H 205.495 -2.47094 2.84999 0
M  V30 2151 H 207.882 -2.27686 1.87732 0
M  V30 2152 H 207.963 -0.616195 2.48267 0
M  V30 2153 H 207.607 -1.48775 4.85622 0
M  V30 2154 H 207.537 -3.15024 4.2198 0
M  V30 2155 H 210.028 -1.92435 3.25234 0
M  V30 2156 H 210.341 -3.38423 6.94759 0
M  V30 2157 H 208.686 -3.04978 6.24511 0
M  V30 2158 H 211.877 -2.31078 4.07088 0
M  V30 2159 H 212.05 -2.9767 5.75584 0
M  V30 2160 N 205.456 -1.28612 -0.910864 0
M  V30 2161 C 206.867 -1.14406 -1.47541 0
M  V30 2162 C 207.218 0.264901 -1.94403 0
M  V30 2163 O 206.343 1.15942 -1.82719 0
M  V30 2164 C 206.938 -2.07073 -2.68153 0
M  V30 2165 C 205.497 -1.96923 -3.20778 0
M  V30 2166 C 204.644 -1.98646 -1.93481 0
M  V30 2167 H 207.595 -1.41259 -0.723291 0
M  V30 2168 H 207.616 -1.63642 -3.43514 0
M  V30 2169 H 207.128 -3.09611 -2.34015 0
M  V30 2170 H 205.229 -0.97433 -3.59635 0
M  V30 2171 H 205.342 -2.84026 -3.85832 0
M  V30 2172 H 203.706 -1.43093 -2.10705 0
M  V30 2173 H 204.489 -3.02868 -1.61634 0
M  V30 2174 N 206.934 1.1197 -1.10907 0
M  V30 2175 C 207.864 2.19928 -0.784473 0
M  V30 2176 C 208.845 1.6833 0.244726 0
M  V30 2177 O 210.03 1.93892 0.109418 0
M  V30 2178 C 207.16 3.46597 -0.220827 0
M  V30 2179 C 206.114 4.11376 -1.18127 0
M  V30 2180 C 205.44 5.32554 -0.478594 0
M  V30 2181 C 206.74 4.56945 -2.52979 0
M  V30 2182 H 208.434 2.47337 -1.68715 0
M  V30 2183 H 205.98 1.18879 -0.812642 0
M  V30 2184 H 207.933 4.21396 0.0184278 0
M  V30 2185 H 206.657 3.1863 0.717113 0
M  V30 2186 H 205.316 3.38564 -1.40606 0
M  V30 2187 H 204.964 5.00856 0.463976 0
M  V30 2188 H 204.664 5.76844 -1.11912 0
M  V30 2189 H 206.188 6.10096 -0.248 0
M  V30 2190 H 207.602 5.23093 -2.3462 0
M  V30 2191 H 205.999 5.1203 -3.12962 0
M  V30 2192 H 207.069 3.70676 -3.12614 0
M  V30 2193 N 208.412 0.89855 1.29475 0
M  V30 2194 C 209.658 0.524658 1.95896 0
M  V30 2195 C 209.991 -0.926468 1.70676 0
M  V30 2196 O 209.266 -1.65665 1.01908 0
M  V30 2197 C 209.549 0.81633 3.50725 0
M  V30 2198 C 209.402 2.31907 3.85408 0
M  V30 2199 C 210.721 0.302038 4.39062 0
M  V30 2200 H 207.84 0.19209 0.711527 0
M  V30 2201 H 210.482 1.12502 1.53112 0
M  V30 2202 H 208.632 0.305369 3.87298 0
M  V30 2203 H 210.304 2.89949 3.58786 0
M  V30 2204 H 208.547 2.78027 3.32992 0
M  V30 2205 H 209.218 2.47373 4.93468 0
M  V30 2206 H 211.694 0.739551 4.09475 0
M  V30 2207 H 210.57 0.535331 5.46283 0
M  V30 2208 H 210.831 -0.797216 4.34853 0
M  V30 2209 N 209.89 -1.43072 0.660911 0
M  V30 2210 C 210.82 -2.33497 -0.0122829 0
M  V30 2211 C 211.801 -1.49903 -0.803925 0
M  V30 2212 O 212.986 -1.78546 -0.763864 0
M  V30 2213 C 210.116 -3.33363 -0.973994 0
M  V30 2214 C 209.07 -4.27003 -0.291928 0
M  V30 2215 C 208.396 -5.16967 -1.36562 0
M  V30 2216 C 209.696 -5.15816 0.820462 0
M  V30 2217 H 211.39 -2.90038 0.742873 0
M  V30 2218 H 208.936 -1.39461 0.358688 0
M  V30 2219 H 210.889 -3.95524 -1.45392 0
M  V30 2220 H 209.613 -2.75095 -1.7604 0
M  V30 2221 H 208.272 -3.66217 0.167623 0
M  V30 2222 H 207.92 -4.55034 -2.14366 0
M  V30 2223 H 207.62 -5.80441 -0.914454 0
M  V30 2224 H 209.144 -5.82003 -1.84675 0
M  V30 2225 H 210.558 -5.71742 0.422366 0
M  V30 2226 H 208.955 -5.8805 1.19656 0
M  V30 2227 H 210.025 -4.55045 1.67518 0
M  V30 2228 N 211.368 -0.403325 -1.52352 0
M  V30 2229 C 212.3 0.4603 -2.2453 0
M  V30 2230 C 213.313 1.01505 -1.27282 0
M  V30 2231 O 214.502 0.914982 -1.53266 0
M  V30 2232 C 211.602 1.65208 -2.95905 0
M  V30 2233 C 210.775 1.22224 -4.19976 0
M  V30 2234 C 209.834 2.28028 -4.74226 0
M  V30 2235 O 208.86 1.88857 -5.36956 0
M  V30 2236 N 210.062 3.6012 -4.55295 0
M  V30 2237 H 212.827 -0.158156 -2.99282 0
M  V30 2238 H 210.388 -0.230402 -1.60252 0
M  V30 2239 H 212.38 2.35541 -3.29093 0
M  V30 2240 H 210.95 2.17658 -2.24374 0
M  V30 2241 H 210.17 0.34725 -3.92668 0
M  V30 2242 H 211.458 0.911924 -5.00561 0
M  V30 2243 H 210.856 3.94698 -4.05253 0
M  V30 2244 H 209.413 4.26447 -4.92936 0
M  V30 2245 N 212.846 1.57033 -0.133567 0
M  V30 2246 C 213.793 2.16074 0.811208 0
M  V30 2247 C 214.763 1.08979 1.2535 0
M  V30 2248 O 215.948 1.36958 1.32843 0
M  V30 2249 C 213.088 2.77595 2.05024 0
M  V30 2250 C 212.201 3.99042 1.65498 0
M  V30 2251 C 211.336 4.48603 2.84479 0
M  V30 2252 C 210.375 5.62547 2.41262 0
M  V30 2253 N 209.512 6.06787 3.53206 0
M  V30 2254 H 214.352 2.96477 0.300906 0
M  V30 2255 H 211.889 1.46462 0.136822 0
M  V30 2256 H 213.847 3.11402 2.77642 0
M  V30 2257 H 212.477 1.99859 2.53488 0
M  V30 2258 H 211.529 3.71302 0.826981 0
M  V30 2259 H 212.841 4.81629 1.29748 0
M  V30 2260 H 211.995 4.84395 3.65303 0
M  V30 2261 H 210.734 3.64995 3.23465 0
M  V30 2262 H 209.739 5.26345 1.58874 0
M  V30 2263 H 210.964 6.47931 2.03377 0
M  V30 2264 H 208.91 5.26117 3.91838 0
M  V30 2265 H 208.827 6.84266 3.21427 0
M  V30 2266 H 210.095 6.4722 4.34427 0
M  V30 2267 N 214.325 -0.140222 1.56975 0
M  V30 2268 C 215.235 -1.19223 2.02047 0
M  V30 2269 C 216.251 -1.46612 0.937062 0
M  V30 2270 O 217.427 -1.58148 1.24704 0
M  V30 2271 C 214.492 -2.50414 2.39778 0
M  V30 2272 C 213.553 -2.30612 3.621 0
M  V30 2273 C 212.786 -3.55547 3.98023 0
M  V30 2274 O 213.009 -4.62004 3.34528 0
M  V30 2275 O 211.943 -3.47808 4.91237 0
M  V30 2276 H 215.769 -0.839559 2.91865 0
M  V30 2277 H 213.354 -0.349453 1.45256 0
M  V30 2278 H 215.236 -3.27747 2.64877 0
M  V30 2279 H 213.911 -2.85198 1.53114 0
M  V30 2280 H 212.818 -1.51207 3.4218 0
M  V30 2281 H 214.151 -2.00741 4.49404 0
M  V30 2282 N 215.803 -1.52179 -0.40978 0
M  V30 2283 C 216.713 -1.78364 -1.52392 0
M  V30 2284 C 217.729 -0.669183 -1.60617 0
M  V30 2285 O 218.905 -0.954518 -1.77344 0
M  V30 2286 C 215.97 -1.92822 -2.88133 0
M  V30 2287 C 215.031 -3.16725 -2.898 0
M  V30 2288 C 214.264 -3.30483 -4.19067 0
M  V30 2289 O 214.487 -2.49522 -5.12928 0
M  V30 2290 O 213.421 -4.2363 -4.27576 0
M  V30 2291 H 217.247 -2.72931 -1.33201 0
M  V30 2292 H 214.832 -1.37016 -0.59557 0
M  V30 2293 H 216.714 -2.04157 -3.68643 0
M  V30 2294 H 215.389 -1.01444 -3.07393 0
M  V30 2295 H 214.296 -3.10848 -2.08146 0
M  V30 2296 H 215.629 -4.07881 -2.75489 0
M  V30 2297 N 217.281 0.66697 -1.42791 0
M  V30 2298 C 218.506 1.46004 -1.47301 0
M  V30 2299 C 218.931 1.87894 -0.0880317 0
M  V30 2300 O 218.289 1.56502 0.915253 0
M  V30 2301 C 218.337 2.68031 -2.41229 0
M  V30 2302 O 217.441 3.6659 -1.88906 0
M  V30 2303 H 216.782 0.43832 -0.49877 0
M  V30 2304 H 219.312 0.817391 -1.87563 0
M  V30 2305 H 219.322 3.1601 -2.58073 0
M  V30 2306 H 217.997 2.36883 -3.41847 0
M  V30 2307 H 216.574 3.25661 -1.81656 0
M  V30 2308 N 218.759 1.29093 0.90403 0
M  V30 2309 C 219.984 1.19809 1.69294 0
M  V30 2310 C 220.409 -0.238481 1.86582 0
M  V30 2311 O 219.767 -1.1723 1.383 0
M  V30 2312 C 219.815 1.91202 3.05736 0
M  V30 2313 O 218.919 1.22611 3.93752 0
M  V30 2314 H 218.26 0.415385 0.518027 0
M  V30 2315 H 220.79 1.70586 1.12967 0
M  V30 2316 H 220.8 1.99487 3.55906 0
M  V30 2317 H 219.475 2.95692 2.92471 0
M  V30 2318 H 218.052 1.22554 3.52186 0
M  V30 2319 N 220.237 -1.11381 1.11499 0
M  V30 2320 C 221.653 -1.35143 0.849031 0
M  V30 2321 C 221.853 -1.94515 -0.525938 0
M  V30 2322 O 220.909 -2.1785 -1.27662 0
M  V30 2323 C 222.222 -2.28249 1.95762 0
M  V30 2324 C 223.77 -2.41812 1.98736 0
M  V30 2325 C 224.245 -3.3824 3.088 0
M  V30 2326 N 225.736 -3.45803 3.08179 0
M  V30 2327 C 226.471 -4.20358 3.89982 0
M  V30 2328 N 225.967 -4.97884 4.8175 0
M  V30 2329 N 227.76 -4.15877 3.78157 0
M  V30 2330 H 219.911 -0.712062 2.00109 0
M  V30 2331 H 222.174 -0.376025 0.870235 0
M  V30 2332 H 221.88 -1.91817 2.94787 0
M  V30 2333 H 221.754 -3.28473 1.85433 0
M  V30 2334 H 224.141 -2.77518 1.00338 0
M  V30 2335 H 224.222 -1.41437 2.13141 0
M  V30 2336 H 223.866 -3.03261 4.07425 0
M  V30 2337 H 223.796 -4.38471 2.91635 0
M  V30 2338 H 226.287 -2.90506 2.41691 0
M  V30 2339 H 226.6 -5.52142 5.40702 0
M  V30 2340 H 224.945 -4.97043 4.85771 0
M  V30 2341 H 228.136 -3.544 3.05808 0
M  V30 2342 H 228.309 -4.73723 4.42143 0
M  V30 2343 N 221.715 -0.905404 -1.28997 0
M  V30 2344 C 222.625 -0.392246 -2.31298 0
M  V30 2345 C 223.641 0.515889 -1.66176 0
M  V30 2346 O 224.817 0.404093 -1.97304 0
M  V30 2347 C 221.882 0.36686 -3.44754 0
M  V30 2348 C 220.943 -0.573485 -4.25452 0
M  V30 2349 C 220.176 0.149488 -5.33491 0
M  V30 2350 O 220.399 1.37255 -5.5364 0
M  V30 2351 O 219.333 -0.510919 -5.99728 0
M  V30 2352 H 223.159 -1.2411 -2.77183 0
M  V30 2353 H 220.744 -0.669926 -1.33538 0
M  V30 2354 H 222.626 0.795907 -4.13816 0
M  V30 2355 H 221.301 1.19169 -3.00966 0
M  V30 2356 H 220.208 -1.05176 -3.59011 0
M  V30 2357 H 221.541 -1.36489 -4.72897 0
M  V30 2358 N 223.193 1.4272 -0.668489 0
M  V30 2359 C 224.123 2.335 -0.000100175 0
M  V30 2360 C 225.104 1.50328 0.795964 0
M  V30 2361 O 226.289 1.78949 0.754385 0
M  V30 2362 C 223.419 3.33874 0.956302 0
M  V30 2363 C 222.373 4.27152 0.269278 0
M  V30 2364 C 221.699 5.17684 1.33818 0
M  V30 2365 C 222.999 5.15373 -0.847805 0
M  V30 2366 H 224.693 2.89639 -0.758244 0
M  V30 2367 H 222.239 1.39269 -0.366079 0
M  V30 2368 H 224.192 3.9629 1.43292 0
M  V30 2369 H 222.916 2.76025 1.74579 0
M  V30 2370 H 221.575 3.66123 -0.187042 0
M  V30 2371 H 221.223 4.56165 2.1195 0
M  V30 2372 H 220.923 5.80918 0.883659 0
M  V30 2373 H 222.447 5.82974 1.81586 0
M  V30 2374 H 223.861 5.7151 -0.452681 0
M  V30 2375 H 222.258 5.87407 -1.22773 0
M  V30 2376 H 223.328 4.5415 -1.69929 0
M  V30 2377 N 224.671 0.411399 1.52136 0
M  V30 2378 C 225.911 -0.163143 2.03748 0
M  V30 2379 C 226.275 -1.42187 1.29022 0
M  V30 2380 O 227.476 -2.075 1.70872 0
M  V30 2381 C 225.747 -0.402651 3.55125 0
M  V30 2382 S 227.306 -0.944315 4.28519 0
M  V30 2383 H 224.124 -0.0439833 0.709638 0
M  V30 2384 H 226.726 0.56484 1.87163 0
M  V30 2385 H 225.43 0.520212 4.0709 0
M  V30 2386 H 224.961 -1.15844 3.75957 0
M  V30 2387 H 226.976 -2.22463 4.43536 0
M  V30 2388 N 226.149 -1.5696 0.141893 0
M  V30 2389 C 227.097 -2.17784 -0.816874 0
M  V30 2390 C 228.091 -1.1334 -1.25899 0
M  V30 2391 O 229.297 -1.316 -1.22806 0
M  V30 2392 H 225.672 -0.697278 -0.281615 0
M  V30 2393 H 227.643 -2.97087 -0.279621 0
M  V30 2394 C 226.392 -2.80983 -2.04802 0
M  V30 2395 H 225.715 -3.61062 -1.7168 0
M  V30 2396 H 227.155 -3.2705 -2.69841 0
M  V30 2397 C 225.614 -1.79228 -2.8527 0
M  V30 2398 O 226.144 -1.25962 -3.8144 0
M  V30 2399 N 224.35 -1.48647 -2.49704 0
M  V30 2400 H 223.897 -1.92155 -1.71564 0
M  V30 2401 H 223.855 -0.808115 -3.03837 0
M  V30 2402 N 227.627 0.131896 -1.57047 0
M  V30 2403 C 228.873 0.843179 -1.84441 0
M  V30 2404 C 229.206 1.80129 -0.725749 0
M  V30 2405 O 228.481 1.92624 0.269469 0
M  V30 2406 C 228.764 1.60442 -3.22382 0
M  V30 2407 C 228.617 0.666782 -4.4483 0
M  V30 2408 C 229.936 2.56354 -3.5773 0
M  V30 2409 H 227.055 0.305081 -0.670891 0
M  V30 2410 H 229.697 0.107839 -1.89694 0
M  V30 2411 H 227.847 2.23128 -3.18035 0
M  V30 2412 H 229.519 0.0497646 -4.61273 0
M  V30 2413 H 227.762 -0.022609 -4.33794 0
M  V30 2414 H 228.433 1.23579 -5.37989 0
M  V30 2415 H 230.909 2.0378 -3.62785 0
M  V30 2416 H 229.785 3.06657 -4.5525 0
M  V30 2417 H 230.046 3.38419 -2.84473 0
M  V30 2418 N 229.106 1.52395 0.401703 0
M  V30 2419 C 230.054 1.7689 1.51039 0
M  V30 2420 C 231.048 0.636298 1.56996 0
M  V30 2421 O 232.254 0.818507 1.60314 0
M  V30 2422 H 228.629 0.559502 0.502456 0
M  V30 2423 H 230.6 2.69757 1.27568 0
M  V30 2424 C 229.349 1.94331 2.88324 0
M  V30 2425 H 228.672 2.80905 2.84486 0
M  V30 2426 H 230.112 2.15466 3.65172 0
M  V30 2427 C 228.571 0.712396 3.29282 0
M  V30 2428 O 229.101 -0.116218 4.01532 0
M  V30 2429 N 227.307 0.546154 2.85422 0
M  V30 2430 H 226.854 1.22156 2.26794 0
M  V30 2431 H 226.812 -0.276113 3.13185 0
M  V30 2432 N 230.584 -0.659388 1.43143 0
M  V30 2433 C 231.514 -1.78422 1.50625 0
M  V30 2434 C 232.495 -1.66216 0.361443 0
M  V30 2435 O 233.68 -1.85404 0.577834 0
M  V30 2436 C 230.81 -3.16815 1.42287 0
M  V30 2437 C 229.764 -3.43777 2.54954 0
M  V30 2438 C 229.09 -4.81905 2.31671 0
M  V30 2439 C 230.39 -3.39134 3.97222 0
M  V30 2440 H 232.084 -1.72417 2.44771 0
M  V30 2441 H 229.63 -0.828084 1.17808 0
M  V30 2442 H 231.583 -3.95253 1.46127 0
M  V30 2443 H 230.307 -3.23534 0.446435 0
M  V30 2444 H 228.966 -2.67707 2.50457 0
M  V30 2445 H 228.614 -4.85294 1.32284 0
M  V30 2446 H 228.314 -5.00906 3.07192 0
M  V30 2447 H 229.838 -5.62609 2.37284 0
M  V30 2448 H 231.252 -4.07518 4.03239 0
M  V30 2449 H 229.649 -3.69671 4.72719 0
M  V30 2450 H 230.719 -2.37426 4.22797 0
M  V30 2451 N 232.062 -1.29571 -0.897171 0
M  V30 2452 C 233.31 -1.17456 -1.64464 0
M  V30 2453 C 233.631 0.273698 -1.9307 0
M  V30 2454 O 232.901 1.18684 -1.55855 0
M  V30 2455 H 231.481 -0.431706 -0.609622 0
M  V30 2456 H 234.143 -1.62531 -1.07562 0
M  V30 2457 H 233.239 -1.72648 -2.59998 0
M  V30 2458 N 233.54 1.10788 -1.12088 0
M  V30 2459 C 234.787 1.82671 -0.873931 0
M  V30 2460 C 235.115 1.85004 0.600311 0
M  V30 2461 O 234.37 1.30365 1.45957 0
M  V30 2462 C 234.669 3.29294 -1.38926 0
M  V30 2463 C 234.335 3.47113 -2.87791 0
M  V30 2464 C 232.997 3.51684 -3.28439 0
M  V30 2465 C 235.349 3.52808 -3.83635 0
M  V30 2466 C 232.677 3.59513 -4.63646 0
M  V30 2467 C 235.029 3.62169 -5.18668 0
M  V30 2468 C 233.693 3.65003 -5.58864 0
M  V30 2469 H 232.963 0.668441 -0.319794 0
M  V30 2470 H 235.61 1.30613 -1.40045 0
M  V30 2471 H 233.915 3.83894 -0.783122 0
M  V30 2472 H 235.612 3.83416 -1.17443 0
M  V30 2473 H 232.202 3.4423 -2.5535 0
M  V30 2474 H 236.386 3.4853 -3.53328 0
M  V30 2475 H 231.642 3.59987 -4.94185 0
M  V30 2476 H 235.816 3.6552 -5.92763 0
M  V30 2477 H 233.443 3.70822 -6.63623 0
M  V30 2478 N 235.018 0.912232 1.28515 0
M  V30 2479 C 235.948 0.416403 2.29757 0
M  V30 2480 C 236.929 -0.515194 1.6211 0
M  V30 2481 O 238.114 -0.423253 1.89532 0
M  V30 2482 C 235.244 -0.34572 3.45575 0
M  V30 2483 C 234.198 0.496599 4.25109 0
M  V30 2484 C 233.524 -0.393771 5.33248 0
M  V30 2485 C 234.824 1.75307 4.92001 0
M  V30 2486 H 236.518 1.26249 2.7148 0
M  V30 2487 H 234.064 0.608515 1.30511 0
M  V30 2488 H 236.017 -0.703422 4.15488 0
M  V30 2489 H 234.741 -1.2257 3.02728 0
M  V30 2490 H 233.4 0.8368 3.56922 0
M  V30 2491 H 233.048 -1.27225 4.86644 0
M  V30 2492 H 232.748 0.166209 5.87365 0
M  V30 2493 H 234.272 -0.747389 6.06009 0
M  V30 2494 H 235.686 1.46437 5.54283 0
M  V30 2495 H 234.083 2.25534 5.56106 0
M  V30 2496 H 235.153 2.48176 4.16577 0
M  V30 2497 N 236.496 -1.42363 0.676048 0
M  V30 2498 C 237.426 -2.33497 0.0124832 0
M  V30 2499 C 238.407 -1.50748 -0.787981 0
M  V30 2500 O 239.592 -1.79346 -0.744884 0
M  V30 2501 C 236.722 -3.34377 -0.938582 0
M  V30 2502 C 235.676 -4.27289 -0.246622 0
M  V30 2503 C 235.002 -5.18386 -1.31071 0
M  V30 2504 C 236.302 -5.14916 0.875125 0
M  V30 2505 H 237.996 -2.89233 0.773593 0
M  V30 2506 H 235.542 -1.39073 0.37346 0
M  V30 2507 H 237.495 -3.97044 -1.41188 0
M  V30 2508 H 236.219 -2.76947 -1.73113 0
M  V30 2509 H 234.878 -3.66018 0.206456 0
M  V30 2510 H 234.526 -4.57282 -2.09528 0
M  V30 2511 H 234.226 -5.81378 -0.852839 0
M  V30 2512 H 235.75 -5.83929 -1.78492 0
M  V30 2513 H 237.164 -5.71262 0.482983 0
M  V30 2514 H 235.561 -5.86747 1.25887 0
M  V30 2515 H 236.631 -4.53242 1.72335 0
M  V30 2516 N 237.974 -0.419461 -1.51915 0
M  V30 2517 C 239.385 0.0477853 -1.86639 0
M  V30 2518 C 239.736 1.43531 -1.33766 0
M  V30 2519 O 238.861 2.05401 -0.68113 0
M  V30 2520 C 239.456 0.0934885 -3.38671 0
M  V30 2521 C 238.015 0.505097 -3.72996 0
M  V30 2522 C 237.162 -0.313792 -2.75519 0
M  V30 2523 H 240.113 -0.636088 -1.45395 0
M  V30 2524 H 240.134 0.906667 -3.6954 0
M  V30 2525 H 239.646 -0.916501 -3.77123 0
M  V30 2526 H 237.747 1.52135 -3.40126 0
M  V30 2527 H 237.86 0.242309 -4.78487 0
M  V30 2528 H 236.224 0.225363 -2.53701 0
M  V30 2529 H 237.007 -1.32232 -3.16812 0
M  V30 2530 N 239.452 1.56882 -0.150215 0
M  V30 2531 C 240.868 1.58263 0.20617 0
M  V30 2532 C 241.068 1.16464 1.64434 0
M  V30 2533 O 240.124 0.866422 2.3717 0
M  V30 2534 C 241.437 3.00649 -0.0555025 0
M  V30 2535 C 242.985 3.12999 0.00795388 0
M  V30 2536 C 243.46 4.5744 -0.226429 0
M  V30 2537 N 244.951 4.62875 -0.173469 0
M  V30 2538 C 245.686 5.72454 -0.329288 0
M  V30 2539 N 245.182 6.90669 -0.543005 0
M  V30 2540 N 246.975 5.61467 -0.266666 0
M  V30 2541 H 239.126 1.82345 -1.08922 0
M  V30 2542 H 241.389 0.844149 -0.431413 0
M  V30 2543 H 241.095 3.3563 -1.05096 0
M  V30 2544 H 240.969 3.71337 0.66246 0
M  V30 2545 H 243.356 2.77857 0.993966 0
M  V30 2546 H 243.437 2.4479 -0.742388 0
M  V30 2547 H 243.081 4.93287 -1.20956 0
M  V30 2548 H 243.011 5.2378 0.544274 0
M  V30 2549 H 245.502 3.77898 -0.0130709 0
M  V30 2550 H 245.815 7.70045 -0.651922 0
M  V30 2551 H 244.16 6.92581 -0.579366 0
M  V30 2552 H 247.351 4.67992 -0.100441 0
M  V30 2553 H 247.524 6.46816 -0.391535 0
M  V30 2554 N 240.93 -0.123565 1.57115 0
M  V30 2555 C 242.155 -0.850398 1.89164 0
M  V30 2556 C 242.58 -1.7286 0.741688 0
M  V30 2557 O 241.938 -1.78665 -0.307958 0
M  V30 2558 C 241.986 -1.66353 3.19936 0
M  V30 2559 O 241.09 -2.77004 3.0552 0
M  V30 2560 H 240.431 -0.235454 0.620852 0
M  V30 2561 H 242.961 -0.107335 2.04318 0
M  V30 2562 H 242.971 -2.05372 3.52543 0
M  V30 2563 H 241.646 -1.01881 4.03228 0
M  V30 2564 H 240.223 -2.41221 2.84371 0
M  V30 2565 N 242.408 -1.52605 -0.393616 0
M  V30 2566 C 243.648 -1.6911 -1.1481 0
M  V30 2567 C 244.012 -0.41969 -1.87357 0
M  V30 2568 O 245.213 -0.461034 -2.64817 0
M  V30 2569 C 243.484 -2.88909 -2.10395 0
M  V30 2570 S 245.043 -3.25977 -2.93742 0
M  V30 2571 H 241.861 -0.595337 -0.38871 0
M  V30 2572 H 244.463 -1.90641 -0.433178 0
M  V30 2573 H 243.167 -3.79672 -1.55812 0
M  V30 2574 H 242.698 -2.69698 -2.86403 0
M  V30 2575 H 244.713 -2.75806 -4.12487 0
M  V30 2576 N 243.887 0.651787 -1.4349 0
M  V30 2577 C 244.817 1.77621 -1.51569 0
M  V30 2578 C 245.798 1.66022 -0.370253 0
M  V30 2579 O 246.983 1.85095 -0.587658 0
M  V30 2580 C 244.113 3.16056 -1.43966 0
M  V30 2581 C 243.067 3.4242 -2.56774 0
M  V30 2582 C 242.393 4.8067 -2.34223 0
M  V30 2583 C 243.693 3.37023 -3.99015 0
M  V30 2584 H 245.387 1.71117 -2.45681 0
M  V30 2585 H 242.933 0.821825 -1.18246 0
M  V30 2586 H 244.886 3.94472 -1.48221 0
M  V30 2587 H 243.61 3.23293 -0.463586 0
M  V30 2588 H 242.269 2.66375 -2.51873 0
M  V30 2589 H 241.917 4.84585 -1.34856 0
M  V30 2590 H 241.617 4.9927 -3.09844 0
M  V30 2591 H 243.141 5.61342 -2.40265 0
M  V30 2592 H 244.555 4.05374 -4.05395 0
M  V30 2593 H 242.952 3.67159 -4.74673 0
M  V30 2594 H 244.022 2.3518 -4.2405 0
M  V30 2595 N 245.365 1.30045 0.890287 0
M  V30 2596 C 246.275 1.17885 2.02831 0
M  V30 2597 C 247.291 0.0999609 1.73713 0
M  V30 2598 O 248.467 0.313867 1.98939 0
M  V30 2599 C 245.532 0.866079 3.35708 0
M  V30 2600 C 244.593 2.02979 3.78283 0
M  V30 2601 C 243.826 1.73184 5.0482 0
M  V30 2602 O 244.049 0.657237 5.66601 0
M  V30 2603 O 242.983 2.58267 5.43674 0
M  V30 2604 H 246.809 2.13474 2.16015 0
M  V30 2605 H 244.394 1.09587 1.01543 0
M  V30 2606 H 246.276 0.706623 4.15433 0
M  V30 2607 H 244.951 -0.0599443 3.23644 0
M  V30 2608 H 243.858 2.24454 2.99285 0
M  V30 2609 H 245.191 2.93734 3.94944 0
M  V30 2610 N 246.843 -1.10192 1.12674 0
M  V30 2611 C 247.773 -2.18652 0.819362 0
M  V30 2612 C 248.754 -1.68698 -0.217915 0
M  V30 2613 O 249.939 -1.94041 -0.0785581 0
M  V30 2614 C 247.069 -3.46202 0.27594 0
M  V30 2615 C 246.023 -4.09444 1.24656 0
M  V30 2616 C 245.349 -5.31725 0.563258 0
M  V30 2617 C 246.649 -4.52863 2.60217 0
M  V30 2618 H 248.343 -2.44622 1.72628 0
M  V30 2619 H 245.889 -1.17571 0.831451 0
M  V30 2620 H 247.842 -4.21372 0.0486149 0
M  V30 2621 H 246.566 -3.1973 -0.666331 0
M  V30 2622 H 245.225 -3.36284 1.45974 0
M  V30 2623 H 244.873 -5.0153 -0.384235 0
M  V30 2624 H 244.573 -5.74991 1.21075 0
M  V30 2625 H 246.097 -6.09624 0.34503 0
M  V30 2626 H 247.511 -5.19294 2.42913 0
M  V30 2627 H 245.908 -5.06986 3.21068 0
M  V30 2628 H 246.978 -3.65656 3.18471 0
M  V30 2629 N 248.321 -0.919034 -1.28029 0
M  V30 2630 C 249.269 -0.401753 -2.29104 0
M  V30 2631 C 250.263 0.509354 -1.61561 0
M  V30 2632 O 251.469 0.390014 -1.75724 0
M  V30 2633 H 247.844 -0.111331 -0.743713 0
M  V30 2634 H 249.815 -1.2672 -2.70156 0
M  V30 2635 C 248.564 0.338148 -3.46052 0
M  V30 2636 H 247.887 -0.353732 -3.98232 0
M  V30 2637 H 249.327 0.664653 -4.18758 0
M  V30 2638 C 247.786 1.54798 -2.99231 0
M  V30 2639 O 248.316 2.64696 -3.02157 0
M  V30 2640 N 246.522 1.3968 -2.54829 0
M  V30 2641 H 246.069 0.502698 -2.52647 0
M  V30 2642 H 246.027 2.20755 -2.23863 0
M  V30 2643 N 249.799 1.42003 -0.683588 0
M  V30 2644 C 251.048 2.00638 -0.206681 0
M  V30 2645 C 251.361 1.5472 1.19671 0
M  V30 2646 O 252.567 2.05833 1.77045 0
M  V30 2647 C 251.023 3.58487 -0.318632 0
M  V30 2648 C 250.631 4.1339 -1.72663 0
M  V30 2649 C 252.375 4.24384 0.0991141 0
M  V30 2650 C 250.282 5.63633 -1.79087 0
M  V30 2651 H 249.212 0.750408 -0.0735107 0
M  V30 2652 H 251.863 1.62624 -0.850048 0
M  V30 2653 H 250.245 3.94047 0.392781 0
M  V30 2654 H 251.419 3.89273 -2.46583 0
M  V30 2655 H 249.734 3.59976 -2.09299 0
M  V30 2656 H 252.331 5.34652 0.0713833 0
M  V30 2657 H 252.674 4.00505 1.13586 0
M  V30 2658 H 253.207 3.93816 -0.561599 0
M  V30 2659 H 249.946 5.92323 -2.80774 0
M  V30 2660 H 249.466 5.89714 -1.09535 0
M  V30 2661 H 251.145 6.28201 -1.5483 0
M  V30 2662 N 251.277 0.427512 1.51691 0
M  V30 2663 C 252.502 -0.143601 2.06902 0
M  V30 2664 C 252.927 -1.36536 1.29382 0
M  V30 2665 O 252.285 -1.78289 0.329043 0
M  V30 2666 C 252.333 -0.454207 3.57728 0
M  V30 2667 O 251.437 -1.54228 3.82475 0
M  V30 2668 H 250.778 -0.00617128 0.663971 0
M  V30 2669 H 253.308 0.606014 1.95419 0
M  V30 2670 H 253.318 -0.707525 4.01818 0
M  V30 2671 H 251.993 0.438812 4.13579 0
M  V30 2672 H 250.57 -1.2797 3.50254 0
M  V30 2673 N 252.755 -1.56801 0.158532 0
M  V30 2674 C 253.702 -2.17337 -0.776729 0
M  V30 2675 C 254.672 -1.1096 -1.23601 0
M  V30 2676 O 255.857 -1.39054 -1.30647 0
M  V30 2677 C 252.997 -2.80822 -2.00582 0
M  V30 2678 C 252.11 -4.01624 -1.59129 0
M  V30 2679 C 251.245 -4.53072 -2.77306 0
M  V30 2680 C 250.284 -5.66314 -2.32282 0
M  V30 2681 N 249.421 -6.12329 -3.43508 0
M  V30 2682 H 254.261 -2.96918 -0.253701 0
M  V30 2683 H 251.798 -1.46661 -0.113504 0
M  V30 2684 H 253.756 -3.15779 -2.72652 0
M  V30 2685 H 252.386 -2.03866 -2.50277 0
M  V30 2686 H 251.438 -3.72571 -0.767806 0
M  V30 2687 H 252.75 -4.83633 -1.2207 0
M  V30 2688 H 251.904 -4.90145 -3.57551 0
M  V30 2689 H 250.643 -3.70095 -3.17617 0
M  V30 2690 H 249.648 -5.28806 -1.5048 0
M  V30 2691 H 250.873 -6.51085 -1.93043 0
M  V30 2692 H 248.819 -5.32284 -3.83418 0
M  V30 2693 H 248.736 -6.89293 -3.105 0
M  V30 2694 H 250.004 -6.5405 -4.24075 0
M  V30 2695 N 254.233 0.115231 -1.57178 0
M  V30 2696 C 255.458 0.840354 -1.89612 0
M  V30 2697 C 255.883 1.72464 -0.750845 0
M  V30 2698 O 255.241 1.78826 0.298478 0
M  V30 2699 C 255.289 1.64654 -3.20814 0
M  V30 2700 O 254.393 2.7538 -3.06985 0
M  V30 2701 H 253.734 0.232158 -0.622092 0
M  V30 2702 H 256.264 0.0964977 -2.04372 0
M  V30 2703 H 256.274 2.03499 -3.53627 0
M  V30 2704 H 254.949 0.997416 -4.03763 0
M  V30 2705 H 253.526 2.3971 -2.85646 0
M  V30 2706 N 255.711 1.52812 0.385517 0
M  V30 2707 C 256.957 1.68275 1.13188 0
M  V30 2708 C 257.29 0.423179 1.89533 0
M  V30 2709 O 256.565 -0.579113 1.85679 0
M  V30 2710 C 256.848 2.92001 2.1073 0
M  V30 2711 C 256.701 4.28067 1.38125 0
M  V30 2712 C 258.02 3.11283 3.11113 0
M  V30 2713 H 255.139 0.612352 0.410115 0
M  V30 2714 H 257.781 1.85415 0.414869 0
M  V30 2715 H 255.931 2.77519 2.71874 0
M  V30 2716 H 257.603 4.54324 0.799187 0
M  V30 2717 H 255.846 4.28388 0.683092 0
M  V30 2718 H 256.517 5.10733 2.09417 0
M  V30 2719 H 258.993 3.2482 2.6006 0
M  V30 2720 H 257.869 3.99325 3.76605 0
M  V30 2721 H 258.13 2.25656 3.80173 0
M  V30 2722 N 257.189 -0.644168 1.43834 0
M  V30 2723 C 258.417 -1.43147 1.49387 0
M  V30 2724 C 258.832 -1.88452 0.114583 0
M  V30 2725 O 258.189 -1.60047 -0.876989 0
M  V30 2726 C 258.24 -2.66046 2.44748 0
M  V30 2727 O 257.961 -2.22633 3.77314 0
M  V30 2728 C 259.462 -3.59311 2.59635 0
M  V30 2729 H 256.682 -0.439447 0.507077 0
M  V30 2730 H 259.226 -0.78895 1.88669 0
M  V30 2731 H 257.381 -3.26418 2.08638 0
M  V30 2732 H 257.795 -3.02216 4.28679 0
M  V30 2733 H 259.269 -4.42187 3.30416 0
M  V30 2734 H 259.746 -4.07259 1.64427 0
M  V30 2735 H 260.352 -3.04816 2.96593 0
M  V30 2736 N 258.668 -1.30515 -0.883378 0
M  V30 2737 C 260.084 -1.08881 -1.16692 0
M  V30 2738 C 260.284 0.149409 -2.00945 0
M  V30 2739 O 259.34 0.84257 -2.38027 0
M  V30 2740 C 260.653 -2.35319 -1.87204 0
M  V30 2741 C 262.201 -2.40799 -1.99962 0
M  V30 2742 C 262.676 -3.67083 -2.73887 0
M  V30 2743 N 264.167 -3.679 -2.81432 0
M  V30 2744 C 264.902 -4.62303 -3.3921 0
M  V30 2745 N 264.398 -5.67052 -3.98025 0
M  V30 2746 N 266.191 -4.49845 -3.3704 0
M  V30 2747 H 258.342 -2.09951 -0.321633 0
M  V30 2748 H 260.605 -0.92556 -0.205043 0
M  V30 2749 H 260.311 -3.25689 -1.3274 0
M  V30 2750 H 260.185 -2.44089 -2.87577 0
M  V30 2751 H 262.572 -1.50907 -2.53597 0
M  V30 2752 H 262.653 -2.36003 -0.98673 0
M  V30 2753 H 262.297 -4.57334 -2.20925 0
M  V30 2754 H 262.227 -3.69141 -3.75556 0
M  V30 2755 H 264.718 -2.92171 -2.39676 0
M  V30 2756 H 265.031 -6.35184 -4.40183 0
M  V30 2757 H 263.376 -5.70842 -3.96439 0
M  V30 2758 H 266.567 -3.67194 -2.90321 0
M  V30 2759 H 266.74 -5.23597 -3.81772 0
M  V30 2760 N 260.146 1.09593 -1.13257 0
M  V30 2761 C 261.056 2.19739 -0.821691 0
M  V30 2762 C 262.072 1.72926 0.19302 0
M  V30 2763 O 263.248 2.01385 0.0244895 0
M  V30 2764 C 260.313 3.45482 -0.290333 0
M  V30 2765 C 259.374 4.06985 -1.36607 0
M  V30 2766 C 258.607 5.26726 -0.859975 0
M  V30 2767 O 258.83 5.69594 0.303082 0
M  V30 2768 O 257.764 5.7931 -1.63351 0
M  V30 2769 H 261.59 2.48781 -1.74189 0
M  V30 2770 H 259.175 1.18496 -0.909894 0
M  V30 2771 H 261.057 4.214 0.000674022 0
M  V30 2772 H 259.732 3.18047 0.602306 0
M  V30 2773 H 258.639 3.32712 -1.71037 0
M  V30 2774 H 259.972 4.38643 -2.23279 0
M  V30 2775 N 261.624 0.925811 1.2754 0
M  V30 2776 C 262.901 0.483726 1.89524 0
M  V30 2777 C 263.281 -1.03809 1.83812 0
M  V30 2778 O 262.629 -1.89143 1.28207 0
M  V30 2779 C 262.839 1.02769 3.33526 0
M  V30 2780 C 264.187 1.08703 4.10449 0
M  V30 2781 O 265.211 0.977175 3.42534 0
M  V30 2782 O 264.07 1.25599 5.31871 0
M  V30 2783 H 261.164 0.15529 0.812289 0
M  V30 2784 H 263.71 1.01738 1.35822 0
M  V30 2785 H 262.482 2.07155 3.31967 0
M  V30 2786 H 262.105 0.475567 3.94746 0
M  V30 2787 N 263.102 -1.41638 0.69111 0
M  V30 2788 C 264.065 -2.29178 0.0319786 0
M  V30 2789 C 265.065 -1.44153 -0.712496 0
M  V30 2790 O 266.255 -1.65354 -0.548053 0
M  V30 2791 C 263.387 -3.26952 -0.965161 0
M  V30 2792 H 264.58 -2.88959 0.802681 0
M  V30 2793 H 262.133 -1.4955 0.454356 0
M  V30 2794 H 262.868 -2.72142 -1.76378 0
M  V30 2795 H 262.653 -3.89685 -0.434522 0
M  V30 2796 H 264.143 -3.92561 -1.42428 0
M  V30 2797 N 264.58 -0.43555 -1.51462 0
M  V30 2798 C 265.991 0.0279871 -1.86679 0
M  V30 2799 C 266.342 1.42104 -1.35281 0
M  V30 2800 O 265.467 2.04667 -0.702878 0
M  V30 2801 C 266.062 0.0575626 -3.38751 0
M  V30 2802 C 264.621 0.465507 -3.7351 0
M  V30 2803 C 263.768 -0.342996 -2.75171 0
M  V30 2804 H 266.719 -0.651473 -1.44712 0
M  V30 2805 H 266.74 0.867421 -3.70481 0
M  V30 2806 H 266.252 -0.956448 -3.7613 0
M  V30 2807 H 264.353 1.48519 -3.41721 0
M  V30 2808 H 264.466 0.191546 -4.78717 0
M  V30 2809 H 262.83 0.198442 -2.53926 0
M  V30 2810 H 263.613 -1.35585 -3.15391 0
M  V30 2811 N 266.058 1.56714 -0.166846 0
M  V30 2812 C 267.008 2.14338 0.777382 0
M  V30 2813 C 267.992 1.07642 1.19591 0
M  V30 2814 O 269.184 1.33775 1.15902 0
M  V30 2815 C 266.313 2.78417 2.00846 0
M  V30 2816 C 265.399 3.92264 1.61212 0
M  V30 2817 N 265.79 4.97268 0.925104 0
M  V30 2818 C 264.088 4.03342 1.90346 0
M  V30 2819 C 264.789 5.77093 0.730627 0
M  V30 2820 N 263.765 5.2854 1.27067 0
M  V30 2821 H 267.567 2.9289 0.243466 0
M  V30 2822 H 265.081 1.62364 0.0339954 0
M  V30 2823 H 267.078 3.18073 2.69509 0
M  V30 2824 H 265.738 2.01344 2.54736 0
M  V30 2825 H 266.749 5.14601 0.583646 0
M  V30 2826 H 263.426 3.37368 2.45946 0
M  V30 2827 H 264.816 6.71638 0.187668 0
M  V30 2828 N 267.536 -0.106894 1.57237 0
M  V30 2829 C 268.783 -0.812526 1.85484 0
M  V30 2830 C 269.111 -1.79304 0.753687 0
M  V30 2831 O 268.366 -1.94047 -0.253853 0
M  V30 2832 C 268.665 -1.58628 3.20268 0
M  V30 2833 C 268.331 -0.748967 4.44636 0
M  V30 2834 C 266.993 -0.518104 4.78403 0
M  V30 2835 C 269.345 -0.166122 5.20935 0
M  V30 2836 C 266.673 0.305659 5.85903 0
M  V30 2837 C 269.025 0.644899 6.29304 0
M  V30 2838 C 267.689 0.885965 6.61594 0
M  V30 2839 H 266.959 -0.297324 0.678734 0
M  V30 2840 H 269.606 -0.0744332 1.91355 0
M  V30 2841 H 267.911 -2.39562 3.10028 0
M  V30 2842 H 269.608 -2.13643 3.39349 0
M  V30 2843 H 266.198 -0.939006 4.18187 0
M  V30 2844 H 270.382 -0.33167 4.95191 0
M  V30 2845 H 265.638 0.501528 6.0934 0
M  V30 2846 H 269.812 1.10345 6.87602 0
M  V30 2847 H 267.439 1.52609 7.44725 0
M  V30 2848 N 269.014 -1.53014 -0.377408 0
M  V30 2849 C 269.944 -1.81589 -1.46791 0
M  V30 2850 C 270.925 -0.668622 -1.56408 0
M  V30 2851 O 272.11 -0.917337 -1.71168 0
M  V30 2852 C 269.24 -1.99519 -2.8427 0
M  V30 2853 C 268.194 -3.15249 -2.89486 0
M  V30 2854 C 267.52 -3.18451 -4.29527 0
M  V30 2855 C 268.82 -4.54084 -2.58079 0
M  V30 2856 H 270.514 -2.7291 -1.23127 0
M  V30 2857 H 268.06 -1.31319 -0.590883 0
M  V30 2858 H 270.013 -2.18092 -3.60575 0
M  V30 2859 H 268.737 -1.04897 -3.09296 0
M  V30 2860 H 267.396 -2.96477 -2.15631 0
M  V30 2861 H 267.044 -2.2149 -4.5161 0
M  V30 2862 H 266.744 -3.962 -4.33934 0
M  V30 2863 H 268.268 -3.39193 -5.07721 0
M  V30 2864 H 269.682 -4.72899 -3.24098 0
M  V30 2865 H 268.079 -5.33987 -2.7382 0
M  V30 2866 H 269.149 -4.60006 -1.53372 0
M  V30 2867 N 270.492 0.636531 -1.44174 0
M  V30 2868 C 271.439 1.74875 -1.50624 0
M  V30 2869 C 272.409 1.62275 -0.35442 0
M  V30 2870 O 273.594 1.82276 -0.563908 0
M  V30 2871 C 270.734 3.13102 -1.45125 0
M  V30 2872 C 269.847 3.36717 -2.7064 0
M  V30 2873 C 268.982 4.64885 -2.57013 0
M  V30 2874 C 268.021 4.8166 -3.77717 0
M  V30 2875 N 267.158 6.01101 -3.62798 0
M  V30 2876 H 271.998 1.68697 -2.45653 0
M  V30 2877 H 269.535 0.823004 -1.21922 0
M  V30 2878 H 271.493 3.93034 -1.39929 0
M  V30 2879 H 270.123 3.18308 -0.536671 0
M  V30 2880 H 269.175 2.50763 -2.86046 0
M  V30 2881 H 270.487 3.44993 -3.60252 0
M  V30 2882 H 269.641 5.52969 -2.49619 0
M  V30 2883 H 268.38 4.58957 -1.64953 0
M  V30 2884 H 267.385 3.92007 -3.85501 0
M  V30 2885 H 268.61 4.89406 -4.70807 0
M  V30 2886 H 266.556 5.96273 -2.73486 0
M  V30 2887 H 266.473 6.10409 -4.46023 0
M  V30 2888 H 267.741 6.91761 -3.59286 0
M  V30 2889 N 271.97 1.30982 0.876444 0
M  V30 2890 C 272.88 1.2003 2.01569 0
M  V30 2891 C 273.896 0.11838 1.73597 0
M  V30 2892 O 275.072 0.33495 1.98595 0
M  V30 2893 C 272.137 0.901637 3.34771 0
M  V30 2894 C 271.198 2.06979 3.76109 0
M  V30 2895 C 270.431 1.78529 5.02954 0
M  V30 2896 O 270.654 0.717296 5.65872 0
M  V30 2897 O 269.588 2.64019 5.40905 0
M  V30 2898 H 273.414 2.15753 2.13739 0
M  V30 2899 H 270.999 1.10658 1.00375 0
M  V30 2900 H 272.881 0.750645 4.1466 0
M  V30 2901 H 271.556 -0.0256141 3.2369 0
M  V30 2902 H 270.463 2.27616 2.96887 0
M  V30 2903 H 271.796 2.97907 3.91807 0
M  V30 2904 N 273.449 -1.08991 1.13837 0
M  V30 2905 C 274.381 -2.15606 0.777612 0
M  V30 2906 C 275.394 -1.61533 -0.202739 0
M  V30 2907 O 276.583 -1.78491 0.0181055 0
M  V30 2908 C 273.683 -3.3864 0.132623 0
M  V30 2909 C 272.856 -4.22115 1.1462 0
M  V30 2910 C 271.915 -5.23564 0.526074 0
M  V30 2911 O 270.941 -5.56678 1.18735 0
M  V30 2912 N 272.143 -5.76266 -0.699866 0
M  V30 2913 H 274.908 -2.47159 1.69506 0
M  V30 2914 H 272.469 -1.24747 1.03198 0
M  V30 2915 H 274.461 -4.03626 -0.29459 0
M  V30 2916 H 273.031 -3.04938 -0.687849 0
M  V30 2917 H 272.251 -3.53199 1.75055 0
M  V30 2918 H 273.539 -4.74709 1.83109 0
M  V30 2919 H 272.937 -5.51585 -1.25581 0
M  V30 2920 H 271.494 -6.42963 -1.06968 0
M  V30 2921 N 274.927 -0.932562 -1.27047 0
M  V30 2922 C 275.859 -0.392734 -2.2581 0
M  V30 2923 C 276.872 0.479241 -1.55586 0
M  V30 2924 O 278.061 0.291078 -1.76111 0
M  V30 2925 C 275.161 0.455456 -3.35826 0
M  V30 2926 C 274.334 -0.398355 -4.35582 0
M  V30 2927 C 273.393 0.387985 -5.24768 0
M  V30 2928 O 272.419 -0.206003 -5.68827 0
M  V30 2929 N 273.621 1.68664 -5.55457 0
M  V30 2930 H 276.386 -1.24173 -2.72766 0
M  V30 2931 H 273.947 -0.800511 -1.40725 0
M  V30 2932 H 275.939 0.988692 -3.92437 0
M  V30 2933 H 274.509 1.20522 -2.88432 0
M  V30 2934 H 273.729 -1.11286 -3.78165 0
M  V30 2935 H 275.017 -0.981889 -4.99236 0
M  V30 2936 H 274.415 2.19147 -5.21528 0
M  V30 2937 H 272.972 2.1663 -6.14748 0
M  V30 2938 N 276.405 1.4127 -0.698611 0
M  V30 2939 C 277.821 1.55241 -0.370462 0
M  V30 2940 C 278.021 1.67351 1.12231 0
M  V30 2941 O 277.077 1.65363 1.90818 0
M  V30 2942 C 278.39 2.78997 -1.12165 0
M  V30 2943 C 279.938 2.92797 -1.1063 0
M  V30 2944 C 280.413 4.19445 -1.8393 0
M  V30 2945 N 281.904 4.26409 -1.80914 0
M  V30 2946 C 282.639 5.23271 -2.34467 0
M  V30 2947 N 282.135 6.26145 -2.96504 0
M  V30 2948 N 283.928 5.15232 -2.24706 0
M  V30 2949 H 276.079 1.31654 -1.66676 0
M  V30 2950 H 278.342 0.635393 -0.703548 0
M  V30 2951 H 278.048 2.76268 -2.17644 0
M  V30 2952 H 277.922 3.70606 -0.702209 0
M  V30 2953 H 280.309 2.95039 -0.0597713 0
M  V30 2954 H 280.39 2.02353 -1.56483 0
M  V30 2955 H 280.034 4.17964 -2.88563 0
M  V30 2956 H 279.964 5.08866 -1.35509 0
M  V30 2957 H 282.455 3.527 -1.35687 0
M  V30 2958 H 282.768 6.96451 -3.34927 0
M  V30 2959 H 281.113 6.26638 -3.00583 0
M  V30 2960 H 284.304 4.33789 -1.7591 0
M  V30 2961 H 284.477 5.90552 -2.66745 0
M  V30 2962 N 277.883 0.443576 1.51229 0
M  V30 2963 C 278.83 -0.364716 2.279 0
M  V30 2964 C 279.8 -1.0114 1.31757 0
M  V30 2965 O 280.985 -1.02912 1.60667 0
M  V30 2966 C 278.125 -1.45644 3.12861 0
M  V30 2967 C 277.238 -0.827269 4.24005 0
M  V30 2968 C 276.373 -1.89456 4.96266 0
M  V30 2969 C 275.412 -1.24416 5.99322 0
M  V30 2970 N 274.549 -2.25309 6.64966 0
M  V30 2971 H 279.389 0.295464 2.96532 0
M  V30 2972 H 276.926 0.157554 1.46254 0
M  V30 2973 H 278.884 -2.10076 3.6045 0
M  V30 2974 H 277.514 -2.08616 2.46331 0
M  V30 2975 H 276.566 -0.0710839 3.80334 0
M  V30 2976 H 277.878 -0.312481 4.9782 0
M  V30 2977 H 277.032 -2.61535 5.47434 0
M  V30 2978 H 275.771 -2.4431 4.22095 0
M  V30 2979 H 274.776 -0.508868 5.4744 0
M  V30 2980 H 276.001 -0.702882 6.75453 0
M  V30 2981 H 273.947 -2.79231 5.93604 0
M  V30 2982 H 273.864 -1.78739 7.34567 0
M  V30 2983 H 275.132 -2.96853 7.20763 0
M  V30 2984 N 279.361 -1.56624 0.175154 0
M  V30 2985 C 280.586 -2.01813 -0.478137 0
M  V30 2986 C 281.011 -1.05457 -1.55757 0
M  V30 2987 O 280.369 -0.0347439 -1.81267 0
M  V30 2988 C 280.417 -3.45581 -1.02987 0
M  V30 2989 O 279.521 -3.52305 -2.14371 0
M  V30 2990 H 278.862 -0.65413 -0.114059 0
M  V30 2991 H 281.392 -2.02673 0.280173 0
M  V30 2992 H 281.402 -3.84965 -1.35151 0
M  V30 2993 H 280.077 -4.1521 -0.239556 0
M  V30 2994 H 278.654 -3.24783 -1.83222 0
M  V30 2995 N 280.839 0.0985539 -1.57292 0
M  V30 2996 C 281.749 1.13824 -2.05137 0
M  V30 2997 C 282.765 1.44076 -0.975604 0
M  V30 2998 O 283.941 1.54786 -1.28853 0
M  V30 2999 C 281.006 2.43969 -2.46333 0
M  V30 3000 C 280.067 2.2093 -3.68087 0
M  V30 3001 C 279.3 3.44869 -4.0731 0
M  V30 3002 O 279.523 4.52972 -3.46659 0
M  V30 3003 O 278.457 3.34661 -5.00285 0
M  V30 3004 H 282.283 0.761881 -2.93988 0
M  V30 3005 H 279.868 0.310818 -1.46131 0
M  V30 3006 H 281.75 3.20609 -2.73473 0
M  V30 3007 H 280.425 2.81038 -1.60621 0
M  V30 3008 H 279.332 1.42081 -3.46069 0
M  V30 3009 H 280.665 1.88755 -4.54568 0
M  V30 3010 N 282.317 1.53212 0.369288 0
M  V30 3011 C 283.227 1.82342 1.47609 0
M  V30 3012 C 284.243 0.711532 1.58787 0
M  V30 3013 O 285.419 1.0012 1.74751 0
M  V30 3014 C 282.484 2.00393 2.8292 0
M  V30 3015 C 281.545 3.24297 2.81301 0
M  V30 3016 C 280.778 3.41478 4.10157 0
M  V30 3017 O 281.001 2.63033 5.06132 0
M  V30 3018 O 279.935 4.34817 4.16194 0
M  V30 3019 H 283.761 2.76366 1.25918 0
M  V30 3020 H 281.346 1.38547 0.559034 0
M  V30 3021 H 283.228 2.13859 3.63101 0
M  V30 3022 H 281.903 1.09559 3.04596 0
M  V30 3023 H 280.81 3.16257 1.99831 0
M  V30 3024 H 282.143 4.15041 2.64578 0
M  V30 3025 N 283.795 -0.628877 1.44509 0
M  V30 3026 C 285.042 -1.38839 1.47411 0
M  V30 3027 C 285.37 -1.94202 0.10757 0
M  V30 3028 O 284.625 -1.74243 -0.890947 0
M  V30 3029 C 284.924 -2.56995 2.48371 0
M  V30 3030 C 284.59 -2.19908 3.93639 0
M  V30 3031 C 283.252 -2.09506 4.33198 0
M  V30 3032 C 285.604 -1.9064 4.85083 0
M  V30 3033 C 282.932 -1.68028 5.62124 0
M  V30 3034 C 285.284 -1.50655 6.14399 0
M  V30 3035 C 283.948 -1.38796 6.5291 0
M  V30 3036 H 283.218 -0.508048 0.539414 0
M  V30 3037 H 285.865 -0.712913 1.77735 0
M  V30 3038 H 284.17 -3.29786 2.11538 0
M  V30 3039 H 285.867 -3.15223 2.47861 0
M  V30 3040 H 282.457 -2.28922 3.62343 0
M  V30 3041 H 286.641 -1.97585 4.55273 0
M  V30 3042 H 281.897 -1.57452 5.90778 0
M  V30 3043 H 286.071 -1.27048 6.84713 0
M  V30 3044 H 283.698 -1.06429 7.52713 0
M  V30 3045 N 285.273 -1.31445 -0.869486 0
M  V30 3046 C 286.498 -1.24256 -1.66058 0
M  V30 3047 C 286.923 0.188928 -1.87149 0
M  V30 3048 O 286.281 1.13522 -1.4136 0
M  V30 3049 C 286.329 -1.9924 -3.00559 0
M  V30 3050 O 285.433 -1.33007 -3.90362 0
M  V30 3051 H 284.774 -0.428973 -0.506831 0
M  V30 3052 H 287.304 -1.73521 -1.08404 0
M  V30 3053 H 287.314 -2.08854 -3.50491 0
M  V30 3054 H 285.989 -3.03342 -2.84528 0
M  V30 3055 H 284.566 -1.31848 -3.48813 0
M  V30 3056 N 286.751 1.08385 -1.14413 0
M  V30 3057 C 287.979 1.84517 -0.936001 0
M  V30 3058 C 288.394 1.81626 0.515503 0
M  V30 3059 O 287.751 1.22008 1.35721 0
M  V30 3060 C 287.802 3.32049 -1.42918 0
M  V30 3061 O 287.523 3.34951 -2.82381 0
M  V30 3062 C 289.024 4.24986 -1.26103 0
M  V30 3063 H 286.244 0.582491 -0.333084 0
M  V30 3064 H 288.788 1.36885 -1.5193 0
M  V30 3065 H 286.943 3.7707 -0.888641 0
M  V30 3066 H 287.357 4.27048 -3.04517 0
M  V30 3067 H 288.831 5.26615 -1.6547 0
M  V30 3068 H 289.308 4.38726 -0.20392 0
M  V30 3069 H 289.914 3.85791 -1.79012 0
M  V30 3070 N 288.23 0.939286 1.26551 0
M  V30 3071 C 289.455 0.602008 1.98471 0
M  V30 3072 C 289.88 -0.815624 1.69497 0
M  V30 3073 O 289.238 -1.54912 0.941905 0
M  V30 3074 C 289.286 0.848407 3.50477 0
M  V30 3075 O 288.39 -0.0804009 4.12322 0
M  V30 3076 H 287.731 0.23049 0.622712 0
M  V30 3077 H 290.261 1.2617 1.61066 0
M  V30 3078 H 290.271 0.768553 4.00696 0
M  V30 3079 H 288.946 1.88171 3.70897 0
M  V30 3080 H 287.523 0.0503508 3.72866 0
M  V30 3081 N 289.708 -1.40897 0.706093 0
M  V30 3082 C 290.658 -2.27987 0.0240746 0
M  V30 3083 C 291.642 -1.42759 -0.742204 0
M  V30 3084 O 292.834 -1.65936 -0.615966 0
M  V30 3085 C 289.963 -3.31186 -0.903907 0
M  V30 3086 C 289.049 -4.2389 -0.133318 0
M  V30 3087 N 289.44 -4.98113 0.878444 0
M  V30 3088 C 287.738 -4.44485 -0.367269 0
M  V30 3089 C 288.439 -5.6604 1.34064 0
M  V30 3090 N 287.415 -5.39522 0.664565 0
M  V30 3091 H 291.217 -2.82812 0.799658 0
M  V30 3092 H 288.731 -1.53235 0.537845 0
M  V30 3093 H 290.728 -3.92413 -1.40775 0
M  V30 3094 H 289.388 -2.77922 -1.67897 0
M  V30 3095 H 290.399 -5.02364 1.25901 0
M  V30 3096 H 287.076 -4.02213 -1.1194 0
M  V30 3097 H 288.466 -6.35524 2.1808 0
M  V30 3098 N 291.186 -0.45159 -1.50991 0
M  V30 3099 C 292.119 0.398179 -2.24699 0
M  V30 3100 C 293.097 1.01276 -1.27208 0
M  V30 3101 O 294.281 1.05247 -1.56382 0
M  V30 3102 C 291.408 1.55618 -3.00833 0
M  V30 3103 C 290.454 1.0609 -4.13095 0
M  V30 3104 S 291.287 -0.00865136 -5.35499 0
M  V30 3105 C 292.443 1.15369 -6.15175 0
M  V30 3106 H 292.676 -0.227555 -2.96428 0
M  V30 3107 H 290.209 -0.236251 -1.52582 0
M  V30 3108 H 292.167 2.21997 -3.45293 0
M  V30 3109 H 290.828 2.15337 -2.28667 0
M  V30 3110 H 290.021 1.92726 -4.65696 0
M  V30 3111 H 289.623 0.47513 -3.7097 0
M  V30 3112 H 291.915 2.06925 -6.45126 0
M  V30 3113 H 292.858 0.667344 -7.04948 0
M  V30 3114 H 293.266 1.3987 -5.46897 0
M  V30 3115 N 292.664 1.56529 -0.183458 0
M  V30 3116 C 293.611 2.18546 0.742055 0
M  V30 3117 C 294.581 1.12912 1.2182 0
M  V30 3118 O 295.766 1.41115 1.28418 0
M  V30 3119 C 292.906 2.83977 1.96089 0
M  V30 3120 C 292.019 4.04105 1.52719 0
M  V30 3121 C 291.154 4.57427 2.70063 0
M  V30 3122 C 290.193 5.69938 2.23243 0
M  V30 3123 N 289.33 6.17717 3.33722 0
M  V30 3124 H 294.17 2.97284 0.206432 0
M  V30 3125 H 291.707 1.46823 0.0901571 0
M  V30 3126 H 293.665 3.20077 2.67594 0
M  V30 3127 H 292.295 2.07822 2.47002 0
M  V30 3128 H 291.347 3.73745 0.708436 0
M  V30 3129 H 292.659 4.85513 1.1436 0
M  V30 3130 H 291.813 4.95772 3.49708 0
M  V30 3131 H 290.552 3.75101 3.11689 0
M  V30 3132 H 289.557 5.31133 1.42048 0
M  V30 3133 H 290.782 6.54073 1.82661 0
M  V30 3134 H 288.728 5.38317 3.74902 0
M  V30 3135 H 288.645 6.94146 2.99495 0
M  V30 3136 H 289.913 6.60713 4.13616 0
M  V30 3137 N 294.142 -0.090211 1.57342 0
M  V30 3138 C 295.372 -0.805055 1.90269 0
M  V30 3139 C 295.78 -1.72561 0.775842 0
M  V30 3140 O 295.123 -1.81839 -0.260843 0
M  V30 3141 C 295.185 -1.66734 3.18497 0
M  V30 3142 C 294.849 -0.918092 4.47683 0
M  V30 3143 C 295.846 -0.245674 5.19319 0
M  V30 3144 C 293.531 -0.890724 4.94339 0
M  V30 3145 C 295.525 0.444088 6.35851 0
M  V30 3146 C 293.212 -0.197179 6.10782 0
M  V30 3147 C 294.21 0.469044 6.81388 0
M  V30 3148 O 293.898 1.15146 7.95611 0
M  V30 3149 H 293.63 -0.235143 0.633785 0
M  V30 3150 H 296.184 -0.0703805 2.05279 0
M  V30 3151 H 294.414 -2.44437 2.99646 0
M  V30 3152 H 296.103 -2.25919 3.37217 0
M  V30 3153 H 296.869 -0.258246 4.84312 0
M  V30 3154 H 292.748 -1.39873 4.39268 0
M  V30 3155 H 296.292 0.964667 6.90898 0
M  V30 3156 H 292.189 -0.18247 6.45242 0
M  V30 3157 H 292.957 1.05885 8.11622 0
M  V30 3158 N 295.62 -1.53406 -0.361157 0
M  V30 3159 C 296.845 -1.74024 -1.12829 0
M  V30 3160 C 297.27 -0.470069 -1.82132 0
M  V30 3161 O 296.628 0.57619 -1.719 0
M  V30 3162 C 296.676 -2.90903 -2.13091 0
M  V30 3163 O 295.78 -2.59821 -3.20261 0
M  V30 3164 H 295.121 -0.577804 -0.327168 0
M  V30 3165 H 297.651 -2.00307 -0.41693 0
M  V30 3166 H 297.661 -3.17194 -2.56616 0
M  V30 3167 H 296.336 -3.83034 -1.62042 0
M  V30 3168 H 294.913 -2.44362 -2.81677 0
M  V30 3169 N 297.098 0.621204 -1.44841 0
M  V30 3170 C 298.346 1.37783 -1.47852 0
M  V30 3171 C 298.667 1.94653 -0.116224 0
M  V30 3172 O 297.937 1.76367 0.852737 0
M  V30 3173 H 296.517 0.511453 -0.544449 0
M  V30 3174 H 299.179 0.730446 -1.80694 0
M  V30 3175 H 298.275 2.20414 -2.20961 0
M  V30 3176 N 298.576 1.31904 0.862503 0
M  V30 3177 C 299.992 1.10724 1.14945 0
M  V30 3178 C 300.192 -0.117421 2.01158 0
M  V30 3179 O 299.248 -0.804595 2.39338 0
M  V30 3180 C 300.561 2.38267 1.83437 0
M  V30 3181 C 302.109 2.43949 1.96106 0
M  V30 3182 C 302.584 3.71394 2.68013 0
M  V30 3183 N 304.075 3.72331 2.75543 0
M  V30 3184 C 304.81 4.67641 3.31812 0
M  V30 3185 N 304.306 5.73313 3.88953 0
M  V30 3186 N 306.099 4.5515 3.29841 0
M  V30 3187 H 298.25 2.10436 0.288191 0
M  V30 3188 H 300.513 0.928705 0.190292 0
M  V30 3189 H 300.219 3.27759 1.27542 0
M  V30 3190 H 300.093 2.48633 2.83657 0
M  V30 3191 H 302.48 1.54922 2.51164 0
M  V30 3192 H 302.561 2.37543 0.949059 0
M  V30 3193 H 302.205 4.60791 2.13621 0
M  V30 3194 H 302.135 3.75069 3.69636 0
M  V30 3195 H 304.626 2.95947 2.34997 0
M  V30 3196 H 304.939 6.42107 4.30022 0
M  V30 3197 H 303.284 5.77077 3.87308 0
M  V30 3198 H 306.475 3.71766 2.84443 0
M  V30 3199 H 306.648 5.29604 3.73394 0
M  V30 3200 N 300.054 -1.07777 1.14986 0
M  V30 3201 C 301.279 -1.84558 0.946213 0
M  V30 3202 C 301.704 -1.81323 -0.500362 0
M  V30 3203 O 301.062 -1.20301 -1.35637 0
M  V30 3204 C 301.11 -3.29736 1.45968 0
M  V30 3205 O 300.214 -4.07149 0.65601 0
M  V30 3206 H 299.555 -0.571641 0.33782 0
M  V30 3207 H 302.085 -1.35991 1.52865 0
M  V30 3208 H 302.095 -3.80574 1.47063 0
M  V30 3209 H 300.77 -3.31406 2.51283 0
M  V30 3210 H 299.347 -3.65994 0.714322 0
M  V30 3211 N 301.532 -0.945985 -1.26051 0
M  V30 3212 C 302.781 -0.591836 -1.92822 0
M  V30 3213 C 303.094 0.873956 -1.7499 0
M  V30 3214 O 304.3 1.33769 -2.36259 0
M  V30 3215 C 302.756 -1.00776 -3.45503 0
M  V30 3216 C 302.364 -2.4955 -3.7206 0
M  V30 3217 C 304.108 -0.725735 -4.1825 0
M  V30 3218 C 302.015 -2.84988 -5.18205 0
M  V30 3219 H 300.945 -0.217635 -0.721908 0
M  V30 3220 H 303.596 -1.14927 -1.43052 0
M  V30 3221 H 301.978 -0.378812 -3.94184 0
M  V30 3222 H 303.152 -3.1739 -3.34066 0
M  V30 3223 H 301.467 -2.75133 -3.12555 0
M  V30 3224 H 304.064 -0.966771 -5.25887 0
M  V30 3225 H 304.407 0.337639 -4.14929 0
M  V30 3226 H 304.94 -1.31463 -3.7545 0
M  V30 3227 H 301.679 -3.90307 -5.26631 0
M  V30 3228 H 301.199 -2.21813 -5.57278 0
M  V30 3229 H 302.878 -2.73712 -5.86252 0
M  V30 3230 N 303.011 1.40521 -0.713556 0
M  V30 3231 C 303.958 2.30723 -0.059684 0
M  V30 3232 C 304.928 1.48079 0.752448 0
M  V30 3233 O 306.113 1.76823 0.71681 0
M  V30 3234 C 303.253 3.34274 0.857594 0
M  V30 3235 C 302.366 4.31986 0.0351536 0
M  V30 3236 C 301.501 5.22605 0.951724 0
M  V30 3237 C 300.54 6.11976 0.123253 0
M  V30 3238 N 299.677 6.9502 0.99459 0
M  V30 3239 H 304.517 2.86074 -0.834596 0
M  V30 3240 H 302.054 1.40879 -0.42326 0
M  V30 3241 H 304.012 3.92879 1.40364 0
M  V30 3242 H 302.642 2.8043 1.59871 0
M  V30 3243 H 301.694 3.7518 -0.628052 0
M  V30 3244 H 303.006 4.95101 -0.606347 0
M  V30 3245 H 302.16 5.86131 1.56638 0
M  V30 3246 H 300.899 4.59759 1.62705 0
M  V30 3247 H 299.904 5.47482 -0.50435 0
M  V30 3248 H 301.129 6.76881 -0.548539 0
M  V30 3249 H 299.075 6.34764 1.6556 0
M  V30 3250 H 298.992 7.54892 0.40908 0
M  V30 3251 H 300.26 7.62997 1.59549 0
M  V30 3252 N 304.489 0.459591 1.5075 0
M  V30 3253 C 305.736 -0.0993495 2.02256 0
M  V30 3254 C 306.064 -1.40751 1.34237 0
M  V30 3255 O 305.319 -1.90379 0.453228 0
M  V30 3256 C 305.618 -0.342866 3.55752 0
M  V30 3257 C 305.284 0.88218 4.42186 0
M  V30 3258 C 303.946 1.21808 4.65528 0
M  V30 3259 C 306.298 1.69837 4.92752 0
M  V30 3260 C 303.626 2.37045 5.36681 0
M  V30 3261 C 305.978 2.84192 5.65171 0
M  V30 3262 C 304.642 3.1821 5.8677 0
M  V30 3263 H 303.912 -0.0363545 0.740108 0
M  V30 3264 H 306.559 0.611329 1.8148 0
M  V30 3265 H 304.864 -1.13567 3.7498 0
M  V30 3266 H 306.561 -0.789121 3.93159 0
M  V30 3267 H 303.151 0.610467 4.2423 0
M  V30 3268 H 307.335 1.45205 4.74583 0
M  V30 3269 H 302.591 2.63689 5.51614 0
M  V30 3270 H 306.765 3.4779 6.03337 0
M  V30 3271 H 304.392 4.07613 6.41682 0
M  V30 3272 N 305.967 -1.56429 0.191757 0
M  V30 3273 C 306.897 -2.21937 -0.725696 0
M  V30 3274 C 307.878 -1.1814 -1.2238 0
M  V30 3275 O 309.063 -1.46636 -1.27325 0
M  V30 3276 C 306.193 -2.87611 -1.94672 0
M  V30 3277 C 305.147 -3.97623 -1.58366 0
M  V30 3278 C 304.473 -4.50446 -2.88102 0
M  V30 3279 C 305.773 -5.16197 -0.796133 0
M  V30 3280 H 307.467 -2.98861 -0.179606 0
M  V30 3281 H 305.013 -1.43749 -0.0849464 0
M  V30 3282 H 306.966 -3.3212 -2.59373 0
M  V30 3283 H 305.69 -2.08087 -2.51728 0
M  V30 3284 H 304.349 -3.53801 -0.960247 0
M  V30 3285 H 303.997 -3.67688 -3.43241 0
M  V30 3286 H 303.697 -5.24675 -2.64556 0
M  V30 3287 H 305.221 -4.97654 -3.53798 0
M  V30 3288 H 306.635 -5.57271 -1.34618 0
M  V30 3289 H 305.032 -5.96471 -0.658928 0
M  V30 3290 H 306.102 -4.84473 0.203478 0
M  V30 3291 N 307.445 0.0818655 -1.57387 0
M  V30 3292 C 308.375 1.09885 -2.06028 0
M  V30 3293 C 309.356 1.4098 -0.951774 0
M  V30 3294 O 310.541 1.50781 -1.22387 0
M  V30 3295 C 307.671 2.4151 -2.4958 0
M  V30 3296 C 306.625 2.24792 -3.64215 0
M  V30 3297 C 305.951 3.61712 -3.93787 0
M  V30 3298 C 307.251 1.67749 -4.94629 0
M  V30 3299 H 308.945 0.694128 -2.91243 0
M  V30 3300 H 306.491 0.332448 -1.4011 0
M  V30 3301 H 308.444 3.12939 -2.82219 0
M  V30 3302 H 307.168 2.83943 -1.61381 0
M  V30 3303 H 305.827 1.55807 -3.31843 0
M  V30 3304 H 305.475 4.01697 -3.02735 0
M  V30 3305 H 305.175 3.51368 -4.70971 0
M  V30 3306 H 306.699 4.34587 -4.28913 0
M  V30 3307 H 308.113 2.29032 -5.25564 0
M  V30 3308 H 306.51 1.68128 -5.76067 0
M  V30 3309 H 307.58 0.638059 -4.80684 0
M  V30 3310 N 308.923 1.53595 0.353017 0
M  V30 3311 C 310.334 1.61937 0.929153 0
M  V30 3312 C 310.685 0.494686 1.89861 0
M  V30 3313 O 309.81 -0.377017 2.1309 0
M  V30 3314 C 310.405 2.93526 1.69199 0
M  V30 3315 C 308.964 3.04161 2.21727 0
M  V30 3316 C 308.111 2.57322 1.03348 0
M  V30 3317 H 311.062 1.58155 0.131431 0
M  V30 3318 H 311.083 2.82034 2.55416 0
M  V30 3319 H 310.595 3.75362 0.986144 0
M  V30 3320 H 308.696 2.26938 2.95516 0
M  V30 3321 H 308.809 4.09465 2.48748 0
M  V30 3322 H 307.173 2.12499 1.40414 0
M  V30 3323 H 307.956 3.41588 0.342428 0
M  V30 3324 N 310.401 -0.613514 1.45168 0
M  V30 3325 C 311.812 -1.19539 1.43413 0
M  V30 3326 C 312.163 -1.95558 0.158632 0
M  V30 3327 O 311.288 -2.0335 -0.740119 0
M  V30 3328 C 311.883 -2.17445 2.59813 0
M  V30 3329 C 310.442 -2.71022 2.61197 0
M  V30 3330 C 309.589 -1.46323 2.35552 0
M  V30 3331 H 312.54 -0.403163 1.53494 0
M  V30 3332 H 312.561 -3.00373 2.33574 0
M  V30 3333 H 312.073 -1.62089 3.52631 0
M  V30 3334 H 310.174 -3.30332 1.7237 0
M  V30 3335 H 310.287 -3.15859 3.60236 0
M  V30 3336 H 308.651 -1.75072 1.84992 0
M  V30 3337 H 309.434 -0.92844 3.30507 0
M  V30 3338 N 311.879 -1.3236 -0.855495 0
M  V30 3339 C 312.809 -1.23833 -1.97958 0
M  V30 3340 C 313.79 -0.122361 -1.69659 0
M  V30 3341 O 314.975 -0.30939 -1.9172 0
M  V30 3342 C 312.105 -0.959772 -3.33775 0
M  V30 3343 C 311.059 -2.03689 -3.76424 0
M  V30 3344 C 310.385 -1.61075 -5.09862 0
M  V30 3345 C 311.685 -3.4518 -3.9198 0
M  V30 3346 H 313.379 -2.1788 -2.0535 0
M  V30 3347 H 310.925 -1.04891 -0.986605 0
M  V30 3348 H 312.878 -0.886678 -4.11966 0
M  V30 3349 H 311.602 0.0163404 -3.26596 0
M  V30 3350 H 310.261 -2.10012 -3.00484 0
M  V30 3351 H 309.909 -0.622107 -4.99138 0
M  V30 3352 H 309.609 -2.33143 -5.39368 0
M  V30 3353 H 311.133 -1.55201 -5.90546 0
M  V30 3354 H 312.547 -3.4145 -4.60526 0
M  V30 3355 H 310.944 -4.1559 -4.32903 0
M  V30 3356 H 312.014 -3.84903 -2.94919 0
M  V30 3357 N 313.357 1.07166 -1.15556 0
M  V30 3358 C 314.582 1.84053 -0.955988 0
M  V30 3359 C 315.007 1.81586 0.490739 0
M  V30 3360 O 314.365 1.21018 1.34997 0
M  V30 3361 C 314.413 3.28957 -1.47714 0
M  V30 3362 O 313.517 4.06795 -0.677593 0
M  V30 3363 H 312.858 0.569842 -0.340847 0
M  V30 3364 H 315.388 1.35178 -1.53584 0
M  V30 3365 H 315.398 3.79788 -1.4908 0
M  V30 3366 H 314.073 3.30068 -2.53037 0
M  V30 3367 H 312.65 3.6561 -0.733721 0
M  V30 3368 N 314.835 0.952656 1.25548 0
M  V30 3369 C 315.765 0.489287 2.28316 0
M  V30 3370 C 316.746 -0.463359 1.63667 0
M  V30 3371 O 317.931 -0.36274 1.90782 0
M  V30 3372 C 315.061 -0.235603 3.465 0
M  V30 3373 C 314.015 0.631593 4.23314 0
M  V30 3374 C 313.341 -0.223923 5.34231 0
M  V30 3375 C 314.641 1.90871 4.86174 0
M  V30 3376 H 316.335 1.34822 2.67326 0
M  V30 3377 H 313.881 0.649728 1.28509 0
M  V30 3378 H 315.834 -0.570882 4.17515 0
M  V30 3379 H 314.558 -1.12877 3.06474 0
M  V30 3380 H 313.217 0.949929 3.54079 0
M  V30 3381 H 312.865 -1.11678 4.90446 0
M  V30 3382 H 312.565 0.35299 5.86539 0
M  V30 3383 H 314.089 -0.554214 6.0808 0
M  V30 3384 H 315.503 1.63997 5.49343 0
M  V30 3385 H 313.9 2.43112 5.4865 0
M  V30 3386 H 314.97 2.61304 4.08471 0
M  V30 3387 N 316.313 -1.40141 0.720998 0
M  V30 3388 C 317.243 -2.33339 0.0867621 0
M  V30 3389 C 318.224 -1.53178 -0.739622 0
M  V30 3390 O 319.409 -1.81625 -0.687449 0
M  V30 3391 C 316.539 -3.37194 -0.831728 0
M  V30 3392 C 315.493 -4.27857 -0.110558 0
M  V30 3393 C 314.819 -5.22294 -1.14513 0
M  V30 3394 C 316.119 -5.11872 1.0385 0
M  V30 3395 H 317.813 -2.86626 0.865219 0
M  V30 3396 H 315.359 -1.37814 0.417516 0
M  V30 3397 H 317.312 -4.01335 -1.28485 0
M  V30 3398 H 316.036 -2.82314 -1.64214 0
M  V30 3399 H 314.695 -3.65176 0.322797 0
M  V30 3400 H 314.343 -4.63717 -1.94874 0
M  V30 3401 H 314.043 -5.83797 -0.667446 0
M  V30 3402 H 315.567 -5.89312 -1.59824 0
M  V30 3403 H 316.981 -5.69436 0.664482 0
M  V30 3404 H 315.378 -5.82445 1.4449 0
M  V30 3405 H 316.448 -4.4753 1.86668 0
M  V30 3406 N 317.792 -0.46758 -1.50504 0
M  V30 3407 C 319.203 -0.0116166 -1.86696 0
M  V30 3408 C 319.554 1.39202 -1.38265 0
M  V30 3409 O 318.679 2.0313 -0.746132 0
M  V30 3410 C 319.274 -0.0143044 -3.38797 0
M  V30 3411 C 317.833 0.386175 -3.74414 0
M  V30 3412 C 316.98 -0.401287 -2.74381 0
M  V30 3413 H 319.931 -0.682022 -1.43297 0
M  V30 3414 H 319.952 0.788641 -3.72237 0
M  V30 3415 H 319.464 -1.03602 -3.74016 0
M  V30 3416 H 317.565 1.41237 -3.44794 0
M  V30 3417 H 317.678 0.0899596 -4.79016 0
M  V30 3418 H 316.042 0.144536 -2.5429 0
M  V30 3419 H 316.825 -1.42244 -3.12444 0
M  V30 3420 N 319.27 1.56325 -0.20005 0
M  V30 3421 C 320.498 2.02105 0.442874 0
M  V30 3422 C 320.913 1.08014 1.5485 0
M  V30 3423 O 320.27 0.0858797 1.82298 0
M  V30 3424 C 320.321 3.47549 0.994583 0
M  V30 3425 O 320.042 4.38049 -0.0669322 0
M  V30 3426 C 321.543 4.0887 1.7129 0
M  V30 3427 H 318.763 0.661807 0.110691 0
M  V30 3428 H 321.307 2.02134 -0.310207 0
M  V30 3429 H 319.462 3.48204 1.69803 0
M  V30 3430 H 319.876 5.23368 0.344462 0
M  V30 3431 H 321.35 5.12475 2.05118 0
M  V30 3432 H 321.827 3.52615 2.61838 0
M  V30 3433 H 322.433 4.12002 1.05518 0
M  V30 3434 N 320.748 -0.0735177 1.57428 0
M  V30 3435 C 322.164 -0.428264 1.53747 0
M  V30 3436 C 322.364 -1.79272 0.91998 0
M  V30 3437 O 321.42 -2.47051 0.521745 0
M  V30 3438 C 322.733 -0.370914 2.98404 0
M  V30 3439 C 324.281 -0.451224 3.0973 0
M  V30 3440 C 324.756 -0.4238 4.56035 0
M  V30 3441 N 326.247 -0.483925 4.60665 0
M  V30 3442 C 326.982 -0.484891 5.71346 0
M  V30 3443 N 326.478 -0.440775 6.91396 0
M  V30 3444 N 328.271 -0.531319 5.59583 0
M  V30 3445 H 320.422 0.819949 1.95935 0
M  V30 3446 H 322.685 0.307493 0.896745 0
M  V30 3447 H 322.391 0.564956 3.47133 0
M  V30 3448 H 322.265 -1.18176 3.5821 0
M  V30 3449 H 324.652 -1.37752 2.60976 0
M  V30 3450 H 324.733 0.388167 2.52838 0
M  V30 3451 H 324.377 0.498638 5.05446 0
M  V30 3452 H 324.307 -1.2807 5.10789 0
M  V30 3453 H 326.798 -0.522338 3.74273 0
M  V30 3454 H 327.111 -0.44539 7.71515 0
M  V30 3455 H 325.456 -0.40749 6.93804 0
M  V30 3456 H 328.647 -0.563464 4.64696 0
M  V30 3457 H 328.82 -0.528603 6.4584 0
M  V30 3458 N 322.226 -1.5378 -0.344866 0
M  V30 3459 C 323.451 -1.75211 -1.10977 0
M  V30 3460 C 323.876 -0.48936 -1.81623 0
M  V30 3461 O 323.234 0.557925 -1.72502 0
M  V30 3462 C 323.282 -2.93147 -2.09993 0
M  V30 3463 O 322.386 -2.63203 -3.17487 0
M  V30 3464 H 321.727 -0.581241 -0.321021 0
M  V30 3465 H 324.257 -2.00738 -0.395661 0
M  V30 3466 H 324.267 -3.19898 -2.53237 0
M  V30 3467 H 322.942 -3.84731 -1.5797 0
M  V30 3468 H 321.519 -2.47336 -2.79069 0
M  V30 3469 N 323.704 0.605807 -1.45491 0
M  V30 3470 C 324.952 1.36207 -1.49305 0
M  V30 3471 C 325.273 1.94519 -0.136863 0
M  V30 3472 O 324.543 1.77261 0.833983 0
M  V30 3473 H 323.123 0.50565 -0.549843 0
M  V30 3474 H 325.785 0.711239 -1.81459 0
M  V30 3475 H 324.881 2.18058 -2.23287 0
M  V30 3476 N 325.182 1.32811 0.848464 0
M  V30 3477 C 326.428 1.23907 1.60546 0
M  V30 3478 C 326.761 -0.197161 1.93197 0
M  V30 3479 O 326.036 -1.13596 1.5788 0
M  V30 3480 C 326.319 2.10489 2.92175 0
M  V30 3481 C 326.172 3.62522 2.66266 0
M  V30 3482 C 327.491 1.97075 3.93509 0
M  V30 3483 H 324.61 0.451459 0.58254 0
M  V30 3484 H 327.252 1.62818 0.979296 0
M  V30 3485 H 325.402 1.77434 3.45614 0
M  V30 3486 H 327.074 4.05821 2.19334 0
M  V30 3487 H 325.317 3.84879 2.00126 0
M  V30 3488 H 325.988 4.18437 3.6002 0
M  V30 3489 H 328.464 2.26045 3.49346 0
M  V30 3490 H 327.34 2.59923 4.83457 0
M  V30 3491 H 327.601 0.940186 4.31987 0
M  V30 3492 N 326.66 -1.06551 1.16123 0
M  V30 3493 C 327.59 -2.15935 0.88851 0
M  V30 3494 C 328.571 -1.69306 -0.164135 0
M  V30 3495 O 329.756 -1.94193 -0.0167857 0
M  V30 3496 C 326.886 -3.45149 0.385942 0
M  V30 3497 C 325.84 -4.05271 1.3762 0
M  V30 3498 C 325.166 -5.29664 0.732137 0
M  V30 3499 C 326.466 -4.44355 2.74493 0
M  V30 3500 H 328.16 -2.39006 1.80323 0
M  V30 3501 H 325.706 -1.14866 0.868435 0
M  V30 3502 H 327.659 -4.21004 0.182647 0
M  V30 3503 H 326.383 -3.21689 -0.564274 0
M  V30 3504 H 325.042 -3.3147 1.56599 0
M  V30 3505 H 324.69 -5.02499 -0.224483 0
M  V30 3506 H 324.39 -5.70848 1.39307 0
M  V30 3507 H 325.914 -6.08218 0.538802 0
M  V30 3508 H 327.328 -5.11303 2.59311 0
M  V30 3509 H 325.725 -4.96515 3.37035 0
M  V30 3510 H 326.795 -3.55339 3.29943 0
M  V30 3511 N 328.138 -0.959301 -1.25041 0
M  V30 3512 C 329.366 -0.633949 -1.96948 0
M  V30 3513 C 329.781 0.794916 -1.7125 0
M  V30 3514 O 329.138 1.53231 -0.991287 0
M  V30 3515 C 329.189 -0.888805 -3.50403 0
M  V30 3516 O 328.91 -2.26149 -3.75218 0
M  V30 3517 C 330.411 -0.576482 -4.39536 0
M  V30 3518 H 327.631 -0.237263 -0.627652 0
M  V30 3519 H 330.175 -1.28495 -1.59089 0
M  V30 3520 H 328.33 -0.284145 -3.86357 0
M  V30 3521 H 328.744 -2.33514 -4.6965 0
M  V30 3522 H 330.218 -0.805314 -5.46094 0
M  V30 3523 H 330.695 0.489075 -4.36468 0
M  V30 3524 H 331.301 -1.16067 -4.09156 0
M  V30 3525 N 329.616 1.39756 -0.72842 0
M  V30 3526 C 330.865 1.99879 -0.270407 0
M  V30 3527 C 331.178 1.58449 1.14688 0
M  V30 3528 O 332.384 2.11362 1.70407 0
M  V30 3529 C 330.84 3.57292 -0.43252 0
M  V30 3530 C 330.448 4.07688 -1.85727 0
M  V30 3531 C 332.192 4.24485 -0.0359507 0
M  V30 3532 C 330.099 5.5765 -1.96928 0
M  V30 3533 H 329.029 0.747689 -0.0973472 0
M  V30 3534 H 331.68 1.59837 -0.901355 0
M  V30 3535 H 330.062 3.95097 0.267219 0
M  V30 3536 H 331.236 3.81231 -2.58843 0
M  V30 3537 H 329.551 3.53135 -2.20646 0
M  V30 3538 H 332.148 5.34609 -0.0987484 0
M  V30 3539 H 332.491 4.03915 1.00787 0
M  V30 3540 H 333.024 3.9183 -0.686604 0
M  V30 3541 H 329.763 5.8309 -2.99476 0
M  V30 3542 H 329.283 5.8593 -1.28241 0
M  V30 3543 H 330.962 6.22957 -1.74737 0
M  V30 3544 N 331.094 0.475555 1.50254 0
M  V30 3545 C 332.505 0.0215174 1.86688 0
M  V30 3546 C 332.856 -1.38467 1.39001 0
M  V30 3547 O 331.981 -2.02732 0.756894 0
M  V30 3548 C 332.576 0.0322715 3.38785 0
M  V30 3549 C 331.135 -0.366314 3.74613 0
M  V30 3550 C 330.282 0.415832 2.74164 0
M  V30 3551 H 333.233 0.689612 1.42934 0
M  V30 3552 H 333.254 -0.76889 3.7265 0
M  V30 3553 H 332.766 1.05584 3.73462 0
M  V30 3554 H 330.867 -1.39406 3.45538 0
M  V30 3555 H 330.98 -0.064555 4.79057 0
M  V30 3556 H 329.344 -0.131048 2.54363 0
M  V30 3557 H 330.127 1.43899 3.11686 0
M  V30 3558 N 332.573 -1.56217 0.208337 0
M  V30 3559 C 333.505 -2.1695 -0.739276 0
M  V30 3560 C 334.518 -1.13492 -1.1672 0
M  V30 3561 O 335.707 -1.40529 -1.10063 0
M  V30 3562 C 332.807 -2.72755 -2.01142 0
M  V30 3563 C 331.98 -4.0125 -1.74118 0
M  V30 3564 C 331.039 -4.41749 -2.85909 0
M  V30 3565 O 330.065 -5.08912 -2.54946 0
M  V30 3566 N 331.267 -4.06342 -4.14568 0
M  V30 3567 H 334.032 -2.98893 -0.219837 0
M  V30 3568 H 331.593 -1.61878 0.0268445 0
M  V30 3569 H 333.585 -2.96826 -2.75094 0
M  V30 3570 H 332.155 -1.95191 -2.4417 0
M  V30 3571 H 331.375 -3.85173 -0.838775 0
M  V30 3572 H 332.663 -4.851 -1.53477 0
M  V30 3573 H 332.061 -3.52345 -4.42571 0
M  V30 3574 H 330.618 -4.35335 -4.85105 0
M  V30 3575 N 334.051 0.0651679 -1.57465 0
M  V30 3576 C 334.999 1.09542 -2.05191 0
M  V30 3577 C 335.993 1.39675 -0.958509 0
M  V30 3578 O 337.199 1.39003 -1.14359 0
M  V30 3579 H 333.574 0.370623 -0.654326 0
M  V30 3580 H 335.545 0.666802 -2.90854 0
M  V30 3581 C 334.294 2.39881 -2.51699 0
M  V30 3582 H 333.617 2.17547 -3.3543 0
M  V30 3583 H 335.057 3.104 -2.88839 0
M  V30 3584 C 333.516 3.0631 -1.40271 0
M  V30 3585 O 334.046 3.94664 -0.748523 0
M  V30 3586 N 332.252 2.67041 -1.14618 0
M  V30 3587 H 331.799 1.95281 -1.67997 0
M  V30 3588 H 331.757 3.1181 -0.402688 0
M  V30 3589 N 335.529 1.53961 0.336706 0
M  V30 3590 C 336.479 1.7881 1.41461 0
M  V30 3591 C 337.463 0.643561 1.47469 0
M  V30 3592 O 338.655 0.903166 1.52223 0
M  V30 3593 C 335.784 2.00722 2.78506 0
M  V30 3594 C 334.87 3.2126 2.76862 0
M  V30 3595 N 335.261 4.42588 2.44845 0
M  V30 3596 C 333.559 3.22568 3.08004 0
M  V30 3597 C 334.26 5.2447 2.51607 0
M  V30 3598 N 333.236 4.61344 2.87511 0
M  V30 3599 H 337.038 2.70205 1.15615 0
M  V30 3600 H 334.552 1.52978 0.545112 0
M  V30 3601 H 336.549 2.1666 3.5618 0
M  V30 3602 H 335.209 1.10573 3.05293 0
M  V30 3603 H 336.22 4.69819 2.17922 0
M  V30 3604 H 332.897 2.42409 3.39918 0
M  V30 3605 H 334.287 6.31324 2.29955 0
M  V30 3606 N 337.007 -0.598083 1.45811 0
M  V30 3607 C 337.954 -1.7082 1.55207 0
M  V30 3608 C 338.924 -1.61278 0.39732 0
M  V30 3609 O 340.109 -1.80717 0.612038 0
M  V30 3610 C 337.249 -3.09144 1.53376 0
M  V30 3611 C 336.362 -3.29423 2.79472 0
M  V30 3612 C 335.497 -4.57907 2.69248 0
M  V30 3613 C 334.536 -4.71476 3.90354 0
M  V30 3614 N 333.673 -5.9127 3.78608 0
M  V30 3615 H 338.513 -1.62125 2.50039 0
M  V30 3616 H 336.05 -0.790389 1.24062 0
M  V30 3617 H 338.008 -3.89186 1.50301 0
M  V30 3618 H 336.638 -3.16773 0.620876 0
M  V30 3619 H 335.69 -2.43091 2.92594 0
M  V30 3620 H 337.002 -3.3532 3.69272 0
M  V30 3621 H 336.156 -5.46157 2.64192 0
M  V30 3622 H 334.895 -4.54423 1.77063 0
M  V30 3623 H 333.9 -3.81648 3.95759 0
M  V30 3624 H 335.125 -4.76751 4.83617 0
M  V30 3625 H 333.071 -5.88813 2.89199 0
M  V30 3626 H 332.988 -5.98369 4.6205 0
M  V30 3627 H 334.256 -6.81992 3.77501 0
M  V30 3628 N 338.485 -1.33259 -0.841409 0
M  V30 3629 C 339.732 -1.24572 -1.5965 0
M  V30 3630 C 340.06 0.189137 -1.93578 0
M  V30 3631 O 339.315 1.14566 -1.5866 0
M  V30 3632 C 339.614 -2.06381 -2.9179 0
M  V30 3633 C 339.28 -3.556 -2.77235 0
M  V30 3634 C 337.942 -3.96282 -2.72973 0
M  V30 3635 C 340.294 -4.50433 -2.62221 0
M  V30 3636 C 337.622 -5.30017 -2.51592 0
M  V30 3637 C 339.974 -5.84327 -2.42374 0
M  V30 3638 C 338.638 -6.24194 -2.36512 0
M  V30 3639 H 337.908 -0.455842 -0.5842 0
M  V30 3640 H 340.555 -1.6482 -0.975016 0
M  V30 3641 H 338.86 -1.58903 -3.5813 0
M  V30 3642 H 340.557 -1.97019 -3.49263 0
M  V30 3643 H 337.147 -3.23298 -2.81384 0
M  V30 3644 H 341.331 -4.19914 -2.64549 0
M  V30 3645 H 336.587 -5.59947 -2.45499 0
M  V30 3646 H 340.761 -6.57414 -2.29739 0
M  V30 3647 H 338.388 -7.27759 -2.19706 0
M  V30 3648 N 339.963 1.05934 -1.16686 0
M  V30 3649 C 341.374 1.60263 -0.957745 0
M  V30 3650 C 341.725 1.89789 0.49745 0
M  V30 3651 O 340.85 1.67401 1.37135 0
M  V30 3652 C 341.445 2.91172 -1.73218 0
M  V30 3653 C 340.004 3.42188 -1.56794 0
M  V30 3654 C 339.151 2.16028 -1.73859 0
M  V30 3655 H 342.102 0.888392 -1.31504 0
M  V30 3656 H 342.123 3.60744 -1.21014 0
M  V30 3657 H 341.635 2.6965 -2.79124 0
M  V30 3658 H 339.736 3.68762 -0.533437 0
M  V30 3659 H 339.849 4.17273 -2.35414 0
M  V30 3660 H 338.213 2.26426 -1.16633 0
M  V30 3661 H 338.996 1.96985 -2.81161 0
M  V30 3662 N 341.441 0.965919 1.2453 0
M  V30 3663 C 342.388 0.49402 2.25451 0
M  V30 3664 C 343.358 -0.45948 1.59618 0
M  V30 3665 O 344.543 -0.370238 1.87173 0
M  V30 3666 C 341.683 -0.211359 3.44452 0
M  V30 3667 C 340.796 0.7807 4.24887 0
M  V30 3668 C 339.931 0.0516105 5.31175 0
M  V30 3669 C 338.97 1.03385 6.03306 0
M  V30 3670 N 338.107 0.334887 7.01301 0
M  V30 3671 H 342.947 1.35946 2.65184 0
M  V30 3672 H 340.484 0.681515 1.3036 0
M  V30 3673 H 342.442 -0.637 4.12308 0
M  V30 3674 H 341.072 -1.04077 3.05562 0
M  V30 3675 H 340.124 1.32479 3.56586 0
M  V30 3676 H 341.436 1.52978 4.74762 0
M  V30 3677 H 340.59 -0.432114 6.05159 0
M  V30 3678 H 339.329 -0.730179 4.82203 0
M  V30 3679 H 338.334 1.52847 5.28127 0
M  V30 3680 H 339.559 1.81606 6.54367 0
M  V30 3681 H 337.505 -0.427959 6.54603 0
M  V30 3682 H 337.422 1.02287 7.49048 0
M  V30 3683 H 338.69 -0.126928 7.79397 0
M  V30 3684 N 342.919 -1.39368 0.735821 0
M  V30 3685 C 343.829 -2.34395 0.0979693 0
M  V30 3686 C 344.845 -1.58361 -0.720968 0
M  V30 3687 O 346.021 -1.90648 -0.649245 0
M  V30 3688 C 343.086 -3.37393 -0.797916 0
M  V30 3689 C 342.147 -4.29287 0.0333662 0
M  V30 3690 C 341.38 -5.27365 -0.819854 0
M  V30 3691 O 341.603 -5.31959 -2.05855 0
M  V30 3692 O 340.537 -6.01389 -0.248079 0
M  V30 3693 H 344.363 -2.90601 0.882315 0
M  V30 3694 H 341.948 -1.40909 0.4965 0
M  V30 3695 H 343.83 -4.00505 -1.31048 0
M  V30 3696 H 342.505 -2.83571 -1.56106 0
M  V30 3697 H 341.412 -3.69395 0.591475 0
M  V30 3698 H 342.745 -4.86317 0.758752 0
M  V30 3699 N 344.397 -0.483516 -1.5 0
M  V30 3700 C 345.344 0.304164 -2.28787 0
M  V30 3701 C 346.314 0.976114 -1.34392 0
M  V30 3702 O 347.499 0.986156 -1.63339 0
M  V30 3703 C 344.639 1.37298 -3.16612 0
M  V30 3704 C 343.752 0.714561 -4.26049 0
M  V30 3705 C 342.887 1.76232 -5.01114 0
M  V30 3706 C 341.926 1.08483 -6.0241 0
M  V30 3707 N 341.063 2.076 -6.70706 0
M  V30 3708 H 345.903 -0.373981 -2.95644 0
M  V30 3709 H 343.44 -0.196275 -1.45785 0
M  V30 3710 H 345.398 2.00445 -3.65893 0
M  V30 3711 H 344.028 2.02012 -2.51776 0
M  V30 3712 H 343.08 -0.0297798 -3.80388 0
M  V30 3713 H 344.392 0.180383 -4.98474 0
M  V30 3714 H 343.546 2.46929 -5.54176 0
M  V30 3715 H 342.285 2.33033 -4.28424 0
M  V30 3716 H 341.29 0.363545 -5.48597 0
M  V30 3717 H 342.515 0.523551 -6.77079 0
M  V30 3718 H 340.461 2.63394 -6.00799 0
M  V30 3719 H 340.378 1.59201 -7.39047 0
M  V30 3720 H 341.646 2.77639 -7.2838 0
M  V30 3721 N 345.875 1.56104 -0.216619 0
M  V30 3722 C 346.785 2.23694 0.706982 0
M  V30 3723 C 347.801 1.24295 1.21765 0
M  V30 3724 O 348.977 1.57094 1.2603 0
M  V30 3725 C 346.042 2.8998 1.90033 0
M  V30 3726 C 345.103 4.04708 1.43213 0
M  V30 3727 C 344.336 4.67824 2.56859 0
M  V30 3728 O 344.559 4.29913 3.74874 0
M  V30 3729 O 343.493 5.56905 2.28343 0
M  V30 3730 H 347.319 3.03272 0.161235 0
M  V30 3731 H 344.904 1.49394 0.0136177 0
M  V30 3732 H 346.786 3.31837 2.59735 0
M  V30 3733 H 345.461 2.13365 2.43428 0
M  V30 3734 H 344.368 3.6743 0.70327 0
M  V30 3735 H 345.701 4.83051 0.944615 0
M  V30 3736 N 347.353 -0.0568162 1.57498 0
M  V30 3737 C 348.769 -0.411933 1.54192 0
M  V30 3738 C 348.969 -1.78287 0.938942 0
M  V30 3739 O 348.025 -2.46483 0.547919 0
M  V30 3740 C 349.338 -0.339244 2.9878 0
M  V30 3741 C 350.886 -0.418348 3.10192 0
M  V30 3742 C 351.361 -0.375407 4.56459 0
M  V30 3743 N 352.852 -0.435038 4.61153 0
M  V30 3744 C 353.587 -0.424265 5.71828 0
M  V30 3745 N 353.083 -0.367418 6.91825 0
M  V30 3746 N 354.876 -0.471938 5.60115 0
M  V30 3747 H 347.027 0.840684 1.95055 0
M  V30 3748 H 349.29 0.316987 0.893433 0
M  V30 3749 H 348.996 0.601742 3.46514 0
M  V30 3750 H 348.87 -1.14371 3.59443 0
M  V30 3751 H 351.257 -1.34976 2.62422 0
M  V30 3752 H 351.338 0.414962 2.52412 0
M  V30 3753 H 350.982 0.552219 5.04889 0
M  V30 3754 H 350.912 -1.22645 5.12119 0
M  V30 3755 H 353.403 -0.482612 3.74806 0
M  V30 3756 H 353.716 -0.363535 7.71944 0
M  V30 3757 H 352.061 -0.333879 6.94198 0
M  V30 3758 H 355.252 -0.514145 4.65268 0
M  V30 3759 H 355.425 -0.460073 6.46365 0
M  V30 3760 N 348.832 -1.54138 -0.328536 0
M  V30 3761 C 349.78 -1.83894 -1.42428 0
M  V30 3762 C 350.774 -0.710478 -1.53781 0
M  V30 3763 O 351.98 -0.894062 -1.56226 0
M  V30 3764 H 348.355 -0.582837 -0.475189 0
M  V30 3765 H 350.326 -2.75537 -1.14552 0
M  V30 3766 C 349.075 -2.07866 -2.78724 0
M  V30 3767 H 348.398 -2.94158 -2.7076 0
M  V30 3768 H 349.838 -2.32644 -3.54476 0
M  V30 3769 C 348.297 -0.868689 -3.25508 0
M  V30 3770 O 348.827 -0.0754908 -4.01629 0
M  V30 3771 N 347.033 -0.681711 -2.82491 0
M  V30 3772 H 346.58 -1.32838 -2.20708 0
M  V30 3773 H 346.538 0.126374 -3.14146 0
M  V30 3774 N 350.31 0.590341 -1.46126 0
M  V30 3775 C 351.559 1.34499 -1.50309 0
M  V30 3776 C 351.872 1.94977 -0.156021 0
M  V30 3777 O 353.078 2.71395 -0.0756037 0
M  V30 3778 C 351.534 2.43723 -2.64815 0
M  V30 3779 C 351.142 1.89582 -4.0591 0
M  V30 3780 C 352.886 3.20579 -2.78262 0
M  V30 3781 C 350.793 2.9639 -5.11769 0
M  V30 3782 H 349.723 0.505593 -0.559368 0
M  V30 3783 H 352.374 0.630848 -1.72315 0
M  V30 3784 H 350.756 3.17902 -2.36124 0
M  V30 3785 H 351.93 1.21997 -4.44357 0
M  V30 3786 H 350.245 1.25418 -3.97063 0
M  V30 3787 H 352.842 4.00276 -3.54519 0
M  V30 3788 H 353.185 3.72684 -1.85505 0
M  V30 3789 H 353.718 2.53505 -3.06562 0
M  V30 3790 H 350.457 2.49181 -6.06291 0
M  V30 3791 H 349.977 3.62487 -4.77873 0
M  V30 3792 H 351.656 3.60474 -5.37278 0
M  V30 3793 N 351.788 1.33704 0.83433 0
M  V30 3794 C 353.199 1.22813 1.4062 0
M  V30 3795 C 353.55 -0.151107 1.95617 0
M  V30 3796 O 352.675 -1.05092 1.89168 0
M  V30 3797 C 353.27 2.22355 2.55624 0
M  V30 3798 C 351.829 2.1529 3.08751 0
M  V30 3799 C 350.976 2.09589 1.8157 0
M  V30 3800 H 353.927 1.45236 0.639702 0
M  V30 3801 H 353.948 1.83391 3.33389 0
M  V30 3802 H 353.46 3.22728 2.15566 0
M  V30 3803 H 351.561 1.18235 3.53343 0
M  V30 3804 H 351.674 3.06038 3.68616 0
M  V30 3805 H 350.038 1.55134 2.02004 0
M  V30 3806 H 350.821 3.11777 1.43701 0
M  V30 3807 N 353.266 -1.05314 1.17247 0
M  V30 3808 C 354.491 -1.82509 0.985148 0
M  V30 3809 C 354.916 -1.82343 -0.461788 0
M  V30 3810 O 354.274 -1.23151 -1.33055 0
M  V30 3811 C 354.322 -3.26566 1.52929 0
M  V30 3812 O 353.426 -4.05666 0.742225 0
M  V30 3813 H 352.767 -0.564347 0.349869 0
M  V30 3814 H 355.297 -1.32718 1.55715 0
M  V30 3815 H 355.307 -3.77369 1.55103 0
M  V30 3816 H 353.982 -3.26001 2.58256 0
M  V30 3817 H 352.559 -3.64397 0.791794 0
M  V30 3818 N 354.744 -0.972509 -1.24016 0
M  V30 3819 C 355.674 -0.525548 -2.27509 0
M  V30 3820 C 356.655 0.437262 -1.64384 0
M  V30 3821 O 357.84 0.332343 -1.91335 0
M  V30 3822 C 354.97 0.180448 -3.46831 0
M  V30 3823 C 353.924 -0.698859 -4.22256 0
M  V30 3824 C 353.25 0.138903 -5.3452 0
M  V30 3825 C 354.55 -1.98582 -4.83076 0
M  V30 3826 H 356.244 -1.39058 -2.65148 0
M  V30 3827 H 353.79 -0.67009 -1.27459 0
M  V30 3828 H 355.743 0.504387 -4.18371 0
M  V30 3829 H 354.467 1.07987 -3.08231 0
M  V30 3830 H 353.126 -1.00614 -3.52523 0
M  V30 3831 H 352.774 1.03862 -4.9216 0
M  V30 3832 H 352.474 -0.446259 -5.85903 0
M  V30 3833 H 353.998 0.457404 -6.08884 0
M  V30 3834 H 355.412 -1.72715 -5.46665 0
M  V30 3835 H 353.809 -2.5181 -5.44713 0
M  V30 3836 H 354.879 -2.67769 -4.04262 0
M  V30 3837 N 356.222 1.38976 -0.743202 0
M  V30 3838 C 357.45 2.04636 -0.30525 0
M  V30 3839 C 357.865 1.56044 1.06281 0
M  V30 3840 O 357.222 0.728921 1.67311 0
M  V30 3841 C 357.273 3.60193 -0.307177 0
M  V30 3842 O 356.994 4.06998 -1.62124 0
M  V30 3843 C 358.495 4.4306 0.145928 0
M  V30 3844 H 355.715 0.65788 -0.132041 0
M  V30 3845 H 358.259 1.77866 -1.00915 0
M  V30 3846 H 356.414 3.85835 0.347898 0
M  V30 3847 H 356.828 5.01371 -1.54036 0
M  V30 3848 H 358.302 5.51921 0.0934183 0
M  V30 3849 H 358.779 4.22706 1.19231 0
M  V30 3850 H 359.385 4.22584 -0.479886 0
M  V30 3851 N 357.7 0.491464 1.49741 0
M  V30 3852 C 358.925 -0.0557177 2.07325 0
M  V30 3853 C 359.35 -1.30925 1.35056 0
M  V30 3854 O 358.708 -1.76733 0.404365 0
M  V30 3855 C 358.756 -0.302074 3.59333 0
M  V30 3856 O 357.86 -1.37868 3.88672 0
M  V30 3857 H 357.201 0.0219956 0.663636 0
M  V30 3858 H 359.731 0.688352 1.92673 0
M  V30 3859 H 359.741 -0.536464 4.04458 0
M  V30 3860 H 358.416 0.61383 4.11345 0
M  V30 3861 H 356.993 -1.12999 3.55367 0
M  V30 3862 N 359.178 -1.55987 0.224894 0
M  V30 3863 C 360.425 -1.9839 -0.4059 0
M  V30 3864 C 360.753 -1.11261 -1.59535 0
M  V30 3865 O 360.008 -0.158314 -1.95059 0
M  V30 3866 C 360.307 -3.46394 -0.880106 0
M  V30 3867 C 359.973 -4.5046 0.19918 0
M  V30 3868 C 358.635 -4.7864 0.495661 0
M  V30 3869 C 360.987 -5.12855 0.928939 0
M  V30 3870 C 358.315 -5.66497 1.52636 0
M  V30 3871 C 360.667 -6.01828 1.949 0
M  V30 3872 C 359.331 -6.28351 2.25236 0
M  V30 3873 H 358.601 -0.725961 -0.148529 0
M  V30 3874 H 361.248 -1.88668 0.328113 0
M  V30 3875 H 359.553 -3.53337 -1.69294 0
M  V30 3876 H 361.25 -3.76577 -1.37808 0
M  V30 3877 H 357.84 -4.28579 -0.0420526 0
M  V30 3878 H 362.024 -4.9115 0.713129 0
M  V30 3879 H 357.28 -5.8531 1.76698 0
M  V30 3880 H 361.454 -6.49225 2.51951 0
M  V30 3881 H 359.081 -6.96226 3.05244 0
M  V30 3882 N 360.656 0.0484629 -1.57525 0
M  V30 3883 C 361.902 0.744226 -1.88651 0
M  V30 3884 C 362.235 1.76029 -0.820212 0
M  V30 3885 O 361.51 1.93782 0.166985 0
M  V30 3886 C 361.793 1.43128 -3.30434 0
M  V30 3887 C 361.646 0.43005 -4.47739 0
M  V30 3888 C 362.965 2.37031 -3.70816 0
M  V30 3889 H 360.084 0.269089 -0.68612 0
M  V30 3890 H 362.726 0.00713532 -1.89999 0
M  V30 3891 H 360.876 2.05956 -3.29415 0
M  V30 3892 H 362.548 -0.194816 -4.60888 0
M  V30 3893 H 360.791 -0.252522 -4.33064 0
M  V30 3894 H 361.462 0.948874 -5.43783 0
M  V30 3895 H 363.938 1.84263 -3.73077 0
M  V30 3896 H 362.814 2.82094 -4.70865 0
M  V30 3897 H 363.075 3.22864 -3.02012 0
M  V30 3898 N 362.134 1.5431 0.320358 0
M  V30 3899 C 363.545 1.63872 0.894594 0
M  V30 3900 C 363.896 0.534847 1.88769 0
M  V30 3901 O 363.021 -0.331732 2.13842 0
M  V30 3902 C 363.616 2.97049 1.62934 0
M  V30 3903 C 362.175 3.08796 2.15226 0
M  V30 3904 C 361.322 2.59456 0.978671 0
M  V30 3905 H 364.273 1.58398 0.0978544 0
M  V30 3906 H 364.294 2.87388 2.49376 0
M  V30 3907 H 363.806 3.7737 0.906302 0
M  V30 3908 H 361.907 2.33156 2.90636 0
M  V30 3909 H 362.02 4.14649 2.40006 0
M  V30 3910 H 360.384 2.1543 1.35875 0
M  V30 3911 H 361.167 3.42237 0.269895 0
M  V30 3912 N 363.613 -0.582584 1.46437 0
M  V30 3913 C 364.56 -1.69164 1.5701 0
M  V30 3914 C 365.53 -1.60847 0.414403 0
M  V30 3915 O 366.715 -1.80058 0.631171 0
M  V30 3916 C 363.855 -3.075 1.56646 0
M  V30 3917 C 362.968 -3.2644 2.82951 0
M  V30 3918 C 362.103 -4.55026 2.7409 0
M  V30 3919 C 361.142 -4.6731 3.95333 0
M  V30 3920 N 360.279 -5.87221 3.84858 0
M  V30 3921 H 365.119 -1.59464 2.51744 0
M  V30 3922 H 362.656 -0.777186 1.24893 0
M  V30 3923 H 364.614 -3.8757 1.5442 0
M  V30 3924 H 363.244 -3.16096 0.654439 0
M  V30 3925 H 362.296 -2.39974 2.95155 0
M  V30 3926 H 363.608 -3.31385 3.72808 0
M  V30 3927 H 362.762 -5.43324 2.6997 0
M  V30 3928 H 361.501 -4.52519 1.81873 0
M  V30 3929 H 360.506 -3.77429 3.99784 0
M  V30 3930 H 361.731 -4.71595 4.88646 0
M  V30 3931 H 359.677 -5.85712 2.95427 0
M  V30 3932 H 359.594 -5.93435 4.6837 0
M  V30 3933 H 360.862 -6.7795 3.84713 0
M  V30 3934 N 365.091 -1.34144 -0.827227 0
M  V30 3935 C 366.021 -1.28005 -1.95287 0
M  V30 3936 C 367.002 -0.158321 -1.69362 0
M  V30 3937 O 368.187 -0.349987 -1.9102 0
M  V30 3938 C 365.317 -1.03036 -3.31664 0
M  V30 3939 C 364.271 -2.11628 -3.72019 0
M  V30 3940 C 363.597 -1.71854 -5.0633 0
M  V30 3941 C 364.897 -3.53417 -3.8457 0
M  V30 3942 H 366.591 -2.22187 -2.00682 0
M  V30 3943 H 364.137 -1.0696 -0.964135 0
M  V30 3944 H 366.09 -0.973863 -4.09993 0
M  V30 3945 H 364.814 -0.0529391 -3.26557 0
M  V30 3946 H 363.473 -2.16339 -2.95961 0
M  V30 3947 H 363.121 -0.727841 -4.97706 0
M  V30 3948 H 362.821 -2.44531 -5.34302 0
M  V30 3949 H 364.345 -1.67692 -5.87122 0
M  V30 3950 H 365.759 -3.51142 -4.5318 0
M  V30 3951 H 364.156 -4.24679 -4.2399 0
M  V30 3952 H 365.226 -3.91072 -2.86689 0
M  V30 3953 N 366.569 1.04691 -1.17803 0
M  V30 3954 C 367.794 1.81984 -0.994813 0
M  V30 3955 C 368.219 1.82586 0.452112 0
M  V30 3956 O 367.577 1.23854 1.324 0
M  V30 3957 C 367.625 3.2575 -1.54659 0
M  V30 3958 O 366.729 4.05267 -0.763728 0
M  V30 3959 H 366.07 0.562483 -0.352857 0
M  V30 3960 H 368.6 1.3189 -1.56417 0
M  V30 3961 H 368.61 3.76541 -1.57102 0
M  V30 3962 H 367.285 3.24627 -2.59981 0
M  V30 3963 H 365.862 3.63972 -0.811108 0
M  V30 3964 N 368.047 0.979072 1.23499 0
M  V30 3965 C 369.293 0.648178 1.92163 0
M  V30 3966 C 369.626 -0.816049 1.76222 0
M  V30 3967 O 368.901 -1.58849 1.12237 0
M  V30 3968 C 369.184 1.03773 3.44824 0
M  V30 3969 C 369.037 2.55948 3.69879 0
M  V30 3970 C 370.356 0.580653 4.36253 0
M  V30 3971 H 367.475 0.236952 0.69787 0
M  V30 3972 H 370.117 1.22012 1.45647 0
M  V30 3973 H 368.267 0.551058 3.84572 0
M  V30 3974 H 369.939 3.12179 3.3962 0
M  V30 3975 H 368.182 2.98641 3.14636 0
M  V30 3976 H 368.853 2.78255 4.76737 0
M  V30 3977 H 371.329 0.998465 4.03943 0
M  V30 3978 H 370.205 0.881663 5.41773 0
M  V30 3979 H 370.466 -0.519052 4.39042 0
M  V30 3980 N 369.525 -1.3858 0.750561 0
M  V30 3981 C 370.75 -2.04997 0.314812 0
M  V30 3982 C 371.175 -1.56235 -1.04749 0
M  V30 3983 O 370.533 -0.712981 -1.66692 0
M  V30 3984 C 370.581 -3.58961 0.343415 0
M  V30 3985 O 369.685 -4.07025 -0.663628 0
M  V30 3986 H 369.026 -0.649081 0.139962 0
M  V30 3987 H 371.556 -1.77313 1.02084 0
M  V30 3988 H 371.566 -4.07542 0.193233 0
M  V30 3989 H 370.241 -3.93811 1.33738 0
M  V30 3990 H 368.818 -3.6982 -0.478307 0
M  V30 3991 N 371.003 -0.499398 -1.49478 0
M  V30 3992 C 372.249 0.0457576 -2.02748 0
M  V30 3993 C 372.582 1.36793 -1.37846 0
M  V30 3994 O 371.857 1.87596 -0.513601 0
M  V30 3995 C 372.14 0.199986 -3.59544 0
M  V30 3996 C 371.993 -1.1452 -4.34977 0
M  V30 3997 C 373.312 0.94137 -4.29914 0
M  V30 3998 H 370.431 0.0151552 -0.736844 0
M  V30 3999 H 373.073 -0.650498 -1.78518 0
M  V30 4000 H 371.223 0.793007 -3.8032 0
M  V30 4001 H 372.895 -1.77697 -4.25701 0
M  V30 4002 H 371.138 -1.73488 -3.97598 0
M  V30 4003 H 371.809 -0.990607 -5.43039 0
M  V30 4004 H 374.285 0.43844 -4.13784 0
M  V30 4005 H 373.161 1.01812 -5.39375 0
M  V30 4006 H 373.422 1.98471 -3.95046 0
M  V30 4007 N 372.481 1.55866 -0.233164 0
M  V30 4008 C 373.897 1.59133 0.121988 0
M  V30 4009 C 374.097 1.25016 1.58029 0
M  V30 4010 O 373.153 0.990922 2.32243 0
M  V30 4011 C 374.466 2.99932 -0.214792 0
M  V30 4012 C 376.014 3.12601 -0.157971 0
M  V30 4013 C 376.489 4.55597 -0.46859 0
M  V30 4014 N 377.98 4.61305 -0.418585 0
M  V30 4015 C 378.715 5.69903 -0.63227 0
M  V30 4016 N 378.211 6.86819 -0.90835 0
M  V30 4017 N 380.004 5.59264 -0.563913 0
M  V30 4018 H 372.155 1.76315 -1.18434 0
M  V30 4019 H 374.418 0.820093 -0.475553 0
M  V30 4020 H 374.124 3.29588 -1.22739 0
M  V30 4021 H 373.998 3.74327 0.464691 0
M  V30 4022 H 376.385 2.82735 0.845283 0
M  V30 4023 H 376.466 2.40511 -0.871102 0
M  V30 4024 H 376.11 4.86182 -1.46934 0
M  V30 4025 H 376.04 5.25928 0.265865 0
M  V30 4026 H 378.531 3.77297 -0.213368 0
M  V30 4027 H 378.844 7.65507 -1.05919 0
M  V30 4028 H 377.189 6.88536 -0.945673 0
M  V30 4029 H 380.38 4.66802 -0.348372 0
M  V30 4030 H 380.553 6.43831 -0.733847 0
M  V30 4031 N 373.959 -0.0401083 1.57549 0
M  V30 4032 C 374.891 -1.07149 2.02612 0
M  V30 4033 C 375.904 -1.33126 0.937085 0
M  V30 4034 O 377.093 -1.30808 1.21456 0
M  V30 4035 C 374.193 -2.41561 2.37701 0
M  V30 4036 C 373.366 -2.35096 3.68848 0
M  V30 4037 C 372.425 -3.51867 3.91249 0
M  V30 4038 O 371.451 -3.3186 4.62447 0
M  V30 4039 N 372.653 -4.73351 3.36035 0
M  V30 4040 H 375.418 -0.687485 2.91708 0
M  V30 4041 H 372.979 -0.228248 1.60283 0
M  V30 4042 H 374.971 -3.18379 2.49833 0
M  V30 4043 H 373.541 -2.71846 1.54332 0
M  V30 4044 H 372.761 -1.4345 3.67173 0
M  V30 4045 H 374.049 -2.27908 4.54901 0
M  V30 4046 H 373.447 -4.92507 2.78304 0
M  V30 4047 H 372.004 -5.47572 3.53565 0
M  V30 4048 N 375.437 -1.54477 -0.31217 0
M  V30 4049 C 376.662 -1.77526 -1.07235 0
M  V30 4050 C 377.087 -0.527775 -1.80544 0
M  V30 4051 O 376.445 0.52121 -1.73646 0
M  V30 4052 C 376.493 -2.97535 -2.03728 0
M  V30 4053 O 375.597 -2.69878 -3.11833 0
M  V30 4054 H 374.938 -0.58792 -0.30862 0
M  V30 4055 H 377.468 -2.01532 -0.352993 0
M  V30 4056 H 377.478 -3.25198 -2.46395 0
M  V30 4057 H 376.153 -3.87996 -1.49774 0
M  V30 4058 H 374.73 -2.53199 -2.7376 0
M  V30 4059 N 376.915 0.57481 -1.46744 0
M  V30 4060 C 378.192 1.3352 -1.4294 0
M  V30 4061 C 378.572 2.10775 -0.117009 0
M  V30 4062 O 377.92 2.09966 0.901474 0
M  V30 4063 C 378.13 2.25456 -2.66403 0
M  V30 4064 C 379.478 2.87035 -3.12883 0
M  V30 4065 O 380.502 2.35766 -2.67007 0
M  V30 4066 O 379.361 3.80179 -3.92589 0
M  V30 4067 H 376.455 0.600318 -0.568812 0
M  V30 4068 H 379.001 0.595171 -1.58921 0
M  V30 4069 H 377.773 1.67851 -3.53471 0
M  V30 4070 H 377.396 3.06785 -2.52921 0
M  V30 4071 N 378.394 1.34581 0.820102 0
M  V30 4072 C 379.304 1.28471 1.96297 0
M  V30 4073 C 380.32 0.191902 1.72939 0
M  V30 4074 O 381.496 0.418879 1.96996 0
M  V30 4075 C 378.561 1.04281 3.30645 0
M  V30 4076 C 377.622 2.22745 3.66992 0
M  V30 4077 C 376.855 1.997 4.9493 0
M  V30 4078 O 377.078 0.956656 5.6232 0
M  V30 4079 O 376.012 2.86723 5.2922 0
M  V30 4080 H 379.838 2.24624 2.04396 0
M  V30 4081 H 377.423 1.14816 0.955913 0
M  V30 4082 H 379.305 0.925841 4.11104 0
M  V30 4083 H 377.98 0.111697 3.23507 0
M  V30 4084 H 376.887 2.40003 2.86966 0
M  V30 4085 H 378.22 3.14257 3.78819 0
M  V30 4086 N 379.872 -1.04064 1.18357 0
M  V30 4087 C 380.802 -2.14001 0.934113 0
M  V30 4088 C 381.783 -1.69616 -0.128186 0
M  V30 4089 O 382.968 -1.94185 0.0244093 0
M  V30 4090 C 380.098 -3.44253 0.459066 0
M  V30 4091 C 379.052 -4.02261 1.46185 0
M  V30 4092 C 378.378 -5.27992 0.844322 0
M  V30 4093 C 379.678 -4.38432 2.83856 0
M  V30 4094 H 381.372 -2.35127 1.85352 0
M  V30 4095 H 378.918 -1.12998 0.892604 0
M  V30 4096 H 380.871 -4.20522 0.271907 0
M  V30 4097 H 379.595 -3.22813 -0.495912 0
M  V30 4098 H 378.254 -3.28074 1.63595 0
M  V30 4099 H 377.902 -5.02862 -0.117845 0
M  V30 4100 H 377.602 -5.67765 1.51384 0
M  V30 4101 H 379.126 -6.06938 0.667693 0
M  V30 4102 H 380.54 -5.05688 2.70098 0
M  V30 4103 H 378.937 -4.89254 3.47491 0
M  V30 4104 H 380.007 -3.4826 3.37406 0
M  V30 4105 N 381.35 -0.985608 -1.22978 0
M  V30 4106 C 382.575 -0.675254 -1.961 0
M  V30 4107 C 383 0.752154 -1.72407 0
M  V30 4108 O 382.358 1.5131 -0.998751 0
M  V30 4109 C 382.406 -0.977899 -3.47087 0
M  V30 4110 O 381.51 -0.072685 -4.12336 0
M  V30 4111 H 380.851 -0.253443 -0.613728 0
M  V30 4112 H 383.381 -1.32061 -1.56272 0
M  V30 4113 H 383.391 -0.916739 -3.97567 0
M  V30 4114 H 382.066 -2.01807 -3.63657 0
M  V30 4115 H 380.643 -0.188703 -3.72422 0
M  V30 4116 N 382.828 1.3818 -0.7579 0
M  V30 4117 C 384.239 1.82726 -0.383134 0
M  V30 4118 C 384.59 1.63214 1.08884 0
M  V30 4119 O 383.715 1.13566 1.84205 0
M  V30 4120 C 384.31 3.31728 -0.688631 0
M  V30 4121 C 382.869 3.74606 -0.367091 0
M  V30 4122 C 382.016 2.60896 -0.939599 0
M  V30 4123 H 384.967 1.26847 -0.953699 0
M  V30 4124 H 384.988 3.80487 0.0316492 0
M  V30 4125 H 384.5 3.45898 -1.76001 0
M  V30 4126 H 382.601 3.66013 0.697532 0
M  V30 4127 H 382.714 4.71215 -0.865658 0
M  V30 4128 H 381.078 2.52075 -0.3647 0
M  V30 4129 H 381.861 2.77864 -2.0161 0
M  V30 4130 N 384.306 0.507319 1.49211 0
M  V30 4131 C 385.531 -0.033725 2.07373 0
M  V30 4132 C 385.956 -1.29485 1.36437 0
M  V30 4133 O 385.314 -1.76294 0.423087 0
M  V30 4134 C 385.362 -0.263945 3.59633 0
M  V30 4135 O 384.466 -1.33737 3.90113 0
M  V30 4136 H 383.807 0.0290331 0.663365 0
M  V30 4137 H 386.337 0.708749 1.91932 0
M  V30 4138 H 386.347 -0.493536 4.05004 0
M  V30 4139 H 385.022 0.657424 4.10671 0
M  V30 4140 H 383.599 -1.09224 3.56545 0
M  V30 4141 N 385.784 -1.5574 0.241426 0
M  V30 4142 C 386.732 -2.22538 -0.676718 0
M  V30 4143 C 387.726 -1.21117 -1.18436 0
M  V30 4144 O 388.932 -1.39144 -1.14188 0
M  V30 4145 H 385.307 -0.713776 -0.236701 0
M  V30 4146 H 387.278 -2.98264 -0.0901187 0
M  V30 4147 C 386.027 -2.93439 -1.86518 0
M  V30 4148 H 385.35 -3.7125 -1.4837 0
M  V30 4149 H 386.79 -3.43549 -2.48495 0
M  V30 4150 C 385.249 -1.97008 -2.73294 0
M  V30 4151 O 385.779 -1.49965 -3.72657 0
M  V30 4152 N 383.985 -1.64227 -2.39745 0
M  V30 4153 H 383.532 -2.02677 -1.58996 0
M  V30 4154 H 383.49 -0.999708 -2.98083 0
M  V30 4155 N 387.262 0.0317525 -1.57568 0
M  V30 4156 C 388.172 1.05021 -2.0978 0
M  V30 4157 C 389.188 1.39809 -1.03583 0
M  V30 4158 O 390.364 1.49182 -1.35302 0
M  V30 4159 C 387.429 2.33301 -2.56459 0
M  V30 4160 C 386.49 2.0512 -3.77127 0
M  V30 4161 C 385.723 3.27283 -4.2157 0
M  V30 4162 O 385.946 4.37861 -3.65559 0
M  V30 4163 O 384.88 3.13141 -5.14029 0
M  V30 4164 H 388.706 0.636505 -2.96955 0
M  V30 4165 H 386.291 0.248559 -1.47318 0
M  V30 4166 H 388.173 3.08722 -2.86825 0
M  V30 4167 H 386.848 2.73973 -1.72397 0
M  V30 4168 H 385.755 1.27276 -3.51784 0
M  V30 4169 H 387.088 1.69305 -4.62165 0
M  V30 4170 N 388.74 1.54641 0.303973 0
M  V30 4171 C 390.151 1.64811 0.877163 0
M  V30 4172 C 390.502 0.554838 1.88191 0
M  V30 4173 O 389.627 -0.309033 2.14182 0
M  V30 4174 C 390.222 2.9876 1.59775 0
M  V30 4175 C 388.781 3.11061 2.11938 0
M  V30 4176 C 387.928 2.60479 0.951097 0
M  V30 4177 H 390.879 1.58493 0.0810486 0
M  V30 4178 H 390.9 2.90017 2.46314 0
M  V30 4179 H 390.412 3.7831 0.866226 0
M  V30 4180 H 388.513 2.36225 2.88146 0
M  V30 4181 H 388.626 4.17171 2.35595 0
M  V30 4182 H 386.99 2.16859 1.33583 0
M  V30 4183 H 387.773 3.42504 0.233581 0
M  V30 4184 N 390.218 -0.567019 1.47046 0
M  V30 4185 C 391.629 -1.14916 1.47143 0
M  V30 4186 C 391.98 -1.94954 0.220767 0
M  V30 4187 O 391.105 -2.05602 -0.67505 0
M  V30 4188 C 391.7 -2.09069 2.666 0
M  V30 4189 C 390.259 -2.62575 2.69687 0
M  V30 4190 C 389.406 -1.38755 2.40088 0
M  V30 4191 H 392.357 -0.354126 1.54699 0
M  V30 4192 H 392.378 -2.92789 2.43011 0
M  V30 4193 H 391.89 -1.50789 3.57609 0
M  V30 4194 H 389.991 -3.24681 1.82792 0
M  V30 4195 H 390.104 -3.04239 3.70102 0
M  V30 4196 H 388.468 -1.69098 1.90468 0
M  V30 4197 H 389.251 -0.822822 3.33293 0
M  V30 4198 N 391.696 -1.35014 -0.812953 0
M  V30 4199 C 392.944 -1.27678 -1.56661 0
M  V30 4200 C 393.265 0.150359 -1.94419 0
M  V30 4201 O 392.535 1.08532 -1.63088 0
M  V30 4202 H 391.115 -0.469602 -0.580933 0
M  V30 4203 H 393.777 -1.69043 -0.970076 0
M  V30 4204 H 392.873 -1.88833 -2.48492 0
M  V30 4205 N 393.175 1.03435 -1.18907 0
M  V30 4206 C 394.138 2.09756 -0.923844 0
M  V30 4207 C 395.138 1.60528 0.093416 0
M  V30 4208 O 396.328 1.73631 -0.140727 0
M  V30 4209 C 393.46 3.38692 -0.387354 0
M  V30 4210 H 394.653 2.34719 -1.86674 0
M  V30 4211 H 392.206 1.19959 -1.00197 0
M  V30 4212 H 392.941 3.19396 0.561845 0
M  V30 4213 H 392.726 3.75742 -1.12074 0
M  V30 4214 H 394.216 4.17016 -0.220694 0
M  V30 4215 N 394.653 0.992116 1.22453 0
M  V30 4216 C 395.583 0.561677 2.26644 0
M  V30 4217 C 396.564 -0.411055 1.65059 0
M  V30 4218 O 397.749 -0.301861 1.9184 0
M  V30 4219 C 394.879 -0.125247 3.47074 0
M  V30 4220 C 393.833 0.765948 4.21091 0
M  V30 4221 C 393.159 -0.0538484 5.34673 0
M  V30 4222 C 394.459 2.06242 4.79856 0
M  V30 4223 H 396.153 1.43259 2.62902 0
M  V30 4224 H 393.699 0.690283 1.26377 0
M  V30 4225 H 395.652 -0.437764 4.1912 0
M  V30 4226 H 394.376 -1.03069 3.0991 0
M  V30 4227 H 393.035 1.0621 3.50878 0
M  V30 4228 H 392.683 -0.960188 4.9375 0
M  V30 4229 H 392.383 0.539415 5.85119 0
M  V30 4230 H 393.907 -0.360477 6.09535 0
M  V30 4231 H 395.321 1.8139 5.43848 0
M  V30 4232 H 393.718 2.60444 5.40638 0
M  V30 4233 H 394.788 2.74167 3.99951 0
M  V30 4234 N 396.131 -1.37776 0.765217 0
M  V30 4235 C 397.377 -2.00145 0.327072 0
M  V30 4236 C 397.71 -1.60607 -1.09175 0
M  V30 4237 O 396.985 -0.849127 -1.74986 0
M  V30 4238 C 397.268 -3.57109 0.46319 0
M  V30 4239 C 397.121 -4.06576 1.92395 0
M  V30 4240 C 398.44 -4.39888 -0.136473 0
M  V30 4241 H 395.559 -0.727113 0.120316 0
M  V30 4242 H 398.201 -1.63549 0.967039 0
M  V30 4243 H 396.351 -3.88414 -0.0816358 0
M  V30 4244 H 398.023 -3.85864 2.52798 0
M  V30 4245 H 396.266 -3.59011 2.43503 0
M  V30 4246 H 396.937 -5.15639 1.97028 0
M  V30 4247 H 399.413 -4.14803 0.328317 0
M  V30 4248 H 398.289 -5.48899 -0.0110582 0
M  V30 4249 H 398.55 -4.24758 -1.22608 0
M  V30 4250 N 397.609 -0.515225 -1.4894 0
M  V30 4251 C 398.556 0.255567 -2.29381 0
M  V30 4252 C 399.526 0.947387 -1.36432 0
M  V30 4253 O 400.711 0.951288 -1.65394 0
M  V30 4254 C 397.851 1.30551 -3.19453 0
M  V30 4255 C 396.964 0.624029 -4.27469 0
M  V30 4256 C 396.099 1.65563 -5.0474 0
M  V30 4257 C 395.138 0.956802 -6.04576 0
M  V30 4258 N 394.275 1.93326 -6.74959 0
M  V30 4259 H 399.115 -0.436607 -2.94784 0
M  V30 4260 H 396.652 -0.227154 -1.45336 0
M  V30 4261 H 398.61 1.92639 -3.70062 0
M  V30 4262 H 397.24 1.96626 -2.56004 0
M  V30 4263 H 396.292 -0.110459 -3.8024 0
M  V30 4264 H 397.604 0.0746092 -4.98744 0
M  V30 4265 H 396.758 2.35119 -5.59289 0
M  V30 4266 H 395.497 2.23893 -4.3327 0
M  V30 4267 H 394.502 0.247097 -5.49244 0
M  V30 4268 H 395.727 0.379814 -6.78037 0
M  V30 4269 H 393.673 2.50591 -6.06251 0
M  V30 4270 H 393.59 1.43489 -7.42258 0
M  V30 4271 H 394.858 2.62126 -7.34105 0
M  V30 4272 N 399.087 1.5561 -0.249682 0
M  V30 4273 C 400.312 2.03865 0.381305 0
M  V30 4274 C 400.737 1.12769 1.50548 0
M  V30 4275 O 400.095 0.121189 1.80895 0
M  V30 4276 C 400.143 3.50101 0.863816 0
M  V30 4277 O 399.247 3.62132 1.97318 0
M  V30 4278 H 398.588 0.658827 0.0827194 0
M  V30 4279 H 401.118 2.01105 -0.376552 0
M  V30 4280 H 401.128 3.90975 1.1663 0
M  V30 4281 H 399.803 4.1588 0.0411816 0
M  V30 4282 H 398.38 3.33155 1.67517 0
M  V30 4283 N 400.565 -0.0233959 1.57583 0
M  V30 4284 C 401.495 -1.02162 2.09965 0
M  V30 4285 C 402.476 -1.3735 1.00344 0
M  V30 4286 O 403.661 -1.46135 1.27899 0
M  V30 4287 C 400.791 -2.32081 2.58371 0
M  V30 4288 C 399.745 -2.1112 3.72307 0
M  V30 4289 C 399.071 -3.46848 4.06941 0
M  V30 4290 C 400.371 -1.49276 5.00514 0
M  V30 4291 H 402.065 -0.585557 2.93618 0
M  V30 4292 H 399.611 -0.280218 1.41247 0
M  V30 4293 H 401.564 -3.02249 2.93639 0
M  V30 4294 H 400.288 -2.77758 1.71808 0
M  V30 4295 H 398.947 -1.43384 3.37397 0
M  V30 4296 H 398.595 -3.90184 3.17436 0
M  V30 4297 H 398.295 -3.33646 4.83688 0
M  V30 4298 H 399.819 -4.18369 4.44747 0
M  V30 4299 H 401.233 -2.09368 5.33702 0
M  V30 4300 H 399.63 -1.46632 5.8191 0
M  V30 4301 H 400.7 -0.459217 4.82721 0
M  V30 4302 N 402.043 -1.548 -0.295768 0
M  V30 4303 C 402.976 -1.81003 -1.38972 0
M  V30 4304 C 403.954 -0.661544 -1.48534 0
M  V30 4305 O 405.138 -0.902074 -1.65514 0
M  V30 4306 C 402.265 -1.95141 -2.76835 0
M  V30 4307 C 401.311 -3.17592 -2.84671 0
M  V30 4308 S 402.144 -4.75531 -2.46232 0
M  V30 4309 C 403.3 -4.92613 -3.86114 0
M  V30 4310 H 403.533 -2.73507 -1.16537 0
M  V30 4311 H 401.066 -1.46278 -0.494168 0
M  V30 4312 H 403.024 -2.03972 -3.56238 0
M  V30 4313 H 401.685 -1.03565 -2.96535 0
M  V30 4314 H 400.878 -3.24303 -3.85803 0
M  V30 4315 H 400.48 -3.07235 -2.13267 0
M  V30 4316 H 402.772 -4.76957 -4.81164 0
M  V30 4317 H 403.715 -5.94698 -3.8437 0
M  V30 4318 H 404.123 -4.2073 -3.76359 0
M  V30 4319 N 403.521 0.559213 -1.47345 0
M  V30 4320 C 404.798 1.31997 -1.44348 0
M  V30 4321 C 405.178 2.1064 -0.139358 0
M  V30 4322 O 404.526 2.1091 0.879153 0
M  V30 4323 C 404.736 2.22618 -2.68779 0
M  V30 4324 C 406.084 2.83701 -3.1591 0
M  V30 4325 O 407.108 2.32921 -2.69493 0
M  V30 4326 O 405.967 3.75993 -3.966 0
M  V30 4327 H 403.061 0.594251 -0.575147 0
M  V30 4328 H 405.607 0.578282 -1.59543 0
M  V30 4329 H 404.379 1.64093 -3.55231 0
M  V30 4330 H 404.002 3.04085 -2.5616 0
M  V30 4331 N 404.999 1.35443 0.805782 0
M  V30 4332 C 406.41 1.25768 1.37983 0
M  V30 4333 C 406.761 -0.10958 1.95894 0
M  V30 4334 O 405.886 -1.01056 1.91355 0
M  V30 4335 C 406.481 2.27727 2.5085 0
M  V30 4336 C 405.04 2.2179 3.04115 0
M  V30 4337 C 404.187 2.13393 1.77084 0
M  V30 4338 H 407.138 1.4656 0.608752 0
M  V30 4339 H 407.159 1.90422 3.29424 0
M  V30 4340 H 406.671 3.27227 2.08671 0
M  V30 4341 H 404.772 1.25703 3.50756 0
M  V30 4342 H 404.885 3.13788 3.62042 0
M  V30 4343 H 403.249 1.59384 1.98668 0
M  V30 4344 H 404.032 3.14755 1.37056 0
M  V30 4345 N 406.477 -1.02803 1.19454 0
M  V30 4346 C 407.705 -1.79841 1.02297 0
M  V30 4347 C 408.12 -1.83879 -0.428259 0
M  V30 4348 O 407.477 -1.28345 -1.29745 0
M  V30 4349 C 407.528 -3.24852 1.58598 0
M  V30 4350 O 407.249 -3.21097 2.98041 0
M  V30 4351 C 408.75 -4.18485 1.46236 0
M  V30 4352 H 405.97 -0.565936 0.360496 0
M  V30 4353 H 408.514 -1.2948 1.58288 0
M  V30 4354 H 406.669 -3.72401 1.06753 0
M  V30 4355 H 407.083 -4.12033 3.24545 0
M  V30 4356 H 408.557 -5.18121 1.90407 0
M  V30 4357 H 409.034 -4.37254 0.41301 0
M  V30 4358 H 409.64 -3.76811 1.97215 0
M  V30 4359 N 407.956 -0.998596 -1.21925 0
M  V30 4360 C 408.886 -0.573688 -2.26343 0
M  V30 4361 C 409.867 0.402296 -1.65274 0
M  V30 4362 O 411.052 0.291683 -1.91997 0
M  V30 4363 C 408.182 0.106839 -3.47136 0
M  V30 4364 C 407.136 -0.788269 -4.20678 0
M  V30 4365 C 406.462 0.0254927 -5.34694 0
M  V30 4366 C 407.762 -2.08784 -4.78755 0
M  V30 4367 H 409.456 -1.44651 -2.62138 0
M  V30 4368 H 407.002 -0.696975 -1.26009 0
M  V30 4369 H 408.955 0.415531 -4.19346 0
M  V30 4370 H 407.679 1.01424 -3.10452 0
M  V30 4371 H 406.338 -1.08069 -3.50309 0
M  V30 4372 H 405.986 0.933989 -4.94253 0
M  V30 4373 H 405.686 -0.570437 -5.84825 0
M  V30 4374 H 407.21 0.328147 -6.09718 0
M  V30 4375 H 408.624 -1.84272 -5.42878 0
M  V30 4376 H 407.021 -2.63307 -5.39249 0
M  V30 4377 H 408.091 -2.76284 -3.98491 0
M  V30 4378 N 409.434 1.37368 -0.772513 0
M  V30 4379 C 410.85 1.53059 -0.452231 0
M  V30 4380 C 411.05 1.73065 1.03203 0
M  V30 4381 O 410.106 1.75245 1.81784 0
M  V30 4382 C 411.419 2.72659 -1.26797 0
M  V30 4383 C 412.967 2.86521 -1.25995 0
M  V30 4384 C 413.442 4.09105 -2.05905 0
M  V30 4385 N 414.933 4.16219 -2.03263 0
M  V30 4386 C 415.668 5.10107 -2.61875 0
M  V30 4387 N 415.164 6.09547 -3.29278 0
M  V30 4388 N 416.957 5.02596 -2.51701 0
M  V30 4389 H 409.108 1.22634 -1.7342 0
M  V30 4390 H 411.371 0.597206 -0.736239 0
M  V30 4391 H 411.077 2.64343 -2.31982 0
M  V30 4392 H 410.951 3.66363 -0.897672 0
M  V30 4393 H 413.338 2.94308 -0.216081 0
M  V30 4394 H 413.419 1.93774 -1.66989 0
M  V30 4395 H 413.063 4.0208 -3.10313 0
M  V30 4396 H 412.993 5.00968 -1.62292 0
M  V30 4397 H 415.484 3.45012 -1.54192 0
M  V30 4398 H 415.797 6.77718 -3.71374 0
M  V30 4399 H 414.142 6.09824 -3.33377 0
M  V30 4400 H 417.333 4.23855 -1.98657 0
M  V30 4401 H 417.506 5.75582 -2.97673 0
M  V30 4402 N 410.912 0.523116 1.48665 0
M  V30 4403 C 412.137 -0.0117284 2.07397 0
M  V30 4404 C 412.562 -1.28031 1.37803 0
M  V30 4405 O 411.92 -1.75836 0.441762 0
M  V30 4406 C 411.968 -0.225786 3.59892 0
M  V30 4407 O 411.072 -1.29592 3.91509 0
M  V30 4408 H 410.413 0.0360673 0.66302 0
M  V30 4409 H 412.943 0.729066 1.9117 0
M  V30 4410 H 412.953 -0.450552 4.05505 0
M  V30 4411 H 411.628 0.700944 4.09951 0
M  V30 4412 H 410.205 -1.05436 3.57684 0
M  V30 4413 N 412.39 -1.55475 0.257931 0
M  V30 4414 C 413.615 -2.04064 -0.370488 0
M  V30 4415 C 414.04 -1.13565 -1.49948 0
M  V30 4416 O 413.398 -0.130781 -1.80828 0
M  V30 4417 C 413.446 -3.50554 -0.845237 0
M  V30 4418 O 412.55 -3.63173 -1.95394 0
M  V30 4419 H 411.891 -0.659257 -0.0792243 0
M  V30 4420 H 414.421 -2.00903 0.387212 0
M  V30 4421 H 414.431 -3.91588 -1.14555 0
M  V30 4422 H 413.106 -4.15896 -0.0191259 0
M  V30 4423 H 411.683 -3.34039 -1.65748 0
M  V30 4424 N 413.868 0.0150385 -1.57593 0
M  V30 4425 C 415.145 0.7392 -1.81094 0
M  V30 4426 C 415.525 1.92817 -0.859344 0
M  V30 4427 O 414.873 2.28301 0.095362 0
M  V30 4428 C 415.083 1.15907 -3.29191 0
M  V30 4429 C 416.431 1.56918 -3.9454 0
M  V30 4430 O 417.455 1.25328 -3.33424 0
M  V30 4431 O 416.314 2.15604 -5.02173 0
M  V30 4432 H 413.408 0.358631 -0.745193 0
M  V30 4433 H 415.954 -0.00926156 -1.69697 0
M  V30 4434 H 414.726 0.310921 -3.90063 0
M  V30 4435 H 414.349 1.96711 -3.45529 0
M  V30 4436 N 415.346 1.54954 0.287554 0
M  V30 4437 C 416.594 1.74528 1.01904 0
M  V30 4438 C 416.915 0.541349 1.87335 0
M  V30 4439 O 416.185 -0.444108 1.908 0
M  V30 4440 H 414.765 0.643576 0.379235 0
M  V30 4441 H 417.427 1.92333 0.315294 0
M  V30 4442 H 416.523 2.64015 1.6644 0
M  V30 4443 N 416.824 -0.551391 1.4764 0
M  V30 4444 C 418.071 -1.3083 1.54563 0
M  V30 4445 C 418.399 -1.93359 0.210361 0
M  V30 4446 O 417.654 -1.78721 -0.797332 0
M  V30 4447 C 417.953 -2.43469 2.61644 0
M  V30 4448 C 417.619 -1.98732 4.04742 0
M  V30 4449 C 416.281 -1.86248 4.43695 0
M  V30 4450 C 418.633 -1.64659 4.94507 0
M  V30 4451 C 415.961 -1.37995 5.70241 0
M  V30 4452 C 418.313 -1.17875 6.21521 0
M  V30 4453 C 416.977 -1.03992 6.5935 0
M  V30 4454 H 416.247 -0.478741 0.565587 0
M  V30 4455 H 418.894 -0.617697 1.81264 0
M  V30 4456 H 417.199 -3.18109 2.28722 0
M  V30 4457 H 418.896 -3.01642 2.64222 0
M  V30 4458 H 415.486 -2.09393 3.73968 0
M  V30 4459 H 419.67 -1.73174 4.65107 0
M  V30 4460 H 414.926 -1.25915 5.98294 0
M  V30 4461 H 419.1 -0.905739 6.90485 0
M  V30 4462 H 416.727 -0.663794 7.57296 0
M  V30 4463 N 418.302 -1.35869 -0.798587 0
M  V30 4464 C 419.551 -1.28921 -1.5512 0
M  V30 4465 C 419.864 0.13208 -1.95154 0
M  V30 4466 O 421.07 0.323879 -2.69561 0
M  V30 4467 C 419.526 -2.26141 -2.79979 0
M  V30 4468 C 419.134 -3.73658 -2.47151 0
M  V30 4469 C 420.878 -2.28152 -3.57976 0
M  V30 4470 C 418.785 -4.62679 -3.6835 0
M  V30 4471 H 417.715 -0.479031 -0.582276 0
M  V30 4472 H 420.366 -1.61179 -0.877125 0
M  V30 4473 H 418.748 -1.86865 -3.49138 0
M  V30 4474 H 419.922 -4.21616 -1.85947 0
M  V30 4475 H 418.237 -3.74333 -1.82383 0
M  V30 4476 H 420.834 -2.91875 -4.4801 0
M  V30 4477 H 421.177 -1.28748 -3.95891 0
M  V30 4478 H 421.71 -2.65998 -2.95787 0
M  V30 4479 H 418.449 -5.63111 -3.35538 0
M  V30 4480 H 417.969 -4.19442 -4.28752 0
M  V30 4481 H 419.648 -4.78498 -4.35487 0
M  V30 4482 N 419.78 1.02168 -1.19998 0
M  V30 4483 C 421.026 1.7606 -1.01855 0
M  V30 4484 C 421.381 1.87178 0.445222 0
M  V30 4485 O 420.674 1.3828 1.32624 0
M  V30 4486 C 420.868 3.18081 -1.62969 0
M  V30 4487 C 420.697 3.20809 -3.15137 0
M  V30 4488 C 419.467 3.28342 -3.84083 0
M  V30 4489 C 421.665 3.07268 -4.1242 0
M  V30 4490 N 419.647 3.2052 -5.23584 0
M  V30 4491 C 421.018 3.0716 -5.38566 0
M  V30 4492 C 423.073 2.91448 -4.03686 0
M  V30 4493 C 421.776 2.92853 -6.56985 0
M  V30 4494 C 423.802 2.78494 -5.21723 0
M  V30 4495 C 423.164 2.79046 -6.46771 0
M  V30 4496 H 419.263 0.655192 -0.426905 0
M  V30 4497 H 421.847 1.21564 -1.52087 0
M  V30 4498 H 420.018 3.70882 -1.15329 0
M  V30 4499 H 421.75 3.80375 -1.38192 0
M  V30 4500 H 418.505 3.34859 -3.34913 0
M  V30 4501 H 418.929 3.19997 -5.96599 0
M  V30 4502 H 423.571 2.89838 -3.07821 0
M  V30 4503 H 421.289 2.93213 -7.53028 0
M  V30 4504 H 424.875 2.67278 -5.16773 0
M  V30 4505 H 423.755 2.69134 -7.36571 0
M  V30 4506 N 421.258 1.00505 1.21394 0
M  V30 4507 C 422.483 0.706367 1.95001 0
M  V30 4508 C 422.908 -0.72463 1.73582 0
M  V30 4509 O 422.266 -1.49702 1.0227 0
M  V30 4510 C 422.314 1.03299 3.45487 0
M  V30 4511 O 421.418 0.138275 4.12168 0
M  V30 4512 H 420.759 0.263175 0.609619 0
M  V30 4513 H 423.289 1.34531 1.54151 0
M  V30 4514 H 423.299 0.979872 3.96059 0
M  V30 4515 H 421.974 2.07567 3.60401 0
M  V30 4516 H 420.551 0.247928 3.72075 0
M  V30 4517 N 422.737 -1.36956 0.779787 0
M  V30 4518 C 424.153 -1.52817 0.460342 0
M  V30 4519 C 424.353 -1.7361 -1.02283 0
M  V30 4520 O 423.409 -1.76207 -1.80852 0
M  V30 4521 C 424.722 -2.71983 1.28241 0
M  V30 4522 C 426.27 -2.85849 1.27512 0
M  V30 4523 C 426.745 -4.08008 2.08072 0
M  V30 4524 N 428.236 -4.15135 2.05467 0
M  V30 4525 C 428.971 -5.08711 2.64577 0
M  V30 4526 N 428.467 -6.07792 3.32506 0
M  V30 4527 N 430.26 -5.01254 2.54363 0
M  V30 4528 H 422.411 -1.21713 1.74068 0
M  V30 4529 H 424.674 -0.593294 0.739396 0
M  V30 4530 H 424.38 -2.63109 2.33381 0
M  V30 4531 H 424.254 -3.65882 0.917088 0
M  V30 4532 H 426.641 -2.94189 0.231686 0
M  V30 4533 H 426.722 -1.92886 1.68014 0
M  V30 4534 H 426.366 -4.00429 3.12441 0
M  V30 4535 H 426.296 -5.001 1.64947 0
M  V30 4536 H 428.787 -3.44189 1.5602 0
M  V30 4537 H 429.1 -6.75739 3.74963 0
M  V30 4538 H 427.445 -6.08047 3.36606 0
M  V30 4539 H 430.636 -4.22795 2.00902 0
M  V30 4540 H 430.809 -5.73995 3.00722 0
M  V30 4541 N 424.215 -0.530993 -1.48385 0
M  V30 4542 C 425.163 0.244595 -2.3131 0
M  V30 4543 C 426.157 0.93451 -1.41291 0
M  V30 4544 O 427.363 0.85878 -1.58193 0
M  V30 4545 H 423.738 0.0977472 -0.74562 0
M  V30 4546 H 425.709 -0.474369 -2.94605 0
M  V30 4547 C 424.458 1.2779 -3.23365 0
M  V30 4548 H 423.781 0.756439 -3.92579 0
M  V30 4549 H 425.221 1.79198 -3.84271 0
M  V30 4550 C 423.68 2.31205 -2.45042 0
M  V30 4551 O 424.21 3.37661 -2.17596 0
M  V30 4552 N 422.416 2.04446 -2.0652 0
M  V30 4553 H 421.963 1.17891 -2.2904 0
M  V30 4554 H 421.921 2.73861 -1.54427 0
M  V30 4555 N 425.693 1.55336 -0.266172 0
M  V30 4556 C 426.626 2.18256 0.666296 0
M  V30 4557 C 427.604 1.14064 1.1588 0
M  V30 4558 O 428.788 1.42546 1.23341 0
M  V30 4559 C 425.915 2.79867 1.90768 0
M  V30 4560 C 424.961 3.97283 1.55141 0
M  V30 4561 S 425.794 5.31694 0.637313 0
M  V30 4562 C 426.95 5.96769 1.88727 0
M  V30 4563 H 427.183 2.97008 0.131647 0
M  V30 4564 H 424.716 1.54317 -0.0504869 0
M  V30 4565 H 426.674 3.15996 2.62025 0
M  V30 4566 H 425.335 2.01025 2.41346 0
M  V30 4567 H 424.528 4.3905 2.4749 0
M  V30 4568 H 424.13 3.6253 0.919113 0
M  V30 4569 H 426.422 6.15458 2.83227 0
M  V30 4570 H 427.365 6.91752 1.51276 0
M  V30 4571 H 427.773 5.26034 2.04814 0
M  V30 4572 N 427.171 -0.0066808 1.57599 0
M  V30 4573 C 428.411 -0.697501 1.92131 0
M  V30 4574 C 428.775 -1.71306 0.867071 0
M  V30 4575 O 429.976 -2.45377 1.09743 0
M  V30 4576 C 428.247 -1.32978 3.3174 0
M  V30 4577 S 429.806 -2.04665 3.88146 0
M  V30 4578 H 426.624 -0.230555 0.672581 0
M  V30 4579 H 429.226 0.0484026 1.9544 0
M  V30 4580 H 427.93 -0.57772 4.06313 0
M  V30 4581 H 427.461 -2.11376 3.31789 0
M  V30 4582 H 429.476 -3.32097 3.68682 0
M  V30 4583 N 428.649 -1.55105 -0.279332 0
M  V30 4584 C 429.874 -1.7976 -1.03446 0
M  V30 4585 C 430.299 -0.565952 -1.79384 0
M  V30 4586 O 429.657 0.484259 -1.74713 0
M  V30 4587 C 429.705 -3.0179 -1.97371 0
M  V30 4588 O 428.809 -2.76432 -3.06038 0
M  V30 4589 H 428.15 -0.594334 -0.29608 0
M  V30 4590 H 430.68 -2.02235 -0.310165 0
M  V30 4591 H 430.69 -3.30351 -2.39441 0
M  V30 4592 H 429.365 -3.91085 -1.4151 0
M  V30 4593 H 427.942 -2.58949 -2.68328 0
M  V30 4594 N 430.127 0.543554 -1.4793 0
M  V30 4595 C 431.374 1.30008 -1.55255 0
M  V30 4596 C 431.702 1.93245 -0.220612 0
M  V30 4597 O 430.957 1.79141 0.787843 0
M  V30 4598 C 431.256 2.42078 -2.62932 0
M  V30 4599 C 430.922 1.96583 -4.0579 0
M  V30 4600 C 429.584 1.83893 -4.44676 0
M  V30 4601 C 431.936 1.62034 -4.95373 0
M  V30 4602 C 429.264 1.34969 -5.70964 0
M  V30 4603 C 431.616 1.14577 -6.22137 0
M  V30 4604 C 430.28 1.00493 -6.59892 0
M  V30 4605 H 429.55 0.475735 -0.568117 0
M  V30 4606 H 432.197 0.608075 -1.81589 0
M  V30 4607 H 430.502 3.16892 -2.30406 0
M  V30 4608 H 432.199 3.00236 -2.65818 0
M  V30 4609 H 428.789 2.07407 -3.75074 0
M  V30 4610 H 432.973 1.70705 -4.66019 0
M  V30 4611 H 428.229 1.2274 -5.98953 0
M  V30 4612 H 432.403 0.869109 -6.90955 0
M  V30 4613 H 430.03 0.623624 -7.57638 0
M  V30 4614 N 431.605 1.3629 0.791371 0
M  V30 4615 C 433.016 1.27225 1.36641 0
M  V30 4616 C 433.367 -0.0887968 1.95999 0
M  V30 4617 O 432.492 -0.990207 1.92416 0
M  V30 4618 C 433.087 2.30375 2.48421 0
M  V30 4619 C 431.646 2.25004 3.01746 0
M  V30 4620 C 430.793 2.15259 1.7481 0
M  V30 4621 H 433.744 1.47198 0.593173 0
M  V30 4622 H 433.765 1.93905 3.27385 0
M  V30 4623 H 433.277 3.29422 2.05189 0
M  V30 4624 H 431.378 1.29417 3.49403 0
M  V30 4625 H 431.491 3.1761 3.58693 0
M  V30 4626 H 429.855 1.61482 1.96966 0
M  V30 4627 H 430.638 3.16191 1.33709 0
M  V30 4628 N 433.083 -1.0153 1.20538 0
M  V30 4629 C 434.03 -2.10098 0.955383 0
M  V30 4630 C 435 -1.65702 -0.114878 0
M  V30 4631 O 436.185 -1.90776 0.0301118 0
M  V30 4632 C 433.325 -3.41236 0.514969 0
M  V30 4633 C 432.438 -3.99102 1.65353 0
M  V30 4634 C 431.573 -5.18306 1.16329 0
M  V30 4635 C 430.612 -5.68258 2.27485 0
M  V30 4636 N 429.749 -6.78722 1.7967 0
M  V30 4637 H 434.589 -2.30818 1.88486 0
M  V30 4638 H 432.126 -1.13189 0.939499 0
M  V30 4639 H 434.084 -4.16504 0.240935 0
M  V30 4640 H 432.714 -3.20585 -0.377512 0
M  V30 4641 H 431.766 -3.20918 2.04245 0
M  V30 4642 H 433.078 -4.32177 2.49047 0
M  V30 4643 H 432.232 -6.00782 0.845302 0
M  V30 4644 H 430.971 -4.86799 0.296254 0
M  V30 4645 H 429.976 -4.84385 2.60099 0
M  V30 4646 H 431.201 -6.01798 3.14667 0
M  V30 4647 H 429.147 -6.49042 0.95295 0
M  V30 4648 H 429.064 -7.10996 2.56944 0
M  V30 4649 H 430.332 -7.64759 1.50875 0
M  V30 4650 N 434.561 -1.01147 -1.20859 0
M  V30 4651 C 435.789 -0.716911 -1.94082 0
M  V30 4652 C 436.204 0.721568 -1.74467 0
M  V30 4653 O 435.561 1.48889 -1.05539 0
M  V30 4654 C 435.612 -1.03662 -3.46318 0
M  V30 4655 O 435.333 -2.4186 -3.65288 0
M  V30 4656 C 436.834 -0.762386 -4.36695 0
M  V30 4657 H 434.054 -0.26367 -0.617024 0
M  V30 4658 H 436.598 -1.35127 -1.53496 0
M  V30 4659 H 434.753 -0.447757 -3.84804 0
M  V30 4660 H 435.167 -2.53224 -4.59323 0
M  V30 4661 H 436.641 -1.03621 -5.42187 0
M  V30 4662 H 437.118 0.303514 -4.3815 0
M  V30 4663 H 437.724 -1.33316 -4.03865 0
M  V30 4664 N 436.039 1.36541 -0.78704 0
M  V30 4665 C 436.987 2.31965 -0.171724 0
M  V30 4666 C 437.981 1.55689 0.667631 0
M  V30 4667 O 439.187 1.70969 0.562981 0
M  V30 4668 H 435.562 0.751101 -0.0367545 0
M  V30 4669 H 437.533 2.81428 -0.992017 0
M  V30 4670 C 436.282 3.40968 0.680904 0
M  V30 4671 H 435.605 3.99775 0.0443961 0
M  V30 4672 H 437.045 4.10063 1.07815 0
M  V30 4673 C 435.504 2.82338 1.83813 0
M  V30 4674 O 436.034 2.74311 2.93456 0
M  V30 4675 N 434.24 2.39661 1.6435 0
M  V30 4676 H 433.787 2.46389 0.751668 0
M  V30 4677 H 433.745 2.00779 2.4194 0
M  V30 4678 N 437.518 0.538854 1.48102 0
M  V30 4679 C 438.468 -0.23907 2.26743 0
M  V30 4680 C 439.452 -0.901923 1.33245 0
M  V30 4681 O 440.644 -0.803263 1.57723 0
M  V30 4682 C 437.773 -1.2799 3.18549 0
M  V30 4683 C 436.859 -0.621388 4.19523 0
M  V30 4684 N 437.25 0.298004 5.04921 0
M  V30 4685 C 435.548 -0.877533 4.37282 0
M  V30 4686 C 436.249 0.678757 5.77726 0
M  V30 4687 N 435.225 0.0377881 5.43587 0
M  V30 4688 H 439.027 0.468096 2.90148 0
M  V30 4689 H 436.541 0.357497 1.58416 0
M  V30 4690 H 438.538 -1.851 3.73555 0
M  V30 4691 H 437.198 -1.98835 2.567 0
M  V30 4692 H 438.209 0.671126 5.13533 0
M  V30 4693 H 434.886 -1.57588 3.86616 0
M  V30 4694 H 436.276 1.43316 6.56437 0
M  V30 4695 N 438.996 -1.55193 0.274407 0
M  V30 4696 C 439.946 -2.19184 -0.627882 0
M  V30 4697 C 440.93 -1.15625 -1.11892 0
M  V30 4698 O 442.122 -1.41441 -1.06411 0
M  V30 4699 C 439.251 -2.91591 -1.81189 0
M  V30 4700 C 438.337 -4.02438 -1.33807 0
M  V30 4701 N 438.728 -5.0246 -0.580349 0
M  V30 4702 C 437.026 -4.15496 -1.62109 0
M  V30 4703 C 437.727 -5.80756 -0.331344 0
M  V30 4704 N 436.703 -5.36038 -0.903556 0
M  V30 4705 H 440.505 -2.93871 -0.0411216 0
M  V30 4706 H 438.019 -1.62213 0.0779348 0
M  V30 4707 H 440.016 -3.35883 -2.46957 0
M  V30 4708 H 438.676 -2.18414 -2.40261 0
M  V30 4709 H 439.687 -5.17399 -0.227762 0
M  V30 4710 H 436.364 -3.53509 -2.22121 0
M  V30 4711 H 437.754 -6.71335 0.275454 0
M  V30 4712 N 440.474 -0.00167713 -1.576 0
M  V30 4713 C 441.89 0.354422 -1.55615 0
M  V30 4714 C 442.09 1.74679 -1.00447 0
M  V30 4715 O 441.146 2.4428 -0.639022 0
M  V30 4716 C 442.459 0.22812 -2.99833 0
M  V30 4717 C 444.007 0.302934 -3.11531 0
M  V30 4718 C 444.482 0.205737 -4.57538 0
M  V30 4719 N 445.973 0.263584 -4.62449 0
M  V30 4720 C 446.708 0.211742 -5.73009 0
M  V30 4721 N 446.204 0.110399 -6.92712 0
M  V30 4722 N 447.997 0.263729 -5.61481 0
M  V30 4723 H 440.148 -0.912498 -1.918 0
M  V30 4724 H 442.411 -0.349928 -0.881053 0
M  V30 4725 H 442.117 -0.729934 -3.44042 0
M  V30 4726 H 441.991 1.00951 -3.6344 0
M  V30 4727 H 444.378 1.25143 -2.67251 0
M  V30 4728 H 444.459 -0.508357 -2.50698 0
M  V30 4729 H 444.103 -0.739225 -5.02492 0
M  V30 4730 H 444.033 1.03554 -5.16318 0
M  V30 4731 H 446.524 0.343173 -3.76339 0
M  V30 4732 H 446.837 0.0767828 -7.72762 0
M  V30 4733 H 445.182 0.0760025 -6.94958 0
M  V30 4734 H 448.373 0.34111 -4.66855 0
M  V30 4735 H 448.546 0.219862 -6.47627 0
M  V30 4736 N 441.952 1.55251 0.271103 0
M  V30 4737 C 442.884 1.84675 1.35749 0
M  V30 4738 C 443.897 0.731366 1.45447 0
M  V30 4739 O 445.086 1.00924 1.4723 0
M  V30 4740 C 442.186 1.99638 2.73857 0
M  V30 4741 C 441.359 3.30312 2.86727 0
M  V30 4742 C 440.418 3.35318 4.05522 0
M  V30 4743 O 439.444 4.08682 3.96191 0
M  V30 4744 N 440.646 2.62857 5.17577 0
M  V30 4745 H 443.411 2.78445 1.10853 0
M  V30 4746 H 440.972 1.55191 0.461218 0
M  V30 4747 H 442.964 2.00355 3.51625 0
M  V30 4748 H 441.534 1.12725 2.91568 0
M  V30 4749 H 440.754 3.42118 1.95829 0
M  V30 4750 H 442.042 4.16488 2.92258 0
M  V30 4751 H 441.44 2.02939 5.28046 0
M  V30 4752 H 439.997 2.69295 5.93568 0
M  V30 4753 N 443.43 -0.535701 1.48216 0
M  V30 4754 C 444.67 -1.30238 1.57536 0
M  V30 4755 C 445.034 -1.90479 0.241229 0
M  V30 4756 O 446.235 -2.67983 0.20938 0
M  V30 4757 C 444.506 -2.3669 2.67792 0
M  V30 4758 S 446.065 -3.23159 2.9684 0
M  V30 4759 H 442.883 -0.443093 0.556048 0
M  V30 4760 H 445.485 -0.610937 1.85709 0
M  V30 4761 H 444.189 -1.90905 3.63296 0
M  V30 4762 H 443.72 -3.10548 2.41502 0
M  V30 4763 H 445.735 -4.36647 2.35699 0
M  V30 4764 N 444.908 -1.36708 -0.784132 0
M  V30 4765 C 445.838 -1.34153 -1.91116 0
M  V30 4766 C 446.819 -0.212121 -1.68772 0
M  V30 4767 O 448.004 -0.410581 -1.8981 0
M  V30 4768 C 445.134 -1.13535 -3.28218 0
M  V30 4769 C 444.088 -2.23356 -3.65097 0
M  V30 4770 C 443.414 -1.87875 -5.00607 0
M  V30 4771 C 444.714 -3.65473 -3.73131 0
M  V30 4772 H 446.408 -2.28459 -1.93512 0
M  V30 4773 H 443.954 -1.09973 -0.929618 0
M  V30 4774 H 445.907 -1.10381 -4.06687 0
M  V30 4775 H 444.631 -0.156804 -3.26223 0
M  V30 4776 H 443.29 -2.25645 -2.88929 0
M  V30 4777 H 442.938 -0.885814 -4.95139 0
M  V30 4778 H 442.638 -2.61406 -5.26252 0
M  V30 4779 H 444.162 -1.86286 -5.81489 0
M  V30 4780 H 445.576 -3.65382 -4.41779 0
M  V30 4781 H 443.973 -4.37953 -4.10265 0
M  V30 4782 H 445.043 -3.99995 -2.74102 0
M  V30 4783 N 446.386 1.0089 -1.21074 0
M  V30 4784 C 447.296 2.13039 -0.982425 0
M  V30 4785 C 448.312 1.73881 0.0642161 0
M  V30 4786 O 449.488 2.01012 -0.12496 0
M  V30 4787 C 446.553 3.42377 -0.545803 0
M  V30 4788 C 445.614 3.95731 -1.6642 0
M  V30 4789 C 444.847 5.18896 -1.24832 0
M  V30 4790 O 445.07 5.70273 -0.120265 0
M  V30 4791 O 444.004 5.65597 -2.05873 0
M  V30 4792 H 447.83 2.35175 -1.92163 0
M  V30 4793 H 445.415 1.1142 -0.995285 0
M  V30 4794 H 447.297 4.20244 -0.311912 0
M  V30 4795 H 445.972 3.21639 0.364727 0
M  V30 4796 H 444.879 3.19108 -1.95246 0
M  V30 4797 H 446.212 4.20872 -2.55201 0
M  V30 4798 N 447.864 1.01787 1.20321 0
M  V30 4799 C 448.811 0.589197 2.23153 0
M  V30 4800 C 449.781 -0.391367 1.61423 0
M  V30 4801 O 450.966 -0.290518 1.88575 0
M  V30 4802 C 448.106 -0.0650747 3.45039 0
M  V30 4803 C 447.219 0.960207 4.21194 0
M  V30 4804 C 446.354 0.276854 5.30478 0
M  V30 4805 C 445.393 1.2888 5.98378 0
M  V30 4806 N 444.53 0.632031 6.99249 0
M  V30 4807 H 449.37 1.47071 2.59179 0
M  V30 4808 H 446.907 0.736192 1.27352 0
M  V30 4809 H 448.865 -0.461552 4.14639 0
M  V30 4810 H 447.495 -0.910233 3.09701 0
M  V30 4811 H 446.547 1.47484 3.50646 0
M  V30 4812 H 447.859 1.72977 4.67847 0
M  V30 4813 H 447.013 -0.175056 6.06447 0
M  V30 4814 H 445.752 -0.525004 4.84866 0
M  V30 4815 H 444.757 1.75109 5.21169 0
M  V30 4816 H 445.982 2.09196 6.46076 0
M  V30 4817 H 443.928 -0.149935 6.55829 0
M  V30 4818 H 443.845 1.33964 7.44036 0
M  V30 4819 H 445.113 0.203755 7.79234 0
M  V30 4820 N 449.342 -1.36122 0.79427 0
M  V30 4821 C 450.252 -2.33769 0.197296 0
M  V30 4822 C 451.268 -1.61276 -0.653153 0
M  V30 4823 O 452.444 -1.9323 -0.5678 0
M  V30 4824 C 449.509 -3.40474 -0.654098 0
M  V30 4825 C 448.57 -4.28759 0.215411 0
M  V30 4826 C 447.803 -5.30368 -0.595443 0
M  V30 4827 O 448.026 -5.40211 -1.83107 0
M  V30 4828 O 446.96 -6.019 0.00721351 0
M  V30 4829 H 450.786 -2.86597 1.00478 0
M  V30 4830 H 448.371 -1.38676 0.555818 0
M  V30 4831 H 450.253 -4.05703 -1.13944 0
M  V30 4832 H 448.928 -2.89937 -1.43938 0
M  V30 4833 H 447.835 -3.66554 0.747615 0
M  V30 4834 H 449.168 -4.82661 0.964332 0
M  V30 4835 N 450.82 -0.546701 -1.47814 0
M  V30 4836 C 451.73 0.21026 -2.33656 0
M  V30 4837 C 452.746 0.922413 -1.47538 0
M  V30 4838 O 453.922 0.893652 -1.80488 0
M  V30 4839 C 450.987 1.23348 -3.24016 0
M  V30 4840 C 450.048 0.529883 -4.26017 0
M  V30 4841 C 449.281 1.50435 -5.12059 0
M  V30 4842 O 449.504 2.73837 -5.00369 0
M  V30 4843 O 448.438 1.03459 -5.92942 0
M  V30 4844 H 452.264 -0.493605 -2.99662 0
M  V30 4845 H 449.849 -0.307427 -1.46203 0
M  V30 4846 H 451.731 1.82438 -3.79861 0
M  V30 4847 H 450.406 1.91945 -2.60651 0
M  V30 4848 H 449.313 -0.101948 -3.73961 0
M  V30 4849 H 450.646 -0.11445 -4.92067 0
M  V30 4850 N 452.299 1.55045 -0.282633 0
M  V30 4851 C 453.247 2.24254 0.617478 0
M  V30 4852 C 454.241 1.24215 1.15183 0
M  V30 4853 O 455.447 1.42123 1.10459 0
M  V30 4854 H 451.822 0.719801 0.217693 0
M  V30 4855 H 453.793 2.98398 0.0110076 0
M  V30 4856 C 452.542 2.98281 1.78672 0
M  V30 4857 H 451.865 3.75053 1.38475 0
M  V30 4858 H 453.305 3.50017 2.393 0
M  V30 4859 C 451.764 2.04184 2.67975 0
M  V30 4860 O 452.294 1.59792 3.6855 0
M  V30 4861 N 450.5 1.70526 2.35307 0
M  V30 4862 H 450.047 2.06821 1.53567 0
M  V30 4863 H 450.005 1.07839 2.95327 0
M  V30 4864 N 453.777 0.010035 1.57597 0
M  V30 4865 C 455.023 -0.668011 1.92118 0
M  V30 4866 C 455.378 -1.70821 0.885328 0
M  V30 4867 O 454.671 -1.91333 -0.101187 0
M  V30 4868 C 454.865 -1.34434 3.31153 0
M  V30 4869 C 454.694 -0.371176 4.48166 0
M  V30 4870 C 453.464 0.0220686 5.05295 0
M  V30 4871 C 455.662 0.366731 5.12991 0
M  V30 4872 N 453.644 0.9924 6.05826 0
M  V30 4873 C 455.015 1.19142 6.08445 0
M  V30 4874 C 457.07 0.429489 4.96044 0
M  V30 4875 C 455.773 2.07317 6.88776 0
M  V30 4876 C 457.799 1.2985 5.76969 0
M  V30 4877 C 457.161 2.11101 6.72023 0
M  V30 4878 H 453.26 -0.217337 0.751192 0
M  V30 4879 H 455.844 0.0727375 1.94564 0
M  V30 4880 H 454.015 -2.05533 3.29561 0
M  V30 4881 H 455.747 -1.97789 3.53075 0
M  V30 4882 H 452.502 -0.348409 4.72317 0
M  V30 4883 H 452.926 1.47324 6.60776 0
M  V30 4884 H 457.568 -0.18442 4.22398 0
M  V30 4885 H 455.286 2.69771 7.61741 0
M  V30 4886 H 458.872 1.3511 5.65894 0
M  V30 4887 H 457.752 2.77257 7.33552 0
M  V30 4888 N 455.255 -1.55392 -0.262866 0
M  V30 4889 C 456.202 -1.88966 -1.32516 0
M  V30 4890 C 457.172 -0.742187 -1.48596 0
M  V30 4891 O 458.357 -0.99439 -1.62839 0
M  V30 4892 C 455.497 -2.17592 -2.67858 0
M  V30 4893 C 454.61 -3.45061 -2.59917 0
M  V30 4894 C 453.745 -3.63336 -3.87505 0
M  V30 4895 C 452.784 -4.84462 -3.74116 0
M  V30 4896 N 451.921 -4.99342 -4.93561 0
M  V30 4897 H 456.761 -2.79566 -1.03184 0
M  V30 4898 H 454.298 -1.38404 -0.498285 0
M  V30 4899 H 456.256 -2.3219 -3.46617 0
M  V30 4900 H 454.886 -1.30215 -2.95371 0
M  V30 4901 H 453.938 -3.38881 -1.72812 0
M  V30 4902 H 455.25 -4.3396 -2.45926 0
M  V30 4903 H 454.404 -3.77807 -4.74707 0
M  V30 4904 H 453.143 -2.72641 -4.04374 0
M  V30 4905 H 452.148 -4.69985 -2.85297 0
M  V30 4906 H 453.373 -5.76603 -3.58757 0
M  V30 4907 H 451.319 -4.1158 -5.10821 0
M  V30 4908 H 451.236 -5.82303 -4.82141 0
M  V30 4909 H 452.504 -5.18208 -5.82306 0
M  V30 4910 N 456.733 0.527833 -1.48498 0
M  V30 4911 C 457.958 1.313 -1.60546 0
M  V30 4912 C 458.383 1.86199 -0.26672 0
M  V30 4913 O 457.741 1.64513 0.761918 0
M  V30 4914 C 457.789 2.43818 -2.65678 0
M  V30 4915 O 456.893 3.46916 -2.22987 0
M  V30 4916 H 456.234 0.388784 -0.538277 0
M  V30 4917 H 458.764 0.634896 -1.945 0
M  V30 4918 H 458.774 2.89973 -2.87018 0
M  V30 4919 H 457.449 2.03222 -3.62869 0
M  V30 4920 H 456.026 3.06864 -2.11869 0
M  V30 4921 N 458.211 1.37122 0.776871 0
M  V30 4922 C 459.158 1.3247 1.88998 0
M  V30 4923 C 460.128 0.191143 1.64997 0
M  V30 4924 O 461.313 0.379683 1.86984 0
M  V30 4925 C 458.453 1.13241 3.25992 0
M  V30 4926 C 457.566 2.35782 3.61982 0
M  V30 4927 C 456.701 2.09465 4.88158 0
M  V30 4928 C 455.74 3.279 5.16864 0
M  V30 4929 N 454.877 3.01167 6.34226 0
M  V30 4930 H 459.717 2.27642 1.9231 0
M  V30 4931 H 457.254 1.13125 0.94027 0
M  V30 4932 H 459.212 1.00115 4.0501 0
M  V30 4933 H 457.842 0.217186 3.22069 0
M  V30 4934 H 456.894 2.59666 2.77989 0
M  V30 4935 H 458.206 3.24125 3.79137 0
M  V30 4936 H 457.36 1.93341 5.75069 0
M  V30 4937 H 456.099 1.18452 4.73097 0
M  V30 4938 H 455.104 3.44569 4.2843 0
M  V30 4939 H 456.329 4.19757 5.33836 0
M  V30 4940 H 454.275 2.12779 6.20533 0
M  V30 4941 H 454.192 3.83052 6.51772 0
M  V30 4942 H 455.46 2.88649 7.24087 0
M  V30 4943 N 459.689 -1.00246 1.21608 0
M  V30 4944 C 460.599 -2.12515 0.993709 0
M  V30 4945 C 461.615 -1.73913 -0.0549939 0
M  V30 4946 O 462.791 -2.00943 0.135619 0
M  V30 4947 C 459.856 -3.42083 0.563953 0
M  V30 4948 C 458.917 -3.94843 1.68516 0
M  V30 4949 C 458.15 -5.18226 1.27582 0
M  V30 4950 O 458.373 -5.70201 0.150506 0
M  V30 4951 O 457.307 -5.64497 2.0887 0
M  V30 4952 H 461.133 -2.34152 1.93407 0
M  V30 4953 H 458.718 -1.10891 1.00118 0
M  V30 4954 H 460.6 -4.20073 0.334194 0
M  V30 4955 H 459.275 -3.21828 -0.347665 0
M  V30 4956 H 458.182 -3.18068 1.96935 0
M  V30 4957 H 459.515 -4.19512 2.5743 0
M  V30 4958 N 461.167 -1.02423 -1.1978 0
M  V30 4959 C 462.416 -0.713265 -1.88667 0
M  V30 4960 C 462.729 0.7609 -1.80193 0
M  V30 4961 O 463.935 1.18473 -2.44288 0
M  V30 4962 C 462.391 -1.22545 -3.38394 0
M  V30 4963 C 461.999 -2.72706 -3.55437 0
M  V30 4964 C 463.743 -0.990257 -4.12788 0
M  V30 4965 C 461.65 -3.17367 -4.99031 0
M  V30 4966 H 460.58 -0.263105 -0.706606 0
M  V30 4967 H 463.231 -1.23792 -1.35454 0
M  V30 4968 H 461.613 -0.628732 -3.90977 0
M  V30 4969 H 462.787 -3.37993 -3.13205 0
M  V30 4970 H 461.102 -2.94453 -2.94425 0
M  V30 4971 H 463.699 -1.29926 -5.18675 0
M  V30 4972 H 464.042 0.0730761 -4.16236 0
M  V30 4973 H 464.575 -1.55074 -3.66329 0
M  V30 4974 H 461.314 -4.23009 -5.00743 0
M  V30 4975 H 460.834 -2.56805 -5.42044 0
M  V30 4976 H 462.513 -3.10441 -5.67658 0
M  V30 4977 N 462.645 1.35699 -0.801477 0
M  V30 4978 C 463.555 2.33661 -0.209691 0
M  V30 4979 C 464.571 1.6162 0.644591 0
M  V30 4980 O 465.747 1.93529 0.557545 0
M  V30 4981 C 462.812 3.40816 0.636033 0
M  V30 4982 C 461.873 4.28639 -0.238147 0
M  V30 4983 C 461.106 5.30676 0.567307 0
M  V30 4984 O 461.329 5.41174 1.8024 0
M  V30 4985 O 460.263 6.01887 -0.0391336 0
M  V30 4986 H 464.089 2.8606 -1.01996 0
M  V30 4987 H 461.674 1.38379 -0.563164 0
M  V30 4988 H 463.556 4.06301 1.11791 0
M  V30 4989 H 462.231 2.90696 1.42399 0
M  V30 4990 H 461.138 3.66152 -0.767044 0
M  V30 4991 H 462.471 4.82143 -0.989915 0
M  V30 4992 N 464.123 0.554532 1.47522 0
M  V30 4993 C 465.033 -0.197865 2.33764 0
M  V30 4994 C 466.049 -0.914576 1.48025 0
M  V30 4995 O 467.225 -0.884067 1.80959 0
M  V30 4996 C 464.29 -1.21628 3.24665 0
M  V30 4997 C 463.351 -0.507283 4.26292 0
M  V30 4998 C 462.584 -1.47718 5.1285 0
M  V30 4999 O 462.807 -2.7118 5.01814 0
M  V30 5000 O 461.741 -1.00313 5.93482 0
M  V30 5001 H 465.567 0.50949 2.99396 0
M  V30 5002 H 463.152 0.315176 1.46038 0
M  V30 5003 H 465.034 -1.80421 3.80823 0
M  V30 5004 H 463.709 -1.9056 2.61665 0
M  V30 5005 H 462.616 0.121778 3.73902 0
M  V30 5006 H 463.949 0.140544 4.91999 0
M  V30 5007 N 465.601 -1.54893 0.290851 0
M  V30 5008 C 466.841 -2.01842 -0.322388 0
M  V30 5009 C 467.205 -1.17477 -1.51865 0
M  V30 5010 O 468.406 -1.54077 -2.20258 0
M  V30 5011 C 466.677 -3.50874 -0.679844 0
M  V30 5012 S 468.236 -4.19796 -1.27739 0
M  V30 5013 H 465.054 -0.704005 -0.0994866 0
M  V30 5014 H 467.656 -1.91015 0.416358 0
M  V30 5015 H 466.36 -4.09915 0.199435 0
M  V30 5016 H 465.891 -3.65717 -1.44964 0
M  V30 5017 H 467.906 -4.24729 -2.56554 0
M  V30 5018 N 467.08 -0.0183926 -1.57589 0
M  V30 5019 C 468.028 0.985111 -2.10709 0
M  V30 5020 C 469.022 1.34397 -1.0312 0
M  V30 5021 O 470.228 1.32746 -1.21567 0
M  V30 5022 H 466.603 0.335418 -0.673052 0
M  V30 5023 H 468.574 0.511689 -2.9398 0
M  V30 5024 C 467.323 2.26202 -2.64061 0
M  V30 5025 H 466.646 1.9946 -3.4649 0
M  V30 5026 H 468.086 2.94652 -3.04887 0
M  V30 5027 C 466.545 2.98444 -1.5631 0
M  V30 5028 O 467.075 3.90142 -0.956674 0
M  V30 5029 N 465.281 2.6059 -1.28612 0
M  V30 5030 H 464.828 1.86101 -1.78112 0
M  V30 5031 H 464.786 3.09238 -0.567406 0
M  V30 5032 N 468.558 1.5553 0.254621 0
M  V30 5033 C 469.505 1.89666 1.31512 0
M  V30 5034 C 470.475 0.750057 1.482 0
M  V30 5035 O 471.66 1.00301 1.62309 0
M  V30 5036 C 468.8 2.19009 2.667 0
M  V30 5037 C 467.913 3.46435 2.58083 0
M  V30 5038 C 467.048 3.65386 3.85573 0
M  V30 5039 C 466.087 4.8644 3.71541 0
M  V30 5040 N 465.224 5.01952 4.90906 0
M  V30 5041 H 470.064 2.80109 1.017 0
M  V30 5042 H 467.601 1.38666 0.490938 0
M  V30 5043 H 469.559 2.34025 3.45381 0
M  V30 5044 H 468.189 1.31779 2.94676 0
M  V30 5045 H 467.241 3.39792 1.71013 0
M  V30 5046 H 468.553 4.35258 2.43622 0
M  V30 5047 H 467.707 3.80319 4.72697 0
M  V30 5048 H 466.446 2.74781 4.02922 0
M  V30 5049 H 465.451 4.71491 2.82801 0
M  V30 5050 H 466.676 5.78497 3.55694 0
M  V30 5051 H 464.622 4.14283 5.08631 0
M  V30 5052 H 464.539 5.84851 4.79046 0
M  V30 5053 H 465.807 5.21289 5.7955 0
M  V30 5054 N 470.036 -0.519951 1.48776 0
M  V30 5055 C 471.285 -1.27175 1.56555 0
M  V30 5056 C 471.598 -1.9401 0.248869 0
M  V30 5057 O 472.804 -2.70725 0.205004 0
M  V30 5058 C 471.26 -2.30811 2.76142 0
M  V30 5059 C 470.868 -1.7 4.14493 0
M  V30 5060 C 472.612 -3.06937 2.9324 0
M  V30 5061 C 470.519 -2.71635 5.25327 0
M  V30 5062 H 469.449 -0.478329 0.582853 0
M  V30 5063 H 472.1 -0.547916 1.75129 0
M  V30 5064 H 470.482 -3.06274 2.51023 0
M  V30 5065 H 471.656 -1.00658 4.49672 0
M  V30 5066 H 469.971 -1.06331 4.02595 0
M  V30 5067 H 472.568 -3.82905 3.73213 0
M  V30 5068 H 472.911 -3.63409 2.03075 0
M  V30 5069 H 473.444 -2.38589 3.18308 0
M  V30 5070 H 470.183 -2.1997 6.1749 0
M  V30 5071 H 469.703 -3.39275 4.94624 0
M  V30 5072 H 471.382 -3.34429 5.53865 0
M  V30 5073 N 471.514 -1.37532 -0.769588 0
M  V30 5074 C 472.424 -1.35668 -1.91393 0
M  V30 5075 C 473.44 -0.255954 -1.72107 0
M  V30 5076 O 474.616 -0.491704 -1.95305 0
M  V30 5077 C 471.681 -1.16481 -3.26547 0
M  V30 5078 C 470.742 -2.36212 -3.58472 0
M  V30 5079 C 469.975 -2.17932 -4.87177 0
M  V30 5080 O 470.198 -1.1647 -5.58382 0
M  V30 5081 O 469.132 -3.06167 -5.18214 0
M  V30 5082 H 472.958 -2.32055 -1.95918 0
M  V30 5083 H 470.543 -1.18284 -0.912641 0
M  V30 5084 H 472.425 -1.07778 -4.07384 0
M  V30 5085 H 471.1 -0.231687 -3.2287 0
M  V30 5086 H 470.007 -2.50488 -2.77861 0
M  V30 5087 H 471.34 -3.281 -3.66894 0
M  V30 5088 N 472.992 0.995999 -1.22138 0
M  V30 5089 C 474.241 1.72928 -1.03821 0
M  V30 5090 C 474.554 1.90872 0.427444 0
M  V30 5091 O 475.76 2.61496 0.730212 0
M  V30 5092 C 474.216 3.11124 -1.80913 0
M  V30 5093 C 473.824 3.01122 -3.31707 0
M  V30 5094 C 475.568 3.8852 -1.71035 0
M  V30 5095 C 473.475 4.34453 -4.01253 0
M  V30 5096 H 472.405 0.648376 -0.384869 0
M  V30 5097 H 475.056 1.11213 -1.45959 0
M  V30 5098 H 473.438 3.73503 -1.31573 0
M  V30 5099 H 474.612 2.47926 -3.88419 0
M  V30 5100 H 472.927 2.3721 -3.42228 0
M  V30 5101 H 475.524 4.872 -2.20318 0
M  V30 5102 H 475.867 4.1087 -0.670196 0
M  V30 5103 H 476.4 3.32812 -2.17902 0
M  V30 5104 H 473.139 4.17303 -5.05508 0
M  V30 5105 H 472.659 4.87574 -3.49331 0
M  V30 5106 H 474.338 5.03215 -4.06674 0
M  V30 5107 N 474.47 1.03057 1.19235 0
M  V30 5108 C 475.698 0.747697 1.92917 0
M  V30 5109 C 476.113 -0.69372 1.75593 0
M  V30 5110 O 475.47 -1.47191 1.07894 0
M  V30 5111 C 475.521 1.09159 3.44625 0
M  V30 5112 O 475.242 2.47641 3.61394 0
M  V30 5113 C 476.743 0.831763 4.35427 0
M  V30 5114 H 473.963 0.273453 0.612751 0
M  V30 5115 H 476.507 1.37552 1.51327 0
M  V30 5116 H 474.662 0.508919 3.84043 0
M  V30 5117 H 475.076 2.60499 4.55237 0
M  V30 5118 H 476.55 1.12233 5.4047 0
M  V30 5119 H 477.027 -0.233769 4.38577 0
M  V30 5120 H 477.633 1.39725 4.01693 0
M  V30 5121 N 475.948 -1.35272 0.808662 0
M  V30 5122 C 476.898 -2.27181 0.193124 0
M  V30 5123 C 477.882 -1.47871 -0.634265 0
M  V30 5124 O 479.074 -1.70048 -0.491182 0
M  V30 5125 C 476.203 -3.36979 -0.655751 0
M  V30 5126 C 475.289 -4.23712 0.181481 0
M  V30 5127 N 475.68 -4.90225 1.24551 0
M  V30 5128 C 473.978 -4.45985 -0.0365493 0
M  V30 5129 C 474.679 -5.54537 1.75682 0
M  V30 5130 N 473.655 -5.33107 1.06294 0
M  V30 5131 H 477.457 -2.76101 1.00724 0
M  V30 5132 H 474.971 -1.48823 0.650029 0
M  V30 5133 H 476.968 -4.01774 -1.11279 0
M  V30 5134 H 475.628 -2.89611 -1.46819 0
M  V30 5135 H 476.639 -4.91641 1.62818 0
M  V30 5136 H 473.316 -4.09409 -0.817964 0
M  V30 5137 H 474.706 -6.17597 2.64621 0
M  V30 5138 N 477.426 -0.562348 -1.47226 0
M  V30 5139 C 478.673 -0.0402165 -2.0246 0
M  V30 5140 C 479.001 1.31169 -1.43614 0
M  V30 5141 O 478.256 1.86805 -0.5833 0
M  V30 5142 C 478.555 0.0969817 -3.57268 0
M  V30 5143 C 478.221 -1.1847 -4.35058 0
M  V30 5144 C 476.883 -1.53588 -4.56031 0
M  V30 5145 C 479.235 -2.03378 -4.79882 0
M  V30 5146 C 476.563 -2.73452 -5.19077 0
M  V30 5147 C 478.915 -3.2245 -5.44251 0
M  V30 5148 C 477.579 -3.57876 -5.63455 0
M  V30 5149 H 476.849 -0.0147163 -0.740854 0
M  V30 5150 H 479.496 -0.734895 -1.76838 0
M  V30 5151 H 477.801 0.87466 -3.81912 0
M  V30 5152 H 479.498 0.516408 -3.97661 0
M  V30 5153 H 476.088 -0.90126 -4.19017 0
M  V30 5154 H 480.272 -1.77553 -4.63453 0
M  V30 5155 H 475.528 -3.01062 -5.32139 0
M  V30 5156 H 479.702 -3.88526 -5.77945 0
M  V30 5157 H 477.329 -4.50849 -6.12078 0
M  V30 5158 N 478.904 1.54736 -0.299062 0
M  V30 5159 C 479.814 2.27127 0.587413 0
M  V30 5160 C 480.83 1.30575 1.15005 0
M  V30 5161 O 482.006 1.63554 1.17525 0
M  V30 5162 C 479.071 2.99645 1.74395 0
M  V30 5163 C 478.132 4.11731 1.21559 0
M  V30 5164 C 477.365 4.80781 2.317 0
M  V30 5165 O 477.588 4.4918 3.51558 0
M  V30 5166 O 476.522 5.68226 1.98501 0
M  V30 5167 H 480.348 3.037 0.000250109 0
M  V30 5168 H 477.933 1.49256 -0.0655919 0
M  V30 5169 H 479.815 3.45138 2.4178 0
M  V30 5170 H 478.49 2.25969 2.31775 0
M  V30 5171 H 477.397 3.70641 0.507514 0
M  V30 5172 H 478.73 4.87379 0.687233 0
M  V30 5173 N 480.382 0.0267497 1.57577 0
M  V30 5174 C 481.329 -0.955894 2.10075 0
M  V30 5175 C 482.299 -1.32453 1.00226 0
M  V30 5176 O 483.484 -1.41826 1.27632 0
M  V30 5177 C 480.624 -2.2338 2.6305 0
M  V30 5178 C 479.737 -1.92183 3.86898 0
M  V30 5179 C 478.872 -3.14251 4.28275 0
M  V30 5180 C 477.911 -2.78862 5.44888 0
M  V30 5181 N 477.048 -3.93548 5.81433 0
M  V30 5182 H 481.888 -0.501303 2.93753 0
M  V30 5183 H 479.425 -0.235847 1.45197 0
M  V30 5184 H 481.383 -2.98124 2.91853 0
M  V30 5185 H 480.013 -2.6646 1.82205 0
M  V30 5186 H 479.065 -1.07692 3.64838 0
M  V30 5187 H 480.377 -1.62117 4.7172 0
M  V30 5188 H 479.531 -3.97317 4.58502 0
M  V30 5189 H 478.27 -3.47476 3.42215 0
M  V30 5190 H 477.275 -1.94208 5.14357 0
M  V30 5191 H 478.5 -2.46855 6.32645 0
M  V30 5192 H 476.446 -4.2662 4.98328 0
M  V30 5193 H 476.363 -3.67098 6.6089 0
M  V30 5194 H 477.631 -4.77325 6.16264 0
M  V30 5195 N 481.861 -1.55662 -0.24637 0
M  V30 5196 C 483.109 -1.77168 -0.972411 0
M  V30 5197 C 483.43 -0.590827 -1.85834 0
M  V30 5198 O 482.7 0.393365 -1.9191 0
M  V30 5199 H 481.28 -0.653405 -0.362038 0
M  V30 5200 H 483.942 -1.93101 -0.264189 0
M  V30 5201 H 483.038 -2.68335 -1.59382 0
M  V30 5202 N 483.339 0.512053 -1.4905 0
M  V30 5203 C 484.271 1.63121 -1.6101 0
M  V30 5204 C 485.284 1.55145 -0.493352 0
M  V30 5205 O 486.473 1.61278 -0.764955 0
M  V30 5206 C 483.573 3.01863 -1.54052 0
M  V30 5207 C 482.746 3.35138 -2.81072 0
M  V30 5208 C 481.805 4.5324 -2.67319 0
M  V30 5209 O 480.831 4.55571 -3.41238 0
M  V30 5210 N 482.033 5.52495 -1.78127 0
M  V30 5211 H 484.798 1.53292 -2.5753 0
M  V30 5212 H 482.359 0.699706 -1.45999 0
M  V30 5213 H 484.351 3.78774 -1.42521 0
M  V30 5214 H 482.921 3.05675 -0.654345 0
M  V30 5215 H 482.141 2.4723 -3.07036 0
M  V30 5216 H 483.429 3.54162 -3.65304 0
M  V30 5217 H 482.827 5.53403 -1.17308 0
M  V30 5218 H 481.384 6.28553 -1.72525 0
M  V30 5219 N 484.817 1.37938 0.762283 0
M  V30 5220 C 486.042 1.37059 1.55659 0
M  V30 5221 C 486.467 -0.0396123 1.88058 0
M  V30 5222 O 485.825 -1.01929 1.49934 0
M  V30 5223 C 485.873 2.22494 2.83776 0
M  V30 5224 O 484.977 1.63607 3.78559 0
M  V30 5225 H 484.318 0.467892 0.47114 0
M  V30 5226 H 486.848 1.81587 0.942725 0
M  V30 5227 H 486.858 2.36045 3.32786 0
M  V30 5228 H 485.533 3.24993 2.59524 0
M  V30 5229 H 484.11 1.5915 3.37233 0
M  V30 5230 N 486.295 -0.989507 1.22664 0
M  V30 5231 C 487.225 -2.09847 1.02404 0
M  V30 5232 C 488.206 -1.70007 -0.0561303 0
M  V30 5233 O 489.391 -1.93906 0.106748 0
M  V30 5234 C 486.521 -3.41996 0.604663 0
M  V30 5235 C 485.475 -3.95699 1.63115 0
M  V30 5236 C 484.801 -5.23936 1.0675 0
M  V30 5237 C 486.101 -4.25999 3.02196 0
M  V30 5238 H 487.795 -2.27054 1.95158 0
M  V30 5239 H 485.341 -1.09111 0.939727 0
M  V30 5240 H 487.294 -4.1899 0.45002 0
M  V30 5241 H 486.018 -3.24626 -0.35855 0
M  V30 5242 H 484.677 -3.2084 1.77362 0
M  V30 5243 H 484.325 -5.02909 0.0955422 0
M  V30 5244 H 484.025 -5.60833 1.75328 0
M  V30 5245 H 485.549 -6.0356 0.924516 0
M  V30 5246 H 486.963 -4.93777 2.91303 0
M  V30 5247 H 485.36 -4.74076 3.67929 0
M  V30 5248 H 486.43 -3.33636 3.51873 0
M  V30 5249 N 487.773 -1.03688 -1.18687 0
M  V30 5250 C 489.019 -0.739123 -1.88851 0
M  V30 5251 C 489.352 0.731042 -1.79915 0
M  V30 5252 O 488.627 1.53313 -1.19688 0
M  V30 5253 C 488.91 -1.20106 -3.3948 0
M  V30 5254 C 488.763 -2.73304 -3.57246 0
M  V30 5255 C 490.082 -0.788134 -4.32986 0
M  V30 5256 H 487.201 -0.269978 -0.68577 0
M  V30 5257 H 489.843 -1.28822 -1.3966 0
M  V30 5258 H 487.993 -0.733915 -3.81505 0
M  V30 5259 H 489.665 -3.28027 -3.24339 0
M  V30 5260 H 487.908 -3.13313 -3.00029 0
M  V30 5261 H 488.579 -3.00684 -4.62918 0
M  V30 5262 H 491.055 -1.19005 -3.98719 0
M  V30 5263 H 489.931 -1.13915 -5.36949 0
M  V30 5264 H 490.192 0.308988 -4.41019 0
M  V30 5265 N 489.251 1.34841 -0.815825 0
M  V30 5266 C 490.476 2.03261 -0.41226 0
M  V30 5267 C 490.901 1.61055 0.971751 0
M  V30 5268 O 490.259 0.7917 1.63101 0
M  V30 5269 C 490.307 3.56914 -0.514289 0
M  V30 5270 O 489.411 4.09728 0.468675 0
M  V30 5271 H 488.752 0.641664 -0.170771 0
M  V30 5272 H 491.282 1.72241 -1.10427 0
M  V30 5273 H 491.292 4.06156 -0.387457 0
M  V30 5274 H 489.967 3.86982 -1.52375 0
M  V30 5275 H 488.544 3.71681 0.301316 0
M  V30 5276 N 490.729 0.570148 1.46925 0
M  V30 5277 C 491.976 0.0509529 2.02436 0
M  V30 5278 C 492.304 -1.30405 1.44308 0
M  V30 5279 O 491.559 -1.86493 0.593198 0
M  V30 5280 C 491.858 -0.0780336 3.57315 0
M  V30 5281 C 491.524 1.20775 4.34424 0
M  V30 5282 C 490.186 1.56004 4.5521 0
M  V30 5283 C 492.538 2.0592 4.78797 0
M  V30 5284 C 489.866 2.76201 5.17619 0
M  V30 5285 C 492.218 3.25332 5.42533 0
M  V30 5286 C 490.882 3.60859 5.61549 0
M  V30 5287 H 490.152 0.018645 0.740765 0
M  V30 5288 H 492.799 0.744262 1.76445 0
M  V30 5289 H 491.104 -0.854394 3.82371 0
M  V30 5290 H 492.801 -0.495312 3.97929 0
M  V30 5291 H 489.391 0.923469 4.18533 0
M  V30 5292 H 493.575 1.80008 4.62505 0
M  V30 5293 H 488.831 3.0388 5.30535 0
M  V30 5294 H 493.005 3.91586 5.75876 0
M  V30 5295 H 490.632 4.54088 6.09678 0
M  V30 5296 N 492.207 -1.54576 0.307264 0
M  V30 5297 C 493.117 -2.27435 -0.57536 0
M  V30 5298 C 494.133 -1.31183 -1.14311 0
M  V30 5299 O 495.309 -1.64175 -1.16656 0
M  V30 5300 C 492.374 -3.00566 -1.72803 0
M  V30 5301 C 491.435 -4.12369 -1.19373 0
M  V30 5302 C 490.668 -4.82003 -2.29147 0
M  V30 5303 O 490.891 -4.51038 -3.49171 0
M  V30 5304 O 489.825 -5.69271 -1.95485 0
M  V30 5305 H 493.651 -3.03696 0.0158558 0
M  V30 5306 H 491.236 -1.49219 0.0735064 0
M  V30 5307 H 493.118 -3.46416 -2.39946 0
M  V30 5308 H 491.793 -2.27195 -2.30574 0
M  V30 5309 H 490.7 -3.70905 -0.487851 0
M  V30 5310 H 492.033 -4.87736 -0.661376 0
M  V30 5311 N 493.685 -0.035106 -1.57561 0
M  V30 5312 C 494.633 0.962707 -2.11742 0
M  V30 5313 C 495.627 1.33296 -1.0454 0
M  V30 5314 O 496.833 1.31449 -1.22968 0
M  V30 5315 H 493.208 0.32826 -0.676572 0
M  V30 5316 H 495.179 0.48048 -2.94506 0
M  V30 5317 C 493.928 2.23388 -2.66445 0
M  V30 5318 H 493.251 1.95774 -3.48587 0
M  V30 5319 H 494.691 2.91402 -3.07995 0
M  V30 5320 C 493.15 2.96769 -1.59467 0
M  V30 5321 O 493.68 3.89105 -0.998 0
M  V30 5322 N 491.886 2.59212 -1.31369 0
M  V30 5323 H 491.433 1.84202 -1.80076 0
M  V30 5324 H 491.391 3.08618 -0.600173 0
M  V30 5325 N 495.163 1.55791 0.238111 0
M  V30 5326 C 496.093 1.94068 1.29846 0
M  V30 5327 C 497.074 0.806726 1.49753 0
M  V30 5328 O 498.259 1.06772 1.62214 0
M  V30 5329 C 495.389 2.24302 2.65153 0
M  V30 5330 C 494.343 3.40032 2.59927 0
M  V30 5331 C 493.669 3.55829 3.99111 0
M  V30 5332 C 494.969 4.75476 2.16148 0
M  V30 5333 H 496.663 2.82887 0.980563 0
M  V30 5334 H 494.209 1.36105 0.470253 0
M  V30 5335 H 496.162 2.4967 3.39475 0
M  V30 5336 H 494.886 1.32318 2.98596 0
M  V30 5337 H 493.545 3.14687 1.88063 0
M  V30 5338 H 493.193 2.6125 4.29834 0
M  V30 5339 H 492.893 4.3366 3.96501 0
M  V30 5340 H 494.417 3.83528 4.7512 0
M  V30 5341 H 495.831 5.00158 2.80205 0
M  V30 5342 H 494.228 5.56472 2.24631 0
M  V30 5343 H 495.298 4.71946 1.11333 0
M  V30 5344 N 496.642 -0.504142 1.49319 0
M  V30 5345 C 497.589 -1.60603 1.65756 0
M  V30 5346 C 498.559 -1.58425 0.499082 0
M  V30 5347 O 499.744 -1.76459 0.725728 0
M  V30 5348 C 496.884 -2.98764 1.72726 0
M  V30 5349 C 495.997 -3.10982 2.99857 0
M  V30 5350 C 495.132 -4.39857 2.97824 0
M  V30 5351 C 494.171 -4.45697 4.19548 0
M  V30 5352 N 493.308 -5.65995 4.15444 0
M  V30 5353 H 498.148 -1.45895 2.59843 0
M  V30 5354 H 495.685 -0.709891 1.28837 0
M  V30 5355 H 497.643 -3.78839 1.74747 0
M  V30 5356 H 496.273 -3.12183 0.821075 0
M  V30 5357 H 495.325 -2.23991 3.07461 0
M  V30 5358 H 496.637 -3.11157 3.89849 0
M  V30 5359 H 495.791 -5.2825 2.98391 0
M  V30 5360 H 494.53 -4.42242 2.05604 0
M  V30 5361 H 493.535 -3.55707 4.19229 0
M  V30 5362 H 494.76 -4.4503 5.12957 0
M  V30 5363 H 492.706 -5.69229 3.26059 0
M  V30 5364 H 492.623 -5.67773 4.99169 0
M  V30 5365 H 493.891 -6.56604 4.20109 0
M  V30 5366 N 498.12 -1.38341 -0.754957 0
M  V30 5367 C 499.03 -1.3769 -1.89944 0
M  V30 5368 C 500.046 -0.274194 -1.71826 0
M  V30 5369 O 501.222 -0.512391 -1.94773 0
M  V30 5370 C 498.287 -1.19938 -3.25293 0
M  V30 5371 C 497.348 -2.40001 -3.55946 0
M  V30 5372 C 496.581 -2.23087 -4.84838 0
M  V30 5373 O 496.804 -1.22386 -5.57116 0
M  V30 5374 O 495.738 -3.11646 -5.14937 0
M  V30 5375 H 499.564 -2.3412 -1.93446 0
M  V30 5376 H 497.149 -1.19246 -0.900044 0
M  V30 5377 H 499.031 -1.12093 -4.06218 0
M  V30 5378 H 497.706 -0.265919 -3.22606 0
M  V30 5379 H 496.613 -2.53421 -2.75188 0
M  V30 5380 H 497.946 -3.31973 -3.63394 0
M  V30 5381 N 499.598 0.982988 -1.23187 0
M  V30 5382 C 500.846 1.72052 -1.06031 0
M  V30 5383 C 501.167 1.90769 0.404019 0
M  V30 5384 O 500.437 1.47446 1.28982 0
M  V30 5385 H 499.017 0.637499 -0.389363 0
M  V30 5386 H 501.679 1.18338 -1.54862 0
M  V30 5387 H 500.775 2.7111 -1.54615 0
M  V30 5388 N 501.076 1.04316 1.18135 0
M  V30 5389 C 502.024 0.630175 2.23901 0
M  V30 5390 C 503.018 -0.344254 1.65865 0
M  V30 5391 O 504.224 -0.211273 1.78756 0
M  V30 5392 H 500.599 0.185578 0.728742 0
M  V30 5393 H 502.57 1.53253 2.56039 0
M  V30 5394 C 501.319 0.011666 3.47698 0
M  V30 5395 H 500.642 0.752526 3.92654 0
M  V30 5396 H 502.082 -0.240046 4.2332 0
M  V30 5397 C 500.541 -1.23913 3.13285 0
M  V30 5398 O 501.071 -2.32959 3.27251 0
M  V30 5399 N 499.277 -1.13338 2.67587 0
M  V30 5400 H 498.824 -0.246006 2.56423 0
M  V30 5401 H 498.782 -1.97116 2.44934 0
M  V30 5402 N 502.554 -1.34406 0.822964 0
M  V30 5403 C 503.803 -1.97542 0.407458 0
M  V30 5404 C 504.116 -1.65973 -1.035 0
M  V30 5405 O 505.322 -2.22598 -1.55442 0
M  V30 5406 C 503.778 -3.53463 0.677623 0
M  V30 5407 C 503.386 -3.93925 2.1337 0
M  V30 5408 C 505.13 -4.23229 0.328284 0
M  V30 5409 C 503.037 -5.42759 2.34876 0
M  V30 5410 H 501.967 -0.739207 0.148623 0
M  V30 5411 H 504.618 -1.53248 1.00932 0
M  V30 5412 H 503 -3.96 0.00558965 0
M  V30 5413 H 504.174 -3.62494 2.8449 0
M  V30 5414 H 502.489 -3.37097 2.44448 0
M  V30 5415 H 505.086 -5.32659 0.466794 0
M  V30 5416 H 505.429 -4.09899 -0.727224 0
M  V30 5417 H 505.962 -3.86169 0.954896 0
M  V30 5418 H 502.701 -5.61075 3.38932 0
M  V30 5419 H 502.221 -5.75704 1.68299 0
M  V30 5420 H 503.9 -6.0944 2.17236 0
M  V30 5421 N 504.032 -0.577932 -1.46621 0
M  V30 5422 C 505.443 -0.150071 -1.86096 0
M  V30 5423 C 505.794 1.28563 -1.48209 0
M  V30 5424 O 504.919 1.97036 -0.894754 0
M  V30 5425 C 505.514 -0.265576 -3.37758 0
M  V30 5426 C 504.073 0.10738 -3.76247 0
M  V30 5427 C 503.22 -0.603711 -2.70649 0
M  V30 5428 H 506.171 -0.786438 -1.37844 0
M  V30 5429 H 506.192 0.510352 -3.77062 0
M  V30 5430 H 505.704 -1.3106 -3.65301 0
M  V30 5431 H 503.805 1.15272 -3.54321 0
M  V30 5432 H 503.918 -0.26561 -4.78363 0
M  V30 5433 H 502.282 -0.0444884 -2.54661 0
M  V30 5434 H 503.065 -1.65029 -3.01032 0
M  V30 5435 N 505.51 1.54411 -0.315457 0
M  V30 5436 C 506.473 2.22713 0.54142 0
M  V30 5437 C 507.473 1.2179 1.04995 0
M  V30 5438 O 508.663 1.46426 0.943667 0
M  V30 5439 C 505.795 2.92485 1.75116 0
M  V30 5440 H 506.988 2.99849 -0.0555508 0
M  V30 5441 H 504.541 1.56159 -0.0664453 0
M  V30 5442 H 505.276 2.19466 2.38758 0
M  V30 5443 H 505.061 3.66483 1.39401 0
M  V30 5444 H 506.551 3.44548 2.35959 0
M  V30 5445 N 506.988 0.0434614 1.5754 0
M  V30 5446 C 508.234 -0.632971 1.92669 0
M  V30 5447 C 508.567 -1.70947 0.921446 0
M  V30 5448 O 507.842 -1.94426 -0.0537202 0
M  V30 5449 C 508.125 -1.23619 3.38216 0
M  V30 5450 C 507.978 -0.168274 4.49485 0
M  V30 5451 C 509.297 -2.15008 3.84005 0
M  V30 5452 H 506.416 -0.228629 0.700641 0
M  V30 5453 H 509.058 0.103651 1.89717 0
M  V30 5454 H 507.208 -1.864 3.40863 0
M  V30 5455 H 508.88 0.463196 4.58969 0
M  V30 5456 H 507.123 0.504581 4.30855 0
M  V30 5457 H 507.794 -0.630218 5.48391 0
M  V30 5458 H 510.27 -1.62198 3.83185 0
M  V30 5459 H 509.146 -2.54161 4.86511 0
M  V30 5460 H 509.407 -3.04707 3.20322 0
M  V30 5461 N 508.466 -1.55915 -0.229846 0
M  V30 5462 C 509.882 -1.48721 -0.579166 0
M  V30 5463 C 510.082 -0.736976 -1.87539 0
M  V30 5464 O 509.138 -0.273258 -2.51017 0
M  V30 5465 C 510.451 -2.9323 -0.666082 0
M  V30 5466 C 511.999 -3.03701 -0.757267 0
M  V30 5467 C 512.474 -4.49552 -0.8756 0
M  V30 5468 N 513.965 -4.53561 -0.940035 0
M  V30 5469 C 514.7 -5.63683 -1.05116 0
M  V30 5470 N 514.196 -6.83576 -1.12675 0
M  V30 5471 N 515.989 -5.51516 -1.08565 0
M  V30 5472 H 508.14 -2.03123 0.620857 0
M  V30 5473 H 510.403 -0.922898 0.21671 0
M  V30 5474 H 510.109 -3.51032 0.21664 0
M  V30 5475 H 509.983 -3.44668 -1.53243 0
M  V30 5476 H 512.37 -2.45969 -1.63043 0
M  V30 5477 H 512.451 -2.55446 0.134583 0
M  V30 5478 H 512.095 -5.079 -0.00692351 0
M  V30 5479 H 512.025 -4.95506 -1.78274 0
M  V30 5480 H 514.516 -3.67215 -0.892269 0
M  V30 5481 H 514.829 -7.63251 -1.21109 0
M  V30 5482 H 513.174 -6.86303 -1.09603 0
M  V30 5483 H 516.365 -4.5678 -1.02319 0
M  V30 5484 H 516.538 -6.37372 -1.1688 0
M  V30 5485 N 509.944 0.496216 -1.49584 0
M  V30 5486 C 510.854 1.62352 -1.69349 0
M  V30 5487 C 511.87 1.64184 -0.576147 0
M  V30 5488 O 513.046 1.82517 -0.85144 0
M  V30 5489 C 510.111 2.98698 -1.76013 0
M  V30 5490 C 509.172 3.07454 -2.99617 0
M  V30 5491 C 508.405 4.37296 -3.05953 0
M  V30 5492 O 508.628 5.2637 -2.19752 0
M  V30 5493 O 507.562 4.51124 -3.9846 0
M  V30 5494 H 511.388 1.48606 -2.64859 0
M  V30 5495 H 508.973 0.673022 -1.33382 0
M  V30 5496 H 510.855 3.79725 -1.82721 0
M  V30 5497 H 509.53 3.12696 -0.836828 0
M  V30 5498 H 508.437 2.25597 -2.98424 0
M  V30 5499 H 509.77 2.98385 -3.91443 0
M  V30 5500 N 511.423 1.38739 0.74761 0
M  V30 5501 C 512.333 1.38696 1.89211 0
M  V30 5502 C 513.349 0.283303 1.71678 0
M  V30 5503 O 514.525 0.522713 1.94498 0
M  V30 5504 C 511.59 1.21662 3.24653 0
M  V30 5505 C 510.651 2.41886 3.54669 0
M  V30 5506 C 509.884 2.25655 4.83648 0
M  V30 5507 O 510.107 1.25339 5.56459 0
M  V30 5508 O 509.041 3.14372 5.13277 0
M  V30 5509 H 512.867 2.35143 1.92202 0
M  V30 5510 H 510.452 1.19721 0.893708 0
M  V30 5511 H 512.334 1.14246 4.05618 0
M  V30 5512 H 511.009 0.283024 3.2246 0
M  V30 5513 H 509.916 2.54877 2.73841 0
M  V30 5514 H 511.249 3.33895 3.61628 0
M  V30 5515 N 512.901 -0.976442 1.23707 0
M  V30 5516 C 514.178 -1.69296 0.979699 0
M  V30 5517 C 514.558 -2.0508 -0.500555 0
M  V30 5518 O 513.906 -1.74708 -1.47273 0
M  V30 5519 C 514.116 -2.93143 1.89389 0
M  V30 5520 C 515.464 -3.65572 2.15968 0
M  V30 5521 O 516.488 -3.03184 1.86971 0
M  V30 5522 O 515.347 -4.77859 2.65167 0
M  V30 5523 H 512.441 -0.739708 0.369812 0
M  V30 5524 H 514.987 -1.03131 1.34767 0
M  V30 5525 H 513.759 -2.63327 2.89439 0
M  V30 5526 H 513.382 -3.67044 1.52854 0
M  V30 5527 N 514.379 -1.04941 -1.1758 0
M  V30 5528 C 515.628 -0.753124 -1.87112 0
M  V30 5529 C 515.941 0.722507 -1.81767 0
M  V30 5530 O 517.147 1.13265 -2.46746 0
M  V30 5531 C 515.603 -1.29695 -3.35719 0
M  V30 5532 C 515.211 -2.80184 -3.49572 0
M  V30 5533 C 516.955 -1.07759 -4.10595 0
M  V30 5534 C 514.862 -3.2788 -4.92187 0
M  V30 5535 H 513.792 -0.278034 -0.700866 0
M  V30 5536 H 516.443 -1.26637 -1.32798 0
M  V30 5537 H 514.825 -0.711522 -3.89555 0
M  V30 5538 H 515.999 -3.44561 -3.05965 0
M  V30 5539 H 514.314 -3.00632 -2.88113 0
M  V30 5540 H 516.911 -1.40899 -5.15802 0
M  V30 5541 H 517.254 -0.0152302 -4.16297 0
M  V30 5542 H 517.787 -1.62809 -3.62957 0
M  V30 5543 H 514.526 -4.33535 -4.91658 0
M  V30 5544 H 514.046 -2.68245 -5.36475 0
M  V30 5545 H 515.725 -3.22412 -5.60945 0
M  V30 5546 N 515.857 1.33968 -0.830081 0
M  V30 5547 C 517.134 1.92554 -0.343858 0
M  V30 5548 C 517.514 1.7573 1.16971 0
M  V30 5549 O 516.862 1.14035 1.98011 0
M  V30 5550 C 517.072 3.40147 -0.781073 0
M  V30 5551 C 518.42 4.17299 -0.78402 0
M  V30 5552 O 519.444 3.48762 -0.724112 0
M  V30 5553 O 518.303 5.39631 -0.863739 0
M  V30 5554 H 515.397 0.821469 -0.0954827 0
M  V30 5555 H 517.943 1.42897 -0.915348 0
M  V30 5556 H 516.715 3.46225 -1.82329 0
M  V30 5557 H 516.338 3.97166 -0.18567 0
M  V30 5558 N 517.335 0.585699 1.46312 0
M  V30 5559 C 518.575 0.0751432 2.04262 0
M  V30 5560 C 518.939 -1.26201 1.44697 0
M  V30 5561 O 520.14 -1.86198 1.93865 0
M  V30 5562 C 518.411 0.013478 3.57397 0
M  V30 5563 S 519.97 -0.439068 4.36598 0
M  V30 5564 H 516.788 0.0389228 0.709934 0
M  V30 5565 H 519.39 0.778871 1.79315 0
M  V30 5566 H 518.094 0.990558 3.98266 0
M  V30 5567 H 517.625 -0.712927 3.86886 0
M  V30 5568 H 519.64 -1.6932 4.66417 0
M  V30 5569 N 518.813 -1.54241 0.323641 0
M  V30 5570 C 519.763 -2.21071 -0.557833 0
M  V30 5571 C 520.747 -1.19126 -1.08157 0
M  V30 5572 O 521.939 -1.44755 -1.01857 0
M  V30 5573 C 519.068 -2.97208 -1.71821 0
M  V30 5574 C 518.154 -4.06491 -1.20936 0
M  V30 5575 N 518.545 -5.04052 -0.420202 0
M  V30 5576 C 516.843 -4.20443 -1.48808 0
M  V30 5577 C 517.544 -5.81516 -0.146413 0
M  V30 5578 N 516.52 -5.38641 -0.732562 0
M  V30 5579 H 520.322 -2.93853 0.0523921 0
M  V30 5580 H 517.836 -1.61883 0.129502 0
M  V30 5581 H 519.833 -3.4357 -2.36146 0
M  V30 5582 H 518.493 -2.25947 -2.33191 0
M  V30 5583 H 519.504 -5.17862 -0.0630401 0
M  V30 5584 H 516.181 -3.60396 -2.10762 0
M  V30 5585 H 517.571 -6.70119 0.488895 0
M  V30 5586 N 520.291 -0.0518155 -1.57515 0
M  V30 5587 C 521.539 0.620595 -1.92336 0
M  V30 5588 C 521.86 1.71345 -0.930907 0
M  V30 5589 O 521.13 1.95885 0.0241341 0
M  V30 5590 H 519.71 0.232226 -0.709986 0
M  V30 5591 H 522.372 -0.104969 -1.94617 0
M  V30 5592 H 521.468 1.05879 -2.93592 0
M  V30 5593 N 521.769 1.56035 0.221574 0
M  V30 5594 C 522.994 1.83476 0.967026 0
M  V30 5595 C 523.419 0.632139 1.7716 0
M  V30 5596 O 522.777 -0.419082 1.7639 0
M  V30 5597 C 522.825 3.08907 1.86034 0
M  V30 5598 O 521.929 2.876 2.95567 0
M  V30 5599 H 521.27 0.604913 0.273817 0
M  V30 5600 H 523.8 2.03247 0.234893 0
M  V30 5601 H 523.81 3.3901 2.27016 0
M  V30 5602 H 522.485 3.96068 1.26898 0
M  V30 5603 H 521.062 2.6873 2.58532 0
M  V30 5604 N 523.247 -0.488276 1.49845 0
M  V30 5605 C 524.194 -1.58836 1.67451 0
M  V30 5606 C 525.164 -1.57886 0.515857 0
M  V30 5607 O 526.349 -1.75679 0.744403 0
M  V30 5608 C 523.489 -2.96915 1.75885 0
M  V30 5609 C 522.602 -3.07784 3.03138 0
M  V30 5610 C 521.737 -4.36673 3.02473 0
M  V30 5611 C 520.776 -4.41222 4.24252 0
M  V30 5612 N 519.913 -5.61557 4.21424 0
M  V30 5613 H 524.753 -1.43131 2.61376 0
M  V30 5614 H 522.29 -0.696186 1.29583 0
M  V30 5615 H 524.248 -3.76965 1.78755 0
M  V30 5616 H 522.878 -3.11295 0.85414 0
M  V30 5617 H 521.93 -2.20717 3.09819 0
M  V30 5618 H 523.242 -3.07005 3.93128 0
M  V30 5619 H 522.396 -5.25055 3.03977 0
M  V30 5620 H 521.135 -4.40037 2.10283 0
M  V30 5621 H 520.14 -3.5124 4.22978 0
M  V30 5622 H 521.365 -4.39564 5.17649 0
M  V30 5623 H 519.311 -5.65738 3.32078 0
M  V30 5624 H 519.228 -5.62447 5.05163 0
M  V30 5625 H 520.496 -6.52111 4.2705 0
M  V30 5626 N 524.725 -1.39134 -0.740242 0
M  V30 5627 C 525.953 -1.39334 -1.5295 0
M  V30 5628 C 526.368 0.0135008 -1.88795 0
M  V30 5629 O 525.725 0.983524 -1.5373 0
M  V30 5630 C 525.776 -2.2614 -2.82034 0
M  V30 5631 O 525.497 -3.61345 -2.47712 0
M  V30 5632 C 526.998 -2.34666 -3.76094 0
M  V30 5633 H 524.218 -0.476103 -0.472828 0
M  V30 5634 H 526.762 -1.82883 -0.9151 0
M  V30 5635 H 524.917 -1.86018 -3.39818 0
M  V30 5636 H 525.331 -4.07194 -3.30595 0
M  V30 5637 H 526.805 -2.99663 -4.63579 0
M  V30 5638 H 527.282 -1.36426 -4.17474 0
M  V30 5639 H 527.888 -2.75236 -3.2423 0
M  V30 5640 N 526.204 0.969867 -1.24223 0
M  V30 5641 C 527.62 1.23809 -1.00716 0
M  V30 5642 C 527.82 1.99469 0.285358 0
M  V30 5643 O 526.876 2.31764 1.00207 0
M  V30 5644 C 528.189 2.02734 -2.2208 0
M  V30 5645 C 529.737 2.15834 -2.26681 0
M  V30 5646 C 530.212 2.98154 -3.47661 0
M  V30 5647 N 531.703 3.05737 -3.47964 0
M  V30 5648 C 532.438 3.69785 -4.38231 0
M  V30 5649 N 531.934 4.35569 -5.3875 0
M  V30 5650 N 533.727 3.66775 -4.25949 0
M  V30 5651 H 525.878 0.463294 -2.07286 0
M  V30 5652 H 528.141 0.267348 -0.909521 0
M  V30 5653 H 527.847 1.54524 -3.15935 0
M  V30 5654 H 527.721 3.0347 -2.24021 0
M  V30 5655 H 530.108 2.63248 -1.33359 0
M  V30 5656 H 530.189 1.14453 -2.28767 0
M  V30 5657 H 529.833 2.51435 -4.41297 0
M  V30 5658 H 529.763 3.99729 -3.42818 0
M  V30 5659 H 532.254 2.58941 -2.75242 0
M  V30 5660 H 532.567 4.82251 -6.03866 0
M  V30 5661 H 530.912 4.34244 -5.42639 0
M  V30 5662 H 534.103 3.14558 -3.46657 0
M  V30 5663 H 534.276 4.16407 -4.96497 0
M  V30 5664 N 527.682 1.05563 1.17022 0
M  V30 5665 C 528.629 0.659893 2.21165 0
M  V30 5666 C 529.599 -0.339813 1.62587 0
M  V30 5667 O 530.784 -0.230378 1.89404 0
M  V30 5668 C 527.924 0.0447297 3.45071 0
M  V30 5669 C 527.037 1.09372 4.17926 0
M  V30 5670 C 526.172 0.445481 5.29329 0
M  V30 5671 C 525.211 1.47852 5.93975 0
M  V30 5672 N 524.348 0.854172 6.96885 0
M  V30 5673 H 529.188 1.55243 2.54369 0
M  V30 5674 H 526.725 0.776336 1.24946 0
M  V30 5675 H 528.683 -0.329404 4.15898 0
M  V30 5676 H 527.313 -0.811244 3.1244 0
M  V30 5677 H 526.365 1.58564 3.45777 0
M  V30 5678 H 527.677 1.87773 4.62107 0
M  V30 5679 H 526.831 0.0179688 6.06697 0
M  V30 5680 H 525.57 -0.370481 4.86291 0
M  V30 5681 H 524.575 1.91601 5.15334 0
M  V30 5682 H 525.8 2.29645 6.39093 0
M  V30 5683 H 523.746 0.0587882 6.55974 0
M  V30 5684 H 523.663 1.57567 7.39397 0
M  V30 5685 H 524.931 0.451559 7.78191 0
M  V30 5686 N 529.16 -1.33526 0.837174 0
M  V30 5687 C 530.571 -1.80182 0.489017 0
M  V30 5688 C 530.922 -1.69285 -0.991826 0
M  V30 5689 O 530.047 -1.24113 -1.77271 0
M  V30 5690 C 530.642 -3.27149 0.880866 0
M  V30 5691 C 529.201 -3.71828 0.584872 0
M  V30 5692 C 528.348 -2.54974 1.09011 0
M  V30 5693 H 531.299 -1.21071 1.02603 0
M  V30 5694 H 531.32 -3.80024 0.190239 0
M  V30 5695 H 530.832 -3.35048 1.95869 0
M  V30 5696 H 528.933 -3.69457 -0.48295 0
M  V30 5697 H 529.046 -4.65366 1.13892 0
M  V30 5698 H 527.41 -2.4952 0.511047 0
M  V30 5699 H 528.193 -2.65637 2.17467 0
M  V30 5700 N 530.638 -0.59345 -1.46 0
M  V30 5701 C 531.548 0.135817 -2.34207 0
M  V30 5702 C 532.564 0.875008 -1.50398 0
M  V30 5703 O 533.74 0.835778 -1.83239 0
M  V30 5704 C 530.805 1.12977 -3.27776 0
M  V30 5705 C 529.866 0.394081 -4.27487 0
M  V30 5706 C 529.099 1.34068 -5.16586 0
M  V30 5707 O 529.322 2.5778 -5.08828 0
M  V30 5708 O 528.256 0.845426 -5.95933 0
M  V30 5709 H 532.082 -0.588691 -2.9794 0
M  V30 5710 H 529.667 -0.353784 -1.45151 0
M  V30 5711 H 531.549 1.70261 -3.85473 0
M  V30 5712 H 530.224 1.83556 -2.66625 0
M  V30 5713 H 529.131 -0.220869 -3.73447 0
M  V30 5714 H 530.464 -0.270939 -4.91454 0
M  V30 5715 N 532.116 1.54067 -0.331816 0
M  V30 5716 C 533.026 2.28322 0.539104 0
M  V30 5717 C 534.042 1.32985 1.1221 0
M  V30 5718 O 535.218 1.6601 1.1403 0
M  V30 5719 C 532.283 3.03277 1.68 0
M  V30 5720 C 531.344 4.14216 1.12798 0
M  V30 5721 C 530.577 4.85588 2.2145 0
M  V30 5722 O 530.8 4.56536 3.41952 0
M  V30 5723 O 529.734 5.72309 1.86404 0
M  V30 5724 H 533.56 3.03632 -0.0641692 0
M  V30 5725 H 531.145 1.49083 -0.0972365 0
M  V30 5726 H 533.027 3.50189 2.34405 0
M  V30 5727 H 531.702 2.30834 2.2693 0
M  V30 5728 H 530.609 3.71635 0.428782 0
M  V30 5729 H 531.942 4.88727 0.583698 0
M  V30 5730 N 533.594 0.0601682 1.57485 0
M  V30 5731 C 534.504 -0.926121 2.15546 0
M  V30 5732 C 535.52 -1.33532 1.11558 0
M  V30 5733 O 536.696 -1.4104 1.4377 0
M  V30 5734 C 533.761 -2.17952 2.69625 0
M  V30 5735 C 532.822 -1.82783 3.88444 0
M  V30 5736 C 532.055 -3.02148 4.39935 0
M  V30 5737 O 532.278 -4.15803 3.90466 0
M  V30 5738 O 531.212 -2.82639 5.31412 0
M  V30 5739 H 535.038 -0.462289 3.00161 0
M  V30 5740 H 532.623 -0.162246 1.48516 0
M  V30 5741 H 534.505 -2.91474 3.04337 0
M  V30 5742 H 533.18 -2.63456 1.88077 0
M  V30 5743 H 532.087 -1.06549 3.58606 0
M  V30 5744 H 533.42 -1.42072 4.7125 0
M  V30 5745 N 535.072 -1.5615 -0.213296 0
M  V30 5746 C 536.02 -1.93953 -1.28394 0
M  V30 5747 C 537.014 -0.822592 -1.48087 0
M  V30 5748 O 538.22 -1.00748 -1.49164 0
M  V30 5749 H 534.595 -0.61648 -0.430646 0
M  V30 5750 H 536.566 -2.83275 -0.937977 0
M  V30 5751 C 535.315 -2.27969 -2.62537 0
M  V30 5752 H 534.638 -3.13432 -2.48194 0
M  V30 5753 H 536.078 -2.58297 -3.36242 0
M  V30 5754 C 534.537 -1.10775 -3.18167 0
M  V30 5755 O 535.067 -0.373201 -3.99963 0
M  V30 5756 N 533.273 -0.889377 -2.76656 0
M  V30 5757 H 532.82 -1.48843 -2.10246 0
M  V30 5758 H 532.778 -0.107 -3.14218 0
M  V30 5759 N 536.55 0.480323 -1.50102 0
M  V30 5760 C 537.775 1.26126 -1.64642 0
M  V30 5761 C 538.2 1.85257 -0.325823 0
M  V30 5762 O 537.558 1.66854 0.709194 0
M  V30 5763 C 537.606 2.35243 -2.73301 0
M  V30 5764 O 536.71 3.39646 -2.33911 0
M  V30 5765 H 536.051 0.371463 -0.550374 0
M  V30 5766 H 538.581 0.572696 -1.96421 0
M  V30 5767 H 538.591 2.80695 -2.96098 0
M  V30 5768 H 537.266 1.91574 -3.6915 0
M  V30 5769 H 535.843 2.99969 -2.21525 0
M  V30 5770 N 538.028 1.39524 0.732853 0
M  V30 5771 C 538.96 1.34318 1.85718 0
M  V30 5772 C 539.973 0.251576 1.60844 0
M  V30 5773 O 541.162 0.510685 1.71039 0
M  V30 5774 C 538.262 1.06334 3.21786 0
M  V30 5775 C 537.435 2.26813 3.73998 0
M  V30 5776 C 536.494 1.95253 4.88634 0
M  V30 5777 O 535.52 2.67957 5.02183 0
M  V30 5778 N 536.722 0.919984 5.73164 0
M  V30 5779 H 539.487 2.3121 1.90688 0
M  V30 5780 H 537.048 1.33654 0.91368 0
M  V30 5781 H 539.04 0.832363 3.96048 0
M  V30 5782 H 537.61 0.181682 3.12072 0
M  V30 5783 H 536.83 2.65849 2.91064 0
M  V30 5784 H 538.118 3.0717 4.05616 0
M  V30 5785 H 537.516 0.317487 5.64808 0
M  V30 5786 H 536.073 0.748905 6.47483 0
M  V30 5787 N 539.506 -0.963266 1.24736 0
M  V30 5788 C 540.736 -1.73913 1.11524 0
M  V30 5789 C 541.144 -1.86218 -0.334612 0
M  V30 5790 O 540.487 -1.3531 -1.24245 0
M  V30 5791 C 540.549 -3.17501 1.68622 0
M  V30 5792 C 540.213 -3.28655 3.17546 0
M  V30 5793 C 541.21 -3.13637 4.14642 0
M  V30 5794 C 538.895 -3.52753 3.5759 0
M  V30 5795 C 540.889 -3.2255 5.49764 0
M  V30 5796 C 538.576 -3.61303 4.92852 0
M  V30 5797 C 539.574 -3.46214 5.88748 0
M  V30 5798 O 539.262 -3.5443 7.2155 0
M  V30 5799 H 538.994 -0.552057 0.390139 0
M  V30 5800 H 541.548 -1.2177 1.65412 0
M  V30 5801 H 539.778 -3.70969 1.09172 0
M  V30 5802 H 541.467 -3.76914 1.50635 0
M  V30 5803 H 542.233 -2.94899 3.85045 0
M  V30 5804 H 538.112 -3.63561 2.83451 0
M  V30 5805 H 541.656 -3.1069 6.24594 0
M  V30 5806 H 537.553 -3.79556 5.22118 0
M  V30 5807 H 538.321 -3.71116 7.29531 0
M  V30 5808 N 540.985 -1.06182 -1.16461 0
M  V30 5809 C 541.915 -0.692861 -2.22984 0
M  V30 5810 C 542.896 0.314122 -1.67174 0
M  V30 5811 O 544.081 0.189499 -1.93273 0
M  V30 5812 C 541.211 -0.07732 -3.47214 0
M  V30 5813 C 540.165 -1.01015 -4.15909 0
M  V30 5814 C 539.491 -0.257973 -5.34077 0
M  V30 5815 C 540.791 -2.33868 -4.67015 0
M  V30 5816 H 542.485 -1.58343 -2.54102 0
M  V30 5817 H 540.031 -0.76279 -1.22137 0
M  V30 5818 H 541.984 0.19266 -4.20959 0
M  V30 5819 H 540.708 0.848254 -3.15392 0
M  V30 5820 H 539.367 -1.26486 -3.44088 0
M  V30 5821 H 539.015 0.670684 -4.98509 0
M  V30 5822 H 538.715 -0.879638 -5.80979 0
M  V30 5823 H 540.239 0.00448788 -6.106 0
M  V30 5824 H 541.653 -2.1279 -5.32347 0
M  V30 5825 H 540.05 -2.91522 -5.24533 0
M  V30 5826 H 541.12 -2.97019 -3.83286 0
M  V30 5827 N 542.463 1.3308 -0.844243 0
M  V30 5828 C 543.688 2.02341 -0.455282 0
M  V30 5829 C 544.113 1.6308 0.93737 0
M  V30 5830 O 543.471 0.826118 1.61385 0
M  V30 5831 C 543.519 3.55743 -0.58988 0
M  V30 5832 O 542.623 4.1063 0.38166 0
M  V30 5833 H 541.964 0.637898 -0.184343 0
M  V30 5834 H 544.494 1.6986 -1.14056 0
M  V30 5835 H 544.504 4.05243 -0.473522 0
M  V30 5836 H 543.179 3.83662 -1.60549 0
M  V30 5837 H 541.756 3.72236 0.22241 0
M  V30 5838 N 543.941 0.601185 1.45683 0
M  V30 5839 C 545.166 0.0982245 2.07167 0
M  V30 5840 C 545.591 -1.20546 1.44396 0
M  V30 5841 O 544.949 -1.73247 0.534347 0
M  V30 5842 C 544.997 -0.0346976 3.60583 0
M  V30 5843 O 544.101 -1.08657 3.97828 0
M  V30 5844 H 543.442 0.0711618 0.660176 0
M  V30 5845 H 545.972 0.829376 1.87036 0
M  V30 5846 H 545.982 -0.234969 4.07323 0
M  V30 5847 H 544.657 0.917265 4.05659 0
M  V30 5848 H 543.234 -0.863275 3.6277 0
M  V30 5849 N 545.419 -1.53889 0.339982 0
M  V30 5850 C 546.835 -1.59595 -0.0120752 0
M  V30 5851 C 547.035 -1.35605 -1.49042 0
M  V30 5852 O 546.091 -1.14856 -2.24865 0
M  V30 5853 C 547.404 -2.9774 0.420898 0
M  V30 5854 C 548.952 -3.1077 0.37294 0
M  V30 5855 C 549.427 -4.51286 0.781327 0
M  V30 5856 N 550.918 -4.57325 0.735374 0
M  V30 5857 C 551.653 -5.64194 1.02336 0
M  V30 5858 N 551.149 -6.7893 1.37933 0
M  V30 5859 N 552.942 -5.54051 0.947838 0
M  V30 5860 H 545.093 -1.67738 1.30299 0
M  V30 5861 H 547.356 -0.785385 0.530918 0
M  V30 5862 H 547.062 -3.20349 1.45152 0
M  V30 5863 H 546.936 -3.76639 -0.205721 0
M  V30 5864 H 549.323 -2.87886 -0.648505 0
M  V30 5865 H 549.404 -2.33939 1.03472 0
M  V30 5866 H 549.048 -4.74905 1.80077 0
M  V30 5867 H 548.978 -5.26511 0.0970679 0
M  V30 5868 H 551.469 -3.74931 0.472773 0
M  V30 5869 H 551.782 -7.56392 1.58402 0
M  V30 5870 H 550.127 -6.80386 1.41774 0
M  V30 5871 H 553.318 -4.63293 0.669115 0
M  V30 5872 H 553.491 -6.37246 1.17563 0
M  V30 5873 N 546.897 -0.0685191 -1.57451 0
M  V30 5874 C 547.844 0.899861 -2.12535 0
M  V30 5875 C 548.814 1.29749 -1.03703 0
M  V30 5876 O 549.999 1.38392 -1.31348 0
M  V30 5877 C 547.139 2.16328 -2.6888 0
M  V30 5878 C 546.252 1.81857 -3.91857 0
M  V30 5879 C 545.387 3.02786 -4.36457 0
M  V30 5880 C 544.426 2.64317 -5.5209 0
M  V30 5881 N 543.563 3.77994 -5.91663 0
M  V30 5882 H 548.403 0.423243 -2.94979 0
M  V30 5883 H 545.94 0.197268 -1.45771 0
M  V30 5884 H 547.898 2.90281 -2.99655 0
M  V30 5885 H 546.528 2.61536 -1.89206 0
M  V30 5886 H 545.58 0.979808 -3.67565 0
M  V30 5887 H 546.892 1.49553 -4.75852 0
M  V30 5888 H 546.046 3.85021 -4.68875 0
M  V30 5889 H 544.785 3.38281 -3.51308 0
M  V30 5890 H 543.79 1.80503 -5.19325 0
M  V30 5891 H 545.015 2.29995 -6.38967 0
M  V30 5892 H 542.961 4.13258 -5.09464 0
M  V30 5893 H 542.878 3.49447 -6.7039 0
M  V30 5894 H 544.146 4.60818 -6.28703 0
M  V30 5895 N 548.375 1.56261 0.205012 0
M  V30 5896 C 549.323 1.94631 1.27364 0
M  V30 5897 C 550.317 0.830434 1.47649 0
M  V30 5898 O 551.523 1.01538 1.48627 0
M  V30 5899 H 547.898 0.618755 0.427371 0
M  V30 5900 H 549.869 2.83768 0.922941 0
M  V30 5901 C 548.618 2.29358 2.61324 0
M  V30 5902 H 547.941 3.14744 2.46528 0
M  V30 5903 H 549.381 2.60076 3.34868 0
M  V30 5904 C 547.84 1.12461 3.17575 0
M  V30 5905 O 548.37 0.394407 3.99759 0
M  V30 5906 N 546.576 0.904036 2.7618 0
M  V30 5907 H 546.123 1.49956 2.09454 0
M  V30 5908 H 546.081 0.123662 3.14157 0
M  V30 5909 N 549.853 -0.472356 1.50355 0
M  V30 5910 C 550.763 -1.59637 1.7191 0
M  V30 5911 C 551.779 -1.63247 0.602195 0
M  V30 5912 O 552.955 -1.81139 0.880369 0
M  V30 5913 C 550.02 -2.9586 1.80742 0
M  V30 5914 C 549.081 -3.02649 3.04471 0
M  V30 5915 C 548.314 -4.32374 3.12872 0
M  V30 5916 O 548.537 -5.22807 2.28099 0
M  V30 5917 O 547.471 -4.44728 4.05587 0
M  V30 5918 H 551.297 -1.44373 2.67189 0
M  V30 5919 H 548.882 -0.651717 1.34436 0
M  V30 5920 H 550.764 -3.7677 1.88739 0
M  V30 5921 H 549.439 -3.11325 0.88647 0
M  V30 5922 H 548.346 -2.20821 3.01975 0
M  V30 5923 H 549.679 -2.92119 3.9614 0
M  V30 5924 N 551.331 -1.39911 -0.725443 0
M  V30 5925 C 552.556 -1.41137 -1.5197 0
M  V30 5926 C 552.981 -0.010262 -1.88097 0
M  V30 5927 O 552.339 0.979184 -1.52583 0
M  V30 5928 C 552.387 -2.2994 -2.77777 0
M  V30 5929 O 551.491 -1.73586 -3.74088 0
M  V30 5930 H 550.832 -0.480219 -0.458569 0
M  V30 5931 H 553.362 -1.84023 -0.894249 0
M  V30 5932 H 553.372 -2.44785 -3.26411 0
M  V30 5933 H 552.047 -3.31759 -2.50816 0
M  V30 5934 H 550.624 -1.68035 -3.32894 0
M  V30 5935 N 552.809 0.956637 -1.25245 0
M  V30 5936 C 554.034 1.74104 -1.12706 0
M  V30 5937 C 554.459 1.85436 0.315429 0
M  V30 5938 O 553.817 1.33334 1.22848 0
M  V30 5939 C 553.865 3.1338 -1.78396 0
M  V30 5940 O 552.969 3.98485 -1.06224 0
M  V30 5941 H 552.31 0.53476 -0.393609 0
M  V30 5942 H 554.84 1.19924 -1.65769 0
M  V30 5943 H 554.85 3.6385 -1.846 0
M  V30 5944 H 553.525 3.04448 -2.83345 0
M  V30 5945 H 552.102 3.56952 -1.07886 0
M  V30 5946 N 554.287 1.06798 1.15896 0
M  V30 5947 C 555.533 0.788934 1.86825 0
M  V30 5948 C 555.866 -0.683084 1.8179 0
M  V30 5949 O 555.141 -1.50086 1.23711 0
M  V30 5950 C 555.424 1.29065 3.36176 0
M  V30 5951 C 555.277 2.8268 3.49874 0
M  V30 5952 C 556.596 0.902655 4.30744 0
M  V30 5953 H 553.715 0.288066 0.678371 0
M  V30 5954 H 556.357 1.32479 1.36195 0
M  V30 5955 H 554.507 0.834806 3.79425 0
M  V30 5956 H 556.179 3.36511 3.15528 0
M  V30 5957 H 554.422 3.21157 2.91617 0
M  V30 5958 H 555.093 3.12852 4.54783 0
M  V30 5959 H 557.569 1.29535 3.95424 0
M  V30 5960 H 556.445 1.28111 5.3374 0
M  V30 5961 H 556.706 -0.191951 4.41683 0
M  V30 5962 N 555.766 -1.3263 0.851289 0
M  V30 5963 C 556.729 -2.27247 0.298541 0
M  V30 5964 C 557.729 -1.51467 -0.539847 0
M  V30 5965 O 558.919 -1.7061 -0.351843 0
M  V30 5966 C 556.051 -3.35964 -0.578004 0
M  V30 5967 H 557.244 -2.7765 1.13359 0
M  V30 5968 H 554.797 -1.43245 0.625354 0
M  V30 5969 H 555.532 -2.90823 -1.435 0
M  V30 5970 H 555.317 -3.92094 0.0220539 0
M  V30 5971 H 556.807 -4.06472 -0.957626 0
M  V30 5972 N 557.244 -0.608902 -1.45362 0
M  V30 5973 C 558.191 0.109172 -2.30542 0
M  V30 5974 C 559.161 0.858704 -1.42181 0
M  V30 5975 O 560.346 0.844178 -1.71109 0
M  V30 5976 C 557.486 1.09971 -3.27109 0
M  V30 5977 C 556.599 0.350911 -4.30572 0
M  V30 5978 C 555.734 1.33129 -5.14247 0
M  V30 5979 C 554.773 0.570377 -6.09437 0
M  V30 5980 N 553.91 1.5001 -6.85887 0
M  V30 5981 H 558.75 -0.623195 -2.91411 0
M  V30 5982 H 556.287 -0.319122 -1.43597 0
M  V30 5983 H 558.245 1.68714 -3.81564 0
M  V30 5984 H 556.875 1.79947 -2.67991 0
M  V30 5985 H 555.927 -0.352054 -3.78767 0
M  V30 5986 H 557.239 -0.242725 -4.98209 0
M  V30 5987 H 556.393 1.99074 -5.73109 0
M  V30 5988 H 555.132 1.95885 -4.46632 0
M  V30 5989 H 554.137 -0.102702 -5.49704 0
M  V30 5990 H 555.362 -0.0521607 -6.7908 0
M  V30 5991 H 553.308 2.11529 -6.2096 0
M  V30 5992 H 553.225 0.959934 -7.49881 0
M  V30 5993 H 554.493 2.14909 -7.49289 0
M  V30 5994 N 558.722 1.53707 -0.348139 0
M  V30 5995 C 559.67 2.26671 0.521808 0
M  V30 5996 C 560.664 1.28988 1.09811 0
M  V30 5997 O 561.87 1.4668 1.04332 0
M  V30 5998 H 558.245 0.728387 0.186968 0
M  V30 5999 H 560.216 2.98176 -0.115563 0
M  V30 6000 C 558.965 3.05591 1.6586 0
M  V30 6001 H 558.288 3.80589 1.22443 0
M  V30 6002 H 559.728 3.59851 2.24239 0
M  V30 6003 C 558.187 2.15366 2.59073 0
M  V30 6004 O 558.717 1.7528 3.61441 0
M  V30 6005 N 556.923 1.80352 2.27863 0
M  V30 6006 H 556.47 2.13149 1.44656 0
M  V30 6007 H 556.428 1.20268 2.90488 0
M  V30 6008 N 560.2 0.0768682 1.57412 0
M  V30 6009 C 561.43 -0.5991 1.97723 0
M  V30 6010 C 561.838 -1.63378 0.954166 0
M  V30 6011 O 561.181 -1.83578 -0.0668706 0
M  V30 6012 C 561.243 -1.32078 3.34358 0
M  V30 6013 C 560.907 -0.438985 4.54887 0
M  V30 6014 C 561.904 0.305492 5.19002 0
M  V30 6015 C 559.589 -0.362378 5.00991 0
M  V30 6016 C 561.583 1.11475 6.27576 0
M  V30 6017 C 559.27 0.450543 6.09437 0
M  V30 6018 C 560.268 1.18777 6.72593 0
M  V30 6019 O 559.956 1.98727 7.7895 0
M  V30 6020 H 559.688 -0.166725 0.655117 0
M  V30 6021 H 562.242 0.147337 2.04871 0
M  V30 6022 H 560.472 -2.1134 3.2384 0
M  V30 6023 H 562.161 -1.88949 3.5924 0
M  V30 6024 H 562.927 0.25593 4.84324 0
M  V30 6025 H 558.806 -0.925832 4.51608 0
M  V30 6026 H 562.35 1.69068 6.76803 0
M  V30 6027 H 558.247 0.501651 6.43548 0
M  V30 6028 H 559.015 1.91214 7.95851 0
M  V30 6029 N 561.678 -1.56367 -0.196722 0
M  V30 6030 C 562.588 -1.97617 -1.2643 0
M  V30 6031 C 563.604 -0.883598 -1.49895 0
M  V30 6032 O 564.78 -1.18921 -1.62541 0
M  V30 6033 C 561.845 -2.30595 -2.58895 0
M  V30 6034 C 560.906 -3.53551 -2.43516 0
M  V30 6035 C 560.139 -3.84946 -3.69665 0
M  V30 6036 O 560.362 -3.17655 -4.73763 0
M  V30 6037 O 559.296 -4.78379 -3.65291 0
M  V30 6038 H 563.122 -2.88648 -0.944233 0
M  V30 6039 H 560.707 -1.43901 -0.401592 0
M  V30 6040 H 562.589 -2.52889 -3.37083 0
M  V30 6041 H 561.264 -1.42732 -2.90533 0
M  V30 6042 H 560.171 -3.36507 -1.63445 0
M  V30 6043 H 561.504 -4.41875 -2.16812 0
M  V30 6044 N 563.156 0.464375 -1.50603 0
M  V30 6045 C 564.088 1.57916 -1.66118 0
M  V30 6046 C 565.101 1.53497 -0.54246 0
M  V30 6047 O 566.29 1.58763 -0.815877 0
M  V30 6048 C 563.39 2.96809 -1.63577 0
M  V30 6049 C 562.563 3.26026 -2.91592 0
M  V30 6050 C 561.622 4.44506 -2.81604 0
M  V30 6051 O 560.648 4.44484 -3.55559 0
M  V30 6052 N 561.85 5.46549 -1.95614 0
M  V30 6053 H 564.615 1.45022 -2.62276 0
M  V30 6054 H 562.176 0.652903 -1.48151 0
M  V30 6055 H 564.168 3.74048 -1.54499 0
M  V30 6056 H 562.738 3.03438 -0.751262 0
M  V30 6057 H 561.958 2.37337 -3.14746 0
M  V30 6058 H 563.246 3.42361 -3.76386 0
M  V30 6059 H 562.644 5.49391 -1.34854 0
M  V30 6060 H 561.201 6.22746 -1.92435 0
M  V30 6061 N 564.634 1.40294 0.718013 0
M  V30 6062 C 565.911 1.2894 1.47084 0
M  V30 6063 C 566.291 -0.0933625 2.10893 0
M  V30 6064 O 565.639 -1.10598 1.99951 0
M  V30 6065 C 565.849 2.4264 2.50852 0
M  V30 6066 C 567.197 2.8276 3.16752 0
M  V30 6067 O 568.221 2.42215 2.61171 0
M  V30 6068 O 567.08 3.528 4.17366 0
M  V30 6069 H 564.174 0.506236 0.653952 0
M  V30 6070 H 566.72 1.52208 0.750394 0
M  V30 6071 H 565.492 3.35009 2.022 0
M  V30 6072 H 565.115 2.21129 3.30435 0
M  V30 6073 N 566.112 -0.949982 1.2575 0
M  V30 6074 C 567.523 -1.50989 1.09815 0
M  V30 6075 C 567.874 -1.93497 -0.324556 0
M  V30 6076 O 566.999 -1.79068 -1.21506 0
M  V30 6077 C 567.594 -2.74394 1.98729 0
M  V30 6078 C 566.153 -3.26682 1.86965 0
M  V30 6079 C 565.3 -1.99498 1.92603 0
M  V30 6080 H 568.251 -0.766387 1.38968 0
M  V30 6081 H 568.272 -3.48383 1.53001 0
M  V30 6082 H 567.784 -2.43425 3.02268 0
M  V30 6083 H 565.885 -3.62461 0.863279 0
M  V30 6084 H 565.998 -3.94383 2.72027 0
M  V30 6085 H 564.362 -2.15005 1.36546 0
M  V30 6086 H 565.145 -1.70871 2.97755 0
M  V30 6087 N 567.59 -1.07411 -1.15328 0
M  V30 6088 C 568.5 -0.706438 -2.23711 0
M  V30 6089 C 569.516 0.282586 -1.7169 0
M  V30 6090 O 570.692 0.129066 -2.00986 0
M  V30 6091 C 567.757 -0.11048 -3.46524 0
M  V30 6092 C 566.818 -1.15282 -4.13532 0
M  V30 6093 C 566.051 -0.585205 -5.30482 0
M  V30 6094 O 566.274 0.598549 -5.67251 0
M  V30 6095 O 565.208 -1.33039 -5.87013 0
M  V30 6096 H 569.034 -1.61031 -2.57493 0
M  V30 6097 H 566.619 -0.847113 -1.23062 0
M  V30 6098 H 568.501 0.21957 -4.20828 0
M  V30 6099 H 567.176 0.766703 -3.14489 0
M  V30 6100 H 566.083 -1.53523 -3.41147 0
M  V30 6101 H 567.416 -2.00192 -4.49649 0
M  V30 6102 N 569.068 1.32177 -0.85831 0
M  V30 6103 C 570.317 1.96392 -0.459689 0
M  V30 6104 C 570.63 1.68659 0.990632 0
M  V30 6105 O 571.836 2.26641 1.49485 0
M  V30 6106 C 570.292 3.51542 -0.7711 0
M  V30 6107 C 569.9 3.8813 -2.2374 0
M  V30 6108 C 571.644 4.2221 -0.44038 0
M  V30 6109 C 569.551 5.36341 -2.49183 0
M  V30 6110 H 568.481 0.735007 -0.168169 0
M  V30 6111 H 571.132 1.50518 -1.0496 0
M  V30 6112 H 569.514 3.95846 -0.11058 0
M  V30 6113 H 570.688 3.54824 -2.94001 0
M  V30 6114 H 569.003 3.30497 -2.533 0
M  V30 6115 H 571.6 5.31234 -0.607855 0
M  V30 6116 H 571.943 4.11683 0.618291 0
M  V30 6117 H 572.476 3.83502 -1.05695 0
M  V30 6118 H 569.215 5.51892 -3.53689 0
M  V30 6119 H 568.735 5.7104 -1.83504 0
M  V30 6120 H 570.414 6.03466 -2.33318 0
M  V30 6121 N 570.547 0.616602 1.45037 0
M  V30 6122 C 571.793 0.115501 2.02471 0
M  V30 6123 C 572.126 -1.25406 1.4828 0
M  V30 6124 O 571.401 -1.82922 0.661051 0
M  V30 6125 C 571.684 0.0863588 3.59996 0
M  V30 6126 C 571.537 1.48723 4.24501 0
M  V30 6127 C 572.856 -0.596762 4.36035 0
M  V30 6128 H 569.975 0.0434461 0.735718 0
M  V30 6129 H 572.617 0.7903 1.72784 0
M  V30 6130 H 570.767 -0.488277 3.85419 0
M  V30 6131 H 572.439 2.10964 4.10234 0
M  V30 6132 H 570.682 2.04534 3.82555 0
M  V30 6133 H 571.353 1.419 5.3345 0
M  V30 6134 H 573.829 -0.10824 4.15959 0
M  V30 6135 H 572.705 -0.586289 5.4576 0
M  V30 6136 H 572.966 -1.66451 4.09569 0
M  V30 6137 N 572.025 -1.5352 0.356285 0
M  V30 6138 C 573.265 -2.03027 -0.23649 0
M  V30 6139 C 573.629 -1.23813 -1.46746 0
M  V30 6140 O 574.83 -1.63281 -2.13525 0
M  V30 6141 C 573.101 -3.53442 -0.530415 0
M  V30 6142 S 574.66 -4.24836 -1.09819 0
M  V30 6143 H 571.478 -0.707591 -0.0695378 0
M  V30 6144 H 574.08 -1.89077 0.496999 0
M  V30 6145 H 572.784 -4.087 0.373114 0
M  V30 6146 H 572.315 -3.71536 -1.29323 0
M  V30 6147 H 574.33 -4.35228 -2.38309 0
M  V30 6148 N 573.503 -0.0852151 -1.57369 0
M  V30 6149 C 574.731 0.58946 -1.98325 0
M  V30 6150 C 575.146 1.62333 -0.96403 0
M  V30 6151 O 574.503 1.82438 0.0476395 0
M  V30 6152 C 574.554 1.24604 -3.39347 0
M  V30 6153 O 574.275 0.253532 -4.37366 0
M  V30 6154 C 575.776 2.00726 -3.95252 0
M  V30 6155 H 572.996 0.158783 -0.651942 0
M  V30 6156 H 575.54 -0.161584 -2.03861 0
M  V30 6157 H 573.695 1.94808 -3.34856 0
M  V30 6158 H 574.109 0.726207 -5.19448 0
M  V30 6159 H 575.583 2.42039 -4.96106 0
M  V30 6160 H 576.06 2.86919 -3.32527 0
M  V30 6161 H 576.666 1.3536 -4.03185 0
M  V30 6162 N 574.981 1.5647 0.188427 0
M  V30 6163 C 576.23 1.80207 0.905995 0
M  V30 6164 C 576.543 0.659579 1.84144 0
M  V30 6165 O 577.749 0.781431 2.60011 0
M  V30 6166 C 576.205 3.19255 1.66145 0
M  V30 6167 C 575.813 4.41324 0.770504 0
M  V30 6168 C 577.557 3.52298 2.36826 0
M  V30 6169 C 575.464 5.71394 1.52521 0
M  V30 6170 H 574.394 0.671953 0.342045 0
M  V30 6171 H 577.045 1.82808 0.159164 0
M  V30 6172 H 575.427 3.10922 2.45242 0
M  V30 6173 H 576.601 4.60797 0.0177261 0
M  V30 6174 H 574.916 4.16035 0.174199 0
M  V30 6175 H 577.513 4.46715 2.93854 0
M  V30 6176 H 577.856 2.76359 3.11338 0
M  V30 6177 H 578.389 3.62108 1.6469 0
M  V30 6178 H 575.128 6.50316 0.82275 0
M  V30 6179 H 574.648 5.55928 2.25175 0
M  V30 6180 H 576.327 6.12747 2.07725 0
M  V30 6181 N 576.459 -0.456382 1.50847 0
M  V30 6182 C 577.87 -1.03685 1.55262 0
M  V30 6183 C 578.221 -1.92779 0.364771 0
M  V30 6184 O 577.346 -2.10043 -0.52068 0
M  V30 6185 C 577.941 -1.88718 2.81374 0
M  V30 6186 C 576.5 -2.41847 2.88422 0
M  V30 6187 C 575.647 -1.20564 2.49719 0
M  V30 6188 H 578.598 -0.238399 1.56899 0
M  V30 6189 H 578.619 -2.73957 2.6406 0
M  V30 6190 H 578.131 -1.23847 3.67809 0
M  V30 6191 H 576.232 -3.10228 2.06372 0
M  V30 6192 H 576.345 -2.75947 3.9165 0
M  V30 6193 H 574.709 -1.54504 2.02486 0
M  V30 6194 H 575.492 -0.573326 3.38479 0
M  V30 6195 N 577.937 -1.40673 -0.710563 0
M  V30 6196 C 579.162 -1.42741 -1.50465 0
M  V30 6197 C 579.587 -0.0302116 -1.88076 0
M  V30 6198 O 578.945 0.962945 -1.53613 0
M  V30 6199 C 578.993 -2.32873 -2.75322 0
M  V30 6200 O 578.097 -1.77544 -3.72226 0
M  V30 6201 H 577.438 -0.485056 -0.45345 0
M  V30 6202 H 579.968 -1.84961 -0.874681 0
M  V30 6203 H 579.978 -2.48233 -3.23797 0
M  V30 6204 H 578.653 -3.34401 -2.47283 0
M  V30 6205 H 577.23 -1.71556 -3.31093 0
M  V30 6206 N 579.415 0.9433 -1.26252 0
M  V30 6207 C 580.362 2.0417 -1.07625 0
M  V30 6208 C 581.332 1.6609 0.0180738 0
M  V30 6209 O 582.517 1.90276 -0.141289 0
M  V30 6210 C 579.657 3.37653 -0.713043 0
M  V30 6211 C 578.77 3.88783 -1.8834 0
M  V30 6212 C 577.905 5.10642 -1.4635 0
M  V30 6213 C 576.944 5.54028 -2.60229 0
M  V30 6214 N 576.081 6.67092 -2.18936 0
M  V30 6215 H 580.921 2.19436 -2.01623 0
M  V30 6216 H 578.458 1.07519 -1.00389 0
M  V30 6217 H 580.416 4.14391 -0.483358 0
M  V30 6218 H 579.046 3.22241 0.18996 0
M  V30 6219 H 578.098 3.08464 -2.22608 0
M  V30 6220 H 579.41 4.16922 -2.73821 0
M  V30 6221 H 578.564 5.94832 -1.19414 0
M  V30 6222 H 577.303 4.84244 -0.579568 0
M  V30 6223 H 576.308 4.68396 -2.87898 0
M  V30 6224 H 577.533 5.82429 -3.49219 0
M  V30 6225 H 575.479 6.42381 -1.32974 0
M  V30 6226 H 575.396 6.94806 -2.97961 0
M  V30 6227 H 576.664 7.54662 -1.95206 0
M  V30 6228 N 580.893 1.08022 1.14757 0
M  V30 6229 C 582.14 0.807509 1.85703 0
M  V30 6230 C 582.468 -0.666617 1.8272 0
M  V30 6231 O 581.723 -1.50562 1.25018 0
M  V30 6232 C 582.022 1.26964 3.34088 0
M  V30 6233 C 581.688 2.7509 3.57262 0
M  V30 6234 C 580.35 3.15547 3.63296 0
M  V30 6235 C 582.702 3.70667 3.66409 0
M  V30 6236 C 580.03 4.50384 3.75994 0
M  V30 6237 C 582.382 5.05274 3.80632 0
M  V30 6238 C 581.046 5.45342 3.84913 0
M  V30 6239 H 580.316 0.295488 0.679535 0
M  V30 6240 H 582.963 1.35245 1.35577 0
M  V30 6241 H 581.268 0.644216 3.86467 0
M  V30 6242 H 582.965 1.03544 3.87401 0
M  V30 6243 H 579.555 2.42775 3.53212 0
M  V30 6244 H 583.739 3.40533 3.61041 0
M  V30 6245 H 578.995 4.80886 3.77569 0
M  V30 6246 H 583.169 5.79201 3.86652 0
M  V30 6247 H 580.796 6.49823 3.94505 0
M  V30 6248 N 582.371 -1.3172 0.865308 0
M  V30 6249 C 583.303 -2.27545 0.274906 0
M  V30 6250 C 584.316 -1.52887 -0.559413 0
M  V30 6251 O 585.505 -1.74361 -0.382166 0
M  V30 6252 C 582.605 -3.33006 -0.629286 0
M  V30 6253 C 581.778 -4.37063 0.171553 0
M  V30 6254 C 580.837 -5.22044 -0.660052 0
M  V30 6255 O 579.863 -5.69129 -0.0897527 0
M  V30 6256 N 581.065 -5.45946 -1.97289 0
M  V30 6257 H 583.83 -2.78848 1.09836 0
M  V30 6258 H 581.391 -1.44693 0.726331 0
M  V30 6259 H 583.383 -3.86772 -1.19121 0
M  V30 6260 H 581.953 -2.81782 -1.35342 0
M  V30 6261 H 581.173 -3.83436 0.914919 0
M  V30 6262 H 582.461 -5.03662 0.721235 0
M  V30 6263 H 581.859 -5.0944 -2.45942 0
M  V30 6264 H 580.416 -6.02665 -2.4827 0
M  V30 6265 N 583.85 -0.624285 -1.44708 0
M  V30 6266 C 584.76 0.0861083 -2.34442 0
M  V30 6267 C 585.776 0.84291 -1.5222 0
M  V30 6268 O 586.952 0.796723 -1.84971 0
M  V30 6269 C 584.017 1.05999 -3.30099 0
M  V30 6270 C 583.077 0.303316 -4.28227 0
M  V30 6271 C 582.311 1.23081 -5.19314 0
M  V30 6272 O 582.534 2.46929 -5.14181 0
M  V30 6273 O 581.468 0.71883 -5.97592 0
M  V30 6274 H 585.293 -0.651756 -2.96624 0
M  V30 6275 H 582.879 -0.384493 -1.44368 0
M  V30 6276 H 584.76 1.62046 -3.88997 0
M  V30 6277 H 583.436 1.77859 -2.70459 0
M  V30 6278 H 582.343 -0.300033 -3.72895 0
M  V30 6279 H 583.676 -0.375123 -4.90768 0
M  V30 6280 N 585.328 1.53329 -0.364422 0
M  V30 6281 C 586.556 2.05657 0.226424 0
M  V30 6282 C 586.971 1.23801 1.42544 0
M  V30 6283 O 586.328 0.27839 1.80364 0
M  V30 6284 C 586.379 3.56125 0.621056 0
M  V30 6285 O 586.1 4.34879 -0.530304 0
M  V30 6286 C 587.601 4.24706 1.27041 0
M  V30 6287 H 584.821 0.669806 0.0400056 0
M  V30 6288 H 587.365 1.97714 -0.522456 0
M  V30 6289 H 585.52 3.64223 1.31985 0
M  V30 6290 H 585.934 5.24073 -0.211546 0
M  V30 6291 H 587.408 5.3131 1.49711 0
M  V30 6292 H 587.885 3.78354 2.23036 0
M  V30 6293 H 588.491 4.20858 0.613079 0
M  V30 6294 N 586.806 0.0935595 1.57322 0
M  V30 6295 C 587.738 -0.895923 2.10964 0
M  V30 6296 C 588.751 -1.24705 1.04654 0
M  V30 6297 O 589.94 -1.20044 1.32105 0
M  V30 6298 C 587.04 -2.20546 2.57318 0
M  V30 6299 C 586.213 -2.0299 3.87445 0
M  V30 6300 C 585.272 -3.17443 4.19662 0
M  V30 6301 O 584.298 -2.91474 4.88909 0
M  V30 6302 N 585.5 -4.43168 3.74943 0
M  V30 6303 H 588.265 -0.437788 2.96485 0
M  V30 6304 H 585.826 -0.0915863 1.61641 0
M  V30 6305 H 587.818 -2.9606 2.75917 0
M  V30 6306 H 586.388 -2.57789 1.76816 0
M  V30 6307 H 585.608 -1.11815 3.78009 0
M  V30 6308 H 586.896 -1.88535 4.7258 0
M  V30 6309 H 586.294 -4.67149 3.19043 0
M  V30 6310 H 584.851 -5.15637 3.987 0
M  V30 6311 N 588.284 -1.56567 -0.180126 0
M  V30 6312 C 589.234 -1.92132 -1.22756 0
M  V30 6313 C 590.218 -0.788639 -1.40247 0
M  V30 6314 O 591.41 -1.05171 -1.42366 0
M  V30 6315 C 588.539 -2.27719 -2.56902 0
M  V30 6316 C 587.625 -3.47481 -2.43142 0
M  V30 6317 N 588.016 -4.64973 -1.99082 0
M  V30 6318 C 586.314 -3.51914 -2.73994 0
M  V30 6319 C 587.015 -5.47119 -1.97574 0
M  V30 6320 N 585.991 -4.87925 -2.39645 0
M  V30 6321 H 589.793 -2.80464 -0.878478 0
M  V30 6322 H 587.307 -1.57686 -0.388463 0
M  V30 6323 H 589.304 -2.51389 -3.32579 0
M  V30 6324 H 587.964 -1.40722 -2.92621 0
M  V30 6325 H 588.975 -4.89358 -1.69557 0
M  V30 6326 H 585.652 -2.75372 -3.13809 0
M  V30 6327 H 587.042 -6.51254 -1.65282 0
M  V30 6328 N 589.762 0.448376 -1.51087 0
M  V30 6329 C 590.987 1.22605 -1.6728 0
M  V30 6330 C 591.412 1.84524 -0.365045 0
M  V30 6331 O 590.77 1.6832 0.673642 0
M  V30 6332 C 590.818 2.29393 -2.78229 0
M  V30 6333 O 589.922 3.34608 -2.41063 0
M  V30 6334 H 589.263 0.359705 -0.558129 0
M  V30 6335 H 591.793 0.530903 -1.97592 0
M  V30 6336 H 591.803 2.74352 -3.01986 0
M  V30 6337 H 590.478 1.83701 -3.73131 0
M  V30 6338 H 589.055 2.95202 -2.27838 0
M  V30 6339 N 591.24 1.41047 0.703093 0
M  V30 6340 C 592.15 1.44645 1.84703 0
M  V30 6341 C 593.166 0.337778 1.7069 0
M  V30 6342 O 594.342 0.584327 1.92737 0
M  V30 6343 C 591.407 1.31928 3.20618 0
M  V30 6344 C 590.468 2.53047 3.46794 0
M  V30 6345 C 589.701 2.40927 4.76224 0
M  V30 6346 O 589.924 1.42978 5.5219 0
M  V30 6347 O 588.858 3.30543 5.03016 0
M  V30 6348 H 592.684 2.41139 1.84624 0
M  V30 6349 H 590.269 1.22504 0.855167 0
M  V30 6350 H 592.151 1.27092 4.01778 0
M  V30 6351 H 590.826 0.385469 3.21397 0
M  V30 6352 H 589.733 2.6346 2.65593 0
M  V30 6353 H 591.066 3.45231 3.50822 0
M  V30 6354 N 592.718 -0.936591 1.26751 0
M  V30 6355 C 593.967 -1.67778 1.11953 0
M  V30 6356 C 594.28 -1.92694 -0.33589 0
M  V30 6357 O 595.486 -2.64682 -0.604618 0
M  V30 6358 C 593.942 -3.02138 1.95551 0
M  V30 6359 C 593.55 -2.84953 3.45696 0
M  V30 6360 C 595.294 -3.79917 1.89377 0
M  V30 6361 C 593.201 -4.14814 4.21525 0
M  V30 6362 H 592.131 -0.629275 0.415366 0
M  V30 6363 H 594.782 -1.04122 1.51099 0
M  V30 6364 H 593.164 -3.668 1.49243 0
M  V30 6365 H 594.338 -2.29112 3.99805 0
M  V30 6366 H 592.653 -2.20612 3.53156 0
M  V30 6367 H 595.25 -4.76134 2.43312 0
M  V30 6368 H 595.593 -4.07204 0.865464 0
M  V30 6369 H 596.126 -3.22037 2.33532 0
M  V30 6370 H 592.865 -3.92709 5.24843 0
M  V30 6371 H 592.385 -4.70352 3.72195 0
M  V30 6372 H 594.064 -4.83239 4.3022 0
M  V30 6373 N 594.196 -1.08629 -1.14182 0
M  V30 6374 C 595.424 -0.838889 -1.8913 0
M  V30 6375 C 595.839 0.609153 -1.78703 0
M  V30 6376 O 595.196 1.41876 -1.14794 0
M  V30 6377 C 595.247 -1.25477 -3.39025 0
M  V30 6378 O 594.968 -2.64601 -3.49167 0
M  V30 6379 C 596.469 -1.03856 -4.30963 0
M  V30 6380 H 593.689 -0.302377 -0.599007 0
M  V30 6381 H 596.233 -1.44615 -1.44592 0
M  V30 6382 H 594.388 -0.691571 -3.81177 0
M  V30 6383 H 594.802 -2.81922 -4.42289 0
M  V30 6384 H 596.276 -1.37892 -5.345 0
M  V30 6385 H 596.753 0.0242522 -4.39193 0
M  V30 6386 H 597.359 -1.58731 -3.94569 0
M  V30 6387 N 595.674 1.31259 -0.872281 0
M  V30 6388 C 597.085 1.78822 -0.536617 0
M  V30 6389 C 597.436 1.71855 0.946594 0
M  V30 6390 O 596.561 1.28769 1.73918 0
M  V30 6391 C 597.156 3.24698 -0.967294 0
M  V30 6392 C 595.715 3.70147 -0.683251 0
M  V30 6393 C 594.862 2.51994 -1.15733 0
M  V30 6394 H 597.813 1.18308 -1.05777 0
M  V30 6395 H 597.834 3.79386 -0.290929 0
M  V30 6396 H 597.346 3.29737 -2.04683 0
M  V30 6397 H 595.447 3.70607 0.384825 0
M  V30 6398 H 595.56 4.62183 -1.2619 0
M  V30 6399 H 593.924 2.48078 -0.577024 0
M  V30 6400 H 594.707 2.59778 -2.24434 0
M  V30 6401 N 597.152 0.631951 1.44375 0
M  V30 6402 C 598.377 0.142146 2.06912 0
M  V30 6403 C 598.802 -1.17456 1.4692 0
M  V30 6404 O 598.16 -1.72074 0.570975 0
M  V30 6405 C 598.208 0.0417952 3.60576 0
M  V30 6406 O 597.312 -1.00194 4.00044 0
M  V30 6407 H 596.653 0.0851491 0.658518 0
M  V30 6408 H 599.183 0.868863 1.85235 0
M  V30 6409 H 599.193 -0.148517 4.0773 0
M  V30 6410 H 597.868 1.0031 4.03622 0
M  V30 6411 H 596.445 -0.786131 3.64519 0
M  V30 6412 N 598.631 -1.53133 0.372548 0
M  V30 6413 C 599.563 -2.23557 -0.505444 0
M  V30 6414 C 600.576 -1.25211 -1.04049 0
M  V30 6415 O 601.765 -1.51391 -0.945675 0
M  V30 6416 C 598.865 -2.92516 -1.71136 0
M  V30 6417 C 598.038 -4.17428 -1.30661 0
M  V30 6418 C 597.097 -4.69535 -2.37536 0
M  V30 6419 O 596.123 -5.33042 -1.99637 0
M  V30 6420 N 597.325 -4.47947 -3.6922 0
M  V30 6421 H 600.09 -2.9954 0.0978259 0
M  V30 6422 H 597.651 -1.60684 0.198068 0
M  V30 6423 H 599.643 -3.24281 -2.42124 0
M  V30 6424 H 598.213 -2.19944 -2.22134 0
M  V30 6425 H 597.433 -3.91888 -0.426292 0
M  V30 6426 H 598.721 -4.98622 -1.01259 0
M  V30 6427 H 598.119 -3.97219 -4.02783 0
M  V30 6428 H 596.676 -4.84245 -4.36292 0
M  V30 6429 N 600.109 -0.101901 -1.5727 0
M  V30 6430 C 601.386 0.602832 -1.86079 0
M  V30 6431 C 601.766 1.85912 -1 0
M  V30 6432 O 601.114 2.28379 -0.0742488 0
M  V30 6433 C 601.324 0.911694 -3.36881 0
M  V30 6434 C 602.672 1.2722 -4.05093 0
M  V30 6435 O 603.696 1.0025 -3.41802 0
M  V30 6436 O 602.555 1.7776 -5.16782 0
M  V30 6437 H 599.649 0.302366 -0.769743 0
M  V30 6438 H 602.195 -0.135113 -1.69161 0
M  V30 6439 H 600.967 0.0207256 -3.91295 0
M  V30 6440 H 600.59 1.70538 -3.59169 0
M  V30 6441 N 601.587 1.56661 0.17182 0
M  V30 6442 C 602.497 1.99604 1.2327 0
M  V30 6443 C 603.513 0.907333 1.4847 0
M  V30 6444 O 604.689 1.21492 1.60629 0
M  V30 6445 C 601.754 2.34685 2.55194 0
M  V30 6446 C 600.815 3.57381 2.3786 0
M  V30 6447 C 600.048 3.90779 3.63494 0
M  V30 6448 O 600.271 3.25152 4.6865 0
M  V30 6449 O 599.205 4.84129 3.57634 0
M  V30 6450 H 603.031 2.90114 0.898192 0
M  V30 6451 H 600.616 1.44522 0.378647 0
M  V30 6452 H 602.498 2.5822 3.33017 0
M  V30 6453 H 601.173 1.47336 2.88225 0
M  V30 6454 H 600.08 3.39064 1.5807 0
M  V30 6455 H 601.413 4.45268 2.09754 0
M  V30 6456 N 603.065 -0.440357 1.51323 0
M  V30 6457 C 603.975 -1.55955 1.75258 0
M  V30 6458 C 604.991 -1.61933 0.636687 0
M  V30 6459 O 606.167 -1.79231 0.918593 0
M  V30 6460 C 603.232 -2.9196 1.86977 0
M  V30 6461 C 602.293 -2.96122 3.10822 0
M  V30 6462 C 601.526 -4.2564 3.21973 0
M  V30 6463 O 601.749 -5.17851 2.39137 0
M  V30 6464 O 600.683 -4.36025 4.14929 0
M  V30 6465 H 604.509 -1.38673 2.70191 0
M  V30 6466 H 602.094 -0.623055 1.35788 0
M  V30 6467 H 603.976 -3.72682 1.96688 0
M  V30 6468 H 602.651 -3.09375 0.952307 0
M  V30 6469 H 601.558 -2.14366 3.06591 0
M  V30 6470 H 602.891 -2.83651 4.02247 0
M  V30 6471 N 604.543 -1.41418 -0.695603 0
M  V30 6472 C 605.476 -1.3768 -1.81988 0
M  V30 6473 C 606.454 -0.244061 -1.60758 0
M  V30 6474 O 607.638 -0.430965 -1.83507 0
M  V30 6475 C 604.765 -1.1476 -3.18666 0
M  V30 6476 C 603.811 -2.30752 -3.58686 0
M  V30 6477 S 604.644 -3.9323 -3.63498 0
M  V30 6478 C 605.8 -3.72613 -5.02902 0
M  V30 6479 H 606.033 -2.32822 -1.84882 0
M  V30 6480 H 603.566 -1.27942 -0.86431 0
M  V30 6481 H 605.524 -1.02223 -3.97569 0
M  V30 6482 H 604.185 -0.212385 -3.13381 0
M  V30 6483 H 603.378 -2.10409 -4.57978 0
M  V30 6484 H 602.98 -2.39696 -2.87092 0
M  V30 6485 H 605.272 -3.32317 -5.904 0
M  V30 6486 H 606.215 -4.71507 -5.28286 0
M  V30 6487 H 606.623 -3.0589 -4.74438 0
M  V30 6488 N 606.021 0.929856 -1.27246 0
M  V30 6489 C 607.437 1.20542 -1.04603 0
M  V30 6490 C 607.637 2.00276 0.221754 0
M  V30 6491 O 606.693 2.34835 0.927833 0
M  V30 6492 C 608.006 1.95566 -2.28417 0
M  V30 6493 C 609.554 2.08513 -2.33433 0
M  V30 6494 C 610.029 2.86943 -3.5697 0
M  V30 6495 N 611.52 2.94512 -3.57515 0
M  V30 6496 C 612.255 3.55656 -4.49774 0
M  V30 6497 N 611.751 4.18209 -5.52334 0
M  V30 6498 N 613.544 3.53038 -4.37402 0
M  V30 6499 H 605.695 0.397113 -2.08655 0
M  V30 6500 H 607.958 0.238277 -0.917566 0
M  V30 6501 H 607.664 1.44395 -3.20691 0
M  V30 6502 H 607.538 2.9619 -2.33563 0
M  V30 6503 H 609.925 2.58872 -1.41666 0
M  V30 6504 H 610.006 1.07117 -2.32292 0
M  V30 6505 H 609.65 2.37268 -4.49072 0
M  V30 6506 H 609.58 3.8862 -3.55362 0
M  V30 6507 H 612.071 2.50053 -2.83341 0
M  V30 6508 H 612.384 4.62796 -6.18902 0
M  V30 6509 H 610.729 4.16761 -5.56179 0
M  V30 6510 H 613.92 3.0337 -3.56489 0
M  V30 6511 H 614.093 4.004 -5.09493 0
M  V30 6512 N 607.499 1.09233 1.13605 0
M  V30 6513 C 608.447 0.724572 2.21027 0
M  V30 6514 C 609.441 -0.273595 1.67176 0
M  V30 6515 O 610.647 -0.135266 1.79491 0
M  V30 6516 H 607.022 0.216319 0.720215 0
M  V30 6517 H 608.993 1.63975 2.49309 0
M  V30 6518 C 607.742 0.159126 3.47336 0
M  V30 6519 H 607.065 0.918387 3.89109 0
M  V30 6520 H 608.505 -0.0602851 4.23957 0
M  V30 6521 C 606.964 -1.10514 3.18258 0
M  V30 6522 O 607.494 -2.18869 3.36837 0
M  V30 6523 N 605.7 -1.01886 2.72154 0
M  V30 6524 H 605.247 -0.137027 2.57235 0
M  V30 6525 H 605.205 -1.8655 2.53074 0
M  V30 6526 N 608.977 -1.30795 0.87923 0
M  V30 6527 C 609.925 -2.30231 0.331112 0
M  V30 6528 C 610.919 -1.59918 -0.558794 0
M  V30 6529 O 612.125 -1.74441 -0.443866 0
M  V30 6530 H 608.5 -0.746785 0.088409 0
M  V30 6531 H 610.471 -2.73925 1.18353 0
M  V30 6532 C 609.22 -3.44848 -0.444401 0
M  V30 6533 H 608.543 -3.99131 0.231106 0
M  V30 6534 H 609.983 -4.16516 -0.793109 0
M  V30 6535 C 608.442 -2.94329 -1.63926 0
M  V30 6536 O 608.972 -2.93875 -2.73862 0
M  V30 6537 N 607.178 -2.50413 -1.4745 0
M  V30 6538 H 606.725 -2.50982 -0.58015 0
M  V30 6539 H 606.683 -2.16969 -2.27534 0
M  V30 6540 N 610.455 -0.639598 -1.44038 0
M  V30 6541 C 611.402 0.0602458 -2.30721 0
M  V30 6542 C 612.372 0.828352 -1.43971 0
M  V30 6543 O 613.557 0.807693 -1.72861 0
M  V30 6544 C 610.697 1.03008 -3.29368 0
M  V30 6545 C 609.81 0.259502 -4.3122 0
M  V30 6546 C 608.945 1.22191 -5.16955 0
M  V30 6547 C 607.984 0.440978 -6.10509 0
M  V30 6548 N 607.121 1.35428 -6.88915 0
M  V30 6549 H 611.961 -0.684867 -2.90023 0
M  V30 6550 H 609.498 -0.349509 -1.42888 0
M  V30 6551 H 611.456 1.60583 -3.85057 0
M  V30 6552 H 610.086 1.74222 -2.71747 0
M  V30 6553 H 609.138 -0.432317 -3.77935 0
M  V30 6554 H 610.45 -0.348347 -4.97582 0
M  V30 6555 H 609.604 1.86873 -5.77203 0
M  V30 6556 H 608.343 1.86367 -4.50687 0
M  V30 6557 H 607.348 -0.219279 -5.49363 0
M  V30 6558 H 608.573 -0.196192 -6.78817 0
M  V30 6559 H 606.519 1.9831 -6.25307 0
M  V30 6560 H 606.436 0.800657 -7.51748 0
M  V30 6561 H 607.704 1.98967 -7.53679 0
M  V30 6562 N 611.933 1.52934 -0.380664 0
M  V30 6563 C 612.896 2.24809 0.446473 0
M  V30 6564 C 613.896 1.26133 0.997347 0
M  V30 6565 O 615.086 1.50297 0.880714 0
M  V30 6566 C 612.218 2.99649 1.62553 0
M  V30 6567 H 613.411 2.99343 -0.182677 0
M  V30 6568 H 610.964 1.55736 -0.132618 0
M  V30 6569 H 611.699 2.29395 2.29235 0
M  V30 6570 H 611.484 3.72066 1.23732 0
M  V30 6571 H 612.974 3.54246 2.21133 0
M  V30 6572 N 613.412 0.11024 1.57214 0
M  V30 6573 C 614.375 -0.828808 2.1369 0
M  V30 6574 C 615.375 -1.20059 1.06969 0
M  V30 6575 O 616.565 -1.12754 1.32786 0
M  V30 6576 C 613.697 -2.11959 2.66994 0
M  V30 6577 H 614.89 -0.338146 2.97988 0
M  V30 6578 H 612.443 -0.138913 1.55681 0
M  V30 6579 H 613.178 -2.65476 1.8626 0
M  V30 6580 H 612.963 -1.86258 3.45037 0
M  V30 6581 H 614.453 -2.79105 3.10629 0
M  V30 6582 N 614.89 -1.56749 -0.16351 0
M  V30 6583 C 616.115 -1.86938 -0.898264 0
M  V30 6584 C 616.54 -0.697456 -1.74692 0
M  V30 6585 O 615.898 0.353327 -1.77824 0
M  V30 6586 C 615.946 -3.15599 -1.74441 0
M  V30 6587 O 615.05 -2.98371 -2.8469 0
M  V30 6588 H 614.391 -0.614659 -0.251178 0
M  V30 6589 H 616.921 -2.03979 -0.159298 0
M  V30 6590 H 616.931 -3.47202 -2.14277 0
M  V30 6591 H 615.606 -4.00505 -1.1211 0
M  V30 6592 H 614.183 -2.7814 -2.4838 0
M  V30 6593 N 616.368 0.432326 -1.51554 0
M  V30 6594 C 617.315 1.52512 -1.7323 0
M  V30 6595 C 618.285 1.55863 -0.5741 0
M  V30 6596 O 619.47 1.72796 -0.809093 0
M  V30 6597 C 616.61 2.90183 -1.86783 0
M  V30 6598 C 615.723 2.96322 -3.14352 0
M  V30 6599 C 614.858 4.25147 -3.18471 0
M  V30 6600 C 613.897 4.25172 -4.40335 0
M  V30 6601 N 613.034 5.45529 -4.41975 0
M  V30 6602 H 617.874 1.33332 -2.66508 0
M  V30 6603 H 615.411 0.647613 -1.32077 0
M  V30 6604 H 617.369 3.70071 -1.92623 0
M  V30 6605 H 615.999 3.0791 -0.969087 0
M  V30 6606 H 615.051 2.09066 -3.17798 0
M  V30 6607 H 616.363 2.92203 -4.04251 0
M  V30 6608 H 615.517 5.13411 -3.23255 0
M  V30 6609 H 614.256 4.31929 -2.2647 0
M  V30 6610 H 613.261 3.353 -4.35723 0
M  V30 6611 H 614.486 4.20049 -5.33606 0
M  V30 6612 H 612.432 5.53024 -3.52847 0
M  V30 6613 H 612.349 5.43311 -5.25689 0
M  V30 6614 H 613.617 6.35812 -4.50958 0
M  V30 6615 N 617.846 1.41785 0.688094 0
M  V30 6616 C 619.262 1.24419 0.999608 0
M  V30 6617 C 619.462 0.138868 2.01021 0
M  V30 6618 O 618.518 -0.494283 2.47615 0
M  V30 6619 C 619.831 2.59625 1.51709 0
M  V30 6620 C 621.379 2.66869 1.63554 0
M  V30 6621 C 621.854 4.0241 2.18702 0
M  V30 6622 N 623.345 4.04295 2.26053 0
M  V30 6623 C 624.08 5.05977 2.69768 0
M  V30 6624 N 623.576 6.18047 3.13033 0
M  V30 6625 N 625.369 4.93336 2.69398 0
M  V30 6626 H 617.52 2.12392 0.0187427 0
M  V30 6627 H 619.783 0.945347 0.0708673 0
M  V30 6628 H 619.489 3.41297 0.849059 0
M  V30 6629 H 619.363 2.82628 2.49803 0
M  V30 6630 H 621.75 1.8555 2.29467 0
M  V30 6631 H 621.831 2.47668 0.639857 0
M  V30 6632 H 621.475 4.8418 1.53402 0
M  V30 6633 H 621.405 4.18955 3.19037 0
M  V30 6634 H 623.896 3.23383 1.9553 0
M  V30 6635 H 624.209 6.91498 3.45038 0
M  V30 6636 H 622.554 6.21572 3.10923 0
M  V30 6637 H 625.745 4.04865 2.34952 0
M  V30 6638 H 625.918 5.72717 3.03148 0
M  V30 6639 N 619.324 -0.923095 1.27737 0
M  V30 6640 C 620.57 -1.67375 1.14514 0
M  V30 6641 C 620.903 -1.91751 -0.307424 0
M  V30 6642 O 620.178 -1.51119 -1.22447 0
M  V30 6643 C 620.461 -3.03745 1.9342 0
M  V30 6644 C 620.314 -2.86581 3.46686 0
M  V30 6645 C 621.633 -4.04144 1.74228 0
M  V30 6646 H 618.752 -0.607427 0.417374 0
M  V30 6647 H 621.394 -1.07089 1.56946 0
M  V30 6648 H 619.544 -3.55204 1.5736 0
M  V30 6649 H 621.216 -2.42203 3.92601 0
M  V30 6650 H 619.459 -2.21829 3.72793 0
M  V30 6651 H 620.13 -3.83381 3.97143 0
M  V30 6652 H 622.606 -3.61712 2.05678 0
M  V30 6653 H 621.482 -4.97543 2.31824 0
M  V30 6654 H 621.743 -4.36661 0.691373 0
M  V30 6655 N 620.802 -1.09834 -1.13024 0
M  V30 6656 C 622.027 -0.85909 -1.88771 0
M  V30 6657 C 622.452 0.584402 -1.78791 0
M  V30 6658 O 621.81 1.41101 -1.13842 0
M  V30 6659 C 621.858 -1.30427 -3.36186 0
M  V30 6660 O 620.962 -0.465368 -4.09766 0
M  V30 6661 H 620.303 -0.310786 -0.586778 0
M  V30 6662 H 622.833 -1.46355 -1.42973 0
M  V30 6663 H 622.843 -1.2915 -3.8702 0
M  V30 6664 H 621.518 -2.3555 -3.42767 0
M  V30 6665 H 620.095 -0.542814 -3.68928 0
M  V30 6666 N 622.28 1.30327 -0.886154 0
M  V30 6667 C 623.21 2.30549 -0.370028 0
M  V30 6668 C 624.191 1.61039 0.547751 0
M  V30 6669 O 625.376 1.8864 0.461353 0
M  V30 6670 C 622.506 3.44808 0.415275 0
M  V30 6671 C 621.46 4.26024 -0.41085 0
M  V30 6672 C 620.786 5.32347 0.501128 0
M  V30 6673 C 622.086 4.95433 -1.65359 0
M  V30 6674 H 623.78 2.73969 -1.20754 0
M  V30 6675 H 621.326 1.3171 -0.582097 0
M  V30 6676 H 623.279 4.13986 0.78699 0
M  V30 6677 H 622.003 3.00197 1.28644 0
M  V30 6678 H 620.662 3.58535 -0.764719 0
M  V30 6679 H 620.31 4.83982 1.37004 0
M  V30 6680 H 620.01 5.87581 -0.0478356 0
M  V30 6681 H 621.534 6.0438 0.869333 0
M  V30 6682 H 622.948 5.5712 -1.35239 0
M  V30 6683 H 621.345 5.60537 -2.14284 0
M  V30 6684 H 622.415 4.21493 -2.39733 0
M  V30 6685 N 623.758 0.647228 1.43697 0
M  V30 6686 C 624.708 -0.0702191 2.27892 0
M  V30 6687 C 625.692 -0.800601 1.39568 0
M  V30 6688 O 626.884 -0.684055 1.63247 0
M  V30 6689 C 624.013 -1.04008 3.27165 0
M  V30 6690 C 623.099 -0.308484 4.22977 0
M  V30 6691 N 623.49 0.671721 5.0132 0
M  V30 6692 C 621.788 -0.550751 4.42586 0
M  V30 6693 C 622.489 1.10543 5.711 0
M  V30 6694 N 621.465 0.440903 5.41809 0
M  V30 6695 H 625.267 0.682031 2.85877 0
M  V30 6696 H 622.781 0.474022 1.55328 0
M  V30 6697 H 624.778 -1.56881 3.86256 0
M  V30 6698 H 623.438 -1.79246 2.70742 0
M  V30 6699 H 624.449 1.0502 5.0714 0
M  V30 6700 H 621.126 -1.28476 3.97241 0
M  V30 6701 H 622.516 1.91614 6.43998 0
M  V30 6702 N 625.236 -1.5273 0.388769 0
M  V30 6703 C 626.183 -2.26437 -0.446639 0
M  V30 6704 C 627.153 -1.28025 -1.05824 0
M  V30 6705 O 628.338 -1.56852 -1.08637 0
M  V30 6706 C 625.478 -3.07407 -1.56828 0
M  V30 6707 C 624.591 -4.20747 -0.979589 0
M  V30 6708 C 623.726 -4.89113 -2.07224 0
M  V30 6709 C 622.765 -5.94447 -1.45942 0
M  V30 6710 N 621.902 -6.56411 -2.49135 0
M  V30 6711 H 626.742 -2.97404 0.18837 0
M  V30 6712 H 624.279 -1.46727 0.104725 0
M  V30 6713 H 626.237 -3.52642 -2.22934 0
M  V30 6714 H 624.867 -2.3865 -2.17361 0
M  V30 6715 H 623.919 -3.7983 -0.208151 0
M  V30 6716 H 625.231 -4.9637 -0.491747 0
M  V30 6717 H 624.385 -5.3765 -2.81101 0
M  V30 6718 H 623.124 -4.13013 -2.59368 0
M  V30 6719 H 622.129 -5.4525 -0.705894 0
M  V30 6720 H 623.354 -6.7248 -0.945932 0
M  V30 6721 H 621.3 -5.83152 -3.00449 0
M  V30 6722 H 621.217 -7.27645 -2.05105 0
M  V30 6723 H 622.485 -7.09592 -3.22644 0
M  V30 6724 N 626.714 -0.118576 -1.57153 0
M  V30 6725 C 627.662 0.849114 -2.16547 0
M  V30 6726 C 628.656 1.27567 -1.11458 0
M  V30 6727 O 629.862 1.24746 -1.29763 0
M  V30 6728 H 626.237 0.291935 -0.693021 0
M  V30 6729 H 628.208 0.323693 -2.96639 0
M  V30 6730 C 626.957 2.08951 -2.77912 0
M  V30 6731 H 626.28 1.77021 -3.58474 0
M  V30 6732 H 627.72 2.74666 -3.23008 0
M  V30 6733 C 626.179 2.87899 -1.74974 0
M  V30 6734 O 626.709 3.83268 -1.20285 0
M  V30 6735 N 624.915 2.51884 -1.44924 0
M  V30 6736 H 624.462 1.74397 -1.89587 0
M  V30 6737 H 624.42 3.05003 -0.762921 0
M  V30 6738 N 628.193 1.56834 0.155195 0
M  V30 6739 C 629.103 2.009 1.21146 0
M  V30 6740 C 630.119 0.923029 1.475 0
M  V30 6741 O 631.295 1.23189 1.59331 0
M  V30 6742 C 628.36 2.37378 2.52691 0
M  V30 6743 C 627.421 3.59883 2.34057 0
M  V30 6744 C 626.654 3.94612 3.59329 0
M  V30 6745 O 626.877 3.30104 4.65175 0
M  V30 6746 O 625.811 4.87895 3.52479 0
M  V30 6747 H 629.637 2.9105 0.867371 0
M  V30 6748 H 627.222 1.44916 0.363298 0
M  V30 6749 H 629.104 2.61737 3.3026 0
M  V30 6750 H 627.779 1.50385 2.86646 0
M  V30 6751 H 626.686 3.40722 1.54465 0
M  V30 6752 H 628.019 4.47468 2.0502 0
M  V30 6753 N 629.671 -0.424282 1.51781 0
M  V30 6754 C 630.634 -1.49848 1.73431 0
M  V30 6755 C 631.634 -1.49016 0.604225 0
M  V30 6756 O 632.824 -1.50808 0.871935 0
M  V30 6757 C 629.956 -2.89332 1.80277 0
M  V30 6758 H 631.149 -1.3195 2.69312 0
M  V30 6759 H 628.702 -0.653809 1.41968 0
M  V30 6760 H 629.437 -3.12618 0.862568 0
M  V30 6761 H 629.222 -2.9134 2.62419 0
M  V30 6762 H 630.712 -3.67233 1.98821 0
M  V30 6763 N 631.149 -1.42148 -0.680565 0
M  V30 6764 C 632.082 -1.39602 -1.80517 0
M  V30 6765 C 633.06 -0.261098 -1.6049 0
M  V30 6766 O 634.244 -0.450404 -1.8304 0
M  V30 6767 C 631.371 -1.18134 -3.1743 0
M  V30 6768 C 630.417 -2.34543 -3.56219 0
M  V30 6769 S 631.25 -3.97063 -3.59306 0
M  V30 6770 C 632.406 -3.77926 -4.98921 0
M  V30 6771 H 632.639 -2.3477 -1.82402 0
M  V30 6772 H 630.172 -1.28851 -0.850691 0
M  V30 6773 H 632.13 -1.06434 -3.96462 0
M  V30 6774 H 630.791 -0.245611 -3.13138 0
M  V30 6775 H 629.984 -2.15255 -4.55721 0
M  V30 6776 H 629.586 -2.42728 -2.84533 0
M  V30 6777 H 631.878 -3.3856 -5.86842 0
M  V30 6778 H 632.821 -4.77084 -5.23256 0
M  V30 6779 H 633.229 -3.10904 -4.71167 0
M  V30 6780 N 632.627 0.916307 -1.28225 0
M  V30 6781 C 633.537 2.05165 -1.13775 0
M  V30 6782 C 634.553 1.73879 -0.0649418 0
M  V30 6783 O 635.729 1.99531 -0.273722 0
M  V30 6784 C 632.794 3.37385 -0.798267 0
M  V30 6785 C 631.855 3.82296 -1.95316 0
M  V30 6786 C 631.088 5.08206 -1.62978 0
M  V30 6787 O 631.311 5.6781 -0.542948 0
M  V30 6788 O 630.245 5.48768 -2.47261 0
M  V30 6789 H 634.071 2.20273 -2.09078 0
M  V30 6790 H 631.656 1.0373 -1.07519 0
M  V30 6791 H 633.538 4.16773 -0.62278 0
M  V30 6792 H 632.213 3.23458 0.125139 0
M  V30 6793 H 631.12 3.03746 -2.18378 0
M  V30 6794 H 632.453 4.00782 -2.85718 0
M  V30 6795 N 634.105 1.10431 1.1244 0
M  V30 6796 C 635.516 0.864439 1.65482 0
M  V30 6797 C 635.867 -0.60527 1.8663 0
M  V30 6798 O 634.992 -1.46492 1.59276 0
M  V30 6799 C 635.587 1.56267 3.0061 0
M  V30 6800 C 634.146 1.3695 3.50602 0
M  V30 6801 C 633.293 1.61209 2.25626 0
M  V30 6802 H 636.244 1.26203 0.962209 0
M  V30 6803 H 636.265 1.00166 3.67079 0
M  V30 6804 H 635.777 2.63231 2.85186 0
M  V30 6805 H 633.878 0.321481 3.71211 0
M  V30 6806 H 633.991 2.11143 4.30064 0
M  V30 6807 H 632.355 1.03482 2.32731 0
M  V30 6808 H 633.138 2.69425 2.12756 0
M  V30 6809 N 635.583 -1.29855 0.893053 0
M  V30 6810 C 636.531 -2.29867 0.355512 0
M  V30 6811 C 637.525 -1.60502 -0.541801 0
M  V30 6812 O 638.731 -1.74902 -0.425339 0
M  V30 6813 H 635.106 -0.745805 0.0963247 0
M  V30 6814 H 637.077 -2.72655 1.21252 0
M  V30 6815 C 635.826 -3.453 -0.407801 0
M  V30 6816 H 635.149 -3.98864 0.273426 0
M  V30 6817 H 636.589 -4.17334 -0.748887 0
M  V30 6818 C 635.048 -2.96051 -1.60795 0
M  V30 6819 O 635.578 -2.96763 -2.7073 0
M  V30 6820 N 633.784 -2.51963 -1.44786 0
M  V30 6821 H 633.331 -2.51583 -0.553498 0
M  V30 6822 H 633.289 -2.1937 -2.2522 0
M  V30 6823 N 637.061 -0.65484 -1.43351 0
M  V30 6824 C 638.009 0.0476784 -2.32551 0
M  V30 6825 C 639.003 0.811403 -1.48703 0
M  V30 6826 O 640.209 0.721621 -1.64902 0
M  V30 6827 H 636.584 0.0342038 -0.751222 0
M  V30 6828 H 638.555 -0.722342 -2.89525 0
M  V30 6829 C 637.304 0.999251 -3.33032 0
M  V30 6830 H 636.627 0.421005 -3.97577 0
M  V30 6831 H 638.067 1.45986 -3.98076 0
M  V30 6832 C 636.526 2.09606 -2.63756 0
M  V30 6833 O 637.056 3.18004 -2.4543 0
M  V30 6834 N 635.262 1.86207 -2.23103 0
M  V30 6835 H 634.809 0.980555 -2.38208 0
M  V30 6836 H 634.767 2.59787 -1.77081 0
M  V30 6837 N 638.539 1.52521 -0.396863 0
M  V30 6838 C 639.788 2.00857 0.184184 0
M  V30 6839 C 640.101 1.28733 1.47265 0
M  V30 6840 O 641.307 1.67821 2.13421 0
M  V30 6841 C 639.763 3.57901 0.378787 0
M  V30 6842 C 639.371 4.38931 -0.896873 0
M  V30 6843 C 641.115 4.14504 0.915789 0
M  V30 6844 C 639.022 5.87591 -0.670133 0
M  V30 6845 H 637.952 0.750496 0.0726055 0
M  V30 6846 H 640.603 1.75965 -0.520425 0
M  V30 6847 H 638.985 3.79072 1.14543 0
M  V30 6848 H 640.159 4.29524 -1.66872 0
M  V30 6849 H 638.474 3.93586 -1.35938 0
M  V30 6850 H 641.071 5.23236 1.10126 0
M  V30 6851 H 641.414 3.71076 1.88701 0
M  V30 6852 H 641.947 3.97253 0.208523 0
M  V30 6853 H 638.686 6.35355 -1.61257 0
M  V30 6854 H 638.206 5.99767 0.0626368 0
M  V30 6855 H 639.885 6.46268 -0.307577 0
M  V30 6856 N 640.017 0.126909 1.57088 0
M  V30 6857 C 640.947 -0.816847 2.18746 0
M  V30 6858 C 641.928 -1.27161 1.12979 0
M  V30 6859 O 643.113 -1.33279 1.41246 0
M  V30 6860 C 640.243 -2.06398 2.79315 0
M  V30 6861 C 639.197 -1.74673 3.90735 0
M  V30 6862 C 638.523 -3.06482 4.38147 0
M  V30 6863 C 639.823 -1.0089 5.12463 0
M  V30 6864 H 641.517 -0.303032 2.97863 0
M  V30 6865 H 639.063 -0.144314 1.43275 0
M  V30 6866 H 641.016 -2.72885 3.2111 0
M  V30 6867 H 639.74 -2.60118 1.975 0
M  V30 6868 H 638.399 -1.10572 3.49527 0
M  V30 6869 H 638.047 -3.58152 3.5318 0
M  V30 6870 H 637.747 -2.86025 5.13287 0
M  V30 6871 H 639.271 -3.74073 4.82599 0
M  V30 6872 H 640.685 -1.57546 5.51228 0
M  V30 6873 H 639.082 -0.905006 5.93237 0
M  V30 6874 H 640.152 0.00297335 4.849 0
M  V30 6875 N 641.495 -1.56914 -0.146875 0
M  V30 6876 C 642.405 -2.0154 -1.20079 0
M  V30 6877 C 643.421 -0.930838 -1.47008 0
M  V30 6878 O 644.597 -1.24032 -1.58676 0
M  V30 6879 C 641.662 -2.38715 -2.51428 0
M  V30 6880 C 640.723 -3.6112 -2.32145 0
M  V30 6881 C 639.956 -3.96512 -3.57231 0
M  V30 6882 O 640.179 -3.32566 -4.63418 0
M  V30 6883 O 639.113 -4.89758 -3.49887 0
M  V30 6884 H 642.939 -2.91506 -0.851924 0
M  V30 6885 H 640.524 -1.45106 -0.355607 0
M  V30 6886 H 642.406 -2.63485 -3.28867 0
M  V30 6887 H 641.081 -1.51903 -2.85845 0
M  V30 6888 H 639.988 -3.41536 -1.52656 0
M  V30 6889 H 641.321 -4.48549 -2.02644 0
M  V30 6890 N 642.974 0.416227 -1.52004 0
M  V30 6891 C 643.884 1.53147 -1.77717 0
M  V30 6892 C 644.9 1.609 -0.662368 0
M  V30 6893 O 646.076 1.77747 -0.946991 0
M  V30 6894 C 643.141 2.88948 -1.91598 0
M  V30 6895 C 642.202 2.9114 -3.15493 0
M  V30 6896 C 641.435 4.20464 -3.28703 0
M  V30 6897 O 641.658 5.13981 -2.47345 0
M  V30 6898 O 640.592 4.29368 -4.21813 0
M  V30 6899 H 644.418 1.34357 -2.72363 0
M  V30 6900 H 642.003 0.601373 -1.36762 0
M  V30 6901 H 643.885 3.69505 -2.02593 0
M  V30 6902 H 642.56 3.07821 -1.00141 0
M  V30 6903 H 641.467 2.09461 -3.09962 0
M  V30 6904 H 642.8 2.77216 -4.06709 0
M  V30 6905 N 644.452 1.42507 0.673017 0
M  V30 6906 C 645.692 1.44559 1.44507 0
M  V30 6907 C 646.056 0.0606206 1.91904 0
M  V30 6908 O 647.257 -0.044139 2.68764 0
M  V30 6909 C 645.528 2.44291 2.60877 0
M  V30 6910 S 647.087 2.65059 3.49699 0
M  V30 6911 H 643.905 0.51181 0.49353 0
M  V30 6912 H 646.507 1.79124 0.783256 0
M  V30 6913 H 645.211 3.43685 2.24297 0
M  V30 6914 H 644.742 2.11157 3.31928 0
M  V30 6915 H 646.757 1.93494 4.56919 0
M  V30 6916 N 645.93 -0.909495 1.28709 0
M  V30 6917 C 647.158 -1.69272 1.18973 0
M  V30 6918 C 647.573 -1.87123 -0.251048 0
M  V30 6919 O 646.93 -1.40127 -1.16922 0
M  V30 6920 C 646.981 -3.08257 1.88839 0
M  V30 6921 O 646.702 -2.91228 3.27289 0
M  V30 6922 C 648.203 -4.02642 1.85457 0
M  V30 6923 H 645.423 -0.528999 0.412797 0
M  V30 6924 H 647.967 -1.13803 1.69909 0
M  V30 6925 H 646.122 -3.6053 1.41762 0
M  V30 6926 H 646.536 -3.79223 3.6234 0
M  V30 6927 H 648.01 -4.97613 2.38925 0
M  V30 6928 H 648.487 -4.31327 0.827893 0
M  V30 6929 H 649.093 -3.56298 2.32233 0
M  V30 6930 N 647.408 -1.11026 -1.11852 0
M  V30 6931 C 648.654 -0.857729 -1.83768 0
M  V30 6932 C 648.987 0.615143 -1.842 0
M  V30 6933 O 648.262 1.45391 -1.29196 0
M  V30 6934 C 648.545 -1.41453 -3.31154 0
M  V30 6935 C 648.398 -2.95471 -3.39142 0
M  V30 6936 C 649.717 -1.0619 -4.27097 0
M  V30 6937 H 646.836 -0.313044 -0.667212 0
M  V30 6938 H 649.478 -1.37443 -1.31185 0
M  V30 6939 H 647.628 -0.975052 -3.76065 0
M  V30 6940 H 649.3 -3.4799 -3.02821 0
M  V30 6941 H 647.543 -3.31759 -2.79497 0
M  V30 6942 H 648.214 -3.29515 -4.42859 0
M  V30 6943 H 650.69 -1.44122 -3.90344 0
M  V30 6944 H 649.566 -1.47832 -5.28618 0
M  V30 6945 H 649.827 0.0278912 -4.42091 0
M  V30 6946 N 648.886 1.2938 -0.899927 0
M  V30 6947 C 649.816 2.30144 -0.39446 0
M  V30 6948 C 650.797 1.61611 0.530639 0
M  V30 6949 O 651.982 1.89119 0.441319 0
M  V30 6950 C 649.112 3.45229 0.37868 0
M  V30 6951 C 648.066 4.25564 -0.456012 0
M  V30 6952 C 647.392 5.32848 0.444637 0
M  V30 6953 C 648.692 4.93651 -1.70605 0
M  V30 6954 H 650.386 2.72673 -1.23653 0
M  V30 6955 H 647.932 1.31086 -0.596034 0
M  V30 6956 H 649.885 4.14797 0.743037 0
M  V30 6957 H 648.609 3.01545 1.25453 0
M  V30 6958 H 647.268 3.57704 -0.802704 0
M  V30 6959 H 646.916 4.85408 1.31863 0
M  V30 6960 H 646.616 5.87497 -0.110154 0
M  V30 6961 H 648.14 6.05268 0.805182 0
M  V30 6962 H 649.554 5.55655 -1.41141 0
M  V30 6963 H 647.951 5.58233 -2.20217 0
M  V30 6964 H 649.021 4.18926 -2.4419 0
M  V30 6965 N 650.364 0.662433 1.43002 0
M  V30 6966 C 651.311 -0.0235324 2.30788 0
M  V30 6967 C 652.281 -0.805342 1.4527 0
M  V30 6968 O 653.466 -0.78009 1.74124 0
M  V30 6969 C 650.606 -0.977545 3.30965 0
M  V30 6970 C 649.719 -0.190865 4.31578 0
M  V30 6971 C 648.854 -1.13951 5.18834 0
M  V30 6972 C 647.893 -0.343796 6.11134 0
M  V30 6973 N 647.03 -1.2445 6.90982 0
M  V30 6974 H 651.87 0.730921 2.88897 0
M  V30 6975 H 649.407 0.372197 1.42313 0
M  V30 6976 H 651.365 -1.54437 3.87563 0
M  V30 6977 H 649.995 -1.69877 2.74484 0
M  V30 6978 H 649.047 0.492388 3.772 0
M  V30 6979 H 650.359 0.427464 4.96965 0
M  V30 6980 H 649.513 -1.77666 5.80103 0
M  V30 6981 H 648.252 -1.79174 4.53595 0
M  V30 6982 H 647.257 0.30665 5.48944 0
M  V30 6983 H 648.482 0.304161 6.78419 0
M  V30 6984 H 646.428 -1.88336 6.28383 0
M  V30 6985 H 646.345 -0.680959 7.52927 0
M  V30 6986 H 647.613 -1.86952 7.56749 0
M  V30 6987 N 651.842 -1.52309 0.404946 0
M  V30 6988 C 653.067 -2.06666 -0.1743 0
M  V30 6989 C 653.492 -1.27341 -1.38441 0
M  V30 6990 O 652.85 -0.302539 -1.78758 0
M  V30 6991 C 652.898 -3.57014 -0.507262 0
M  V30 6992 O 652.002 -3.80144 -1.59889 0
M  V30 6993 H 651.343 -0.663807 -0.0160273 0
M  V30 6994 H 653.873 -1.96297 0.576937 0
M  V30 6995 H 653.883 -4.00724 -0.767098 0
M  V30 6996 H 652.558 -4.14184 0.377368 0
M  V30 6997 H 651.135 -3.48316 -1.33155 0
M  V30 6998 N 653.32 -0.135238 -1.57019 0
M  V30 6999 C 654.25 0.805235 -2.19176 0
M  V30 7000 C 655.231 1.2656 -1.13651 0
M  V30 7001 O 656.416 1.32528 -1.4195 0
M  V30 7002 C 653.546 2.04914 -2.80406 0
M  V30 7003 C 652.5 1.72598 -3.91655 0
M  V30 7004 C 651.826 3.04154 -4.39766 0
M  V30 7005 C 653.126 0.981709 -5.12991 0
M  V30 7006 H 654.82 0.287232 -2.98019 0
M  V30 7007 H 652.366 0.136714 -1.4335 0
M  V30 7008 H 654.319 2.71178 -3.22553 0
M  V30 7009 H 653.043 2.59067 -1.98877 0
M  V30 7010 H 651.702 1.08717 -3.50109 0
M  V30 7011 H 651.35 3.56274 -3.55075 0
M  V30 7012 H 651.05 2.83299 -5.14796 0
M  V30 7013 H 652.574 3.71509 -4.84576 0
M  V30 7014 H 653.988 1.5462 -5.52056 0
M  V30 7015 H 652.385 0.873533 -5.93708 0
M  V30 7016 H 653.455 -0.0286887 -4.84892 0
M  V30 7017 N 654.798 1.5699 0.138552 0
M  V30 7018 C 656.023 1.88344 0.86841 0
M  V30 7019 C 656.448 0.725159 1.7356 0
M  V30 7020 O 655.806 -0.324992 1.78363 0
M  V30 7021 C 655.854 3.18334 1.69398 0
M  V30 7022 O 654.958 3.02863 2.79907 0
M  V30 7023 H 654.299 0.618577 0.241367 0
M  V30 7024 H 656.829 2.04207 0.126826 0
M  V30 7025 H 656.839 3.50567 2.08726 0
M  V30 7026 H 655.514 4.02238 1.05725 0
M  V30 7027 H 654.091 2.82056 2.43924 0
M  V30 7028 N 656.276 -0.40816 1.52223 0
M  V30 7029 C 657.501 -1.18127 1.70472 0
M  V30 7030 C 657.926 -1.83491 0.41384 0
M  V30 7031 O 657.284 -1.70047 -0.628778 0
M  V30 7032 C 657.332 -2.21935 2.84213 0
M  V30 7033 O 656.436 -3.28099 2.4985 0
M  V30 7034 H 655.777 -0.344781 0.56747 0
M  V30 7035 H 658.307 -0.478328 1.9893 0
M  V30 7036 H 658.317 -2.66248 3.09153 0
M  V30 7037 H 656.992 -1.73744 3.7787 0
M  V30 7038 H 655.569 -2.89058 2.35584 0
M  V30 7039 N 657.755 -1.42862 -0.66545 0
M  V30 7040 C 659.001 -1.44043 -1.42757 0
M  V30 7041 C 659.334 -0.0599629 -1.94107 0
M  V30 7042 O 658.609 0.917286 -1.71511 0
M  V30 7043 C 658.892 -2.47266 -2.61786 0
M  V30 7044 C 658.745 -3.94539 -2.16007 0
M  V30 7045 C 660.064 -2.47365 -3.64003 0
M  V30 7046 H 657.183 -0.524506 -0.517748 0
M  V30 7047 H 659.825 -1.74335 -0.755466 0
M  V30 7048 H 657.975 -2.21565 -3.19126 0
M  V30 7049 H 659.647 -4.31254 -1.63762 0
M  V30 7050 H 657.89 -4.07957 -1.47491 0
M  V30 7051 H 658.561 -4.62357 -3.01546 0
M  V30 7052 H 661.037 -2.70243 -3.16399 0
M  V30 7053 H 659.913 -3.21552 -4.44854 0
M  V30 7054 H 660.174 -1.50299 -4.15767 0
M  V30 7055 N 659.233 0.902656 -1.29189 0
M  V30 7056 C 660.479 1.65532 -1.17163 0
M  V30 7057 C 660.812 1.92216 0.276879 0
M  V30 7058 O 660.087 1.53048 1.20027 0
M  V30 7059 C 660.37 3.00629 -1.98228 0
M  V30 7060 C 660.223 2.81029 -3.51202 0
M  V30 7061 C 661.542 4.01321 -1.80635 0
M  V30 7062 H 658.661 0.60071 -0.426985 0
M  V30 7063 H 661.303 1.04578 -1.5863 0
M  V30 7064 H 659.453 3.52656 -1.62991 0
M  V30 7065 H 661.125 2.35927 -3.96404 0
M  V30 7066 H 659.368 2.1587 -3.76275 0
M  V30 7067 H 660.039 3.77014 -4.03192 0
M  V30 7068 H 662.515 3.58394 -2.11406 0
M  V30 7069 H 661.391 4.93792 -2.3971 0
M  V30 7070 H 661.652 4.35505 -0.760754 0
M  V30 7071 N 660.711 1.11618 1.11262 0
M  V30 7072 C 661.958 0.86618 1.8304 0
M  V30 7073 C 662.286 -0.608149 1.84748 0
M  V30 7074 O 661.541 -1.46508 1.29745 0
M  V30 7075 C 661.84 1.37529 3.2988 0
M  V30 7076 C 661.506 2.86317 3.4833 0
M  V30 7077 C 660.168 3.26945 3.53073 0
M  V30 7078 C 662.52 3.82136 3.54431 0
M  V30 7079 C 659.848 4.62117 3.61475 0
M  V30 7080 C 662.2 5.17128 3.64365 0
M  V30 7081 C 660.864 5.57312 3.67369 0
M  V30 7082 H 660.134 0.316958 0.66979 0
M  V30 7083 H 662.781 1.3949 1.31205 0
M  V30 7084 H 661.086 0.766842 3.84222 0
M  V30 7085 H 662.783 1.15817 3.83911 0
M  V30 7086 H 659.373 2.53889 3.45309 0
M  V30 7087 H 663.557 3.51847 3.50025 0
M  V30 7088 H 658.813 4.92655 3.62079 0
M  V30 7089 H 662.987 5.91208 3.68029 0
M  V30 7090 H 660.614 6.62045 3.73632 0
M  V30 7091 N 662.189 -1.289 0.906776 0
M  V30 7092 C 663.466 -1.90221 0.455537 0
M  V30 7093 C 663.846 -1.82251 -1.06527 0
M  V30 7094 O 663.194 -1.25385 -1.91026 0
M  V30 7095 C 663.404 -3.35015 0.97806 0
M  V30 7096 C 664.752 -4.12018 1.02598 0
M  V30 7097 O 665.776 -3.43947 0.926218 0
M  V30 7098 O 664.635 -5.33677 1.17689 0
M  V30 7099 H 661.729 -0.814505 0.143214 0
M  V30 7100 H 664.275 -1.37317 0.997104 0
M  V30 7101 H 663.047 -3.35006 2.02204 0
M  V30 7102 H 662.67 -3.95408 0.416914 0
M  V30 7103 N 663.667 -0.670007 -1.42649 0
M  V30 7104 C 664.944 -0.119451 -1.95235 0
M  V30 7105 C 665.324 1.36461 -1.61064 0
M  V30 7106 O 664.672 2.09843 -0.904329 0
M  V30 7107 C 664.882 -0.383498 -3.46887 0
M  V30 7108 C 666.23 -0.297431 -4.23557 0
M  V30 7109 O 667.254 -0.31698 -3.54787 0
M  V30 7110 O 666.113 -0.235507 -5.45992 0
M  V30 7111 H 663.207 -8.85474e-05 -0.827 0
M  V30 7112 H 665.753 -0.744406 -1.52501 0
M  V30 7113 H 664.525 -1.41174 -3.64946 0
M  V30 7114 H 664.148 0.273702 -3.96657 0
M  V30 7115 N 665.145 1.52092 -0.413018 0
M  V30 7116 C 666.556 1.86617 0.0556967 0
M  V30 7117 C 666.907 1.33156 1.44097 0
M  V30 7118 O 666.032 0.672417 2.05688 0
M  V30 7119 C 666.627 3.38628 0.107844 0
M  V30 7120 C 665.186 3.72778 0.520904 0
M  V30 7121 C 664.333 2.75649 -0.302109 0
M  V30 7122 H 667.284 1.45663 -0.629919 0
M  V30 7123 H 667.305 3.69152 0.922324 0
M  V30 7124 H 666.817 3.77508 -0.900506 0
M  V30 7125 H 664.918 3.39478 1.53575 0
M  V30 7126 H 665.031 4.7838 0.262591 0
M  V30 7127 H 663.395 2.53603 0.236115 0
M  V30 7128 H 664.178 3.17369 -1.30888 0
M  V30 7129 N 666.623 0.143563 1.56945 0
M  V30 7130 C 667.872 -0.50835 1.95189 0
M  V30 7131 C 668.185 -1.66239 1.03073 0
M  V30 7132 O 669.391 -2.3787 1.30882 0
M  V30 7133 C 667.847 -0.955735 3.46978 0
M  V30 7134 C 667.455 0.171183 4.47673 0
M  V30 7135 C 669.199 -1.57763 3.94095 0
M  V30 7136 C 667.106 -0.294279 5.90667 0
M  V30 7137 H 666.036 -0.193679 0.728701 0
M  V30 7138 H 668.687 0.227357 1.82086 0
M  V30 7139 H 667.069 -1.7466 3.55401 0
M  V30 7140 H 668.243 0.948049 4.50942 0
M  V30 7141 H 666.558 0.701273 4.10452 0
M  V30 7142 H 669.155 -1.93745 4.98364 0
M  V30 7143 H 669.498 -2.46531 3.35452 0
M  V30 7144 H 670.031 -0.851728 3.88575 0
M  V30 7145 H 666.77 0.557939 6.53121 0
M  V30 7146 H 666.29 -1.0371 5.90766 0
M  V30 7147 H 667.969 -0.747426 6.42668 0
M  V30 7148 N 668.101 -1.57061 -0.130224 0
M  V30 7149 C 669.378 -1.75205 -0.869631 0
M  V30 7150 C 669.758 -0.716063 -1.98584 0
M  V30 7151 O 669.106 0.262032 -2.26993 0
M  V30 7152 C 669.316 -3.19835 -1.39666 0
M  V30 7153 C 670.664 -3.82011 -1.85345 0
M  V30 7154 O 671.688 -3.23368 -1.49371 0
M  V30 7155 O 670.547 -4.85064 -2.51744 0
M  V30 7156 H 667.641 -0.716977 -0.412157 0
M  V30 7157 H 670.187 -1.69311 -0.11484 0
M  V30 7158 H 668.959 -3.86745 -0.595288 0
M  V30 7159 H 668.582 -3.30222 -2.21448 0
M  V30 7160 N 669.579 0.400081 -1.52437 0
M  V30 7161 C 670.526 1.48803 -1.76426 0
M  V30 7162 C 671.496 1.5461 -0.607032 0
M  V30 7163 O 672.681 1.71041 -0.845563 0
M  V30 7164 C 669.821 2.86156 -1.92896 0
M  V30 7165 C 668.934 2.89587 -3.20567 0
M  V30 7166 C 668.069 4.18296 -3.27417 0
M  V30 7167 C 667.108 4.15736 -4.49255 0
M  V30 7168 N 666.245 5.36032 -4.53447 0
M  V30 7169 H 671.085 1.27649 -2.69276 0
M  V30 7170 H 668.622 0.619451 -1.33421 0
M  V30 7171 H 670.58 3.65901 -2.00429 0
M  V30 7172 H 669.21 3.05785 -1.03418 0
M  V30 7173 H 668.262 2.02278 -3.22161 0
M  V30 7174 H 669.574 2.83562 -4.10358 0
M  V30 7175 H 668.728 5.06439 -3.34072 0
M  V30 7176 H 667.467 4.27028 -2.35581 0
M  V30 7177 H 666.472 3.25982 -4.42737 0
M  V30 7178 H 667.697 4.08636 -5.42396 0
M  V30 7179 H 665.643 5.45415 -3.64498 0
M  V30 7180 H 665.56 5.32038 -5.37096 0
M  V30 7181 H 666.828 6.26104 -4.64343 0
M  V30 7182 N 671.057 1.43213 0.657864 0
M  V30 7183 C 671.987 1.50815 1.78262 0
M  V30 7184 C 672.968 0.363211 1.66177 0
M  V30 7185 O 674.153 0.579806 1.85343 0
M  V30 7186 C 671.283 1.42625 3.16663 0
M  V30 7187 C 670.237 2.5532 3.43505 0
M  V30 7188 C 669.563 2.32184 4.81658 0
M  V30 7189 C 670.863 3.97583 3.38711 0
M  V30 7190 H 672.557 2.44954 1.72157 0
M  V30 7191 H 670.103 1.17896 0.82683 0
M  V30 7192 H 672.056 1.46548 3.95097 0
M  V30 7193 H 670.78 0.449877 3.23487 0
M  V30 7194 H 669.439 2.50742 2.6744 0
M  V30 7195 H 669.087 1.32801 4.85153 0
M  V30 7196 H 668.787 3.07724 5.00579 0
M  V30 7197 H 670.311 2.37883 5.62356 0
M  V30 7198 H 671.725 4.03673 4.07089 0
M  V30 7199 H 670.122 4.73112 3.69168 0
M  V30 7200 H 671.192 4.23049 2.36976 0
M  V30 7201 N 672.536 -0.895792 1.29666 0
M  V30 7202 C 673.947 -1.46195 1.1612 0
M  V30 7203 C 674.298 -1.94699 -0.242195 0
M  V30 7204 O 673.423 -1.8406 -1.13802 0
M  V30 7205 C 674.018 -2.65718 2.10189 0
M  V30 7206 C 672.577 -3.18458 2.00653 0
M  V30 7207 C 671.724 -1.91149 2.00891 0
M  V30 7208 H 674.675 -0.706756 1.42094 0
M  V30 7209 H 674.696 -3.4158 1.6764 0
M  V30 7210 H 674.208 -2.30386 3.12321 0
M  V30 7211 H 672.309 -3.58474 1.01623 0
M  V30 7212 H 672.422 -3.82491 2.88509 0
M  V30 7213 H 670.786 -2.09021 1.45542 0
M  V30 7214 H 671.569 -1.58089 3.04734 0
M  V30 7215 N 674.014 -1.12206 -1.10668 0
M  V30 7216 C 674.924 -0.800686 -2.20513 0
M  V30 7217 C 675.94 0.209512 -1.72734 0
M  V30 7218 O 677.116 0.043705 -2.01353 0
M  V30 7219 C 674.181 -0.257353 -3.45744 0
M  V30 7220 C 673.242 -1.32718 -4.0827 0
M  V30 7221 C 672.475 -0.809674 -5.27522 0
M  V30 7222 O 672.698 0.35742 -5.69279 0
M  V30 7223 O 671.632 -1.57816 -5.80842 0
M  V30 7224 H 675.458 -1.71807 -2.50432 0
M  V30 7225 H 673.043 -0.898546 -1.19359 0
M  V30 7226 H 674.925 0.0408849 -4.2138 0
M  V30 7227 H 673.6 0.632627 -3.17458 0
M  V30 7228 H 672.507 -1.67855 -3.34329 0
M  V30 7229 H 673.84 -2.19083 -4.40753 0
M  V30 7230 N 675.492 1.28418 -0.913599 0
M  V30 7231 C 676.74 1.94596 -0.545594 0
M  V30 7232 C 677.061 1.7227 0.913668 0
M  V30 7233 O 676.331 1.06233 1.64595 0
M  V30 7234 H 674.911 0.720065 -0.198783 0
M  V30 7235 H 677.573 1.56404 -1.16292 0
M  V30 7236 H 676.669 3.03202 -0.739911 0
M  V30 7237 N 676.97 0.677563 1.42291 0
M  V30 7238 C 678.21 0.204894 2.0337 0
M  V30 7239 C 678.574 -1.16744 1.5243 0
M  V30 7240 O 679.775 -1.73492 2.05314 0
M  V30 7241 C 678.046 0.240742 3.56588 0
M  V30 7242 S 679.605 -0.16052 4.38506 0
M  V30 7243 H 676.423 0.0839932 0.706021 0
M  V30 7244 H 679.025 0.891332 1.73999 0
M  V30 7245 H 677.729 1.24184 3.91161 0
M  V30 7246 H 677.26 -0.465439 3.90637 0
M  V30 7247 H 679.275 -1.39315 4.76241 0
M  V30 7248 N 678.448 -1.51871 0.421078 0
M  V30 7249 C 679.673 -2.0684 -0.152371 0
M  V30 7250 C 680.098 -1.28802 -1.37083 0
M  V30 7251 O 679.456 -0.321482 -1.78427 0
M  V30 7252 C 679.504 -3.57532 -0.469368 0
M  V30 7253 O 678.608 -3.81818 -1.55848 0
M  V30 7254 H 677.949 -0.663939 -0.00898586 0
M  V30 7255 H 680.479 -1.95674 0.597724 0
M  V30 7256 H 680.489 -4.01515 -0.724553 0
M  V30 7257 H 679.164 -4.13761 0.421276 0
M  V30 7258 H 677.741 -3.49709 -1.29453 0
M  V30 7259 N 679.926 -0.151884 -1.56866 0
M  V30 7260 C 681.151 0.508044 -2.01081 0
M  V30 7261 C 681.576 1.57306 -1.03134 0
M  V30 7262 O 680.934 1.81298 -0.0078309 0
M  V30 7263 C 680.982 1.08106 -3.44014 0
M  V30 7264 O 680.086 2.19577 -3.49084 0
M  V30 7265 H 679.427 0.123757 -0.652365 0
M  V30 7266 H 681.957 -0.250055 -2.03066 0
M  V30 7267 H 681.967 1.40851 -3.82916 0
M  V30 7268 H 680.642 0.301168 -4.14808 0
M  V30 7269 H 679.219 1.88023 -3.22027 0
M  V30 7270 N 681.404 1.57128 0.121893 0
M  V30 7271 C 682.337 1.95327 1.17995 0
M  V30 7272 C 683.315 0.822524 1.40262 0
M  V30 7273 O 684.499 1.08044 1.54463 0
M  V30 7274 C 681.626 2.24699 2.53432 0
M  V30 7275 C 680.672 3.47263 2.4761 0
M  V30 7276 S 681.505 4.99951 1.91857 0
M  V30 7277 C 682.661 5.32473 3.28973 0
M  V30 7278 H 682.894 2.84765 0.854182 0
M  V30 7279 H 680.427 1.50864 0.328534 0
M  V30 7280 H 682.385 2.423 3.31362 0
M  V30 7281 H 681.046 1.3588 2.83188 0
M  V30 7282 H 680.239 3.65171 3.4737 0
M  V30 7283 H 679.841 3.29034 1.778 0
M  V30 7284 H 682.133 5.27478 4.25175 0
M  V30 7285 H 683.076 6.33732 3.15895 0
M  V30 7286 H 683.484 4.59952 3.27268 0
M  V30 7287 N 682.882 -0.391992 1.52647 0
M  V30 7288 C 683.792 -1.503 1.80131 0
M  V30 7289 C 684.808 -1.59825 0.687882 0
M  V30 7290 O 685.984 -1.76218 0.975149 0
M  V30 7291 C 683.049 -2.85863 1.96171 0
M  V30 7292 C 682.11 -2.86084 3.20085 0
M  V30 7293 C 681.343 -4.15181 3.35351 0
M  V30 7294 O 681.566 -5.09981 2.55491 0
M  V30 7295 O 680.5 -4.22603 4.28591 0
M  V30 7296 H 684.326 -1.30007 2.74466 0
M  V30 7297 H 681.911 -0.579539 1.37701 0
M  V30 7298 H 683.793 -3.66236 2.08445 0
M  V30 7299 H 682.468 -3.06189 1.05025 0
M  V30 7300 H 681.375 -2.04504 3.13256 0
M  V30 7301 H 682.708 -2.7071 4.11068 0
M  V30 7302 N 684.36 -1.4356 -0.65026 0
M  V30 7303 C 685.588 -1.48779 -1.43779 0
M  V30 7304 C 686.003 -0.106593 -1.88499 0
M  V30 7305 O 685.36 0.883766 -1.59674 0
M  V30 7306 C 685.411 -2.43618 -2.67081 0
M  V30 7307 O 685.132 -3.76367 -2.24231 0
M  V30 7308 C 686.633 -2.5811 -3.60409 0
M  V30 7309 H 683.853 -0.50521 -0.441593 0
M  V30 7310 H 686.397 -1.88332 -0.796941 0
M  V30 7311 H 684.552 -2.07253 -3.273 0
M  V30 7312 H 684.966 -4.27394 -3.0403 0
M  V30 7313 H 686.44 -3.28539 -4.43583 0
M  V30 7314 H 686.917 -1.627 -4.07953 0
M  V30 7315 H 687.523 -2.95298 -3.0607 0
M  V30 7316 N 685.838 0.888903 -1.30139 0
M  V30 7317 C 686.786 2.0156 -1.16088 0
M  V30 7318 C 687.78 1.69239 -0.0737413 0
M  V30 7319 O 688.986 1.78468 -0.234313 0
M  V30 7320 H 685.361 0.660825 -0.358907 0
M  V30 7321 H 687.332 2.10547 -2.11453 0
M  V30 7322 C 686.081 3.36758 -0.865426 0
M  V30 7323 H 685.404 3.62137 -1.69402 0
M  V30 7324 H 686.844 4.16246 -0.807192 0
M  V30 7325 C 685.303 3.34124 0.431577 0
M  V30 7326 O 685.833 3.7445 1.45431 0
M  V30 7327 N 684.039 2.87229 0.441321 0
M  V30 7328 H 683.586 2.54609 -0.391433 0
M  V30 7329 H 683.544 2.8585 1.30909 0
M  V30 7330 N 687.317 1.12792 1.10072 0
M  V30 7331 C 688.566 0.880232 1.81479 0
M  V30 7332 C 688.879 -0.595575 1.86312 0
M  V30 7333 O 690.085 -0.959979 2.53962 0
M  V30 7334 C 688.541 1.52514 3.25987 0
M  V30 7335 C 688.149 3.036 3.29441 0
M  V30 7336 C 689.893 1.35788 4.02196 0
M  V30 7337 C 687.8 3.61007 4.68431 0
M  V30 7338 H 686.73 0.325654 0.680048 0
M  V30 7339 H 689.381 1.35485 1.23758 0
M  V30 7340 H 687.763 0.978188 3.83728 0
M  V30 7341 H 688.937 3.64819 2.81502 0
M  V30 7342 H 687.252 3.19765 2.66719 0
M  V30 7343 H 689.849 1.76096 5.0487 0
M  V30 7344 H 690.192 0.301972 4.15203 0
M  V30 7345 H 690.725 1.87426 3.50879 0
M  V30 7346 H 687.464 4.66375 4.60625 0
M  V30 7347 H 686.984 3.04564 5.16721 0
M  V30 7348 H 688.663 3.60289 5.37402 0
M  V30 7349 N 688.795 -1.27931 0.920396 0
M  V30 7350 C 689.742 -2.27085 0.412422 0
M  V30 7351 C 690.712 -1.57858 -0.516725 0
M  V30 7352 O 691.897 -1.85717 -0.437475 0
M  V30 7353 C 689.037 -3.43466 -0.335399 0
M  V30 7354 C 688.15 -4.27425 0.627017 0
M  V30 7355 C 687.285 -5.31016 -0.139916 0
M  V30 7356 C 686.324 -6.06641 0.815683 0
M  V30 7357 N 685.461 -7.02052 0.0818439 0
M  V30 7358 H 690.301 -2.69913 1.26298 0
M  V30 7359 H 687.838 -1.32732 0.634076 0
M  V30 7360 H 689.796 -4.09744 -0.785226 0
M  V30 7361 H 688.426 -3.01611 -1.15025 0
M  V30 7362 H 687.478 -3.6113 1.19537 0
M  V30 7363 H 688.79 -4.79969 1.35763 0
M  V30 7364 H 687.944 -6.03208 -0.649998 0
M  V30 7365 H 686.683 -4.79257 -0.903543 0
M  V30 7366 H 685.688 -5.33294 1.33708 0
M  V30 7367 H 686.913 -6.60489 1.57897 0
M  V30 7368 H 684.859 -6.52634 -0.663671 0
M  V30 7369 H 684.776 -7.52249 0.752163 0
M  V30 7370 H 686.044 -7.78432 -0.407825 0
M  V30 7371 N 690.273 -0.685099 -1.4193 0
M  V30 7372 C 691.522 -0.208816 -2.00616 0
M  V30 7373 C 691.835 1.19506 -1.54847 0
M  V30 7374 O 693.041 1.76826 -2.06021 0
M  V30 7375 C 691.497 -0.322446 -3.58453 0
M  V30 7376 C 691.105 -1.73102 -4.13206 0
M  V30 7377 C 692.849 0.0945979 -4.24395 0
M  V30 7378 C 690.756 -1.79687 -5.63442 0
M  V30 7379 H 689.686 -0.0743092 -0.750329 0
M  V30 7380 H 692.337 -0.851778 -1.62533 0
M  V30 7381 H 690.719 0.388588 -3.94089 0
M  V30 7382 H 691.893 -2.46997 -3.8901 0
M  V30 7383 H 690.208 -2.09682 -3.59753 0
M  V30 7384 H 692.805 0.0656937 -5.3466 0
M  V30 7385 H 693.148 1.1316 -4.00625 0
M  V30 7386 H 693.681 -0.56579 -3.93756 0
M  V30 7387 H 690.42 -2.81404 -5.92024 0
M  V30 7388 H 689.94 -1.10162 -5.89597 0
M  V30 7389 H 691.619 -1.55498 -6.28036 0
M  V30 7390 N 691.751 1.51645 -0.429126 0
M  V30 7391 C 692.976 2.06917 0.141399 0
M  V30 7392 C 693.401 1.29527 1.36398 0
M  V30 7393 O 692.759 0.33094 1.78254 0
M  V30 7394 C 692.807 3.57776 0.4504 0
M  V30 7395 O 691.911 3.82639 1.53821 0
M  V30 7396 H 691.252 0.663978 0.0054647 0
M  V30 7397 H 693.782 1.95355 -0.608093 0
M  V30 7398 H 693.792 4.01894 0.703249 0
M  V30 7399 H 692.467 4.13532 -0.443213 0
M  V30 7400 H 691.044 3.5039 1.27597 0
M  V30 7401 N 693.229 0.160201 1.56784 0
M  V30 7402 C 694.478 -0.487619 1.95717 0
M  V30 7403 C 694.791 -1.65136 1.0483 0
M  V30 7404 O 695.997 -2.36468 1.33398 0
M  V30 7405 C 694.453 -0.91888 3.47972 0
M  V30 7406 C 694.061 0.218655 4.47466 0
M  V30 7407 C 695.805 -1.53575 3.95746 0
M  V30 7408 C 693.712 -0.231614 5.90946 0
M  V30 7409 H 692.642 -0.185939 0.730714 0
M  V30 7410 H 695.293 0.246657 1.81835 0
M  V30 7411 H 693.675 -1.70881 3.57234 0
M  V30 7412 H 694.849 0.995825 4.49911 0
M  V30 7413 H 693.164 0.744767 4.09685 0
M  V30 7414 H 695.761 -1.88448 5.00391 0
M  V30 7415 H 696.104 -2.42959 3.38048 0
M  V30 7416 H 696.637 -0.810467 3.89456 0
M  V30 7417 H 693.376 0.62718 6.52493 0
M  V30 7418 H 692.896 -0.974379 5.91833 0
M  V30 7419 H 694.575 -0.67922 6.43425 0
M  V30 7420 N 694.707 -1.5719 -0.113559 0
M  V30 7421 C 695.67 -1.99796 -1.12314 0
M  V30 7422 C 696.67 -0.888847 -1.34001 0
M  V30 7423 O 697.86 -1.15476 -1.30426 0
M  V30 7424 C 694.992 -2.34279 -2.47641 0
M  V30 7425 H 696.185 -2.90193 -0.756825 0
M  V30 7426 H 693.738 -1.52144 -0.358029 0
M  V30 7427 H 694.473 -1.46778 -2.89183 0
M  V30 7428 H 694.258 -3.15175 -2.33253 0
M  V30 7429 H 695.748 -2.67963 -3.2029 0
M  V30 7430 N 696.185 0.383891 -1.52853 0
M  V30 7431 C 697.095 1.49343 -1.80925 0
M  V30 7432 C 698.111 1.59458 -0.696348 0
M  V30 7433 O 699.287 1.75698 -0.984481 0
M  V30 7434 C 696.352 2.84819 -1.97684 0
M  V30 7435 C 695.413 2.84382 -3.21598 0
M  V30 7436 C 694.646 4.13397 -3.37548 0
M  V30 7437 O 694.869 5.08619 -2.58192 0
M  V30 7438 O 693.803 4.20325 -4.30826 0
M  V30 7439 H 697.629 1.2855 -2.75152 0
M  V30 7440 H 695.214 0.572229 -1.38007 0
M  V30 7441 H 697.096 3.65125 -2.10385 0
M  V30 7442 H 695.771 3.05627 -1.06647 0
M  V30 7443 H 694.678 2.0284 -3.14336 0
M  V30 7444 H 696.011 2.68526 -4.12498 0
M  V30 7445 N 697.663 1.43903 0.642637 0
M  V30 7446 C 699.079 1.27536 0.959519 0
M  V30 7447 C 699.279 0.202751 2.00477 0
M  V30 7448 O 698.335 -0.415256 2.49062 0
M  V30 7449 C 699.648 2.6432 1.43372 0
M  V30 7450 C 701.196 2.71937 1.54981 0
M  V30 7451 C 701.671 4.09164 2.05789 0
M  V30 7452 N 703.162 4.11282 2.13076 0
M  V30 7453 C 703.897 5.14303 2.53534 0
M  V30 7454 N 703.393 6.27693 2.93212 0
M  V30 7455 N 705.186 5.01657 2.53567 0
M  V30 7456 H 697.337 2.12344 -0.0488376 0
M  V30 7457 H 699.6 0.947124 0.0407559 0
M  V30 7458 H 699.306 3.43826 0.740048 0
M  V30 7459 H 699.18 2.90432 2.40685 0
M  V30 7460 H 701.567 1.92757 2.23448 0
M  V30 7461 H 701.648 2.49578 0.560739 0
M  V30 7462 H 701.292 4.88815 1.37921 0
M  V30 7463 H 701.222 4.28893 3.05546 0
M  V30 7464 H 703.713 3.2944 1.85143 0
M  V30 7465 H 704.026 7.02125 3.22863 0
M  V30 7466 H 702.371 6.31149 2.90991 0
M  V30 7467 H 705.562 4.12134 2.21952 0
M  V30 7468 H 705.735 5.82072 2.84774 0
M  V30 7469 N 699.141 -0.881989 1.30609 0
M  V30 7470 C 700.104 -1.96957 1.1722 0
M  V30 7471 C 701.104 -1.60472 0.102598 0
M  V30 7472 O 702.294 -1.70628 0.350943 0
M  V30 7473 C 699.426 -3.31463 0.796572 0
M  V30 7474 H 700.619 -2.10262 2.13846 0
M  V30 7475 H 698.172 -1.06877 1.14048 0
M  V30 7476 H 698.907 -3.23859 -0.169053 0
M  V30 7477 H 698.692 -3.59314 1.56959 0
M  V30 7478 H 700.182 -4.11233 0.72645 0
M  V30 7479 N 700.619 -1.13374 -1.09472 0
M  V30 7480 C 701.566 -0.810682 -2.16094 0
M  V30 7481 C 702.536 0.227003 -1.64541 0
M  V30 7482 O 703.721 0.0993538 -1.90541 0
M  V30 7483 C 700.861 -0.282336 -3.43943 0
M  V30 7484 C 699.974 -1.37902 -4.09398 0
M  V30 7485 C 699.109 -0.809066 -5.25002 0
M  V30 7486 C 698.148 -1.88419 -5.82379 0
M  V30 7487 N 697.285 -1.33221 -6.89345 0
M  V30 7488 H 702.125 -1.72397 -2.43071 0
M  V30 7489 H 699.662 -0.860564 -1.19301 0
M  V30 7490 H 701.62 0.0421189 -4.17179 0
M  V30 7491 H 700.25 0.594083 -3.17286 0
M  V30 7492 H 699.302 -1.82008 -3.34032 0
M  V30 7493 H 700.614 -2.19161 -4.48074 0
M  V30 7494 H 699.768 -0.435867 -6.05132 0
M  V30 7495 H 698.507 0.0346058 -4.87688 0
M  V30 7496 H 697.512 -2.26646 -5.00911 0
M  V30 7497 H 698.737 -2.73125 -6.21755 0
M  V30 7498 H 696.683 -0.510535 -6.5401 0
M  V30 7499 H 696.6 -2.08129 -7.26786 0
M  V30 7500 H 697.868 -0.986565 -7.73232 0
M  V30 7501 N 702.098 1.27442 -0.927168 0
M  V30 7502 C 703.509 1.76385 -0.611979 0
M  V30 7503 C 703.86 1.75715 0.872853 0
M  V30 7504 O 702.985 1.3603 1.683 0
M  V30 7505 C 703.58 3.20303 -1.10414 0
M  V30 7506 C 702.139 3.66916 -0.839628 0
M  V30 7507 C 701.286 2.46859 -1.26317 0
M  V30 7508 H 704.237 1.13716 -1.107 0
M  V30 7509 H 704.258 3.77811 -0.451578 0
M  V30 7510 H 703.77 3.20759 -2.18484 0
M  V30 7511 H 701.871 3.71906 0.227292 0
M  V30 7512 H 701.984 4.56415 -1.45679 0
M  V30 7513 H 700.348 2.45407 -0.681723 0
M  V30 7514 H 701.131 2.50025 -2.3525 0
M  V30 7515 N 703.576 0.692616 1.41565 0
M  V30 7516 C 704.486 0.0258451 2.34586 0
M  V30 7517 C 705.502 -0.769324 1.56069 0
M  V30 7518 O 706.678 -0.707563 1.88562 0
M  V30 7519 C 703.743 -0.901289 3.3478 0
M  V30 7520 C 702.804 -0.0986579 4.29187 0
M  V30 7521 C 702.037 -0.981634 5.24595 0
M  V30 7522 O 702.26 -2.22115 5.25377 0
M  V30 7523 O 701.194 -0.432892 6.00341 0
M  V30 7524 H 705.02 0.792537 2.93177 0
M  V30 7525 H 702.605 0.452935 1.42369 0
M  V30 7526 H 704.487 -1.43302 3.96286 0
M  V30 7527 H 703.162 -1.64752 2.78637 0
M  V30 7528 H 702.069 0.477604 3.71039 0
M  V30 7529 H 703.402 0.608848 4.8842 0
M  V30 7530 N 705.054 -1.51416 0.437162 0
M  V30 7531 C 705.987 -2.24309 -0.419602 0
M  V30 7532 C 706.965 -1.26236 -1.02485 0
M  V30 7533 O 708.149 -1.5537 -1.06735 0
M  V30 7534 C 705.276 -2.99335 -1.58482 0
M  V30 7535 C 704.322 -4.12064 -1.10027 0
M  V30 7536 S 705.155 -5.35483 -0.0424476 0
M  V30 7537 C 706.311 -6.14047 -1.21234 0
M  V30 7538 H 706.544 -2.96632 0.199259 0
M  V30 7539 H 704.077 -1.528 0.22168 0
M  V30 7540 H 706.035 -3.43159 -2.25282 0
M  V30 7541 H 704.696 -2.26602 -2.17509 0
M  V30 7542 H 703.889 -4.63836 -1.97161 0
M  V30 7543 H 703.491 -3.70499 -0.510507 0
M  V30 7544 H 705.783 -6.43123 -2.13072 0
M  V30 7545 H 706.726 -7.04279 -0.734582 0
M  V30 7546 H 707.134 -5.45538 -1.45082 0
M  V30 7547 N 706.532 -0.168513 -1.56696 0
M  V30 7548 C 707.757 0.486688 -2.01609 0
M  V30 7549 C 708.182 1.56203 -1.04796 0
M  V30 7550 O 707.54 1.8128 -0.0270596 0
M  V30 7551 C 707.588 1.04451 -3.45141 0
M  V30 7552 O 706.692 2.15862 -3.51393 0
M  V30 7553 H 706.033 0.116831 -0.653641 0
M  V30 7554 H 708.563 -0.271579 -2.0279 0
M  V30 7555 H 708.573 1.36782 -3.84389 0
M  V30 7556 H 707.248 0.257155 -4.15104 0
M  V30 7557 H 705.825 1.84597 -3.24004 0
M  V30 7558 N 708.01 1.57248 0.105221 0
M  V30 7559 C 709.426 1.52853 0.459153 0
M  V30 7560 C 709.626 0.883674 1.8109 0
M  V30 7561 O 708.682 0.471864 2.48052 0
M  V30 7562 C 709.995 2.97596 0.43096 0
M  V30 7563 C 711.543 3.08758 0.513536 0
M  V30 7564 C 712.018 4.55089 0.515593 0
M  V30 7565 N 713.509 4.59597 0.576639 0
M  V30 7566 C 714.244 5.70253 0.599904 0
M  V30 7567 N 713.74 6.90368 0.579985 0
M  V30 7568 N 715.533 5.58399 0.643953 0
M  V30 7569 H 707.684 1.97547 -0.780306 0
M  V30 7570 H 709.947 0.902758 -0.289363 0
M  V30 7571 H 709.653 3.48201 -0.494903 0
M  V30 7572 H 709.527 3.55756 1.2537 0
M  V30 7573 H 711.914 2.58148 1.42982 0
M  V30 7574 H 711.995 2.53568 -0.337148 0
M  V30 7575 H 711.639 5.06348 -0.396701 0
M  V30 7576 H 711.569 5.08105 1.38335 0
M  V30 7577 H 714.06 3.73144 0.597639 0
M  V30 7578 H 714.373 7.70462 0.600741 0
M  V30 7579 H 712.718 6.92843 0.547191 0
M  V30 7580 H 715.909 4.63467 0.656975 0
M  V30 7581 H 716.082 6.44644 0.658616 0
M  V30 7582 N 709.488 -0.375779 1.53054 0
M  V30 7583 C 710.421 -1.48187 1.7354 0
M  V30 7584 C 711.399 -1.5177 0.583495 0
M  V30 7585 O 712.583 -1.69976 0.81488 0
M  V30 7586 C 709.71 -2.86598 1.80497 0
M  V30 7587 C 708.756 -3.00784 3.02376 0
M  V30 7588 S 709.589 -2.70601 4.62099 0
M  V30 7589 C 710.745 -4.11181 4.71891 0
M  V30 7590 H 710.978 -1.30587 2.67085 0
M  V30 7591 H 708.511 -0.569485 1.43514 0
M  V30 7592 H 710.469 -3.66353 1.85192 0
M  V30 7593 H 709.13 -3.01514 0.880217 0
M  V30 7594 H 708.323 -4.02128 3.03824 0
M  V30 7595 H 707.925 -2.28939 2.95742 0
M  V30 7596 H 710.217 -5.0529 4.51319 0
M  V30 7597 H 711.16 -4.14742 5.73929 0
M  V30 7598 H 711.568 -3.97706 4.00612 0
M  V30 7599 N 710.966 -1.44241 -0.634997 0
M  V30 7600 C 712.212 -1.47038 -1.39669 0
M  V30 7601 C 712.545 -0.101122 -1.93937 0
M  V30 7602 O 711.82 0.880699 -1.73418 0
M  V30 7603 C 712.103 -2.52763 -2.56482 0
M  V30 7604 C 711.956 -3.99032 -2.07589 0
M  V30 7605 C 713.275 -2.55031 -3.58674 0
M  V30 7606 H 710.394 -0.53537 -0.506506 0
M  V30 7607 H 713.036 -1.75898 -0.718317 0
M  V30 7608 H 711.186 -2.28284 -3.14354 0
M  V30 7609 H 712.858 -4.3463 -1.54577 0
M  V30 7610 H 711.101 -4.10994 -1.38804 0
M  V30 7611 H 711.772 -4.68649 -2.91671 0
M  V30 7612 H 714.248 -2.76893 -3.10595 0
M  V30 7613 H 713.124 -3.30916 -4.37934 0
M  V30 7614 H 713.385 -1.59085 -4.12486 0
M  V30 7615 N 712.444 0.87505 -1.31075 0
M  V30 7616 C 713.855 1.4433 -1.18431 0
M  V30 7617 C 714.206 1.9506 0.211189 0
M  V30 7618 O 713.331 1.85847 1.10859 0
M  V30 7619 C 713.926 2.62341 -2.14389 0
M  V30 7620 C 712.485 3.15225 -2.05694 0
M  V30 7621 C 711.632 1.87929 -2.03907 0
M  V30 7622 H 714.583 0.684061 -1.432 0
M  V30 7623 H 714.604 3.3887 -1.73053 0
M  V30 7624 H 714.116 2.25388 -3.15946 0
M  V30 7625 H 712.217 3.56812 -1.07314 0
M  V30 7626 H 712.33 3.77853 -2.94558 0
M  V30 7627 H 710.694 2.06679 -1.48849 0
M  V30 7628 H 711.477 1.53221 -3.07211 0
M  V30 7629 N 713.922 1.13953 1.08869 0
M  V30 7630 C 714.852 0.844824 2.17681 0
M  V30 7631 C 715.833 -0.198213 1.68941 0
M  V30 7632 O 717.018 -0.0559073 1.9412 0
M  V30 7633 C 714.148 0.316325 3.45856 0
M  V30 7634 C 713.102 1.29426 4.07962 0
M  V30 7635 C 712.428 0.625275 5.31031 0
M  V30 7636 C 713.728 2.65484 4.49795 0
M  V30 7637 H 715.422 1.75471 2.42591 0
M  V30 7638 H 712.968 0.845116 1.16592 0
M  V30 7639 H 714.921 0.0977876 4.21287 0
M  V30 7640 H 713.645 -0.628972 3.20486 0
M  V30 7641 H 712.304 1.49889 3.34558 0
M  V30 7642 H 711.952 -0.325678 5.01945 0
M  V30 7643 H 711.652 1.27777 5.73539 0
M  V30 7644 H 713.176 0.416152 6.0918 0
M  V30 7645 H 714.59 2.48957 5.16424 0
M  V30 7646 H 712.987 3.26963 5.03205 0
M  V30 7647 H 714.057 3.22717 3.61914 0
M  V30 7648 N 715.4 -1.26948 0.933913 0
M  V30 7649 C 716.649 -1.93378 0.573409 0
M  V30 7650 C 716.962 -1.74148 -0.890614 0
M  V30 7651 O 718.168 -2.34971 -1.36017 0
M  V30 7652 C 716.624 -3.46449 0.974747 0
M  V30 7653 C 716.232 -3.74425 2.45988 0
M  V30 7654 C 717.976 -4.18924 0.685791 0
M  V30 7655 C 715.883 -5.209 2.8003 0
M  V30 7656 H 714.813 -0.723952 0.210736 0
M  V30 7657 H 717.464 -1.44143 1.13557 0
M  V30 7658 H 715.846 -3.94528 0.341181 0
M  V30 7659 H 717.02 -3.37079 3.14188 0
M  V30 7660 H 715.335 -3.15167 2.72138 0
M  V30 7661 H 717.932 -5.26786 0.916546 0
M  V30 7662 H 718.275 -4.14587 -0.377217 0
M  V30 7663 H 718.808 -3.76687 1.27874 0
M  V30 7664 H 715.547 -5.30332 3.85264 0
M  V30 7665 H 715.067 -5.59369 2.16485 0
M  V30 7666 H 716.746 -5.88837 2.68105 0
M  V30 7667 N 716.879 -0.700114 -1.41195 0
M  V30 7668 C 717.829 -0.0144098 -2.27995 0
M  V30 7669 C 718.813 0.748249 -1.42443 0
M  V30 7670 O 720.005 0.622995 -1.65674 0
M  V30 7671 C 717.134 0.917938 -3.308 0
M  V30 7672 C 716.22 0.151286 -4.2383 0
M  V30 7673 N 716.611 -0.85732 -4.98481 0
M  V30 7674 C 714.909 0.386108 -4.44326 0
M  V30 7675 C 715.61 -1.31663 -5.66604 0
M  V30 7676 N 714.586 -0.641689 -5.39799 0
M  V30 7677 H 718.388 -0.787662 -2.83149 0
M  V30 7678 H 715.902 -0.531344 -1.53462 0
M  V30 7679 H 717.899 1.42437 -3.91813 0
M  V30 7680 H 716.559 1.69074 -2.77208 0
M  V30 7681 H 717.57 -1.2377 -5.02893 0
M  V30 7682 H 714.247 1.13644 -4.01735 0
M  V30 7683 H 715.637 -2.15384 -6.36443 0
M  V30 7684 N 718.357 1.51182 -0.445186 0
M  V30 7685 C 719.606 2.01342 0.120189 0
M  V30 7686 C 719.919 1.33353 1.43095 0
M  V30 7687 O 721.125 1.74525 2.07974 0
M  V30 7688 C 719.581 3.58925 0.264732 0
M  V30 7689 C 719.189 4.35855 -1.03606 0
M  V30 7690 C 720.933 4.17208 0.783455 0
M  V30 7691 C 718.84 5.85162 -0.856731 0
M  V30 7692 H 717.77 0.752426 0.0486922 0
M  V30 7693 H 720.421 1.74221 -0.576143 0
M  V30 7694 H 718.803 3.82525 1.02425 0
M  V30 7695 H 719.977 4.23997 -1.80452 0
M  V30 7696 H 718.292 3.89062 -1.48391 0
M  V30 7697 H 720.889 5.26475 0.934239 0
M  V30 7698 H 721.232 3.76892 1.768 0
M  V30 7699 H 721.765 3.97715 0.0820346 0
M  V30 7700 H 718.504 6.29904 -1.81388 0
M  V30 7701 H 718.024 5.99663 -0.128206 0
M  V30 7702 H 719.703 6.44963 -0.513027 0
M  V30 7703 N 719.835 0.176821 1.56605 0
M  V30 7704 C 721.063 -0.472828 2.01425 0
M  V30 7705 C 721.478 -1.56436 1.05703 0
M  V30 7706 O 720.835 -1.82405 0.058808 0
M  V30 7707 C 720.886 -1.04607 3.46034 0
M  V30 7708 O 720.607 0.00189608 4.381 0
M  V30 7709 C 722.108 -1.7734 4.06282 0
M  V30 7710 H 719.328 -0.120503 0.660091 0
M  V30 7711 H 721.872 0.280166 2.02572 0
M  V30 7712 H 720.027 -1.74953 3.45645 0
M  V30 7713 H 720.441 -0.422118 5.22799 0
M  V30 7714 H 721.915 -2.12703 5.09374 0
M  V30 7715 H 722.392 -2.67043 3.4869 0
M  V30 7716 H 722.998 -1.11623 4.10391 0
M  V30 7717 N 721.313 -1.57302 -0.09688 0
M  V30 7718 C 722.56 -1.85997 -0.800699 0
M  V30 7719 C 722.888 -0.765089 -1.7882 0
M  V30 7720 O 722.143 0.241492 -1.94204 0
M  V30 7721 C 722.442 -3.21272 -1.56586 0
M  V30 7722 C 722.108 -4.45104 -0.72064 0
M  V30 7723 C 720.77 -4.78723 -0.487632 0
M  V30 7724 C 723.122 -5.2103 -0.132948 0
M  V30 7725 C 720.45 -5.85697 0.34296 0
M  V30 7726 C 722.802 -6.28881 0.684957 0
M  V30 7727 C 721.466 -6.61017 0.928073 0
M  V30 7728 H 720.736 -0.680613 -0.292997 0
M  V30 7729 H 723.383 -1.91399 -0.0622474 0
M  V30 7730 H 721.688 -3.11547 -2.37583 0
M  V30 7731 H 723.385 -3.40702 -2.11478 0
M  V30 7732 H 719.975 -4.18777 -0.912359 0
M  V30 7733 H 724.159 -4.95392 -0.300132 0
M  V30 7734 H 719.415 -6.09008 0.540317 0
M  V30 7735 H 723.589 -6.86886 1.14721 0
M  V30 7736 H 721.216 -7.43738 1.57348 0
M  V30 7737 N 722.791 0.367657 -1.53252 0
M  V30 7738 C 724.202 0.944563 -1.61043 0
M  V30 7739 C 724.553 1.90325 -0.476546 0
M  V30 7740 O 723.678 2.12721 0.397333 0
M  V30 7741 C 724.273 1.71992 -2.91898 0
M  V30 7742 C 722.832 2.2462 -3.02031 0
M  V30 7743 C 721.979 1.05799 -2.56324 0
M  V30 7744 H 724.93 0.146516 -1.58022 0
M  V30 7745 H 724.951 2.58095 -2.79584 0
M  V30 7746 H 724.463 1.02192 -3.74404 0
M  V30 7747 H 722.564 2.97668 -2.24108 0
M  V30 7748 H 722.677 2.52644 -4.07073 0
M  V30 7749 H 721.041 1.42435 -2.1115 0
M  V30 7750 H 721.824 0.375008 -3.41246 0
M  V30 7751 N 724.269 1.44576 0.627338 0
M  V30 7752 C 725.515 1.47777 1.38888 0
M  V30 7753 C 725.848 0.111406 1.9388 0
M  V30 7754 O 725.123 -0.87149 1.73883 0
M  V30 7755 C 725.406 2.54119 2.55138 0
M  V30 7756 C 725.259 4.00128 2.0547 0
M  V30 7757 C 726.578 2.56929 3.57317 0
M  V30 7758 H 723.697 0.538048 0.50366 0
M  V30 7759 H 726.339 1.76277 0.708978 0
M  V30 7760 H 724.489 2.29948 3.13139 0
M  V30 7761 H 726.161 4.35444 1.5227 0
M  V30 7762 H 724.404 4.11724 1.36623 0
M  V30 7763 H 725.075 4.7019 2.89181 0
M  V30 7764 H 727.551 2.78536 3.09122 0
M  V30 7765 H 726.427 3.33234 4.36173 0
M  V30 7766 H 726.688 1.6127 4.11636 0
M  V30 7767 N 725.747 -0.868086 1.31537 0
M  V30 7768 C 727.024 -1.60384 1.11965 0
M  V30 7769 C 727.404 -2.08584 -0.324949 0
M  V30 7770 O 726.752 -1.86561 -1.31937 0
M  V30 7771 C 726.962 -2.76038 2.13551 0
M  V30 7772 C 728.31 -3.45954 2.46173 0
M  V30 7773 O 729.334 -2.86247 2.11993 0
M  V30 7774 O 728.193 -4.53666 3.04711 0
M  V30 7775 H 725.287 -0.705705 0.431172 0
M  V30 7776 H 727.833 -0.913385 1.43022 0
M  V30 7777 H 726.605 -2.37849 3.10714 0
M  V30 7778 H 726.228 -3.52769 1.83411 0
M  V30 7779 N 727.225 -1.14528 -1.08264 0
M  V30 7780 C 728.473 -0.912599 -1.80322 0
M  V30 7781 C 728.794 0.562256 -1.86718 0
M  V30 7782 O 728.064 1.40869 -1.36135 0
M  V30 7783 H 726.644 -0.334645 -0.667849 0
M  V30 7784 H 729.306 -1.44415 -1.30883 0
M  V30 7785 H 728.402 -1.31384 -2.83098 0
M  V30 7786 N 728.703 1.26451 -0.940633 0
M  V30 7787 C 729.928 1.98407 -0.60412 0
M  V30 7788 C 730.353 1.69584 0.81382 0
M  V30 7789 O 729.711 0.943553 1.54812 0
M  V30 7790 C 729.759 3.50387 -0.852136 0
M  V30 7791 O 728.863 4.1233 0.076013 0
M  V30 7792 H 728.204 0.622466 -0.231153 0
M  V30 7793 H 730.734 1.60932 -1.26342 0
M  V30 7794 H 730.744 4.00614 -0.772816 0
M  V30 7795 H 729.419 3.70696 -1.88566 0
M  V30 7796 H 727.996 3.7286 -0.0543187 0
M  V30 7797 N 730.181 0.707592 1.40822 0
M  V30 7798 C 731.592 0.317011 1.83989 0
M  V30 7799 C 731.943 -1.14697 1.59182 0
M  V30 7800 O 731.068 -1.8818 1.06852 0
M  V30 7801 C 731.663 0.568593 3.33995 0
M  V30 7802 C 730.222 0.231804 3.75686 0
M  V30 7803 C 729.369 0.844933 2.64114 0
M  V30 7804 H 732.32 0.907349 1.30203 0
M  V30 7805 H 732.341 -0.168798 3.80125 0
M  V30 7806 H 731.853 1.63417 3.52018 0
M  V30 7807 H 729.954 -0.82903 3.6326 0
M  V30 7808 H 730.067 0.695219 4.74029 0
M  V30 7809 H 728.431 0.273588 2.53226 0
M  V30 7810 H 729.214 1.91462 2.84951 0
M  V30 7811 N 731.66 -1.50943 0.453197 0
M  V30 7812 C 732.607 -2.28128 -0.350197 0
M  V30 7813 C 733.577 -1.32398 -1.00299 0
M  V30 7814 O 734.762 -1.61319 -1.01887 0
M  V30 7815 C 731.902 -3.13782 -1.43649 0
M  V30 7816 C 731.015 -4.24523 -0.800255 0
M  V30 7817 C 730.15 -4.97462 -1.86293 0
M  V30 7818 C 729.189 -6.00102 -1.20598 0
M  V30 7819 N 728.326 -6.66387 -2.21071 0
M  V30 7820 H 733.166 -2.96337 0.31434 0
M  V30 7821 H 730.703 -1.46151 0.166863 0
M  V30 7822 H 732.661 -3.6178 -2.07776 0
M  V30 7823 H 731.291 -2.47655 -2.07044 0
M  V30 7824 H 730.343 -3.80371 -0.0468651 0
M  V30 7825 H 731.655 -4.98009 -0.280777 0
M  V30 7826 H 730.809 -5.49088 -2.58044 0
M  V30 7827 H 729.548 -4.23642 -2.41617 0
M  V30 7828 H 728.553 -5.47753 -0.474 0
M  V30 7829 H 729.778 -6.75887 -0.659859 0
M  V30 7830 H 727.724 -5.9537 -2.75446 0
M  V30 7831 H 727.641 -7.3569 -1.74058 0
M  V30 7832 H 728.909 -7.22638 -2.92257 0
M  V30 7833 N 733.138 -0.185124 -1.56509 0
M  V30 7834 C 734.048 0.751908 -2.22224 0
M  V30 7835 C 735.064 1.24244 -1.21817 0
M  V30 7836 O 736.24 1.29169 -1.54523 0
M  V30 7837 C 733.305 1.95837 -2.86092 0
M  V30 7838 C 732.366 1.51337 -4.01741 0
M  V30 7839 C 731.599 2.66233 -4.62554 0
M  V30 7840 O 731.822 3.8346 -4.22273 0
M  V30 7841 O 730.756 2.39517 -5.52191 0
M  V30 7842 H 734.582 0.222304 -3.02885 0
M  V30 7843 H 732.167 0.0437141 -1.49336 0
M  V30 7844 H 734.049 2.66368 -3.26536 0
M  V30 7845 H 732.724 2.47677 -2.08417 0
M  V30 7846 H 731.631 0.777155 -3.65939 0
M  V30 7847 H 732.964 1.04175 -4.81049 0
M  V30 7848 N 734.616 1.57351 0.0885366 0
M  V30 7849 C 736.027 1.75303 0.642308 0
M  V30 7850 C 736.378 0.808238 1.78779 0
M  V30 7851 O 735.503 -0.01171 2.16397 0
M  V30 7852 C 736.098 3.17885 1.17194 0
M  V30 7853 C 734.657 3.37239 1.67172 0
M  V30 7854 C 733.804 2.7108 0.584045 0
M  V30 7855 H 736.755 1.58103 -0.137567 0
M  V30 7856 H 736.776 3.2112 2.04114 0
M  V30 7857 H 736.288 3.86625 0.338024 0
M  V30 7858 H 734.389 2.73588 2.52943 0
M  V30 7859 H 734.502 4.45594 1.76019 0
M  V30 7860 H 732.866 2.33161 1.02508 0
M  V30 7861 H 733.649 3.42464 -0.239403 0
M  V30 7862 N 736.094 -0.359525 1.53444 0
M  V30 7863 C 737.34 -1.10315 1.70172 0
M  V30 7864 C 737.673 -1.88788 0.455287 0
M  V30 7865 O 736.948 -1.86635 -0.547514 0
M  V30 7866 C 737.231 -2.05744 2.95536 0
M  V30 7867 C 737.084 -1.3084 4.3035 0
M  V30 7868 C 738.403 -3.05784 3.16518 0
M  V30 7869 H 735.522 -0.399662 0.619225 0
M  V30 7870 H 738.164 -0.383338 1.86093 0
M  V30 7871 H 736.314 -2.67125 2.82093 0
M  V30 7872 H 737.986 -0.721959 4.55615 0
M  V30 7873 H 736.229 -0.610283 4.29486 0
M  V30 7874 H 736.9 -2.00718 5.14214 0
M  V30 7875 H 739.376 -2.5451 3.29187 0
M  V30 7876 H 738.252 -3.69772 4.05659 0
M  V30 7877 H 738.513 -3.76289 2.32076 0
M  V30 7878 N 737.572 -1.44907 -0.619662 0
M  V30 7879 C 738.821 -1.47569 -1.37501 0
M  V30 7880 C 739.134 -0.116707 -1.95252 0
M  V30 7881 O 740.34 -0.020909 -2.71492 0
M  V30 7882 C 738.796 -2.59851 -2.49009 0
M  V30 7883 C 738.404 -4.02008 -1.97722 0
M  V30 7884 C 740.148 -2.71746 -3.2612 0
M  V30 7885 C 738.055 -5.05693 -3.0664 0
M  V30 7886 H 736.985 -0.549068 -0.51676 0
M  V30 7887 H 739.636 -1.71009 -0.665437 0
M  V30 7888 H 738.018 -2.29671 -3.22594 0
M  V30 7889 H 739.192 -4.41809 -1.30925 0
M  V30 7890 H 737.507 -3.94456 -1.33392 0
M  V30 7891 H 740.104 -3.46382 -4.07337 0
M  V30 7892 H 740.447 -1.77959 -3.76346 0
M  V30 7893 H 740.98 -3.01392 -2.5963 0
M  V30 7894 H 737.719 -6.01148 -2.61345 0
M  V30 7895 H 737.239 -4.70473 -3.72042 0
M  V30 7896 H 738.918 -5.29906 -3.71226 0
M  V30 7897 N 739.05 0.861098 -1.31996 0
M  V30 7898 C 740.013 1.95068 -1.20338 0
M  V30 7899 C 741.013 1.60289 -0.128114 0
M  V30 7900 O 742.203 1.70048 -0.378044 0
M  V30 7901 C 739.335 3.30153 -0.849205 0
M  V30 7902 H 740.528 2.06833 -2.17164 0
M  V30 7903 H 738.081 1.05049 -1.15734 0
M  V30 7904 H 738.816 3.24087 0.117508 0
M  V30 7905 H 738.601 3.56771 -1.62655 0
M  V30 7906 H 740.091 4.10025 -0.791782 0
M  V30 7907 N 740.528 1.15101 1.07655 0
M  V30 7908 C 741.475 0.844958 2.14777 0
M  V30 7909 C 742.445 -0.200798 1.64882 0
M  V30 7910 O 743.63 -0.0690278 1.90675 0
M  V30 7911 C 740.77 0.337018 3.4345 0
M  V30 7912 C 739.883 1.44398 4.07153 0
M  V30 7913 C 739.018 0.892487 5.23649 0
M  V30 7914 C 738.057 1.9766 5.79307 0
M  V30 7915 N 737.194 1.44171 6.87138 0
M  V30 7916 H 742.034 1.76242 2.40297 0
M  V30 7917 H 739.571 0.879435 1.17917 0
M  V30 7918 H 741.529 0.024256 4.17193 0
M  V30 7919 H 740.159 -0.543531 3.18191 0
M  V30 7920 H 739.211 1.87299 3.31094 0
M  V30 7921 H 740.523 2.26262 4.4453 0
M  V30 7922 H 739.677 0.532083 6.04362 0
M  V30 7923 H 738.416 0.0429854 4.87681 0
M  V30 7924 H 737.421 2.34586 4.97242 0
M  V30 7925 H 738.646 2.82982 6.17331 0
M  V30 7926 H 736.592 0.614518 6.53115 0
M  V30 7927 H 736.509 2.19665 7.23383 0
M  V30 7928 H 737.777 1.10945 7.71564 0
M  V30 7929 N 742.006 -1.2595 0.947325 0
M  V30 7930 C 743.417 -1.75389 0.639963 0
M  V30 7931 C 743.768 -1.77081 -0.844788 0
M  V30 7932 O 742.893 -1.3869 -1.66114 0
M  V30 7933 C 743.488 -3.18506 1.15496 0
M  V30 7934 C 742.047 -3.65534 0.897894 0
M  V30 7935 C 741.194 -2.44818 1.30228 0
M  V30 7936 H 744.145 -1.1194 1.12495 0
M  V30 7937 H 744.166 -3.77045 0.511627 0
M  V30 7938 H 743.678 -3.17243 2.23559 0
M  V30 7939 H 741.779 -3.72221 -0.168096 0
M  V30 7940 H 741.892 -4.54039 1.52922 0
M  V30 7941 H 740.256 -2.44291 0.720678 0
M  V30 7942 H 741.039 -2.46251 2.39198 0
M  V30 7943 N 743.484 -0.715051 -1.40445 0
M  V30 7944 C 744.709 -0.26254 -2.05732 0
M  V30 7945 C 745.134 1.08691 -1.53519 0
M  V30 7946 O 744.492 1.68453 -0.670328 0
M  V30 7947 C 744.54 -0.25195 -3.59719 0
M  V30 7948 O 743.644 0.766998 -4.05205 0
M  V30 7949 H 742.985 -0.123398 -0.652433 0
M  V30 7950 H 745.515 -0.975382 -1.79854 0
M  V30 7951 H 745.525 -0.0894537 -4.07902 0
M  V30 7952 H 744.2 -1.23672 -3.97087 0
M  V30 7953 H 742.777 0.572269 -3.68483 0
M  V30 7954 N 744.962 1.50701 -0.461195 0
M  V30 7955 C 745.892 2.31182 0.328184 0
M  V30 7956 C 746.873 1.37644 0.999408 0
M  V30 7957 O 748.058 1.66565 0.99848 0
M  V30 7958 C 745.188 3.17113 1.41621 0
M  V30 7959 C 744.142 4.19124 0.867148 0
M  V30 7960 C 743.468 4.93728 2.05272 0
M  V30 7961 C 744.768 5.22174 -0.114808 0
M  V30 7962 H 746.462 2.97423 -0.343501 0
M  V30 7963 H 744.008 1.43033 -0.166641 0
M  V30 7964 H 745.961 3.72208 1.97584 0
M  V30 7965 H 744.685 2.48739 2.11652 0
M  V30 7966 H 743.344 3.65116 0.329557 0
M  V30 7967 H 742.992 4.21835 2.73978 0
M  V30 7968 H 742.692 5.62724 1.69161 0
M  V30 7969 H 744.216 5.51654 2.61744 0
M  V30 7970 H 745.63 5.72198 0.355316 0
M  V30 7971 H 744.027 5.98833 -0.389689 0
M  V30 7972 H 745.097 4.7353 -1.04391 0
M  V30 7973 N 746.441 0.193421 1.56409 0
M  V30 7974 C 747.373 -0.759944 2.16235 0
M  V30 7975 C 748.386 -1.17797 1.12373 0
M  V30 7976 O 749.575 -1.11399 1.39472 0
M  V30 7977 C 746.675 -2.03735 2.70823 0
M  V30 7978 C 745.848 -1.77939 3.9957 0
M  V30 7979 C 744.907 -2.90111 4.39001 0
M  V30 7980 O 743.933 -2.59791 5.06456 0
M  V30 7981 N 745.135 -4.18426 4.02368 0
M  V30 7982 H 747.9 -0.248348 2.98669 0
M  V30 7983 H 745.461 0.0113966 1.61896 0
M  V30 7984 H 747.453 -2.77914 2.94187 0
M  V30 7985 H 746.023 -2.46022 1.92852 0
M  V30 7986 H 745.243 -0.875491 3.84355 0
M  V30 7987 H 746.531 -1.58099 4.83614 0
M  V30 7988 H 745.929 -4.45913 3.48106 0
M  V30 7989 H 744.486 -4.89237 4.30686 0
M  V30 7990 N 747.919 -1.57396 -0.0801906 0
M  V30 7991 C 749.147 -1.91055 -0.794075 0
M  V30 7992 C 749.562 -0.788583 -1.71542 0
M  V30 7993 O 748.919 0.238587 -1.80934 0
M  V30 7994 C 748.97 -3.24418 -1.59484 0
M  V30 7995 O 748.691 -4.323 -0.710532 0
M  V30 7996 C 750.192 -3.72037 -2.41046 0
M  V30 7997 H 747.412 -0.63171 -0.226238 0
M  V30 7998 H 749.956 -2.04431 -0.0529685 0
M  V30 7999 H 748.111 -3.12595 -2.2883 0
M  V30 8000 H 748.525 -5.08976 -1.26663 0
M  V30 8001 H 749.999 -4.68006 -2.92702 0
M  V30 8002 H 750.476 -3.00624 -3.2019 0
M  V30 8003 H 751.082 -3.86777 -1.76871 0
M  V30 8004 N 749.397 0.351382 -1.53633 0
M  V30 8005 C 750.813 0.693987 -1.43722 0
M  V30 8006 C 751.013 1.9274 -0.587669 0
M  V30 8007 O 750.069 2.52387 -0.0756082 0
M  V30 8008 C 751.382 0.893937 -2.87105 0
M  V30 8009 C 752.93 0.993051 -2.96829 0
M  V30 8010 C 753.405 1.22537 -4.41303 0
M  V30 8011 N 754.896 1.29275 -4.44795 0
M  V30 8012 C 755.631 1.48988 -5.53706 0
M  V30 8013 N 755.127 1.65924 -6.72637 0
M  V30 8014 N 756.92 1.51472 -5.41306 0
M  V30 8015 H 749.071 -0.459688 -2.07366 0
M  V30 8016 H 751.334 -0.143684 -0.937048 0
M  V30 8017 H 751.04 0.0592517 -3.5165 0
M  V30 8018 H 750.914 1.79795 -3.31592 0
M  V30 8019 H 753.301 1.81827 -2.32429 0
M  V30 8020 H 753.382 0.0661119 -2.55715 0
M  V30 8021 H 753.026 0.405117 -5.06282 0
M  V30 8022 H 752.956 2.16575 -4.80003 0
M  V30 8023 H 755.447 1.17743 -3.59089 0
M  V30 8024 H 755.76 1.80578 -7.51406 0
M  V30 8025 H 754.105 1.63075 -6.75597 0
M  V30 8026 H 757.296 1.37818 -4.47352 0
M  V30 8027 H 757.469 1.66493 -6.26246 0
M  V30 8028 N 750.875 1.45233 0.611969 0
M  V30 8029 C 751.822 1.5357 1.72293 0
M  V30 8030 C 752.792 0.381912 1.6165 0
M  V30 8031 O 753.977 0.594765 1.81293 0
M  V30 8032 C 751.117 1.50419 3.10593 0
M  V30 8033 C 750.23 2.76316 3.32074 0
M  V30 8034 C 749.365 2.64866 4.60456 0
M  V30 8035 C 748.404 3.85838 4.7518 0
M  V30 8036 N 747.541 3.72949 5.94856 0
M  V30 8037 H 752.381 2.4848 1.64504 0
M  V30 8038 H 749.918 1.23302 0.802191 0
M  V30 8039 H 751.876 1.4658 3.90602 0
M  V30 8040 H 750.506 0.590621 3.17351 0
M  V30 8041 H 749.558 2.90261 2.45872 0
M  V30 8042 H 750.87 3.66055 3.38829 0
M  V30 8043 H 750.024 2.58969 5.48653 0
M  V30 8044 H 748.763 1.72719 4.56092 0
M  V30 8045 H 747.768 3.92099 3.85407 0
M  V30 8046 H 748.993 4.79045 4.81344 0
M  V30 8047 H 746.939 2.83567 5.91545 0
M  V30 8048 H 746.856 4.56319 6.02751 0
M  V30 8049 H 748.124 3.70976 6.85563 0
M  V30 8050 N 752.353 -0.854086 1.3245 0
M  V30 8051 C 753.601 -1.60513 1.228 0
M  V30 8052 C 753.922 -1.93865 -0.210073 0
M  V30 8053 O 753.192 -1.59673 -1.13496 0
M  V30 8054 H 751.772 -0.595099 0.451516 0
M  V30 8055 H 754.434 -1.0216 1.6598 0
M  V30 8056 H 753.53 -2.54182 1.81102 0
M  V30 8057 N 753.831 -1.1567 -1.07043 0
M  V30 8058 C 755.059 -0.957471 -1.83412 0
M  V30 8059 C 755.474 0.494271 -1.82215 0
M  V30 8060 O 754.831 1.34288 -1.23584 0
M  V30 8061 C 754.882 -1.46784 -3.30359 0
M  V30 8062 O 754.603 -2.86271 -3.31633 0
M  V30 8063 C 756.104 -1.31054 -4.23485 0
M  V30 8064 H 753.324 -0.33986 -0.578564 0
M  V30 8065 H 755.868 -1.53518 -1.35102 0
M  V30 8066 H 754.023 -0.932586 -3.76007 0
M  V30 8067 H 754.437 -3.0948 -4.23465 0
M  V30 8068 H 755.911 -1.71605 -5.24648 0
M  V30 8069 H 756.388 -0.255107 -4.38458 0
M  V30 8070 H 756.994 -1.83503 -3.83676 0
M  V30 8071 N 755.309 1.25446 -0.953992 0
M  V30 8072 C 756.558 1.92441 -0.604101 0
M  V30 8073 C 756.871 1.75543 0.862796 0
M  V30 8074 O 758.077 2.37106 1.32262 0
M  V30 8075 C 756.533 3.44854 -1.02974 0
M  V30 8076 C 756.141 3.70464 -2.51914 0
M  V30 8077 C 757.885 4.1778 -0.752352 0
M  V30 8078 C 755.792 5.1638 -2.88281 0
M  V30 8079 H 754.722 0.720508 -0.222227 0
M  V30 8080 H 757.373 1.42318 -1.15836 0
M  V30 8081 H 755.755 3.93935 -0.403904 0
M  V30 8082 H 756.929 3.32038 -3.19511 0
M  V30 8083 H 755.244 3.10797 -2.77117 0
M  V30 8084 H 757.841 5.25261 -1.00024 0
M  V30 8085 H 758.184 4.15135 0.311212 0
M  V30 8086 H 758.717 3.74605 -1.33851 0
M  V30 8087 H 755.456 5.24135 -3.93653 0
M  V30 8088 H 754.976 5.55855 -2.25357 0
M  V30 8089 H 756.655 5.84497 -2.77439 0
M  V30 8090 N 756.787 0.722489 1.40064 0
M  V30 8091 C 757.737 0.0506801 2.27944 0
M  V30 8092 C 758.721 -0.725493 1.43615 0
M  V30 8093 O 759.913 -0.596559 1.66644 0
M  V30 8094 C 757.042 -0.865195 3.32219 0
M  V30 8095 C 756.128 -0.0838393 4.24017 0
M  V30 8096 N 756.519 0.936516 4.97054 0
M  V30 8097 C 754.817 -0.315371 4.44884 0
M  V30 8098 C 755.518 1.4066 5.64437 0
M  V30 8099 N 754.494 0.727485 5.3871 0
M  V30 8100 H 758.296 0.832609 2.8186 0
M  V30 8101 H 755.81 0.555691 1.52597 0
M  V30 8102 H 757.807 -1.36186 3.94029 0
M  V30 8103 H 756.467 -1.64642 2.79862 0
M  V30 8104 H 757.478 1.31755 5.0086 0
M  V30 8105 H 754.155 -1.07238 4.03492 0
M  V30 8106 H 755.545 2.25482 6.32936 0
M  V30 8107 N 758.265 -1.50454 0.469181 0
M  V30 8108 C 759.213 -2.30101 -0.340033 0
M  V30 8109 C 760.207 -1.37306 -0.992135 0
M  V30 8110 O 761.413 -1.54506 -0.923458 0
M  V30 8111 H 757.788 -0.740941 -0.128495 0
M  V30 8112 H 759.759 -2.96315 0.352144 0
M  V30 8113 C 758.508 -3.17804 -1.41052 0
M  V30 8114 H 757.831 -3.89115 -0.918124 0
M  V30 8115 H 759.271 -3.76533 -1.94934 0
M  V30 8116 C 757.73 -2.35272 -2.4114 0
M  V30 8117 O 758.26 -2.03448 -3.4637 0
M  V30 8118 N 756.466 -1.97889 -2.1281 0
M  V30 8119 H 756.013 -2.2397 -1.27261 0
M  V30 8120 H 755.971 -1.42971 -2.80012 0
M  V30 8121 N 759.743 -0.201713 -1.56304 0
M  V30 8122 C 760.691 0.733133 -2.20744 0
M  V30 8123 C 761.685 1.2148 -1.18064 0
M  V30 8124 O 762.891 1.17692 -1.36193 0
M  V30 8125 H 759.266 0.254789 -0.707521 0
M  V30 8126 H 761.237 0.165996 -2.97938 0
M  V30 8127 C 759.986 1.93925 -2.88597 0
M  V30 8128 H 759.309 1.5777 -3.67353 0
M  V30 8129 H 760.749 2.57158 -3.37114 0
M  V30 8130 C 759.208 2.78219 -1.89989 0
M  V30 8131 O 759.738 3.76353 -1.40432 0
M  V30 8132 N 757.944 2.43847 -1.58072 0
M  V30 8133 H 757.491 1.64103 -1.98565 0
M  V30 8134 H 757.449 3.0053 -0.923524 0
M  V30 8135 N 761.222 1.57436 0.0718424 0
M  V30 8136 C 762.172 2.00132 1.09229 0
M  V30 8137 C 763.156 0.883379 1.34481 0
M  V30 8138 O 764.348 1.14728 1.34783 0
M  V30 8139 C 761.477 2.44876 2.40605 0
M  V30 8140 C 760.563 3.63405 2.18627 0
M  V30 8141 N 760.954 4.77583 1.66579 0
M  V30 8142 C 759.252 3.69953 2.491 0
M  V30 8143 C 759.953 5.5943 1.59415 0
M  V30 8144 N 758.929 5.03275 2.05464 0
M  V30 8145 H 762.731 2.85849 0.683185 0
M  V30 8146 H 760.245 1.59987 0.278914 0
M  V30 8147 H 762.242 2.73703 3.14471 0
M  V30 8148 H 760.902 1.60546 2.82232 0
M  V30 8149 H 761.913 4.99875 1.35443 0
M  V30 8150 H 758.59 2.96336 2.94094 0
M  V30 8151 H 759.98 6.61093 1.20026 0
M  V30 8152 N 762.7 -0.34323 1.53817 0
M  V30 8153 C 763.925 -1.1079 1.75329 0
M  V30 8154 C 764.35 -1.81571 0.491293 0
M  V30 8155 O 763.708 -1.72561 -0.556089 0
M  V30 8156 C 763.756 -2.09681 2.9337 0
M  V30 8157 O 762.86 -3.17207 2.63541 0
M  V30 8158 H 762.201 -0.320402 0.581583 0
M  V30 8159 H 764.731 -0.393525 2.0078 0
M  V30 8160 H 764.741 -2.52897 3.20168 0
M  V30 8161 H 763.416 -1.5756 3.84899 0
M  V30 8162 H 761.993 -2.78806 2.47632 0
M  V30 8163 N 764.178 -1.45556 -0.604258 0
M  V30 8164 C 765.424 -1.49968 -1.36519 0
M  V30 8165 C 765.757 -0.142236 -1.93678 0
M  V30 8166 O 765.032 0.843717 -1.75247 0
M  V30 8167 C 765.315 -2.58146 -2.51063 0
M  V30 8168 C 765.168 -4.03346 -1.99078 0
M  V30 8169 C 766.487 -2.62581 -3.53184 0
M  V30 8170 H 763.606 -0.545993 -0.495036 0
M  V30 8171 H 766.248 -1.77382 -0.680845 0
M  V30 8172 H 764.398 -2.34901 -3.09441 0
M  V30 8173 H 766.07 -4.37811 -1.45323 0
M  V30 8174 H 764.313 -4.13845 -1.30055 0
M  V30 8175 H 764.984 -4.74731 -2.81664 0
M  V30 8176 H 767.46 -2.83419 -3.04652 0
M  V30 8177 H 766.336 -3.40131 -4.30816 0
M  V30 8178 H 766.597 -1.67798 -4.09019 0
M  V30 8179 N 765.656 0.84705 -1.32902 0
M  V30 8180 C 766.604 1.97765 -1.22441 0
M  V30 8181 C 767.598 1.68919 -0.127546 0
M  V30 8182 O 768.804 1.77633 -0.290973 0
M  V30 8183 H 765.179 0.649072 -0.379748 0
M  V30 8184 H 767.15 2.03713 -2.18044 0
M  V30 8185 C 765.899 3.33834 -0.972125 0
M  V30 8186 H 765.222 3.56564 -1.80837 0
M  V30 8187 H 766.662 4.13467 -0.939209 0
M  V30 8188 C 765.121 3.35328 0.325059 0
M  V30 8189 O 765.651 3.78887 1.33445 0
M  V30 8190 N 763.857 2.88488 0.349718 0
M  V30 8191 H 763.404 2.53234 -0.472236 0
M  V30 8192 H 763.362 2.8987 1.21748 0
M  V30 8193 N 767.134 1.16236 1.06428 0
M  V30 8194 C 768.383 0.937523 1.78587 0
M  V30 8195 C 768.696 -0.536 1.88113 0
M  V30 8196 O 769.902 -0.878697 2.56887 0
M  V30 8197 C 768.358 1.62808 3.2097 0
M  V30 8198 C 767.966 3.13927 3.19615 0
M  V30 8199 C 769.71 1.48515 3.97673 0
M  V30 8200 C 767.617 3.75727 4.56709 0
M  V30 8201 H 766.547 0.347125 0.669343 0
M  V30 8202 H 769.198 1.39353 1.19385 0
M  V30 8203 H 767.58 1.09977 3.80422 0
M  V30 8204 H 768.754 3.7359 2.69753 0
M  V30 8205 H 767.069 3.28089 2.56411 0
M  V30 8206 H 769.666 1.92069 4.99013 0
M  V30 8207 H 770.009 0.433913 4.14032 0
M  V30 8208 H 770.542 1.98494 3.44739 0
M  V30 8209 H 767.281 4.80793 4.45554 0
M  V30 8210 H 766.801 3.20849 5.0677 0
M  V30 8211 H 768.48 3.77203 5.25668 0
M  V30 8212 N 768.612 -1.24939 0.960631 0
M  V30 8213 C 770.023 -1.74701 0.658529 0
M  V30 8214 C 770.374 -1.77967 -0.825959 0
M  V30 8215 O 769.499 -1.40444 -1.64634 0
M  V30 8216 C 770.094 -3.17263 1.18867 0
M  V30 8217 C 768.653 -3.64561 0.936614 0
M  V30 8218 C 767.8 -2.43423 1.32817 0
M  V30 8219 H 770.751 -1.10741 1.13676 0
M  V30 8220 H 770.772 -3.76481 0.551589 0
M  V30 8221 H 770.284 -3.14854 2.26912 0
M  V30 8222 H 768.385 -3.72378 -0.128608 0
M  V30 8223 H 768.498 -4.52392 1.57729 0
M  V30 8224 H 766.862 -2.43513 0.746548 0
M  V30 8225 H 767.645 -2.437 2.41796 0
M  V30 8226 N 770.09 -0.729906 -1.39679 0
M  V30 8227 C 771.336 -0.27603 -2.00913 0
M  V30 8228 C 771.669 1.13227 -1.57776 0
M  V30 8229 O 770.944 1.7709 -0.804319 0
M  V30 8230 C 771.227 -0.372157 -3.58172 0
M  V30 8231 C 771.08 -1.81986 -4.11341 0
M  V30 8232 C 772.399 0.248378 -4.39399 0
M  V30 8233 H 769.518 -0.101773 -0.729939 0
M  V30 8234 H 772.16 -0.925104 -1.65957 0
M  V30 8235 H 770.31 0.180459 -3.88081 0
M  V30 8236 H 771.982 -2.42896 -3.92172 0
M  V30 8237 H 770.225 -2.34287 -3.65092 0
M  V30 8238 H 770.896 -1.83842 -5.20486 0
M  V30 8239 H 773.372 -0.222645 -4.15504 0
M  V30 8240 H 772.248 0.150746 -5.48693 0
M  V30 8241 H 772.509 1.33378 -4.21501 0
M  V30 8242 N 771.568 1.50203 -0.477153 0
M  V30 8243 C 772.518 2.25561 0.332625 0
M  V30 8244 C 773.502 1.29401 0.956249 0
M  V30 8245 O 774.694 1.54267 0.867795 0
M  V30 8246 C 771.823 3.12984 1.41052 0
M  V30 8247 C 770.909 4.16595 0.79433 0
M  V30 8248 N 771.3 5.05722 -0.0889633 0
M  V30 8249 C 769.598 4.33279 1.0576 0
M  V30 8250 C 770.299 5.80039 -0.439286 0
M  V30 8251 N 769.275 5.43278 0.187018 0
M  V30 8252 H 773.077 2.91836 -0.347718 0
M  V30 8253 H 770.591 1.59759 -0.291686 0
M  V30 8254 H 772.588 3.65582 2.00388 0
M  V30 8255 H 771.248 2.48258 2.09279 0
M  V30 8256 H 772.259 5.15869 -0.458205 0
M  V30 8257 H 768.936 3.79769 1.7344 0
M  V30 8258 H 770.326 6.61802 -1.1605 0
M  V30 8259 N 773.046 0.209999 1.56195 0
M  V30 8260 C 773.978 -0.736967 2.17029 0
M  V30 8261 C 774.991 -1.16599 1.13616 0
M  V30 8262 O 776.18 -1.09914 1.40646 0
M  V30 8263 C 773.28 -2.00852 2.72969 0
M  V30 8264 C 772.453 -1.73691 4.01435 0
M  V30 8265 C 771.512 -2.85439 4.42053 0
M  V30 8266 O 770.538 -2.54405 5.09183 0
M  V30 8267 N 771.74 -4.14135 4.06783 0
M  V30 8268 H 774.505 -0.216656 2.98916 0
M  V30 8269 H 772.066 0.0285672 1.61875 0
M  V30 8270 H 774.058 -2.74778 2.97118 0
M  V30 8271 H 772.628 -2.43963 1.95451 0
M  V30 8272 H 771.848 -0.834676 3.85262 0
M  V30 8273 H 773.136 -1.52961 4.85263 0
M  V30 8274 H 772.534 -4.42196 3.52816 0
M  V30 8275 H 771.091 -4.84642 4.35851 0
M  V30 8276 N 774.524 -1.57472 -0.0634922 0
M  V30 8277 C 775.434 -2.07621 -1.09227 0
M  V30 8278 C 776.45 -1.00746 -1.41867 0
M  V30 8279 O 777.626 -1.32269 -1.51878 0
M  V30 8280 C 774.691 -2.51707 -2.38421 0
M  V30 8281 C 773.752 -3.72917 -2.12676 0
M  V30 8282 C 772.985 -4.14891 -3.3571 0
M  V30 8283 O 773.208 -3.56663 -4.45137 0
M  V30 8284 O 772.142 -5.07616 -3.23434 0
M  V30 8285 H 775.968 -2.95612 -0.696205 0
M  V30 8286 H 773.553 -1.46787 -0.27819 0
M  V30 8287 H 775.435 -2.80547 -3.14438 0
M  V30 8288 H 774.11 -1.66842 -2.77391 0
M  V30 8289 H 773.017 -3.49148 -1.34337 0
M  V30 8290 H 774.35 -4.5866 -1.78583 0
M  V30 8291 N 776.003 0.335068 -1.53997 0
M  V30 8292 C 776.951 1.43206 -1.83289 0
M  V30 8293 C 777.945 1.54081 -0.703953 0
M  V30 8294 O 779.151 1.56603 -0.887432 0
M  V30 8295 H 775.526 0.477655 -0.580818 0
M  V30 8296 H 777.497 1.15719 -2.75049 0
M  V30 8297 C 776.246 2.79602 -2.06683 0
M  V30 8298 H 775.569 2.72004 -2.93008 0
M  V30 8299 H 777.009 3.55459 -2.31139 0
M  V30 8300 C 775.468 3.25873 -0.854883 0
M  V30 8301 O 775.998 4.01657 -0.0584648 0
M  V30 8302 N 774.204 2.82777 -0.669729 0
M  V30 8303 H 773.751 2.21269 -1.31901 0
M  V30 8304 H 773.709 3.1409 0.13969 0
M  V30 8305 N 777.481 1.45874 0.596531 0
M  V30 8306 C 778.758 1.40942 1.35627 0
M  V30 8307 C 779.138 0.0857066 2.10926 0
M  V30 8308 O 778.486 -0.932544 2.08605 0
M  V30 8309 C 778.696 2.63027 2.29386 0
M  V30 8310 C 780.044 3.08588 2.91649 0
M  V30 8311 O 781.068 2.63478 2.39704 0
M  V30 8312 O 779.927 3.86902 3.85965 0
M  V30 8313 H 777.021 0.559838 0.608696 0
M  V30 8314 H 779.567 1.5802 0.618698 0
M  V30 8315 H 778.339 3.5094 1.7308 0
M  V30 8316 H 777.962 2.48338 3.10506 0
M  V30 8317 N 778.959 -0.83999 1.33349 0
M  V30 8318 C 779.906 -1.94972 1.23509 0
M  V30 8319 C 780.876 -1.65709 0.113967 0
M  V30 8320 O 782.061 -1.88552 0.292045 0
M  V30 8321 C 779.201 -3.30919 0.979105 0
M  V30 8322 C 778.314 -3.72587 2.18639 0
M  V30 8323 C 777.449 -4.97397 1.86465 0
M  V30 8324 C 776.488 -5.31597 3.03432 0
M  V30 8325 N 775.625 -6.47584 2.71254 0
M  V30 8326 H 780.465 -2.0272 2.18423 0
M  V30 8327 H 778.002 -0.992017 1.08616 0
M  V30 8328 H 779.96 -4.09239 0.811126 0
M  V30 8329 H 778.59 -3.22731 0.0667099 0
M  V30 8330 H 777.642 -2.89799 2.46416 0
M  V30 8331 H 778.954 -3.93844 3.06086 0
M  V30 8332 H 778.108 -5.83462 1.66305 0
M  V30 8333 H 776.847 -4.78107 0.96254 0
M  V30 8334 H 775.852 -4.44037 3.24208 0
M  V30 8335 H 777.077 -5.52836 3.94397 0
M  V30 8336 H 775.023 -6.29783 1.836 0
M  V30 8337 H 774.94 -6.68931 3.52231 0
M  V30 8338 H 776.208 -7.36764 2.54558 0
M  V30 8339 N 780.437 -1.16799 -1.0581 0
M  V30 8340 C 781.387 -0.847231 -2.11674 0
M  V30 8341 C 782.371 0.175476 -1.5994 0
M  V30 8342 O 783.563 -0.0260602 -1.76981 0
M  V30 8343 C 780.692 -0.355446 -3.41455 0
M  V30 8344 C 779.778 -1.40922 -4.00002 0
M  V30 8345 N 780.169 -2.62096 -4.32596 0
M  V30 8346 C 778.467 -1.26562 -4.27666 0
M  V30 8347 C 779.168 -3.29759 -4.79201 0
M  V30 8348 N 778.144 -2.57138 -4.78938 0
M  V30 8349 H 781.946 -1.76862 -2.34727 0
M  V30 8350 H 779.46 -1.05577 -1.23399 0
M  V30 8351 H 781.457 -0.107231 -4.16762 0
M  V30 8352 H 780.117 0.559817 -3.19838 0
M  V30 8353 H 781.128 -2.99113 -4.22791 0
M  V30 8354 H 777.805 -0.411503 -4.15467 0
M  V30 8355 H 779.195 -4.33222 -5.13584 0
M  V30 8356 N 781.915 1.24427 -0.967243 0
M  V30 8357 C 782.862 2.25398 -0.496419 0
M  V30 8358 C 783.832 1.59667 0.457781 0
M  V30 8359 O 785.017 1.87213 0.368246 0
M  V30 8360 C 782.157 3.44474 0.207693 0
M  V30 8361 C 781.27 4.24804 -0.785221 0
M  V30 8362 C 780.405 5.31169 -0.0572631 0
M  V30 8363 C 779.444 6.03195 -1.04027 0
M  V30 8364 N 778.581 7.01265 -0.34235 0
M  V30 8365 H 783.421 2.65039 -1.36229 0
M  V30 8366 H 780.958 1.30288 -0.682902 0
M  V30 8367 H 782.916 4.12376 0.632612 0
M  V30 8368 H 781.546 3.05672 1.03752 0
M  V30 8369 H 780.598 3.56445 -1.32858 0
M  V30 8370 H 781.91 4.74599 -1.53483 0
M  V30 8371 H 781.064 6.05205 0.425674 0
M  V30 8372 H 779.803 4.8228 0.725047 0
M  V30 8373 H 778.808 5.27964 -1.53409 0
M  V30 8374 H 780.033 6.54173 -1.82302 0
M  V30 8375 H 777.979 6.54648 0.420993 0
M  V30 8376 H 777.896 7.48939 -1.03084 0
M  V30 8377 H 779.164 7.7941 0.118634 0
M  V30 8378 N 783.393 0.737304 1.3929 0
M  V30 8379 C 784.326 0.0475454 2.2815 0
M  V30 8380 C 785.304 -0.745314 1.44512 0
M  V30 8381 O 786.488 -0.727387 1.739 0
M  V30 8382 C 783.615 -0.939803 3.254 0
M  V30 8383 C 782.661 -0.235153 4.25851 0
M  V30 8384 S 783.494 1.05252 5.25055 0
M  V30 8385 C 784.65 0.0678242 6.25863 0
M  V30 8386 H 784.883 0.801117 2.86303 0
M  V30 8387 H 782.416 0.529197 1.45048 0
M  V30 8388 H 784.374 -1.50417 3.81949 0
M  V30 8389 H 783.035 -1.66623 2.66262 0
M  V30 8390 H 782.228 -0.982336 4.94334 0
M  V30 8391 H 781.83 0.257245 3.73114 0
M  V30 8392 H 784.122 -0.771779 6.7309 0
M  V30 8393 H 785.065 0.719858 7.04431 0
M  V30 8394 H 785.473 -0.305604 5.63672 0
M  V30 8395 N 784.871 -1.49948 0.485112 0
M  V30 8396 C 785.819 -2.30449 -0.315609 0
M  V30 8397 C 786.813 -1.38351 -0.977516 0
M  V30 8398 O 788.019 -1.55477 -0.907019 0
M  V30 8399 H 784.394 -0.742262 -0.120629 0
M  V30 8400 H 786.365 -2.95925 0.383552 0
M  V30 8401 C 785.114 -3.19283 -1.37673 0
M  V30 8402 H 784.437 -3.90067 -0.876801 0
M  V30 8403 H 785.877 -3.78579 -1.90929 0
M  V30 8404 C 784.336 -2.37817 -2.38631 0
M  V30 8405 O 784.866 -2.0711 -3.44192 0
M  V30 8406 N 783.072 -2.00135 -2.107 0
M  V30 8407 H 782.619 -2.25307 -1.24878 0
M  V30 8408 H 782.577 -1.45933 -2.7848 0
M  V30 8409 N 786.349 -0.21828 -1.56081 0
M  V30 8410 C 787.574 0.422302 -2.03055 0
M  V30 8411 C 787.999 1.5279 -1.09713 0
M  V30 8412 O 787.357 1.81102 -0.0847187 0
M  V30 8413 C 787.405 0.934177 -3.48289 0
M  V30 8414 O 786.509 2.04574 -3.58083 0
M  V30 8415 H 785.85 0.0959764 -0.657027 0
M  V30 8416 H 788.38 -0.335958 -2.01823 0
M  V30 8417 H 788.39 1.24484 -3.88546 0
M  V30 8418 H 787.065 0.124963 -4.15712 0
M  V30 8419 H 785.642 1.74196 -3.29712 0
M  V30 8420 N 787.827 1.57504 0.0551401 0
M  V30 8421 C 788.777 2.0128 1.071 0
M  V30 8422 C 789.761 0.897592 1.33537 0
M  V30 8423 O 790.953 1.16151 1.33558 0
M  V30 8424 C 788.082 2.47414 2.37994 0
M  V30 8425 C 787.168 3.65703 2.14761 0
M  V30 8426 N 787.559 4.79323 1.61504 0
M  V30 8427 C 785.857 3.72574 2.45162 0
M  V30 8428 C 786.558 5.61089 1.53472 0
M  V30 8429 N 785.534 5.05426 2.00114 0
M  V30 8430 H 789.336 2.86558 0.652829 0
M  V30 8431 H 786.85 1.60274 0.26193 0
M  V30 8432 H 788.847 2.77023 3.11551 0
M  V30 8433 H 787.507 1.6353 2.80514 0
M  V30 8434 H 788.518 5.01284 1.30134 0
M  V30 8435 H 785.195 2.99439 2.90934 0
M  V30 8436 H 786.585 6.62328 1.13008 0
M  V30 8437 N 789.305 -0.326896 1.54172 0
M  V30 8438 C 790.721 -0.671034 1.44808 0
M  V30 8439 C 790.921 -1.91781 0.618258 0
M  V30 8440 O 789.977 -2.52235 0.115751 0
M  V30 8441 C 791.29 -0.848147 2.88491 0
M  V30 8442 C 792.838 -0.945702 2.98371 0
M  V30 8443 C 793.313 -1.15501 4.43197 0
M  V30 8444 N 794.804 -1.22183 4.46795 0
M  V30 8445 C 795.539 -1.4016 5.56006 0
M  V30 8446 N 795.035 -1.55202 6.75192 0
M  V30 8447 N 796.828 -1.42841 5.43648 0
M  V30 8448 H 788.979 0.49262 2.06608 0
M  V30 8449 H 791.242 0.158574 0.934643 0
M  V30 8450 H 790.948 -0.00329969 3.517 0
M  V30 8451 H 790.822 -1.74497 3.34411 0
M  V30 8452 H 793.209 -1.78106 2.35292 0
M  V30 8453 H 793.29 -0.0254215 2.55787 0
M  V30 8454 H 792.934 -0.324521 5.06862 0
M  V30 8455 H 792.864 -2.08911 4.83388 0
M  V30 8456 H 795.355 -1.12016 3.60917 0
M  V30 8457 H 795.668 -1.68601 7.54184 0
M  V30 8458 H 794.013 -1.52306 6.78106 0
M  V30 8459 H 797.204 -1.30683 4.49488 0
M  V30 8460 H 797.377 -1.56509 6.28816 0
M  V30 8461 N 790.784 -1.46188 -0.588786 0
M  V30 8462 C 792.009 -1.5498 -1.37826 0
M  V30 8463 C 792.434 -0.189498 -1.87143 0
M  V30 8464 O 791.792 0.829293 -1.61222 0
M  V30 8465 C 791.84 -2.55369 -2.54596 0
M  V30 8466 O 790.944 -2.08452 -3.55839 0
M  V30 8467 H 790.285 -0.521741 -0.41071 0
M  V30 8468 H 792.815 -1.91708 -0.714779 0
M  V30 8469 H 792.825 -2.74782 -3.01594 0
M  V30 8470 H 791.5 -3.54155 -2.18052 0
M  V30 8471 H 790.077 -1.98999 -3.15363 0
M  V30 8472 N 792.262 0.832906 -1.33792 0
M  V30 8473 C 793.209 1.94314 -1.24541 0
M  V30 8474 C 794.179 1.65646 -0.122753 0
M  V30 8475 O 795.364 1.88394 -0.30204 0
M  V30 8476 C 792.504 3.30395 -0.996641 0
M  V30 8477 C 791.617 3.71422 -2.20612 0
M  V30 8478 C 790.752 4.96401 -1.89101 0
M  V30 8479 C 789.791 5.2998 -3.06247 0
M  V30 8480 N 788.928 6.46137 -2.74685 0
M  V30 8481 H 793.768 2.01559 -2.19495 0
M  V30 8482 H 791.305 0.986243 -1.09141 0
M  V30 8483 H 793.263 4.08803 -0.832817 0
M  V30 8484 H 791.893 3.22691 -0.0838242 0
M  V30 8485 H 790.945 2.88488 -2.47949 0
M  V30 8486 H 792.257 3.92215 -3.0817 0
M  V30 8487 H 791.411 5.82572 -1.69396 0
M  V30 8488 H 790.15 4.7759 -0.987882 0
M  V30 8489 H 789.155 4.42312 -3.26559 0
M  V30 8490 H 790.38 5.50737 -3.97323 0
M  V30 8491 H 788.326 6.28801 -1.86938 0
M  V30 8492 H 788.243 6.67054 -3.55774 0
M  V30 8493 H 789.511 7.35403 -2.58461 0
M  V30 8494 N 793.74 1.17359 1.05189 0
M  V30 8495 C 794.67 0.91365 2.14883 0
M  V30 8496 C 795.651 -0.144365 1.69486 0
M  V30 8497 O 796.836 0.00587861 1.94199 0
M  V30 8498 C 793.966 0.426196 3.44675 0
M  V30 8499 C 792.92 1.4234 4.03638 0
M  V30 8500 C 792.246 0.793902 5.28773 0
M  V30 8501 C 793.546 2.7966 4.41121 0
M  V30 8502 H 795.24 1.831 2.36885 0
M  V30 8503 H 792.786 0.881781 1.13845 0
M  V30 8504 H 794.739 0.231767 4.20762 0
M  V30 8505 H 793.463 -0.526693 3.22325 0
M  V30 8506 H 792.122 1.60457 3.2962 0
M  V30 8507 H 791.77 -0.165824 5.02727 0
M  V30 8508 H 791.47 1.45959 5.69183 0
M  V30 8509 H 792.994 0.609747 6.07548 0
M  V30 8510 H 794.408 2.6526 5.08242 0
M  V30 8511 H 792.805 3.42807 4.92548 0
M  V30 8512 H 793.875 3.34068 3.51464 0
M  V30 8513 N 795.218 -1.23913 0.973828 0
M  V30 8514 C 796.495 -1.87539 0.555729 0
M  V30 8515 C 796.875 -1.87641 -0.967162 0
M  V30 8516 O 796.223 -1.35335 -1.84111 0
M  V30 8517 C 796.433 -3.29359 1.15427 0
M  V30 8518 C 797.781 -4.06 1.24294 0
M  V30 8519 O 798.805 -3.38554 1.10723 0
M  V30 8520 O 797.664 -5.26689 1.45813 0
M  V30 8521 H 794.758 -0.805769 0.186188 0
M  V30 8522 H 797.304 -1.31838 1.06849 0
M  V30 8523 H 796.076 -3.23817 2.19678 0
M  V30 8524 H 795.699 -3.92642 0.625925 0
M  V30 8525 N 796.696 -0.74468 -1.38897 0
M  V30 8526 C 797.921 -0.306119 -2.05128 0
M  V30 8527 C 798.346 1.0541 -1.55789 0
M  V30 8528 O 797.704 1.66993 -0.705909 0
M  V30 8529 C 797.752 -0.328195 -3.59103 0
M  V30 8530 O 796.856 0.680876 -4.06741 0
M  V30 8531 H 796.197 -0.137209 -0.649669 0
M  V30 8532 H 798.727 -1.01331 -1.77745 0
M  V30 8533 H 798.737 -0.175956 -4.0762 0
M  V30 8534 H 797.412 -1.32067 -3.94374 0
M  V30 8535 H 795.989 0.49398 -3.69614 0
M  V30 8536 N 798.174 1.49689 -0.493057 0
M  V30 8537 C 799.121 2.28976 0.28959 0
M  V30 8538 C 800.091 1.35011 0.967536 0
M  V30 8539 O 801.276 1.63964 0.975736 0
M  V30 8540 C 798.416 3.1748 1.35279 0
M  V30 8541 C 797.529 4.26496 0.687418 0
M  V30 8542 C 796.664 5.02226 1.73038 0
M  V30 8543 C 795.703 6.03089 1.04645 0
M  V30 8544 N 794.84 6.72014 2.03325 0
M  V30 8545 H 799.68 2.954 -0.392798 0
M  V30 8546 H 797.217 1.45657 -0.205554 0
M  V30 8547 H 799.175 3.67162 1.98111 0
M  V30 8548 H 797.805 2.53057 2.00405 0
M  V30 8549 H 796.857 3.80362 -0.0540001 0
M  V30 8550 H 798.169 4.98578 0.14864 0
M  V30 8551 H 797.323 5.55737 2.43395 0
M  V30 8552 H 796.062 4.29899 2.303 0
M  V30 8553 H 795.067 5.48817 0.328606 0
M  V30 8554 H 796.292 6.77398 0.480428 0
M  V30 8555 H 794.238 6.02464 2.59564 0
M  V30 8556 H 794.155 7.40046 1.54492 0
M  V30 8557 H 795.423 7.30133 2.72995 0
M  V30 8558 N 799.652 0.226554 1.55963 0
M  V30 8559 C 800.88 -0.408507 2.02827 0
M  V30 8560 C 801.295 -1.52994 1.10627 0
M  V30 8561 O 800.652 -1.82126 0.116809 0
M  V30 8562 C 800.703 -0.93545 3.49187 0
M  V30 8563 O 800.424 0.141273 4.37872 0
M  V30 8564 C 801.925 -1.64325 4.11719 0
M  V30 8565 H 799.145 -0.099442 0.66359 0
M  V30 8566 H 801.689 0.344471 2.01578 0
M  V30 8567 H 799.844 -1.63868 3.51036 0
M  V30 8568 H 800.258 -0.25558 5.23877 0
M  V30 8569 H 801.732 -1.9639 5.15883 0
M  V30 8570 H 802.209 -2.55815 3.57009 0
M  V30 8571 H 802.815 -0.9851 4.13734 0
M  V30 8572 N 801.13 -1.57531 -0.0467866 0
M  V30 8573 C 802.077 -2.05387 -1.05285 0
M  V30 8574 C 803.047 -0.939385 -1.36985 0
M  V30 8575 O 804.232 -1.20877 -1.47626 0
M  V30 8576 C 801.372 -2.52343 -2.35408 0
M  V30 8577 C 800.485 -3.77512 -2.10022 0
M  V30 8578 C 799.62 -4.1315 -3.33887 0
M  V30 8579 C 798.659 -5.31286 -3.03976 0
M  V30 8580 N 797.796 -5.62441 -4.20243 0
M  V30 8581 H 802.636 -2.91095 -0.637788 0
M  V30 8582 H 800.173 -1.43939 -0.303322 0
M  V30 8583 H 802.131 -2.77628 -3.11413 0
M  V30 8584 H 800.761 -1.69577 -2.7467 0
M  V30 8585 H 799.813 -3.59417 -1.24594 0
M  V30 8586 H 801.125 -4.63644 -1.83945 0
M  V30 8587 H 800.279 -4.39469 -4.18273 0
M  V30 8588 H 799.018 -3.25634 -3.63062 0
M  V30 8589 H 798.023 -5.04738 -2.17991 0
M  V30 8590 H 799.248 -6.20441 -2.76098 0
M  V30 8591 H 797.194 -4.77885 -4.49402 0
M  V30 8592 H 797.111 -6.43046 -3.97528 0
M  V30 8593 H 798.379 -5.93327 -5.05553 0
M  V30 8594 N 802.608 0.318715 -1.54344 0
M  V30 8595 C 803.836 1.0755 -1.7675 0
M  V30 8596 C 804.251 1.81543 -0.518422 0
M  V30 8597 O 803.608 1.75198 0.511078 0
M  V30 8598 C 803.659 2.06983 -2.96378 0
M  V30 8599 O 803.38 1.35995 -4.16458 0
M  V30 8600 C 804.881 2.94841 -3.31034 0
M  V30 8601 H 802.101 0.319711 -0.589937 0
M  V30 8602 H 804.645 0.363369 -2.01246 0
M  V30 8603 H 802.8 2.73724 -2.74142 0
M  V30 8604 H 803.214 2.02623 -4.83781 0
M  V30 8605 H 804.688 3.60496 -4.18027 0
M  V30 8606 H 805.165 3.62199 -2.48412 0
M  V30 8607 H 805.771 2.33656 -3.55366 0
M  V30 8608 N 804.086 1.46499 0.581025 0
M  V30 8609 C 805.311 1.55708 1.37002 0
M  V30 8610 C 805.736 0.19942 1.8704 0
M  V30 8611 O 805.094 -0.820731 1.61659 0
M  V30 8612 C 805.142 2.56716 2.53238 0
M  V30 8613 O 804.246 2.10336 3.54729 0
M  V30 8614 H 803.587 0.523912 0.407937 0
M  V30 8615 H 806.117 1.92085 0.704602 0
M  V30 8616 H 806.127 2.76378 3.00132 0
M  V30 8617 H 804.802 3.55307 2.16171 0
M  V30 8618 H 803.379 2.00669 3.14303 0
M  V30 8619 N 805.565 -0.825799 1.34232 0
M  V30 8620 C 806.512 -1.93651 1.2557 0
M  V30 8621 C 807.482 -1.65578 0.131536 0
M  V30 8622 O 808.667 -1.88231 0.312027 0
M  V30 8623 C 805.807 -3.29862 1.01415 0
M  V30 8624 C 804.92 -3.70247 2.22579 0
M  V30 8625 C 804.055 -4.95392 1.91731 0
M  V30 8626 C 803.094 -5.28349 3.09053 0
M  V30 8627 N 802.231 -6.44671 2.78107 0
M  V30 8628 H 807.071 -2.00392 2.20561 0
M  V30 8629 H 804.608 -0.980441 1.09662 0
M  V30 8630 H 806.566 -4.08356 0.854485 0
M  V30 8631 H 805.196 -3.22642 0.100936 0
M  V30 8632 H 804.248 -2.87169 2.49476 0
M  V30 8633 H 805.56 -3.90575 3.10246 0
M  V30 8634 H 804.714 -5.81665 1.72484 0
M  V30 8635 H 803.453 -4.77059 1.0132 0
M  V30 8636 H 802.458 -4.40574 3.289 0
M  V30 8637 H 803.683 -5.48622 4.00239 0
M  V30 8638 H 801.629 -6.278 1.9027 0
M  V30 8639 H 801.546 -6.65158 3.59306 0
M  V30 8640 H 802.814 -7.34022 2.62358 0
M  V30 8641 N 807.043 -1.17915 -1.04565 0
M  V30 8642 C 807.99 -0.901605 -2.12461 0
M  V30 8643 C 808.96 0.157011 -1.65356 0
M  V30 8644 O 810.145 0.0184494 -1.90791 0
M  V30 8645 C 807.285 -0.42796 -3.42436 0
M  V30 8646 C 806.398 -1.55142 -4.03181 0
M  V30 8647 C 805.533 -1.03101 -5.21098 0
M  V30 8648 C 804.572 -2.1295 -5.73863 0
M  V30 8649 N 803.709 -1.62339 -6.83074 0
M  V30 8650 H 808.549 -1.82551 -2.3554 0
M  V30 8651 H 806.086 -0.910389 -1.15544 0
M  V30 8652 H 808.044 -0.134859 -4.16982 0
M  V30 8653 H 806.674 0.458977 -3.1952 0
M  V30 8654 H 805.726 -1.96011 -3.26012 0
M  V30 8655 H 807.038 -2.37968 -4.38375 0
M  V30 8656 H 806.192 -0.692132 -6.02739 0
M  V30 8657 H 804.931 -0.17227 -4.87396 0
M  V30 8658 H 803.936 -2.47687 -4.90847 0
M  V30 8659 H 805.161 -2.9925 -6.09611 0
M  V30 8660 H 803.107 -0.787464 -6.51256 0
M  V30 8661 H 803.024 -2.38767 -7.17305 0
M  V30 8662 H 804.292 -1.31363 -7.68351 0
M  V30 8663 N 808.521 1.23394 -0.980386 0
M  V30 8664 C 809.749 1.95844 -0.667286 0
M  V30 8665 C 810.164 1.72574 0.765735 0
M  V30 8666 O 809.521 1.01715 1.51526 0
M  V30 8667 C 809.572 3.48844 -0.948151 0
M  V30 8668 O 809.293 3.71325 -2.32485 0
M  V30 8669 C 810.794 4.38494 -0.651002 0
M  V30 8670 H 808.014 0.623535 -0.247882 0
M  V30 8671 H 810.558 1.56885 -1.31176 0
M  V30 8672 H 808.713 3.85819 -0.349681 0
M  V30 8673 H 809.127 4.65619 -2.41452 0
M  V30 8674 H 810.601 5.44648 -0.897887 0
M  V30 8675 H 811.078 4.37236 0.414922 0
M  V30 8676 H 811.684 4.07127 -1.22995 0
M  V30 8677 N 809.999 0.752036 1.385 0
M  V30 8678 C 811.41 0.375385 1.82887 0
M  V30 8679 C 811.761 -1.09575 1.62751 0
M  V30 8680 O 810.886 -1.84685 1.12785 0
M  V30 8681 C 811.481 0.674563 3.32017 0
M  V30 8682 C 810.04 0.351208 3.74758 0
M  V30 8683 C 809.187 0.928531 2.61292 0
M  V30 8684 H 812.138 0.948313 1.27251 0
M  V30 8685 H 812.159 -0.0477781 3.8047 0
M  V30 8686 H 811.671 1.74533 3.46641 0
M  V30 8687 H 809.772 -0.713042 3.65714 0
M  V30 8688 H 809.885 0.845675 4.71577 0
M  V30 8689 H 808.249 0.354012 2.52228 0
M  V30 8690 H 809.032 2.0043 2.78716 0
M  V30 8691 N 811.477 -1.49425 0.500989 0
M  V30 8692 C 812.409 -2.27037 -0.314159 0
M  V30 8693 C 813.422 -1.33578 -0.930626 0
M  V30 8694 O 814.611 -1.58861 -0.813968 0
M  V30 8695 C 811.711 -3.05968 -1.45729 0
M  V30 8696 C 810.884 -4.27 -0.948135 0
M  V30 8697 C 809.943 -4.87977 -1.96888 0
M  V30 8698 O 808.969 -5.48044 -1.53743 0
M  V30 8699 N 810.171 -4.77627 -3.29928 0
M  V30 8700 H 812.936 -2.97634 0.351336 0
M  V30 8701 H 810.497 -1.58427 0.333536 0
M  V30 8702 H 812.489 -3.43634 -2.1377 0
M  V30 8703 H 811.059 -2.37978 -2.02695 0
M  V30 8704 H 810.279 -3.94091 -0.0926311 0
M  V30 8705 H 811.567 -5.0541 -0.586362 0
M  V30 8706 H 810.965 -4.29926 -3.67669 0
M  V30 8707 H 809.522 -5.19478 -3.93682 0
M  V30 8708 N 812.955 -0.234822 -1.55841 0
M  V30 8709 C 813.903 0.686145 -2.22249 0
M  V30 8710 C 814.897 1.18948 -1.20614 0
M  V30 8711 O 816.103 1.14777 -1.38659 0
M  V30 8712 H 812.478 0.239724 -0.712767 0
M  V30 8713 H 814.449 0.102762 -2.98223 0
M  V30 8714 C 813.198 1.8776 -2.92646 0
M  V30 8715 H 812.521 1.49943 -3.70617 0
M  V30 8716 H 813.961 2.4995 -3.42493 0
M  V30 8717 C 812.42 2.74127 -1.95847 0
M  V30 8718 O 812.95 3.7329 -1.48384 0
M  V30 8719 N 811.156 2.4044 -1.63209 0
M  V30 8720 H 810.703 1.59854 -2.02001 0
M  V30 8721 H 810.661 2.98504 -0.987063 0
M  V30 8722 N 814.433 1.57553 0.0384317 0
M  V30 8723 C 815.68 1.88841 0.731116 0
M  V30 8724 C 816.008 0.83093 1.75857 0
M  V30 8725 O 815.263 -0.169248 1.94967 0
M  V30 8726 C 815.562 3.26862 1.44554 0
M  V30 8727 C 815.228 4.47472 0.554946 0
M  V30 8728 C 813.89 4.80203 0.309621 0
M  V30 8729 C 816.242 5.21165 -0.0605204 0
M  V30 8730 C 813.57 5.8402 -0.560101 0
M  V30 8731 C 815.922 6.25905 -0.91789 0
M  V30 8732 C 814.586 6.57117 -1.17277 0
M  V30 8733 H 813.856 0.691018 0.267534 0
M  V30 8734 H 816.503 1.91498 -0.00883195 0
M  V30 8735 H 814.808 3.2015 2.25856 0
M  V30 8736 H 816.505 3.48316 1.98688 0
M  V30 8737 H 813.095 4.21874 0.756304 0
M  V30 8738 H 817.279 4.96164 0.116064 0
M  V30 8739 H 812.535 6.06583 -0.765974 0
M  V30 8740 H 816.709 6.82155 -1.40136 0
M  V30 8741 H 814.336 7.37385 -1.84843 0
M  V30 8742 N 815.911 -0.310526 1.54511 0
M  V30 8743 C 817.157 -1.04846 1.73595 0
M  V30 8744 C 817.49 -1.87244 0.515118 0
M  V30 8745 O 816.765 -1.88282 -0.48786 0
M  V30 8746 C 817.048 -1.96237 3.01932 0
M  V30 8747 C 816.901 -1.17082 4.34295 0
M  V30 8748 C 818.22 -2.9556 3.26086 0
M  V30 8749 H 815.339 -0.37976 0.631626 0
M  V30 8750 H 817.981 -0.32394 1.87218 0
M  V30 8751 H 816.131 -2.58015 2.90449 0
M  V30 8752 H 817.803 -0.576643 4.57682 0
M  V30 8753 H 816.046 -0.473336 4.3121 0
M  V30 8754 H 816.717 -1.84257 5.20339 0
M  V30 8755 H 819.193 -2.43908 3.37117 0
M  V30 8756 H 818.069 -3.5668 4.17218 0
M  V30 8757 H 818.33 -3.68715 2.4393 0
M  V30 8758 N 817.389 -1.46805 -0.573248 0
M  V30 8759 C 818.638 -1.51868 -1.32736 0
M  V30 8760 C 818.951 -0.178765 -1.94781 0
M  V30 8761 O 820.157 -0.107272 -2.71288 0
M  V30 8762 C 818.613 -2.67641 -2.40616 0
M  V30 8763 C 818.221 -4.08094 -1.84832 0
M  V30 8764 C 819.965 -2.81984 -3.17309 0
M  V30 8765 C 817.872 -5.15193 -2.90397 0
M  V30 8766 H 816.802 -0.56523 -0.49903 0
M  V30 8767 H 819.453 -1.7304 -0.610695 0
M  V30 8768 H 817.835 -2.39818 -3.15124 0
M  V30 8769 H 819.009 -4.45751 -1.16803 0
M  V30 8770 H 817.324 -3.985 -1.20775 0
M  V30 8771 H 819.921 -3.59166 -3.96111 0
M  V30 8772 H 820.264 -1.89842 -3.70494 0
M  V30 8773 H 820.797 -3.095 -2.4991 0
M  V30 8774 H 817.536 -6.09158 -2.42088 0
M  V30 8775 H 817.056 -4.82071 -3.56886 0
M  V30 8776 H 818.735 -5.41448 -3.54179 0
M  V30 8777 N 818.867 0.818669 -1.34668 0
M  V30 8778 C 820.092 1.61193 -1.30505 0
M  V30 8779 C 820.517 1.87734 0.117341 0
M  V30 8780 O 819.875 1.45591 1.08042 0
M  V30 8781 C 819.923 2.92733 -2.1057 0
M  V30 8782 O 819.027 3.85 -1.47813 0
M  V30 8783 H 818.368 0.490085 -0.44801 0
M  V30 8784 H 820.898 1.01701 -1.77534 0
M  V30 8785 H 820.908 3.42262 -2.22082 0
M  V30 8786 H 819.583 2.7274 -3.13984 0
M  V30 8787 H 818.16 3.43525 -1.45069 0
M  V30 8788 N 820.346 1.18468 1.03938 0
M  V30 8789 C 821.574 1.00576 1.80809 0
M  V30 8790 C 821.989 -0.445786 1.83462 0
M  V30 8791 O 821.346 -1.30964 1.27101 0
M  V30 8792 C 821.397 1.55491 3.26351 0
M  V30 8793 O 821.118 2.94963 3.23926 0
M  V30 8794 C 822.619 1.42236 4.19862 0
M  V30 8795 H 819.839 0.35508 0.56935 0
M  V30 8796 H 822.383 1.57046 1.30984 0
M  V30 8797 H 820.538 1.03195 3.73403 0
M  V30 8798 H 820.952 3.20598 4.15111 0
M  V30 8799 H 822.426 1.85455 5.19914 0
M  V30 8800 H 822.903 0.371267 4.37628 0
M  V30 8801 H 823.509 1.9361 3.78675 0
M  V30 8802 N 821.824 -1.22873 0.986916 0
M  V30 8803 C 822.734 -2.28277 0.540978 0
M  V30 8804 C 823.75 -1.69164 -0.407363 0
M  V30 8805 O 824.926 -1.99504 -0.275674 0
M  V30 8806 C 821.991 -3.46404 -0.143181 0
M  V30 8807 C 821.052 -4.20854 0.847375 0
M  V30 8808 C 820.285 -5.33341 0.19577 0
M  V30 8809 O 820.508 -5.61356 -1.0117 0
M  V30 8810 O 819.442 -5.95169 0.897623 0
M  V30 8811 H 823.268 -2.68578 1.41773 0
M  V30 8812 H 820.853 -1.28927 0.754867 0
M  V30 8813 H 822.735 -4.18096 -0.526676 0
M  V30 8814 H 821.41 -3.08041 -0.994593 0
M  V30 8815 H 820.317 -3.51459 1.28169 0
M  V30 8816 H 821.65 -4.63082 1.6678 0
M  V30 8817 N 823.302 -0.75937 -1.38099 0
M  V30 8818 C 824.55 -0.317485 -1.99591 0
M  V30 8819 C 824.871 1.10628 -1.60581 0
M  V30 8820 O 824.141 1.7575 -0.865378 0
M  V30 8821 H 822.721 -0.114397 -0.738189 0
M  V30 8822 H 825.383 -0.974749 -1.68774 0
M  V30 8823 H 824.479 -0.385227 -3.09713 0
M  V30 8824 N 824.78 1.49157 -0.508906 0
M  V30 8825 C 826.191 1.86593 -0.0630975 0
M  V30 8826 C 826.542 1.42051 1.35337 0
M  V30 8827 O 825.667 0.801866 2.00995 0
M  V30 8828 C 826.262 3.38629 -0.107729 0
M  V30 8829 C 824.821 3.75336 0.282776 0
M  V30 8830 C 823.968 2.7317 -0.4768 0
M  V30 8831 H 826.919 1.41362 -0.72128 0
M  V30 8832 H 826.94 3.74271 0.685689 0
M  V30 8833 H 826.452 3.71017 -1.13876 0
M  V30 8834 H 824.553 3.48558 1.31675 0
M  V30 8835 H 824.666 4.79081 -0.0421728 0
M  V30 8836 H 823.03 2.54591 0.0743552 0
M  V30 8837 H 823.813 3.08403 -1.50807 0
M  V30 8838 N 826.258 0.243083 1.55714 0
M  V30 8839 C 827.507 -0.383188 1.98027 0
M  V30 8840 C 827.82 -1.59347 1.13436 0
M  V30 8841 O 829.026 -2.29065 1.45745 0
M  V30 8842 C 827.482 -0.733135 3.52354 0
M  V30 8843 C 827.09 0.455539 4.45678 0
M  V30 8844 C 828.834 -1.32381 4.03331 0
M  V30 8845 C 826.741 0.0819591 5.91343 0
M  V30 8846 H 825.671 -0.146944 0.739543 0
M  V30 8847 H 828.322 0.342697 1.80272 0
M  V30 8848 H 826.704 -1.51704 3.65789 0
M  V30 8849 H 827.878 1.23291 4.44 0
M  V30 8850 H 826.193 0.960886 4.05162 0
M  V30 8851 H 828.79 -1.61658 5.09677 0
M  V30 8852 H 829.133 -2.24698 3.50452 0
M  V30 8853 H 829.666 -0.602885 3.93205 0
M  V30 8854 H 826.405 0.972171 6.48251 0
M  V30 8855 H 825.925 -0.659291 5.96166 0
M  V30 8856 H 827.604 -0.3372 6.46121 0
M  V30 8857 N 827.736 -1.57571 -0.0300757 0
M  V30 8858 C 828.683 -2.06492 -1.03101 0
M  V30 8859 C 829.653 -0.953862 -1.3598 0
M  V30 8860 O 830.838 -1.22436 -1.46335 0
M  V30 8861 C 827.978 -2.54826 -2.32718 0
M  V30 8862 C 827.091 -3.79718 -2.06006 0
M  V30 8863 C 826.226 -4.16668 -3.29487 0
M  V30 8864 C 825.265 -5.3448 -2.98324 0
M  V30 8865 N 824.402 -5.66867 -4.14254 0
M  V30 8866 H 829.242 -2.91755 -0.606877 0
M  V30 8867 H 826.779 -1.44252 -0.288038 0
M  V30 8868 H 828.737 -2.80916 -3.08451 0
M  V30 8869 H 827.367 -1.72481 -2.72856 0
M  V30 8870 H 826.419 -3.60718 -1.20774 0
M  V30 8871 H 827.731 -4.65569 -1.79017 0
M  V30 8872 H 826.885 -4.43881 -4.13588 0
M  V30 8873 H 825.624 -3.29466 -3.59588 0
M  V30 8874 H 824.629 -5.07021 -2.12625 0
M  V30 8875 H 825.854 -6.23334 -2.69502 0
M  V30 8876 H 823.8 -4.82625 -4.44308 0
M  V30 8877 H 823.717 -6.47226 -3.90685 0
M  V30 8878 H 824.985 -5.98656 -4.99231 0
M  V30 8879 N 829.214 0.302327 -1.54673 0
M  V30 8880 C 830.625 0.875409 -1.64904 0
M  V30 8881 C 830.976 1.88132 -0.55684 0
M  V30 8882 O 830.101 2.14215 0.306754 0
M  V30 8883 C 830.696 1.59457 -2.9893 0
M  V30 8884 C 829.255 2.11607 -3.11287 0
M  V30 8885 C 828.402 0.948324 -2.6058 0
M  V30 8886 H 831.353 0.079362 -1.58501 0
M  V30 8887 H 831.374 2.46005 -2.90279 0
M  V30 8888 H 830.886 0.8622 -3.78402 0
M  V30 8889 H 828.987 2.87895 -2.36532 0
M  V30 8890 H 829.1 2.35151 -4.17422 0
M  V30 8891 H 827.464 1.33352 -2.17001 0
M  V30 8892 H 828.247 0.229936 -3.42529 0
M  V30 8893 N 830.692 1.47107 0.565454 0
M  V30 8894 C 831.92 1.56909 1.3486 0
M  V30 8895 C 832.335 0.216312 1.87557 0
M  V30 8896 O 831.692 -0.789168 1.64555 0
M  V30 8897 C 831.743 2.58776 2.52423 0
M  V30 8898 O 831.464 3.888 2.01906 0
M  V30 8899 C 832.965 2.78683 3.44747 0
M  V30 8900 H 830.185 0.530096 0.411387 0
M  V30 8901 H 832.729 1.92658 0.685782 0
M  V30 8902 H 830.884 2.25983 3.1466 0
M  V30 8903 H 831.298 4.44393 2.78595 0
M  V30 8904 H 832.772 3.53842 4.23674 0
M  V30 8905 H 833.249 1.86208 3.97773 0
M  V30 8906 H 833.855 3.12641 2.88333 0
M  V30 8907 N 832.17 -0.811516 1.35101 0
M  V30 8908 C 833.103 -1.92872 1.21966 0
M  V30 8909 C 834.081 -1.62236 0.108667 0
M  V30 8910 O 835.265 -1.8647 0.275875 0
M  V30 8911 C 832.392 -3.27152 0.876886 0
M  V30 8912 C 831.438 -3.7674 1.99924 0
M  V30 8913 S 832.271 -3.95132 3.61429 0
M  V30 8914 C 833.427 -5.32322 3.29218 0
M  V30 8915 H 833.66 -2.03718 2.16532 0
M  V30 8916 H 831.193 -0.968352 1.20259 0
M  V30 8917 H 833.151 -4.04729 0.685917 0
M  V30 8918 H 831.812 -3.14059 -0.0506289 0
M  V30 8919 H 831.005 -4.73981 1.71343 0
M  V30 8920 H 830.607 -3.06145 2.14829 0
M  V30 8921 H 832.899 -6.1614 2.8174 0
M  V30 8922 H 833.842 -5.65893 4.25641 0
M  V30 8923 H 834.25 -4.98374 2.65111 0
M  V30 8924 N 833.648 -1.19017 -1.03309 0
M  V30 8925 C 834.598 -0.89194 -2.0983 0
M  V30 8926 C 835.582 0.14151 -1.60277 0
M  V30 8927 O 836.774 -0.0635946 -1.76886 0
M  V30 8928 C 833.903 -0.427793 -3.40624 0
M  V30 8929 C 832.989 -1.49374 -3.96923 0
M  V30 8930 N 833.38 -2.71213 -4.26939 0
M  V30 8931 C 831.678 -1.35605 -4.24885 0
M  V30 8932 C 832.379 -3.39849 -4.72099 0
M  V30 8933 N 831.355 -2.67239 -4.73375 0
M  V30 8934 H 835.157 -1.81801 -2.30923 0
M  V30 8935 H 832.671 -1.08171 -1.21131 0
M  V30 8936 H 834.668 -0.195608 -4.16441 0
M  V30 8937 H 833.328 0.491848 -3.20953 0
M  V30 8938 H 834.339 -3.08014 -4.16351 0
M  V30 8939 H 831.016 -0.499537 -4.14501 0
M  V30 8940 H 832.406 -4.44018 -5.04279 0
M  V30 8941 N 835.127 1.22348 -0.993418 0
M  V30 8942 C 836.074 2.24294 -0.544118 0
M  V30 8943 C 837.044 1.60602 0.42381 0
M  V30 8944 O 838.229 1.87952 0.328453 0
M  V30 8945 C 835.369 3.44837 0.134578 0
M  V30 8946 C 834.482 4.23043 -0.875151 0
M  V30 8947 C 833.617 5.30928 -0.169919 0
M  V30 8948 C 832.656 6.00853 -1.16798 0
M  V30 8949 N 831.793 7.00381 -0.491021 0
M  V30 8950 H 836.633 2.6209 -1.4182 0
M  V30 8951 H 834.17 1.2881 -0.710384 0
M  V30 8952 H 836.128 4.13625 0.544998 0
M  V30 8953 H 834.758 3.07804 0.972446 0
M  V30 8954 H 833.81 3.53546 -1.40389 0
M  V30 8955 H 835.122 4.71237 -1.63516 0
M  V30 8956 H 834.276 6.05972 0.297205 0
M  V30 8957 H 833.015 4.8371 0.622586 0
M  V30 8958 H 832.02 5.24591 -1.64573 0
M  V30 8959 H 833.245 6.50159 -1.96137 0
M  V30 8960 H 831.191 6.55393 0.282037 0
M  V30 8961 H 831.108 7.46584 -1.18947 0
M  V30 8962 H 832.376 7.79486 -0.0467169 0
M  V30 8963 N 836.605 0.766683 1.37694 0
M  V30 8964 C 837.833 0.339939 2.04088 0
M  V30 8965 C 838.248 -1.03617 1.57826 0
M  V30 8966 O 837.605 -1.6605 0.757214 0
M  V30 8967 C 837.656 0.368269 3.59619 0
M  V30 8968 O 837.377 1.69009 4.04188 0
M  V30 8969 C 838.878 -0.0707053 4.43244 0
M  V30 8970 H 836.098 0.143189 0.655544 0
M  V30 8971 H 838.642 1.03919 1.76128 0
M  V30 8972 H 836.797 -0.282359 3.8637 0
M  V30 8973 H 837.211 1.62523 4.98685 0
M  V30 8974 H 838.685 0.000273538 5.52 0
M  V30 8975 H 839.162 -1.1204 4.24669 0
M  V30 8976 H 839.768 0.551543 4.21709 0
M  V30 8977 N 838.083 -1.48885 0.516809 0
M  V30 8978 C 839.308 -2.0739 -0.0205201 0
M  V30 8979 C 839.733 -1.37259 -1.28614 0
M  V30 8980 O 839.091 -0.434304 -1.76021 0
M  V30 8981 C 839.139 -3.59793 -0.24104 0
M  V30 8982 O 838.243 -3.90957 -1.31251 0
M  V30 8983 H 837.584 -0.663167 0.0332564 0
M  V30 8984 H 840.114 -1.91477 0.720956 0
M  V30 8985 H 840.124 -4.0531 -0.467737 0
M  V30 8986 H 838.799 -4.10244 0.68356 0
M  V30 8987 H 837.376 -3.57234 -1.06951 0
M  V30 8988 N 839.561 -0.251338 -1.55583 0
M  V30 8989 C 840.81 0.372681 -1.98227 0
M  V30 8990 C 841.123 1.58743 -1.1428 0
M  V30 8991 O 842.329 2.28289 -1.46957 0
M  V30 8992 C 840.785 0.714439 -3.52738 0
M  V30 8993 C 840.393 -0.479168 -4.4543 0
M  V30 8994 C 842.137 1.3024 -4.04027 0
M  V30 8995 C 840.044 -0.113318 -5.91291 0
M  V30 8996 H 838.974 0.14302 -0.740312 0
M  V30 8997 H 841.625 -0.352253 -1.80087 0
M  V30 8998 H 840.007 1.49762 -3.66589 0
M  V30 8999 H 841.181 -1.25644 -4.4334 0
M  V30 9000 H 839.496 -0.982359 -4.04646 0
M  V30 9001 H 842.093 1.58953 -5.10527 0
M  V30 9002 H 842.436 2.22837 -3.51638 0
M  V30 9003 H 842.969 0.582024 -3.93519 0
M  V30 9004 H 839.708 -1.00654 -6.47726 0
M  V30 9005 H 839.228 0.627666 -5.96507 0
M  V30 9006 H 840.907 0.30293 -6.4629 0
M  V30 9007 N 841.039 1.57585 0.0217189 0
M  V30 9008 C 841.986 2.07036 1.02004 0
M  V30 9009 C 842.956 0.96106 1.35473 0
M  V30 9010 O 844.141 1.23211 1.45684 0
M  V30 9011 C 841.281 2.56056 2.31364 0
M  V30 9012 C 840.394 3.80805 2.03989 0
M  V30 9013 C 839.529 4.18409 3.27272 0
M  V30 9014 C 838.568 5.36055 2.95486 0
M  V30 9015 N 837.705 5.69056 4.11242 0
M  V30 9016 H 842.545 2.92073 0.591396 0
M  V30 9017 H 840.082 1.44403 0.280384 0
M  V30 9018 H 842.04 2.82548 3.06957 0
M  V30 9019 H 840.67 1.73925 2.71937 0
M  V30 9020 H 839.722 3.61354 1.1886 0
M  V30 9021 H 841.034 4.66512 1.76546 0
M  V30 9022 H 840.188 4.46068 4.11228 0
M  V30 9023 H 838.927 3.31369 3.57835 0
M  V30 9024 H 837.932 5.08142 2.09933 0
M  V30 9025 H 839.157 6.24755 2.66193 0
M  V30 9026 H 837.103 4.84974 4.41742 0
M  V30 9027 H 837.02 6.49288 3.87247 0
M  V30 9028 H 838.288 6.01295 4.96049 0
M  V30 9029 N 842.517 -0.29412 1.54831 0
M  V30 9030 C 843.745 -1.04724 1.78439 0
M  V30 9031 C 844.16 -1.80695 0.547239 0
M  V30 9032 O 843.517 -1.75989 -0.483141 0
M  V30 9033 C 843.568 -2.02242 2.99634 0
M  V30 9034 O 843.289 -1.29352 4.18568 0
M  V30 9035 C 844.79 -2.89537 3.35683 0
M  V30 9036 H 842.01 -0.310285 0.594949 0
M  V30 9037 H 844.554 -0.331306 2.01798 0
M  V30 9038 H 842.709 -2.69328 2.78462 0
M  V30 9039 H 843.123 -1.94901 4.86943 0
M  V30 9040 H 844.597 -3.538 4.23709 0
M  V30 9041 H 845.074 -3.58201 2.54143 0
M  V30 9042 H 845.68 -2.27973 3.59038 0
M  V30 9043 N 843.995 -1.47404 -0.557645 0
M  V30 9044 C 844.927 -1.55917 -1.67995 0
M  V30 9045 C 845.94 -0.445411 -1.56588 0
M  V30 9046 O 847.129 -0.714999 -1.63554 0
M  V30 9047 C 844.229 -1.44697 -3.06457 0
M  V30 9048 C 843.402 -2.70633 -3.43622 0
M  V30 9049 C 842.461 -2.53256 -4.61246 0
M  V30 9050 O 841.487 -3.27068 -4.65849 0
M  V30 9051 N 842.689 -1.61053 -5.57711 0
M  V30 9052 H 845.454 -2.52694 -1.61139 0
M  V30 9053 H 843.015 -1.43778 -0.744271 0
M  V30 9054 H 845.007 -1.30806 -3.82978 0
M  V30 9055 H 843.577 -0.560039 -3.07542 0
M  V30 9056 H 842.797 -2.99288 -2.56555 0
M  V30 9057 H 844.085 -3.5424 -3.65228 0
M  V30 9058 H 843.483 -1.00235 -5.56749 0
M  V30 9059 H 842.04 -1.53115 -6.33561 0
M  V30 9060 N 845.473 0.80434 -1.35529 0
M  V30 9061 C 846.722 1.55665 -1.28263 0
M  V30 9062 C 847.035 1.95096 0.140352 0
M  V30 9063 O 848.241 2.69422 0.335303 0
M  V30 9064 C 846.697 2.80935 -2.24952 0
M  V30 9065 C 846.305 2.48733 -3.72607 0
M  V30 9066 C 848.049 3.5894 -2.26632 0
M  V30 9067 C 845.956 3.70308 -4.61114 0
M  V30 9068 H 844.886 0.584301 -0.476559 0
M  V30 9069 H 847.537 0.88395 -1.60806 0
M  V30 9070 H 845.919 3.49927 -1.85383 0
M  V30 9071 H 847.093 1.87733 -4.20824 0
M  V30 9072 H 845.408 1.83969 -3.73557 0
M  V30 9073 H 848.005 4.49244 -2.89973 0
M  V30 9074 H 848.348 3.96433 -1.27069 0
M  V30 9075 H 848.881 2.96912 -2.64742 0
M  V30 9076 H 845.62 3.37922 -5.61684 0
M  V30 9077 H 845.14 4.30526 -4.17621 0
M  V30 9078 H 846.819 4.37511 -4.76648 0
M  V30 9079 N 846.951 1.19563 1.02676 0
M  V30 9080 C 848.198 0.999568 1.7611 0
M  V30 9081 C 848.526 -0.469432 1.8875 0
M  V30 9082 O 847.781 -1.36481 1.40255 0
M  V30 9083 C 848.08 1.61619 3.18769 0
M  V30 9084 C 847.746 3.11366 3.26132 0
M  V30 9085 C 846.408 3.52234 3.27848 0
M  V30 9086 C 848.76 4.07374 3.25109 0
M  V30 9087 C 846.088 4.87658 3.26201 0
M  V30 9088 C 848.44 5.42731 3.25002 0
M  V30 9089 C 847.104 5.83027 3.25017 0
M  V30 9090 H 846.374 0.365768 0.644434 0
M  V30 9091 H 849.021 1.48838 1.20497 0
M  V30 9092 H 847.326 1.04974 3.77476 0
M  V30 9093 H 849.023 1.43975 3.74262 0
M  V30 9094 H 845.613 2.78804 3.25525 0
M  V30 9095 H 849.797 3.76842 3.22961 0
M  V30 9096 H 845.053 5.18156 3.24537 0
M  V30 9097 H 849.227 6.16879 3.23161 0
M  V30 9098 H 846.854 6.87936 3.23494 0
M  V30 9099 N 848.429 -1.21819 0.999893 0
M  V30 9100 C 849.84 -1.72517 0.713775 0
M  V30 9101 C 850.191 -1.80505 -0.768922 0
M  V30 9102 O 849.316 -1.45611 -1.60083 0
M  V30 9103 C 849.911 -3.13321 1.28901 0
M  V30 9104 C 848.47 -3.61396 1.05212 0
M  V30 9105 C 847.617 -2.39074 1.40494 0
M  V30 9106 H 850.568 -1.07068 1.17141 0
M  V30 9107 H 850.589 -3.74535 0.671084 0
M  V30 9108 H 850.101 -3.07475 2.36814 0
M  V30 9109 H 848.202 -3.72599 -0.0100732 0
M  V30 9110 H 848.315 -4.47145 1.72042 0
M  V30 9111 H 846.679 -2.41015 0.823642 0
M  V30 9112 H 847.462 -2.35884 2.49427 0
M  V30 9113 N 849.908 -0.773975 -1.37286 0
M  V30 9114 C 850.871 -0.167974 -2.28584 0
M  V30 9115 C 851.871 0.625662 -1.48129 0
M  V30 9116 O 853.061 0.448924 -1.68316 0
M  V30 9117 C 850.193 0.769364 -3.32105 0
M  V30 9118 H 851.386 -0.972806 -2.83684 0
M  V30 9119 H 848.939 -0.542335 -1.46589 0
M  V30 9120 H 849.674 1.59912 -2.82132 0
M  V30 9121 H 849.459 0.202419 -3.91577 0
M  V30 9122 H 850.949 1.18872 -4.00324 0
M  V30 9123 N 851.386 1.48609 -0.524698 0
M  V30 9124 C 852.316 2.32366 0.229837 0
M  V30 9125 C 853.297 1.41759 0.940129 0
M  V30 9126 O 854.482 1.7065 0.926936 0
M  V30 9127 C 851.612 3.22835 1.28043 0
M  V30 9128 C 850.566 4.22424 0.688603 0
M  V30 9129 C 849.892 5.0199 1.84146 0
M  V30 9130 C 851.192 5.21217 -0.336176 0
M  V30 9131 H 852.886 2.95698 -0.469339 0
M  V30 9132 H 850.432 1.42197 -0.227156 0
M  V30 9133 H 852.385 3.80253 1.8162 0
M  V30 9134 H 851.109 2.57492 2.00912 0
M  V30 9135 H 849.768 3.66185 0.174402 0
M  V30 9136 H 849.416 4.33076 2.5584 0
M  V30 9137 H 849.116 5.69392 1.45142 0
M  V30 9138 H 850.64 5.62259 2.38111 0
M  V30 9139 H 852.054 5.7319 0.112307 0
M  V30 9140 H 850.451 5.96642 -0.643324 0
M  V30 9141 H 851.521 4.68676 -1.24381 0
M  V30 9142 N 852.864 0.259585 1.55447 0
M  V30 9143 C 854.112 -0.360893 1.98852 0
M  V30 9144 C 854.433 -1.57535 1.14924 0
M  V30 9145 O 853.703 -1.94485 0.235025 0
M  V30 9146 H 852.283 -0.136332 0.734454 0
M  V30 9147 H 854.945 0.361319 1.91522 0
M  V30 9148 H 854.041 -0.661388 3.05012 0
M  V30 9149 N 854.342 -1.57594 -0.0133615 0
M  V30 9150 C 855.272 -2.10611 -1.00823 0
M  V30 9151 C 856.253 -1.01217 -1.36708 0
M  V30 9152 O 857.438 -1.28827 -1.45318 0
M  V30 9153 C 854.568 -2.59844 -2.30431 0
M  V30 9154 C 853.522 -3.73644 -2.08745 0
M  V30 9155 C 852.848 -4.09141 -3.4425 0
M  V30 9156 C 854.148 -5.01454 -1.46086 0
M  V30 9157 H 855.842 -2.93985 -0.566849 0
M  V30 9158 H 853.388 -1.41423 -0.271219 0
M  V30 9159 H 855.341 -2.95557 -3.00373 0
M  V30 9160 H 854.065 -1.73573 -2.76658 0
M  V30 9161 H 852.724 -3.38303 -1.41232 0
M  V30 9162 H 852.372 -3.19914 -3.88155 0
M  V30 9163 H 852.072 -4.85802 -3.3056 0
M  V30 9164 H 853.596 -4.47402 -4.15528 0
M  V30 9165 H 855.01 -5.35024 -2.05966 0
M  V30 9166 H 853.407 -5.82832 -1.42924 0
M  V30 9167 H 854.477 -4.83003 -0.428471 0
M  V30 9168 N 855.82 0.285905 -1.54985 0
M  V30 9169 C 857.066 1.02071 -1.75241 0
M  V30 9170 C 857.399 1.864 -0.544842 0
M  V30 9171 O 856.674 1.89034 0.457844 0
M  V30 9172 C 856.957 1.91409 -3.05016 0
M  V30 9173 C 856.81 1.10158 -4.36102 0
M  V30 9174 C 858.129 2.90335 -3.30747 0
M  V30 9175 H 855.248 0.369663 -0.637588 0
M  V30 9176 H 857.89 0.294114 -1.8771 0
M  V30 9177 H 856.04 2.53362 -2.94517 0
M  V30 9178 H 857.712 0.503756 -4.58541 0
M  V30 9179 H 855.955 0.404675 -4.31908 0
M  V30 9180 H 856.626 1.75956 -5.23205 0
M  V30 9181 H 859.102 2.38514 -3.40955 0
M  V30 9182 H 857.978 3.49997 -4.2284 0
M  V30 9183 H 858.239 3.64787 -2.49765 0
M  V30 9184 N 857.298 1.47698 0.54982 0
M  V30 9185 C 858.575 1.45185 1.31075 0
M  V30 9186 C 858.955 0.152768 2.10547 0
M  V30 9187 O 858.303 -0.865706 2.11466 0
M  V30 9188 C 858.513 2.70192 2.20902 0
M  V30 9189 C 859.861 3.1771 2.81683 0
M  V30 9190 O 860.885 2.70971 2.312 0
M  V30 9191 O 859.744 3.98986 3.7346 0
M  V30 9192 H 856.838 0.57892 0.590577 0
M  V30 9193 H 859.384 1.59908 0.568112 0
M  V30 9194 H 858.156 3.56269 1.61828 0
M  V30 9195 H 857.779 2.58091 3.02448 0
M  V30 9196 N 858.776 -0.797141 1.35954 0
M  V30 9197 C 860.187 -1.37179 1.26644 0
M  V30 9198 C 860.538 -1.9596 -0.0971046 0
M  V30 9199 O 859.663 -1.91994 -0.998355 0
M  V30 9200 C 860.258 -2.49395 2.2932 0
M  V30 9201 C 858.817 -3.02697 2.23722 0
M  V30 9202 C 857.964 -1.75721 2.14517 0
M  V30 9203 H 860.915 -0.599407 1.46945 0
M  V30 9204 H 860.936 -3.28204 1.92515 0
M  V30 9205 H 860.448 -2.06584 3.2855 0
M  V30 9206 H 858.549 -3.49948 1.27934 0
M  V30 9207 H 858.662 -3.60036 3.16087 0
M  V30 9208 H 857.026 -1.97649 1.60646 0
M  V30 9209 H 857.809 -1.35049 3.15621 0
M  V30 9210 N 860.254 -1.20106 -1.0204 0
M  V30 9211 C 861.67 -0.955099 -1.27867 0
M  V30 9212 C 861.87 0.367595 -1.98119 0
M  V30 9213 O 860.926 1.09705 -2.27423 0
M  V30 9214 C 862.239 -2.13507 -2.11744 0
M  V30 9215 C 863.787 -2.17563 -2.25023 0
M  V30 9216 C 864.262 -3.35035 -3.12275 0
M  V30 9217 N 865.753 -3.35024 -3.19864 0
M  V30 9218 C 866.488 -4.22566 -3.8759 0
M  V30 9219 N 865.984 -5.20278 -4.57474 0
M  V30 9220 N 867.777 -4.10418 -3.84075 0
M  V30 9221 H 859.928 -2.05193 -0.54861 0
M  V30 9222 H 862.191 -0.897689 -0.304728 0
M  V30 9223 H 861.897 -3.09275 -1.67456 0
M  V30 9224 H 861.771 -2.11281 -3.12474 0
M  V30 9225 H 864.158 -1.22359 -2.68537 0
M  V30 9226 H 864.239 -2.23838 -1.23815 0
M  V30 9227 H 863.883 -4.30522 -2.69468 0
M  V30 9228 H 863.813 -3.25996 -4.13563 0
M  V30 9229 H 866.304 -2.64299 -2.701 0
M  V30 9230 H 866.617 -5.83408 -5.06809 0
M  V30 9231 H 864.962 -5.24219 -4.56311 0
M  V30 9232 H 868.153 -3.33353 -3.28623 0
M  V30 9233 H 868.326 -4.78854 -4.36581 0
M  V30 9234 N 861.732 1.21287 -1.00634 0
M  V30 9235 C 863.143 1.72136 -0.722914 0
M  V30 9236 C 863.494 1.8091 0.759338 0
M  V30 9237 O 862.619 1.46458 1.59308 0
M  V30 9238 C 863.214 3.12633 -1.30561 0
M  V30 9239 C 861.773 3.60833 -1.07127 0
M  V30 9240 C 860.92 2.38326 -1.4176 0
M  V30 9241 H 863.871 1.06445 -1.17708 0
M  V30 9242 H 863.892 3.74174 -0.690937 0
M  V30 9243 H 863.404 3.06215 -2.38441 0
M  V30 9244 H 861.505 3.72599 -0.00968671 0
M  V30 9245 H 861.618 4.46226 -1.74411 0
M  V30 9246 H 859.982 2.40575 -0.836412 0
M  V30 9247 H 860.765 2.34558 -2.50674 0
M  V30 9248 N 863.21 0.781244 1.36873 0
M  V30 9249 C 864.456 0.359455 2.00199 0
M  V30 9250 C 864.811 -1.05495 1.60899 0
M  V30 9251 O 864.104 -1.7173 0.849664 0
M  V30 9252 C 864.298 0.45146 3.54537 0
M  V30 9253 C 864.127 1.87326 4.08826 0
M  V30 9254 C 862.897 2.49606 4.39346 0
M  V30 9255 C 865.095 2.8342 4.29159 0
M  V30 9256 N 863.077 3.8346 4.79408 0
M  V30 9257 C 864.448 4.02091 4.71935 0
M  V30 9258 C 866.503 2.80583 4.11312 0
M  V30 9259 C 865.206 5.18322 4.98733 0
M  V30 9260 C 867.232 3.95995 4.39251 0
M  V30 9261 C 866.594 5.13409 4.82276 0
M  V30 9262 H 862.693 0.178778 0.76129 0
M  V30 9263 H 865.277 1.0171 1.66022 0
M  V30 9264 H 863.448 -0.176055 3.88001 0
M  V30 9265 H 865.18 0.00670219 4.04699 0
M  V30 9266 H 861.935 2.01149 4.28761 0
M  V30 9267 H 862.359 4.52306 5.03735 0
M  V30 9268 H 867.001 1.90974 3.77212 0
M  V30 9269 H 864.719 6.08524 5.31718 0
M  V30 9270 H 868.305 3.95152 4.2702 0
M  V30 9271 H 867.185 6.01232 5.03478 0
M  V30 9272 N 864.689 -1.48329 0.532571 0
M  V30 9273 C 865.621 -2.27652 -0.265931 0
M  V30 9274 C 866.634 -1.35522 -0.902083 0
M  V30 9275 O 867.823 -1.60552 -0.780088 0
M  V30 9276 C 864.923 -3.0899 -1.39207 0
M  V30 9277 C 864.096 -4.28915 -0.857349 0
M  V30 9278 C 863.155 -4.92044 -1.86493 0
M  V30 9279 O 862.181 -5.51181 -1.42084 0
M  V30 9280 N 863.383 -4.84518 -3.19723 0
M  V30 9281 H 866.148 -2.96821 0.414389 0
M  V30 9282 H 863.709 -1.57684 0.367066 0
M  V30 9283 H 865.701 -3.48091 -2.06433 0
M  V30 9284 H 864.271 -2.42224 -1.97601 0
M  V30 9285 H 863.491 -3.94199 -0.00901765 0
M  V30 9286 H 864.779 -5.0654 -0.479025 0
M  V30 9287 H 864.177 -4.37628 -3.58467 0
M  V30 9288 H 862.734 -5.27712 -3.82575 0
M  V30 9289 N 866.167 -0.267825 -1.55308 0
M  V30 9290 C 867.097 0.616585 -2.25212 0
M  V30 9291 C 868.078 1.16472 -1.23969 0
M  V30 9292 O 869.263 1.20021 -1.52672 0
M  V30 9293 C 866.393 1.80412 -2.96764 0
M  V30 9294 C 865.347 1.38784 -4.04874 0
M  V30 9295 C 864.673 2.65789 -4.63961 0
M  V30 9296 C 865.973 0.543415 -5.19465 0
M  V30 9297 H 867.667 0.0336257 -2.99381 0
M  V30 9298 H 865.213 0.0147328 -1.43992 0
M  V30 9299 H 867.166 2.42866 -3.44375 0
M  V30 9300 H 865.89 2.4128 -2.20118 0
M  V30 9301 H 864.549 0.786541 -3.58063 0
M  V30 9302 H 864.197 3.24899 -3.83992 0
M  V30 9303 H 863.897 2.38651 -5.36954 0
M  V30 9304 H 865.421 3.29104 -5.14318 0
M  V30 9305 H 866.835 1.07277 -5.63174 0
M  V30 9306 H 865.232 0.367219 -5.98975 0
M  V30 9307 H 866.302 -0.439534 -4.82904 0
M  V30 9308 N 867.645 1.57599 0.00500368 0
M  V30 9309 C 869.056 1.78462 0.54848 0
M  V30 9310 C 869.407 0.901869 1.74243 0
M  V30 9311 O 868.532 0.103014 2.16155 0
M  V30 9312 C 869.127 3.2365 1.00179 0
M  V30 9313 C 867.686 3.45627 1.49061 0
M  V30 9314 C 866.833 2.73794 0.439531 0
M  V30 9315 H 869.784 1.57151 -0.22118 0
M  V30 9316 H 869.805 3.31488 1.86805 0
M  V30 9317 H 869.317 3.87873 0.132607 0
M  V30 9318 H 867.418 2.86612 2.38085 0
M  V30 9319 H 867.531 4.54298 1.52152 0
M  V30 9320 H 865.895 2.38267 0.900043 0
M  V30 9321 H 866.678 3.40714 -0.420599 0
M  V30 9322 N 869.123 -0.277682 1.55134 0
M  V30 9323 C 870.539 -0.624625 1.46869 0
M  V30 9324 C 870.739 -1.89717 0.678958 0
M  V30 9325 O 869.795 -2.51739 0.195939 0
M  V30 9326 C 871.108 -0.755937 2.91043 0
M  V30 9327 C 872.656 -0.850299 3.01229 0
M  V30 9328 C 873.131 -1.01343 4.46647 0
M  V30 9329 N 874.622 -1.07906 4.50456 0
M  V30 9330 C 875.357 -1.224 5.60184 0
M  V30 9331 N 874.853 -1.33642 6.79788 0
M  V30 9332 N 876.646 -1.25473 5.47917 0
M  V30 9333 H 868.797 0.558102 2.04937 0
M  V30 9334 H 871.06 0.188228 0.929125 0
M  V30 9335 H 870.766 0.108593 3.51532 0
M  V30 9336 H 870.64 -1.6377 3.39793 0
M  V30 9337 H 873.027 -1.7053 2.40839 0
M  V30 9338 H 873.108 0.0559681 2.55739 0
M  V30 9339 H 872.752 -0.163102 5.07638 0
M  V30 9340 H 872.682 -1.93427 4.89789 0
M  V30 9341 H 875.173 -1.00477 3.64298 0
M  V30 9342 H 875.486 -1.44522 7.59166 0
M  V30 9343 H 873.831 -1.30655 6.82608 0
M  V30 9344 H 877.022 -1.16317 4.53418 0
M  V30 9345 H 877.195 -1.36424 6.33476 0
M  V30 9346 N 870.601 -1.47988 -0.541979 0
M  V30 9347 C 871.848 -1.55393 -1.29843 0
M  V30 9348 C 872.176 -0.222668 -1.93221 0
M  V30 9349 O 871.431 0.785936 -1.79225 0
M  V30 9350 C 871.73 -2.63189 -2.41798 0
M  V30 9351 C 871.396 -4.05999 -1.96151 0
M  V30 9352 C 870.058 -4.44872 -1.83419 0
M  V30 9353 C 872.41 -4.95545 -1.61507 0
M  V30 9354 C 869.738 -5.71108 -1.34361 0
M  V30 9355 C 872.09 -6.22259 -1.13915 0
M  V30 9356 C 870.754 -6.59998 -0.997911 0
M  V30 9357 H 870.024 -0.568623 -0.47513 0
M  V30 9358 H 872.671 -1.81654 -0.606142 0
M  V30 9359 H 870.976 -2.30743 -3.16647 0
M  V30 9360 H 872.673 -2.66138 -2.99953 0
M  V30 9361 H 869.263 -3.75294 -2.07008 0
M  V30 9362 H 873.447 -4.662 -1.70209 0
M  V30 9363 H 868.703 -5.99083 -1.22103 0
M  V30 9364 H 872.877 -6.91048 -0.861755 0
M  V30 9365 H 870.504 -7.57704 -0.615561 0
M  V30 9366 N 872.079 0.78992 -1.36375 0
M  V30 9367 C 873.011 1.91113 -1.26524 0
M  V30 9368 C 874.024 1.61747 -0.184851 0
M  V30 9369 O 875.213 1.73004 -0.439524 0
M  V30 9370 C 872.313 3.25908 -0.92937 0
M  V30 9371 C 871.486 3.83057 -2.11154 0
M  V30 9372 C 870.545 4.96289 -1.74881 0
M  V30 9373 O 869.571 5.12834 -2.46962 0
M  V30 9374 N 870.773 5.76478 -0.682193 0
M  V30 9375 H 873.538 2.00085 -2.23128 0
M  V30 9376 H 871.099 0.968165 -1.29762 0
M  V30 9377 H 873.091 3.99151 -0.667884 0
M  V30 9378 H 871.661 3.12556 -0.0524843 0
M  V30 9379 H 870.881 3.01808 -2.53586 0
M  V30 9380 H 872.169 4.1797 -2.90135 0
M  V30 9381 H 871.567 5.65638 -0.0836661 0
M  V30 9382 H 870.124 6.50026 -0.480529 0
M  V30 9383 N 873.557 1.20646 1.01402 0
M  V30 9384 C 874.504 0.957618 2.09996 0
M  V30 9385 C 875.474 -0.113115 1.65714 0
M  V30 9386 O 876.659 0.032142 1.90773 0
M  V30 9387 C 873.799 0.5186 3.41181 0
M  V30 9388 C 872.912 1.65777 3.98926 0
M  V30 9389 C 872.047 1.16881 5.18182 0
M  V30 9390 C 871.086 2.2809 5.68015 0
M  V30 9391 N 870.223 1.80392 6.7853 0
M  V30 9392 H 875.063 1.88732 2.30617 0
M  V30 9393 H 872.6 0.940703 1.13089 0
M  V30 9394 H 874.558 0.245367 4.16478 0
M  V30 9395 H 873.188 -0.3741 3.20625 0
M  V30 9396 H 872.24 2.04586 3.207 0
M  V30 9397 H 873.552 2.49507 4.31912 0
M  V30 9398 H 872.706 0.851694 6.00692 0
M  V30 9399 H 871.445 0.301434 4.86768 0
M  V30 9400 H 870.45 2.60614 4.84108 0
M  V30 9401 H 871.675 3.15308 6.01463 0
M  V30 9402 H 869.621 0.959856 6.4894 0
M  V30 9403 H 869.538 2.57701 7.10722 0
M  V30 9404 H 870.806 1.51688 7.64598 0
M  V30 9405 N 875.035 -1.20752 1.01276 0
M  V30 9406 C 875.982 -2.234 0.579732 0
M  V30 9407 C 876.952 -1.61256 -0.398206 0
M  V30 9408 O 878.137 -1.8845 -0.29851 0
M  V30 9409 C 875.277 -3.45008 -0.0797006 0
M  V30 9410 C 874.39 -4.21597 0.942343 0
M  V30 9411 C 873.525 -5.30591 0.254364 0
M  V30 9412 C 872.564 -5.98919 1.26343 0
M  V30 9413 N 871.701 -6.99511 0.602384 0
M  V30 9414 H 876.541 -2.59801 1.45971 0
M  V30 9415 H 874.078 -1.27663 0.730787 0
M  V30 9416 H 876.036 -4.1444 -0.479125 0
M  V30 9417 H 874.666 -3.09312 -0.923354 0
M  V30 9418 H 873.718 -3.51268 1.45996 0
M  V30 9419 H 875.03 -4.68576 1.70992 0
M  V30 9420 H 874.184 -6.06368 -0.200763 0
M  V30 9421 H 872.923 -4.84639 -0.545553 0
M  V30 9422 H 871.928 -5.21906 1.72898 0
M  V30 9423 H 873.153 -6.46957 2.06456 0
M  V30 9424 H 871.099 -6.55759 -0.177734 0
M  V30 9425 H 871.016 -7.44597 1.30809 0
M  V30 9426 H 872.284 -7.79313 0.17072 0
M  V30 9427 N 876.513 -0.788492 -1.36457 0
M  V30 9428 C 877.446 -0.132189 -2.27817 0
M  V30 9429 C 878.424 0.691166 -1.47179 0
M  V30 9430 O 879.608 0.662344 -1.7648 0
M  V30 9431 C 876.735 0.818386 -3.28664 0
M  V30 9432 C 875.781 0.0769392 -4.26431 0
M  V30 9433 S 876.614 -1.24666 -5.20786 0
M  V30 9434 C 877.77 -0.300063 -6.2518 0
M  V30 9435 H 878.003 -0.906824 -2.83132 0
M  V30 9436 H 875.536 -0.582666 -1.42984 0
M  V30 9437 H 877.494 1.36138 -3.87268 0
M  V30 9438 H 876.155 1.56626 -2.72263 0
M  V30 9439 H 875.348 0.79819 -4.97639 0
M  V30 9440 H 874.95 -0.395547 -3.71902 0
M  V30 9441 H 877.242 0.521434 -6.7549 0
M  V30 9442 H 878.185 -0.980808 -7.01274 0
M  V30 9443 H 878.593 0.0961898 -5.64418 0
M  V30 9444 N 877.991 1.48044 -0.54043 0
M  V30 9445 C 879.402 1.86418 -0.102662 0
M  V30 9446 C 879.753 1.4489 1.32293 0
M  V30 9447 O 878.878 0.844319 1.99249 0
M  V30 9448 C 879.473 3.38324 -0.179533 0
M  V30 9449 C 878.032 3.75852 0.203098 0
M  V30 9450 C 877.179 2.72097 -0.534637 0
M  V30 9451 H 880.13 1.398 -0.751103 0
M  V30 9452 H 880.151 3.75641 0.606147 0
M  V30 9453 H 879.663 3.68518 -1.21721 0
M  V30 9454 H 877.764 3.51272 1.24252 0
M  V30 9455 H 877.877 4.78884 -0.143784 0
M  V30 9456 H 876.241 2.54692 0.0203358 0
M  V30 9457 H 877.024 3.05135 -1.57314 0
M  V30 9458 N 879.47 0.276058 1.55163 0
M  V30 9459 C 880.402 -0.644254 2.19959 0
M  V30 9460 C 881.415 -1.11675 1.18459 0
M  V30 9461 O 882.604 -1.0385 1.45181 0
M  V30 9462 C 879.704 -1.89093 2.81242 0
M  V30 9463 C 878.877 -1.56509 4.08441 0
M  V30 9464 C 877.936 -2.66433 4.53762 0
M  V30 9465 O 876.962 -2.32579 5.19515 0
M  V30 9466 N 878.164 -3.96509 4.23982 0
M  V30 9467 H 880.929 -0.0896808 2.99566 0
M  V30 9468 H 878.49 0.0971981 1.61608 0
M  V30 9469 H 880.482 -2.61929 3.08505 0
M  V30 9470 H 879.052 -2.35453 2.05622 0
M  V30 9471 H 878.272 -0.670522 3.88455 0
M  V30 9472 H 879.56 -1.32242 4.91314 0
M  V30 9473 H 878.958 -4.26834 3.71254 0
M  V30 9474 H 877.515 -4.6572 4.56014 0
M  V30 9475 N 880.948 -1.576 0.00335426 0
M  V30 9476 C 882.197 -1.89892 -0.680001 0
M  V30 9477 C 882.51 -0.878731 -1.7475 0
M  V30 9478 O 883.716 -1.09199 -2.48572 0
M  V30 9479 C 882.172 -3.37098 -1.26066 0
M  V30 9480 C 881.78 -4.4742 -0.227807 0
M  V30 9481 C 883.524 -3.78495 -1.92202 0
M  V30 9482 C 881.431 -5.85706 -0.81865 0
M  V30 9483 H 880.361 -0.708578 -0.257746 0
M  V30 9484 H 883.012 -1.83387 0.0644472 0
M  V30 9485 H 881.394 -3.38451 -2.05589 0
M  V30 9486 H 882.568 -4.57589 0.54307 0
M  V30 9487 H 880.883 -4.15064 0.333297 0
M  V30 9488 H 883.48 -4.7915 -2.37318 0
M  V30 9489 H 883.823 -3.12187 -2.75399 0
M  V30 9490 H 884.356 -3.79456 -1.19408 0
M  V30 9491 H 881.095 -6.55495 -0.0253787 0
M  V30 9492 H 880.615 -5.79196 -1.55861 0
M  V30 9493 H 882.294 -6.33469 -1.31627 0
M  V30 9494 N 882.426 0.269451 -1.5528 0
M  V30 9495 C 883.389 1.31642 -1.87625 0
M  V30 9496 C 884.389 1.42182 -0.751058 0
M  V30 9497 O 885.579 1.41272 -1.01921 0
M  V30 9498 C 882.711 2.6973 -2.08467 0
M  V30 9499 H 883.904 1.0419 -2.81219 0
M  V30 9500 H 881.457 0.507685 -1.47825 0
M  V30 9501 H 882.192 3.02356 -1.17266 0
M  V30 9502 H 881.977 2.63465 -2.90394 0
M  V30 9503 H 883.467 3.4537 -2.34753 0
M  V30 9504 N 883.904 1.48273 0.534124 0
M  V30 9505 C 884.851 1.62487 1.6391 0
M  V30 9506 C 885.821 0.467062 1.59398 0
M  V30 9507 O 887.006 0.690029 1.77885 0
M  V30 9508 C 884.146 1.66671 3.02183 0
M  V30 9509 C 883.259 2.9353 3.16961 0
M  V30 9510 C 882.394 2.88902 4.45768 0
M  V30 9511 C 881.433 4.10483 4.54059 0
M  V30 9512 N 880.57 4.03956 5.74251 0
M  V30 9513 H 885.41 2.56851 1.51101 0
M  V30 9514 H 882.947 1.27381 0.735704 0
M  V30 9515 H 884.905 1.67079 3.82283 0
M  V30 9516 H 883.535 0.758011 3.13774 0
M  V30 9517 H 882.587 3.02886 2.3014 0
M  V30 9518 H 883.899 3.83501 3.18949 0
M  V30 9519 H 883.053 2.87688 5.34154 0
M  V30 9520 H 881.792 1.96652 4.46295 0
M  V30 9521 H 880.797 4.11977 3.64081 0
M  V30 9522 H 882.022 5.03887 4.55274 0
M  V30 9523 H 879.968 3.14525 5.75682 0
M  V30 9524 H 879.885 4.87628 5.77715 0
M  V30 9525 H 881.153 4.06795 6.64935 0
M  V30 9526 N 885.382 -0.782676 1.36792 0
M  V30 9527 C 886.329 -1.89558 1.31667 0
M  V30 9528 C 887.299 -1.65076 0.184147 0
M  V30 9529 O 888.484 -1.87143 0.371753 0
M  V30 9530 C 885.624 -3.26469 1.11858 0
M  V30 9531 C 884.737 -3.62978 2.34245 0
M  V30 9532 C 883.872 -4.89041 2.07394 0
M  V30 9533 C 882.911 -5.18249 3.25706 0
M  V30 9534 N 882.048 -6.35497 2.98476 0
M  V30 9535 H 886.888 -1.93274 2.26824 0
M  V30 9536 H 884.425 -0.945057 1.12726 0
M  V30 9537 H 886.383 -4.05431 0.983968 0
M  V30 9538 H 885.013 -3.22158 0.203531 0
M  V30 9539 H 884.065 -2.79087 2.58485 0
M  V30 9540 H 885.377 -3.80507 3.22514 0
M  V30 9541 H 884.531 -5.75883 1.90901 0
M  V30 9542 H 883.27 -4.73594 1.16446 0
M  V30 9543 H 882.275 -4.29887 3.4275 0
M  V30 9544 H 883.5 -5.35611 4.1749 0
M  V30 9545 H 881.446 -6.21429 2.10146 0
M  V30 9546 H 881.363 -6.5339 3.80286 0
M  V30 9547 H 882.631 -7.25304 2.85577 0
M  V30 9548 N 886.86 -1.21182 -1.00761 0
M  V30 9549 C 887.792 -0.926523 -2.09638 0
M  V30 9550 C 888.805 0.0892511 -1.62555 0
M  V30 9551 O 889.994 -0.142915 -1.77927 0
M  V30 9552 C 887.094 -0.369175 -3.36883 0
M  V30 9553 C 886.267 -1.43866 -4.13063 0
M  V30 9554 C 885.326 -0.891015 -5.18601 0
M  V30 9555 O 884.352 -1.57384 -5.47009 0
M  V30 9556 N 885.554 0.295057 -5.7975 0
M  V30 9557 H 888.319 -1.8638 -2.34697 0
M  V30 9558 H 885.88 -1.11671 -1.17223 0
M  V30 9559 H 887.872 0.011534 -4.04698 0
M  V30 9560 H 886.442 0.472861 -3.09003 0
M  V30 9561 H 885.662 -1.99332 -3.40089 0
M  V30 9562 H 886.95 -2.15866 -4.60738 0
M  V30 9563 H 886.348 0.8669 -5.59018 0
M  V30 9564 H 884.905 0.617306 -6.4887 0
M  V30 9565 N 888.338 1.20213 -1.01915 0
M  V30 9566 C 889.563 1.94163 -0.729076 0
M  V30 9567 C 889.988 1.74416 0.704323 0
M  V30 9568 O 889.346 1.0401 1.48498 0
M  V30 9569 C 889.394 3.44258 -1.07324 0
M  V30 9570 O 888.498 4.11979 -0.186367 0
M  V30 9571 H 887.839 0.606506 -0.270272 0
M  V30 9572 H 890.369 1.52571 -1.3632 0
M  V30 9573 H 890.379 3.94888 -1.02603 0
M  V30 9574 H 889.054 3.57954 -2.11759 0
M  V30 9575 H 887.631 3.7176 -0.291334 0
M  V30 9576 N 889.816 0.795718 1.36037 0
M  V30 9577 C 891.044 0.383153 2.03321 0
M  V30 9578 C 891.459 -1.00246 1.59988 0
M  V30 9579 O 890.816 -1.64406 0.792265 0
M  V30 9580 C 890.867 0.444467 3.58757 0
M  V30 9581 O 890.588 1.77544 4.00512 0
M  V30 9582 C 892.089 0.0233291 4.43294 0
M  V30 9583 H 889.309 0.157061 0.652359 0
M  V30 9584 H 891.853 1.07632 1.73884 0
M  V30 9585 H 890.008 -0.200341 3.86882 0
M  V30 9586 H 890.422 1.73065 4.95125 0
M  V30 9587 H 891.896 0.117361 5.51875 0
M  V30 9588 H 892.373 -1.03007 4.2695 0
M  V30 9589 H 892.979 0.64087 4.20444 0
M  V30 9590 N 891.294 -1.47756 0.548274 0
M  V30 9591 C 892.244 -2.26891 -0.224628 0
M  V30 9592 C 893.228 -1.33816 -0.893421 0
M  V30 9593 O 894.42 -1.58232 -0.793204 0
M  V30 9594 C 891.549 -3.19358 -1.25959 0
M  V30 9595 C 890.635 -4.1991 -0.594662 0
M  V30 9596 N 891.026 -5.04721 0.330148 0
M  V30 9597 C 889.324 -4.37832 -0.849672 0
M  V30 9598 C 890.025 -5.77282 0.71553 0
M  V30 9599 N 889.001 -5.43552 0.0723997 0
M  V30 9600 H 892.803 -2.89844 0.486561 0
M  V30 9601 H 890.317 -1.58185 0.367577 0
M  V30 9602 H 892.314 -3.74726 -1.82718 0
M  V30 9603 H 890.974 -2.57961 -1.97196 0
M  V30 9604 H 891.985 -5.13095 0.703811 0
M  V30 9605 H 888.662 -3.87612 -1.55123 0
M  V30 9606 H 890.052 -6.55512 1.47493 0
M  V30 9607 N 892.772 -0.284283 -1.55015 0
M  V30 9608 C 894.188 0.069603 -1.59448 0
M  V30 9609 C 894.388 1.53833 -1.30144 0
M  V30 9610 O 893.444 2.2886 -1.06674 0
M  V30 9611 C 894.757 -0.313287 -2.99064 0
M  V30 9612 C 896.305 -0.260662 -3.11913 0
M  V30 9613 C 896.78 -0.618127 -4.5381 0
M  V30 9614 N 898.271 -0.570026 -4.59679 0
M  V30 9615 C 899.006 -0.8193 -5.67517 0
M  V30 9616 N 898.502 -1.13367 -6.83462 0
M  V30 9617 N 900.295 -0.747482 -5.57108 0
M  V30 9618 H 892.446 -1.24167 -1.72326 0
M  V30 9619 H 894.709 -0.502259 -0.804015 0
M  V30 9620 H 894.415 -1.33509 -3.25374 0
M  V30 9621 H 894.289 0.341369 -3.75652 0
M  V30 9622 H 896.676 0.751869 -2.85361 0
M  V30 9623 H 896.757 -0.949706 -2.37517 0
M  V30 9624 H 896.401 -1.62839 -4.81088 0
M  V30 9625 H 896.331 0.092807 -5.26518 0
M  V30 9626 H 898.822 -0.3373 -3.76392 0
M  V30 9627 H 899.135 -1.3103 -7.61611 0
M  V30 9628 H 897.48 -1.17154 -6.85055 0
M  V30 9629 H 900.671 -0.501658 -4.65404 0
M  V30 9630 H 900.844 -0.945128 -6.4107 0
M  V30 9631 N 894.251 1.57596 -0.0117121 0
M  V30 9632 C 895.479 1.9536 0.681334 0
M  V30 9633 C 895.894 0.887255 1.66653 0
M  V30 9634 O 895.251 -0.132692 1.82017 0
M  V30 9635 C 895.302 3.33165 1.40298 0
M  V30 9636 O 895.023 4.35707 0.45728 0
M  V30 9637 C 896.524 3.85458 2.18946 0
M  V30 9638 H 893.744 0.643826 0.189023 0
M  V30 9639 H 896.288 2.04392 -0.066311 0
M  V30 9640 H 894.443 3.25404 2.10216 0
M  V30 9641 H 894.857 5.15495 0.96773 0
M  V30 9642 H 896.331 4.84275 2.64918 0
M  V30 9643 H 896.808 3.18781 3.02118 0
M  V30 9644 H 897.414 3.96431 1.5402 0
M  V30 9645 N 895.729 -0.261212 1.5542 0
M  V30 9646 C 896.661 -1.34571 1.85535 0
M  V30 9647 C 897.674 -1.44979 0.740612 0
M  V30 9648 O 898.863 -1.46584 1.01859 0
M  V30 9649 C 895.963 -2.7258 2.01378 0
M  V30 9650 C 895.136 -2.84618 3.32131 0
M  V30 9651 C 894.195 -4.03379 3.37893 0
M  V30 9652 O 893.221 -3.93581 4.11197 0
M  V30 9653 N 894.423 -5.15893 2.66148 0
M  V30 9654 H 897.188 -1.09078 2.79145 0
M  V30 9655 H 894.749 -0.451327 1.55482 0
M  V30 9656 H 896.741 -3.50342 2.0259 0
M  V30 9657 H 895.311 -2.90844 1.14579 0
M  V30 9658 H 894.531 -1.93647 3.43358 0
M  V30 9659 H 895.819 -2.896 4.18341 0
M  V30 9660 H 895.217 -5.26743 2.06297 0
M  V30 9661 H 893.774 -5.91842 2.73069 0
M  V30 9662 N 897.207 -1.48554 -0.526253 0
M  V30 9663 C 898.154 -1.63354 -1.63046 0
M  V30 9664 C 899.124 -0.475509 -1.59148 0
M  V30 9665 O 900.309 -0.699453 -1.77517 0
M  V30 9666 C 897.449 -1.68271 -3.01295 0
M  V30 9667 C 896.562 -2.95207 -3.15399 0
M  V30 9668 C 895.697 -2.91262 -4.4423 0
M  V30 9669 C 894.736 -4.12886 -4.51876 0
M  V30 9670 N 893.873 -4.06996 -5.721 0
M  V30 9671 H 898.713 -2.57649 -1.49737 0
M  V30 9672 H 896.25 -1.27769 -0.728938 0
M  V30 9673 H 898.208 -1.69104 -3.81392 0
M  V30 9674 H 896.838 -0.774641 -3.13367 0
M  V30 9675 H 895.89 -3.04102 -2.2853 0
M  V30 9676 H 897.202 -3.85187 -3.1691 0
M  V30 9677 H 896.356 -2.90516 -5.32621 0
M  V30 9678 H 895.095 -1.99016 -4.45246 0
M  V30 9679 H 894.1 -4.13902 -3.61891 0
M  V30 9680 H 895.325 -5.06294 -4.52596 0
M  V30 9681 H 893.271 -3.17573 -5.74006 0
M  V30 9682 H 893.188 -4.90685 -5.75121 0
M  V30 9683 H 894.456 -4.10315 -6.62768 0
M  V30 9684 N 898.685 0.775411 -1.37205 0
M  V30 9685 C 900.096 1.35147 -1.28811 0
M  V30 9686 C 900.447 1.96089 0.0659168 0
M  V30 9687 O 899.572 1.93558 0.967684 0
M  V30 9688 C 900.167 2.45715 -2.33258 0
M  V30 9689 C 898.726 2.99099 -2.2851 0
M  V30 9690 C 897.873 1.72286 -2.17285 0
M  V30 9691 H 900.824 0.575954 -1.4788 0
M  V30 9692 H 900.845 3.251 -1.97712 0
M  V30 9693 H 900.357 2.01331 -3.31795 0
M  V30 9694 H 898.458 3.47868 -1.33485 0
M  V30 9695 H 898.571 3.54962 -3.21774 0
M  V30 9696 H 896.935 1.95068 -1.6377 0
M  V30 9697 H 897.718 1.3001 -3.1773 0
M  V30 9698 N 900.163 1.21714 1.00117 0
M  V30 9699 C 901.11 0.979837 2.08968 0
M  V30 9700 C 902.08 -0.0955324 1.65825 0
M  V30 9701 O 903.265 0.0523742 1.90728 0
M  V30 9702 C 900.405 0.554758 3.40612 0
M  V30 9703 C 899.518 1.69999 3.97145 0
M  V30 9704 C 898.653 1.2237 5.16913 0
M  V30 9705 C 897.692 2.34101 5.65564 0
M  V30 9706 N 896.829 1.87579 6.76579 0
M  V30 9707 H 901.669 1.91167 2.28602 0
M  V30 9708 H 899.206 0.952645 1.12085 0
M  V30 9709 H 901.164 0.289526 4.16194 0
M  V30 9710 H 899.794 -0.340073 3.21004 0
M  V30 9711 H 898.846 2.07976 3.18512 0
M  V30 9712 H 900.158 2.54074 4.29241 0
M  V30 9713 H 899.312 0.915358 5.99755 0
M  V30 9714 H 898.051 0.353045 4.8642 0
M  V30 9715 H 897.056 2.65734 4.81316 0
M  V30 9716 H 898.281 3.21669 5.98085 0
M  V30 9717 H 896.227 1.02863 6.47885 0
M  V30 9718 H 896.144 2.65225 7.07949 0
M  V30 9719 H 897.412 1.5979 7.62947 0
M  V30 9720 N 901.641 -1.19671 1.02551 0
M  V30 9721 C 902.588 -2.22773 0.603394 0
M  V30 9722 C 903.558 -1.61669 -0.381081 0
M  V30 9723 O 904.743 -1.88756 -0.278505 0
M  V30 9724 C 901.883 -3.45073 -0.0431034 0
M  V30 9725 C 900.996 -4.20574 0.987006 0
M  V30 9726 C 900.131 -5.30291 0.310626 0
M  V30 9727 C 899.17 -5.97545 1.32688 0
M  V30 9728 N 898.307 -6.98833 0.676542 0
M  V30 9729 H 903.147 -2.58238 1.48719 0
M  V30 9730 H 900.684 -1.26881 0.744286 0
M  V30 9731 H 902.642 -4.14925 -0.435141 0
M  V30 9732 H 901.272 -3.10274 -0.890495 0
M  V30 9733 H 900.324 -3.497 1.49713 0
M  V30 9734 H 901.636 -4.66736 1.75952 0
M  V30 9735 H 900.79 -6.06547 -0.136438 0
M  V30 9736 H 899.529 -4.8519 -0.49412 0
M  V30 9737 H 898.534 -5.20043 1.78424 0
M  V30 9738 H 899.759 -6.4473 2.13306 0
M  V30 9739 H 897.705 -6.55911 -0.108172 0
M  V30 9740 H 897.622 -7.43168 1.38699 0
M  V30 9741 H 898.89 -7.79088 0.253367 0
M  V30 9742 N 903.119 -0.802921 -1.35613 0
M  V30 9743 C 904.051 -0.168461 -2.2858 0
M  V30 9744 C 905.064 0.630123 -1.50111 0
M  V30 9745 O 906.253 0.463086 -1.72388 0
M  V30 9746 C 903.353 0.783943 -3.29708 0
M  V30 9747 C 902.526 0.0325165 -4.37388 0
M  V30 9748 C 901.585 0.902859 -5.18396 0
M  V30 9749 O 900.611 0.355144 -5.68091 0
M  V30 9750 N 901.813 2.22542 -5.36149 0
M  V30 9751 H 904.578 -0.96709 -2.83668 0
M  V30 9752 H 902.139 -0.658043 -1.47924 0
M  V30 9753 H 904.131 1.37034 -3.80794 0
M  V30 9754 H 902.701 1.48339 -2.75162 0
M  V30 9755 H 901.921 -0.735057 -3.87286 0
M  V30 9756 H 903.209 -0.485499 -5.06478 0
M  V30 9757 H 902.607 2.69439 -4.97412 0
M  V30 9758 H 901.164 2.76113 -5.90428 0
M  V30 9759 N 904.597 1.47463 -0.556102 0
M  V30 9760 C 905.822 2.07371 -0.0344729 0
M  V30 9761 C 906.247 1.40621 1.2493 0
M  V30 9762 O 905.605 0.48082 1.74808 0
M  V30 9763 C 905.653 3.60306 0.145563 0
M  V30 9764 O 904.757 3.94299 1.20839 0
M  V30 9765 H 904.098 0.662052 -0.0508274 0
M  V30 9766 H 906.628 1.89498 -0.771469 0
M  V30 9767 H 906.638 4.06408 0.360112 0
M  V30 9768 H 905.313 4.08288 -0.792089 0
M  V30 9769 H 903.89 3.59944 0.97442 0
M  V30 9770 N 906.075 0.2925 1.54862 0
M  V30 9771 C 907.322 -0.319263 1.99967 0
M  V30 9772 C 907.65 -1.54547 1.18092 0
M  V30 9773 O 906.905 -1.94186 0.242969 0
M  V30 9774 C 907.204 -0.728674 3.49893 0
M  V30 9775 C 906.87 0.394836 4.49168 0
M  V30 9776 C 905.532 0.703289 4.76033 0
M  V30 9777 C 907.884 1.15103 5.08331 0
M  V30 9778 C 905.212 1.77121 5.59325 0
M  V30 9779 C 907.564 2.20881 5.92785 0
M  V30 9780 C 906.228 2.52342 6.17964 0
M  V30 9781 H 905.498 -0.116827 0.731733 0
M  V30 9782 H 908.145 0.40983 1.87063 0
M  V30 9783 H 906.45 -1.53772 3.60363 0
M  V30 9784 H 908.147 -1.21305 3.82212 0
M  V30 9785 H 904.737 0.144319 4.28357 0
M  V30 9786 H 908.921 0.92599 4.87585 0
M  V30 9787 H 904.177 2.01978 5.77074 0
M  V30 9788 H 908.351 2.79939 6.37657 0
M  V30 9789 H 905.978 3.35225 6.82296 0
M  V30 9790 N 907.553 -1.57587 0.0200696 0
M  V30 9791 C 908.964 -1.79312 -0.520019 0
M  V30 9792 C 909.315 -0.929475 -1.72787 0
M  V30 9793 O 908.44 -0.137389 -2.15963 0
M  V30 9794 C 909.035 -3.25203 -0.950172 0
M  V30 9795 C 907.594 -3.47954 -1.43543 0
M  V30 9796 C 906.741 -2.74459 -0.395917 0
M  V30 9797 H 909.692 -1.56779 0.246153 0
M  V30 9798 H 909.713 -3.34418 -1.81508 0
M  V30 9799 H 909.225 -3.88035 -0.070883 0
M  V30 9800 H 907.326 -2.90363 -2.33495 0
M  V30 9801 H 907.439 -4.56661 -1.44905 0
M  V30 9802 H 905.803 -2.39669 -0.862022 0
M  V30 9803 H 906.586 -3.40001 0.47475 0
M  V30 9804 N 909.032 0.252966 -1.55557 0
M  V30 9805 C 910.272 0.989276 -1.78865 0
M  V30 9806 C 910.636 1.82755 -0.588615 0
M  V30 9807 O 911.837 2.59516 -0.700347 0
M  V30 9808 C 910.108 1.83203 -3.06874 0
M  V30 9809 S 911.667 2.62826 -3.5138 0
M  V30 9810 H 908.485 0.332863 -0.62827 0
M  V30 9811 H 911.087 0.257716 -1.93794 0
M  V30 9812 H 909.791 1.20579 -3.92287 0
M  V30 9813 H 909.322 2.60644 -2.94666 0
M  V30 9814 H 911.337 3.85648 -3.12234 0
M  V30 9815 N 910.51 1.48831 0.518367 0
M  V30 9816 C 911.759 1.5669 1.27008 0
M  V30 9817 C 912.072 0.250934 1.93984 0
M  V30 9818 O 913.278 0.207884 2.70703 0
M  V30 9819 C 911.734 2.76387 2.30517 0
M  V30 9820 C 911.342 4.14673 1.69559 0
M  V30 9821 C 913.086 2.93566 3.06625 0
M  V30 9822 C 910.993 5.25616 2.71076 0
M  V30 9823 H 909.923 0.583362 0.477708 0
M  V30 9824 H 912.574 1.75187 0.546052 0
M  V30 9825 H 910.956 2.51348 3.06006 0
M  V30 9826 H 912.13 4.49779 1.00179 0
M  V30 9827 H 910.445 4.02708 1.05902 0
M  V30 9828 H 913.042 3.7362 3.82508 0
M  V30 9829 H 913.385 2.03462 3.63193 0
M  V30 9830 H 913.918 3.18562 2.38251 0
M  V30 9831 H 910.657 6.17723 2.19313 0
M  V30 9832 H 910.177 4.94985 3.38748 0
M  V30 9833 H 911.856 5.5422 3.3384 0
M  V30 9834 N 911.988 -0.768124 1.37614 0
M  V30 9835 C 913.228 -1.53979 1.34424 0
M  V30 9836 C 913.592 -1.91874 -0.0696803 0
M  V30 9837 O 914.793 -2.67845 -0.22633 0
M  V30 9838 C 913.064 -2.76845 2.26034 0
M  V30 9839 S 914.623 -3.66871 2.4073 0
M  V30 9840 H 911.441 -0.527108 0.477157 0
M  V30 9841 H 914.043 -0.902945 1.73399 0
M  V30 9842 H 912.747 -2.47091 3.2768 0
M  V30 9843 H 912.278 -3.45486 1.88157 0
M  V30 9844 H 914.293 -4.6899 1.62057 0
M  V30 9845 N 913.466 -1.22244 -0.994698 0
M  V30 9846 C 914.413 -0.990906 -2.08446 0
M  V30 9847 C 915.383 0.086737 -1.65873 0
M  V30 9848 O 916.568 -0.0624882 -1.90698 0
M  V30 9849 C 913.708 -0.572813 -3.40313 0
M  V30 9850 C 912.821 -1.72103 -3.96238 0
M  V30 9851 C 911.956 -1.2511 -5.16257 0
M  V30 9852 C 910.995 -2.37098 -5.64315 0
M  V30 9853 N 910.132 -1.91164 -6.75574 0
M  V30 9854 H 914.972 -1.92377 -2.27585 0
M  V30 9855 H 912.509 -0.958576 -1.11578 0
M  V30 9856 H 914.467 -0.311594 -4.16035 0
M  V30 9857 H 913.097 0.323044 -3.21179 0
M  V30 9858 H 912.149 -2.09662 -3.17405 0
M  V30 9859 H 913.461 -2.56347 -4.27888 0
M  V30 9860 H 912.615 -0.947152 -5.99261 0
M  V30 9861 H 911.354 -0.378836 -4.86226 0
M  V30 9862 H 910.359 -2.68283 -4.799 0
M  V30 9863 H 911.584 -3.24837 -5.96371 0
M  V30 9864 H 909.53 -1.06298 -6.47331 0
M  V30 9865 H 909.447 -2.68975 -7.06533 0
M  V30 9866 H 910.715 -1.63833 -7.62088 0
M  V30 9867 N 914.944 1.19125 -1.03184 0
M  V30 9868 C 915.892 2.24492 -0.608781 0
M  V30 9869 C 916.886 1.65529 0.360065 0
M  V30 9870 O 918.092 1.78546 0.22832 0
M  V30 9871 H 914.467 0.73048 -0.178616 0
M  V30 9872 H 916.438 2.5749 -1.50803 0
M  V30 9873 C 915.187 3.47693 0.0215126 0
M  V30 9874 H 914.51 3.93354 -0.715024 0
M  V30 9875 H 915.95 4.23072 0.280429 0
M  V30 9876 C 914.409 3.12088 1.26896 0
M  V30 9877 O 914.939 3.25013 2.36071 0
M  V30 9878 N 913.145 2.66494 1.15886 0
M  V30 9879 H 912.692 2.56176 0.270463 0
M  V30 9880 H 912.65 2.43042 1.99444 0
M  V30 9881 N 916.422 0.810101 1.35185 0
M  V30 9882 C 917.833 0.452616 1.81131 0
M  V30 9883 C 918.184 -1.02573 1.67252 0
M  V30 9884 O 917.309 -1.79735 1.20516 0
M  V30 9885 C 917.904 0.814775 3.28857 0
M  V30 9886 C 916.463 0.509839 3.72931 0
M  V30 9887 C 915.61 1.03852 2.57119 0
M  V30 9888 H 918.561 1.00143 1.23114 0
M  V30 9889 H 918.582 0.113635 3.8033 0
M  V30 9890 H 918.094 1.89078 3.38926 0
M  V30 9891 H 916.195 -0.557289 3.68409 0
M  V30 9892 H 916.308 1.04493 4.67566 0
M  V30 9893 H 914.672 0.460671 2.50499 0
M  V30 9894 H 915.455 2.12071 2.69964 0
M  V30 9895 N 917.9 -1.47166 0.563914 0
M  V30 9896 C 919.148 -2.02056 0.0422873 0
M  V30 9897 C 919.469 -1.43992 -1.31497 0
M  V30 9898 O 918.739 -0.617578 -1.85911 0
M  V30 9899 H 917.319 -0.746893 0.0126427 0
M  V30 9900 H 919.981 -1.80492 0.735441 0
M  V30 9901 H 919.077 -3.12073 -0.0408044 0
M  V30 9902 N 919.378 -0.300708 -1.54705 0
M  V30 9903 C 920.606 0.31127 -2.04545 0
M  V30 9904 C 921.021 1.47542 -1.178 0
M  V30 9905 O 920.378 1.81361 -0.203571 0
M  V30 9906 C 920.429 0.767783 -3.53253 0
M  V30 9907 O 920.15 -0.350027 -4.36699 0
M  V30 9908 C 921.651 1.44494 -4.1909 0
M  V30 9909 H 918.871 0.067668 -0.667579 0
M  V30 9910 H 921.415 -0.440254 -1.99705 0
M  V30 9911 H 919.57 1.46933 -3.58454 0
M  V30 9912 H 919.984 0.00534038 -5.245 0
M  V30 9913 H 921.458 1.71553 -5.24665 0
M  V30 9914 H 921.935 2.3849 -3.68808 0
M  V30 9915 H 922.541 0.786581 -4.17963 0
M  V30 9916 N 920.856 1.57574 -0.0284266 0
M  V30 9917 C 921.788 2.07079 0.982391 0
M  V30 9918 C 922.801 0.994078 1.28926 0
M  V30 9919 O 923.99 1.27028 1.25404 0
M  V30 9920 C 921.09 2.47978 2.30998 0
M  V30 9921 C 920.263 3.7872 2.18838 0
M  V30 9922 C 919.322 4.06177 3.34524 0
M  V30 9923 O 918.348 4.76438 3.11441 0
M  V30 9924 N 919.55 3.56297 4.58293 0
M  V30 9925 H 922.315 2.94421 0.560011 0
M  V30 9926 H 919.876 1.61124 0.158347 0
M  V30 9927 H 921.868 2.63439 3.07216 0
M  V30 9928 H 920.438 1.66005 2.64879 0
M  V30 9929 H 919.658 3.73062 1.27351 0
M  V30 9930 H 920.946 4.6438 2.07915 0
M  V30 9931 H 920.344 2.99453 4.79942 0
M  V30 9932 H 918.901 3.77038 5.31682 0
M  V30 9933 N 922.334 -0.244713 1.55689 0
M  V30 9934 C 923.281 -1.30301 1.905 0
M  V30 9935 C 924.251 -1.4772 0.759478 0
M  V30 9936 O 925.436 -1.61667 1.01333 0
M  V30 9937 C 922.576 -2.653 2.20703 0
M  V30 9938 C 921.689 -2.55872 3.48071 0
M  V30 9939 C 920.824 -3.83238 3.67834 0
M  V30 9940 C 919.863 -3.68436 4.88796 0
M  V30 9941 N 919 -4.877 5.05068 0
M  V30 9942 H 923.84 -0.999143 2.80751 0
M  V30 9943 H 921.377 -0.482099 1.38976 0
M  V30 9944 H 923.335 -3.43884 2.36219 0
M  V30 9945 H 921.965 -2.93831 1.33653 0
M  V30 9946 H 921.017 -1.68846 3.40874 0
M  V30 9947 H 922.329 -2.40845 4.36801 0
M  V30 9948 H 921.483 -4.70266 3.83321 0
M  V30 9949 H 920.222 -4.01165 2.77341 0
M  V30 9950 H 919.227 -2.79793 4.73282 0
M  V30 9951 H 920.452 -3.52003 5.8075 0
M  V30 9952 H 918.398 -5.05983 4.17513 0
M  V30 9953 H 918.315 -4.75312 5.8789 0
M  V30 9954 H 919.583 -5.76219 5.24969 0
M  V30 9955 N 923.813 -1.49104 -0.510467 0
M  V30 9956 C 925.038 -1.62068 -1.29417 0
M  V30 9957 C 925.463 -0.288432 -1.85875 0
M  V30 9958 O 924.821 0.742667 -1.65391 0
M  V30 9959 C 924.869 -2.68506 -2.40701 0
M  V30 9960 O 923.973 -2.27021 -3.4429 0
M  V30 9961 H 923.314 -0.542778 -0.382476 0
M  V30 9962 H 925.844 -1.95228 -0.612154 0
M  V30 9963 H 925.854 -2.90383 -2.86604 0
M  V30 9964 H 924.529 -3.65216 -1.98973 0
M  V30 9965 H 923.106 -2.15436 -3.04371 0
M  V30 9966 N 925.291 0.760815 -1.38019 0
M  V30 9967 C 926.531 1.53264 -1.35239 0
M  V30 9968 C 926.895 1.91908 0.0595038 0
M  V30 9969 O 928.096 2.67962 0.212122 0
M  V30 9970 C 926.367 2.75643 -2.27499 0
M  V30 9971 S 927.926 3.6559 -2.42672 0
M  V30 9972 H 924.744 0.52457 -0.479945 0
M  V30 9973 H 927.346 0.893737 -1.73875 0
M  V30 9974 H 926.05 2.4535 -3.28986 0
M  V30 9975 H 925.581 3.44483 -1.89987 0
M  V30 9976 H 927.596 4.68124 -1.64542 0
M  V30 9977 N 926.769 1.22769 0.988202 0
M  V30 9978 C 928.015 1.05665 1.73097 0
M  V30 9979 C 928.348 -0.406615 1.89895 0
M  V30 9980 O 927.623 -1.30132 1.44554 0
M  V30 9981 C 927.906 1.77381 3.13382 0
M  V30 9982 C 927.759 3.31332 3.04203 0
M  V30 9983 C 929.078 1.52999 4.12649 0
M  V30 9984 H 926.197 0.385258 0.628288 0
M  V30 9985 H 928.839 1.51171 1.15097 0
M  V30 9986 H 926.989 1.38696 3.62899 0
M  V30 9987 H 928.661 3.79489 2.6227 0
M  V30 9988 H 926.904 3.60767 2.40894 0
M  V30 9989 H 927.575 3.76692 4.03493 0
M  V30 9990 H 930.051 1.86611 3.71908 0
M  V30 9991 H 928.927 2.05666 5.08913 0
M  V30 9992 H 929.188 0.463615 4.39662 0
M  V30 9993 N 928.247 -1.18576 1.03814 0
M  V30 9994 C 929.658 -1.70159 0.768299 0
M  V30 9995 C 930.009 -1.8286 -0.711106 0
M  V30 9996 O 929.134 -1.5063 -1.55369 0
M  V30 9997 C 929.729 -3.09062 1.38804 0
M  V30 9998 C 928.288 -3.57866 1.16656 0
M  V30 9999 C 927.435 -2.34484 1.48029 0
M  V30 10000 H 930.386 -1.03287 1.20488 0
M  V30 10001 H 930.407 -3.72211 0.7899 0
M  V30 10002 H 929.919 -2.99785 2.46476 0
M  V30 10003 H 928.02 -3.72442 0.108471 0
M  V30 10004 H 928.133 -4.41445 1.8618 0
M  V30 10005 H 926.497 -2.38273 0.899902 0
M  V30 10006 H 927.28 -2.27829 2.56805 0
M  V30 10007 N 929.725 -0.817259 -1.34754 0
M  V30 10008 C 930.655 -0.249769 -2.3216 0
M  V30 10009 C 931.636 0.630663 -1.57977 0
M  V30 10010 O 932.821 0.558719 -1.85989 0
M  V30 10011 C 929.951 0.593825 -3.42186 0
M  V30 10012 C 928.905 -0.188997 -4.27583 0
M  V30 10013 C 928.231 0.776979 -5.29025 0
M  V30 10014 C 929.531 -1.39401 -5.03354 0
M  V30 10015 H 931.225 -1.06359 -2.79872 0
M  V30 10016 H 928.771 -0.512894 -1.34556 0
M  V30 10017 H 930.724 1.00097 -4.09339 0
M  V30 10018 H 929.448 1.44064 -2.93109 0
M  V30 10019 H 928.107 -0.577445 -3.62024 0
M  V30 10020 H 927.755 1.61959 -4.76212 0
M  V30 10021 H 927.455 0.257448 -5.87036 0
M  V30 10022 H 928.979 1.18211 -5.99048 0
M  V30 10023 H 930.393 -1.06117 -5.63393 0
M  V30 10024 H 928.79 -1.84878 -5.70912 0
M  V30 10025 H 929.86 -2.17515 -4.33377 0
M  V30 10026 N 931.203 1.46865 -0.571711 0
M  V30 10027 C 932.428 2.07323 -0.0564655 0
M  V30 10028 C 932.853 1.41938 1.23431 0
M  V30 10029 O 932.211 0.499334 1.74288 0
M  V30 10030 C 932.259 3.6044 0.107339 0
M  V30 10031 O 931.363 3.95558 1.1665 0
M  V30 10032 H 930.704 0.661475 -0.0578465 0
M  V30 10033 H 933.234 1.88669 -0.791524 0
M  V30 10034 H 933.244 4.06767 0.316987 0
M  V30 10035 H 931.919 4.07425 -0.835348 0
M  V30 10036 H 930.496 3.60957 0.936189 0
M  V30 10037 N 932.681 0.308908 1.54543 0
M  V30 10038 C 933.927 -0.298478 2.00592 0
M  V30 10039 C 934.26 -1.52929 1.19692 0
M  V30 10040 O 933.535 -1.9254 0.27542 0
M  V30 10041 C 933.818 -0.647218 3.54236 0
M  V30 10042 C 933.671 0.593284 4.4587 0
M  V30 10043 C 934.99 -1.47064 4.14801 0
M  V30 10044 H 932.109 -0.107012 0.72919 0
M  V30 10045 H 934.751 0.422578 1.85241 0
M  V30 10046 H 932.901 -1.26153 3.67447 0
M  V30 10047 H 934.573 1.2317 4.44552 0
M  V30 10048 H 932.816 1.22501 4.16144 0
M  V30 10049 H 933.487 0.305018 5.51157 0
M  V30 10050 H 935.963 -0.951511 4.05075 0
M  V30 10051 H 934.839 -1.68343 5.22448 0
M  V30 10052 H 935.1 -2.4623 3.67183 0
M  V30 10053 N 934.159 -1.57557 0.0367827 0
M  V30 10054 C 935.091 -2.07597 -0.971395 0
M  V30 10055 C 936.104 -1.0009 -1.28397 0
M  V30 10056 O 937.293 -1.27692 -1.24728 0
M  V30 10057 C 934.393 -2.492 -2.2968 0
M  V30 10058 C 933.566 -3.79875 -2.16826 0
M  V30 10059 C 932.625 -4.07946 -3.32366 0
M  V30 10060 O 931.651 -4.78083 -3.0891 0
M  V30 10061 N 932.853 -3.58722 -4.56397 0
M  V30 10062 H 935.618 -2.94714 -0.544389 0
M  V30 10063 H 933.179 -1.61205 -0.1498 0
M  V30 10064 H 935.171 -2.65065 -3.05815 0
M  V30 10065 H 933.741 -1.67407 -2.63995 0
M  V30 10066 H 932.961 -3.73732 -1.2537 0
M  V30 10067 H 934.249 -4.65476 -2.0545 0
M  V30 10068 H 933.647 -3.01994 -4.78347 0
M  V30 10069 H 932.204 -3.79852 -5.29675 0
M  V30 10070 N 935.637 0.236453 -1.55816 0
M  V30 10071 C 937.048 0.80468 -1.68469 0
M  V30 10072 C 937.399 1.85601 -0.636133 0
M  V30 10073 O 936.524 2.15323 0.215622 0
M  V30 10074 C 937.119 1.46634 -3.05424 0
M  V30 10075 C 935.678 1.98214 -3.19981 0
M  V30 10076 C 934.825 0.83695 -2.64368 0
M  V30 10077 H 937.776 0.0120647 -1.58695 0
M  V30 10078 H 937.797 2.33472 -3.00451 0
M  V30 10079 H 937.309 0.700931 -3.81718 0
M  V30 10080 H 935.41 2.77604 -2.4853 0
M  V30 10081 H 935.523 2.17235 -4.2702 0
M  V30 10082 H 933.887 1.24028 -2.22462 0
M  V30 10083 H 934.67 0.084451 -3.43196 0
M  V30 10084 N 937.115 1.49373 0.502552 0
M  V30 10085 C 938.343 1.62488 1.28084 0
M  V30 10086 C 938.758 0.295667 1.86471 0
M  V30 10087 O 938.115 -0.718664 1.67754 0
M  V30 10088 C 938.166 2.69249 2.4122 0
M  V30 10089 O 937.887 3.97014 1.85234 0
M  V30 10090 C 939.388 2.93054 3.32617 0
M  V30 10091 H 936.608 0.547068 0.388533 0
M  V30 10092 H 939.152 1.95394 0.603452 0
M  V30 10093 H 937.307 2.39125 3.04792 0
M  V30 10094 H 937.721 4.55809 2.59496 0
M  V30 10095 H 939.195 3.71493 4.08285 0
M  V30 10096 H 939.672 2.02911 3.89517 0
M  V30 10097 H 940.278 3.24589 2.74813 0
M  V30 10098 N 938.594 -0.753485 1.38421 0
M  V30 10099 C 939.504 -1.89797 1.37892 0
M  V30 10100 C 940.52 -1.71797 0.276023 0
M  V30 10101 O 941.696 -1.94718 0.514464 0
M  V30 10102 C 938.761 -3.25166 1.20284 0
M  V30 10103 C 937.822 -3.55691 2.4038 0
M  V30 10104 C 937.055 -4.84601 2.23602 0
M  V30 10105 O 937.278 -5.56985 1.22979 0
M  V30 10106 O 936.212 -5.14605 3.12194 0
M  V30 10107 H 940.038 -1.93197 2.34326 0
M  V30 10108 H 937.623 -0.898775 1.19342 0
M  V30 10109 H 939.505 -4.06099 1.12525 0
M  V30 10110 H 938.18 -3.22577 0.269352 0
M  V30 10111 H 937.087 -2.74919 2.53714 0
M  V30 10112 H 938.42 -3.6304 3.32359 0
M  V30 10113 N 940.072 -1.23292 -0.981677 0
M  V30 10114 C 941.483 -1.05936 -1.53735 0
M  V30 10115 C 941.834 0.373695 -1.92608 0
M  V30 10116 O 940.959 1.26024 -1.75917 0
M  V30 10117 C 941.554 -1.91682 -2.79363 0
M  V30 10118 C 940.113 -1.78591 -3.31334 0
M  V30 10119 C 939.26 -1.87463 -2.04335 0
M  V30 10120 H 942.211 -1.36973 -0.801505 0
M  V30 10121 H 942.232 -1.44085 -3.52164 0
M  V30 10122 H 941.744 -2.95975 -2.51039 0
M  V30 10123 H 939.845 -0.770755 -3.64541 0
M  V30 10124 H 939.958 -2.61902 -4.01179 0
M  V30 10125 H 938.322 -1.3103 -2.18411 0
M  V30 10126 H 939.105 -2.9331 -1.78394 0
M  V30 10127 N 941.55 1.18024 -1.04442 0
M  V30 10128 C 942.966 1.40107 -0.76435 0
M  V30 10129 C 943.166 1.90914 0.644516 0
M  V30 10130 O 942.222 2.0959 1.40813 0
M  V30 10131 C 943.535 2.39851 -1.81361 0
M  V30 10132 C 945.083 2.53571 -1.83496 0
M  V30 10133 C 945.558 3.56583 -2.87424 0
M  V30 10134 N 947.049 3.64094 -2.86339 0
M  V30 10135 C 947.784 4.43537 -3.63405 0
M  V30 10136 N 947.28 5.26557 -4.50233 0
M  V30 10137 N 949.073 4.38336 -3.51877 0
M  V30 10138 H 941.224 0.833726 -1.95353 0
M  V30 10139 H 943.487 0.42881 -0.845474 0
M  V30 10140 H 943.193 2.09576 -2.82438 0
M  V30 10141 H 943.067 3.39251 -1.6489 0
M  V30 10142 H 945.454 2.83161 -0.830883 0
M  V30 10143 H 945.535 1.54272 -2.04044 0
M  V30 10144 H 945.179 3.27733 -3.88012 0
M  V30 10145 H 945.109 4.55569 -2.6413 0
M  V30 10146 H 947.6 3.04814 -2.23376 0
M  V30 10147 H 947.913 5.84336 -5.05738 0
M  V30 10148 H 946.258 5.25964 -4.54298 0
M  V30 10149 H 949.449 3.72528 -2.83444 0
M  V30 10150 H 949.622 5.00007 -4.12186 0
M  V30 10151 N 943.028 0.824394 1.34319 0
M  V30 10152 C 943.958 0.262077 2.32025 0
M  V30 10153 C 944.939 -0.622277 1.58309 0
M  V30 10154 O 946.124 -0.548848 1.86283 0
M  V30 10155 C 943.254 -0.57567 3.42496 0
M  V30 10156 C 942.208 0.21167 4.27476 0
M  V30 10157 C 941.534 -0.748913 5.29429 0
M  V30 10158 C 942.834 1.42068 5.02607 0
M  V30 10159 H 944.528 1.07842 2.79304 0
M  V30 10160 H 942.074 0.520022 1.34282 0
M  V30 10161 H 944.027 -0.979251 4.09864 0
M  V30 10162 H 942.751 -1.42508 2.93869 0
M  V30 10163 H 941.41 0.596636 3.61712 0
M  V30 10164 H 941.058 -1.59432 4.77064 0
M  V30 10165 H 940.758 -0.226313 5.87164 0
M  V30 10166 H 942.282 -1.15032 5.99667 0
M  V30 10167 H 943.696 1.09103 5.62823 0
M  V30 10168 H 942.093 1.87903 5.69923 0
M  V30 10169 H 943.163 2.1981 4.32217 0
M  V30 10170 N 944.506 -1.46559 0.579492 0
M  V30 10171 C 945.454 -2.3199 -0.168413 0
M  V30 10172 C 946.448 -1.44288 -0.887551 0
M  V30 10173 O 947.654 -1.60931 -0.806305 0
M  V30 10174 H 944.029 -0.748431 -0.0731799 0
M  V30 10175 H 946 -2.92886 0.570973 0
M  V30 10176 C 944.749 -3.27392 -1.1709 0
M  V30 10177 H 944.072 -3.94853 -0.626958 0
M  V30 10178 H 945.512 -3.89955 -1.66467 0
M  V30 10179 C 943.971 -2.52511 -2.23024 0
M  V30 10180 O 944.501 -2.2858 -3.30324 0
M  V30 10181 N 942.707 -2.1313 -1.97545 0
M  V30 10182 H 942.254 -2.32793 -1.10297 0
M  V30 10183 H 942.212 -1.63348 -2.68635 0
M  V30 10184 N 945.984 -0.3171 -1.54377 0
M  V30 10185 C 947.214 0.289138 -2.04567 0
M  V30 10186 C 947.622 1.46833 -1.19318 0
M  V30 10187 O 946.965 1.82436 -0.215141 0
M  V30 10188 C 947.027 0.792994 -3.50645 0
M  V30 10189 C 946.691 -0.263033 -4.56242 0
M  V30 10190 C 947.688 -1.09694 -5.08196 0
M  V30 10191 C 945.373 -0.409364 -5.00629 0
M  V30 10192 C 947.367 -2.06297 -6.03092 0
M  V30 10193 C 945.054 -1.37882 -5.95342 0
M  V30 10194 C 946.052 -2.20409 -6.46459 0
M  V30 10195 O 945.74 -3.15708 -7.39313 0
M  V30 10196 H 945.472 0.0644005 -0.672925 0
M  V30 10197 H 948.026 -0.459438 -2.00196 0
M  V30 10198 H 946.256 1.59237 -3.52392 0
M  V30 10199 H 947.945 1.31687 -3.83944 0
M  V30 10200 H 948.711 -0.994842 -4.74687 0
M  V30 10201 H 944.59 0.223091 -4.6046 0
M  V30 10202 H 948.134 -2.70751 -6.42915 0
M  V30 10203 H 944.031 -1.48158 -6.28267 0
M  V30 10204 H 944.799 -3.10873 -7.57166 0
M  V30 10205 N 947.462 1.57535 -0.0451378 0
M  V30 10206 C 948.392 2.14208 0.929372 0
M  V30 10207 C 949.373 1.06221 1.32858 0
M  V30 10208 O 950.558 1.34132 1.40436 0
M  V30 10209 C 947.688 2.68217 2.20629 0
M  V30 10210 C 946.642 3.81134 1.94734 0
M  V30 10211 C 945.968 4.21636 3.28828 0
M  V30 10212 C 947.268 5.06531 1.27374 0
M  V30 10213 H 948.962 2.95886 0.457348 0
M  V30 10214 H 946.508 1.42332 0.218544 0
M  V30 10215 H 948.461 3.06502 2.89196 0
M  V30 10216 H 947.185 1.83722 2.70026 0
M  V30 10217 H 945.844 3.43312 1.28579 0
M  V30 10218 H 945.492 3.34099 3.76014 0
M  V30 10219 H 945.192 4.97736 3.12302 0
M  V30 10220 H 946.716 4.62516 3.98637 0
M  V30 10221 H 948.13 5.423 1.85967 0
M  V30 10222 H 946.527 5.87735 1.21194 0
M  V30 10223 H 947.597 4.84261 0.248913 0
M  V30 10224 N 948.94 -0.228186 1.55939 0
M  V30 10225 C 950.217 -0.977492 1.69424 0
M  V30 10226 C 950.597 -2.02674 0.590479 0
M  V30 10227 O 949.945 -2.2491 -0.403467 0
M  V30 10228 C 950.155 -1.59394 3.10475 0
M  V30 10229 C 951.503 -2.08871 3.69673 0
M  V30 10230 O 952.527 -1.693 3.13394 0
M  V30 10231 O 951.386 -2.81584 4.68372 0
M  V30 10232 H 948.48 -0.456185 0.6898 0
M  V30 10233 H 951.026 -0.220492 1.68261 0
M  V30 10234 H 949.798 -0.835971 3.82266 0
M  V30 10235 H 949.421 -2.41665 3.15727 0
M  V30 10236 N 950.418 -1.49637 -0.494624 0
M  V30 10237 C 951.348 -1.69692 -1.60396 0
M  V30 10238 C 952.329 -0.545648 -1.61111 0
M  V30 10239 O 953.514 -0.782202 -1.77751 0
M  V30 10240 C 950.644 -1.76934 -2.9885 0
M  V30 10241 C 949.598 -2.91915 -3.13001 0
M  V30 10242 C 948.924 -2.84276 -4.5287 0
M  V30 10243 C 950.224 -4.32764 -2.92426 0
M  V30 10244 H 951.918 -2.6257 -1.43866 0
M  V30 10245 H 949.464 -1.26355 -0.690679 0
M  V30 10246 H 951.417 -1.8955 -3.76362 0
M  V30 10247 H 950.141 -0.806609 -3.16483 0
M  V30 10248 H 948.8 -2.78911 -2.37916 0
M  V30 10249 H 948.448 -1.85897 -4.67388 0
M  V30 10250 H 948.148 -3.61452 -4.63278 0
M  V30 10251 H 949.672 -2.98909 -5.32434 0
M  V30 10252 H 951.086 -4.46415 -3.59703 0
M  V30 10253 H 949.483 -5.1121 -3.143 0
M  V30 10254 H 950.553 -4.46765 -1.88491 0
M  V30 10255 N 951.896 0.746133 -1.38819 0
M  V30 10256 C 952.843 1.86001 -1.36647 0
M  V30 10257 C 953.813 1.6453 -0.227849 0
M  V30 10258 O 954.998 1.86092 -0.421241 0
M  V30 10259 C 952.138 3.23388 -1.20474 0
M  V30 10260 C 951.251 3.5664 -2.43786 0
M  V30 10261 C 950.386 4.8337 -2.20287 0
M  V30 10262 C 949.425 5.09431 -3.39332 0
M  V30 10263 N 948.562 6.2736 -3.1522 0
M  V30 10264 H 953.402 1.87192 -2.31869 0
M  V30 10265 H 950.939 0.914838 -1.15192 0
M  V30 10266 H 952.897 4.02679 -1.09112 0
M  V30 10267 H 951.527 3.21505 -0.288874 0
M  V30 10268 H 950.579 2.72135 -2.65794 0
M  V30 10269 H 951.891 3.71823 -3.3249 0
M  V30 10270 H 951.045 5.70619 -2.06103 0
M  V30 10271 H 949.784 4.70341 -1.28961 0
M  V30 10272 H 948.789 4.20648 -3.54027 0
M  V30 10273 H 950.014 5.24354 -4.31544 0
M  V30 10274 H 947.96 6.15639 -2.26549 0
M  V30 10275 H 947.877 6.43078 -3.97476 0
M  V30 10276 H 949.145 7.17477 -3.04707 0
M  V30 10277 N 953.375 1.23811 0.975125 0
M  V30 10278 C 954.605 1.0986 1.7497 0
M  V30 10279 C 955.013 -0.352366 1.8589 0
M  V30 10280 O 954.356 -1.2553 1.34119 0
M  V30 10281 C 954.418 1.65584 3.19096 0
M  V30 10282 C 954.082 3.14395 3.3167 0
M  V30 10283 C 955.079 4.1163 3.17579 0
M  V30 10284 C 952.764 3.54208 3.56149 0
M  V30 10285 C 954.758 5.46661 3.27781 0
M  V30 10286 C 952.445 4.89382 3.65989 0
M  V30 10287 C 953.443 5.85418 3.51817 0
M  V30 10288 O 953.131 7.18135 3.61299 0
M  V30 10289 H 952.863 0.384854 0.555755 0
M  V30 10290 H 955.417 1.64242 1.23343 0
M  V30 10291 H 953.647 1.05627 3.71994 0
M  V30 10292 H 955.336 1.47032 3.78334 0
M  V30 10293 H 956.102 3.82214 2.98559 0
M  V30 10294 H 951.981 2.79968 3.66249 0
M  V30 10295 H 955.525 6.21601 3.16636 0
M  V30 10296 H 951.422 5.18473 3.84521 0
M  V30 10297 H 952.19 7.25956 3.78061 0
M  V30 10298 N 954.853 -1.17469 1.05066 0
M  V30 10299 C 956.078 -1.92162 0.780298 0
M  V30 10300 C 956.503 -1.76222 -0.657832 0
M  V30 10301 O 955.861 -1.0791 -1.45688 0
M  V30 10302 C 955.909 -3.41292 1.16414 0
M  V30 10303 O 955.013 -4.1134 0.295531 0
M  V30 10304 H 954.354 -0.599127 0.286257 0
M  V30 10305 H 956.884 -1.48903 1.40318 0
M  V30 10306 H 956.894 -3.92029 1.13036 0
M  V30 10307 H 955.569 -3.52214 2.21175 0
M  V30 10308 H 954.146 -3.70857 0.389797 0
M  V30 10309 N 956.331 -0.831506 -1.3388 0
M  V30 10310 C 957.608 -0.345907 -1.92517 0
M  V30 10311 C 957.988 1.16784 -1.75854 0
M  V30 10312 O 957.336 1.97889 -1.14245 0
M  V30 10313 C 957.546 -0.784692 -3.40064 0
M  V30 10314 C 958.894 -0.78846 -4.17215 0
M  V30 10315 O 959.918 -0.727823 -3.48685 0
M  V30 10316 O 958.777 -0.869481 -5.39539 0
M  V30 10317 H 955.871 -0.0963568 -0.821367 0
M  V30 10318 H 958.417 -0.916868 -1.42799 0
M  V30 10319 H 957.189 -1.82697 -3.46031 0
M  V30 10320 H 956.812 -0.189897 -3.97146 0
M  V30 10321 N 957.809 1.4625 -0.587256 0
M  V30 10322 C 958.742 2.27392 0.191837 0
M  V30 10323 C 959.72 1.35905 0.89267 0
M  V30 10324 O 960.904 1.65319 0.905643 0
M  V30 10325 C 958.031 3.13758 1.27567 0
M  V30 10326 C 957.077 4.21041 0.680186 0
M  V30 10327 S 957.91 5.33194 -0.496419 0
M  V30 10328 C 959.066 6.23127 0.588506 0
M  V30 10329 H 959.299 2.93123 -0.496635 0
M  V30 10330 H 956.832 1.49795 -0.37426 0
M  V30 10331 H 958.79 3.6408 1.8962 0
M  V30 10332 H 957.451 2.47332 1.93612 0
M  V30 10333 H 956.644 4.81316 1.49503 0
M  V30 10334 H 956.246 3.73755 0.135227 0
M  V30 10335 H 958.538 6.61294 1.47298 0
M  V30 10336 H 959.481 7.08096 0.0224093 0
M  V30 10337 H 959.889 5.57365 0.894696 0
M  V30 10338 N 959.287 0.325282 1.54207 0
M  V30 10339 C 960.534 -0.276775 2.006 0
M  V30 10340 C 960.862 -1.52007 1.21343 0
M  V30 10341 O 960.117 -1.93627 0.284104 0
M  V30 10342 C 960.416 -0.654292 3.5136 0
M  V30 10343 C 960.082 0.490023 4.48229 0
M  V30 10344 C 958.744 0.804104 4.74434 0
M  V30 10345 C 961.096 1.2586 5.05775 0
M  V30 10346 C 958.424 1.88945 5.55443 0
M  V30 10347 C 960.776 2.33405 5.87967 0
M  V30 10348 C 959.44 2.65393 6.12473 0
M  V30 10349 H 958.71 -0.101279 0.734046 0
M  V30 10350 H 961.357 0.449416 1.86152 0
M  V30 10351 H 959.662 -1.46093 3.63544 0
M  V30 10352 H 961.359 -1.13171 3.84699 0
M  V30 10353 H 957.949 0.235147 4.27954 0
M  V30 10354 H 962.133 1.02921 4.85511 0
M  V30 10355 H 957.389 2.14174 5.7266 0
M  V30 10356 H 961.563 2.93402 6.31576 0
M  V30 10357 H 959.19 3.49622 6.75032 0
M  V30 10358 N 960.765 -1.57509 0.0534917 0
M  V30 10359 C 961.712 -2.11667 -0.920101 0
M  V30 10360 C 962.682 -1.0246 -1.30733 0
M  V30 10361 O 963.867 -1.30021 -1.39639 0
M  V30 10362 C 961.007 -2.66803 -2.18883 0
M  V30 10363 C 960.12 -3.90104 -1.85588 0
M  V30 10364 C 959.255 -4.33547 -3.06937 0
M  V30 10365 C 958.294 -5.49542 -2.69573 0
M  V30 10366 N 957.431 -5.88029 -3.83623 0
M  V30 10367 H 962.271 -2.94562 -0.451371 0
M  V30 10368 H 959.808 -1.45576 -0.211168 0
M  V30 10369 H 961.766 -2.96871 -2.93127 0
M  V30 10370 H 960.396 -1.86702 -2.63329 0
M  V30 10371 H 959.448 -3.66613 -1.01484 0
M  V30 10372 H 960.76 -4.74404 -1.54087 0
M  V30 10373 H 959.914 -4.6518 -3.89477 0
M  V30 10374 H 958.653 -3.48064 -3.41618 0
M  V30 10375 H 957.658 -5.17579 -1.8545 0
M  V30 10376 H 958.883 -6.36743 -2.36082 0
M  V30 10377 H 956.829 -5.05498 -4.181 0
M  V30 10378 H 956.746 -6.67025 -3.55828 0
M  V30 10379 H 958.014 -6.24277 -4.66796 0
M  V30 10380 N 962.243 0.219913 -1.56058 0
M  V30 10381 C 963.153 1.29349 -1.95719 0
M  V30 10382 C 964.169 1.5119 -0.861248 0
M  V30 10383 O 965.345 1.64289 -1.16495 0
M  V30 10384 C 962.41 2.6229 -2.26726 0
M  V30 10385 C 961.471 2.48738 -3.49897 0
M  V30 10386 C 960.704 3.75339 -3.79416 0
M  V30 10387 O 960.927 4.78427 -3.10586 0
M  V30 10388 O 959.861 3.72352 -4.72903 0
M  V30 10389 H 963.687 0.986979 -2.87215 0
M  V30 10390 H 961.272 0.42291 -1.43289 0
M  V30 10391 H 963.154 3.408 -2.47857 0
M  V30 10392 H 961.829 2.92619 -1.38404 0
M  V30 10393 H 960.736 1.68422 -3.34043 0
M  V30 10394 H 962.069 2.23347 -4.38608 0
M  V30 10395 N 963.721 1.49897 0.486681 0
M  V30 10396 C 964.97 1.59349 1.23656 0
M  V30 10397 C 965.283 0.292024 1.93408 0
M  V30 10398 O 966.489 0.265258 2.70201 0
M  V30 10399 C 964.945 2.81215 2.24602 0
M  V30 10400 C 964.553 4.18177 1.60725 0
M  V30 10401 C 966.297 3.00004 3.00329 0
M  V30 10402 C 964.204 5.31247 2.59866 0
M  V30 10403 H 963.134 0.593363 0.465227 0
M  V30 10404 H 965.785 1.76306 0.508769 0
M  V30 10405 H 964.167 2.57783 3.00606 0
M  V30 10406 H 965.341 4.51802 0.90616 0
M  V30 10407 H 963.656 4.04864 0.973362 0
M  V30 10408 H 966.253 3.81649 3.74497 0
M  V30 10409 H 966.596 2.1112 3.58795 0
M  V30 10410 H 967.129 3.23544 2.3144 0
M  V30 10411 H 963.868 6.22236 2.06161 0
M  V30 10412 H 963.388 5.02059 3.28172 0
M  V30 10413 H 965.067 5.61177 3.22009 0
M  V30 10414 N 965.199 -0.738761 1.39212 0
M  V30 10415 C 966.147 -1.8741 1.3777 0
M  V30 10416 C 967.141 -1.67371 0.261375 0
M  V30 10417 O 968.347 -1.74759 0.431209 0
M  V30 10418 H 964.722 -0.616843 0.430126 0
M  V30 10419 H 966.693 -1.85742 2.33543 0
M  V30 10420 C 965.442 -3.25053 1.23433 0
M  V30 10421 H 964.765 -3.41066 2.086 0
M  V30 10422 H 966.205 -4.04696 1.2648 0
M  V30 10423 C 964.664 -3.36851 -0.0575624 0
M  V30 10424 O 965.194 -3.88293 -1.02915 0
M  V30 10425 N 963.4 -2.90355 -0.119364 0
M  V30 10426 H 962.947 -2.48681 0.671976 0
M  V30 10427 H 962.905 -2.98628 -0.983286 0
M  V30 10428 N 966.677 -1.24326 -0.968545 0
M  V30 10429 C 967.902 -1.1104 -1.75171 0
M  V30 10430 C 968.327 0.333109 -1.85127 0
M  V30 10431 O 967.685 1.24115 -1.32156 0
M  V30 10432 C 967.733 -1.75397 -3.15068 0
M  V30 10433 O 966.837 -1.02417 -3.9948 0
M  V30 10434 H 966.178 -0.388488 -0.538491 0
M  V30 10435 H 968.708 -1.64617 -1.215 0
M  V30 10436 H 968.718 -1.8112 -3.65595 0
M  V30 10437 H 967.393 -2.80427 -3.07138 0
M  V30 10438 H 965.97 -1.04475 -3.57966 0
M  V30 10439 N 968.156 1.1691 -1.05688 0
M  V30 10440 C 969.384 1.91204 -0.790485 0
M  V30 10441 C 969.799 1.77095 0.654434 0
M  V30 10442 O 969.156 1.11146 1.44751 0
M  V30 10443 C 969.207 3.42108 -1.16808 0
M  V30 10444 O 968.928 3.55788 -2.55629 0
M  V30 10445 C 970.429 4.33466 -0.92855 0
M  V30 10446 H 967.649 0.606508 -0.287035 0
M  V30 10447 H 970.193 1.48225 -1.40888 0
M  V30 10448 H 968.348 3.82814 -0.59434 0
M  V30 10449 H 968.762 4.49321 -2.70575 0
M  V30 10450 H 970.236 5.37836 -1.24245 0
M  V30 10451 H 970.713 4.38989 0.136016 0
M  V30 10452 H 971.319 3.98481 -1.48638 0
M  V30 10453 N 969.634 0.838594 1.33437 0
M  V30 10454 C 970.597 0.276843 2.27522 0
M  V30 10455 C 971.597 -0.554275 1.50945 0
M  V30 10456 O 972.787 -0.368107 1.70266 0
M  V30 10457 C 969.919 -0.610036 3.35397 0
M  V30 10458 H 971.112 1.10705 2.78719 0
M  V30 10459 H 968.665 0.611657 1.43835 0
M  V30 10460 H 969.4 -1.46269 2.89441 0
M  V30 10461 H 969.185 -0.0153615 3.92097 0
M  V30 10462 H 970.675 -0.996368 4.05539 0
M  V30 10463 N 971.112 -1.45937 0.595003 0
M  V30 10464 C 972.06 -2.32155 -0.143798 0
M  V30 10465 C 973.054 -1.45221 -0.872198 0
M  V30 10466 O 974.26 -1.61777 -0.789191 0
M  V30 10467 H 970.635 -0.749165 -0.0652377 0
M  V30 10468 H 972.606 -2.92264 0.602005 0
M  V30 10469 C 971.355 -3.28615 -1.13611 0
M  V30 10470 H 970.678 -3.95496 -0.585044 0
M  V30 10471 H 972.118 -3.91699 -1.62321 0
M  V30 10472 C 970.577 -2.54863 -2.20333 0
M  V30 10473 O 971.107 -2.32071 -3.27881 0
M  V30 10474 N 969.313 -2.15213 -1.95274 0
M  V30 10475 H 968.86 -2.33949 -1.07822 0
M  V30 10476 H 968.818 -1.66188 -2.66888 0
M  V30 10477 N 972.59 -0.333456 -1.54032 0
M  V30 10478 C 973.838 0.265608 -2.00347 0
M  V30 10479 C 974.159 1.51873 -1.2231 0
M  V30 10480 O 973.429 1.93142 -0.327549 0
M  V30 10481 H 972.009 0.101135 -0.740122 0
M  V30 10482 H 974.671 -0.452285 -1.8958 0
M  V30 10483 H 973.767 0.51511 -3.0782 0
M  V30 10484 N 974.068 1.57479 -0.061844 0
M  V30 10485 C 975.479 1.80627 0.472295 0
M  V30 10486 C 975.83 0.97496 1.70261 0
M  V30 10487 O 974.955 0.1946 2.15523 0
M  V30 10488 C 975.55 3.27608 0.863616 0
M  V30 10489 C 974.109 3.51638 1.34267 0
M  V30 10490 C 973.256 2.75412 0.323009 0
M  V30 10491 H 976.207 1.56072 -0.287634 0
M  V30 10492 H 976.228 3.39113 1.72577 0
M  V30 10493 H 975.74 3.88087 -0.0320226 0
M  V30 10494 H 973.841 2.96452 2.25714 0
M  V30 10495 H 973.954 4.60342 1.32747 0
M  V30 10496 H 972.318 2.4187 0.798175 0
M  V30 10497 H 973.101 3.38623 -0.564729 0
M  V30 10498 N 975.546 -0.211634 1.56173 0
M  V30 10499 C 976.794 -0.932704 1.7929 0
M  V30 10500 C 977.115 -1.84472 0.632076 0
M  V30 10501 O 976.385 -1.92739 -0.350519 0
M  V30 10502 H 974.965 -0.347393 0.661307 0
M  V30 10503 H 977.627 -0.22111 1.93642 0
M  V30 10504 H 976.723 -1.53365 2.71819 0
M  V30 10505 N 977.024 -1.50153 -0.478725 0
M  V30 10506 C 978.273 -1.60002 -1.22809 0
M  V30 10507 C 978.586 -0.302277 -1.9325 0
M  V30 10508 O 979.792 -0.279583 -2.70057 0
M  V30 10509 C 978.248 -2.82402 -2.23108 0
M  V30 10510 C 977.856 -4.19023 -1.58505 0
M  V30 10511 C 979.6 -3.01593 -2.98734 0
M  V30 10512 C 977.507 -5.32618 -2.57045 0
M  V30 10513 H 976.437 -0.595822 -0.462073 0
M  V30 10514 H 979.088 -1.76573 -0.499412 0
M  V30 10515 H 977.47 -2.59373 -2.99235 0
M  V30 10516 H 978.644 -4.52277 -0.882187 0
M  V30 10517 H 976.959 -4.05374 -0.951877 0
M  V30 10518 H 979.556 -3.8363 -3.72468 0
M  V30 10519 H 979.899 -2.1302 -3.57671 0
M  V30 10520 H 980.432 -3.24766 -2.29721 0
M  V30 10521 H 977.171 -6.23321 -2.02858 0
M  V30 10522 H 976.691 -5.03792 -3.25505 0
M  V30 10523 H 978.37 -5.62877 -3.19028 0
M  V30 10524 N 978.502 0.731368 -1.39602 0
M  V30 10525 C 979.732 1.51839 -1.40102 0
M  V30 10526 C 980.14 1.89199 0.00526634 0
M  V30 10527 O 979.483 1.54877 0.987874 0
M  V30 10528 C 979.545 2.83292 -2.21328 0
M  V30 10529 C 979.209 2.68345 -3.69919 0
M  V30 10530 C 980.206 2.36651 -4.62917 0
M  V30 10531 C 977.891 2.85102 -4.13548 0
M  V30 10532 C 979.885 2.21901 -5.97527 0
M  V30 10533 C 977.572 2.69971 -5.48233 0
M  V30 10534 C 978.57 2.38416 -6.40037 0
M  V30 10535 O 978.258 2.23383 -7.72241 0
M  V30 10536 H 977.99 0.475695 -0.480302 0
M  V30 10537 H 980.544 0.911096 -1.84087 0
M  V30 10538 H 978.774 3.46294 -1.72096 0
M  V30 10539 H 980.463 3.44928 -2.13961 0
M  V30 10540 H 981.229 2.23352 -4.3051 0
M  V30 10541 H 977.108 3.08655 -3.42423 0
M  V30 10542 H 980.652 1.97193 -6.69149 0
M  V30 10543 H 976.549 2.82849 -5.8023 0
M  V30 10544 H 977.317 2.38425 -7.83004 0
M  V30 10545 N 979.98 1.24838 0.961938 0
M  V30 10546 C 980.89 1.06304 2.09133 0
M  V30 10547 C 981.906 0.00221475 1.74 0
M  V30 10548 O 983.082 0.201611 2.00388 0
M  V30 10549 C 980.147 0.676117 3.40043 0
M  V30 10550 C 979.208 1.81407 3.89089 0
M  V30 10551 C 978.441 1.44551 5.13752 0
M  V30 10552 O 978.664 0.337894 5.69398 0
M  V30 10553 O 977.598 2.27316 5.57325 0
M  V30 10554 H 981.424 2.01001 2.27667 0
M  V30 10555 H 979.009 1.0371 1.07539 0
M  V30 10556 H 980.891 0.472124 4.18747 0
M  V30 10557 H 979.566 -0.241667 3.22797 0
M  V30 10558 H 978.473 2.07286 3.11421 0
M  V30 10559 H 979.806 2.71083 4.10822 0
M  V30 10560 N 981.458 -1.16348 1.06306 0
M  V30 10561 C 982.391 -2.19667 0.618197 0
M  V30 10562 C 983.369 -1.58586 -0.359078 0
M  V30 10563 O 984.553 -1.86585 -0.268023 0
M  V30 10564 C 981.68 -3.3857 -0.0937091 0
M  V30 10565 C 980.726 -4.18139 0.840339 0
M  V30 10566 S 981.559 -4.81879 2.33565 0
M  V30 10567 C 982.715 -6.04161 1.63524 0
M  V30 10568 H 982.948 -2.57063 1.49352 0
M  V30 10569 H 980.481 -1.27141 0.876046 0
M  V30 10570 H 982.439 -4.07465 -0.498227 0
M  V30 10571 H 981.1 -2.9954 -0.94523 0
M  V30 10572 H 980.293 -5.03172 0.288781 0
M  V30 10573 H 979.895 -3.54739 1.18474 0
M  V30 10574 H 982.187 -6.70935 0.940904 0
M  V30 10575 H 983.13 -6.63866 2.46347 0
M  V30 10576 H 983.538 -5.53323 1.11778 0
M  V30 10577 N 982.937 -0.845659 -1.3299 0
M  V30 10578 C 984.184 -0.444653 -1.97558 0
M  V30 10579 C 984.512 0.997682 -1.66963 0
M  V30 10580 O 983.767 1.71349 -0.94541 0
M  V30 10581 C 984.066 -0.6201 -3.51979 0
M  V30 10582 C 983.732 -2.03155 -4.02541 0
M  V30 10583 C 982.394 -2.4176 -4.16059 0
M  V30 10584 C 984.746 -2.95317 -4.29462 0
M  V30 10585 C 982.074 -3.71818 -4.53837 0
M  V30 10586 C 984.426 -4.24863 -4.68694 0
M  V30 10587 C 983.09 -4.63416 -4.80419 0
M  V30 10588 H 982.36 -0.16271 -0.722915 0
M  V30 10589 H 985.007 -1.07399 -1.58549 0
M  V30 10590 H 983.312 0.092513 -3.91691 0
M  V30 10591 H 985.009 -0.290012 -3.9995 0
M  V30 10592 H 981.599 -1.72174 -3.92497 0
M  V30 10593 H 985.783 -2.66726 -4.18534 0
M  V30 10594 H 981.039 -4.01484 -4.61108 0
M  V30 10595 H 985.213 -4.96347 -4.8848 0
M  V30 10596 H 982.84 -5.6424 -5.09448 0
M  V30 10597 N 984.415 1.45619 -0.602734 0
M  V30 10598 C 985.663 2.01873 -0.095844 0
M  V30 10599 C 985.984 1.47427 1.27633 0
M  V30 10600 O 985.254 0.666652 1.84208 0
M  V30 10601 H 983.834 0.746295 -0.0324408 0
M  V30 10602 H 986.496 1.78478 -0.783037 0
M  V30 10603 H 985.592 3.12072 -0.0419507 0
M  V30 10604 N 985.893 0.34162 1.53853 0
M  V30 10605 C 987.121 -0.256929 2.05299 0
M  V30 10606 C 987.536 -1.44366 1.21671 0
M  V30 10607 O 986.893 -1.80758 0.251584 0
M  V30 10608 C 986.944 -0.673854 3.55164 0
M  V30 10609 O 986.665 0.465687 4.35618 0
M  V30 10610 C 988.166 -1.33332 4.22773 0
M  V30 10611 H 985.386 -0.0499445 0.669139 0
M  V30 10612 H 987.93 0.493048 1.98467 0
M  V30 10613 H 986.085 -1.37378 3.62224 0
M  V30 10614 H 986.499 0.133723 5.2433 0
M  V30 10615 H 987.973 -1.57582 5.29029 0
M  V30 10616 H 988.45 -2.28628 3.75001 0
M  V30 10617 H 989.056 -0.675489 4.19901 0
M  V30 10618 N 987.371 -1.57444 0.0701946 0
M  V30 10619 C 988.782 -1.80875 -0.462709 0
M  V30 10620 C 989.133 -0.983975 -1.69742 0
M  V30 10621 O 988.258 -0.206027 -2.15417 0
M  V30 10622 C 988.853 -3.28062 -0.84623 0
M  V30 10623 C 987.412 -3.52345 -1.32401 0
M  V30 10624 C 986.559 -2.7558 -0.308399 0
M  V30 10625 H 989.51 -1.55917 0.295907 0
M  V30 10626 H 989.531 -3.40023 -1.70776 0
M  V30 10627 H 989.043 -3.88064 0.0526033 0
M  V30 10628 H 987.144 -2.97645 -2.24139 0
M  V30 10629 H 987.257 -4.6104 -1.30304 0
M  V30 10630 H 985.621 -2.4229 -0.785337 0
M  V30 10631 H 986.404 -3.38319 0.582679 0
M  V30 10632 N 988.849 0.203349 -1.56283 0
M  V30 10633 C 990.095 0.926381 -1.80405 0
M  V30 10634 C 990.428 1.8325 -0.642883 0
M  V30 10635 O 989.703 1.91196 0.356998 0
M  V30 10636 C 989.986 1.74972 -3.14733 0
M  V30 10637 C 989.839 0.868866 -4.41328 0
M  V30 10638 C 991.158 2.72394 -3.45672 0
M  V30 10639 H 988.277 0.335346 -0.656286 0
M  V30 10640 H 990.919 0.1942 -1.89005 0
M  V30 10641 H 989.069 2.37394 -3.07533 0
M  V30 10642 H 990.741 0.259986 -4.60567 0
M  V30 10643 H 988.984 0.175161 -4.33446 0
M  V30 10644 H 989.655 1.47975 -5.31796 0
M  V30 10645 H 992.131 2.20105 -3.53119 0
M  V30 10646 H 991.007 3.27091 -4.40798 0
M  V30 10647 H 991.268 3.51035 -2.6875 0
M  V30 10648 N 990.327 1.50405 0.470755 0
M  V30 10649 C 991.557 1.64928 1.24428 0
M  V30 10650 C 991.965 0.332139 1.86262 0
M  V30 10651 O 991.308 -0.695919 1.70008 0
M  V30 10652 C 991.37 2.6829 2.39293 0
M  V30 10653 C 991.034 4.11835 1.98093 0
M  V30 10654 C 992.031 4.97693 1.50326 0
M  V30 10655 C 989.716 4.57753 2.06803 0
M  V30 10656 C 991.71 6.27516 1.11813 0
M  V30 10657 C 989.397 5.87582 1.67902 0
M  V30 10658 C 990.395 6.72289 1.20485 0
M  V30 10659 O 990.083 7.99694 0.821219 0
M  V30 10660 H 989.815 0.557418 0.382442 0
M  V30 10661 H 992.369 1.97382 0.568292 0
M  V30 10662 H 990.599 2.31079 3.10063 0
M  V30 10663 H 992.288 2.7203 3.01255 0
M  V30 10664 H 993.054 4.63434 1.43018 0
M  V30 10665 H 988.933 3.91966 2.42659 0
M  V30 10666 H 992.477 6.93586 0.747317 0
M  V30 10667 H 988.374 6.21362 1.74869 0
M  V30 10668 H 989.142 8.12968 0.950038 0
M  V30 10669 N 991.805 -0.723954 1.39988 0
M  V30 10670 C 993.045 -1.49624 1.39255 0
M  V30 10671 C 993.409 -1.91998 -0.00860198 0
M  V30 10672 O 994.61 -2.6843 -0.141002 0
M  V30 10673 C 992.881 -2.69514 2.34728 0
M  V30 10674 S 994.44 -3.59027 2.5228 0
M  V30 10675 H 991.258 -0.511661 0.493685 0
M  V30 10676 H 993.86 -0.847322 1.76184 0
M  V30 10677 H 992.564 -2.36541 3.35375 0
M  V30 10678 H 992.095 -3.39325 1.99053 0
M  V30 10679 H 994.11 -4.63597 1.76896 0
M  V30 10680 N 993.283 -1.25346 -0.955304 0
M  V30 10681 C 994.233 -1.02358 -2.03732 0
M  V30 10682 C 995.217 0.0392941 -1.60852 0
M  V30 10683 O 996.409 -0.175959 -1.76123 0
M  V30 10684 C 993.538 -0.643552 -3.37214 0
M  V30 10685 C 992.624 -1.74315 -3.8662 0
M  V30 10686 N 993.015 -2.97816 -4.08827 0
M  V30 10687 C 991.313 -1.62351 -4.15401 0
M  V30 10688 C 992.014 -3.69185 -4.4953 0
M  V30 10689 N 990.99 -2.96803 -4.55422 0
M  V30 10690 H 994.792 -1.96119 -2.18894 0
M  V30 10691 H 992.306 -1.15655 -1.14007 0
M  V30 10692 H 994.303 -0.460053 -4.14354 0
M  V30 10693 H 992.963 0.286738 -3.23431 0
M  V30 10694 H 993.974 -3.33868 -3.95919 0
M  V30 10695 H 990.651 -0.762133 -4.10485 0
M  V30 10696 H 992.041 -4.7519 -4.7502 0
M  V30 10697 N 994.761 1.15782 -1.06922 0
M  V30 10698 C 996.007 1.86741 -0.790922 0
M  V30 10699 C 996.34 1.81863 0.681149 0
M  V30 10700 O 995.615 1.23871 1.49954 0
M  V30 10701 C 995.898 3.36038 -1.29422 0
M  V30 10702 C 995.751 3.49573 -2.83052 0
M  V30 10703 C 997.07 4.30647 -0.907239 0
M  V30 10704 H 994.189 0.678064 -0.288787 0
M  V30 10705 H 996.831 1.36054 -1.32624 0
M  V30 10706 H 994.981 3.79336 -0.838843 0
M  V30 10707 H 996.653 3.1517 -3.36847 0
M  V30 10708 H 994.896 2.91275 -3.21467 0
M  V30 10709 H 995.567 4.5445 -3.13335 0
M  V30 10710 H 998.043 3.95286 -1.29956 0
M  V30 10711 H 996.919 5.33604 -1.28679 0
M  V30 10712 H 997.18 4.41703 0.187251 0
M  V30 10713 N 996.239 0.8527 1.3254 0
M  V30 10714 C 997.655 0.542298 1.50104 0
M  V30 10715 C 997.855 -0.927465 1.78886 0
M  V30 10716 O 996.911 -1.7106 1.85728 0
M  V30 10717 C 998.224 1.4276 2.64651 0
M  V30 10718 C 999.772 1.42782 2.78536 0
M  V30 10719 C 1000.25 2.29828 3.9616 0
M  V30 10720 N 1001.74 2.27613 4.03418 0
M  V30 10721 C 1002.47 2.91696 4.93661 0
M  V30 10722 N 1001.97 3.64883 5.88925 0
M  V30 10723 N 1003.76 2.81094 4.86768 0
M  V30 10724 H 995.913 1.80395 1.12123 0
M  V30 10725 H 998.176 0.770394 0.552446 0
M  V30 10726 H 997.882 2.47266 2.50105 0
M  V30 10727 H 997.756 1.11358 3.60388 0
M  V30 10728 H 1000.14 0.390417 2.92506 0
M  V30 10729 H 1000.22 1.78198 1.83519 0
M  V30 10730 H 999.868 3.33635 3.82949 0
M  V30 10731 H 999.798 1.91746 4.9045 0
M  V30 10732 H 1002.29 1.74402 3.3525 0
M  V30 10733 H 1002.6 4.10952 6.54476 0
M  V30 10734 H 1000.95 3.68991 5.88957 0
M  V30 10735 H 1004.14 2.23469 4.11314 0
M  V30 10736 H 1004.31 3.31318 5.56895 0
M  V30 10737 N 997.718 -1.45297 0.610449 0
M  V30 10738 C 998.628 -2.34349 -0.108475 0
M  V30 10739 C 999.644 -1.51409 -0.857397 0
M  V30 10740 O 1000.82 -1.84202 -0.814337 0
M  V30 10741 C 997.885 -3.29072 -1.09144 0
M  V30 10742 C 996.946 -4.27918 -0.344165 0
M  V30 10743 C 996.179 -5.18116 -1.28031 0
M  V30 10744 O 996.402 -5.11802 -2.51824 0
M  V30 10745 O 995.336 -5.96879 -0.775821 0
M  V30 10746 H 999.162 -2.97232 0.623421 0
M  V30 10747 H 996.747 -1.44728 0.3707 0
M  V30 10748 H 998.629 -3.87433 -1.65751 0
M  V30 10749 H 997.304 -2.68749 -1.80431 0
M  V30 10750 H 996.211 -3.73164 0.264437 0
M  V30 10751 H 997.544 -4.91104 0.328275 0
M  V30 10752 N 999.196 -0.349774 -1.5367 0
M  V30 10753 C 1000.42 0.246038 -2.05432 0
M  V30 10754 C 1000.84 1.43719 -1.22435 0
M  V30 10755 O 1000.2 1.80622 -0.261166 0
M  V30 10756 C 1000.25 0.65501 -3.55516 0
M  V30 10757 O 999.968 -0.488782 -4.35365 0
M  V30 10758 C 1001.47 1.31088 -4.23475 0
M  V30 10759 H 998.689 0.0463952 -0.669394 0
M  V30 10760 H 1001.23 -0.503566 -1.98203 0
M  V30 10761 H 999.388 1.35455 -3.62947 0
M  V30 10762 H 999.802 -0.161528 -5.24251 0
M  V30 10763 H 1001.28 1.54774 -5.29857 0
M  V30 10764 H 1001.75 2.26636 -3.76208 0
M  V30 10765 H 1002.36 0.653211 -4.20254 0
M  V30 10766 N 1000.67 1.57404 -0.0785433 0
M  V30 10767 C 1001.58 2.16612 0.900902 0
M  V30 10768 C 1002.6 1.13109 1.32221 0
M  V30 10769 O 1003.78 1.45406 1.39352 0
M  V30 10770 C 1000.84 2.7215 2.14791 0
M  V30 10771 C 999.902 3.90551 1.78237 0
M  V30 10772 C 999.135 4.43431 2.96993 0
M  V30 10773 O 999.358 3.95292 4.11218 0
M  V30 10774 O 998.292 5.34674 2.76418 0
M  V30 10775 H 1002.12 3.0068 0.427227 0
M  V30 10776 H 999.703 1.48696 0.144902 0
M  V30 10777 H 1001.58 3.07718 2.87902 0
M  V30 10778 H 1000.26 1.91139 2.61243 0
M  V30 10779 H 999.167 3.59825 1.02357 0
M  V30 10780 H 1000.5 4.72876 1.36562 0
M  V30 10781 N 1002.15 -0.195058 1.56388 0
M  V30 10782 C 1003.57 -0.545894 1.49974 0
M  V30 10783 C 1003.77 -1.85851 0.778568 0
M  V30 10784 O 1002.82 -2.50346 0.329105 0
M  V30 10785 C 1004.14 -0.600599 2.94641 0
M  V30 10786 C 1005.68 -0.689429 3.05313 0
M  V30 10787 C 1006.16 -0.775243 4.51391 0
M  V30 10788 N 1007.65 -0.838769 4.55542 0
M  V30 10789 C 1008.39 -0.925337 5.65884 0
M  V30 10790 N 1007.88 -0.974204 6.85916 0
M  V30 10791 N 1009.67 -0.962528 5.53798 0
M  V30 10792 H 1001.83 0.66595 2.0169 0
M  V30 10793 H 1004.09 0.237215 0.917842 0
M  V30 10794 H 1003.79 0.29478 3.50462 0
M  V30 10795 H 1003.67 -1.45528 3.47996 0
M  V30 10796 H 1006.06 -1.57524 2.4954 0
M  V30 10797 H 1006.14 0.191451 2.55083 0
M  V30 10798 H 1005.78 0.106215 5.07789 0
M  V30 10799 H 1005.71 -1.67193 4.99354 0
M  V30 10800 H 1008.2 -0.810249 3.69112 0
M  V30 10801 H 1008.51 -1.04077 7.6576 0
M  V30 10802 H 1006.86 -0.942881 6.88574 0
M  V30 10803 H 1010.05 -0.921188 4.58946 0
M  V30 10804 H 1010.22 -1.02653 6.39817 0
M  V30 10805 N 1003.63 -1.50653 -0.462772 0
M  V30 10806 C 1004.91 -1.5258 -1.22387 0
M  V30 10807 C 1005.29 -0.275263 -2.09298 0
M  V30 10808 O 1004.63 0.740943 -2.16153 0
M  V30 10809 C 1004.84 -2.82611 -2.04773 0
M  V30 10810 C 1006.19 -3.33592 -2.62681 0
M  V30 10811 O 1007.22 -2.83989 -2.15008 0
M  V30 10812 O 1006.08 -4.20081 -3.49563 0
M  V30 10813 H 1003.17 -0.612367 -0.55582 0
M  V30 10814 H 1005.72 -1.62948 -0.473914 0
M  V30 10815 H 1004.49 -3.65098 -1.40781 0
M  V30 10816 H 1004.11 -2.75286 -2.86886 0
M  V30 10817 N 1005.11 0.71652 -1.4037 0
M  V30 10818 C 1006.02 1.86074 -1.42876 0
M  V30 10819 C 1007.03 1.71005 -0.321475 0
M  V30 10820 O 1008.21 1.93286 -0.565909 0
M  V30 10821 C 1005.28 3.21862 -1.28863 0
M  V30 10822 C 1004.34 3.49193 -2.49726 0
M  V30 10823 C 1003.57 4.78502 -2.36372 0
M  V30 10824 O 1003.79 5.53529 -1.37703 0
M  V30 10825 O 1002.73 5.06147 -3.25728 0
M  V30 10826 H 1006.55 1.86916 -2.39366 0
M  V30 10827 H 1004.14 0.866818 -1.21683 0
M  V30 10828 H 1006.02 4.02972 -1.23253 0
M  V30 10829 H 1004.69 3.2175 -0.354783 0
M  V30 10830 H 1003.6 2.68095 -2.60913 0
M  V30 10831 H 1004.93 3.54101 -3.41868 0
M  V30 10832 N 1006.59 1.25851 0.948643 0
M  V30 10833 C 1007.53 1.06559 2.06756 0
M  V30 10834 C 1008.53 -0.00528632 1.69399 0
M  V30 10835 O 1009.73 0.150806 1.79367 0
M  V30 10836 H 1006.11 0.327689 0.676848 0
M  V30 10837 H 1008.08 2.01401 2.20182 0
M  V30 10838 C 1006.83 0.707392 3.40428 0
M  V30 10839 H 1006.15 1.52324 3.69645 0
M  V30 10840 H 1007.59 0.612142 4.19558 0
M  V30 10841 C 1006.05 -0.58697 3.31747 0
M  V30 10842 O 1006.58 -1.62741 3.67258 0
M  V30 10843 N 1004.79 -0.574828 2.84858 0
M  V30 10844 H 1004.33 0.272236 2.56157 0
M  V30 10845 H 1004.29 -1.441 2.79432 0
M  V30 10846 N 1008.06 -1.15214 1.07534 0
M  V30 10847 C 1009.29 -1.89922 0.820804 0
M  V30 10848 C 1009.71 -1.78114 -0.626177 0
M  V30 10849 O 1009.06 -1.13435 -1.42964 0
M  V30 10850 C 1009.12 -3.40207 1.22236 0
M  V30 10851 O 1008.84 -3.51676 2.61257 0
M  V30 10852 C 1010.34 -4.31934 0.997393 0
M  V30 10853 H 1007.56 -0.601865 0.296647 0
M  V30 10854 H 1010.1 -1.45965 1.43229 0
M  V30 10855 H 1008.26 -3.8182 0.655167 0
M  V30 10856 H 1008.67 -4.44959 2.77689 0
M  V30 10857 H 1010.14 -5.35791 1.32785 0
M  V30 10858 H 1010.62 -4.3915 -0.0661599 0
M  V30 10859 H 1011.23 -3.96066 1.54958 0
M  V30 10860 N 1009.54 -0.859717 -1.32086 0
M  V30 10861 C 1010.77 -0.479028 -2.0097 0
M  V30 10862 C 1011.18 0.930242 -1.64752 0
M  V30 10863 O 1010.52 1.6193 -0.867437 0
M  V30 10864 C 1010.59 -0.54431 -3.55355 0
M  V30 10865 C 1010.25 -1.91337 -4.15017 0
M  V30 10866 C 1011.25 -2.87951 -4.32874 0
M  V30 10867 C 1008.93 -2.21189 -4.50977 0
M  V30 10868 C 1010.93 -4.12567 -4.85867 0
M  V30 10869 C 1008.61 -3.46057 -5.03674 0
M  V30 10870 C 1009.61 -4.41562 -5.21068 0
M  V30 10871 O 1009.3 -5.64218 -5.72637 0
M  V30 10872 H 1009.03 -0.186161 -0.649861 0
M  V30 10873 H 1011.58 -1.15976 -1.69525 0
M  V30 10874 H 1009.81 0.1933 -3.86217 0
M  V30 10875 H 1011.5 -0.178506 -4.05507 0
M  V30 10876 H 1012.27 -2.66194 -4.05421 0
M  V30 10877 H 1008.15 -1.47635 -4.36721 0
M  V30 10878 H 1011.69 -4.8712 -4.99359 0
M  V30 10879 H 1007.59 -3.67662 -5.30561 0
M  V30 10880 H 1008.36 -5.66246 -5.91023 0
M  V30 10881 N 1011.02 1.44971 -0.618145 0
M  V30 10882 C 1012.25 2.06228 -0.123985 0
M  V30 10883 C 1012.66 1.46166 1.20134 0
M  V30 10884 O 1012 0.574099 1.74499 0
M  V30 10885 C 1012.06 3.59413 0.0789098 0
M  V30 10886 C 1011.73 4.41869 -1.16624 0
M  V30 10887 C 1012.72 4.76177 -2.0869 0
M  V30 10888 C 1010.41 4.82453 -1.39802 0
M  V30 10889 C 1012.4 5.49938 -3.22254 0
M  V30 10890 C 1010.09 5.55965 -2.53665 0
M  V30 10891 C 1011.09 5.89626 -3.44718 0
M  V30 10892 O 1010.78 6.61644 -4.56598 0
M  V30 10893 H 1010.51 0.672274 -0.0708822 0
M  V30 10894 H 1013.06 1.87038 -0.848868 0
M  V30 10895 H 1011.29 3.77043 0.8588 0
M  V30 10896 H 1012.98 4.02478 0.52599 0
M  V30 10897 H 1013.75 4.45372 -1.92012 0
M  V30 10898 H 1009.63 4.55681 -0.698245 0
M  V30 10899 H 1013.17 5.76129 -3.93347 0
M  V30 10900 H 1009.07 5.86185 -2.70291 0
M  V30 10901 H 1009.84 6.80103 -4.55414 0
M  V30 10902 N 1012.5 0.357919 1.53482 0
M  V30 10903 C 1013.91 0.00655107 1.59599 0
M  V30 10904 C 1014.11 -1.47449 1.37336 0
M  V30 10905 O 1013.17 -2.2351 1.17472 0
M  V30 10906 C 1014.48 0.455617 2.97228 0
M  V30 10907 C 1016.03 0.409183 3.10314 0
M  V30 10908 C 1016.51 0.833941 4.50344 0
M  V30 10909 N 1018 0.788695 4.56436 0
M  V30 10910 C 1018.73 1.08914 5.62961 0
M  V30 10911 N 1018.23 1.45847 6.77274 0
M  V30 10912 N 1020.02 1.01243 5.52907 0
M  V30 10913 H 1012.17 1.32248 1.66206 0
M  V30 10914 H 1014.44 0.540047 0.779136 0
M  V30 10915 H 1014.14 1.48881 3.18634 0
M  V30 10916 H 1014.02 -0.161751 3.76853 0
M  V30 10917 H 1016.4 -0.614863 2.88623 0
M  V30 10918 H 1016.48 1.06195 2.32715 0
M  V30 10919 H 1016.13 1.85607 4.72771 0
M  V30 10920 H 1016.06 0.158507 5.26361 0
M  V30 10921 H 1018.55 0.516497 3.74354 0
M  V30 10922 H 1018.86 1.67218 7.54492 0
M  V30 10923 H 1017.21 1.49705 6.78685 0
M  V30 10924 H 1020.4 0.723137 4.62481 0
M  V30 10925 H 1020.57 1.24991 6.35831 0
M  V30 10926 N 1013.98 -1.5736 0.0868897 0
M  V30 10927 C 1014.89 -2.17087 -0.889402 0
M  V30 10928 C 1015.9 -1.13809 -1.31619 0
M  V30 10929 O 1017.08 -1.46143 -1.38579 0
M  V30 10930 C 1014.14 -2.73286 -2.13344 0
M  V30 10931 C 1013.2 -3.91491 -1.76164 0
M  V30 10932 C 1012.44 -4.45 -2.94637 0
M  V30 10933 O 1012.66 -3.97467 -4.09116 0
M  V30 10934 O 1011.59 -5.36133 -2.73579 0
M  V30 10935 H 1015.42 -3.00902 -0.411275 0
M  V30 10936 H 1013.01 -1.4877 -0.137015 0
M  V30 10937 H 1014.89 -3.0924 -2.86266 0
M  V30 10938 H 1013.56 -1.92521 -2.60225 0
M  V30 10939 H 1012.47 -3.60363 -1.00447 0
M  V30 10940 H 1013.8 -4.73593 -1.34053 0
M  V30 10941 N 1015.45 0.186762 -1.56489 0
M  V30 10942 C 1016.7 0.904077 -1.80303 0
M  V30 10943 C 1017.02 1.84073 -0.661538 0
M  V30 10944 O 1018.22 2.59928 -0.784197 0
M  V30 10945 C 1016.68 1.65806 -3.19432 0
M  V30 10946 C 1016.29 0.765807 -4.41406 0
M  V30 10947 C 1018.03 2.36451 -3.52549 0
M  V30 10948 C 1015.94 1.51913 -5.71556 0
M  V30 10949 H 1014.87 0.34133 -0.672317 0
M  V30 10950 H 1017.52 0.157218 -1.82825 0
M  V30 10951 H 1015.9 2.44911 -3.11183 0
M  V30 10952 H 1017.07 0.0128225 -4.60798 0
M  V30 10953 H 1015.39 0.169772 -4.16054 0
M  V30 10954 H 1017.99 2.93378 -4.47027 0
M  V30 10955 H 1018.33 3.11044 -2.7669 0
M  V30 10956 H 1018.86 1.64305 -3.62283 0
M  V30 10957 H 1015.6 0.815829 -6.50403 0
M  V30 10958 H 1015.12 2.24583 -5.56168 0
M  V30 10959 H 1016.8 2.07073 -6.12968 0
M  V30 10960 N 1016.93 1.50896 0.454776 0
M  V30 10961 C 1018.17 1.64347 1.21529 0
M  V30 10962 C 1018.54 0.343869 1.88896 0
M  V30 10963 O 1019.74 0.353973 2.66459 0
M  V30 10964 C 1018.01 2.80199 2.21864 0
M  V30 10965 S 1019.57 3.13879 3.06636 0
M  V30 10966 H 1016.39 0.579193 0.412379 0
M  V30 10967 H 1018.99 1.88741 0.509629 0
M  V30 10968 H 1017.69 3.73086 1.70982 0
M  V30 10969 H 1017.22 2.57941 2.97036 0
M  V30 10970 H 1019.24 2.58964 4.23264 0
M  V30 10971 N 1018.41 -0.709066 1.40748 0
M  V30 10972 C 1019.64 -1.50313 1.42901 0
M  V30 10973 C 1020.06 -1.88072 0.032213 0
M  V30 10974 O 1019.42 -1.53716 -0.96131 0
M  V30 10975 C 1019.47 -2.75074 2.33166 0
M  V30 10976 O 1018.57 -3.72036 1.7794 0
M  V30 10977 H 1017.91 -0.452934 0.485538 0
M  V30 10978 H 1020.44 -0.872712 1.85054 0
M  V30 10979 H 1020.45 -3.23532 2.48578 0
M  V30 10980 H 1019.13 -2.46927 3.34664 0
M  V30 10981 H 1017.7 -3.30911 1.71908 0
M  V30 10982 N 1019.89 -1.26353 -0.941956 0
M  V30 10983 C 1020.85 -1.07904 -2.02211 0
M  V30 10984 C 1021.85 -0.0276283 -1.60776 0
M  V30 10985 O 1023.04 -0.270965 -1.7208 0
M  V30 10986 C 1020.17 -0.641084 -3.34818 0
M  V30 10987 H 1021.37 -2.03804 -2.20009 0
M  V30 10988 H 1018.92 -1.08939 -1.12081 0
M  V30 10989 H 1019.66 0.319943 -3.22718 0
M  V30 10990 H 1019.44 -1.40027 -3.66244 0
M  V30 10991 H 1020.93 -0.533826 -4.14174 0
M  V30 10992 N 1021.37 1.14642 -1.08144 0
M  V30 10993 C 1022.78 1.6719 -0.830923 0
M  V30 10994 C 1023.13 1.85373 0.642749 0
M  V30 10995 O 1022.25 1.56293 1.49671 0
M  V30 10996 C 1022.85 3.03697 -1.50179 0
M  V30 10997 C 1021.41 3.5329 -1.29858 0
M  V30 10998 C 1020.56 2.28828 -1.5663 0
M  V30 10999 H 1023.51 0.987441 -1.24239 0
M  V30 11000 H 1023.53 3.69023 -0.9275 0
M  V30 11001 H 1023.04 2.90431 -2.57432 0
M  V30 11002 H 1021.14 3.71783 -0.246626 0
M  V30 11003 H 1021.25 4.34231 -2.02436 0
M  V30 11004 H 1019.62 2.34769 -0.987716 0
M  V30 11005 H 1020.4 2.18141 -2.65084 0
M  V30 11006 N 1022.85 0.866709 1.31628 0
M  V30 11007 C 1024.07 0.48956 2.01539 0
M  V30 11008 C 1024.5 -0.909556 1.64647 0
M  V30 11009 O 1023.85 -1.59959 0.853391 0
M  V30 11010 C 1023.9 0.650176 3.5469 0
M  V30 11011 O 1023.01 -0.311908 4.11219 0
M  V30 11012 H 1022.35 0.195144 0.634677 0
M  V30 11013 H 1024.88 1.16923 1.679 0
M  V30 11014 H 1024.89 0.542236 4.04381 0
M  V30 11015 H 1023.56 1.67038 3.80882 0
M  V30 11016 H 1022.14 -0.159197 3.7256 0
M  V30 11017 N 1024.32 -1.44642 0.625825 0
M  V30 11018 C 1025.57 -2.01695 0.127948 0
M  V30 11019 C 1025.89 -1.49439 -1.25271 0
M  V30 11020 O 1025.16 -0.695873 -1.83124 0
M  V30 11021 H 1023.74 -0.745685 0.0443096 0
M  V30 11022 H 1026.4 -1.7721 0.811332 0
M  V30 11023 H 1025.5 -3.11966 0.0915933 0
M  V30 11024 N 1025.8 -0.366053 -1.5329 0
M  V30 11025 C 1027.22 -0.0150149 -1.59593 0
M  V30 11026 C 1027.42 1.46719 -1.38116 0
M  V30 11027 O 1026.47 2.22884 -1.18656 0
M  V30 11028 C 1027.79 -0.471374 -2.96982 0
M  V30 11029 C 1029.33 -0.425634 -3.10092 0
M  V30 11030 C 1029.81 -0.857812 -4.49895 0
M  V30 11031 N 1031.3 -0.81289 -4.56011 0
M  V30 11032 C 1032.04 -1.11898 -5.62376 0
M  V30 11033 N 1031.53 -1.49436 -6.76491 0
M  V30 11034 N 1033.32 -1.04174 -5.52362 0
M  V30 11035 H 1025.48 -1.33127 -1.65502 0
M  V30 11036 H 1027.74 -0.544172 -0.776261 0
M  V30 11037 H 1027.44 -1.50569 -3.1784 0
M  V30 11038 H 1027.32 0.141764 -3.76934 0
M  V30 11039 H 1029.71 0.599548 -2.88945 0
M  V30 11040 H 1029.79 -1.07427 -2.32149 0
M  V30 11041 H 1029.43 -1.88111 -4.7178 0
M  V30 11042 H 1029.36 -0.186419 -5.2627 0
M  V30 11043 H 1031.85 -0.536343 -3.74075 0
M  V30 11044 H 1032.16 -1.71217 -7.53594 0
M  V30 11045 H 1030.51 -1.53302 -6.77882 0
M  V30 11046 H 1033.7 -0.747654 -4.62091 0
M  V30 11047 H 1033.87 -1.28362 -6.35159 0
M  V30 11048 N 1027.28 1.57312 -0.0952337 0
M  V30 11049 C 1028.7 1.57445 0.261416 0
M  V30 11050 C 1028.9 1.10639 1.68408 0
M  V30 11051 O 1027.95 0.782912 2.40056 0
M  V30 11052 C 1029.26 3.00659 0.0497206 0
M  V30 11053 C 1030.81 3.1278 0.117459 0
M  V30 11054 C 1031.29 4.57952 -0.0662441 0
M  V30 11055 N 1032.78 4.63199 -0.0114146 0
M  V30 11056 C 1033.51 5.73255 -0.128799 0
M  V30 11057 N 1033.01 6.92146 -0.301026 0
M  V30 11058 N 1034.8 5.62056 -0.0700599 0
M  V30 11059 H 1026.95 1.86045 -1.02475 0
M  V30 11060 H 1029.22 0.858726 -0.401614 0
M  V30 11061 H 1028.92 3.39102 -0.932888 0
M  V30 11062 H 1028.8 3.68792 0.791975 0
M  V30 11063 H 1031.18 2.74209 1.09057 0
M  V30 11064 H 1031.26 2.47238 -0.656288 0
M  V30 11065 H 1030.91 4.97217 -1.03623 0
M  V30 11066 H 1030.84 5.21555 0.727198 0
M  V30 11067 H 1033.33 3.77712 0.119154 0
M  V30 11068 H 1033.64 7.71855 -0.382104 0
M  V30 11069 H 1031.99 6.94184 -0.336695 0
M  V30 11070 H 1035.18 4.68057 0.0633587 0
M  V30 11071 H 1035.35 6.4779 -0.164991 0
M  V30 11072 N 1028.76 -0.17846 1.56586 0
M  V30 11073 C 1030.01 -0.894502 1.8078 0
M  V30 11074 C 1030.32 -1.8372 0.67129 0
M  V30 11075 O 1031.53 -2.59509 0.797971 0
M  V30 11076 C 1029.98 -1.64109 3.20306 0
M  V30 11077 C 1029.59 -0.742387 4.41806 0
M  V30 11078 C 1031.33 -2.34578 3.53798 0
M  V30 11079 C 1029.24 -1.4888 5.72354 0
M  V30 11080 H 1028.17 -0.33776 0.674117 0
M  V30 11081 H 1030.82 -0.14752 1.82906 0
M  V30 11082 H 1029.2 -2.43257 3.12477 0
M  V30 11083 H 1030.38 0.011615 4.60799 0
M  V30 11084 H 1028.69 -0.147705 4.16138 0
M  V30 11085 H 1031.29 -2.91004 4.48577 0
M  V30 11086 H 1031.63 -3.09572 2.78336 0
M  V30 11087 H 1032.17 -1.62381 3.63149 0
M  V30 11088 H 1028.9 -0.781325 6.50827 0
M  V30 11089 H 1028.42 -2.21631 5.57351 0
M  V30 11090 H 1030.1 -2.03819 6.14058 0
M  V30 11091 N 1030.24 -1.51135 -0.446768 0
M  V30 11092 C 1031.46 -1.67129 -1.21965 0
M  V30 11093 C 1031.88 -0.36467 -1.85245 0
M  V30 11094 O 1031.24 0.655908 -1.70306 0
M  V30 11095 C 1031.29 -2.78016 -2.31061 0
M  V30 11096 O 1031.01 -4.03615 -1.70371 0
M  V30 11097 C 1032.51 -3.05197 -3.21511 0
M  V30 11098 H 1029.73 -0.561111 -0.367961 0
M  V30 11099 H 1032.27 -1.97499 -0.530517 0
M  V30 11100 H 1030.43 -2.50272 -2.95707 0
M  V30 11101 H 1030.84 -4.65126 -2.424 0
M  V30 11102 H 1032.32 -3.8639 -3.94216 0
M  V30 11103 H 1032.79 -2.17228 -3.81718 0
M  V30 11104 H 1033.4 -3.34565 -2.62577 0
M  V30 11105 N 1031.71 0.701592 -1.41122 0
M  V30 11106 C 1032.66 1.83691 -1.4269 0
M  V30 11107 C 1033.66 1.6662 -0.305658 0
M  V30 11108 O 1034.86 1.73554 -0.477392 0
M  V30 11109 H 1031.24 0.605222 -0.44633 0
M  V30 11110 H 1033.21 1.79485 -2.38386 0
M  V30 11111 C 1031.96 3.21666 -1.32008 0
M  V30 11112 H 1031.28 3.35416 -2.17569 0
M  V30 11113 H 1032.72 4.012 -1.37165 0
M  V30 11114 C 1031.18 3.36885 -0.0317678 0
M  V30 11115 O 1031.71 3.90885 0.925836 0
M  V30 11116 N 1029.91 2.90569 0.0423401 0
M  V30 11117 H 1029.46 2.46812 -0.737673 0
M  V30 11118 H 1029.42 3.0113 0.903764 0
M  V30 11119 N 1033.19 1.2685 0.935242 0
M  V30 11120 C 1034.14 1.08923 2.03481 0
M  V30 11121 C 1035.11 -0.00749786 1.66098 0
M  V30 11122 O 1036.29 0.153401 1.90182 0
M  V30 11123 C 1033.43 0.734529 3.37192 0
M  V30 11124 C 1032.55 1.90812 3.87576 0
M  V30 11125 C 1031.68 1.49599 5.097 0
M  V30 11126 C 1030.72 2.63752 5.5236 0
M  V30 11127 N 1029.86 2.23179 6.65684 0
M  V30 11128 H 1034.7 2.03016 2.18148 0
M  V30 11129 H 1032.23 1.01072 1.06878 0
M  V30 11130 H 1034.19 0.509734 4.14074 0
M  V30 11131 H 1032.82 -0.169438 3.22355 0
M  V30 11132 H 1031.87 2.24567 3.0704 0
M  V30 11133 H 1033.19 2.7647 4.1517 0
M  V30 11134 H 1032.34 1.23199 5.9406 0
M  V30 11135 H 1031.08 0.61039 4.83865 0
M  V30 11136 H 1030.08 2.90874 4.66554 0
M  V30 11137 H 1031.31 3.5292 5.80193 0
M  V30 11138 H 1029.26 1.37061 6.41522 0
M  V30 11139 H 1029.17 3.02379 6.92895 0
M  V30 11140 H 1030.44 2.00007 7.53404 0
M  V30 11141 N 1034.67 -1.14067 1.0875 0
M  V30 11142 C 1035.91 -1.8684 0.828873 0
M  V30 11143 C 1036.27 -1.81235 -0.633879 0
M  V30 11144 O 1037.48 -2.49178 -1.00815 0
M  V30 11145 C 1035.75 -3.31299 1.34073 0
M  V30 11146 S 1037.31 -4.21645 1.21494 0
M  V30 11147 H 1034.12 -0.644622 0.299972 0
M  V30 11148 H 1036.73 -1.37526 1.38949 0
M  V30 11149 H 1035.43 -3.32929 2.39972 0
M  V30 11150 H 1034.96 -3.85672 0.775944 0
M  V30 11151 H 1036.98 -4.95937 0.161446 0
M  V30 11152 N 1036.15 -0.873678 -1.31166 0
M  V30 11153 C 1037.56 -0.566109 -1.49223 0
M  V30 11154 C 1037.76 0.898889 -1.80339 0
M  V30 11155 O 1036.82 1.68084 -1.88425 0
M  V30 11156 C 1038.13 -1.46952 -2.62346 0
M  V30 11157 C 1039.68 -1.47195 -2.76229 0
M  V30 11158 C 1040.16 -2.36102 -3.92454 0
M  V30 11159 N 1041.65 -2.34003 -3.99746 0
M  V30 11160 C 1042.38 -2.99513 -4.88958 0
M  V30 11161 N 1041.88 -3.74206 -5.83045 0
M  V30 11162 N 1043.67 -2.88802 -4.82234 0
M  V30 11163 H 1035.82 -1.82156 -1.09239 0
M  V30 11164 H 1038.09 -0.779086 -0.54012 0
M  V30 11165 H 1037.79 -2.51213 -2.4614 0
M  V30 11166 H 1037.67 -1.17077 -3.5857 0
M  V30 11167 H 1040.05 -0.436902 -2.91848 0
M  V30 11168 H 1040.13 -1.81095 -1.80661 0
M  V30 11169 H 1039.78 -3.39685 -3.77593 0
M  V30 11170 H 1039.71 -1.99524 -4.87337 0
M  V30 11171 H 1042.2 -1.79713 -3.32433 0
M  V30 11172 H 1042.51 -4.21312 -6.47855 0
M  V30 11173 H 1040.86 -3.78314 -5.83012 0
M  V30 11174 H 1044.05 -2.29984 -4.07707 0
M  V30 11175 H 1044.22 -3.40136 -5.51554 0
M  V30 11176 N 1037.63 1.44308 -0.633487 0
M  V30 11177 C 1038.85 2.06897 -0.144347 0
M  V30 11178 C 1039.28 1.47045 1.173 0
M  V30 11179 O 1038.63 0.572806 1.72013 0
M  V30 11180 C 1038.68 3.60571 -0.0456324 0
M  V30 11181 O 1037.79 4.0015 0.997682 0
M  V30 11182 H 1037.13 0.658427 -0.0858499 0
M  V30 11183 H 1039.66 1.85142 -0.870833 0
M  V30 11184 H 1039.67 4.07745 0.144178 0
M  V30 11185 H 1038.34 4.03515 -1.0074 0
M  V30 11186 H 1036.92 3.64603 0.782252 0
M  V30 11187 N 1039.1 0.374177 1.53094 0
M  V30 11188 C 1040.33 -0.215903 2.06273 0
M  V30 11189 C 1040.75 -1.40979 1.24526 0
M  V30 11190 O 1040.11 -1.79331 0.266462 0
M  V30 11191 C 1040.16 -0.579089 3.5592 0
M  V30 11192 O 1039.26 -1.67516 3.76845 0
M  V30 11193 H 1038.61 -0.0293981 0.663349 0
M  V30 11194 H 1041.14 0.537271 1.9742 0
M  V30 11195 H 1041.15 -0.847678 3.99097 0
M  V30 11196 H 1039.82 0.293843 4.14861 0
M  V30 11197 H 1038.4 -1.40146 3.45563 0
M  V30 11198 N 1040.58 -1.57259 0.103575 0
M  V30 11199 C 1041.53 -2.11032 -0.863101 0
M  V30 11200 C 1042.52 -1.02737 -1.2383 0
M  V30 11201 O 1043.71 -1.28997 -1.21197 0
M  V30 11202 C 1040.84 -2.70099 -2.11899 0
M  V30 11203 C 1039.92 -3.85451 -1.76885 0
M  V30 11204 N 1040.31 -4.93137 -1.12469 0
M  V30 11205 C 1038.61 -3.95346 -2.06441 0
M  V30 11206 C 1039.31 -5.73681 -0.962527 0
M  V30 11207 N 1038.29 -5.22992 -1.48258 0
M  V30 11208 H 1042.09 -2.91671 -0.361264 0
M  V30 11209 H 1039.61 -1.62096 -0.0993794 0
M  V30 11210 H 1041.6 -3.06957 -2.82104 0
M  V30 11211 H 1040.26 -1.90918 -2.62641 0
M  V30 11212 H 1041.27 -5.11832 -0.790489 0
M  V30 11213 H 1037.95 -3.27185 -2.59338 0
M  V30 11214 H 1039.34 -6.70337 -0.458098 0
M  V30 11215 N 1042.06 0.170153 -1.56679 0
M  V30 11216 C 1043.29 0.90618 -1.86556 0
M  V30 11217 C 1043.71 1.74986 -0.690044 0
M  V30 11218 O 1043.07 1.77672 0.360862 0
M  V30 11219 C 1043.12 1.75777 -3.14857 0
M  V30 11220 O 1042.22 2.85952 -2.97162 0
M  V30 11221 H 1041.56 0.253781 -0.613589 0
M  V30 11222 H 1044.09 0.167943 -2.0391 0
M  V30 11223 H 1044.1 2.15747 -3.46291 0
M  V30 11224 H 1042.78 1.13807 -4.00026 0
M  V30 11225 H 1041.35 2.49557 -2.77084 0
M  V30 11226 N 1043.54 1.5137 0.438746 0
M  V30 11227 C 1044.45 1.75424 1.55768 0
M  V30 11228 C 1045.46 0.638409 1.61865 0
M  V30 11229 O 1046.64 0.9205 1.79133 0
M  V30 11230 C 1043.71 1.87288 2.9176 0
M  V30 11231 C 1042.77 3.11137 2.95791 0
M  V30 11232 C 1042 3.22425 4.25297 0
M  V30 11233 O 1042.22 2.39688 5.17596 0
M  V30 11234 O 1041.16 4.15393 4.35583 0
M  V30 11235 H 1044.98 2.70339 1.38386 0
M  V30 11236 H 1042.57 1.35854 0.621609 0
M  V30 11237 H 1044.45 1.97085 3.72472 0
M  V30 11238 H 1043.12 0.955599 3.09273 0
M  V30 11239 H 1042.03 3.06819 2.1404 0
M  V30 11240 H 1043.36 4.02549 2.83223 0
M  V30 11241 N 1045.02 -0.694098 1.41492 0
M  V30 11242 C 1046.43 -1.00487 1.23994 0
M  V30 11243 C 1046.63 -2.01078 0.130346 0
M  V30 11244 O 1045.69 -2.47403 -0.504775 0
M  V30 11245 C 1047 -1.52808 2.58979 0
M  V30 11246 C 1048.55 -1.64684 2.66173 0
M  V30 11247 C 1049.02 -2.20406 4.01479 0
M  V30 11248 N 1050.52 -2.27765 4.03333 0
M  V30 11249 C 1051.25 -2.7191 5.04829 0
M  V30 11250 N 1050.75 -3.1565 6.16714 0
M  V30 11251 N 1052.54 -2.71487 4.9219 0
M  V30 11252 H 1044.69 -0.027746 2.12382 0
M  V30 11253 H 1046.95 -0.0748741 0.945039 0
M  V30 11254 H 1046.66 -0.863519 3.40934 0
M  V30 11255 H 1046.53 -2.50998 2.81566 0
M  V30 11256 H 1048.92 -2.30251 1.84576 0
M  V30 11257 H 1049 -0.65035 2.47395 0
M  V30 11258 H 1048.65 -1.55454 4.83525 0
M  V30 11259 H 1048.58 -3.2081 4.17599 0
M  V30 11260 H 1051.07 -1.96899 3.22551 0
M  V30 11261 H 1051.38 -3.47966 6.90029 0
M  V30 11262 H 1049.72 -3.13555 6.20248 0
M  V30 11263 H 1052.92 -2.36666 4.03865 0
M  V30 11264 H 1053.09 -3.05573 5.71427 0
M  V30 11265 N 1046.49 -1.27344 -0.928501 0
M  V30 11266 C 1047.44 -1.10001 -2.029 0
M  V30 11267 C 1048.41 -0.00131084 -1.661 0
M  V30 11268 O 1049.6 -0.163485 -1.90098 0
M  V30 11269 C 1046.74 -0.7524 -3.36798 0
M  V30 11270 C 1045.85 -1.92865 -3.86558 0
M  V30 11271 C 1044.98 -1.52299 -5.08899 0
M  V30 11272 C 1044.02 -2.66677 -5.50953 0
M  V30 11273 N 1043.16 -2.26706 -6.64491 0
M  V30 11274 H 1048 -2.0417 -2.17068 0
M  V30 11275 H 1045.54 -1.01637 -1.0634 0
M  V30 11276 H 1047.5 -0.531687 -4.13798 0
M  V30 11277 H 1046.13 0.15234 -3.2244 0
M  V30 11278 H 1045.18 -2.26192 -3.05845 0
M  V30 11279 H 1046.49 -2.78668 -4.13698 0
M  V30 11280 H 1045.64 -1.26348 -5.93398 0
M  V30 11281 H 1044.38 -0.636042 -4.83535 0
M  V30 11282 H 1043.39 -2.93344 -4.65004 0
M  V30 11283 H 1044.61 -3.55992 -5.78313 0
M  V30 11284 H 1042.56 -1.40462 -6.40786 0
M  V30 11285 H 1042.48 -3.06049 -6.91281 0
M  V30 11286 H 1043.74 -2.04 -7.52333 0
M  V30 11287 N 1047.97 1.13488 -1.09353 0
M  V30 11288 C 1049.2 1.89133 -0.85108 0
M  V30 11289 C 1049.62 1.78542 0.591976 0
M  V30 11290 O 1048.98 1.13243 1.41583 0
M  V30 11291 C 1049.03 3.36736 -1.29001 0
M  V30 11292 O 1048.13 4.09959 -0.447993 0
M  V30 11293 H 1047.47 0.58809 -0.308296 0
M  V30 11294 H 1050 1.43593 -1.45747 0
M  V30 11295 H 1050.01 3.87564 -1.27508 0
M  V30 11296 H 1048.69 3.43762 -2.34095 0
M  V30 11297 H 1047.27 3.69155 -0.52717 0
M  V30 11298 N 1049.45 0.880621 1.30701 0
M  V30 11299 C 1050.4 0.333562 2.30196 0
M  V30 11300 C 1051.39 -0.557092 1.59978 0
M  V30 11301 O 1052.6 -0.442009 1.74489 0
M  V30 11302 H 1048.97 0.0892036 0.746691 0
M  V30 11303 H 1050.95 1.18644 2.73799 0
M  V30 11304 C 1049.69 -0.440731 3.44895 0
M  V30 11305 H 1049.02 0.235353 3.99107 0
M  V30 11306 H 1050.46 -0.788676 4.166 0
M  V30 11307 C 1048.92 -1.63613 2.94504 0
M  V30 11308 O 1049.45 -2.73549 2.94166 0
M  V30 11309 N 1047.65 -1.47183 2.5057 0
M  V30 11310 H 1047.2 -0.577479 2.51044 0
M  V30 11311 H 1047.16 -2.27303 2.17211 0
M  V30 11312 N 1050.93 -1.4397 0.641131 0
M  V30 11313 C 1052.18 -2.01163 0.147026 0
M  V30 11314 C 1052.49 -1.51099 -1.24211 0
M  V30 11315 O 1053.7 -2.00487 -1.83078 0
M  V30 11316 C 1052.15 -3.59275 0.212068 0
M  V30 11317 C 1051.76 -4.18334 1.60314 0
M  V30 11318 C 1053.51 -4.23903 -0.225057 0
M  V30 11319 C 1051.41 -5.68701 1.62276 0
M  V30 11320 H 1050.34 -0.75226 0.051201 0
M  V30 11321 H 1052.99 -1.65075 0.801396 0
M  V30 11322 H 1051.38 -3.92708 -0.509589 0
M  V30 11323 H 1052.55 -3.96422 2.34918 0
M  V30 11324 H 1050.86 -3.66031 1.9852 0
M  V30 11325 H 1053.46 -5.34205 -0.230074 0
M  V30 11326 H 1053.8 -3.96956 -1.25426 0
M  V30 11327 H 1054.34 -3.95309 0.44444 0
M  V30 11328 H 1051.08 -6.00397 2.63066 0
M  V30 11329 H 1050.6 -5.92705 0.919797 0
M  V30 11330 H 1052.28 -6.32521 1.36112 0
M  V30 11331 N 1052.41 -0.382291 -1.52893 0
M  V30 11332 C 1053.82 -0.031941 -1.59568 0
M  V30 11333 C 1054.02 1.45245 -1.39664 0
M  V30 11334 O 1053.08 2.21612 -1.21013 0
M  V30 11335 C 1054.39 -0.502846 -2.96466 0
M  V30 11336 C 1055.94 -0.4585 -3.09624 0
M  V30 11337 C 1056.42 -0.905481 -4.4896 0
M  V30 11338 N 1057.91 -0.861211 -4.55124 0
M  V30 11339 C 1058.64 -1.17856 -5.61157 0
M  V30 11340 N 1058.14 -1.56603 -6.74868 0
M  V30 11341 N 1059.93 -1.10027 -5.51226 0
M  V30 11342 H 1052.08 -1.34875 -1.64081 0
M  V30 11343 H 1054.34 -0.552375 -0.770446 0
M  V30 11344 H 1054.05 -1.53931 -3.16225 0
M  V30 11345 H 1053.92 0.101777 -3.77063 0
M  V30 11346 H 1056.31 0.568868 -2.89565 0
M  V30 11347 H 1056.39 -1.09884 -2.30996 0
M  V30 11348 H 1056.04 -1.93105 -4.69759 0
M  V30 11349 H 1055.97 -0.242227 -5.26043 0
M  V30 11350 H 1058.46 -0.575988 -3.73485 0
M  V30 11351 H 1058.77 -1.792 -7.51736 0
M  V30 11352 H 1057.12 -1.60484 -6.76217 0
M  V30 11353 H 1060.31 -0.796623 -4.61272 0
M  V30 11354 H 1060.48 -1.35091 -6.33762 0
M  V30 11355 N 1053.89 1.57202 -0.111913 0
M  V30 11356 C 1055.11 1.99297 0.555713 0
M  V30 11357 C 1055.53 0.991444 1.60673 0
M  V30 11358 O 1054.89 -0.0166672 1.82492 0
M  V30 11359 C 1054.94 3.41413 1.18826 0
M  V30 11360 O 1054.66 4.37733 0.179261 0
M  V30 11361 C 1056.16 3.98602 1.93989 0
M  V30 11362 H 1053.38 0.654543 0.147695 0
M  V30 11363 H 1055.92 2.03557 -0.196163 0
M  V30 11364 H 1054.08 3.38115 1.89096 0
M  V30 11365 H 1054.49 5.20606 0.637935 0
M  V30 11366 H 1055.97 5.00143 2.33584 0
M  V30 11367 H 1056.44 3.37349 2.81233 0
M  V30 11368 H 1057.05 4.05424 1.28497 0
M  V30 11369 N 1055.36 -0.161842 1.56767 0
M  V30 11370 C 1056.78 -0.51396 1.51098 0
M  V30 11371 C 1056.98 -1.84158 0.817815 0
M  V30 11372 O 1056.04 -2.49592 0.382133 0
M  V30 11373 C 1057.35 -0.537966 2.95849 0
M  V30 11374 C 1058.9 -0.624512 3.06706 0
M  V30 11375 C 1059.37 -0.679322 4.52934 0
M  V30 11376 N 1060.86 -0.741953 4.57219 0
M  V30 11377 C 1061.6 -0.805096 5.6772 0
M  V30 11378 N 1061.09 -0.828492 6.87828 0
M  V30 11379 N 1062.89 -0.844843 5.55715 0
M  V30 11380 H 1055.04 0.708581 2.00232 0
M  V30 11381 H 1057.3 0.25663 0.912603 0
M  V30 11382 H 1057.01 0.369052 3.49758 0
M  V30 11383 H 1056.88 -1.38113 3.51005 0
M  V30 11384 H 1059.27 -1.52195 2.52825 0
M  V30 11385 H 1059.35 0.245515 2.54619 0
M  V30 11386 H 1058.99 0.213901 5.07449 0
M  V30 11387 H 1058.92 -1.56563 5.02788 0
M  V30 11388 H 1061.41 -0.731772 3.70747 0
M  V30 11389 H 1061.73 -0.878109 7.67795 0
M  V30 11390 H 1060.07 -0.796612 6.9042 0
M  V30 11391 H 1063.26 -0.823632 4.60797 0
M  V30 11392 H 1063.44 -0.890588 6.41851 0
M  V30 11393 N 1056.84 -1.516 -0.430713 0
M  V30 11394 C 1057.77 -1.76342 -1.53054 0
M  V30 11395 C 1058.75 -0.61349 -1.58652 0
M  V30 11396 O 1059.94 -0.856888 -1.74273 0
M  V30 11397 C 1057.07 -1.8945 -2.91077 0
M  V30 11398 C 1056.02 -3.04928 -3.00339 0
M  V30 11399 C 1055.35 -3.03228 -4.40405 0
M  V30 11400 C 1056.65 -4.44777 -2.73808 0
M  V30 11401 H 1058.34 -2.68435 -1.326 0
M  V30 11402 H 1055.89 -1.29171 -0.636466 0
M  V30 11403 H 1057.84 -2.05343 -3.67984 0
M  V30 11404 H 1056.56 -0.940114 -3.12777 0
M  V30 11405 H 1055.22 -2.88751 -2.25872 0
M  V30 11406 H 1054.87 -2.05553 -4.59083 0
M  V30 11407 H 1054.57 -3.80776 -4.47531 0
M  V30 11408 H 1056.1 -3.21222 -5.19277 0
M  V30 11409 H 1057.51 -4.6127 -3.40445 0
M  V30 11410 H 1055.91 -5.2408 -2.92335 0
M  V30 11411 H 1056.98 -4.54358 -1.69372 0
M  V30 11412 N 1058.32 0.686584 -1.41858 0
M  V30 11413 C 1059.54 1.4802 -1.45275 0
M  V30 11414 C 1059.97 1.87997 -0.0621297 0
M  V30 11415 O 1059.33 1.55226 0.936733 0
M  V30 11416 C 1059.38 2.7133 -2.37513 0
M  V30 11417 O 1058.48 3.69159 -1.83836 0
M  V30 11418 H 1057.82 0.445152 -0.492682 0
M  V30 11419 H 1060.35 0.843161 -1.86419 0
M  V30 11420 H 1060.36 3.19537 -2.53693 0
M  V30 11421 H 1059.04 2.41571 -3.3855 0
M  V30 11422 H 1057.61 3.28134 -1.77151 0
M  V30 11423 N 1059.8 1.27835 0.921735 0
M  V30 11424 C 1060.73 1.06874 2.02758 0
M  V30 11425 C 1061.74 0.0229418 1.62784 0
M  V30 11426 O 1062.93 0.265145 1.7652 0
M  V30 11427 C 1060.03 0.60037 3.3354 0
M  V30 11428 C 1059.2 1.71979 4.02172 0
M  V30 11429 C 1058.26 1.24615 5.11231 0
M  V30 11430 O 1057.29 1.94692 5.34868 0
M  V30 11431 N 1058.49 0.105021 5.80405 0
M  V30 11432 H 1061.26 2.02105 2.213 0
M  V30 11433 H 1058.82 1.19481 1.09251 0
M  V30 11434 H 1060.81 0.267281 4.03816 0
M  V30 11435 H 1059.38 -0.258872 3.11526 0
M  V30 11436 H 1058.6 2.22287 3.25549 0
M  V30 11437 H 1059.89 2.47092 4.44773 0
M  V30 11438 H 1059.29 -0.479745 5.63662 0
M  V30 11439 H 1057.84 -0.168846 6.51581 0
M  V30 11440 N 1061.28 -1.12907 1.09954 0
M  V30 11441 C 1062.22 -2.18485 0.743848 0
M  V30 11442 C 1063.19 -1.63766 -0.277494 0
M  V30 11443 O 1064.38 -1.90146 -0.157899 0
M  V30 11444 C 1061.52 -3.44649 0.176437 0
M  V30 11445 C 1060.63 -4.13445 1.25248 0
M  V30 11446 C 1059.77 -5.27242 0.647242 0
M  V30 11447 C 1058.8 -5.87897 1.70421 0
M  V30 11448 N 1057.94 -6.93116 1.1196 0
M  V30 11449 H 1062.78 -2.48257 1.64841 0
M  V30 11450 H 1060.32 -1.21891 0.823471 0
M  V30 11451 H 1062.28 -4.16852 -0.170384 0
M  V30 11452 H 1060.91 -3.15309 -0.69137 0
M  V30 11453 H 1059.96 -3.39471 1.7165 0
M  V30 11454 H 1061.27 -4.54601 2.05279 0
M  V30 11455 H 1060.42 -6.06186 0.249579 0
M  V30 11456 H 1059.16 -4.87351 -0.184556 0
M  V30 11457 H 1058.17 -5.07643 2.11136 0
M  V30 11458 H 1059.39 -6.2986 2.53877 0
M  V30 11459 H 1057.34 -6.55271 0.309181 0
M  V30 11460 H 1057.26 -7.32843 1.85681 0
M  V30 11461 H 1058.52 -7.759 0.748326 0
M  V30 11462 N 1062.75 -0.88754 -1.30232 0
M  V30 11463 C 1063.7 -0.354497 -2.28061 0
M  V30 11464 C 1064.67 0.556732 -1.56492 0
M  V30 11465 O 1065.86 0.484597 -1.84543 0
M  V30 11466 C 1063 0.422701 -3.42501 0
M  V30 11467 C 1062.11 -0.518036 -4.28883 0
M  V30 11468 C 1061.24 0.275011 -5.30488 0
M  V30 11469 C 1060.28 -0.661032 -6.0852 0
M  V30 11470 N 1059.42 0.0968509 -7.02033 0
M  V30 11471 H 1064.26 -1.19388 -2.73039 0
M  V30 11472 H 1061.8 -0.600091 -1.34303 0
M  V30 11473 H 1063.75 0.889249 -4.07613 0
M  V30 11474 H 1062.38 1.22664 -2.98586 0
M  V30 11475 H 1061.44 -1.10308 -3.64055 0
M  V30 11476 H 1062.75 -1.23504 -4.83268 0
M  V30 11477 H 1061.9 0.803301 -6.01358 0
M  V30 11478 H 1060.64 1.02522 -4.76802 0
M  V30 11479 H 1059.65 -1.20093 -5.36524 0
M  V30 11480 H 1060.87 -1.41037 -6.64293 0
M  V30 11481 H 1058.82 0.829548 -6.50734 0
M  V30 11482 H 1058.73 -0.560476 -7.5392 0
M  V30 11483 H 1060 0.6058 -7.77142 0
M  V30 11484 N 1064.23 1.43628 -0.648757 0
M  V30 11485 C 1065.46 2.06217 -0.167945 0
M  V30 11486 C 1065.88 1.486 1.16462 0
M  V30 11487 O 1065.23 0.61559 1.71804 0
M  V30 11488 C 1065.28 3.6144 -0.0660114 0
M  V30 11489 O 1065 4.16914 -1.34589 0
M  V30 11490 C 1066.51 4.41097 0.441408 0
M  V30 11491 H 1063.73 0.665228 -0.0878237 0
M  V30 11492 H 1066.27 1.84207 -0.888144 0
M  V30 11493 H 1064.42 3.82651 0.604722 0
M  V30 11494 H 1064.84 5.10537 -1.20218 0
M  V30 11495 H 1066.31 5.50066 0.461697 0
M  V30 11496 H 1066.79 4.13803 1.47187 0
M  V30 11497 H 1067.4 4.24845 -0.19668 0
M  V30 11498 N 1065.71 0.390394 1.52688 0
M  V30 11499 C 1066.66 -0.461191 2.23287 0
M  V30 11500 C 1067.64 -1.02875 1.23716 0
M  V30 11501 O 1068.84 -0.954675 1.49047 0
M  V30 11502 C 1065.97 -1.58736 3.04397 0
M  V30 11503 C 1065.05 -1.03149 4.11365 0
M  V30 11504 N 1065.44 -0.20066 5.05402 0
M  V30 11505 C 1063.74 -1.30388 4.26515 0
M  V30 11506 C 1064.44 0.106548 5.81602 0
M  V30 11507 N 1063.42 -0.497687 5.41317 0
M  V30 11508 H 1067.22 0.1801 2.93348 0
M  V30 11509 H 1064.73 0.199761 1.61167 0
M  V30 11510 H 1066.73 -2.20986 3.53512 0
M  V30 11511 H 1065.39 -2.23147 2.35872 0
M  V30 11512 H 1066.4 0.162168 5.17646 0
M  V30 11513 H 1063.08 -1.94894 3.69219 0
M  V30 11514 H 1064.47 0.779778 6.6736 0
M  V30 11515 N 1067.19 -1.57141 0.120249 0
M  V30 11516 C 1068.12 -2.11097 -0.8668 0
M  V30 11517 C 1069.1 -1.02768 -1.26006 0
M  V30 11518 O 1070.28 -1.3043 -1.36089 0
M  V30 11519 C 1067.41 -2.6087 -2.1602 0
M  V30 11520 C 1066.46 -3.81095 -1.91491 0
M  V30 11521 S 1067.29 -5.23441 -1.13005 0
M  V30 11522 C 1068.45 -5.76583 -2.43521 0
M  V30 11523 H 1068.68 -2.94489 -0.407871 0
M  V30 11524 H 1066.21 -1.54116 -0.0935491 0
M  V30 11525 H 1068.17 -2.90201 -2.90333 0
M  V30 11526 H 1066.83 -1.77657 -2.5903 0
M  V30 11527 H 1066.02 -4.14074 -2.8733 0
M  V30 11528 H 1065.63 -3.52387 -1.25297 0
M  V30 11529 H 1067.92 -5.86384 -3.39352 0
M  V30 11530 H 1068.86 -6.74644 -2.15085 0
M  V30 11531 H 1069.27 -5.04657 -2.52946 0
M  V30 11532 N 1068.67 0.153526 -1.5685 0
M  V30 11533 C 1069.61 1.18973 -1.97773 0
M  V30 11534 C 1070.58 1.43041 -0.844311 0
M  V30 11535 O 1071.77 1.55484 -1.10586 0
M  V30 11536 C 1068.91 2.51981 -2.35795 0
M  V30 11537 C 1068.02 2.35143 -3.62397 0
M  V30 11538 C 1067.16 3.61141 -3.89552 0
M  V30 11539 C 1066.2 3.39311 -5.09445 0
M  V30 11540 N 1065.33 4.57423 -5.32643 0
M  V30 11541 H 1070.17 0.833758 -2.86099 0
M  V30 11542 H 1067.71 0.400252 -1.4155 0
M  V30 11543 H 1069.67 3.29527 -2.55867 0
M  V30 11544 H 1068.3 2.85539 -1.50557 0
M  V30 11545 H 1067.35 1.48684 -3.50139 0
M  V30 11546 H 1068.66 2.14969 -4.501 0
M  V30 11547 H 1067.82 4.47117 -4.10087 0
M  V30 11548 H 1066.55 3.84312 -3.00259 0
M  V30 11549 H 1065.56 2.51723 -4.8879 0
M  V30 11550 H 1066.78 3.17545 -6.00285 0
M  V30 11551 H 1064.73 4.8078 -4.46303 0
M  V30 11552 H 1064.65 4.40228 -6.14602 0
M  V30 11553 H 1065.92 5.44632 -5.57671 0
M  V30 11554 N 1070.14 1.51827 0.422667 0
M  V30 11555 C 1071.38 1.66888 1.18016 0
M  V30 11556 C 1071.75 0.383859 1.88124 0
M  V30 11557 O 1072.95 0.410413 2.65648 0
M  V30 11558 C 1071.22 2.84842 2.1587 0
M  V30 11559 S 1072.78 3.20312 2.99909 0
M  V30 11560 H 1069.6 0.58781 0.4 0
M  V30 11561 H 1072.2 1.89779 0.46948 0
M  V30 11562 H 1070.9 3.76629 1.63029 0
M  V30 11563 H 1070.43 2.64183 2.91497 0
M  V30 11564 H 1072.45 2.67884 4.17675 0
M  V30 11565 N 1071.62 -0.679052 1.4222 0
M  V30 11566 C 1073.03 -1.25953 1.37815 0
M  V30 11567 C 1073.38 -1.96077 0.0693215 0
M  V30 11568 O 1072.51 -1.99765 -0.832047 0
M  V30 11569 C 1073.1 -2.29063 2.49631 0
M  V30 11570 C 1071.66 -2.82647 2.48571 0
M  V30 11571 C 1070.81 -1.56909 2.28637 0
M  V30 11572 H 1073.76 -0.472714 1.51496 0
M  V30 11573 H 1073.78 -3.10708 2.19638 0
M  V30 11574 H 1073.29 -1.77996 3.44876 0
M  V30 11575 H 1071.4 -3.37846 1.57132 0
M  V30 11576 H 1071.51 -3.31952 3.45463 0
M  V30 11577 H 1069.87 -1.83323 1.76819 0
M  V30 11578 H 1070.66 -1.07814 3.25931 0
M  V30 11579 N 1073.1 -1.28322 -0.914942 0
M  V30 11580 C 1074.05 -1.12146 -2.01722 0
M  V30 11581 C 1075.02 -0.0189279 -1.66089 0
M  V30 11582 O 1076.2 -0.183638 -1.89914 0
M  V30 11583 C 1073.34 -0.78808 -3.35981 0
M  V30 11584 C 1072.46 -1.96954 -3.84491 0
M  V30 11585 C 1071.59 -1.57688 -5.07255 0
M  V30 11586 C 1070.63 -2.72506 -5.48094 0
M  V30 11587 N 1069.77 -2.33741 -6.62049 0
M  V30 11588 H 1074.61 -2.06461 -2.1489 0
M  V30 11589 H 1072.14 -1.0276 -1.05256 0
M  V30 11590 H 1074.1 -0.575546 -4.13211 0
M  V30 11591 H 1072.73 0.118132 -3.22584 0
M  V30 11592 H 1071.78 -2.29423 -3.03429 0
M  V30 11593 H 1073.1 -2.8304 -4.10719 0
M  V30 11594 H 1072.25 -1.32634 -5.92025 0
M  V30 11595 H 1070.99 -0.687291 -4.82833 0
M  V30 11596 H 1069.99 -2.9826 -4.61867 0
M  V30 11597 H 1071.22 -3.62106 -5.74505 0
M  V30 11598 H 1069.16 -1.4725 -6.3926 0
M  V30 11599 H 1069.08 -3.13364 -6.87997 0
M  V30 11600 H 1070.35 -2.11968 -7.50127 0
M  V30 11601 N 1074.58 1.12322 -1.10551 0
M  V30 11602 C 1075.81 1.87679 -0.87087 0
M  V30 11603 C 1076.22 1.79711 0.578733 0
M  V30 11604 O 1075.58 1.17185 1.39907 0
M  V30 11605 C 1075.63 3.36846 -1.31213 0
M  V30 11606 O 1075.35 3.44626 -2.70489 0
M  V30 11607 C 1076.85 4.29138 -1.11156 0
M  V30 11608 H 1074.07 0.593788 -0.3125 0
M  V30 11609 H 1076.62 1.42116 -1.47048 0
M  V30 11610 H 1074.77 3.79948 -0.756169 0
M  V30 11611 H 1075.18 4.37441 -2.89389 0
M  V30 11612 H 1076.66 5.32082 -1.46944 0
M  V30 11613 H 1077.14 4.39171 -0.0502963 0
M  V30 11614 H 1077.74 3.91818 -1.65405 0
M  V30 11615 N 1076.06 0.894434 1.2976 0
M  V30 11616 C 1077.28 0.5322 2.00455 0
M  V30 11617 C 1077.71 -0.874427 1.66539 0
M  V30 11618 O 1077.06 -1.58113 0.887129 0
M  V30 11619 C 1077.11 0.725264 3.53231 0
M  V30 11620 O 1076.22 -0.224612 4.11788 0
M  V30 11621 H 1075.56 0.208562 0.630395 0
M  V30 11622 H 1078.09 1.20458 1.65382 0
M  V30 11623 H 1078.1 0.627889 4.0314 0
M  V30 11624 H 1076.77 1.75079 3.77253 0
M  V30 11625 H 1075.35 -0.0801361 3.72814 0
M  V30 11626 N 1077.53 -1.43282 0.656365 0
M  V30 11627 C 1078.78 -2.01776 0.171039 0
M  V30 11628 C 1079.11 -1.51795 -1.21609 0
M  V30 11629 O 1078.36 -0.702864 -1.82643 0
M  V30 11630 C 1078.66 -3.57148 0.134225 0
M  V30 11631 C 1078.33 -4.26488 1.46352 0
M  V30 11632 C 1076.99 -4.45146 1.82753 0
M  V30 11633 C 1079.34 -4.65728 2.33981 0
M  V30 11634 C 1076.67 -5.0031 3.06443 0
M  V30 11635 C 1079.02 -5.22263 3.56966 0
M  V30 11636 C 1077.69 -5.39136 3.93559 0
M  V30 11637 H 1076.96 -0.738352 0.0625878 0
M  V30 11638 H 1079.6 -1.71716 0.847697 0
M  V30 11639 H 1077.91 -3.86768 -0.625892 0
M  V30 11640 H 1079.61 -4.00168 -0.258207 0
M  V30 11641 H 1076.2 -4.12313 1.1703 0
M  V30 11642 H 1080.38 -4.51003 2.07148 0
M  V30 11643 H 1075.64 -5.11559 3.34839 0
M  V30 11644 H 1079.81 -5.51614 4.25082 0
M  V30 11645 H 1077.44 -5.81646 4.89481 0
M  V30 11646 N 1079.01 -0.398486 -1.52479 0
M  V30 11647 C 1080.26 0.180394 -2.01293 0
M  V30 11648 C 1080.58 1.46548 -1.28641 0
M  V30 11649 O 1079.85 1.91579 -0.409173 0
M  V30 11650 H 1078.43 0.0696528 -0.743746 0
M  V30 11651 H 1081.09 -0.532285 -1.87491 0
M  V30 11652 H 1080.19 0.38409 -3.09728 0
M  V30 11653 N 1080.49 1.57075 -0.12858 0
M  V30 11654 C 1081.74 1.94695 0.526952 0
M  V30 11655 C 1082.05 1.01482 1.67215 0
M  V30 11656 O 1083.26 1.28606 2.39108 0
M  V30 11657 C 1081.72 3.4605 0.988801 0
M  V30 11658 C 1081.32 4.47816 -0.128457 0
M  V30 11659 C 1083.07 3.92572 1.61517 0
M  V30 11660 C 1080.97 5.9036 0.350628 0
M  V30 11661 H 1079.9 0.726819 0.200623 0
M  V30 11662 H 1082.56 1.82295 -0.209972 0
M  V30 11663 H 1080.94 3.53718 1.78043 0
M  V30 11664 H 1082.11 4.51826 -0.904976 0
M  V30 11665 H 1080.43 4.11103 -0.662075 0
M  V30 11666 H 1083.02 4.96493 1.98491 0
M  V30 11667 H 1083.37 3.33085 2.49721 0
M  V30 11668 H 1083.9 3.87744 0.888768 0
M  V30 11669 H 1080.64 6.53624 -0.495592 0
M  V30 11670 H 1080.16 5.89749 1.09342 0
M  V30 11671 H 1081.84 6.41926 0.808717 0
M  V30 11672 N 1081.97 -0.145205 1.5693 0
M  V30 11673 C 1082.92 -1.17923 1.98401 0
M  V30 11674 C 1083.89 -1.42591 0.851885 0
M  V30 11675 O 1085.07 -1.54896 1.11409 0
M  V30 11676 C 1082.21 -2.50727 2.37128 0
M  V30 11677 C 1081.32 -2.33218 3.63639 0
M  V30 11678 C 1080.46 -3.5907 3.91462 0
M  V30 11679 C 1079.5 -3.36605 5.11237 0
M  V30 11680 N 1078.64 -4.54592 5.35061 0
M  V30 11681 H 1083.48 -0.818573 2.86537 0
M  V30 11682 H 1081.01 -0.392739 1.4176 0
M  V30 11683 H 1082.97 -3.28165 2.57611 0
M  V30 11684 H 1081.6 -2.84736 1.52069 0
M  V30 11685 H 1080.65 -1.46826 3.50922 0
M  V30 11686 H 1081.96 -2.12579 4.51234 0
M  V30 11687 H 1081.12 -4.44936 4.12453 0
M  V30 11688 H 1079.86 -3.82715 3.02293 0
M  V30 11689 H 1078.86 -2.49127 4.90118 0
M  V30 11690 H 1080.09 -3.14357 6.01961 0
M  V30 11691 H 1078.03 -4.78406 4.48847 0
M  V30 11692 H 1077.95 -4.36962 6.16928 0
M  V30 11693 H 1079.22 -5.41666 5.60551 0
M  V30 11694 N 1083.45 -1.52049 -0.414609 0
M  V30 11695 C 1084.38 -1.7122 -1.52369 0
M  V30 11696 C 1085.39 -0.592634 -1.5163 0
M  V30 11697 O 1086.58 -0.867634 -1.55995 0
M  V30 11698 C 1083.68 -1.73247 -2.91271 0
M  V30 11699 C 1082.85 -3.02153 -3.16263 0
M  V30 11700 C 1081.91 -2.96066 -4.35007 0
M  V30 11701 O 1080.94 -3.69981 -4.32554 0
M  V30 11702 N 1082.14 -2.13478 -5.39822 0
M  V30 11703 H 1084.91 -2.66902 -1.3632 0
M  V30 11704 H 1082.47 -1.50218 -0.603842 0
M  V30 11705 H 1084.46 -1.66714 -3.68766 0
M  V30 11706 H 1083.03 -0.85062 -3.00804 0
M  V30 11707 H 1082.25 -3.22379 -2.2686 0
M  V30 11708 H 1083.54 -3.87439 -3.29801 0
M  V30 11709 H 1082.94 -1.52844 -5.44661 0
M  V30 11710 H 1081.49 -2.12805 -6.16082 0
M  V30 11711 N 1084.93 0.6715 -1.42579 0
M  V30 11712 C 1085.84 1.81435 -1.48723 0
M  V30 11713 C 1086.85 1.69895 -0.375716 0
M  V30 11714 O 1088.03 1.91388 -0.627115 0
M  V30 11715 C 1085.09 3.17599 -1.39038 0
M  V30 11716 C 1084.15 3.41071 -2.60709 0
M  V30 11717 C 1083.39 4.7074 -2.51476 0
M  V30 11718 O 1083.61 5.48868 -1.55243 0
M  V30 11719 O 1082.54 4.95528 -3.41666 0
M  V30 11720 H 1086.37 1.79206 -2.45191 0
M  V30 11721 H 1083.95 0.827666 -1.24379 0
M  V30 11722 H 1085.84 3.98847 -1.3601 0
M  V30 11723 H 1084.51 3.20458 -0.456966 0
M  V30 11724 H 1083.42 2.59659 -2.69311 0
M  V30 11725 H 1084.75 3.43045 -3.5296 0
M  V30 11726 N 1086.4 1.28806 0.908124 0
M  V30 11727 C 1087.35 1.09849 1.99793 0
M  V30 11728 C 1088.34 0.0204321 1.60887 0
M  V30 11729 O 1089.53 0.241204 1.75349 0
M  V30 11730 C 1086.66 0.768263 3.34593 0
M  V30 11731 C 1085.74 1.88544 3.79884 0
M  V30 11732 N 1086.14 3.12784 3.97492 0
M  V30 11733 C 1084.43 1.77657 4.09089 0
M  V30 11734 C 1085.13 3.85615 4.35518 0
M  V30 11735 N 1084.11 3.13501 4.44092 0
M  V30 11736 H 1087.91 2.04108 2.11464 0
M  V30 11737 H 1085.43 1.19807 1.09636 0
M  V30 11738 H 1087.42 0.613521 4.12361 0
M  V30 11739 H 1086.08 -0.166501 3.24273 0
M  V30 11740 H 1087.09 3.48333 3.83255 0
M  V30 11741 H 1083.77 0.913956 4.07373 0
M  V30 11742 H 1085.16 4.92492 4.57057 0
M  V30 11743 N 1087.88 -1.11734 1.11145 0
M  V30 11744 C 1088.83 -2.17683 0.766979 0
M  V30 11745 C 1089.8 -1.64051 -0.260108 0
M  V30 11746 O 1090.98 -1.90302 -0.137723 0
M  V30 11747 C 1088.12 -3.44442 0.212982 0
M  V30 11748 C 1087.24 -4.12094 1.29626 0
M  V30 11749 C 1086.37 -5.26526 0.703127 0
M  V30 11750 C 1085.41 -5.86057 1.76647 0
M  V30 11751 N 1084.55 -6.91889 1.19306 0
M  V30 11752 H 1089.39 -2.46495 1.67465 0
M  V30 11753 H 1086.92 -1.21011 0.836353 0
M  V30 11754 H 1088.88 -4.17009 -0.126162 0
M  V30 11755 H 1087.51 -3.16025 -0.657888 0
M  V30 11756 H 1086.56 -3.37631 1.75241 0
M  V30 11757 H 1087.88 -4.52398 2.10089 0
M  V30 11758 H 1087.03 -6.05888 0.313859 0
M  V30 11759 H 1085.77 -4.87519 -0.132856 0
M  V30 11760 H 1084.77 -5.05375 2.16508 0
M  V30 11761 H 1086 -6.27132 2.60543 0
M  V30 11762 H 1083.95 -6.54906 0.378664 0
M  V30 11763 H 1083.86 -7.30832 1.93443 0
M  V30 11764 H 1085.13 -7.75062 0.830578 0
M  V30 11765 N 1089.36 -0.901303 -1.29284 0
M  V30 11766 C 1090.61 -0.528826 -1.95784 0
M  V30 11767 C 1090.94 0.922833 -1.70873 0
M  V30 11768 O 1090.21 1.65448 -1.0226 0
M  V30 11769 C 1090.5 -0.823793 -3.50551 0
M  V30 11770 C 1090.35 -2.32727 -3.84913 0
M  V30 11771 C 1091.67 -0.311382 -4.38997 0
M  V30 11772 H 1088.79 -0.193604 -0.711116 0
M  V30 11773 H 1091.43 -1.12828 -1.52872 0
M  V30 11774 H 1089.58 -0.313612 -3.87232 0
M  V30 11775 H 1091.25 -2.90712 -3.58168 0
M  V30 11776 H 1089.49 -2.78735 -3.32399 0
M  V30 11777 H 1090.17 -2.48423 -4.9294 0
M  V30 11778 H 1092.64 -0.748265 -4.09317 0
M  V30 11779 H 1091.52 -0.546957 -5.46168 0
M  V30 11780 H 1091.78 0.787959 -4.35021 0
M  V30 11781 N 1090.84 1.42931 -0.663954 0
M  V30 11782 C 1091.77 2.33499 0.00731327 0
M  V30 11783 C 1092.75 1.50074 0.800733 0
M  V30 11784 O 1093.93 1.78708 0.760062 0
M  V30 11785 C 1091.06 3.33569 0.966897 0
M  V30 11786 C 1090.02 4.27064 0.282839 0
M  V30 11787 C 1089.34 5.17257 1.35461 0
M  V30 11788 C 1090.64 5.1564 -0.831438 0
M  V30 11789 H 1092.34 2.89879 -0.749044 0
M  V30 11790 H 1089.88 1.39385 -0.361656 0
M  V30 11791 H 1091.84 3.95833 1.44549 0
M  V30 11792 H 1090.56 2.75469 1.75455 0
M  V30 11793 H 1089.22 3.6618 -0.175417 0
M  V30 11794 H 1088.87 4.5549 2.13397 0
M  V30 11795 H 1088.57 5.80634 0.902098 0
M  V30 11796 H 1090.09 5.82395 1.83436 0
M  V30 11797 H 1091.51 5.71651 -0.434534 0
M  V30 11798 H 1089.9 5.87794 -1.20908 0
M  V30 11799 H 1090.97 4.54687 -1.68487 0
M  V30 11800 N 1092.32 0.406567 1.52266 0
M  V30 11801 C 1093.56 -0.171391 2.00971 0
M  V30 11802 C 1093.88 -1.46443 1.29668 0
M  V30 11803 O 1095.08 -2.12348 1.69176 0
M  V30 11804 C 1093.54 -0.35599 3.58135 0
M  V30 11805 C 1093.15 0.924803 4.38351 0
M  V30 11806 C 1094.89 -0.889378 4.15079 0
M  V30 11807 C 1092.8 0.707534 5.87152 0
M  V30 11808 H 1091.73 -0.0678253 0.750943 0
M  V30 11809 H 1094.38 0.531619 1.7563 0
M  V30 11810 H 1092.76 -1.12127 3.79794 0
M  V30 11811 H 1093.94 1.69603 4.28452 0
M  V30 11812 H 1092.25 1.38442 3.92712 0
M  V30 11813 H 1094.85 -1.06792 5.23927 0
M  V30 11814 H 1095.19 -1.86334 3.7227 0
M  V30 11815 H 1095.72 -0.183224 3.97378 0
M  V30 11816 H 1092.46 1.65299 6.34316 0
M  V30 11817 H 1091.98 -0.024446 5.99795 0
M  V30 11818 H 1093.66 0.348721 6.4606 0
M  V30 11819 N 1093.79 -1.57004 0.136909 0
M  V30 11820 C 1095.02 -2.00587 -0.527209 0
M  V30 11821 C 1095.44 -1.01628 -1.58283 0
M  V30 11822 O 1094.8 0.00946934 -1.81298 0
M  V30 11823 C 1094.85 -3.42967 -1.11384 0
M  V30 11824 O 1093.95 -3.46973 -2.22898 0
M  V30 11825 H 1093.3 -0.651155 -0.129976 0
M  V30 11826 H 1095.83 -2.03296 0.230667 0
M  V30 11827 H 1095.84 -3.81555 -1.44499 0
M  V30 11828 H 1094.51 -4.14502 -0.340736 0
M  V30 11829 H 1093.09 -3.20219 -1.91087 0
M  V30 11830 N 1095.27 0.136881 -1.57004 0
M  V30 11831 C 1096.22 1.16869 -1.99023 0
M  V30 11832 C 1097.19 1.42137 -0.859435 0
M  V30 11833 O 1098.37 1.54303 -1.12229 0
M  V30 11834 C 1095.51 2.49466 -2.38455 0
M  V30 11835 C 1094.63 2.31286 -3.64871 0
M  V30 11836 C 1093.76 3.56989 -3.9336 0
M  V30 11837 C 1092.8 3.33889 -5.13015 0
M  V30 11838 N 1091.94 4.51748 -5.37464 0
M  V30 11839 H 1096.78 0.803366 -2.86967 0
M  V30 11840 H 1094.32 0.385216 -1.41967 0
M  V30 11841 H 1096.27 3.26794 -2.59348 0
M  V30 11842 H 1094.9 2.83926 -1.53577 0
M  V30 11843 H 1093.96 1.44962 -3.51696 0
M  V30 11844 H 1095.27 2.10183 -4.52355 0
M  V30 11845 H 1094.42 4.42742 -4.14806 0
M  V30 11846 H 1093.16 3.81106 -3.04318 0
M  V30 11847 H 1092.17 2.46525 -4.91432 0
M  V30 11848 H 1093.39 3.1116 -6.03619 0
M  V30 11849 H 1091.34 4.76019 -4.51377 0
M  V30 11850 H 1091.25 4.33684 -6.19237 0
M  V30 11851 H 1092.52 5.38686 -5.63416 0
M  V30 11852 N 1096.75 1.52266 0.40654 0
M  V30 11853 C 1097.66 1.78688 1.52012 0
M  V30 11854 C 1098.68 0.6726 1.60475 0
M  V30 11855 O 1099.85 0.95829 1.77141 0
M  V30 11856 C 1096.92 1.93434 2.87722 0
M  V30 11857 C 1095.98 3.17341 2.89125 0
M  V30 11858 C 1095.21 3.31374 4.18362 0
M  V30 11859 O 1095.43 2.50613 5.12396 0
M  V30 11860 O 1094.37 4.24539 4.26674 0
M  V30 11861 H 1098.19 2.73213 1.3262 0
M  V30 11862 H 1095.78 1.37142 0.592653 0
M  V30 11863 H 1097.66 2.04941 3.68208 0
M  V30 11864 H 1096.34 1.02099 3.07177 0
M  V30 11865 H 1095.24 3.1129 2.07483 0
M  V30 11866 H 1096.58 4.08466 2.7462 0
M  V30 11867 N 1098.23 -0.663929 1.42933 0
M  V30 11868 C 1099.18 -1.77717 1.47259 0
M  V30 11869 C 1100.15 -1.62922 0.323387 0
M  V30 11870 O 1101.33 -1.83319 0.529021 0
M  V30 11871 C 1098.47 -3.15814 1.39124 0
M  V30 11872 C 1097.58 -3.4182 2.64165 0
M  V30 11873 C 1096.72 -4.69705 2.48094 0
M  V30 11874 C 1095.76 -4.88781 3.68456 0
M  V30 11875 N 1094.89 -6.07915 3.51261 0
M  V30 11876 H 1099.73 -1.73355 2.42388 0
M  V30 11877 H 1097.27 -0.846121 1.2033 0
M  V30 11878 H 1099.23 -3.95633 1.32403 0
M  V30 11879 H 1097.86 -3.19274 0.475829 0
M  V30 11880 H 1096.91 -2.56176 2.81208 0
M  V30 11881 H 1098.22 -3.51805 3.53602 0
M  V30 11882 H 1097.38 -5.57632 2.39021 0
M  V30 11883 H 1096.12 -4.62022 1.56164 0
M  V30 11884 H 1095.12 -3.99292 3.7795 0
M  V30 11885 H 1096.35 -4.98301 4.61381 0
M  V30 11886 H 1094.29 -6.01384 2.62057 0
M  V30 11887 H 1094.21 -6.1881 4.34293 0
M  V30 11888 H 1095.48 -6.98492 3.4602 0
M  V30 11889 N 1099.71 -1.29285 -0.901281 0
M  V30 11890 C 1100.93 -1.20169 -1.69039 0
M  V30 11891 C 1101.36 0.234509 -1.86632 0
M  V30 11892 O 1100.71 1.16935 -1.38549 0
M  V30 11893 C 1100.76 -1.91852 -3.05328 0
M  V30 11894 O 1099.87 -1.23448 -3.9349 0
M  V30 11895 H 1099.21 -0.416486 -0.517141 0
M  V30 11896 H 1101.74 -1.70826 -1.12603 0
M  V30 11897 H 1101.75 -2.00244 -3.5548 0
M  V30 11898 H 1100.42 -2.96313 -2.91841 0
M  V30 11899 H 1099 -1.23303 -3.51924 0
M  V30 11900 N 1101.18 1.11143 -1.11736 0
M  V30 11901 C 1102.41 1.87285 -0.891007 0
M  V30 11902 C 1102.83 1.79758 0.553971 0
M  V30 11903 O 1102.19 1.16221 1.39149 0
M  V30 11904 C 1102.24 3.33924 -1.36114 0
M  V30 11905 O 1101.34 4.08917 -0.534851 0
M  V30 11906 H 1100.69 0.581418 -0.320701 0
M  V30 11907 H 1103.22 1.40469 -1.4876 0
M  V30 11908 H 1103.23 3.84772 -1.35701 0
M  V30 11909 H 1101.9 3.38719 -2.41334 0
M  V30 11910 H 1100.48 3.67954 -0.605355 0
M  V30 11911 N 1102.66 0.908147 1.28804 0
M  V30 11912 C 1103.61 0.390734 2.27468 0
M  V30 11913 C 1104.58 -0.531765 1.57358 0
M  V30 11914 O 1105.76 -0.455177 1.85291 0
M  V30 11915 C 1102.9 -0.368159 3.43131 0
M  V30 11916 C 1102.02 0.586202 4.28004 0
M  V30 11917 C 1101.15 -0.190581 5.30858 0
M  V30 11918 C 1100.19 0.757758 6.07391 0
M  V30 11919 N 1099.33 0.0148488 7.02098 0
M  V30 11920 H 1104.17 1.23717 2.71105 0
M  V30 11921 H 1101.71 0.621382 1.33331 0
M  V30 11922 H 1103.66 -0.824289 4.08976 0
M  V30 11923 H 1102.29 -1.17898 3.00499 0
M  V30 11924 H 1101.35 1.16086 3.62254 0
M  V30 11925 H 1102.66 1.31177 4.81242 0
M  V30 11926 H 1101.81 -0.707528 6.0256 0
M  V30 11927 H 1100.55 -0.949234 4.78373 0
M  V30 11928 H 1099.56 1.28613 5.34545 0
M  V30 11929 H 1100.78 1.51588 6.61965 0
M  V30 11930 H 1098.73 -0.725916 6.51971 0
M  V30 11931 H 1098.64 0.680347 7.52932 0
M  V30 11932 H 1099.91 -0.482086 7.78008 0
M  V30 11933 N 1104.14 -1.42577 0.671525 0
M  V30 11934 C 1105.1 -2.292 0.000392482 0
M  V30 11935 C 1106.1 -1.43158 -0.732294 0
M  V30 11936 O 1107.29 -1.64583 -0.570789 0
M  V30 11937 C 1104.43 -3.25591 -1.01013 0
M  V30 11938 H 1105.62 -2.90037 0.762783 0
M  V30 11939 H 1103.17 -1.50162 0.433703 0
M  V30 11940 H 1103.91 -2.69685 -1.80112 0
M  V30 11941 H 1103.69 -3.89049 -0.488183 0
M  V30 11942 H 1105.18 -3.90561 -1.47824 0
M  V30 11943 N 1105.62 -0.414636 -1.52048 0
M  V30 11944 C 1106.86 0.159585 -2.02171 0
M  V30 11945 C 1107.2 1.44321 -1.29943 0
M  V30 11946 O 1106.47 1.90185 -0.407402 0
M  V30 11947 C 1106.76 0.401655 -3.57853 0
M  V30 11948 C 1106.61 -0.899026 -4.40724 0
M  V30 11949 C 1107.93 1.1814 -4.23947 0
M  V30 11950 H 1105.05 0.0565257 -0.734829 0
M  V30 11951 H 1107.69 -0.549183 -1.8189 0
M  V30 11952 H 1105.84 1.00541 -3.75265 0
M  V30 11953 H 1107.51 -1.53502 -4.35011 0
M  V30 11954 H 1105.75 -1.50877 -4.06717 0
M  V30 11955 H 1106.42 -0.683974 -5.47746 0
M  V30 11956 H 1108.9 0.670203 -4.10667 0
M  V30 11957 H 1107.78 1.31953 -5.32804 0
M  V30 11958 H 1108.04 2.2035 -3.83273 0
M  V30 11959 N 1107.1 1.56929 -0.145233 0
M  V30 11960 C 1108.05 2.13246 0.806846 0
M  V30 11961 C 1109.03 1.05984 1.21063 0
M  V30 11962 O 1110.22 1.32165 1.17734 0
M  V30 11963 C 1107.35 2.75622 2.04663 0
M  V30 11964 C 1106.44 3.90006 1.66603 0
M  V30 11965 N 1106.83 4.95946 0.993545 0
M  V30 11966 C 1105.13 4.0068 1.95886 0
M  V30 11967 C 1105.83 5.76032 0.810087 0
M  V30 11968 N 1104.8 5.26739 1.34339 0
M  V30 11969 H 1108.61 2.92527 0.283806 0
M  V30 11970 H 1106.12 1.62302 0.0563676 0
M  V30 11971 H 1108.12 3.14329 2.73867 0
M  V30 11972 H 1106.78 1.97815 2.57487 0
M  V30 11973 H 1107.79 5.13748 0.654508 0
M  V30 11974 H 1104.46 3.33946 2.50572 0
M  V30 11975 H 1105.85 6.71315 0.280209 0
M  V30 11976 N 1108.58 -0.128553 1.57075 0
M  V30 11977 C 1109.8 -0.8564 1.88893 0
M  V30 11978 C 1110.23 -1.73095 0.736196 0
M  V30 11979 O 1109.58 -1.78567 -0.313629 0
M  V30 11980 C 1109.63 -1.67368 3.19406 0
M  V30 11981 O 1108.74 -2.77973 3.04639 0
M  V30 11982 H 1108.08 -0.237424 0.620102 0
M  V30 11983 H 1110.61 -0.113821 2.04283 0
M  V30 11984 H 1110.62 -2.0649 3.51889 0
M  V30 11985 H 1109.29 -1.03161 4.02903 0
M  V30 11986 H 1107.87 -2.42123 2.83603 0
M  V30 11987 N 1110.05 -1.5248 -0.398459 0
M  V30 11988 C 1111 -1.77211 -1.50662 0
M  V30 11989 C 1112 -0.639638 -1.5686 0
M  V30 11990 O 1113.2 -0.821917 -1.60139 0
M  V30 11991 H 1109.58 -0.56057 -0.501264 0
M  V30 11992 H 1111.55 -2.70028 -1.26993 0
M  V30 11993 C 1110.3 -1.94944 -2.8791 0
M  V30 11994 H 1109.62 -2.8151 -2.83888 0
M  V30 11995 H 1111.06 -2.16243 -3.64712 0
M  V30 11996 C 1109.52 -0.719402 -3.29129 0
M  V30 11997 O 1110.05 0.107671 -4.01556 0
M  V30 11998 N 1108.25 -0.552228 -2.85305 0
M  V30 11999 H 1107.8 -1.22638 -2.26534 0
M  V30 12000 H 1107.76 0.269447 -3.13243 0
M  V30 12001 N 1111.53 0.65634 -1.43283 0
M  V30 12002 C 1112.46 1.78101 -1.51004 0
M  V30 12003 C 1113.44 1.66138 -0.36498 0
M  V30 12004 O 1114.63 1.85281 -0.581778 0
M  V30 12005 C 1111.76 3.16511 -1.42961 0
M  V30 12006 C 1110.71 3.43233 -2.55685 0
M  V30 12007 C 1110.04 4.81411 -2.32696 0
M  V30 12008 C 1111.34 3.38288 -3.97943 0
M  V30 12009 H 1113.03 1.71896 -2.45137 0
M  V30 12010 H 1110.58 0.825575 -1.17984 0
M  V30 12011 H 1112.53 3.94941 -1.46968 0
M  V30 12012 H 1111.25 3.23439 -0.45332 0
M  V30 12013 H 1109.91 2.67173 -2.51026 0
M  V30 12014 H 1109.56 4.85011 -1.33317 0
M  V30 12015 H 1109.26 5.00251 -3.08257 0
M  V30 12016 H 1110.79 5.62102 -2.38481 0
M  V30 12017 H 1112.2 4.06659 -4.04106 0
M  V30 12018 H 1110.6 3.68664 -4.73505 0
M  V30 12019 H 1111.67 2.36525 -4.23301 0
M  V30 12020 N 1113.01 1.29761 0.894412 0
M  V30 12021 C 1113.96 1.11962 1.98617 0
M  V30 12022 C 1114.94 0.0374952 1.60856 0
M  V30 12023 O 1116.14 0.259789 1.75083 0
M  V30 12024 C 1113.26 0.803708 3.3376 0
M  V30 12025 C 1112.35 1.92563 3.77863 0
M  V30 12026 N 1112.74 3.16983 3.94152 0
M  V30 12027 C 1111.04 1.81986 4.07182 0
M  V30 12028 C 1111.74 3.90212 4.31404 0
M  V30 12029 N 1110.72 3.18194 4.40742 0
M  V30 12030 H 1114.52 2.06339 2.09287 0
M  V30 12031 H 1112.03 1.20963 1.08359 0
M  V30 12032 H 1114.03 0.657223 4.11687 0
M  V30 12033 H 1112.69 -0.132098 3.24431 0
M  V30 12034 H 1113.7 3.52378 3.79539 0
M  V30 12035 H 1110.38 0.957112 4.06381 0
M  V30 12036 H 1111.77 4.97312 4.51808 0
M  V30 12037 N 1114.49 -1.10549 1.12324 0
M  V30 12038 C 1115.76 -1.78968 0.789287 0
M  V30 12039 C 1116.14 -1.984 -0.721156 0
M  V30 12040 O 1115.49 -1.5761 -1.65443 0
M  V30 12041 C 1115.7 -3.12044 1.563 0
M  V30 12042 C 1117.05 -3.86939 1.74825 0
M  V30 12043 O 1118.07 -3.21761 1.52802 0
M  V30 12044 O 1116.93 -5.0392 2.11488 0
M  V30 12045 H 1114.03 -0.775617 0.286962 0
M  V30 12046 H 1116.57 -1.17209 1.2272 0
M  V30 12047 H 1115.35 -2.93313 2.59005 0
M  V30 12048 H 1114.97 -3.81521 1.11926 0
M  V30 12049 N 1115.97 -0.914965 -1.28321 0
M  V30 12050 C 1117.21 -0.544639 -1.94208 0
M  V30 12051 C 1117.53 0.916368 -1.72806 0
M  V30 12052 O 1118.73 1.39491 -2.32926 0
M  V30 12053 C 1117.19 -0.923209 -3.47858 0
M  V30 12054 C 1116.8 -2.40403 -3.78035 0
M  V30 12055 C 1118.54 -0.623526 -4.19896 0
M  V30 12056 C 1116.45 -2.72266 -5.25 0
M  V30 12057 H 1115.38 -0.199966 -0.727 0
M  V30 12058 H 1118.03 -1.11405 -1.45812 0
M  V30 12059 H 1116.41 -0.282576 -3.94991 0
M  V30 12060 H 1117.59 -3.09149 -3.41706 0
M  V30 12061 H 1115.9 -2.67429 -3.19172 0
M  V30 12062 H 1118.5 -0.838243 -5.28089 0
M  V30 12063 H 1118.84 0.438721 -4.13982 0
M  V30 12064 H 1119.37 -1.22268 -3.78544 0
M  V30 12065 H 1116.11 -3.77349 -5.35993 0
M  V30 12066 H 1115.63 -2.08157 -5.62522 0
M  V30 12067 H 1117.31 -2.59334 -5.92752 0
M  V30 12068 N 1117.44 1.42219 -0.679077 0
M  V30 12069 C 1118.35 2.346 -0.00345919 0
M  V30 12070 C 1119.37 1.55327 0.784181 0
M  V30 12071 O 1120.55 1.87878 0.725524 0
M  V30 12072 C 1117.61 3.33905 0.933194 0
M  V30 12073 C 1116.67 4.29073 0.139607 0
M  V30 12074 C 1115.9 5.23634 1.03165 0
M  V30 12075 O 1116.13 5.23234 2.27119 0
M  V30 12076 O 1115.06 5.99901 0.490159 0
M  V30 12077 H 1118.89 2.9392 -0.764525 0
M  V30 12078 H 1116.47 1.42794 -0.439329 0
M  V30 12079 H 1118.35 3.949 1.47077 0
M  V30 12080 H 1117.03 2.77052 1.67404 0
M  V30 12081 H 1115.94 3.71478 -0.442177 0
M  V30 12082 H 1117.27 4.88979 -0.562214 0
M  V30 12083 N 1118.92 0.422693 1.51826 0
M  V30 12084 C 1119.87 -0.41063 2.28947 0
M  V30 12085 C 1120.86 -1.03389 1.34191 0
M  V30 12086 O 1122.07 -0.970533 1.51594 0
M  V30 12087 H 1118.44 -0.151219 0.736639 0
M  V30 12088 H 1120.42 0.260859 2.97258 0
M  V30 12089 C 1119.16 -1.50758 3.13317 0
M  V30 12090 H 1118.49 -1.03734 3.86108 0
M  V30 12091 H 1119.93 -2.0642 3.7036 0
M  V30 12092 C 1118.39 -2.48261 2.27746 0
M  V30 12093 O 1118.92 -3.52462 1.92701 0
M  V30 12094 N 1117.12 -2.18795 1.91251 0
M  V30 12095 H 1116.67 -1.34088 2.1995 0
M  V30 12096 H 1116.63 -2.84276 1.34293 0
M  V30 12097 N 1120.4 -1.5685 0.153553 0
M  V30 12098 C 1121.65 -1.95946 -0.494936 0
M  V30 12099 C 1121.97 -1.03975 -1.64967 0
M  V30 12100 O 1121.24 -0.102572 -1.95631 0
M  V30 12101 H 1119.82 -0.723516 -0.185833 0
M  V30 12102 H 1122.48 -1.93531 0.230585 0
M  V30 12103 H 1121.58 -2.99823 -0.866743 0
M  V30 12104 N 1121.88 0.120221 -1.57141 0
M  V30 12105 C 1123.15 0.858458 -1.75755 0
M  V30 12106 C 1123.53 1.98124 -0.728693 0
M  V30 12107 O 1122.88 2.27155 0.247573 0
M  V30 12108 C 1123.09 1.37627 -3.20718 0
M  V30 12109 C 1124.44 1.82909 -3.83183 0
M  V30 12110 O 1125.46 1.47309 -3.24312 0
M  V30 12111 O 1124.32 2.4865 -4.86657 0
M  V30 12112 H 1121.42 0.407583 -0.719587 0
M  V30 12113 H 1123.96 0.104057 -1.69381 0
M  V30 12114 H 1122.74 0.570651 -3.87117 0
M  V30 12115 H 1122.36 2.19341 -3.31625 0
M  V30 12116 N 1123.36 1.52689 0.390367 0
M  V30 12117 C 1124.6 1.67335 1.13329 0
M  V30 12118 C 1124.93 0.415068 1.90531 0
M  V30 12119 O 1124.2 -0.570504 1.87409 0
M  V30 12120 H 1122.78 0.616821 0.421356 0
M  V30 12121 H 1125.44 1.89799 0.443 0
M  V30 12122 H 1124.53 2.52314 1.83696 0
M  V30 12123 N 1124.83 -0.648732 1.43629 0
M  V30 12124 C 1126.08 -1.40446 1.44768 0
M  V30 12125 C 1126.4 -1.95447 0.0773445 0
M  V30 12126 O 1127.6 -2.71479 -0.0337942 0
M  V30 12127 C 1126.06 -2.54194 2.54781 0
M  V30 12128 C 1125.67 -2.05781 3.97942 0
M  V30 12129 C 1127.41 -3.31529 2.65121 0
M  V30 12130 C 1125.32 -3.16767 4.99412 0
M  V30 12131 H 1124.25 -0.527717 0.538545 0
M  V30 12132 H 1126.9 -0.699756 1.69634 0
M  V30 12133 H 1125.28 -3.27156 2.23125 0
M  V30 12134 H 1126.45 -1.398 4.39081 0
M  V30 12135 H 1124.77 -1.41312 3.91688 0
M  V30 12136 H 1127.37 -4.14233 3.38105 0
M  V30 12137 H 1127.71 -3.79855 1.70341 0
M  V30 12138 H 1128.24 -2.65649 2.961 0
M  V30 12139 H 1124.98 -2.73404 5.9576 0
M  V30 12140 H 1124.5 -3.81445 4.62882 0
M  V30 12141 H 1126.18 -3.81827 5.22319 0
M  V30 12142 N 1126.31 -1.30234 -0.887518 0
M  V30 12143 C 1127.54 -1.21955 -1.67755 0
M  V30 12144 C 1127.96 0.214701 -1.86871 0
M  V30 12145 O 1127.32 1.15459 -1.39782 0
M  V30 12146 C 1127.37 -1.95079 -3.03276 0
M  V30 12147 O 1126.47 -1.27615 -3.92158 0
M  V30 12148 H 1125.81 -0.421948 -0.512695 0
M  V30 12149 H 1128.34 -1.72011 -1.10785 0
M  V30 12150 H 1128.35 -2.04004 -3.53336 0
M  V30 12151 H 1127.03 -2.99392 -2.88682 0
M  V30 12152 H 1125.61 -1.27029 -3.50597 0
M  V30 12153 N 1127.79 1.09952 -1.12909 0
M  V30 12154 C 1128.7 2.19999 -0.81471 0
M  V30 12155 C 1129.72 1.72864 0.19851 0
M  V30 12156 O 1130.89 2.01376 0.0308832 0
M  V30 12157 C 1127.96 3.45573 -0.279363 0
M  V30 12158 C 1127.02 4.07417 -1.35314 0
M  V30 12159 C 1126.25 5.26996 -0.843247 0
M  V30 12160 O 1126.47 5.69495 0.321164 0
M  V30 12161 O 1125.41 5.79826 -1.61511 0
M  V30 12162 H 1129.23 2.49333 -1.73398 0
M  V30 12163 H 1126.82 1.18784 -0.906128 0
M  V30 12164 H 1128.7 4.21398 0.0140531 0
M  V30 12165 H 1127.38 3.17854 0.612401 0
M  V30 12166 H 1126.28 3.33253 -1.6998 0
M  V30 12167 H 1127.62 4.39349 -2.21885 0
M  V30 12168 N 1129.27 0.921757 1.27833 0
M  V30 12169 C 1130.68 0.604496 1.76643 0
M  V30 12170 C 1131.03 -0.880294 1.75343 0
M  V30 12171 O 1130.16 -1.68875 1.35315 0
M  V30 12172 C 1130.75 1.09055 3.20768 0
M  V30 12173 C 1129.31 0.824066 3.67268 0
M  V30 12174 C 1128.46 1.25269 2.47392 0
M  V30 12175 H 1131.41 1.10217 1.14184 0
M  V30 12176 H 1131.43 0.435558 3.77999 0
M  V30 12177 H 1130.94 2.17122 3.21682 0
M  V30 12178 H 1129.04 -0.243055 3.71806 0
M  V30 12179 H 1129.15 1.43743 4.57028 0
M  V30 12180 H 1127.52 0.671313 2.45694 0
M  V30 12181 H 1128.3 2.34188 2.5102 0
M  V30 12182 N 1130.75 -1.41857 0.686609 0
M  V30 12183 C 1132.02 -1.95082 0.142228 0
M  V30 12184 C 1132.4 -1.62646 -1.34572 0
M  V30 12185 O 1131.75 -0.928757 -2.08773 0
M  V30 12186 C 1131.96 -3.46415 0.423955 0
M  V30 12187 C 1133.31 -4.23181 0.346842 0
M  V30 12188 O 1134.33 -3.54393 0.358363 0
M  V30 12189 O 1133.19 -5.4568 0.299211 0
M  V30 12190 H 1130.29 -0.826943 0.00974 0
M  V30 12191 H 1132.83 -1.51622 0.762153 0
M  V30 12192 H 1131.6 -3.63273 1.45424 0
M  V30 12193 H 1131.23 -3.96949 -0.227391 0
M  V30 12194 N 1132.22 -0.430739 -1.51599 0
M  V30 12195 C 1133.47 0.130424 -2.02981 0
M  V30 12196 C 1133.83 1.40956 -1.30954 0
M  V30 12197 O 1133.12 1.87081 -0.413696 0
M  V30 12198 C 1133.31 0.410694 -3.55032 0
M  V30 12199 C 1133.14 -0.839732 -4.4179 0
M  V30 12200 C 1131.91 -1.37132 -4.86336 0
M  V30 12201 C 1134.11 -1.72401 -4.84543 0
M  V30 12202 N 1132.09 -2.57497 -5.57287 0
M  V30 12203 C 1133.46 -2.77376 -5.54493 0
M  V30 12204 C 1135.52 -1.73921 -4.66536 0
M  V30 12205 C 1134.22 -3.83808 -6.08345 0
M  V30 12206 C 1136.25 -2.79285 -5.213 0
M  V30 12207 C 1135.61 -3.82979 -5.91191 0
M  V30 12208 H 1131.71 0.00873155 -0.781951 0
M  V30 12209 H 1134.29 -0.589932 -1.85548 0
M  V30 12210 H 1132.46 1.10009 -3.72495 0
M  V30 12211 H 1134.19 0.962635 -3.93085 0
M  V30 12212 H 1130.95 -0.926198 -4.64455 0
M  V30 12213 H 1131.37 -3.18515 -5.97392 0
M  V30 12214 H 1136.02 -0.950851 -4.11969 0
M  V30 12215 H 1133.73 -4.63487 -6.61971 0
M  V30 12216 H 1137.32 -2.81395 -5.09223 0
M  V30 12217 H 1136.2 -4.63169 -6.32807 0
M  V30 12218 N 1133.7 1.56767 -0.161869 0
M  V30 12219 C 1134.63 2.1466 0.803356 0
M  V30 12220 C 1135.65 1.09977 1.20037 0
M  V30 12221 O 1136.84 1.37199 1.14187 0
M  V30 12222 C 1133.94 2.66663 2.09151 0
M  V30 12223 C 1133.11 3.95904 1.85953 0
M  V30 12224 C 1132.17 4.33067 2.98897 0
M  V30 12225 O 1131.19 5.01119 2.69942 0
M  V30 12226 N 1132.4 3.93856 4.26448 0
M  V30 12227 H 1135.16 2.98108 0.308472 0
M  V30 12228 H 1132.72 1.61886 0.0212238 0
M  V30 12229 H 1134.71 2.88528 2.83784 0
M  V30 12230 H 1133.28 1.87856 2.49857 0
M  V30 12231 H 1132.5 3.82513 0.952751 0
M  V30 12232 H 1133.79 4.8033 1.67811 0
M  V30 12233 H 1133.19 3.39051 4.52836 0
M  V30 12234 H 1131.75 4.20741 4.97815 0
M  V30 12235 N 1135.18 -0.111886 1.57202 0
M  V30 12236 C 1136.43 -0.817022 1.84412 0
M  V30 12237 C 1136.74 -1.80708 0.748608 0
M  V30 12238 O 1137.95 -2.55891 0.907319 0
M  V30 12239 C 1136.4 -1.50376 3.26979 0
M  V30 12240 C 1136.01 -0.554334 4.44557 0
M  V30 12241 C 1137.76 -2.19361 3.63429 0
M  V30 12242 C 1135.66 -1.24471 5.78153 0
M  V30 12243 H 1134.59 -0.308864 0.687836 0
M  V30 12244 H 1137.24 -0.0698109 1.83367 0
M  V30 12245 H 1135.63 -2.29785 3.22514 0
M  V30 12246 H 1136.8 0.207045 4.60335 0
M  V30 12247 H 1135.12 0.0289261 4.1639 0
M  V30 12248 H 1137.71 -2.71716 4.60515 0
M  V30 12249 H 1138.06 -2.97488 2.91215 0
M  V30 12250 H 1138.59 -1.46833 3.69709 0
M  V30 12251 H 1135.33 -0.504584 6.53555 0
M  V30 12252 H 1134.85 -1.97792 5.66249 0
M  V30 12253 H 1136.53 -1.77591 6.2215 0
M  V30 12254 N 1136.66 -1.52894 -0.382264 0
M  V30 12255 C 1137.61 -1.78151 -1.46734 0
M  V30 12256 C 1138.58 -0.625034 -1.53891 0
M  V30 12257 O 1139.76 -0.865467 -1.70042 0
M  V30 12258 C 1136.9 -1.96223 -2.83885 0
M  V30 12259 C 1136.01 -3.23925 -2.85826 0
M  V30 12260 C 1135.15 -3.32277 -4.14446 0
M  V30 12261 C 1134.19 -4.54076 -4.10465 0
M  V30 12262 N 1133.32 -4.59672 -5.30703 0
M  V30 12263 H 1138.16 -2.70748 -1.24497 0
M  V30 12264 H 1135.7 -1.34135 -0.603838 0
M  V30 12265 H 1137.66 -2.04686 -3.63537 0
M  V30 12266 H 1136.29 -1.0698 -3.04557 0
M  V30 12267 H 1135.34 -3.245 -1.98505 0
M  V30 12268 H 1136.65 -4.1364 -2.78754 0
M  V30 12269 H 1135.81 -3.3996 -5.02506 0
M  V30 12270 H 1134.55 -2.40548 -4.2425 0
M  V30 12271 H 1133.55 -4.46511 -3.20793 0
M  V30 12272 H 1134.78 -5.47128 -4.02278 0
M  V30 12273 H 1132.72 -3.70838 -5.41124 0
M  V30 12274 H 1132.64 -5.43268 -5.25734 0
M  V30 12275 H 1133.91 -4.71618 -6.20642 0
M  V30 12276 N 1138.14 0.641106 -1.43971 0
M  V30 12277 C 1139.36 1.43324 -1.4991 0
M  V30 12278 C 1139.79 1.87705 -0.121908 0
M  V30 12279 O 1139.15 1.58127 0.886875 0
M  V30 12280 C 1139.19 2.63637 -2.46025 0
M  V30 12281 O 1138.3 3.63123 -1.95488 0
M  V30 12282 H 1137.64 0.429252 -0.506595 0
M  V30 12283 H 1140.17 0.783427 -1.89007 0
M  V30 12284 H 1140.18 3.11304 -2.63731 0
M  V30 12285 H 1138.85 2.30678 -3.46064 0
M  V30 12286 H 1137.43 3.22332 -1.87501 0
M  V30 12287 N 1139.62 1.30703 0.880598 0
M  V30 12288 C 1140.84 1.22843 1.67106 0
M  V30 12289 C 1141.27 -0.204788 1.86982 0
M  V30 12290 O 1140.62 -1.14716 1.40392 0
M  V30 12291 C 1140.67 1.96685 3.02237 0
M  V30 12292 O 1139.78 1.29693 3.91476 0
M  V30 12293 H 1139.12 0.424661 0.51045 0
M  V30 12294 H 1141.65 1.72596 1.09871 0
M  V30 12295 H 1141.66 2.05874 3.52249 0
M  V30 12296 H 1140.33 3.00919 2.8709 0
M  V30 12297 H 1138.91 1.28886 3.49918 0
M  V30 12298 N 1141.09 -1.09351 1.1349 0
M  V30 12299 C 1142.34 -1.81185 0.89535 0
M  V30 12300 C 1142.66 -1.86173 -0.580048 0
M  V30 12301 O 1141.93 -1.34784 -1.42162 0
M  V30 12302 H 1140.51 -0.671011 0.328257 0
M  V30 12303 H 1143.17 -1.32255 1.43159 0
M  V30 12304 H 1142.27 -2.84339 1.28676 0
M  V30 12305 N 1142.57 -0.928524 -1.27343 0
M  V30 12306 C 1143.52 -0.418768 -2.28799 0
M  V30 12307 C 1144.51 0.497334 -1.61935 0
M  V30 12308 O 1145.72 0.376945 -1.76009 0
M  V30 12309 H 1142.09 -0.116855 -0.742865 0
M  V30 12310 H 1144.07 -1.28725 -2.69207 0
M  V30 12311 C 1142.81 0.312422 -3.46294 0
M  V30 12312 H 1142.14 -0.383317 -3.97958 0
M  V30 12313 H 1143.58 0.633514 -4.19241 0
M  V30 12314 C 1142.04 1.5257 -3.00373 0
M  V30 12315 O 1142.57 2.62443 -3.04116 0
M  V30 12316 N 1140.77 1.37782 -2.5586 0
M  V30 12317 H 1140.32 0.483908 -2.53014 0
M  V30 12318 H 1140.28 2.19085 -2.25498 0
M  V30 12319 N 1144.05 1.41491 -0.694123 0
M  V30 12320 C 1144.96 2.34583 -0.0283414 0
M  V30 12321 C 1145.98 1.5615 0.767662 0
M  V30 12322 O 1147.15 1.88637 0.705556 0
M  V30 12323 C 1144.22 3.34876 0.897726 0
M  V30 12324 C 1143.28 4.29197 0.0940905 0
M  V30 12325 C 1142.51 5.24699 0.976051 0
M  V30 12326 O 1142.73 5.25613 2.21556 0
M  V30 12327 O 1141.67 6.00387 0.426503 0
M  V30 12328 H 1145.49 2.93092 -0.795656 0
M  V30 12329 H 1143.08 1.4232 -0.45445 0
M  V30 12330 H 1144.96 3.96438 1.4288 0
M  V30 12331 H 1143.64 2.78812 1.64456 0
M  V30 12332 H 1142.54 3.70988 -0.481552 0
M  V30 12333 H 1143.88 4.88355 -0.614045 0
M  V30 12334 N 1145.53 0.438773 1.51369 0
M  V30 12335 C 1146.77 -0.127213 2.021 0
M  V30 12336 C 1147.1 -1.42587 1.32284 0
M  V30 12337 O 1146.36 -1.90986 0.426949 0
M  V30 12338 C 1146.66 -0.39186 3.55245 0
M  V30 12339 C 1146.32 0.821158 4.4336 0
M  V30 12340 C 1144.98 1.15381 4.67162 0
M  V30 12341 C 1147.34 1.6303 4.95046 0
M  V30 12342 C 1144.66 2.29626 5.39897 0
M  V30 12343 C 1147.02 2.76376 5.69033 0
M  V30 12344 C 1145.68 3.10094 5.91099 0
M  V30 12345 H 1144.95 -0.0465505 0.739536 0
M  V30 12346 H 1147.6 0.586261 1.82305 0
M  V30 12347 H 1145.9 -1.18724 3.73379 0
M  V30 12348 H 1147.6 -0.843228 3.92034 0
M  V30 12349 H 1144.19 0.551946 4.25031 0
M  V30 12350 H 1148.37 1.38651 4.76539 0
M  V30 12351 H 1143.63 2.56062 5.55196 0
M  V30 12352 H 1147.8 3.39442 6.08072 0
M  V30 12353 H 1145.43 3.98731 6.47238 0
M  V30 12354 N 1147.01 -1.56678 0.170181 0
M  V30 12355 C 1147.94 -2.20916 -0.756213 0
M  V30 12356 C 1148.92 -1.16442 -1.23997 0
M  V30 12357 O 1150.1 -1.44867 -1.29333 0
M  V30 12358 C 1147.23 -2.84901 -1.98617 0
M  V30 12359 C 1146.19 -3.95403 -1.63831 0
M  V30 12360 C 1145.51 -4.46432 -2.94282 0
M  V30 12361 C 1146.81 -5.15051 -0.867195 0
M  V30 12362 H 1148.51 -2.98585 -0.220776 0
M  V30 12363 H 1146.05 -1.43619 -0.104748 0
M  V30 12364 H 1148 -3.28514 -2.63926 0
M  V30 12365 H 1146.73 -2.04598 -2.54572 0
M  V30 12366 H 1145.39 -3.52444 -1.00891 0
M  V30 12367 H 1145.04 -3.62923 -3.48276 0
M  V30 12368 H 1144.74 -5.20979 -2.71762 0
M  V30 12369 H 1146.26 -4.92731 -3.60622 0
M  V30 12370 H 1147.67 -5.55363 -1.42285 0
M  V30 12371 H 1146.07 -5.95507 -0.741065 0
M  V30 12372 H 1147.14 -4.84707 0.136693 0
M  V30 12373 N 1148.48 0.103547 -1.57259 0
M  V30 12374 C 1149.71 0.82624 -1.90232 0
M  V30 12375 C 1150.13 1.71902 -0.763641 0
M  V30 12376 O 1149.49 1.79043 0.285181 0
M  V30 12377 C 1149.54 1.62265 -3.22029 0
M  V30 12378 O 1148.64 2.73091 -3.09023 0
M  V30 12379 H 1147.98 0.227528 -0.6238 0
M  V30 12380 H 1150.51 0.081307 -2.04438 0
M  V30 12381 H 1150.52 2.00865 -3.5513 0
M  V30 12382 H 1149.2 0.967383 -4.04493 0
M  V30 12383 H 1147.78 2.3758 -2.8742 0
M  V30 12384 N 1149.96 1.53094 0.37415 0
M  V30 12385 C 1151.19 1.73061 1.143 0
M  V30 12386 C 1151.61 0.454611 1.82524 0
M  V30 12387 O 1150.97 -0.590743 1.71406 0
M  V30 12388 C 1151.02 2.89086 2.15549 0
M  V30 12389 O 1150.12 2.57096 3.22452 0
M  V30 12390 H 1149.46 0.575009 0.332055 0
M  V30 12391 H 1151.99 1.99946 0.433897 0
M  V30 12392 H 1152 3.15007 2.59296 0
M  V30 12393 H 1150.68 3.81647 1.65283 0
M  V30 12394 H 1149.25 2.41965 2.83738 0
M  V30 12395 N 1151.44 -0.633461 1.44309 0
M  V30 12396 C 1152.39 -1.74554 1.50995 0
M  V30 12397 C 1153.36 -1.62199 0.357873 0
M  V30 12398 O 1154.54 -1.82156 0.567787 0
M  V30 12399 C 1151.68 -3.12792 1.45791 0
M  V30 12400 C 1150.79 -3.3614 2.71356 0
M  V30 12401 C 1149.93 -4.64337 2.58002 0
M  V30 12402 C 1148.97 -4.80855 3.78741 0
M  V30 12403 N 1148.11 -6.00327 3.64077 0
M  V30 12404 H 1152.95 -1.68174 2.46011 0
M  V30 12405 H 1150.48 -0.820407 1.22097 0
M  V30 12406 H 1152.44 -3.92735 1.40765 0
M  V30 12407 H 1151.07 -3.18193 0.543445 0
M  V30 12408 H 1150.12 -2.50154 2.86579 0
M  V30 12409 H 1151.43 -3.44226 3.60985 0
M  V30 12410 H 1150.59 -5.52437 2.50795 0
M  V30 12411 H 1149.33 -4.58605 1.65929 0
M  V30 12412 H 1148.33 -3.91185 3.86334 0
M  V30 12413 H 1149.56 -4.88403 4.71847 0
M  V30 12414 H 1147.5 -5.9569 2.74754 0
M  V30 12415 H 1147.42 -6.09459 4.47321 0
M  V30 12416 H 1148.69 -6.90995 3.60758 0
M  V30 12417 N 1152.92 -1.31168 -0.873655 0
M  V30 12418 C 1154.2 -1.11285 -1.60857 0
M  V30 12419 C 1154.58 0.333788 -2.08444 0
M  V30 12420 O 1153.92 1.32726 -1.86 0
M  V30 12421 C 1154.13 -2.12379 -2.7694 0
M  V30 12422 C 1155.48 -2.44704 -3.46994 0
M  V30 12423 O 1156.51 -2.10778 -2.87143 0
M  V30 12424 O 1155.36 -3.02786 -4.54954 0
M  V30 12425 H 1152.46 -0.428177 -0.707526 0
M  V30 12426 H 1155 -1.42634 -0.91944 0
M  V30 12427 H 1153.78 -3.09703 -2.39164 0
M  V30 12428 H 1153.4 -1.81914 -3.53544 0
M  V30 12429 N 1154.4 1.08748 -1.14068 0
M  V30 12430 C 1155.31 2.19123 -0.837998 0
M  V30 12431 C 1156.32 1.73065 0.180164 0
M  V30 12432 O 1157.5 2.01398 0.00952285 0
M  V30 12433 C 1154.56 3.45257 -0.316 0
M  V30 12434 C 1153.62 4.05959 -1.39628 0
M  V30 12435 C 1152.86 5.26072 -0.899095 0
M  V30 12436 O 1153.08 5.69804 0.260744 0
M  V30 12437 O 1152.01 5.7808 -1.67652 0
M  V30 12438 H 1155.84 2.4748 -1.76033 0
M  V30 12439 H 1153.43 1.17816 -0.918675 0
M  V30 12440 H 1155.31 4.21389 -0.0306425 0
M  V30 12441 H 1153.98 3.18486 0.578654 0
M  V30 12442 H 1152.89 3.31432 -1.73505 0
M  V30 12443 H 1154.22 4.36971 -2.26533 0
M  V30 12444 N 1155.87 0.935264 1.26849 0
M  V30 12445 C 1157.12 0.575467 1.93317 0
M  V30 12446 C 1157.44 -0.88876 1.74242 0
M  V30 12447 O 1158.64 -1.35767 2.35116 0
M  V30 12448 C 1157.1 0.978433 3.46345 0
M  V30 12449 C 1156.71 2.46386 3.74163 0
M  V30 12450 C 1158.45 0.690249 4.18851 0
M  V30 12451 C 1156.36 2.80584 5.20602 0
M  V30 12452 H 1155.29 0.211506 0.723727 0
M  V30 12453 H 1157.94 1.1371 1.44022 0
M  V30 12454 H 1156.32 0.345379 3.94491 0
M  V30 12455 H 1157.49 3.14547 3.36745 0
M  V30 12456 H 1155.81 2.72473 3.14877 0
M  V30 12457 H 1158.41 0.922151 5.26688 0
M  V30 12458 H 1158.75 -0.372805 4.14627 0
M  V30 12459 H 1159.28 1.28275 3.76551 0
M  V30 12460 H 1156.02 3.85828 5.29921 0
M  V30 12461 H 1155.54 2.1708 5.59139 0
M  V30 12462 H 1157.22 2.68732 5.88551 0
M  V30 12463 N 1157.35 -1.41121 0.701616 0
M  V30 12464 C 1158.3 -2.27994 0.0168361 0
M  V30 12465 C 1159.29 -1.42523 -0.746733 0
M  V30 12466 O 1160.48 -1.6574 -0.621232 0
M  V30 12467 C 1157.61 -3.30898 -0.914417 0
M  V30 12468 C 1156.69 -4.23846 -0.146776 0
M  V30 12469 N 1157.08 -4.9839 0.862624 0
M  V30 12470 C 1155.38 -4.44366 -0.38138 0
M  V30 12471 C 1156.08 -5.66463 1.32266 0
M  V30 12472 N 1155.06 -5.39731 0.647433 0
M  V30 12473 H 1158.86 -2.83065 0.790675 0
M  V30 12474 H 1156.38 -1.53405 0.532977 0
M  V30 12475 H 1158.37 -3.91964 -1.4202 0
M  V30 12476 H 1157.03 -2.77387 -1.68779 0
M  V30 12477 H 1158.04 -5.02761 1.24305 0
M  V30 12478 H 1154.72 -4.01856 -1.13216 0
M  V30 12479 H 1156.11 -6.36213 2.16061 0
M  V30 12480 N 1158.83 -0.446794 -1.51134 0
M  V30 12481 C 1160.24 0.0141132 -1.86695 0
M  V30 12482 C 1160.59 1.41095 -1.36333 0
M  V30 12483 O 1159.72 2.04139 -0.718068 0
M  V30 12484 C 1160.31 0.0323866 -3.38785 0
M  V30 12485 C 1158.87 0.437737 -3.73846 0
M  V30 12486 C 1158.02 -0.363436 -2.74908 0
M  V30 12487 H 1160.97 -0.66221 -1.44224 0
M  V30 12488 H 1160.99 0.839865 -3.71115 0
M  V30 12489 H 1160.5 -0.984374 -3.75409 0
M  V30 12490 H 1158.6 1.45975 -3.42815 0
M  V30 12491 H 1158.72 0.155964 -4.78846 0
M  V30 12492 H 1157.08 0.179566 -2.54066 0
M  V30 12493 H 1157.86 -1.37925 -3.14375 0
M  V30 12494 N 1160.31 1.56586 -0.178487 0
M  V30 12495 C 1161.24 2.14168 0.787856 0
M  V30 12496 C 1162.22 1.07374 1.22105 0
M  V30 12497 O 1163.4 1.35391 1.31154 0
M  V30 12498 C 1160.53 2.68708 2.06189 0
M  V30 12499 C 1159.58 3.8794 1.77215 0
M  V30 12500 S 1160.41 5.27274 0.935002 0
M  V30 12501 C 1161.57 5.85224 2.21954 0
M  V30 12502 H 1161.8 2.958 0.298293 0
M  V30 12503 H 1159.33 1.54357 0.0362853 0
M  V30 12504 H 1161.29 3.00777 2.79363 0
M  V30 12505 H 1159.95 1.87149 2.52258 0
M  V30 12506 H 1159.14 4.24453 2.71764 0
M  V30 12507 H 1158.75 3.56795 1.12132 0
M  V30 12508 H 1161.04 5.98575 3.17355 0
M  V30 12509 H 1161.98 6.82162 1.89898 0
M  V30 12510 H 1162.39 5.13697 2.34042 0
M  V30 12511 N 1161.79 -0.095206 1.57312 0
M  V30 12512 C 1162.73 -1.13438 2.03063 0
M  V30 12513 C 1163.73 -1.41478 0.931679 0
M  V30 12514 O 1164.93 -1.41161 1.11686 0
M  V30 12515 H 1161.31 -0.383042 0.647134 0
M  V30 12516 H 1163.28 -0.722186 2.89529 0
M  V30 12517 C 1162.03 -2.44641 2.47075 0
M  V30 12518 H 1161.35 -2.23908 3.31218 0
M  V30 12519 H 1162.79 -3.15855 2.82863 0
M  V30 12520 C 1161.25 -3.08931 1.34399 0
M  V30 12521 O 1161.78 -3.96021 0.673071 0
M  V30 12522 N 1159.99 -2.6918 1.09501 0
M  V30 12523 H 1159.53 -1.98451 1.6424 0
M  V30 12524 H 1159.49 -3.12522 0.34311 0
M  V30 12525 N 1163.26 -1.53291 -0.366026 0
M  V30 12526 C 1164.19 -1.82675 -1.45437 0
M  V30 12527 C 1165.18 -0.680227 -1.55907 0
M  V30 12528 O 1166.36 -0.930032 -1.70482 0
M  V30 12529 C 1163.49 -2.01626 -2.8278 0
M  V30 12530 C 1162.44 -3.17391 -2.87135 0
M  V30 12531 C 1161.77 -3.21634 -4.27148 0
M  V30 12532 C 1163.07 -4.5599 -2.54697 0
M  V30 12533 H 1164.76 -2.73818 -1.21096 0
M  V30 12534 H 1162.31 -1.31754 -0.581108 0
M  V30 12535 H 1164.26 -2.20765 -3.58944 0
M  V30 12536 H 1162.99 -1.07193 -3.08508 0
M  V30 12537 H 1161.65 -2.98071 -2.13422 0
M  V30 12538 H 1161.29 -2.2484 -4.49951 0
M  V30 12539 H 1160.99 -3.99414 -4.30978 0
M  V30 12540 H 1162.52 -3.42957 -5.05186 0
M  V30 12541 H 1163.93 -4.75294 -3.20575 0
M  V30 12542 H 1162.33 -5.36008 -2.69844 0
M  V30 12543 H 1163.4 -4.61133 -1.49949 0
M  V30 12544 N 1164.74 0.6258 -1.44643 0
M  V30 12545 C 1165.71 1.71941 -1.51555 0
M  V30 12546 C 1166.71 1.55822 -0.396988 0
M  V30 12547 O 1167.9 1.61221 -0.65981 0
M  V30 12548 C 1165.03 3.11068 -1.39461 0
M  V30 12549 H 1166.22 1.67185 -2.48976 0
M  V30 12550 H 1163.77 0.839934 -1.31814 0
M  V30 12551 H 1164.51 3.21416 -0.431534 0
M  V30 12552 H 1164.29 3.24175 -2.20574 0
M  V30 12553 H 1165.78 3.90762 -1.4729 0
M  V30 12554 N 1166.22 1.31629 0.866686 0
M  V30 12555 C 1167.15 1.15377 1.98042 0
M  V30 12556 C 1168.17 0.0919633 1.6254 0
M  V30 12557 O 1169.35 0.339775 1.75236 0
M  V30 12558 C 1166.45 0.741295 3.30693 0
M  V30 12559 C 1165.63 1.88882 3.94516 0
M  V30 12560 C 1164.69 1.46186 5.05486 0
M  V30 12561 O 1163.71 2.17202 5.26129 0
M  V30 12562 N 1164.91 0.351096 5.79437 0
M  V30 12563 H 1167.68 2.11309 2.12529 0
M  V30 12564 H 1165.24 1.24007 1.04085 0
M  V30 12565 H 1167.23 0.438313 4.02319 0
M  V30 12566 H 1165.8 -0.12651 3.12344 0
M  V30 12567 H 1165.02 2.35894 3.15828 0
M  V30 12568 H 1166.31 2.65734 4.33892 0
M  V30 12569 H 1165.71 -0.240245 5.6519 0
M  V30 12570 H 1164.27 0.107663 6.51711 0
M  V30 12571 N 1167.7 -1.08142 1.14644 0
M  V30 12572 C 1168.93 -1.84318 0.939926 0
M  V30 12573 C 1169.34 -1.81735 -0.511636 0
M  V30 12574 O 1168.7 -1.22297 -1.35461 0
M  V30 12575 C 1168.75 -3.31744 1.43625 0
M  V30 12576 O 1168.47 -3.3435 2.83094 0
M  V30 12577 C 1169.97 -4.24717 1.27007 0
M  V30 12578 H 1167.19 -0.581781 0.334323 0
M  V30 12579 H 1169.74 -1.36561 1.52221 0
M  V30 12580 H 1167.89 -3.7688 0.896664 0
M  V30 12581 H 1168.31 -4.26399 3.05425 0
M  V30 12582 H 1169.78 -5.26262 1.66591 0
M  V30 12583 H 1170.26 -4.38682 0.213257 0
M  V30 12584 H 1170.86 -3.85409 1.79833 0
M  V30 12585 N 1169.18 -0.941978 -1.26351 0
M  V30 12586 C 1170.59 -0.632522 -1.75659 0
M  V30 12587 C 1170.94 0.852287 -1.76722 0
M  V30 12588 O 1170.06 1.66701 -1.37985 0
M  V30 12589 C 1170.66 -1.14145 -3.18993 0
M  V30 12590 C 1169.22 -0.882391 -3.65911 0
M  V30 12591 C 1168.37 -1.29189 -2.45368 0
M  V30 12592 H 1171.32 -1.12019 -1.12416 0
M  V30 12593 H 1171.34 -0.495639 -3.77258 0
M  V30 12594 H 1170.85 -2.22213 -3.18187 0
M  V30 12595 H 1168.95 0.183873 -3.72146 0
M  V30 12596 H 1169.06 -1.50996 -4.54683 0
M  V30 12597 H 1167.43 -0.710316 -2.44595 0
M  V30 12598 H 1168.21 -2.38152 -2.47262 0
M  V30 12599 N 1170.66 1.40747 -0.709091 0
M  V30 12600 C 1171.57 2.3454 -0.0532205 0
M  V30 12601 C 1172.58 1.56956 0.751057 0
M  V30 12602 O 1173.76 1.89375 0.685509 0
M  V30 12603 C 1170.82 3.35809 0.862157 0
M  V30 12604 C 1169.88 4.29273 0.0485632 0
M  V30 12605 C 1169.12 5.25705 0.920345 0
M  V30 12606 O 1169.34 5.27933 2.15969 0
M  V30 12607 O 1168.27 6.00806 0.3628 0
M  V30 12608 H 1172.1 2.92232 -0.826698 0
M  V30 12609 H 1169.68 1.4183 -0.469519 0
M  V30 12610 H 1171.57 3.97931 1.38668 0
M  V30 12611 H 1170.24 2.8054 1.61489 0
M  V30 12612 H 1169.15 3.70456 -0.520873 0
M  V30 12613 H 1170.48 4.87676 -0.665807 0
M  V30 12614 N 1172.13 0.454803 1.50895 0
M  V30 12615 C 1173.07 -0.383826 2.25963 0
M  V30 12616 C 1174.08 -0.971263 1.30653 0
M  V30 12617 O 1175.27 -0.862434 1.56283 0
M  V30 12618 C 1172.37 -1.55069 3.01342 0
M  V30 12619 C 1171.54 -1.07899 4.23883 0
M  V30 12620 C 1170.6 -2.118 4.81692 0
M  V30 12621 O 1169.63 -1.70523 5.43057 0
M  V30 12622 N 1170.83 -3.44459 4.67256 0
M  V30 12623 H 1173.59 0.259646 2.98573 0
M  V30 12624 H 1171.15 0.284661 1.59378 0
M  V30 12625 H 1173.15 -2.24236 3.36898 0
M  V30 12626 H 1171.72 -2.09917 2.31633 0
M  V30 12627 H 1170.94 -0.213773 3.9362 0
M  V30 12628 H 1172.22 -0.741501 5.03368 0
M  V30 12629 H 1171.62 -3.80716 4.18416 0
M  V30 12630 H 1170.18 -4.0947 5.07127 0
M  V30 12631 N 1173.61 -1.56489 0.186789 0
M  V30 12632 C 1174.84 -2.02163 -0.463126 0
M  V30 12633 C 1175.26 -1.06612 -1.54969 0
M  V30 12634 O 1174.62 -0.0482139 -1.81236 0
M  V30 12635 C 1174.67 -3.46337 -1.00416 0
M  V30 12636 O 1173.77 -3.53889 -2.11747 0
M  V30 12637 H 1173.11 -0.65496 -0.109194 0
M  V30 12638 H 1175.64 -2.02459 0.295227 0
M  V30 12639 H 1175.65 -3.85959 -1.32287 0
M  V30 12640 H 1174.33 -4.15376 -0.208693 0
M  V30 12641 H 1172.9 -3.26136 -1.80803 0
M  V30 12642 N 1175.09 0.086862 -1.5736 0
M  V30 12643 C 1176.02 1.13614 -1.97907 0
M  V30 12644 C 1177 1.38395 -0.853564 0
M  V30 12645 O 1178.18 1.52018 -1.11457 0
M  V30 12646 C 1175.31 2.48364 -2.30289 0
M  V30 12647 C 1174.36 2.39814 -3.52692 0
M  V30 12648 S 1175.19 1.80673 -5.04101 0
M  V30 12649 C 1176.35 3.17031 -5.39669 0
M  V30 12650 H 1176.58 0.790538 -2.86597 0
M  V30 12651 H 1174.11 0.294847 -1.51559 0
M  V30 12652 H 1176.07 3.25883 -2.49621 0
M  V30 12653 H 1174.73 2.80091 -1.42154 0
M  V30 12654 H 1173.92 3.3915 -3.72818 0
M  V30 12655 H 1173.53 1.70427 -3.32912 0
M  V30 12656 H 1175.82 4.13319 -5.36818 0
M  V30 12657 H 1176.76 3.017 -6.40611 0
M  V30 12658 H 1177.17 3.16942 -4.67128 0
M  V30 12659 N 1176.57 1.53483 0.357892 0
M  V30 12660 C 1177.51 1.80463 1.43881 0
M  V30 12661 C 1178.48 0.649438 1.52877 0
M  V30 12662 O 1179.67 0.892409 1.68644 0
M  V30 12663 C 1176.81 2.00714 2.80727 0
M  V30 12664 C 1175.92 3.28431 2.80637 0
M  V30 12665 C 1175.06 3.38828 4.09107 0
M  V30 12666 C 1174.1 4.60549 4.03189 0
M  V30 12667 N 1173.23 4.68057 5.23323 0
M  V30 12668 H 1178.07 2.72694 1.20174 0
M  V30 12669 H 1175.61 1.35079 0.582422 0
M  V30 12670 H 1177.57 2.10444 3.60235 0
M  V30 12671 H 1176.2 1.11811 3.02817 0
M  V30 12672 H 1175.25 3.27617 1.93317 0
M  V30 12673 H 1176.56 4.18022 2.72138 0
M  V30 12674 H 1175.72 3.47911 4.97034 0
M  V30 12675 H 1174.46 2.47267 4.20369 0
M  V30 12676 H 1173.46 4.51558 3.13649 0
M  V30 12677 H 1174.69 5.53459 3.93523 0
M  V30 12678 H 1172.63 3.794 5.35156 0
M  V30 12679 H 1172.55 5.51563 5.17024 0
M  V30 12680 H 1173.82 4.81433 6.1306 0
M  V30 12681 N 1178.05 -0.61812 1.44973 0
M  V30 12682 C 1178.98 -1.74299 1.48837 0
M  V30 12683 C 1179.99 -1.58296 0.38028 0
M  V30 12684 O 1181.18 -1.66371 0.646757 0
M  V30 12685 C 1178.28 -3.12179 1.31901 0
M  V30 12686 C 1177.45 -3.54519 2.56193 0
M  V30 12687 C 1176.51 -4.71324 2.33966 0
M  V30 12688 O 1175.54 -4.78975 3.07525 0
M  V30 12689 N 1176.74 -5.63894 1.37854 0
M  V30 12690 H 1179.5 -1.7145 2.45815 0
M  V30 12691 H 1177.07 -0.803087 1.40578 0
M  V30 12692 H 1179.06 -3.88059 1.14858 0
M  V30 12693 H 1177.63 -3.09595 0.43239 0
M  V30 12694 H 1176.85 -2.68711 2.88423 0
M  V30 12695 H 1178.14 -3.79563 3.38835 0
M  V30 12696 H 1177.53 -5.60418 0.771273 0
M  V30 12697 H 1176.09 -6.3935 1.26787 0
M  V30 12698 N 1179.52 -1.32087 -0.859693 0
M  V30 12699 C 1180.47 -1.20549 -1.98924 0
M  V30 12700 C 1181.47 -0.111422 -1.69033 0
M  V30 12701 O 1182.67 -0.27401 -1.77902 0
M  V30 12702 H 1179.05 -0.373538 -0.652667 0
M  V30 12703 H 1181.02 -2.16091 -2.05785 0
M  V30 12704 C 1179.77 -0.940226 -3.34746 0
M  V30 12705 H 1179.09 -1.77427 -3.58273 0
M  V30 12706 H 1180.53 -0.899712 -4.14344 0
M  V30 12707 C 1178.99 0.357042 -3.35003 0
M  V30 12708 O 1179.52 1.37054 -3.77596 0
M  V30 12709 N 1177.72 0.37723 -2.88141 0
M  V30 12710 H 1177.27 -0.448051 -2.53674 0
M  V30 12711 H 1177.23 1.24509 -2.88695 0
M  V30 12712 N 1181 1.07532 -1.15215 0
M  V30 12713 C 1181.91 2.18222 -0.861192 0
M  V30 12714 C 1182.93 1.73246 0.161798 0
M  V30 12715 O 1184.1 2.01397 -0.0118386 0
M  V30 12716 C 1181.17 3.44902 -0.352601 0
M  V30 12717 C 1180.23 4.04455 -1.43926 0
M  V30 12718 C 1179.46 5.25089 -0.954841 0
M  V30 12719 O 1179.69 5.70048 0.200294 0
M  V30 12720 O 1178.62 5.76269 -1.73774 0
M  V30 12721 H 1182.45 2.45599 -1.78648 0
M  V30 12722 H 1180.03 1.16835 -0.93112 0
M  V30 12723 H 1181.91 4.21333 -0.0753347 0
M  V30 12724 H 1180.59 3.19082 0.544841 0
M  V30 12725 H 1179.49 3.29573 -1.7701 0
M  V30 12726 H 1180.83 4.34544 -2.31155 0
M  V30 12727 N 1182.48 0.948665 1.2585 0
M  V30 12728 C 1183.73 0.600236 1.934 0
M  V30 12729 C 1184.06 -0.86185 1.74363 0
M  V30 12730 O 1183.31 -1.63294 1.07858 0
M  V30 12731 C 1183.61 0.89784 3.45939 0
M  V30 12732 C 1183.28 2.345 3.85124 0
M  V30 12733 C 1181.94 2.74058 3.95532 0
M  V30 12734 C 1184.29 3.2851 4.04636 0
M  V30 12735 C 1181.62 4.06707 4.22855 0
M  V30 12736 C 1183.97 4.60764 4.3345 0
M  V30 12737 C 1182.63 5.00127 4.42074 0
M  V30 12738 H 1181.9 0.219642 0.707699 0
M  V30 12739 H 1184.55 1.19658 1.49513 0
M  V30 12740 H 1182.86 0.219037 3.91187 0
M  V30 12741 H 1184.55 0.606916 3.96381 0
M  V30 12742 H 1181.14 2.02819 3.77574 0
M  V30 12743 H 1185.33 2.99141 3.96015 0
M  V30 12744 H 1180.58 4.36856 4.27746 0
M  V30 12745 H 1184.76 5.33594 4.47493 0
M  V30 12746 H 1182.38 6.02939 4.63 0
M  V30 12747 N 1183.96 -1.40369 0.716545 0
M  V30 12748 C 1185.37 -1.83783 0.328719 0
M  V30 12749 C 1185.72 -1.5991 -1.13681 0
M  V30 12750 O 1184.85 -1.08048 -1.87496 0
M  V30 12751 C 1185.44 -3.33626 0.589848 0
M  V30 12752 C 1184 -3.7553 0.25572 0
M  V30 12753 C 1183.15 -2.63571 0.861733 0
M  V30 12754 H 1186.1 -1.29623 0.915621 0
M  V30 12755 H 1186.12 -3.80225 -0.14459 0
M  V30 12756 H 1185.63 -3.5097 1.65655 0
M  V30 12757 H 1183.73 -3.63781 -0.805883 0
M  V30 12758 H 1183.84 -4.73577 0.725388 0
M  V30 12759 H 1182.21 -2.53047 0.289706 0
M  V30 12760 H 1182.99 -2.83727 1.93272 0
M  V30 12761 N 1185.44 -0.462799 -1.50652 0
M  V30 12762 C 1186.85 -0.00568907 -1.86699 0
M  V30 12763 C 1187.2 1.39641 -1.37822 0
M  V30 12764 O 1186.32 2.03366 -0.739679 0
M  V30 12765 C 1186.92 -0.00354783 -3.388 0
M  V30 12766 C 1185.48 0.398061 -3.74289 0
M  V30 12767 C 1184.62 -0.392574 -2.74507 0
M  V30 12768 H 1187.58 -0.677469 -1.43513 0
M  V30 12769 H 1187.6 0.800456 -3.71985 0
M  V30 12770 H 1187.11 -1.02414 -3.74344 0
M  V30 12771 H 1185.21 1.42331 -3.44344 0
M  V30 12772 H 1185.32 0.105168 -4.78985 0
M  V30 12773 H 1183.69 0.152608 -2.54242 0
M  V30 12774 H 1184.47 -1.41252 -3.12894 0
M  V30 12775 N 1186.91 1.56388 -0.195085 0
M  V30 12776 C 1188.16 1.97872 0.444344 0
M  V30 12777 C 1188.49 1.0819 1.61271 0
M  V30 12778 O 1187.77 0.133904 1.94039 0
M  V30 12779 C 1188.05 3.48556 0.90449 0
M  V30 12780 C 1187.9 4.49015 -0.265693 0
M  V30 12781 C 1189.22 4.02938 1.76999 0
M  V30 12782 H 1186.34 0.719413 0.160041 0
M  V30 12783 H 1188.98 1.87835 -0.286005 0
M  V30 12784 H 1187.13 3.5724 1.52682 0
M  V30 12785 H 1188.81 4.52368 -0.903363 0
M  V30 12786 H 1187.05 4.23987 -0.917462 0
M  V30 12787 H 1187.72 5.51912 0.0987834 0
M  V30 12788 H 1190.2 3.97033 1.24514 0
M  V30 12789 H 1189.07 5.08741 2.06092 0
M  V30 12790 H 1189.33 3.48197 2.72418 0
M  V30 12791 N 1188.39 -0.0785156 1.57404 0
M  V30 12792 C 1189.62 -0.795871 1.91522 0
M  V30 12793 C 1190.04 -1.70665 0.790892 0
M  V30 12794 O 1189.4 -1.79474 -0.25666 0
M  V30 12795 C 1189.45 -1.57121 3.24569 0
M  V30 12796 O 1188.55 -2.6814 3.13328 0
M  V30 12797 H 1187.89 -0.217575 0.627341 0
M  V30 12798 H 1190.42 -0.0487724 2.04542 0
M  V30 12799 H 1190.43 -1.9519 3.5828 0
M  V30 12800 H 1189.11 -0.902909 4.05981 0
M  V30 12801 H 1187.69 -2.32978 2.91163 0
M  V30 12802 N 1189.87 -1.5367 -0.349747 0
M  V30 12803 C 1191.15 -1.61238 -1.10732 0
M  V30 12804 C 1191.53 -0.429756 -2.06679 0
M  V30 12805 O 1190.88 0.578564 -2.21054 0
M  V30 12806 C 1191.09 -2.97022 -1.83245 0
M  V30 12807 C 1192.43 -3.52158 -2.37212 0
M  V30 12808 O 1193.46 -2.99156 -1.9335 0
M  V30 12809 O 1192.32 -4.44853 -3.1744 0
M  V30 12810 H 1189.41 -0.65191 -0.508864 0
M  V30 12811 H 1191.96 -1.66015 -0.351738 0
M  V30 12812 H 1190.73 -3.74535 -1.13311 0
M  V30 12813 H 1190.35 -2.95808 -2.65675 0
M  V30 12814 N 1191.35 0.610423 -1.45298 0
M  V30 12815 C 1192.28 1.73207 -1.56594 0
M  V30 12816 C 1193.26 1.64893 -0.417651 0
M  V30 12817 O 1194.44 1.83336 -0.64043 0
M  V30 12818 C 1191.57 3.11803 -1.52959 0
M  V30 12819 C 1190.53 3.34925 -2.66475 0
M  V30 12820 C 1189.85 4.73764 -2.47894 0
M  V30 12821 C 1191.15 3.25456 -4.08504 0
M  V30 12822 H 1192.85 1.6401 -2.50482 0
M  V30 12823 H 1190.39 0.787621 -1.20551 0
M  V30 12824 H 1192.35 3.90065 -1.59458 0
M  V30 12825 H 1191.07 3.21833 -0.55599 0
M  V30 12826 H 1189.73 2.59051 -2.59399 0
M  V30 12827 H 1189.38 4.80524 -1.4868 0
M  V30 12828 H 1189.08 4.90191 -3.24016 0
M  V30 12829 H 1190.6 5.54231 -2.56243 0
M  V30 12830 H 1192.02 3.93597 -4.16839 0
M  V30 12831 H 1190.41 3.53414 -4.84994 0
M  V30 12832 H 1191.48 2.22939 -4.30612 0
M  V30 12833 N 1192.83 1.32541 0.852676 0
M  V30 12834 C 1194.05 1.2636 1.64462 0
M  V30 12835 C 1194.48 -0.16508 1.87374 0
M  V30 12836 O 1193.83 -1.11712 1.42794 0
M  V30 12837 C 1193.88 2.03052 2.97997 0
M  V30 12838 O 1192.99 1.37967 3.88637 0
M  V30 12839 H 1192.33 0.435393 0.501327 0
M  V30 12840 H 1194.86 1.74888 1.06186 0
M  V30 12841 H 1194.87 2.133 3.47803 0
M  V30 12842 H 1193.54 3.06941 2.80642 0
M  V30 12843 H 1192.12 1.36279 3.47106 0
M  V30 12844 N 1194.3 -1.0692 1.15784 0
M  V30 12845 C 1195.55 -1.78983 0.929944 0
M  V30 12846 C 1195.87 -1.87884 -0.543969 0
M  V30 12847 O 1197.07 -2.56513 -0.889578 0
M  V30 12848 C 1195.53 -3.21657 1.61446 0
M  V30 12849 C 1195.14 -3.20943 3.12569 0
M  V30 12850 C 1196.88 -3.98299 1.46828 0
M  V30 12851 C 1194.79 -4.58298 3.73788 0
M  V30 12852 H 1193.72 -0.670809 0.344284 0
M  V30 12853 H 1196.37 -1.19975 1.38846 0
M  V30 12854 H 1194.75 -3.80885 1.08364 0
M  V30 12855 H 1195.92 -2.71334 3.72444 0
M  V30 12856 H 1194.24 -2.57799 3.26999 0
M  V30 12857 H 1196.84 -4.99822 1.89952 0
M  V30 12858 H 1197.18 -4.14213 0.416358 0
M  V30 12859 H 1197.71 -3.45577 1.97031 0
M  V30 12860 H 1194.45 -4.47588 4.789 0
M  V30 12861 H 1193.97 -5.08126 3.18698 0
M  V30 12862 H 1195.65 -5.27262 3.74972 0
M  V30 12863 N 1195.78 -0.955326 -1.25345 0
M  V30 12864 C 1197.03 -0.611388 -1.93365 0
M  V30 12865 C 1197.36 0.84953 -1.74633 0
M  V30 12866 O 1196.64 1.60962 -1.09185 0
M  V30 12867 C 1196.92 -0.971732 -3.46741 0
M  V30 12868 C 1196.77 -2.48843 -3.74696 0
M  V30 12869 C 1198.09 -0.497295 -4.37281 0
M  V30 12870 H 1195.21 -0.223591 -0.702265 0
M  V30 12871 H 1197.85 -1.1921 -1.47949 0
M  V30 12872 H 1196 -0.477568 -3.85554 0
M  V30 12873 H 1197.67 -3.05641 -3.45516 0
M  V30 12874 H 1195.92 -2.92582 -3.20278 0
M  V30 12875 H 1196.59 -2.69107 -4.8196 0
M  V30 12876 H 1199.06 -0.921196 -4.05775 0
M  V30 12877 H 1197.94 -0.778113 -5.43357 0
M  V30 12878 H 1198.2 0.602743 -4.37972 0
M  V30 12879 N 1197.26 1.39987 -0.723979 0
M  V30 12880 C 1198.17 2.3447 -0.0780936 0
M  V30 12881 C 1199.19 1.57744 0.734368 0
M  V30 12882 O 1200.36 1.90091 0.665385 0
M  V30 12883 C 1197.43 3.36705 0.826492 0
M  V30 12884 C 1196.49 4.293 0.00303036 0
M  V30 12885 C 1195.72 5.26651 0.864535 0
M  V30 12886 O 1195.95 5.30194 2.10357 0
M  V30 12887 O 1194.88 6.01157 0.299057 0
M  V30 12888 H 1198.71 2.91338 -0.857646 0
M  V30 12889 H 1196.29 1.41324 -0.484536 0
M  V30 12890 H 1198.17 3.9938 1.34439 0
M  V30 12891 H 1196.85 2.82237 1.58505 0
M  V30 12892 H 1195.75 3.69883 -0.560136 0
M  V30 12893 H 1197.09 4.86942 -0.717494 0
M  V30 12894 N 1198.74 0.470782 1.50404 0
M  V30 12895 C 1199.65 -0.328877 2.32283 0
M  V30 12896 C 1200.67 -0.99629 1.42654 0
M  V30 12897 O 1201.84 -0.984331 1.75707 0
M  V30 12898 C 1198.91 -1.39675 3.1732 0
M  V30 12899 C 1197.97 -0.745965 4.22769 0
M  V30 12900 C 1197.2 -1.76295 5.03742 0
M  V30 12901 O 1197.42 -2.98943 4.85788 0
M  V30 12902 O 1196.36 -1.33495 5.86909 0
M  V30 12903 H 1200.18 0.340491 3.01785 0
M  V30 12904 H 1197.77 0.232637 1.47578 0
M  V30 12905 H 1199.65 -2.0153 3.70086 0
M  V30 12906 H 1198.33 -2.04959 2.50546 0
M  V30 12907 H 1197.23 -0.0884647 3.73995 0
M  V30 12908 H 1198.57 -0.136074 4.92012 0
M  V30 12909 N 1200.22 -1.56282 0.203376 0
M  V30 12910 C 1201.46 -1.98105 -0.433844 0
M  V30 12911 C 1201.8 -1.09044 -1.60695 0
M  V30 12912 O 1201.07 -0.144193 -1.93965 0
M  V30 12913 C 1201.35 -3.4903 -0.885992 0
M  V30 12914 C 1201.21 -4.48867 0.289501 0
M  V30 12915 C 1202.53 -4.03871 -1.7486 0
M  V30 12916 H 1199.65 -0.720252 -0.156224 0
M  V30 12917 H 1202.29 -1.87681 0.295963 0
M  V30 12918 H 1200.44 -3.58045 -1.50785 0
M  V30 12919 H 1202.11 -4.51883 0.92734 0
M  V30 12920 H 1200.35 -4.23495 0.939934 0
M  V30 12921 H 1201.02 -5.51956 -0.0695128 0
M  V30 12922 H 1203.5 -3.97688 -1.22407 0
M  V30 12923 H 1202.38 -5.09827 -2.03391 0
M  V30 12924 H 1202.64 -3.49637 -2.70567 0
M  V30 12925 N 1201.7 0.070167 -1.57444 0
M  V30 12926 C 1202.92 0.785703 -1.91941 0
M  V30 12927 C 1203.35 1.70243 -0.799932 0
M  V30 12928 O 1202.7 1.79608 0.247139 0
M  V30 12929 C 1202.75 1.55398 -3.25398 0
M  V30 12930 O 1201.86 2.66475 -3.14746 0
M  V30 12931 H 1201.2 0.214245 -0.628486 0
M  V30 12932 H 1203.73 0.0379243 -2.04565 0
M  V30 12933 H 1203.74 1.93287 -3.5931 0
M  V30 12934 H 1202.41 0.881366 -4.06454 0
M  V30 12935 H 1200.99 2.3143 -2.92394 0
M  V30 12936 N 1203.17 1.53854 0.341593 0
M  V30 12937 C 1204.11 1.76797 1.44284 0
M  V30 12938 C 1205.08 0.617157 1.50432 0
M  V30 12939 O 1206.27 0.85254 1.68119 0
M  V30 12940 C 1203.4 1.86837 2.82506 0
M  V30 12941 C 1202.44 3.09001 2.93974 0
M  V30 12942 S 1203.27 4.68012 2.60241 0
M  V30 12943 C 1204.43 4.80933 4.00567 0
M  V30 12944 H 1204.66 2.69927 1.24606 0
M  V30 12945 H 1202.2 1.44747 0.537375 0
M  V30 12946 H 1204.15 1.93306 3.62137 0
M  V30 12947 H 1202.82 0.947162 2.99479 0
M  V30 12948 H 1202.01 3.12707 3.9526 0
M  V30 12949 H 1201.61 3.00768 2.22294 0
M  V30 12950 H 1203.9 4.62462 4.95111 0
M  V30 12951 H 1204.85 5.83025 4.01855 0
M  V30 12952 H 1205.25 4.09372 3.88684 0
M  V30 12953 N 1204.65 -0.602709 1.4562 0
M  V30 12954 C 1205.56 -1.74132 1.5721 0
M  V30 12955 C 1206.58 -1.67909 0.456347 0
M  V30 12956 O 1207.75 -1.88178 0.717714 0
M  V30 12957 C 1204.82 -3.10604 1.54032 0
M  V30 12958 C 1203.88 -3.28244 2.76685 0
M  V30 12959 C 1203.11 -4.58205 2.73649 0
M  V30 12960 O 1203.34 -5.40836 1.81254 0
M  V30 12961 O 1202.27 -4.78663 3.64919 0
M  V30 12962 H 1206.1 -1.67304 2.53462 0
M  V30 12963 H 1203.68 -0.767381 1.28186 0
M  V30 12964 H 1205.56 -3.91904 1.54885 0
M  V30 12965 H 1204.24 -3.17913 0.60934 0
M  V30 12966 H 1203.14 -2.46514 2.81393 0
M  V30 12967 H 1204.48 -3.25814 3.68925 0
M  V30 12968 N 1206.13 -1.32992 -0.845635 0
M  V30 12969 C 1207.04 -1.24701 -1.98713 0
M  V30 12970 C 1208.06 -0.158864 -1.73273 0
M  V30 12971 O 1209.23 -0.381209 -1.97759 0
M  V30 12972 C 1206.3 -0.979524 -3.32575 0
M  V30 12973 C 1205.36 -2.15701 -3.71176 0
M  V30 12974 C 1204.59 -1.90219 -4.98651 0
M  V30 12975 O 1204.81 -0.849171 -5.64044 0
M  V30 12976 O 1203.75 -2.76571 -5.34595 0
M  V30 12977 H 1207.57 -2.20683 -2.08645 0
M  V30 12978 H 1205.16 -1.12971 -0.97765 0
M  V30 12979 H 1207.04 -0.847219 -4.12796 0
M  V30 12980 H 1205.72 -0.0499398 -3.23661 0
M  V30 12981 H 1204.62 -2.34483 -2.91494 0
M  V30 12982 H 1205.96 -3.0697 -3.84747 0
M  V30 12983 N 1207.61 1.06304 -1.1635 0
M  V30 12984 C 1208.83 1.83338 -0.969639 0
M  V30 12985 C 1209.26 1.81945 0.477231 0
M  V30 12986 O 1208.62 1.22018 1.34094 0
M  V30 12987 C 1208.66 3.2785 -1.50155 0
M  V30 12988 O 1207.77 4.06281 -0.707805 0
M  V30 12989 H 1207.11 0.567293 -0.345072 0
M  V30 12990 H 1209.64 1.34033 -1.54584 0
M  V30 12991 H 1209.65 3.7867 -1.51898 0
M  V30 12992 H 1208.32 3.28179 -2.55483 0
M  V30 12993 H 1206.9 3.65055 -0.760872 0
M  V30 12994 N 1209.09 0.96196 1.24836 0
M  V30 12995 C 1210.31 0.63814 1.96813 0
M  V30 12996 C 1210.73 -0.79127 1.71419 0
M  V30 12997 O 1210.09 -1.5302 0.994546 0
M  V30 12998 C 1210.14 0.89626 3.50213 0
M  V30 12999 O 1209.86 2.26947 3.74735 0
M  V30 13000 C 1211.36 0.585836 4.39412 0
M  V30 13001 H 1208.58 0.238598 0.627146 0
M  V30 13002 H 1211.12 1.28833 1.58815 0
M  V30 13003 H 1209.28 0.292368 3.86295 0
M  V30 13004 H 1209.69 2.34514 4.69152 0
M  V30 13005 H 1211.17 0.816935 5.45921 0
M  V30 13006 H 1211.64 -0.479784 4.36572 0
M  V30 13007 H 1212.25 1.16938 4.08908 0
M  V30 13008 N 1210.56 -1.39601 0.731392 0
M  V30 13009 C 1211.81 -2.0019 0.277208 0
M  V30 13010 C 1212.13 -1.5832 -1.13841 0
M  V30 13011 O 1211.4 -0.829793 -1.77458 0
M  V30 13012 H 1209.98 -0.740344 0.0995006 0
M  V30 13013 H 1212.64 -1.70704 0.940547 0
M  V30 13014 H 1211.74 -3.10427 0.322749 0
M  V30 13015 N 1212.04 -0.478751 -1.50152 0
M  V30 13016 C 1213.32 0.135533 -1.9513 0
M  V30 13017 C 1213.7 1.56253 -1.41944 0
M  V30 13018 O 1213.05 2.19824 -0.623673 0
M  V30 13019 C 1213.26 0.0710037 -3.48928 0
M  V30 13020 C 1214.61 0.256075 -4.23827 0
M  V30 13021 O 1215.63 0.147234 -3.55896 0
M  V30 13022 O 1214.49 0.476741 -5.44417 0
M  V30 13023 H 1211.58 0.107491 -0.819985 0
M  V30 13024 H 1214.13 -0.539701 -1.60889 0
M  V30 13025 H 1212.9 -0.925012 -3.80209 0
M  V30 13026 H 1212.52 0.787362 -3.89726 0
M  V30 13027 N 1213.52 1.56172 -0.211661 0
M  V30 13028 C 1214.94 1.5895 0.143907 0
M  V30 13029 C 1215.14 1.22826 1.59737 0
M  V30 13030 O 1214.19 0.958823 2.33587 0
M  V30 13031 C 1215.51 3.00199 -0.173438 0
M  V30 13032 C 1217.05 3.12789 -0.114877 0
M  V30 13033 C 1217.53 4.56199 -0.405759 0
M  V30 13034 N 1219.02 4.61838 -0.354973 0
M  V30 13035 C 1219.75 5.70721 -0.553671 0
M  V30 13036 N 1219.25 6.88006 -0.813613 0
M  V30 13037 N 1221.04 5.59988 -0.486787 0
M  V30 13038 H 1213.19 1.77931 -1.15993 0
M  V30 13039 H 1215.46 0.826569 -0.464206 0
M  V30 13040 H 1215.16 3.31248 -1.18186 0
M  V30 13041 H 1215.04 3.73651 0.516232 0
M  V30 13042 H 1217.42 2.81543 0.884166 0
M  V30 13043 H 1217.51 2.41688 -0.837875 0
M  V30 13044 H 1217.15 4.88161 -1.40219 0
M  V30 13045 H 1217.08 5.25512 0.338318 0
M  V30 13046 H 1219.57 3.77555 -0.161352 0
M  V30 13047 H 1219.88 7.66894 -0.953594 0
M  V30 13048 H 1218.23 6.89774 -0.850696 0
M  V30 13049 H 1221.42 4.67238 -0.284009 0
M  V30 13050 H 1221.59 6.44781 -0.645051 0
M  V30 13051 N 1215 -0.0618163 1.57479 0
M  V30 13052 C 1216.28 -0.792636 1.7882 0
M  V30 13053 C 1216.66 -1.95283 0.801724 0
M  V30 13054 O 1216 -2.27917 -0.163095 0
M  V30 13055 C 1216.21 -1.25629 3.25605 0
M  V30 13056 C 1217.56 -1.68561 3.89708 0
M  V30 13057 O 1218.59 -1.35171 3.29556 0
M  V30 13058 O 1217.44 -2.30417 4.95551 0
M  V30 13059 H 1214.54 -0.380595 0.734218 0
M  V30 13060 H 1217.08 -0.0411205 1.6965 0
M  V30 13061 H 1215.86 -0.426582 3.88968 0
M  V30 13062 H 1215.48 -2.06882 3.39537 0
M  V30 13063 N 1216.48 -1.54033 -0.333429 0
M  V30 13064 C 1217.73 -1.70979 -1.07 0
M  V30 13065 C 1218.04 -0.485095 -1.89489 0
M  V30 13066 O 1219.24 -0.535712 -2.66162 0
M  V30 13067 C 1217.7 -3.02382 -1.95175 0
M  V30 13068 C 1217.31 -4.32223 -1.17844 0
M  V30 13069 C 1219.05 -3.28693 -2.68628 0
M  V30 13070 C 1216.96 -5.54693 -2.05109 0
M  V30 13071 H 1215.89 -0.637152 -0.403179 0
M  V30 13072 H 1218.54 -1.80529 -0.328839 0
M  V30 13073 H 1216.92 -2.86714 -2.73151 0
M  V30 13074 H 1218.1 -4.58626 -0.447089 0
M  V30 13075 H 1216.41 -4.12601 -0.561166 0
M  V30 13076 H 1219.01 -4.17385 -3.34207 0
M  V30 13077 H 1219.35 -2.46141 -3.35738 0
M  V30 13078 H 1219.88 -3.45183 -1.9772 0
M  V30 13079 H 1216.62 -6.39818 -1.42523 0
M  V30 13080 H 1216.14 -5.32524 -2.76005 0
M  V30 13081 H 1217.82 -5.90722 -2.63926 0
M  V30 13082 N 1217.95 0.594978 -1.45938 0
M  V30 13083 C 1219.18 1.38482 -1.54394 0
M  V30 13084 C 1219.6 1.87222 -0.181563 0
M  V30 13085 O 1218.96 1.60869 0.836119 0
M  V30 13086 C 1219.01 2.55676 -2.54287 0
M  V30 13087 O 1218.11 3.5672 -2.06941 0
M  V30 13088 H 1217.46 0.412918 -0.519995 0
M  V30 13089 H 1219.99 0.722899 -1.91404 0
M  V30 13090 H 1220 3.02756 -2.73501 0
M  V30 13091 H 1218.67 2.19552 -3.53228 0
M  V30 13092 H 1217.25 3.16204 -1.97661 0
M  V30 13093 N 1219.43 1.33438 0.838571 0
M  V30 13094 C 1220.38 1.23698 1.96981 0
M  V30 13095 C 1221.37 0.138299 1.68835 0
M  V30 13096 O 1222.58 0.302278 1.77444 0
M  V30 13097 H 1218.96 0.383874 0.646641 0
M  V30 13098 H 1220.93 2.19337 2.02321 0
M  V30 13099 C 1219.68 0.993362 3.33208 0
M  V30 13100 H 1219 1.83104 3.55405 0
M  V30 13101 H 1220.44 0.965517 4.1286 0
M  V30 13102 C 1218.9 -0.303701 3.35528 0
M  V30 13103 O 1219.43 -1.3103 3.79729 0
M  V30 13104 N 1217.63 -0.331342 2.88705 0
M  V30 13105 H 1217.18 0.488351 2.52929 0
M  V30 13106 H 1217.14 -1.199 2.9064 0
M  V30 13107 N 1220.91 -1.05686 1.16912 0
M  V30 13108 C 1221.86 -2.15417 0.877404 0
M  V30 13109 C 1222.85 -1.6868 -0.155986 0
M  V30 13110 O 1224.06 -1.79998 -0.00938156 0
M  V30 13111 H 1220.43 -0.70332 0.266168 0
M  V30 13112 H 1222.4 -2.37228 1.81012 0
M  V30 13113 C 1221.15 -3.45372 0.401696 0
M  V30 13114 H 1220.48 -3.81732 1.18832 0
M  V30 13115 H 1221.92 -4.2334 0.236418 0
M  V30 13116 C 1220.38 -3.25209 -0.87981 0
M  V30 13117 O 1220.91 -3.51322 -1.94771 0
M  V30 13118 N 1219.11 -2.78614 -0.825997 0
M  V30 13119 H 1218.66 -2.57564 0.0432439 0
M  V30 13120 H 1218.62 -2.65503 -1.68391 0
M  V30 13121 N 1222.39 -0.968567 -1.24324 0
M  V30 13122 C 1223.32 -0.457247 -2.24593 0
M  V30 13123 C 1224.33 0.434483 -1.56895 0
M  V30 13124 O 1225.52 0.240519 -1.76872 0
M  V30 13125 C 1222.62 0.359086 -3.36992 0
M  V30 13126 C 1221.8 -0.522945 -4.34263 0
M  V30 13127 C 1220.85 0.237528 -5.25664 0
M  V30 13128 O 1219.88 -0.368835 -5.68004 0
M  V30 13129 N 1221.08 1.52686 -5.6006 0
M  V30 13130 H 1223.85 -1.31934 -2.69098 0
M  V30 13131 H 1221.41 -0.840488 -1.38374 0
M  V30 13132 H 1223.4 0.87589 -3.95108 0
M  V30 13133 H 1221.97 1.12212 -2.91766 0
M  V30 13134 H 1221.19 -1.22071 -3.74823 0
M  V30 13135 H 1222.48 -1.12447 -4.96219 0
M  V30 13136 H 1221.88 2.0412 -5.2759 0
M  V30 13137 H 1220.43 1.98934 -6.207 0
M  V30 13138 N 1223.87 1.39211 -0.738786 0
M  V30 13139 C 1225.12 1.99673 -0.285254 0
M  V30 13140 C 1225.43 1.59297 1.13507 0
M  V30 13141 O 1226.63 2.12622 1.68832 0
M  V30 13142 C 1225.09 3.5696 -0.45906 0
M  V30 13143 C 1224.7 4.06297 -1.88751 0
M  V30 13144 C 1226.44 4.24446 -0.0674954 0
M  V30 13145 C 1224.35 5.56171 -2.01067 0
M  V30 13146 H 1223.28 0.746945 -0.102901 0
M  V30 13147 H 1225.93 1.59163 -0.913209 0
M  V30 13148 H 1224.31 3.95285 0.23785 0
M  V30 13149 H 1225.49 3.79297 -2.61669 0
M  V30 13150 H 1223.8 3.51486 -2.23264 0
M  V30 13151 H 1226.4 5.34521 -0.138475 0
M  V30 13152 H 1226.74 4.04653 0.977823 0
M  V30 13153 H 1227.27 3.91309 -0.715704 0
M  V30 13154 H 1224.01 5.80849 -3.03801 0
M  V30 13155 H 1223.53 5.84961 -1.32591 0
M  V30 13156 H 1225.21 6.21642 -1.79362 0
M  V30 13157 N 1225.34 0.486708 1.49896 0
M  V30 13158 C 1226.27 -0.288898 2.31706 0
M  V30 13159 C 1227.26 -0.975901 1.3932 0
M  V30 13160 O 1228.44 -0.970065 1.68236 0
M  V30 13161 C 1225.57 -1.36218 3.19471 0
M  V30 13162 C 1224.52 -0.795884 4.20535 0
M  V30 13163 C 1223.85 -1.96862 4.97141 0
M  V30 13164 C 1225.15 0.203421 5.21904 0
M  V30 13165 H 1226.84 0.393934 2.96797 0
M  V30 13166 H 1224.39 0.190894 1.42729 0
M  V30 13167 H 1226.34 -1.91238 3.75508 0
M  V30 13168 H 1225.07 -2.074 2.52295 0
M  V30 13169 H 1223.73 -0.267538 3.65622 0
M  V30 13170 H 1223.37 -2.66779 4.26425 0
M  V30 13171 H 1223.07 -1.59585 5.65514 0
M  V30 13172 H 1224.6 -2.52343 5.56017 0
M  V30 13173 H 1226.01 -0.258144 5.72719 0
M  V30 13174 H 1224.41 0.491273 5.98086 0
M  V30 13175 H 1225.48 1.12414 4.7169 0
M  V30 13176 N 1226.82 -1.56058 0.219941 0
M  V30 13177 C 1228.05 -2.02652 -0.417101 0
M  V30 13178 C 1228.47 -1.09977 -1.53461 0
M  V30 13179 O 1227.82 -0.109088 -1.82174 0
M  V30 13180 C 1227.87 -3.48787 -0.950244 0
M  V30 13181 O 1227.6 -4.37928 0.12271 0
M  V30 13182 C 1229.1 -4.11018 -1.66069 0
M  V30 13183 H 1226.32 -0.663163 -0.102254 0
M  V30 13184 H 1228.86 -2.01722 0.335923 0
M  V30 13185 H 1227.02 -3.50338 -1.65355 0
M  V30 13186 H 1227.43 -5.23764 -0.277785 0
M  V30 13187 H 1228.9 -5.15046 -1.98575 0
M  V30 13188 H 1229.38 -3.55921 -2.57326 0
M  V30 13189 H 1229.99 -4.13313 -1.00263 0
M  V30 13190 N 1228.3 0.053464 -1.57509 0
M  V30 13191 C 1229.53 0.761533 -1.92375 0
M  V30 13192 C 1229.94 1.70179 -0.817585 0
M  V30 13193 O 1229.3 1.81313 0.207843 0
M  V30 13194 C 1229.35 1.53954 -3.27078 0
M  V30 13195 O 1229.07 0.637054 -4.33443 0
M  V30 13196 C 1230.57 2.34697 -3.76075 0
M  V30 13197 H 1227.79 0.215483 -0.635459 0
M  V30 13198 H 1230.34 0.0182624 -2.04492 0
M  V30 13199 H 1228.49 2.23492 -3.16434 0
M  V30 13200 H 1228.91 1.18006 -5.11053 0
M  V30 13201 H 1230.38 2.84716 -4.72906 0
M  V30 13202 H 1230.86 3.15041 -3.06016 0
M  V30 13203 H 1231.46 1.70281 -3.89724 0
M  V30 13204 N 1229.78 1.54207 0.325255 0
M  V30 13205 C 1231 1.7661 1.08736 0
M  V30 13206 C 1231.43 0.512449 1.80985 0
M  V30 13207 O 1230.79 -0.535913 1.73198 0
M  V30 13208 C 1230.84 2.95797 2.06243 0
M  V30 13209 O 1229.94 2.67225 3.14109 0
M  V30 13210 H 1229.28 0.585282 0.313593 0
M  V30 13211 H 1231.81 2.01225 0.370066 0
M  V30 13212 H 1231.82 3.23097 2.49143 0
M  V30 13213 H 1230.5 3.86712 1.53058 0
M  V30 13214 H 1229.07 2.50869 2.75897 0
M  V30 13215 N 1231.26 -0.58723 1.46251 0
M  V30 13216 C 1232.19 -1.70694 1.5933 0
M  V30 13217 C 1233.17 -1.64208 0.443831 0
M  V30 13218 O 1234.35 -1.82294 0.669516 0
M  V30 13219 C 1231.48 -3.0933 1.579 0
M  V30 13220 C 1230.44 -3.30643 2.7177 0
M  V30 13221 C 1229.76 -4.69761 2.554 0
M  V30 13222 C 1231.06 -3.18916 4.1363 0
M  V30 13223 H 1232.76 -1.60004 2.53059 0
M  V30 13224 H 1230.3 -0.768343 1.21789 0
M  V30 13225 H 1232.26 -3.87479 1.65644 0
M  V30 13226 H 1230.98 -3.20907 0.60712 0
M  V30 13227 H 1229.64 -2.54892 2.63488 0
M  V30 13228 H 1229.29 -4.78098 1.56306 0
M  V30 13229 H 1228.99 -4.84974 3.31774 0
M  V30 13230 H 1230.51 -5.50084 2.65028 0
M  V30 13231 H 1231.93 -3.86915 4.23048 0
M  V30 13232 H 1230.32 -3.45653 4.90555 0
M  V30 13233 H 1231.39 -2.1606 4.34104 0
M  V30 13234 N 1232.74 -1.33881 -0.831482 0
M  V30 13235 C 1234.15 -1.13376 -1.1233 0
M  V30 13236 C 1234.35 0.0704402 -2.01377 0
M  V30 13237 O 1233.41 0.748516 -2.4115 0
M  V30 13238 C 1234.72 -2.42484 -1.77826 0
M  V30 13239 C 1236.27 -2.4846 -1.90359 0
M  V30 13240 C 1236.74 -3.77548 -2.59272 0
M  V30 13241 N 1238.23 -3.7866 -2.66778 0
M  V30 13242 C 1238.97 -4.75258 -3.20807 0
M  V30 13243 N 1238.47 -5.82234 -3.75466 0
M  V30 13244 N 1240.26 -4.62724 -3.19128 0
M  V30 13245 H 1232.41 -2.11051 -0.238998 0
M  V30 13246 H 1234.67 -0.932893 -0.168565 0
M  V30 13247 H 1234.38 -3.30647 -1.19857 0
M  V30 13248 H 1234.25 -2.55186 -2.77777 0
M  V30 13249 H 1236.64 -1.60742 -2.47479 0
M  V30 13250 H 1236.72 -2.39693 -0.893359 0
M  V30 13251 H 1236.36 -4.65651 -2.02808 0
M  V30 13252 H 1236.29 -3.83594 -3.60781 0
M  V30 13253 H 1238.79 -3.01351 -2.28026 0
M  V30 13254 H 1239.1 -6.51968 -4.14918 0
M  V30 13255 H 1237.44 -5.85959 -3.73733 0
M  V30 13256 H 1240.63 -3.78303 -2.75688 0
M  V30 13257 H 1240.81 -5.38175 -3.60932 0
M  V30 13258 N 1234.21 1.05064 -1.1747 0
M  V30 13259 C 1235.49 1.74999 -0.873776 0
M  V30 13260 C 1235.87 2.01615 0.625676 0
M  V30 13261 O 1235.22 1.65324 1.57734 0
M  V30 13262 C 1235.43 3.04231 -1.7101 0
M  V30 13263 C 1236.78 3.78157 -1.93087 0
M  V30 13264 O 1237.8 3.14104 -1.6798 0
M  V30 13265 O 1236.66 4.93255 -2.3529 0
M  V30 13266 H 1233.75 0.761042 -0.323641 0
M  V30 13267 H 1236.3 1.1122 -1.28172 0
M  V30 13268 H 1235.07 2.80621 -2.72704 0
M  V30 13269 H 1234.69 3.75746 -1.30002 0
M  V30 13270 N 1235.69 0.975146 1.23809 0
M  V30 13271 C 1236.62 0.530389 2.27396 0
M  V30 13272 C 1237.6 -0.433763 1.64476 0
M  V30 13273 O 1238.79 -0.32827 1.91405 0
M  V30 13274 C 1235.92 -0.173066 3.46869 0
M  V30 13275 C 1234.87 0.707844 4.22106 0
M  V30 13276 C 1234.2 -0.127527 5.34548 0
M  V30 13277 C 1235.5 1.99609 4.82652 0
M  V30 13278 H 1237.19 1.39622 2.64851 0
M  V30 13279 H 1234.74 0.672802 1.27316 0
M  V30 13280 H 1236.69 -0.495481 4.18477 0
M  V30 13281 H 1235.41 -1.0733 3.0846 0
M  V30 13282 H 1234.07 1.01364 3.52308 0
M  V30 13283 H 1233.72 -1.02814 4.9238 0
M  V30 13284 H 1233.42 0.458728 5.85807 0
M  V30 13285 H 1234.95 -0.444443 6.0898 0
M  V30 13286 H 1236.36 1.73878 5.46296 0
M  V30 13287 H 1234.76 2.52969 5.44175 0
M  V30 13288 H 1235.83 2.68629 4.03691 0
M  V30 13289 N 1237.17 -1.38817 0.746158 0
M  V30 13290 C 1238.1 -2.29081 0.0737986 0
M  V30 13291 C 1239.11 -1.47377 -0.691656 0
M  V30 13292 O 1240.3 -1.70326 -0.533973 0
M  V30 13293 C 1237.4 -3.26185 -0.919607 0
M  V30 13294 C 1236.58 -4.36879 -0.213349 0
M  V30 13295 C 1235.64 -5.1422 -1.11644 0
M  V30 13296 O 1234.66 -5.66137 -0.589747 0
M  V30 13297 N 1235.86 -5.26488 -2.44521 0
M  V30 13298 H 1238.63 -2.87424 0.848966 0
M  V30 13299 H 1236.19 -1.50518 0.596314 0
M  V30 13300 H 1238.18 -3.74802 -1.52662 0
M  V30 13301 H 1236.75 -2.68793 -1.5959 0
M  V30 13302 H 1235.97 -3.89994 0.574285 0
M  V30 13303 H 1237.26 -5.08053 0.275655 0
M  V30 13304 H 1236.66 -4.85846 -2.89777 0
M  V30 13305 H 1235.21 -5.78505 -3.00291 0
M  V30 13306 N 1238.65 -0.49465 -1.49636 0
M  V30 13307 C 1239.56 0.291881 -2.32777 0
M  V30 13308 C 1240.57 0.973468 -1.44221 0
M  V30 13309 O 1241.75 0.956252 -1.77251 0
M  V30 13310 C 1238.81 1.34609 -3.19502 0
M  V30 13311 C 1237.88 0.678611 -4.23903 0
M  V30 13312 C 1237.11 1.68259 -5.06483 0
M  V30 13313 O 1237.33 2.91176 -4.90482 0
M  V30 13314 O 1236.27 1.24141 -5.88959 0
M  V30 13315 H 1240.09 -0.388459 -3.01205 0
M  V30 13316 H 1237.68 -0.256086 -1.47189 0
M  V30 13317 H 1239.56 1.95617 -3.73245 0
M  V30 13318 H 1238.23 2.00947 -2.53775 0
M  V30 13319 H 1237.14 0.0289541 -3.74089 0
M  V30 13320 H 1238.47 0.0577817 -4.92166 0
M  V30 13321 N 1240.13 1.55939 -0.228214 0
M  V30 13322 C 1241.06 2.2357 0.6737 0
M  V30 13323 C 1242.04 1.20964 1.1959 0
M  V30 13324 O 1243.22 1.49568 1.23867 0
M  V30 13325 C 1240.35 2.92076 1.87906 0
M  V30 13326 C 1239.31 4.01211 1.49043 0
M  V30 13327 C 1238.63 4.57047 2.77511 0
M  V30 13328 C 1239.93 5.17914 0.67544 0
M  V30 13329 H 1241.63 2.99199 0.109806 0
M  V30 13330 H 1239.17 1.43908 0.0513732 0
M  V30 13331 H 1241.12 3.38083 2.51551 0
M  V30 13332 H 1239.85 2.13906 2.46803 0
M  V30 13333 H 1238.51 3.55945 0.877411 0
M  V30 13334 H 1238.16 3.75599 3.34566 0
M  V30 13335 H 1237.86 5.30707 2.52239 0
M  V30 13336 H 1239.38 5.05776 3.42087 0
M  V30 13337 H 1240.79 5.60261 1.21575 0
M  V30 13338 H 1239.19 5.97847 0.519536 0
M  V30 13339 H 1240.26 4.83866 -0.316495 0
M  V30 13340 N 1241.6 -0.0451101 1.57535 0
M  V30 13341 C 1242.51 -1.06796 2.08882 0
M  V30 13342 C 1243.53 -1.40682 1.02394 0
M  V30 13343 O 1244.71 -1.50324 1.34033 0
M  V30 13344 C 1241.77 -2.35467 2.54472 0
M  V30 13345 C 1240.83 -2.0831 3.75374 0
M  V30 13346 C 1240.07 -3.30846 4.1878 0
M  V30 13347 O 1240.29 -4.40945 3.61834 0
M  V30 13348 O 1239.22 -3.17488 5.11356 0
M  V30 13349 H 1243.05 -0.661658 2.96405 0
M  V30 13350 H 1240.63 -0.26104 1.47102 0
M  V30 13351 H 1242.52 -3.11143 2.84198 0
M  V30 13352 H 1241.19 -2.75425 1.70068 0
M  V30 13353 H 1240.1 -1.30254 3.50692 0
M  V30 13354 H 1241.43 -1.73218 4.60713 0
M  V30 13355 N 1243.08 -1.54377 -0.317073 0
M  V30 13356 C 1243.99 -1.87247 -1.41335 0
M  V30 13357 C 1245.01 -0.765017 -1.5628 0
M  V30 13358 O 1246.18 -1.05994 -1.71252 0
M  V30 13359 C 1243.25 -2.0988 -2.75955 0
M  V30 13360 C 1242.31 -3.33658 -2.70131 0
M  V30 13361 C 1241.54 -3.55202 -3.9833 0
M  V30 13362 O 1241.77 -2.80061 -4.96913 0
M  V30 13363 O 1240.7 -4.48693 -4.01196 0
M  V30 13364 H 1244.53 -2.80481 -1.16465 0
M  V30 13365 H 1242.11 -1.40364 -0.511687 0
M  V30 13366 H 1243.99 -2.2606 -3.55633 0
M  V30 13367 H 1242.67 -1.19834 -3.00702 0
M  V30 13368 H 1241.58 -3.22857 -1.88981 0
M  V30 13369 H 1242.91 -4.23782 -2.50338 0
M  V30 13370 N 1244.56 0.579466 -1.4656 0
M  V30 13371 C 1245.49 1.69846 -1.60233 0
M  V30 13372 C 1246.47 1.6397 -0.452533 0
M  V30 13373 O 1247.66 1.81936 -0.679174 0
M  V30 13374 C 1244.79 3.08488 -1.59538 0
M  V30 13375 C 1243.74 3.29197 -2.7352 0
M  V30 13376 C 1243.07 4.684 -2.57887 0
M  V30 13377 C 1244.37 3.16718 -4.15315 0
M  V30 13378 H 1246.06 1.5866 -2.53904 0
M  V30 13379 H 1243.61 0.761873 -1.22194 0
M  V30 13380 H 1245.56 3.86595 -1.67696 0
M  V30 13381 H 1244.28 3.20581 -0.62413 0
M  V30 13382 H 1242.94 2.53491 -2.64836 0
M  V30 13383 H 1242.59 4.77262 -1.58839 0
M  V30 13384 H 1242.29 4.83208 -3.34341 0
M  V30 13385 H 1243.81 5.48671 -2.67942 0
M  V30 13386 H 1245.23 3.84666 -4.25094 0
M  V30 13387 H 1243.63 3.43047 -4.92381 0
M  V30 13388 H 1244.7 2.13755 -4.35244 0
M  V30 13389 N 1246.04 1.3432 0.824371 0
M  V30 13390 C 1246.99 1.22332 1.92403 0
M  V30 13391 C 1247.97 0.122709 1.60431 0
M  V30 13392 O 1249.16 0.352231 1.7346 0
M  V30 13393 C 1246.29 0.979497 3.2903 0
M  V30 13394 C 1245.38 2.12322 3.67124 0
M  V30 13395 N 1245.77 3.3743 3.76795 0
M  V30 13396 C 1244.07 2.03314 3.96963 0
M  V30 13397 C 1244.77 4.12532 4.10113 0
M  V30 13398 N 1243.75 3.41109 4.23256 0
M  V30 13399 H 1247.55 2.17143 1.98056 0
M  V30 13400 H 1245.06 1.26537 1.01795 0
M  V30 13401 H 1247.06 0.874525 4.07624 0
M  V30 13402 H 1245.72 0.0400611 3.24675 0
M  V30 13403 H 1246.73 3.72001 3.60327 0
M  V30 13404 H 1243.41 1.17118 4.00736 0
M  V30 13405 H 1244.8 5.20562 4.24811 0
M  V30 13406 N 1247.52 -1.0444 1.18026 0
M  V30 13407 C 1248.47 -2.10671 0.871877 0
M  V30 13408 C 1249.45 -1.60134 -0.156798 0
M  V30 13409 O 1250.64 -1.76938 0.0467129 0
M  V30 13410 C 1247.77 -3.41017 0.395271 0
M  V30 13411 C 1246.86 -3.98331 1.4558 0
M  V30 13412 N 1247.25 -4.29508 2.67127 0
M  V30 13413 C 1245.55 -4.2616 1.31544 0
M  V30 13414 C 1246.25 -4.7532 3.35329 0
M  V30 13415 N 1245.22 -4.75904 2.6271 0
M  V30 13416 H 1249.03 -2.32647 1.79589 0
M  V30 13417 H 1246.54 -1.22158 1.0701 0
M  V30 13418 H 1248.54 -4.16609 0.155861 0
M  V30 13419 H 1247.2 -3.20469 -0.522452 0
M  V30 13420 H 1248.21 -4.19271 3.04027 0
M  V30 13421 H 1244.88 -4.14959 0.459962 0
M  V30 13422 H 1246.27 -5.08493 4.39186 0
M  V30 13423 N 1248.99 -0.981699 -1.2329 0
M  V30 13424 C 1249.93 -0.481042 -2.24095 0
M  V30 13425 C 1250.94 0.417818 -1.57347 0
M  V30 13426 O 1252.13 0.221746 -1.77117 0
M  V30 13427 C 1249.23 0.323324 -3.37354 0
M  V30 13428 C 1248.4 -0.568975 -4.33684 0
M  V30 13429 C 1247.46 0.181761 -5.25886 0
M  V30 13430 O 1246.49 -0.429059 -5.67581 0
M  V30 13431 N 1247.69 1.46737 -5.61648 0
M  V30 13432 H 1250.45 -1.34781 -2.67683 0
M  V30 13433 H 1248.01 -0.855117 -1.37475 0
M  V30 13434 H 1250.01 0.833934 -3.96015 0
M  V30 13435 H 1248.58 1.09111 -2.9294 0
M  V30 13436 H 1247.8 -1.2604 -3.73507 0
M  V30 13437 H 1249.08 -1.17704 -4.94998 0
M  V30 13438 H 1248.48 1.98513 -5.29725 0
M  V30 13439 H 1247.04 1.92339 -6.22775 0
M  V30 13440 N 1250.47 1.3842 -0.753509 0
M  V30 13441 C 1251.72 1.99359 -0.306416 0
M  V30 13442 C 1252.03 1.60492 1.11811 0
M  V30 13443 O 1253.24 2.14401 1.66567 0
M  V30 13444 C 1251.7 3.56453 -0.496895 0
M  V30 13445 C 1251.3 4.04272 -1.9305 0
M  V30 13446 C 1253.05 4.24351 -0.11251 0
M  V30 13447 C 1250.96 5.54007 -2.06955 0
M  V30 13448 H 1249.89 0.745812 -0.110818 0
M  V30 13449 H 1252.54 1.58185 -0.930039 0
M  V30 13450 H 1250.92 3.95515 0.195912 0
M  V30 13451 H 1252.09 3.765 -2.65677 0
M  V30 13452 H 1250.41 3.49098 -2.26979 0
M  V30 13453 H 1253 5.34344 -0.195161 0
M  V30 13454 H 1253.35 4.05668 0.934849 0
M  V30 13455 H 1253.88 3.90528 -0.757168 0
M  V30 13456 H 1250.62 5.77594 -3.09944 0
M  V30 13457 H 1250.14 5.83522 -1.38788 0
M  V30 13458 H 1251.82 6.19704 -1.85945 0
M  V30 13459 N 1251.95 0.502579 1.49372 0
M  V30 13460 C 1253.36 0.055187 1.86618 0
M  V30 13461 C 1253.71 -1.35938 1.41476 0
M  V30 13462 O 1252.84 -2.01333 0.793338 0
M  V30 13463 C 1253.43 0.0933734 3.38671 0
M  V30 13464 C 1251.99 -0.298685 3.75213 0
M  V30 13465 C 1251.14 0.465216 2.7337 0
M  V30 13466 H 1254.09 0.715281 1.41667 0
M  V30 13467 H 1254.11 -0.701549 3.73977 0
M  V30 13468 H 1253.62 1.12303 3.71497 0
M  V30 13469 H 1251.72 -1.33151 3.47996 0
M  V30 13470 H 1251.84 0.0218637 4.79095 0
M  V30 13471 H 1250.2 -0.0851469 2.54558 0
M  V30 13472 H 1250.98 1.49498 3.09039 0
M  V30 13473 N 1253.43 -1.55816 0.23648 0
M  V30 13474 C 1254.68 -1.98686 -0.391146 0
M  V30 13475 C 1255 -1.12443 -1.58703 0
M  V30 13476 O 1254.26 -0.172805 -1.94936 0
M  V30 13477 C 1254.56 -3.47039 -0.85434 0
M  V30 13478 C 1254.22 -4.50299 0.232651 0
M  V30 13479 C 1252.89 -4.78259 0.531218 0
M  V30 13480 C 1255.24 -5.1215 0.967027 0
M  V30 13481 C 1252.57 -5.65347 1.56842 0
M  V30 13482 C 1254.92 -6.00363 1.99367 0
M  V30 13483 C 1253.58 -6.2666 2.299 0
M  V30 13484 H 1252.85 -0.727045 -0.14313 0
M  V30 13485 H 1255.5 -1.88419 0.342125 0
M  V30 13486 H 1253.8 -3.54585 -1.66663 0
M  V30 13487 H 1255.5 -3.7759 -1.35005 0
M  V30 13488 H 1252.09 -4.28599 -0.0102014 0
M  V30 13489 H 1256.27 -4.90606 0.749609 0
M  V30 13490 H 1251.53 -5.83981 1.81043 0
M  V30 13491 H 1255.7 -6.47335 2.56769 0
M  V30 13492 H 1253.33 -6.93938 3.1041 0
M  V30 13493 N 1254.91 0.036755 -1.57557 0
M  V30 13494 C 1256.16 0.728107 -1.881 0
M  V30 13495 C 1256.47 1.7693 -0.833974 0
M  V30 13496 O 1257.67 2.5127 -1.02837 0
M  V30 13497 C 1256.13 1.34604 -3.33781 0
M  V30 13498 C 1255.74 0.341599 -4.46696 0
M  V30 13499 C 1257.48 2.01772 -3.73481 0
M  V30 13500 C 1255.39 0.967444 -5.83433 0
M  V30 13501 H 1254.32 0.275695 -0.701789 0
M  V30 13502 H 1256.97 -0.0177555 -1.83491 0
M  V30 13503 H 1255.35 2.14135 -3.3311 0
M  V30 13504 H 1256.53 -0.426441 -4.58823 0
M  V30 13505 H 1254.84 -0.227558 -4.15778 0
M  V30 13506 H 1257.44 2.49435 -4.72955 0
M  V30 13507 H 1257.78 2.83255 -3.05077 0
M  V30 13508 H 1258.31 1.29026 -3.76294 0
M  V30 13509 H 1255.05 0.19219 -6.55218 0
M  V30 13510 H 1254.57 1.70551 -5.75041 0
M  V30 13511 H 1256.25 1.47705 -6.29914 0
M  V30 13512 N 1256.39 1.54543 0.308881 0
M  V30 13513 C 1257.8 1.64532 0.882392 0
M  V30 13514 C 1258.15 0.54886 1.88367 0
M  V30 13515 O 1257.27 -0.315832 2.14083 0
M  V30 13516 C 1257.87 2.98251 1.60722 0
M  V30 13517 C 1256.43 3.10387 2.12925 0
M  V30 13518 C 1255.57 2.60176 0.959362 0
M  V30 13519 H 1258.52 1.58466 0.0860803 0
M  V30 13520 H 1258.55 2.89233 2.47233 0
M  V30 13521 H 1258.06 3.78033 0.878233 0
M  V30 13522 H 1256.16 2.35309 2.88895 0
M  V30 13523 H 1256.27 4.16421 2.36918 0
M  V30 13524 H 1254.64 2.16434 1.3427 0
M  V30 13525 H 1255.42 3.42429 0.244454 0
M  V30 13526 N 1257.86 -0.571685 1.46866 0
M  V30 13527 C 1259.09 -1.36008 1.56578 0
M  V30 13528 C 1259.51 -1.86909 0.211326 0
M  V30 13529 O 1258.87 -1.62179 -0.810421 0
M  V30 13530 C 1258.92 -2.51598 2.58323 0
M  V30 13531 O 1258.02 -3.53383 2.1259 0
M  V30 13532 H 1257.36 -0.404593 0.526498 0
M  V30 13533 H 1259.89 -0.692357 1.92529 0
M  V30 13534 H 1259.9 -2.98366 2.78283 0
M  V30 13535 H 1258.58 -2.13904 3.56676 0
M  V30 13536 H 1257.16 -3.13019 2.02666 0
M  V30 13537 N 1259.34 -1.34755 -0.817236 0
M  V30 13538 C 1260.25 -1.28888 -1.96023 0
M  V30 13539 C 1261.27 -0.195582 -1.72897 0
M  V30 13540 O 1262.44 -0.423071 -1.96906 0
M  V30 13541 C 1259.51 -1.04985 -3.30423 0
M  V30 13542 C 1258.57 -2.23526 -3.66517 0
M  V30 13543 C 1257.8 -2.00753 -4.94504 0
M  V30 13544 O 1258.03 -0.968622 -5.62116 0
M  V30 13545 O 1256.96 -2.87848 -5.28608 0
M  V30 13546 H 1260.79 -2.25059 -2.03917 0
M  V30 13547 H 1258.37 -1.15019 -0.953467 0
M  V30 13548 H 1260.25 -0.934589 -4.10906 0
M  V30 13549 H 1258.93 -0.118582 -3.23483 0
M  V30 13550 H 1257.83 -2.40613 -2.86455 0
M  V30 13551 H 1259.17 -3.15062 -3.78149 0
M  V30 13552 N 1260.82 1.03812 -1.18578 0
M  V30 13553 C 1262.1 1.74062 -0.892288 0
M  V30 13554 C 1262.48 2.02267 0.604256 0
M  V30 13555 O 1261.82 1.66988 1.55972 0
M  V30 13556 C 1262.03 3.024 -1.74228 0
M  V30 13557 C 1263.38 3.76088 -1.97087 0
M  V30 13558 O 1264.41 3.12305 -1.71302 0
M  V30 13559 O 1263.27 4.90732 -2.40509 0
M  V30 13560 H 1260.36 0.757567 -0.331695 0
M  V30 13561 H 1262.91 1.09855 -1.29345 0
M  V30 13562 H 1261.68 2.77713 -2.75665 0
M  V30 13563 H 1261.3 3.74346 -1.3398 0
M  V30 13564 N 1262.3 0.988223 1.22768 0
M  V30 13565 C 1263.52 0.679426 1.95955 0
M  V30 13566 C 1263.95 -0.748483 1.72567 0
M  V30 13567 O 1263.31 -1.51097 1.00197 0
M  V30 13568 C 1263.35 0.985284 3.46878 0
M  V30 13569 O 1262.46 0.0814607 4.1232 0
M  V30 13570 H 1261.8 0.254749 0.613188 0
M  V30 13571 H 1264.33 1.32393 1.55991 0
M  V30 13572 H 1264.34 0.925198 3.97371 0
M  V30 13573 H 1263.01 2.02581 3.63227 0
M  V30 13574 H 1261.59 0.196629 3.72381 0
M  V30 13575 N 1263.78 -1.38018 0.760839 0
M  V30 13576 C 1265.02 -2.0071 0.329695 0
M  V30 13577 C 1265.38 -1.59315 -1.07872 0
M  V30 13578 O 1264.67 -0.824077 -1.72973 0
M  V30 13579 C 1264.86 -3.55168 0.398778 0
M  V30 13580 C 1264.69 -4.11562 1.81237 0
M  V30 13581 C 1263.46 -4.43003 2.43056 0
M  V30 13582 C 1265.66 -4.3332 2.77018 0
M  V30 13583 N 1263.64 -4.85048 3.76301 0
M  V30 13584 C 1265.01 -4.77853 3.9504 0
M  V30 13585 C 1267.07 -4.15432 2.74446 0
M  V30 13586 C 1265.77 -5.06373 5.10861 0
M  V30 13587 C 1267.8 -4.45081 3.89431 0
M  V30 13588 C 1267.16 -4.89845 5.06193 0
M  V30 13589 H 1263.26 -0.76386 0.167457 0
M  V30 13590 H 1265.84 -1.67513 0.992343 0
M  V30 13591 H 1264.01 -3.87697 -0.233635 0
M  V30 13592 H 1265.75 -4.04665 -0.0533765 0
M  V30 13593 H 1262.5 -4.317 1.94762 0
M  V30 13594 H 1262.92 -5.10394 4.44778 0
M  V30 13595 H 1267.57 -3.80006 1.85353 0
M  V30 13596 H 1265.28 -5.40693 6.00564 0
M  V30 13597 H 1268.87 -4.32839 3.88769 0
M  V30 13598 H 1267.75 -5.12348 5.93691 0
M  V30 13599 N 1265.25 -0.510493 -1.49103 0
M  V30 13600 C 1266.22 0.251915 -2.27811 0
M  V30 13601 C 1267.22 0.885432 -1.34226 0
M  V30 13602 O 1268.41 0.748494 -1.573 0
M  V30 13603 C 1265.54 1.3624 -3.12492 0
M  V30 13604 H 1266.73 -0.438872 -2.96671 0
M  V30 13605 H 1264.28 -0.265767 -1.54024 0
M  V30 13606 H 1265.02 2.08705 -2.48219 0
M  V30 13607 H 1264.8 0.913485 -3.81311 0
M  V30 13608 H 1266.29 1.89919 -3.71915 0
M  V30 13609 N 1266.73 1.55688 -0.24474 0
M  V30 13610 C 1267.98 1.99186 0.381167 0
M  V30 13611 C 1268.31 1.13266 1.57748 0
M  V30 13612 O 1267.59 0.195568 1.93514 0
M  V30 13613 C 1267.87 3.51257 0.793142 0
M  V30 13614 C 1267.72 4.47942 -0.408409 0
M  V30 13615 C 1269.04 4.08365 1.64091 0
M  V30 13616 H 1266.16 0.724141 0.137073 0
M  V30 13617 H 1268.8 1.8683 -0.345619 0
M  V30 13618 H 1266.95 3.61917 1.4124 0
M  V30 13619 H 1268.62 4.49265 -1.04682 0
M  V30 13620 H 1266.87 4.20854 -1.05189 0
M  V30 13621 H 1267.54 5.51946 -0.0768531 0
M  V30 13622 H 1270.01 4.00794 1.1182 0
M  V30 13623 H 1268.89 5.1504 1.89802 0
M  V30 13624 H 1269.15 3.56687 2.61202 0
M  V30 13625 N 1268.21 -0.0283989 1.57574 0
M  V30 13626 C 1269.62 -0.574912 1.77628 0
M  V30 13627 C 1269.97 -1.75563 0.875903 0
M  V30 13628 O 1269.1 -2.16284 0.0709141 0
M  V30 13629 C 1269.69 -1.04972 3.22128 0
M  V30 13630 C 1268.25 -1.54175 3.43376 0
M  V30 13631 C 1267.4 -0.480127 2.73112 0
M  V30 13632 H 1270.35 0.197826 1.57462 0
M  V30 13633 H 1270.37 -1.91705 3.28678 0
M  V30 13634 H 1269.88 -0.190173 3.87634 0
M  V30 13635 H 1267.98 -2.42313 2.83046 0
M  V30 13636 H 1268.1 -1.58879 4.51989 0
M  V30 13637 H 1266.46 -0.935314 2.36905 0
M  V30 13638 H 1267.24 0.369973 3.41301 0
M  V30 13639 N 1269.69 -1.54705 -0.300681 0
M  V30 13640 C 1270.91 -1.78318 -1.05913 0
M  V30 13641 C 1271.34 -0.541177 -1.80147 0
M  V30 13642 O 1270.7 0.508291 -1.74029 0
M  V30 13643 C 1270.74 -2.99041 -2.01511 0
M  V30 13644 O 1269.85 -2.72188 -3.09818 0
M  V30 13645 H 1269.19 -0.590197 -0.304242 0
M  V30 13646 H 1271.72 -2.01789 -0.338006 0
M  V30 13647 H 1271.73 -3.2702 -2.43971 0
M  V30 13648 H 1270.4 -3.89098 -1.46886 0
M  V30 13649 H 1268.98 -2.55227 -2.71871 0
M  V30 13650 N 1271.17 0.563888 -1.47167 0
M  V30 13651 C 1272.08 1.69903 -1.61772 0
M  V30 13652 C 1273.09 1.6664 -0.500705 0
M  V30 13653 O 1274.27 1.86209 -0.767354 0
M  V30 13654 C 1271.33 3.06411 -1.62213 0
M  V30 13655 C 1270.39 3.20793 -2.8529 0
M  V30 13656 C 1269.63 4.50789 -2.85701 0
M  V30 13657 O 1269.85 5.3584 -1.95529 0
M  V30 13658 O 1268.78 4.68819 -3.77481 0
M  V30 13659 H 1272.61 1.60525 -2.57809 0
M  V30 13660 H 1270.2 0.733125 -1.30175 0
M  V30 13661 H 1272.08 3.87659 -1.65221 0
M  V30 13662 H 1270.75 3.16186 -0.693415 0
M  V30 13663 H 1269.66 2.38967 -2.87829 0
M  V30 13664 H 1270.99 3.15918 -3.77434 0
M  V30 13665 N 1272.64 1.35187 0.810078 0
M  V30 13666 C 1273.59 1.27822 1.92173 0
M  V30 13667 C 1274.56 0.150851 1.65414 0
M  V30 13668 O 1275.75 0.333973 1.87854 0
M  V30 13669 C 1272.89 1.05258 3.28656 0
M  V30 13670 C 1272 2.26884 3.67624 0
M  V30 13671 C 1271.13 1.97499 4.9312 0
M  V30 13672 C 1270.17 3.15198 5.24706 0
M  V30 13673 N 1269.31 2.85612 6.41381 0
M  V30 13674 H 1274.15 2.22884 1.97804 0
M  V30 13675 H 1271.69 1.10799 0.967577 0
M  V30 13676 H 1273.65 0.902084 4.07331 0
M  V30 13677 H 1272.28 0.138583 3.22502 0
M  V30 13678 H 1271.33 2.5281 2.84238 0
M  V30 13679 H 1272.64 3.14783 3.86928 0
M  V30 13680 H 1271.79 1.7926 5.79613 0
M  V30 13681 H 1270.53 1.0688 4.75844 0
M  V30 13682 H 1269.54 3.34019 4.36705 0
M  V30 13683 H 1270.76 4.06614 5.43913 0
M  V30 13684 H 1268.71 1.97583 6.25537 0
M  V30 13685 H 1268.63 3.67044 6.60919 0
M  V30 13686 H 1269.89 2.70906 7.3091 0
M  V30 13687 N 1274.12 -1.03182 1.19127 0
M  V30 13688 C 1275.07 -2.13507 0.922899 0
M  V30 13689 C 1276.06 -1.68973 -0.120171 0
M  V30 13690 O 1277.27 -1.79977 0.0288007 0
M  V30 13691 H 1273.65 -0.697516 0.281027 0
M  V30 13692 H 1275.62 -2.33335 1.86003 0
M  V30 13693 C 1274.37 -3.44442 0.474864 0
M  V30 13694 H 1273.69 -3.79125 1.26902 0
M  V30 13695 H 1275.13 -4.22744 0.326162 0
M  V30 13696 C 1273.59 -3.27002 -0.81063 0
M  V30 13697 O 1274.12 -3.55374 -1.87276 0
M  V30 13698 N 1272.32 -2.80303 -0.766713 0
M  V30 13699 H 1271.87 -2.57414 0.0978672 0
M  V30 13700 H 1271.83 -2.69015 -1.62721 0
M  V30 13701 N 1275.6 -0.99472 -1.22242 0
M  V30 13702 C 1276.83 -0.689809 -1.95592 0
M  V30 13703 C 1277.25 0.739321 -1.72961 0
M  V30 13704 O 1276.61 1.50563 -1.00997 0
M  V30 13705 C 1276.66 -1.00367 -3.46351 0
M  V30 13706 O 1275.76 -0.103326 -4.12271 0
M  V30 13707 H 1275.1 -0.257997 -0.611828 0
M  V30 13708 H 1277.63 -1.33219 -1.55286 0
M  V30 13709 H 1277.64 -0.946259 -3.96875 0
M  V30 13710 H 1276.32 -2.04504 -3.62148 0
M  V30 13711 H 1274.89 -0.216374 -3.72272 0
M  V30 13712 N 1277.08 1.37613 -0.768148 0
M  V30 13713 C 1278.03 2.3218 -0.13974 0
M  V30 13714 C 1279.02 1.54754 0.689023 0
M  V30 13715 O 1280.23 1.70177 0.586489 0
M  V30 13716 H 1276.6 0.751536 -0.0264001 0
M  V30 13717 H 1278.57 2.82768 -0.953139 0
M  V30 13718 C 1277.32 3.39997 0.727829 0
M  V30 13719 H 1276.64 3.99676 0.0994851 0
M  V30 13720 H 1278.08 4.08538 1.13456 0
M  V30 13721 C 1276.54 2.79778 1.87686 0
M  V30 13722 O 1277.07 2.70241 2.97208 0
M  V30 13723 N 1275.28 2.37373 1.67637 0
M  V30 13724 H 1274.83 2.4533 0.785552 0
M  V30 13725 H 1274.78 1.97426 2.44684 0
M  V30 13726 N 1278.56 0.518393 1.4883 0
M  V30 13727 C 1279.5 -0.250684 2.29435 0
M  V30 13728 C 1280.47 -0.944481 1.36634 0
M  V30 13729 O 1281.66 -0.947766 1.65596 0
M  V30 13730 C 1278.8 -1.29871 3.1973 0
M  V30 13731 C 1277.91 -0.61493 4.27601 0
M  V30 13732 C 1277.05 -1.64489 5.05091 0
M  V30 13733 C 1276.09 -0.943932 6.04778 0
M  V30 13734 N 1275.22 -1.91889 6.75369 0
M  V30 13735 H 1280.06 0.44288 2.94691 0
M  V30 13736 H 1277.6 0.230246 1.45287 0
M  V30 13737 H 1279.56 -1.91851 3.70471 0
M  V30 13738 H 1278.19 -1.96081 2.56422 0
M  V30 13739 H 1277.24 0.118552 3.80215 0
M  V30 13740 H 1278.55 -0.063994 4.98759 0
M  V30 13741 H 1277.71 -2.33928 5.59788 0
M  V30 13742 H 1276.44 -2.2297 4.33746 0
M  V30 13743 H 1275.45 -0.235407 5.49296 0
M  V30 13744 H 1276.67 -0.365383 6.78116 0
M  V30 13745 H 1274.62 -2.493 6.06783 0
M  V30 13746 H 1274.54 -1.41909 7.42562 0
M  V30 13747 H 1275.81 -2.60563 7.34661 0
M  V30 13748 N 1280.03 -1.55556 0.252993 0
M  V30 13749 C 1281.26 -2.03196 -0.37348 0
M  V30 13750 C 1281.67 -1.13145 -1.51641 0
M  V30 13751 O 1281.02 -0.139519 -1.83169 0
M  V30 13752 C 1281.08 -3.47066 -0.937308 0
M  V30 13753 C 1280.74 -4.5694 0.0741513 0
M  V30 13754 C 1281.74 -5.12297 0.885862 0
M  V30 13755 C 1279.42 -5.01894 0.202003 0
M  V30 13756 C 1281.42 -6.11107 1.81182 0
M  V30 13757 C 1279.1 -6.00534 1.13146 0
M  V30 13758 C 1280.1 -6.5502 1.93489 0
M  V30 13759 O 1279.79 -7.51735 2.84868 0
M  V30 13760 H 1279.52 -0.669687 -0.092171 0
M  V30 13761 H 1282.08 -2.01924 0.376264 0
M  V30 13762 H 1280.31 -3.45507 -1.73672 0
M  V30 13763 H 1282 -3.78171 -1.47451 0
M  V30 13764 H 1282.76 -4.78395 0.797707 0
M  V30 13765 H 1278.64 -4.59144 -0.413301 0
M  V30 13766 H 1282.18 -6.53561 2.43935 0
M  V30 13767 H 1278.08 -6.33856 1.22052 0
M  V30 13768 H 1278.85 -7.69373 2.79298 0
M  V30 13769 N 1281.51 0.0200419 -1.57587 0
M  V30 13770 C 1282.76 0.710078 -1.89962 0
M  V30 13771 C 1283.09 1.74521 -0.851829 0
M  V30 13772 O 1282.37 1.94052 0.132005 0
M  V30 13773 C 1282.65 1.37145 -3.32961 0
M  V30 13774 C 1282.5 0.349221 -4.48442 0
M  V30 13775 C 1283.82 2.30304 -3.75031 0
M  V30 13776 H 1280.94 0.25667 -0.690862 0
M  V30 13777 H 1283.58 -0.0271362 -1.89981 0
M  V30 13778 H 1281.73 1.99981 -3.33076 0
M  V30 13779 H 1283.4 -0.277916 -4.60462 0
M  V30 13780 H 1281.65 -0.330594 -4.32538 0
M  V30 13781 H 1282.32 0.850636 -5.45406 0
M  V30 13782 H 1284.79 1.77503 -3.7634 0
M  V30 13783 H 1283.67 2.73555 -4.75877 0
M  V30 13784 H 1283.93 3.17364 -3.07786 0
M  V30 13785 N 1282.99 1.54862 0.292472 0
M  V30 13786 C 1283.92 1.82786 1.38282 0
M  V30 13787 C 1284.94 0.711253 1.46441 0
M  V30 13788 O 1286.12 0.988851 1.48607 0
M  V30 13789 C 1283.22 1.95845 2.76582 0
M  V30 13790 C 1282.4 3.2633 2.91252 0
M  V30 13791 C 1281.46 3.29697 4.10105 0
M  V30 13792 O 1280.48 4.03184 4.01785 0
M  V30 13793 N 1281.68 2.557 5.21151 0
M  V30 13794 H 1284.45 2.76891 1.1468 0
M  V30 13795 H 1282.01 1.54541 0.482561 0
M  V30 13796 H 1284 1.95491 3.54352 0
M  V30 13797 H 1282.57 1.08696 2.93094 0
M  V30 13798 H 1281.79 3.39387 2.00525 0
M  V30 13799 H 1283.08 4.12421 2.9797 0
M  V30 13800 H 1282.48 1.95642 5.30792 0
M  V30 13801 H 1281.04 2.61089 5.97223 0
M  V30 13802 N 1284.47 -0.556076 1.47464 0
M  V30 13803 C 1285.4 -1.67829 1.56096 0
M  V30 13804 C 1286.41 -1.56541 0.447077 0
M  V30 13805 O 1287.6 -1.63478 0.716739 0
M  V30 13806 C 1284.7 -3.06303 1.45023 0
M  V30 13807 C 1283.88 -3.43334 2.70999 0
M  V30 13808 C 1282.93 -4.60976 2.53746 0
M  V30 13809 O 1281.96 -4.65501 3.27564 0
M  V30 13810 N 1283.16 -5.5754 1.61647 0
M  V30 13811 H 1285.93 -1.6087 2.52865 0
M  V30 13812 H 1283.49 -0.74274 1.43857 0
M  V30 13813 H 1285.48 -3.82838 1.31214 0
M  V30 13814 H 1284.05 -3.07483 0.563311 0
M  V30 13815 H 1283.27 -2.56236 2.99561 0
M  V30 13816 H 1284.56 -3.64851 3.54629 0
M  V30 13817 H 1283.96 -5.56642 1.00827 0
M  V30 13818 H 1282.51 -6.33397 1.53789 0
M  V30 13819 N 1285.95 -1.35615 -0.802897 0
M  V30 13820 C 1286.86 -1.3096 -1.94645 0
M  V30 13821 C 1287.87 -0.213909 -1.7268 0
M  V30 13822 O 1289.05 -0.443932 -1.96446 0
M  V30 13823 C 1286.11 -1.08483 -3.2929 0
M  V30 13824 C 1285.18 -2.27401 -3.64126 0
M  V30 13825 C 1284.41 -2.05987 -4.92347 0
M  V30 13826 O 1284.63 -1.02819 -5.61057 0
M  V30 13827 O 1283.57 -2.93439 -5.25526 0
M  V30 13828 H 1287.39 -2.27209 -2.01519 0
M  V30 13829 H 1284.98 -1.16024 -0.941214 0
M  V30 13830 H 1286.86 -0.978118 -4.09891 0
M  V30 13831 H 1285.53 -0.152885 -3.23339 0
M  V30 13832 H 1284.44 -2.43638 -2.83886 0
M  V30 13833 H 1285.77 -3.19055 -3.74786 0
M  V30 13834 N 1287.43 1.02549 -1.19673 0
M  V30 13835 C 1288.37 2.109 -0.937536 0
M  V30 13836 C 1289.34 1.65599 0.128923 0
M  V30 13837 O 1290.53 1.90795 -0.0139366 0
M  V30 13838 C 1287.67 3.4166 -0.48602 0
M  V30 13839 C 1286.78 4.0049 -1.61963 0
M  V30 13840 C 1285.92 5.19273 -1.11931 0
M  V30 13841 C 1284.95 5.70166 -2.22659 0
M  V30 13842 N 1284.09 6.80221 -1.73909 0
M  V30 13843 H 1288.93 2.32408 -1.86523 0
M  V30 13844 H 1286.47 1.13982 -0.929869 0
M  V30 13845 H 1288.43 4.16693 -0.205614 0
M  V30 13846 H 1287.06 3.20253 0.404678 0
M  V30 13847 H 1286.11 3.22638 -2.01516 0
M  V30 13848 H 1287.42 4.34273 -2.45374 0
M  V30 13849 H 1286.57 6.01478 -0.794336 0
M  V30 13850 H 1285.31 4.87033 -0.254972 0
M  V30 13851 H 1284.32 4.86572 -2.55983 0
M  V30 13852 H 1285.54 6.04444 -3.09554 0
M  V30 13853 H 1283.49 6.49826 -0.897889 0
M  V30 13854 H 1283.41 7.13149 -2.50907 0
M  V30 13855 H 1284.67 7.66011 -1.44386 0
M  V30 13856 N 1288.9 1.00119 1.21713 0
M  V30 13857 C 1289.84 0.516633 2.23301 0
M  V30 13858 C 1290.85 -0.392732 1.57992 0
M  V30 13859 O 1292.04 -0.19354 1.77448 0
M  V30 13860 C 1289.14 -0.269612 3.37826 0
M  V30 13861 C 1288.31 0.637898 4.32723 0
M  V30 13862 C 1287.37 -0.0980745 5.26109 0
M  V30 13863 O 1286.4 0.519302 5.66826 0
M  V30 13864 N 1287.6 -1.37783 5.63911 0
M  V30 13865 H 1290.36 1.39022 2.65505 0
M  V30 13866 H 1287.92 0.87688 1.36097 0
M  V30 13867 H 1289.92 -0.770826 3.97291 0
M  V30 13868 H 1288.49 -1.04436 2.94638 0
M  V30 13869 H 1287.71 1.31966 3.71455 0
M  V30 13870 H 1288.99 1.25564 4.93063 0
M  V30 13871 H 1288.39 -1.90061 5.32817 0
M  V30 13872 H 1286.95 -1.82407 6.25756 0
M  V30 13873 N 1290.38 -1.37203 0.775435 0
M  V30 13874 C 1291.33 -2.32102 0.152051 0
M  V30 13875 C 1292.32 -1.55117 -0.680806 0
M  V30 13876 O 1293.53 -1.70486 -0.577455 0
M  V30 13877 H 1289.9 -0.751386 0.0303853 0
M  V30 13878 H 1291.88 -2.82259 0.968121 0
M  V30 13879 C 1290.62 -3.40378 -0.709788 0
M  V30 13880 H 1289.95 -3.99723 -0.0782879 0
M  V30 13881 H 1291.39 -4.09134 -1.11288 0
M  V30 13882 C 1289.85 -2.80769 -1.862 0
M  V30 13883 O 1290.38 -2.71813 -2.95771 0
M  V30 13884 N 1288.58 -2.38259 -1.66376 0
M  V30 13885 H 1288.13 -2.45743 -0.772531 0
M  V30 13886 H 1288.09 -1.98721 -2.43634 0
M  V30 13887 N 1291.86 -0.526279 -1.48553 0
M  V30 13888 C 1293.09 0.0052277 -2.06899 0
M  V30 13889 C 1293.5 1.2849 -1.38332 0
M  V30 13890 O 1292.86 1.76354 -0.469648 0
M  V30 13891 C 1292.91 0.236709 -3.60724 0
M  V30 13892 O 1292.63 -0.992256 -4.26715 0
M  V30 13893 C 1294.13 0.809014 -4.35855 0
M  V30 13894 H 1291.35 -0.0318426 -0.670244 0
M  V30 13895 H 1293.9 -0.730865 -1.90994 0
M  V30 13896 H 1292.05 0.922842 -3.76248 0
M  V30 13897 H 1292.47 -0.770697 -5.18807 0
M  V30 13898 H 1293.94 0.920428 -5.44272 0
M  V30 13899 H 1294.42 1.81302 -4.00033 0
M  V30 13900 H 1295.02 0.159564 -4.25001 0
M  V30 13901 N 1293.34 1.5542 -0.261239 0
M  V30 13902 C 1294.3 2.20683 0.619011 0
M  V30 13903 C 1295.3 1.18042 1.09192 0
M  V30 13904 O 1296.49 1.43035 0.99432 0
M  V30 13905 C 1293.62 2.86179 1.85242 0
M  V30 13906 H 1294.82 2.99859 0.0493924 0
M  V30 13907 H 1292.37 1.56296 -0.0117687 0
M  V30 13908 H 1293.1 2.10978 2.4629 0
M  V30 13909 H 1292.89 3.61381 1.52138 0
M  V30 13910 H 1294.38 3.36081 2.47869 0
M  V30 13911 N 1294.82 -0.0116844 1.57596 0
M  V30 13912 C 1296.04 -0.713924 1.94725 0
M  V30 13913 C 1296.47 -1.67157 0.862565 0
M  V30 13914 O 1295.82 -1.80401 -0.180308 0
M  V30 13915 C 1295.87 -1.43214 3.30941 0
M  V30 13916 O 1294.98 -2.5461 3.24419 0
M  V30 13917 H 1294.32 -0.190772 0.636005 0
M  V30 13918 H 1296.85 0.0380247 2.04565 0
M  V30 13919 H 1296.86 -1.79819 3.66237 0
M  V30 13920 H 1295.53 -0.729906 4.09445 0
M  V30 13921 H 1294.11 -2.20419 3.00782 0
M  V30 13922 N 1296.29 -1.55015 -0.284256 0
M  V30 13923 C 1297.22 -1.90128 -1.3555 0
M  V30 13924 C 1298.2 -0.761914 -1.52082 0
M  V30 13925 O 1299.39 -1.01909 -1.65312 0
M  V30 13926 C 1296.52 -2.16332 -2.71695 0
M  V30 13927 C 1295.47 -3.32166 -2.69907 0
M  V30 13928 C 1294.8 -3.43824 -4.09498 0
M  V30 13929 C 1296.1 -4.6885 -2.30168 0
M  V30 13930 H 1297.79 -2.79852 -1.06411 0
M  V30 13931 H 1295.34 -1.34649 -0.510451 0
M  V30 13932 H 1297.29 -2.39482 -3.46737 0
M  V30 13933 H 1296.02 -1.23395 -3.02392 0
M  V30 13934 H 1294.68 -3.08965 -1.97322 0
M  V30 13935 H 1294.32 -2.48375 -4.374 0
M  V30 13936 H 1294.02 -4.21698 -4.092 0
M  V30 13937 H 1295.55 -3.69254 -4.86296 0
M  V30 13938 H 1296.96 -4.91619 -2.9493 0
M  V30 13939 H 1295.36 -5.49558 -2.41052 0
M  V30 13940 H 1296.43 -4.68433 -1.25294 0
M  V30 13941 N 1297.77 0.548248 -1.47757 0
M  V30 13942 C 1299 1.335 -1.58722 0
M  V30 13943 C 1299.42 1.86549 -0.241034 0
M  V30 13944 O 1298.78 1.63447 0.784517 0
M  V30 13945 C 1298.83 2.47457 -2.62293 0
M  V30 13946 O 1297.93 3.49956 -2.18185 0
M  V30 13947 H 1297.27 0.396166 -0.532868 0
M  V30 13948 H 1299.8 0.66164 -1.93607 0
M  V30 13949 H 1299.81 2.93901 -2.82995 0
M  V30 13950 H 1298.49 2.08203 -3.60034 0
M  V30 13951 H 1297.06 3.09755 -2.0762 0
M  V30 13952 N 1299.25 1.36039 0.795694 0
M  V30 13953 C 1300.2 1.29853 1.90806 0
M  V30 13954 C 1301.17 0.168387 1.65244 0
M  V30 13955 O 1302.35 0.353879 1.8749 0
M  V30 13956 C 1299.49 1.08737 3.27521 0
M  V30 13957 C 1298.6 2.30771 3.65197 0
M  V30 13958 C 1297.74 2.02718 4.90998 0
M  V30 13959 C 1296.78 3.20746 5.21333 0
M  V30 13960 N 1295.92 2.92399 6.38316 0
M  V30 13961 H 1300.76 2.2497 1.95429 0
M  V30 13962 H 1298.29 1.11819 0.955771 0
M  V30 13963 H 1300.25 0.945236 4.06351 0
M  V30 13964 H 1298.88 0.172781 3.22337 0
M  V30 13965 H 1297.93 2.5581 2.81541 0
M  V30 13966 H 1299.24 3.18869 3.83568 0
M  V30 13967 H 1298.4 1.85398 5.77679 0
M  V30 13968 H 1297.14 1.11921 4.74684 0
M  V30 13969 H 1296.14 3.38632 4.33138 0
M  V30 13970 H 1297.37 4.1236 5.3957 0
M  V30 13971 H 1295.31 2.04207 6.23406 0
M  V30 13972 H 1295.23 3.74034 6.56989 0
M  V30 13973 H 1296.5 2.78643 7.27996 0
M  V30 13974 N 1300.73 -1.01913 1.20215 0
M  V30 13975 C 1301.97 -1.7573 1.01226 0
M  V30 13976 C 1302.31 -1.88799 -0.45481 0
M  V30 13977 O 1301.58 -1.41196 -1.33768 0
M  V30 13978 C 1301.87 -3.17795 1.69348 0
M  V30 13979 C 1301.72 -3.12536 3.23483 0
M  V30 13980 C 1303.04 -4.16409 1.42448 0
M  V30 13981 H 1300.16 -0.637889 0.369144 0
M  V30 13982 H 1302.8 -1.18907 1.48193 0
M  V30 13983 H 1300.95 -3.66311 1.29416 0
M  V30 13984 H 1302.62 -2.71843 3.72692 0
M  V30 13985 H 1300.86 -2.49997 3.54519 0
M  V30 13986 H 1301.53 -4.12949 3.66302 0
M  V30 13987 H 1304.01 -3.76537 1.77086 0
M  V30 13988 H 1302.89 -5.13983 1.92648 0
M  V30 13989 H 1303.15 -4.407 0.351574 0
M  V30 13990 N 1302.21 -1.00763 -1.2118 0
M  V30 13991 C 1303.15 -0.563428 -2.25673 0
M  V30 13992 C 1304.15 0.393342 -1.6477 0
M  V30 13993 O 1305.35 0.264246 -1.7805 0
M  V30 13994 H 1301.73 -0.163862 -0.73393 0
M  V30 13995 H 1303.7 -1.45585 -2.60476 0
M  V30 13996 C 1302.45 0.0915599 -3.47579 0
M  V30 13997 H 1301.77 -0.635628 -3.94715 0
M  V30 13998 H 1303.21 0.36561 -4.22421 0
M  V30 13999 C 1301.67 1.33159 -3.09468 0
M  V30 14000 O 1302.2 2.42571 -3.20191 0
M  V30 14001 N 1300.41 1.21231 -2.64105 0
M  V30 14002 H 1299.95 0.322021 -2.55579 0
M  V30 14003 H 1299.91 2.04301 -2.38974 0
M  V30 14004 N 1303.68 1.3679 -0.7827 0
M  V30 14005 C 1304.65 2.28472 -0.182525 0
M  V30 14006 C 1305.65 1.48524 0.616217 0
M  V30 14007 O 1306.84 1.68599 0.438197 0
M  V30 14008 C 1303.97 3.32588 0.748202 0
M  V30 14009 H 1305.16 2.83059 -0.99085 0
M  V30 14010 H 1302.72 1.46241 -0.551658 0
M  V30 14011 H 1303.45 2.83145 1.58112 0
M  V30 14012 H 1303.24 3.91698 0.177481 0
M  V30 14013 H 1304.73 4.01073 1.16321 0
M  V30 14014 N 1305.16 0.53415 1.48272 0
M  V30 14015 C 1306.39 0.00368464 2.074 0
M  V30 14016 C 1306.81 -1.27003 1.38751 0
M  V30 14017 O 1306.17 -1.75502 0.454817 0
M  V30 14018 C 1306.22 -0.199034 3.6005 0
M  V30 14019 O 1305.32 -1.26679 3.92462 0
M  V30 14020 H 1304.66 0.0409936 0.662733 0
M  V30 14021 H 1307.19 0.743253 1.90622 0
M  V30 14022 H 1307.2 -0.420404 4.05828 0
M  V30 14023 H 1305.88 0.731391 4.09418 0
M  V30 14024 H 1304.46 -1.02775 3.58457 0
M  V30 14025 N 1306.64 -1.55279 0.269478 0
M  V30 14026 C 1308.06 -1.59374 -0.0848147 0
M  V30 14027 C 1308.26 -1.2867 -1.55068 0
M  V30 14028 O 1307.31 -1.04486 -2.29867 0
M  V30 14029 C 1308.63 -2.99349 0.284735 0
M  V30 14030 C 1310.17 -3.12147 0.230887 0
M  V30 14031 C 1310.65 -4.54379 0.574795 0
M  V30 14032 N 1312.14 -4.60202 0.526136 0
M  V30 14033 C 1312.87 -5.68273 0.765109 0
M  V30 14034 N 1312.37 -6.84512 1.0684 0
M  V30 14035 N 1314.16 -5.57796 0.694287 0
M  V30 14036 H 1306.31 -1.73503 1.22517 0
M  V30 14037 H 1308.58 -0.808771 0.494564 0
M  V30 14038 H 1308.28 -3.26633 1.30398 0
M  V30 14039 H 1308.16 -3.75309 -0.377199 0
M  V30 14040 H 1310.54 -2.84631 -0.779064 0
M  V30 14041 H 1310.63 -2.38412 0.926998 0
M  V30 14042 H 1310.27 -4.8262 1.58241 0
M  V30 14043 H 1310.2 -5.26406 -0.143044 0
M  V30 14044 H 1312.69 -3.76696 0.301368 0
M  V30 14045 H 1313 -7.62826 1.23757 0
M  V30 14046 H 1311.35 -6.86141 1.10612 0
M  V30 14047 H 1314.54 -4.65862 0.457226 0
M  V30 14048 H 1314.71 -6.41943 0.883913 0
M  V30 14049 N 1308.12 0.00332656 -1.576 0
M  V30 14050 C 1309.37 0.688044 -1.89602 0
M  V30 14051 C 1309.68 1.75121 -0.871316 0
M  V30 14052 O 1310.89 2.49032 -1.08144 0
M  V30 14053 C 1309.34 1.27494 -3.36561 0
M  V30 14054 C 1308.95 0.246771 -4.4732 0
M  V30 14055 C 1310.69 1.93804 -3.77677 0
M  V30 14056 C 1308.6 0.843471 -5.85354 0
M  V30 14057 H 1307.53 0.260747 -0.707479 0
M  V30 14058 H 1310.18 -0.0566727 -1.83412 0
M  V30 14059 H 1308.56 2.07022 -3.37577 0
M  V30 14060 H 1309.74 -0.523668 -4.57815 0
M  V30 14061 H 1308.05 -0.3157 -4.15202 0
M  V30 14062 H 1310.65 2.39347 -4.78139 0
M  V30 14063 H 1310.99 2.7672 -3.11017 0
M  V30 14064 H 1311.53 1.21015 -3.78946 0
M  V30 14065 H 1308.27 0.0531655 -6.55478 0
M  V30 14066 H 1307.79 1.58315 -5.7853 0
M  V30 14067 H 1309.46 1.34311 -6.32906 0
M  V30 14068 N 1309.6 1.55164 0.276031 0
M  V30 14069 C 1310.53 1.90844 1.34539 0
M  V30 14070 C 1311.51 0.769968 1.51676 0
M  V30 14071 O 1312.69 1.02785 1.64769 0
M  V30 14072 C 1309.82 2.17769 2.70543 0
M  V30 14073 C 1308.78 3.33592 2.68142 0
M  V30 14074 C 1308.1 3.45991 4.07669 0
M  V30 14075 C 1309.4 4.70064 2.27678 0
M  V30 14076 H 1311.1 2.80412 1.04926 0
M  V30 14077 H 1308.64 1.34918 0.503303 0
M  V30 14078 H 1310.6 2.41317 3.45462 0
M  V30 14079 H 1309.32 1.24997 3.01734 0
M  V30 14080 H 1307.98 3.10007 1.95681 0
M  V30 14081 H 1307.63 2.50691 4.36077 0
M  V30 14082 H 1307.33 4.23862 4.06958 0
M  V30 14083 H 1308.85 3.71828 4.84331 0
M  V30 14084 H 1310.26 4.93176 2.92319 0
M  V30 14085 H 1308.66 5.50829 2.38134 0
M  V30 14086 H 1309.73 4.69091 1.22808 0
M  V30 14087 N 1311.07 -0.540404 1.48045 0
M  V30 14088 C 1312.3 -1.32177 1.59175 0
M  V30 14089 C 1312.72 -1.87163 0.248115 0
M  V30 14090 O 1312.07 -1.65871 -0.761124 0
M  V30 14091 C 1312.13 -2.47995 2.63023 0
M  V30 14092 O 1311.85 -1.95278 3.92171 0
M  V30 14093 C 1313.35 -3.39967 2.84495 0
M  V30 14094 H 1310.57 -0.40233 0.537002 0
M  V30 14095 H 1313.11 -0.652983 1.93795 0
M  V30 14096 H 1311.27 -3.10779 2.31291 0
M  V30 14097 H 1311.68 -2.71012 4.49058 0
M  V30 14098 H 1313.15 -4.17607 3.60982 0
M  V30 14099 H 1313.63 -3.94555 1.92932 0
M  V30 14100 H 1314.24 -2.82985 3.1749 0
M  V30 14101 N 1312.55 -1.36459 -0.788468 0
M  V30 14102 C 1313.5 -1.30924 -1.92254 0
M  V30 14103 C 1314.49 -0.200866 -1.68205 0
M  V30 14104 O 1315.7 -0.367927 -1.762 0
M  V30 14105 H 1312.08 -0.407609 -0.631949 0
M  V30 14106 H 1314.05 -2.26695 -1.94041 0
M  V30 14107 C 1312.8 -1.11635 -3.29292 0
M  V30 14108 H 1312.12 -1.96168 -3.48365 0
M  V30 14109 H 1313.56 -1.11808 -4.08993 0
M  V30 14110 C 1312.02 0.178963 -3.36424 0
M  V30 14111 O 1312.55 1.16846 -3.8433 0
M  V30 14112 N 1310.75 0.223962 -2.89736 0
M  V30 14113 H 1310.3 -0.581888 -2.50942 0
M  V30 14114 H 1310.26 1.0903 -2.94889 0
M  V30 14115 N 1314.03 1.01274 -1.20754 0
M  V30 14116 C 1315.31 1.7213 -0.929008 0
M  V30 14117 C 1315.69 2.03503 0.561217 0
M  V30 14118 O 1315.04 1.70259 1.52395 0
M  V30 14119 C 1315.25 2.98636 -1.80603 0
M  V30 14120 C 1316.59 3.71823 -2.0502 0
M  V30 14121 O 1317.62 3.08601 -1.77888 0
M  V30 14122 O 1316.48 4.8552 -2.50864 0
M  V30 14123 H 1313.57 0.750361 -0.347689 0
M  V30 14124 H 1316.12 1.07086 -1.31646 0
M  V30 14125 H 1314.89 2.71803 -2.81494 0
M  V30 14126 H 1314.51 3.7142 -1.4189 0
M  V30 14127 N 1315.51 1.01404 1.20644 0
M  V30 14128 C 1316.44 0.602465 2.25594 0
M  V30 14129 C 1317.42 -0.381216 1.65773 0
M  V30 14130 O 1318.61 -0.267209 1.92353 0
M  V30 14131 C 1315.74 -0.0626245 3.47244 0
M  V30 14132 C 1314.69 0.841776 4.1964 0
M  V30 14133 C 1314.02 0.0426002 5.34683 0
M  V30 14134 C 1315.32 2.14864 4.76058 0
M  V30 14135 H 1317.01 1.47977 2.60275 0
M  V30 14136 H 1314.56 0.712966 1.25111 0
M  V30 14137 H 1316.51 -0.362095 4.19841 0
M  V30 14138 H 1315.23 -0.974627 3.11719 0
M  V30 14139 H 1313.89 1.12521 3.48905 0
M  V30 14140 H 1313.54 -0.870973 4.95402 0
M  V30 14141 H 1313.24 0.644866 5.84051 0
M  V30 14142 H 1314.76 -0.250476 6.10086 0
M  V30 14143 H 1316.18 1.9117 5.40488 0
M  V30 14144 H 1314.57 2.70153 5.35852 0
M  V30 14145 H 1315.64 2.81336 3.9494 0
M  V30 14146 N 1316.99 -1.36373 0.789944 0
M  V30 14147 C 1317.9 -2.3383 0.189873 0
M  V30 14148 C 1318.91 -1.61068 -0.65827 0
M  V30 14149 O 1320.09 -1.93049 -0.573932 0
M  V30 14150 C 1317.15 -3.40264 -0.664905 0
M  V30 14151 C 1316.22 -4.28825 0.201798 0
M  V30 14152 C 1315.45 -5.30176 -0.612278 0
M  V30 14153 O 1315.67 -5.39627 -1.84821 0
M  V30 14154 O 1314.61 -6.01899 -0.0118964 0
M  V30 14155 H 1318.43 -2.86915 0.995671 0
M  V30 14156 H 1316.02 -1.38852 0.551412 0
M  V30 14157 H 1317.9 -4.05339 -1.15231 0
M  V30 14158 H 1316.57 -2.89478 -1.44858 0
M  V30 14159 H 1315.48 -3.66789 0.735974 0
M  V30 14160 H 1316.81 -4.82965 0.949003 0
M  V30 14161 N 1318.47 -0.542005 -1.47987 0
M  V30 14162 C 1319.71 -0.0123116 -2.02496 0
M  V30 14163 C 1320.04 1.33136 -1.41793 0
M  V30 14164 O 1319.3 1.87591 -0.557501 0
M  V30 14165 C 1319.59 0.146208 -3.57101 0
M  V30 14166 C 1319.26 -1.12463 -4.3665 0
M  V30 14167 C 1317.92 -1.47289 -4.58104 0
M  V30 14168 C 1320.27 -1.96746 -4.82639 0
M  V30 14169 C 1317.6 -2.66273 -5.22796 0
M  V30 14170 C 1319.95 -3.14919 -5.48643 0
M  V30 14171 C 1318.62 -3.50077 -5.68333 0
M  V30 14172 H 1317.89 -0.00450514 -0.740986 0
M  V30 14173 H 1320.54 -0.710455 -1.77834 0
M  V30 14174 H 1318.84 0.927209 -3.80671 0
M  V30 14175 H 1320.54 0.571161 -3.96912 0
M  V30 14176 H 1317.13 -0.843429 -4.20219 0
M  V30 14177 H 1321.31 -1.71149 -4.65856 0
M  V30 14178 H 1316.57 -2.937 -5.36237 0
M  V30 14179 H 1320.74 -3.80525 -5.83244 0
M  V30 14180 H 1318.37 -4.42371 -6.18233 0
M  V30 14181 N 1319.94 1.55134 -0.277709 0
M  V30 14182 C 1321.22 1.91667 0.390253 0
M  V30 14183 C 1321.6 1.20228 1.73518 0
M  V30 14184 O 1320.95 0.330013 2.26104 0
M  V30 14185 C 1321.16 3.44983 0.52797 0
M  V30 14186 C 1322.51 4.16809 0.809665 0
M  V30 14187 O 1323.53 3.50891 0.612679 0
M  V30 14188 O 1322.39 5.33463 1.18656 0
M  V30 14189 H 1319.48 0.798807 0.214095 0
M  V30 14190 H 1322.03 1.66577 -0.324053 0
M  V30 14191 H 1320.8 3.89056 -0.418422 0
M  V30 14192 H 1320.42 3.76035 1.29164 0
M  V30 14193 N 1321.42 0.00503138 1.57599 0
M  V30 14194 C 1322.65 -0.693231 1.95471 0
M  V30 14195 C 1323.07 -1.66233 0.880246 0
M  V30 14196 O 1322.43 -1.80582 -0.161164 0
M  V30 14197 C 1322.48 -1.39696 3.32442 0
M  V30 14198 O 1321.58 -2.51154 3.27101 0
M  V30 14199 H 1320.92 -0.184015 0.637992 0
M  V30 14200 H 1323.45 0.0597194 2.04513 0
M  V30 14201 H 1323.46 -1.75924 3.68123 0
M  V30 14202 H 1322.14 -0.686438 4.10196 0
M  V30 14203 H 1320.71 -2.17216 3.03103 0
M  V30 14204 N 1322.9 -1.55308 -0.267798 0
M  V30 14205 C 1324.15 -1.7642 -1.00019 0
M  V30 14206 C 1324.48 -0.566559 -1.85752 0
M  V30 14207 O 1323.75 0.435752 -1.89556 0
M  V30 14208 C 1324.04 -3.07229 -1.87836 0
M  V30 14209 C 1323.89 -4.37358 -1.05061 0
M  V30 14210 C 1325.21 -3.34113 -2.86455 0
M  V30 14211 H 1322.33 -0.641859 -0.362197 0
M  V30 14212 H 1324.97 -1.8804 -0.272188 0
M  V30 14213 H 1323.12 -2.97454 -2.49907 0
M  V30 14214 H 1324.79 -4.59098 -0.450208 0
M  V30 14215 H 1323.03 -4.32351 -0.354242 0
M  V30 14216 H 1323.71 -5.25223 -1.69838 0
M  V30 14217 H 1326.18 -3.43715 -2.34519 0
M  V30 14218 H 1325.06 -4.26896 -3.45038 0
M  V30 14219 H 1325.32 -2.54005 -3.61848 0
M  V30 14220 N 1324.38 0.532545 -1.4833 0
M  V30 14221 C 1325.6 1.31809 -1.60129 0
M  V30 14222 C 1326.03 1.86283 -0.260807 0
M  V30 14223 O 1325.39 1.6427 0.767137 0
M  V30 14224 C 1325.43 2.44661 -2.64903 0
M  V30 14225 O 1324.54 3.47622 -2.21885 0
M  V30 14226 H 1323.88 0.390492 -0.53704 0
M  V30 14227 H 1326.41 0.641068 -1.94297 0
M  V30 14228 H 1326.42 2.90883 -2.86096 0
M  V30 14229 H 1325.09 2.04373 -3.62222 0
M  V30 14230 H 1323.67 3.07536 -2.10894 0
M  V30 14231 N 1325.86 1.36875 0.78122 0
M  V30 14232 C 1327.13 1.22101 1.52809 0
M  V30 14233 C 1327.51 -0.189402 2.10249 0
M  V30 14234 O 1326.86 -1.19598 1.94701 0
M  V30 14235 C 1327.07 2.30953 2.61652 0
M  V30 14236 C 1328.42 2.68027 3.29313 0
M  V30 14237 O 1329.44 2.30058 2.71941 0
M  V30 14238 O 1328.3 3.33407 4.33015 0
M  V30 14239 H 1325.4 0.4759 0.676349 0
M  V30 14240 H 1327.94 1.48629 0.818998 0
M  V30 14241 H 1326.71 3.25443 2.17261 0
M  V30 14242 H 1326.34 2.05837 3.40172 0
M  V30 14243 N 1327.33 -1.00632 1.21289 0
M  V30 14244 C 1328.28 -2.07791 0.938459 0
M  V30 14245 C 1329.27 -1.60552 -0.105773 0
M  V30 14246 O 1330.46 -1.767 0.102981 0
M  V30 14247 C 1327.59 -3.39587 0.503563 0
M  V30 14248 C 1326.67 -3.93497 1.58179 0
M  V30 14249 N 1327.07 -4.20792 2.80656 0
M  V30 14250 C 1325.36 -4.21759 1.45035 0
M  V30 14251 C 1326.06 -4.64411 3.50281 0
M  V30 14252 N 1325.04 -4.67305 2.77717 0
M  V30 14253 H 1328.84 -2.26816 1.869 0
M  V30 14254 H 1326.36 -1.18692 1.10842 0
M  V30 14255 H 1328.35 -4.15902 0.288323 0
M  V30 14256 H 1327.01 -3.21969 -0.420233 0
M  V30 14257 H 1328.02 -4.09386 3.17212 0
M  V30 14258 H 1324.7 -4.13285 0.591745 0
M  V30 14259 H 1326.09 -4.94263 4.55141 0
M  V30 14260 N 1328.81 -1.02043 -1.20104 0
M  V30 14261 C 1330.04 -0.731142 -1.94085 0
M  V30 14262 C 1330.46 0.702467 -1.74491 0
M  V30 14263 O 1329.82 1.48387 -1.04168 0
M  V30 14264 C 1329.87 -1.07691 -3.44144 0
M  V30 14265 O 1328.97 -0.190751 -4.11959 0
M  V30 14266 H 1328.31 -0.270917 -0.606218 0
M  V30 14267 H 1330.84 -1.36483 -1.52426 0
M  V30 14268 H 1330.85 -1.03023 -3.94779 0
M  V30 14269 H 1329.53 -2.1214 -3.57728 0
M  V30 14270 H 1328.1 -0.29529 -3.71729 0
M  V30 14271 N 1330.29 1.35952 -0.797165 0
M  V30 14272 C 1331.24 2.29941 -0.198995 0
M  V30 14273 C 1332.21 1.52355 0.661592 0
M  V30 14274 O 1333.39 1.80832 0.60865 0
M  V30 14275 C 1330.53 3.38846 0.654033 0
M  V30 14276 C 1329.65 4.31409 -0.225949 0
M  V30 14277 C 1328.78 5.27401 0.634188 0
M  V30 14278 C 1327.82 6.11602 -0.246773 0
M  V30 14279 N 1326.96 6.9976 0.57279 0
M  V30 14280 H 1331.8 2.80508 -1.00594 0
M  V30 14281 H 1329.33 1.38064 -0.507617 0
M  V30 14282 H 1331.29 4.00643 1.16367 0
M  V30 14283 H 1329.92 2.89578 1.42633 0
M  V30 14284 H 1328.97 3.70699 -0.853616 0
M  V30 14285 H 1330.29 4.90532 -0.904416 0
M  V30 14286 H 1329.44 5.94525 1.20933 0
M  V30 14287 H 1328.18 4.68751 1.34625 0
M  V30 14288 H 1327.18 5.43434 -0.834258 0
M  V30 14289 H 1328.41 6.72329 -0.956559 0
M  V30 14290 H 1326.35 6.43609 1.26901 0
M  V30 14291 H 1326.27 7.55985 -0.0478303 0
M  V30 14292 H 1327.54 7.71244 1.13151 0
M  V30 14293 N 1331.77 0.549846 1.47697 0
M  V30 14294 C 1333 0.0276889 2.06881 0
M  V30 14295 C 1333.41 -1.26273 1.40359 0
M  V30 14296 O 1332.77 -1.75584 0.497644 0
M  V30 14297 C 1332.82 -0.179291 3.61055 0
M  V30 14298 O 1332.54 1.06002 4.25083 0
M  V30 14299 C 1334.04 -0.739571 4.37087 0
M  V30 14300 H 1331.26 0.0425016 0.669653 0
M  V30 14301 H 1333.81 0.761158 1.89807 0
M  V30 14302 H 1331.96 -0.862867 3.77668 0
M  V30 14303 H 1332.37 0.853137 5.17515 0
M  V30 14304 H 1333.85 -0.833722 5.45668 0
M  V30 14305 H 1334.33 -1.74915 4.02867 0
M  V30 14306 H 1334.93 -0.0919294 4.25201 0
M  V30 14307 N 1333.25 -1.54984 0.285932 0
M  V30 14308 C 1334.18 -2.25916 -0.590259 0
M  V30 14309 C 1335.16 -1.25319 -1.15018 0
M  V30 14310 O 1336.34 -1.54062 -1.18231 0
M  V30 14311 C 1333.47 -2.98849 -1.76936 0
M  V30 14312 C 1332.43 -4.06466 -1.3405 0
M  V30 14313 C 1331.75 -4.67032 -2.60356 0
M  V30 14314 C 1333.05 -5.20064 -0.482754 0
M  V30 14315 H 1334.75 -2.994 0.00131571 0
M  V30 14316 H 1332.29 -1.44 0.00207281 0
M  V30 14317 H 1334.25 -3.47186 -2.3883 0
M  V30 14318 H 1332.97 -2.22918 -2.38694 0
M  V30 14319 H 1331.63 -3.58957 -0.7447 0
M  V30 14320 H 1331.28 -3.87757 -3.20396 0
M  V30 14321 H 1330.98 -5.39703 -2.32368 0
M  V30 14322 H 1332.5 -5.18124 -3.23079 0
M  V30 14323 H 1333.91 -5.64387 -1.00697 0
M  V30 14324 H 1332.31 -5.99363 -0.297291 0
M  V30 14325 H 1333.38 -4.82358 0.495861 0
M  V30 14326 N 1334.72 -0.0133892 -1.57594 0
M  V30 14327 C 1335.95 0.679255 -1.95432 0
M  V30 14328 C 1336.37 1.66558 -0.889028 0
M  V30 14329 O 1335.72 1.82031 0.130755 0
M  V30 14330 C 1335.78 1.39943 -3.33314 0
M  V30 14331 O 1335.5 0.452643 -4.35755 0
M  V30 14332 C 1337 2.18535 -3.85691 0
M  V30 14333 H 1334.22 0.188337 -0.644026 0
M  V30 14334 H 1336.76 -0.0684861 -2.04385 0
M  V30 14335 H 1334.92 2.0987 -3.25628 0
M  V30 14336 H 1335.33 0.962243 -5.15598 0
M  V30 14337 H 1336.8 2.64403 -4.84557 0
M  V30 14338 H 1337.28 3.01779 -3.19102 0
M  V30 14339 H 1337.89 1.53598 -3.96595 0
M  V30 14340 N 1336.2 1.55448 0.259558 0
M  V30 14341 C 1337.15 1.90056 1.34096 0
M  V30 14342 C 1338.14 0.778267 1.50464 0
M  V30 14343 O 1339.35 0.962758 1.52089 0
M  V30 14344 H 1335.73 0.603424 0.448758 0
M  V30 14345 H 1337.7 2.80365 1.02166 0
M  V30 14346 C 1336.45 2.20074 2.69189 0
M  V30 14347 H 1335.77 3.05926 2.57389 0
M  V30 14348 H 1337.21 2.48201 3.43762 0
M  V30 14349 C 1335.67 1.01281 3.21316 0
M  V30 14350 O 1336.2 0.2543 4.00894 0
M  V30 14351 N 1334.4 0.806855 2.79174 0
M  V30 14352 H 1333.95 1.42536 2.14572 0
M  V30 14353 H 1333.91 0.0136714 3.14397 0
M  V30 14354 N 1337.68 -0.524672 1.4861 0
M  V30 14355 C 1338.93 -1.28021 1.56898 0
M  V30 14356 C 1339.26 -1.92948 0.245203 0
M  V30 14357 O 1338.51 -1.8013 -0.764966 0
M  V30 14358 C 1338.81 -2.3871 2.65993 0
M  V30 14359 C 1338.48 -1.914 4.08261 0
M  V30 14360 C 1337.14 -1.78215 4.46982 0
M  V30 14361 C 1339.49 -1.55713 4.97396 0
M  V30 14362 C 1336.82 -1.27687 5.72637 0
M  V30 14363 C 1339.17 -1.06645 6.23546 0
M  V30 14364 C 1337.83 -0.920818 6.61118 0
M  V30 14365 H 1337.1 -0.468461 0.57413 0
M  V30 14366 H 1339.75 -0.584901 1.82349 0
M  V30 14367 H 1338.06 -3.13932 2.34422 0
M  V30 14368 H 1339.75 -2.96827 2.6962 0
M  V30 14369 H 1336.34 -2.02614 3.77684 0
M  V30 14370 H 1340.53 -1.64757 4.68155 0
M  V30 14371 H 1335.78 -1.15103 6.00468 0
M  V30 14372 H 1339.96 -0.781048 6.92006 0
M  V30 14373 H 1337.58 -0.527091 7.5837 0
M  V30 14374 N 1339.16 -1.37287 -0.77395 0
M  V30 14375 C 1340.38 -1.35734 -1.56815 0
M  V30 14376 C 1340.81 0.0555546 -1.88018 0
M  V30 14377 O 1340.17 1.03197 -1.49064 0
M  V30 14378 C 1340.21 -2.2008 -2.85652 0
M  V30 14379 O 1339.32 -1.60391 -3.79932 0
M  V30 14380 H 1338.66 -0.463881 -0.47509 0
M  V30 14381 H 1341.19 -1.80781 -0.958087 0
M  V30 14382 H 1341.2 -2.33215 -3.34776 0
M  V30 14383 H 1339.87 -3.22781 -2.6227 0
M  V30 14384 H 1338.45 -1.56285 -3.3857 0
M  V30 14385 N 1340.64 0.999871 -1.21821 0
M  V30 14386 C 1341.88 1.7384 -1.03855 0
M  V30 14387 C 1342.21 1.89749 0.42727 0
M  V30 14388 O 1341.47 1.43261 1.33323 0
M  V30 14389 C 1341.77 3.1509 -1.6868 0
M  V30 14390 C 1341.43 3.19115 -3.18554 0
M  V30 14391 C 1340.09 3.19921 -3.5945 0
M  V30 14392 C 1342.45 3.15954 -4.14515 0
M  V30 14393 C 1339.77 3.15257 -4.94803 0
M  V30 14394 C 1342.13 3.12831 -5.49836 0
M  V30 14395 C 1340.79 3.11949 -5.90122 0
M  V30 14396 H 1340.06 0.636126 -0.380032 0
M  V30 14397 H 1342.71 1.17151 -1.51485 0
M  V30 14398 H 1341.01 3.75044 -1.13356 0
M  V30 14399 H 1342.71 3.70962 -1.52277 0
M  V30 14400 H 1339.3 3.19234 -2.85986 0
M  V30 14401 H 1343.48 3.14487 -3.83942 0
M  V30 14402 H 1338.74 3.12915 -5.25256 0
M  V30 14403 H 1342.91 3.09339 -6.23925 0
M  V30 14404 H 1340.54 3.0809 -6.94971 0
M  V30 14405 N 1342.11 1.02678 1.19562 0
M  V30 14406 C 1343.05 0.563882 2.22155 0
M  V30 14407 C 1344.06 -0.359132 1.58789 0
M  V30 14408 O 1345.25 -0.155857 1.77818 0
M  V30 14409 C 1342.35 -0.197894 3.38322 0
M  V30 14410 C 1341.52 0.729542 4.31273 0
M  V30 14411 C 1340.58 0.013543 5.26198 0
M  V30 14412 O 1339.61 0.639417 5.65597 0
M  V30 14413 N 1340.81 -1.25791 5.66707 0
M  V30 14414 H 1343.57 1.44623 2.62496 0
M  V30 14415 H 1341.13 0.90555 1.34207 0
M  V30 14416 H 1343.13 -0.686381 3.98837 0
M  V30 14417 H 1341.7 -0.981632 2.96787 0
M  V30 14418 H 1340.92 1.39816 3.68572 0
M  V30 14419 H 1342.2 1.35994 4.90289 0
M  V30 14420 H 1341.6 -1.78716 5.36728 0
M  V30 14421 H 1340.16 -1.69093 6.29485 0
M  V30 14422 N 1343.59 -1.35528 0.804364 0
M  V30 14423 C 1344.56 -2.28153 0.21885 0
M  V30 14424 C 1345.56 -1.49486 -0.592511 0
M  V30 14425 O 1346.75 -1.69274 -0.411319 0
M  V30 14426 C 1343.88 -3.33736 -0.695195 0
M  V30 14427 H 1345.07 -2.81446 1.03576 0
M  V30 14428 H 1342.62 -1.45345 0.574854 0
M  V30 14429 H 1343.36 -2.85625 -1.53587 0
M  V30 14430 H 1343.14 -3.91931 -0.115143 0
M  V30 14431 H 1344.63 -4.02872 -1.09925 0
M  V30 14432 N 1345.07 -0.557671 -1.47404 0
M  V30 14433 C 1346.02 0.189765 -2.30019 0
M  V30 14434 C 1346.99 0.907923 -1.3909 0
M  V30 14435 O 1348.17 0.903528 -1.68051 0
M  V30 14436 C 1345.31 1.21348 -3.23061 0
M  V30 14437 C 1344.43 0.501343 -4.29081 0
M  V30 14438 C 1343.56 1.51039 -5.09275 0
M  V30 14439 C 1342.6 0.783254 -6.07068 0
M  V30 14440 N 1341.74 1.73916 -6.80219 0
M  V30 14441 H 1346.58 -0.520856 -2.93413 0
M  V30 14442 H 1344.11 -0.268686 -1.44625 0
M  V30 14443 H 1346.07 1.81961 -3.75428 0
M  V30 14444 H 1344.7 1.89213 -2.61531 0
M  V30 14445 H 1343.75 -0.219317 -3.79767 0
M  V30 14446 H 1345.07 -0.0682656 -4.98753 0
M  V30 14447 H 1344.22 2.19004 -5.65793 0
M  V30 14448 H 1342.96 2.11392 -4.39505 0
M  V30 14449 H 1341.96 0.0896883 -5.49727 0
M  V30 14450 H 1343.19 0.185464 -6.78847 0
M  V30 14451 H 1341.14 2.33125 -6.13179 0
M  V30 14452 H 1341.05 1.22171 -7.46063 0
M  V30 14453 H 1342.32 2.40993 -7.41311 0
M  V30 14454 N 1346.55 1.54831 -0.294147 0
M  V30 14455 C 1347.48 2.20696 0.61854 0
M  V30 14456 C 1348.49 1.19754 1.10285 0
M  V30 14457 O 1349.68 1.46383 1.02148 0
M  V30 14458 C 1346.78 2.83429 1.85798 0
M  V30 14459 C 1345.96 4.10239 1.51731 0
M  V30 14460 C 1345.02 4.56841 2.61119 0
M  V30 14461 O 1344.04 5.22194 2.26501 0
M  V30 14462 N 1345.24 4.2858 3.91534 0
M  V30 14463 H 1348.01 2.9965 0.054714 0
M  V30 14464 H 1345.57 1.61484 -0.116052 0
M  V30 14465 H 1347.56 3.11541 2.5831 0
M  V30 14466 H 1346.13 2.08356 2.33038 0
M  V30 14467 H 1345.35 3.89212 0.625142 0
M  V30 14468 H 1346.64 4.92824 1.26499 0
M  V30 14469 H 1346.04 3.7621 4.22472 0
M  V30 14470 H 1344.59 4.61418 4.60366 0
M  V30 14471 N 1348.03 0.0217466 1.57585 0
M  V30 14472 C 1348.94 -0.978407 2.13224 0
M  V30 14473 C 1349.95 -1.36212 1.08269 0
M  V30 14474 O 1351.13 -1.44504 1.40288 0
M  V30 14475 C 1348.19 -2.24462 2.6423 0
M  V30 14476 C 1347.26 -1.92201 3.83871 0
M  V30 14477 C 1346.49 -3.12786 4.32436 0
M  V30 14478 O 1346.71 -4.25201 3.8021 0
M  V30 14479 O 1345.65 -2.95514 5.24362 0
M  V30 14480 H 1349.47 -0.535347 2.98944 0
M  V30 14481 H 1347.06 -0.198414 1.48077 0
M  V30 14482 H 1348.94 -2.98809 2.97138 0
M  V30 14483 H 1347.61 -2.67964 1.81596 0
M  V30 14484 H 1346.52 -1.15262 3.55901 0
M  V30 14485 H 1347.85 -1.53521 4.67645 0
M  V30 14486 N 1349.51 -1.55583 -0.251311 0
M  V30 14487 C 1350.73 -1.81597 -1.00186 0
M  V30 14488 C 1351.16 -0.598216 -1.78334 0
M  V30 14489 O 1350.51 0.452667 -1.75558 0
M  V30 14490 C 1350.56 -3.05301 -1.91895 0
M  V30 14491 O 1349.67 -2.81907 -3.01002 0
M  V30 14492 H 1349.01 -0.599578 -0.285311 0
M  V30 14493 H 1351.54 -2.02762 -0.273638 0
M  V30 14494 H 1351.55 -3.34616 -2.33444 0
M  V30 14495 H 1350.22 -3.93574 -1.34433 0
M  V30 14496 H 1348.8 -2.63747 -2.63613 0
M  V30 14497 N 1350.98 0.516783 -1.48886 0
M  V30 14498 C 1351.95 1.60226 -1.63891 0
M  V30 14499 C 1352.95 1.52448 -0.511479 0
M  V30 14500 O 1354.14 1.55882 -0.777582 0
M  V30 14501 C 1351.27 2.99867 -1.62151 0
M  V30 14502 H 1352.46 1.48256 -2.60692 0
M  V30 14503 H 1350.01 0.739844 -1.37681 0
M  V30 14504 H 1350.75 3.1733 -0.668764 0
M  V30 14505 H 1350.53 3.0692 -2.44013 0
M  V30 14506 H 1352.02 3.7876 -1.7587 0
M  V30 14507 N 1352.46 1.37696 0.766659 0
M  V30 14508 C 1353.69 1.36564 1.56093 0
M  V30 14509 C 1354.11 -0.0455828 1.88045 0
M  V30 14510 O 1353.47 -1.02405 1.49609 0
M  V30 14511 C 1353.52 2.21592 2.84481 0
M  V30 14512 O 1352.62 1.62404 3.79076 0
M  V30 14513 H 1351.96 0.466394 0.472623 0
M  V30 14514 H 1354.49 1.81287 0.948486 0
M  V30 14515 H 1354.5 2.34987 3.33534 0
M  V30 14516 H 1353.18 3.24167 2.60554 0
M  V30 14517 H 1351.75 1.58078 3.37736 0
M  V30 14518 N 1353.94 -0.993397 1.22349 0
M  V30 14519 C 1355.16 -1.77373 1.07488 0
M  V30 14520 C 1355.59 -1.84418 -0.37034 0
M  V30 14521 O 1354.95 -1.29629 -1.26752 0
M  V30 14522 C 1355 -3.18538 1.69014 0
M  V30 14523 O 1354.1 -4.01463 0.943474 0
M  V30 14524 H 1353.44 -0.546209 0.37756 0
M  V30 14525 H 1355.97 -1.24792 1.62136 0
M  V30 14526 H 1355.98 -3.6917 1.73717 0
M  V30 14527 H 1354.66 -3.12725 2.74182 0
M  V30 14528 H 1353.23 -3.59998 0.972415 0
M  V30 14529 N 1355.42 -1.03311 -1.19015 0
M  V30 14530 C 1356.35 -0.575655 -2.21853 0
M  V30 14531 C 1357.36 0.350705 -1.58978 0
M  V30 14532 O 1358.55 0.146425 -1.77898 0
M  V30 14533 C 1355.65 0.179949 -3.38422 0
M  V30 14534 C 1354.82 -0.752403 -4.3088 0
M  V30 14535 C 1353.88 -0.0414484 -5.26184 0
M  V30 14536 O 1352.91 -0.669403 -5.6525 0
M  V30 14537 N 1354.11 1.22783 -5.67366 0
M  V30 14538 H 1356.88 -1.46013 -2.61726 0
M  V30 14539 H 1354.44 -0.912655 -1.33724 0
M  V30 14540 H 1356.43 0.66522 -3.99195 0
M  V30 14541 H 1355 0.965879 -2.97304 0
M  V30 14542 H 1354.22 -1.41768 -3.67825 0
M  V30 14543 H 1355.51 -1.38592 -4.89561 0
M  V30 14544 H 1354.91 1.75867 -5.37668 0
M  V30 14545 H 1353.46 1.65752 -6.30372 0
M  V30 14546 N 1356.9 1.35099 -0.81154 0
M  V30 14547 C 1358.12 2.0286 -0.406855 0
M  V30 14548 C 1358.54 1.61147 0.98372 0
M  V30 14549 O 1357.9 0.811398 1.6347 0
M  V30 14550 C 1357.95 3.58214 -0.486305 0
M  V30 14551 O 1357.67 3.98412 -1.82206 0
M  V30 14552 C 1359.17 4.43236 -0.0750619 0
M  V30 14553 H 1356.39 0.650482 -0.164664 0
M  V30 14554 H 1358.93 1.72616 -1.09654 0
M  V30 14555 H 1357.09 3.87089 0.155177 0
M  V30 14556 H 1357.5 4.93072 -1.78831 0
M  V30 14557 H 1358.98 5.51701 -0.181759 0
M  V30 14558 H 1359.45 4.28123 0.980169 0
M  V30 14559 H 1360.06 4.19667 -0.689894 0
M  V30 14560 N 1358.37 0.56548 1.47106 0
M  V30 14561 C 1359.6 0.0495579 2.06541 0
M  V30 14562 C 1360.01 -1.25325 1.4174 0
M  V30 14563 O 1359.35 -1.76455 0.510818 0
M  V30 14564 C 1359.42 -0.20843 3.58895 0
M  V30 14565 C 1359.08 1.00618 4.45786 0
M  V30 14566 C 1360.08 1.91387 4.83391 0
M  V30 14567 C 1357.76 1.22318 4.87179 0
M  V30 14568 C 1359.76 3.02218 5.61198 0
M  V30 14569 C 1357.44 2.33457 5.64749 0
M  V30 14570 C 1358.44 3.23238 6.0167 0
M  V30 14571 O 1358.13 4.32449 6.77675 0
M  V30 14572 H 1357.86 0.0466 0.674392 0
M  V30 14573 H 1360.42 0.780887 1.89977 0
M  V30 14574 H 1358.65 -0.994169 3.73702 0
M  V30 14575 H 1360.33 -0.670745 4.0032 0
M  V30 14576 H 1361.1 1.75831 4.52005 0
M  V30 14577 H 1356.98 0.533514 4.57902 0
M  V30 14578 H 1360.52 3.72321 5.89935 0
M  V30 14579 H 1356.42 2.48983 5.95548 0
M  V30 14580 H 1357.19 4.306 6.96079 0
M  V30 14581 N 1359.85 -1.54672 0.302354 0
M  V30 14582 C 1360.78 -2.21021 -0.606828 0
M  V30 14583 C 1361.8 -1.20337 -1.09648 0
M  V30 14584 O 1362.99 -1.46923 -1.0137 0
M  V30 14585 C 1360.09 -2.84411 -1.84293 0
M  V30 14586 C 1359.26 -4.11038 -1.49554 0
M  V30 14587 C 1358.32 -4.58219 -2.58693 0
M  V30 14588 O 1357.34 -5.23387 -2.23728 0
M  V30 14589 N 1358.55 -4.30651 -3.89256 0
M  V30 14590 H 1361.31 -2.99675 -0.0388221 0
M  V30 14591 H 1358.87 -1.6142 0.124614 0
M  V30 14592 H 1360.86 -3.12906 -2.56655 0
M  V30 14593 H 1359.43 -2.09589 -2.31929 0
M  V30 14594 H 1358.65 -3.89538 -0.604492 0
M  V30 14595 H 1359.94 -4.93488 -1.23884 0
M  V30 14596 H 1359.34 -3.78445 -4.20471 0
M  V30 14597 H 1357.9 -4.63853 -4.57913 0
M  V30 14598 N 1361.33 -0.0301034 -1.57571 0
M  V30 14599 C 1362.56 0.657533 -1.95857 0
M  V30 14600 C 1362.97 1.66138 -0.905244 0
M  V30 14601 O 1362.31 1.83299 0.12134 0
M  V30 14602 C 1362.37 1.41946 -3.3029 0
M  V30 14603 C 1362.04 0.573834 -4.53383 0
M  V30 14604 C 1363.03 -0.151282 -5.1968 0
M  V30 14605 C 1360.72 0.510947 -4.99695 0
M  V30 14606 C 1362.71 -0.927947 -6.30609 0
M  V30 14607 C 1360.4 -0.269422 -6.10506 0
M  V30 14608 C 1361.4 -0.987575 -6.75822 0
M  V30 14609 O 1361.09 -1.75515 -7.84506 0
M  V30 14610 H 1360.82 0.1861 -0.649879 0
M  V30 14611 H 1363.37 -0.0864526 -2.05218 0
M  V30 14612 H 1361.6 2.20861 -3.17423 0
M  V30 14613 H 1363.29 1.9953 -3.53472 0
M  V30 14614 H 1364.06 -0.112036 -4.84871 0
M  V30 14615 H 1359.94 1.05949 -4.4866 0
M  V30 14616 H 1363.48 -1.48901 -6.81524 0
M  V30 14617 H 1359.38 -0.310381 -6.44753 0
M  V30 14618 H 1360.15 -1.67503 -8.01177 0
M  V30 14619 N 1362.81 1.55714 0.243056 0
M  V30 14620 C 1364.05 1.78904 0.96772 0
M  V30 14621 C 1364.41 0.599662 1.82816 0
M  V30 14622 O 1363.7 -0.406986 1.87228 0
M  V30 14623 C 1363.9 3.05281 1.85845 0
M  V30 14624 C 1363.73 4.36397 1.08572 0
M  V30 14625 C 1362.5 4.99098 0.789274 0
M  V30 14626 C 1364.69 5.12226 0.461433 0
M  V30 14627 N 1362.68 6.139 -0.00711288 0
M  V30 14628 C 1364.05 6.19679 -0.199349 0
M  V30 14629 C 1366.1 4.96506 0.372287 0
M  V30 14630 C 1364.8 7.13122 -0.940722 0
M  V30 14631 C 1366.83 5.9033 -0.355564 0
M  V30 14632 C 1366.19 6.97194 -1.00497 0
M  V30 14633 H 1362.29 0.706567 0.335094 0
M  V30 14634 H 1364.88 1.93209 0.240503 0
M  V30 14635 H 1363.05 2.92298 2.55767 0
M  V30 14636 H 1364.78 3.16749 2.51897 0
M  V30 14637 H 1361.53 4.606 1.10201 0
M  V30 14638 H 1361.96 6.75855 -0.393512 0
M  V30 14639 H 1366.6 4.13961 0.860025 0
M  V30 14640 H 1364.32 7.95166 -1.44005 0
M  V30 14641 H 1367.9 5.80244 -0.425257 0
M  V30 14642 H 1366.78 7.68543 -1.55918 0
M  V30 14643 N 1364.29 -0.50888 1.49158 0
M  V30 14644 C 1365.53 -1.26537 1.58481 0
M  V30 14645 C 1365.87 -1.92353 0.267168 0
M  V30 14646 O 1365.14 -1.80336 -0.728639 0
M  V30 14647 C 1365.42 -2.33846 2.73839 0
M  V30 14648 C 1365.28 -1.72582 4.15374 0
M  V30 14649 C 1366.6 -3.35467 2.84868 0
M  V30 14650 H 1363.71 -0.458697 0.576859 0
M  V30 14651 H 1366.36 -0.564728 1.81413 0
M  V30 14652 H 1364.51 -2.93605 2.54417 0
M  V30 14653 H 1366.18 -1.16711 4.46292 0
M  V30 14654 H 1364.42 -1.03025 4.21389 0
M  V30 14655 H 1365.09 -2.5038 4.91949 0
M  V30 14656 H 1367.57 -2.85689 3.02524 0
M  V30 14657 H 1366.44 -4.07922 3.67275 0
M  V30 14658 H 1366.71 -3.97313 1.93894 0
M  V30 14659 N 1365.76 -1.381 -0.759346 0
M  V30 14660 C 1366.71 -1.31373 -1.86347 0
M  V30 14661 C 1367.7 -0.199113 -1.59663 0
M  V30 14662 O 1368.89 -0.43459 -1.71582 0
M  V30 14663 C 1366.02 -1.13537 -3.23982 0
M  V30 14664 C 1365.11 -2.29596 -3.56576 0
M  V30 14665 N 1365.5 -3.55023 -3.60267 0
M  V30 14666 C 1363.79 -2.22022 -3.86811 0
M  V30 14667 C 1364.5 -4.31629 -3.89963 0
M  V30 14668 N 1363.47 -3.60915 -4.06499 0
M  V30 14669 H 1367.27 -2.26345 -1.8747 0
M  V30 14670 H 1364.79 -1.3125 -0.956415 0
M  V30 14671 H 1366.78 -1.06801 -4.02988 0
M  V30 14672 H 1365.44 -0.194922 -3.24114 0
M  V30 14673 H 1366.46 -3.88769 -3.42168 0
M  V30 14674 H 1363.13 -1.36104 -3.94692 0
M  V30 14675 H 1364.52 -5.40238 -3.9949 0
M  V30 14676 N 1367.24 0.986894 -1.22875 0
M  V30 14677 C 1368.47 1.7601 -1.08185 0
M  V30 14678 C 1368.88 1.85545 0.370088 0
M  V30 14679 O 1368.22 1.32915 1.26804 0
M  V30 14680 C 1368.29 3.20661 -1.62532 0
M  V30 14681 C 1367.95 3.34655 -3.11216 0
M  V30 14682 C 1368.95 3.21493 -4.08581 0
M  V30 14683 C 1366.63 3.59512 -3.50794 0
M  V30 14684 C 1368.63 3.32983 -5.43508 0
M  V30 14685 C 1366.31 3.70642 -4.85868 0
M  V30 14686 C 1367.31 3.57387 -5.82034 0
M  V30 14687 O 1367 3.68135 -7.14655 0
M  V30 14688 H 1366.73 0.559402 -0.379533 0
M  V30 14689 H 1369.28 1.24905 -1.63058 0
M  V30 14690 H 1367.51 3.72985 -1.02073 0
M  V30 14691 H 1369.2 3.7972 -1.43415 0
M  V30 14692 H 1369.97 3.02193 -3.79347 0
M  V30 14693 H 1365.85 3.68904 -2.76461 0
M  V30 14694 H 1369.39 3.22553 -6.18551 0
M  V30 14695 H 1365.29 3.89451 -5.1478 0
M  V30 14696 H 1366.06 3.84971 -7.22316 0
M  V30 14697 N 1368.72 1.0394 1.18466 0
M  V30 14698 C 1369.65 0.650182 2.24265 0
M  V30 14699 C 1370.63 -0.345968 1.66545 0
M  V30 14700 O 1371.82 -0.226348 1.92876 0
M  V30 14701 C 1368.95 0.0110451 3.47298 0
M  V30 14702 C 1367.9 0.930599 4.17761 0
M  V30 14703 C 1367.23 0.156005 5.34472 0
M  V30 14704 C 1368.53 2.24913 4.71393 0
M  V30 14705 H 1370.22 1.53465 2.57078 0
M  V30 14706 H 1367.77 0.739343 1.23571 0
M  V30 14707 H 1369.72 -0.272959 4.20515 0
M  V30 14708 H 1368.44 -0.908288 3.13716 0
M  V30 14709 H 1367.1 1.19897 3.4644 0
M  V30 14710 H 1366.75 -0.765695 4.97138 0
M  V30 14711 H 1366.45 0.768606 5.82551 0
M  V30 14712 H 1367.97 -0.121011 6.1048 0
M  V30 14713 H 1369.39 2.02592 5.36311 0
M  V30 14714 H 1367.79 2.81459 5.30001 0
M  V30 14715 H 1368.86 2.8965 3.88884 0
M  V30 14716 N 1370.2 -1.34667 0.818693 0
M  V30 14717 C 1371.48 -1.92838 0.327521 0
M  V30 14718 C 1371.86 -1.74732 -1.18457 0
M  V30 14719 O 1371.2 -1.12352 -1.98971 0
M  V30 14720 C 1371.41 -3.40797 0.752207 0
M  V30 14721 C 1372.76 -4.17948 0.748613 0
M  V30 14722 O 1373.79 -3.49364 0.694517 0
M  V30 14723 O 1372.64 -5.40344 0.817958 0
M  V30 14724 H 1369.74 -0.822249 0.0885148 0
M  V30 14725 H 1372.28 -1.43668 0.9032 0
M  V30 14726 H 1371.06 -3.47759 1.79387 0
M  V30 14727 H 1370.68 -3.97309 0.151992 0
M  V30 14728 N 1371.68 -0.573274 -1.46804 0
M  V30 14729 C 1372.63 0.186085 -2.27239 0
M  V30 14730 C 1373.61 0.870579 -1.35313 0
M  V30 14731 O 1374.8 0.766233 -1.59555 0
M  V30 14732 C 1371.93 1.2052 -3.21449 0
M  V30 14733 C 1371.02 0.523305 -4.20859 0
M  V30 14734 N 1371.41 -0.415768 -5.04088 0
M  V30 14735 C 1369.71 0.775236 -4.39211 0
M  V30 14736 C 1370.41 -0.81341 -5.75985 0
M  V30 14737 N 1369.38 -0.164647 -5.43351 0
M  V30 14738 H 1373.19 -0.535687 -2.88977 0
M  V30 14739 H 1370.7 -0.394373 -1.57539 0
M  V30 14740 H 1372.7 1.76331 -3.77774 0
M  V30 14741 H 1371.36 1.9279 -2.61271 0
M  V30 14742 H 1372.37 -0.790798 -5.11827 0
M  V30 14743 H 1369.04 1.48522 -3.90189 0
M  V30 14744 H 1370.43 -1.58598 -6.52914 0
M  V30 14745 N 1373.15 1.5451 -0.310553 0
M  V30 14746 C 1374.43 1.92452 0.34951 0
M  V30 14747 C 1374.81 1.23881 1.70929 0
M  V30 14748 O 1374.16 0.377898 2.25353 0
M  V30 14749 C 1374.37 3.46026 0.454675 0
M  V30 14750 C 1375.72 4.18432 0.721071 0
M  V30 14751 O 1376.74 3.52112 0.538112 0
M  V30 14752 O 1375.6 5.3586 1.07314 0
M  V30 14753 H 1372.69 0.803168 0.197103 0
M  V30 14754 H 1375.24 1.65852 -0.359313 0
M  V30 14755 H 1374.01 3.88081 -0.500853 0
M  V30 14756 H 1373.64 3.7869 1.21159 0
M  V30 14757 N 1374.63 0.0384594 1.57553 0
M  V30 14758 C 1375.86 -0.651613 1.96898 0
M  V30 14759 C 1376.28 -1.64328 0.915308 0
M  V30 14760 O 1375.64 -1.80883 -0.122824 0
M  V30 14761 C 1375.69 -1.32613 3.3533 0
M  V30 14762 O 1374.79 -2.44159 3.32355 0
M  V30 14763 H 1374.13 -0.170441 0.641752 0
M  V30 14764 H 1376.66 0.103086 2.0434 0
M  V30 14765 H 1376.67 -1.68076 3.71772 0
M  V30 14766 H 1375.35 -0.599275 4.1156 0
M  V30 14767 H 1373.93 -2.10738 3.07642 0
M  V30 14768 N 1376.11 -1.55841 -0.234795 0
M  V30 14769 C 1377.04 -1.94344 -1.29432 0
M  V30 14770 C 1378.02 -0.809912 -1.49581 0
M  V30 14771 O 1379.21 -1.07117 -1.61986 0
M  V30 14772 C 1376.34 -2.24866 -2.64675 0
M  V30 14773 C 1375.29 -3.40584 -2.59203 0
M  V30 14774 C 1374.62 -3.56678 -3.98353 0
M  V30 14775 C 1375.92 -4.75935 -2.15135 0
M  V30 14776 H 1377.61 -2.83096 -0.97454 0
M  V30 14777 H 1375.16 -1.36205 -0.467355 0
M  V30 14778 H 1377.11 -2.50392 -3.38942 0
M  V30 14779 H 1375.83 -1.32953 -2.98314 0
M  V30 14780 H 1374.49 -3.15087 -1.87393 0
M  V30 14781 H 1374.14 -2.62164 -4.29277 0
M  V30 14782 H 1373.84 -4.34503 -3.95577 0
M  V30 14783 H 1375.37 -3.84538 -4.74302 0
M  V30 14784 H 1376.78 -5.00753 -2.7914 0
M  V30 14785 H 1375.18 -5.56949 -2.23446 0
M  V30 14786 H 1376.25 -4.72182 -1.10328 0
M  V30 14787 N 1377.59 0.500963 -1.49426 0
M  V30 14788 C 1378.55 1.58478 -1.65582 0
M  V30 14789 C 1379.55 1.51897 -0.52762 0
M  V30 14790 O 1380.74 1.55049 -0.794071 0
M  V30 14791 C 1377.87 2.9813 -1.65322 0
M  V30 14792 H 1379.07 1.45483 -2.6225 0
M  V30 14793 H 1376.62 0.725199 -1.38458 0
M  V30 14794 H 1377.36 3.16602 -0.702384 0
M  V30 14795 H 1377.14 3.04315 -2.47255 0
M  V30 14796 H 1378.63 3.76874 -1.79878 0
M  V30 14797 N 1379.07 1.38501 0.752011 0
M  V30 14798 C 1380.02 1.35975 1.88716 0
M  V30 14799 C 1381.01 0.245392 1.67613 0
M  V30 14800 O 1382.22 0.414514 1.75162 0
M  V30 14801 H 1378.59 0.424221 0.620919 0
M  V30 14802 H 1380.56 2.3176 1.87962 0
M  V30 14803 C 1379.31 1.20326 3.26216 0
M  V30 14804 H 1378.63 2.05336 3.43041 0
M  V30 14805 H 1380.07 1.22613 4.05884 0
M  V30 14806 C 1378.53 -0.0897029 3.36781 0
M  V30 14807 O 1379.06 -1.06615 3.87293 0
M  V30 14808 N 1377.27 -0.147065 2.90228 0
M  V30 14809 H 1376.82 0.648216 2.49311 0
M  V30 14810 H 1376.77 -1.01174 2.97676 0
M  V30 14811 N 1380.55 -0.980364 1.23396 0
M  V30 14812 C 1381.49 -2.07275 1.01516 0
M  V30 14813 C 1382.46 -1.65963 -0.0673729 0
M  V30 14814 O 1383.65 -1.90612 0.0847392 0
M  V30 14815 C 1380.79 -3.39621 0.61249 0
M  V30 14816 C 1379.9 -3.94203 1.76715 0
M  V30 14817 C 1379.04 -5.14761 1.31126 0
M  V30 14818 C 1378.07 -5.61509 2.43667 0
M  V30 14819 N 1377.21 -6.73297 1.99035 0
M  V30 14820 H 1382.05 -2.25325 1.9502 0
M  V30 14821 H 1379.59 -1.10452 0.971532 0
M  V30 14822 H 1381.55 -4.15643 0.360126 0
M  V30 14823 H 1380.18 -3.21535 -0.285539 0
M  V30 14824 H 1379.23 -3.14937 2.13352 0
M  V30 14825 H 1380.54 -4.24867 2.61323 0
M  V30 14826 H 1379.69 -5.98115 1.01702 0
M  V30 14827 H 1378.43 -4.85751 0.435555 0
M  V30 14828 H 1377.44 -4.76737 2.73865 0
M  V30 14829 H 1378.66 -5.92539 3.31774 0
M  V30 14830 H 1376.61 -6.46046 1.13845 0
M  V30 14831 H 1376.53 -7.03345 2.77203 0
M  V30 14832 H 1377.79 -7.60125 1.72716 0
M  V30 14833 N 1382.02 -1.04567 -1.17913 0
M  V30 14834 C 1383.25 -0.772146 -1.92491 0
M  V30 14835 C 1383.67 0.665297 -1.75942 0
M  V30 14836 O 1383.03 1.46144 -1.07292 0
M  V30 14837 C 1383.08 -1.14966 -3.41782 0
M  V30 14838 O 1382.18 -0.278091 -4.11461 0
M  V30 14839 H 1381.52 -0.283715 -0.600335 0
M  V30 14840 H 1384.05 -1.39685 -1.49496 0
M  V30 14841 H 1384.06 -1.11374 -3.92505 0
M  V30 14842 H 1382.74 -2.1968 -3.53148 0
M  V30 14843 H 1381.32 -0.374073 -3.71019 0
M  V30 14844 N 1383.5 1.34231 -0.825823 0
M  V30 14845 C 1384.75 1.97454 -0.411661 0
M  V30 14846 C 1385.06 1.66193 1.03147 0
M  V30 14847 O 1386.27 2.22929 1.54968 0
M  V30 14848 C 1384.73 3.53318 -0.685145 0
M  V30 14849 C 1384.33 3.9347 -2.14208 0
M  V30 14850 C 1386.08 4.23158 -0.337291 0
M  V30 14851 C 1383.98 5.42258 -2.3603 0
M  V30 14852 H 1382.91 0.738889 -0.150196 0
M  V30 14853 H 1385.57 1.53033 -1.01258 0
M  V30 14854 H 1383.95 3.95998 -0.0140178 0
M  V30 14855 H 1385.12 3.61888 -2.85261 0
M  V30 14856 H 1383.44 3.36575 -2.45165 0
M  V30 14857 H 1386.03 5.32558 -0.47813 0
M  V30 14858 H 1386.38 4.10053 0.718499 0
M  V30 14859 H 1386.91 3.85965 -0.963113 0
M  V30 14860 H 1383.65 5.60352 -3.40126 0
M  V30 14861 H 1383.17 5.75345 -1.69524 0
M  V30 14862 H 1384.85 6.08976 -2.18533 0
M  V30 14863 N 1384.98 0.581051 1.46498 0
M  V30 14864 C 1386.21 0.0715652 2.06776 0
M  V30 14865 C 1386.62 -1.23267 1.43006 0
M  V30 14866 O 1385.98 -1.74489 0.534776 0
M  V30 14867 C 1386.03 -0.102666 3.61354 0
M  V30 14868 O 1385.75 1.14995 4.22739 0
M  V30 14869 C 1387.25 -0.646692 4.38558 0
M  V30 14870 H 1384.47 0.0566964 0.6686 0
M  V30 14871 H 1387.02 0.801248 1.8815 0
M  V30 14872 H 1385.17 -0.782564 3.79414 0
M  V30 14873 H 1385.59 0.962718 5.15589 0
M  V30 14874 H 1387.06 -0.717791 5.47313 0
M  V30 14875 H 1387.54 -1.6633 4.06486 0
M  V30 14876 H 1388.14 -0.00171739 4.253 0
M  V30 14877 N 1386.46 -1.54343 0.318742 0
M  V30 14878 C 1387.69 -2.04597 -0.286961 0
M  V30 14879 C 1388.1 -1.19474 -1.46706 0
M  V30 14880 O 1387.44 -0.217082 -1.82413 0
M  V30 14881 C 1387.5 -3.50729 -0.789262 0
M  V30 14882 C 1387.16 -4.56214 0.267888 0
M  V30 14883 C 1388.16 -5.08079 1.10235 0
M  V30 14884 C 1385.85 -5.00585 0.414691 0
M  V30 14885 C 1387.84 -6.02872 2.06938 0
M  V30 14886 C 1385.53 -5.95195 1.38515 0
M  V30 14887 C 1386.53 -6.46224 2.21097 0
M  V30 14888 O 1386.21 -7.38976 3.16495 0
M  V30 14889 H 1385.95 -0.672994 -0.0636843 0
M  V30 14890 H 1388.5 -2.00147 0.461569 0
M  V30 14891 H 1386.73 -3.52562 -1.58862 0
M  V30 14892 H 1388.42 -3.84084 -1.31278 0
M  V30 14893 H 1389.18 -4.74581 0.999893 0
M  V30 14894 H 1385.06 -4.60483 -0.21819 0
M  V30 14895 H 1388.61 -6.42627 2.71435 0
M  V30 14896 H 1384.5 -6.28109 1.48826 0
M  V30 14897 H 1385.27 -7.56835 3.11678 0
M  V30 14898 N 1387.94 -0.0468143 -1.5753 0
M  V30 14899 C 1388.87 0.958157 -2.08211 0
M  V30 14900 C 1389.88 1.27757 -1.00906 0
M  V30 14901 O 1391.07 1.23913 -1.28483 0
M  V30 14902 C 1388.17 2.28088 -2.50657 0
M  V30 14903 C 1387.34 2.14403 -3.81248 0
M  V30 14904 C 1386.4 3.29761 -4.10054 0
M  V30 14905 O 1385.43 3.05859 -4.8004 0
M  V30 14906 N 1386.63 4.54104 -3.61621 0
M  V30 14907 H 1389.39 0.525612 -2.95055 0
M  V30 14908 H 1386.96 0.139532 -1.61298 0
M  V30 14909 H 1388.95 3.04121 -2.67007 0
M  V30 14910 H 1387.52 2.62924 -1.69085 0
M  V30 14911 H 1386.74 1.22988 -3.74523 0
M  V30 14912 H 1388.03 2.02482 -4.66775 0
M  V30 14913 H 1387.42 4.76414 -3.05034 0
M  V30 14914 H 1385.98 5.27246 -3.83217 0
M  V30 14915 N 1389.41 1.55964 0.226527 0
M  V30 14916 C 1390.35 1.87013 1.30772 0
M  V30 14917 C 1391.33 0.727044 1.4544 0
M  V30 14918 O 1392.51 0.974898 1.61332 0
M  V30 14919 C 1389.64 2.07278 2.67869 0
M  V30 14920 C 1388.68 3.29956 2.70243 0
M  V30 14921 S 1389.52 4.86026 2.24808 0
M  V30 14922 C 1390.67 5.09321 3.6379 0
M  V30 14923 H 1390.9 2.78427 1.0424 0
M  V30 14924 H 1388.44 1.48334 0.428525 0
M  V30 14925 H 1390.4 2.19636 3.468 0
M  V30 14926 H 1389.06 1.1667 2.91628 0
M  V30 14927 H 1388.25 3.41164 3.70975 0
M  V30 14928 H 1387.85 3.16429 1.99371 0
M  V30 14929 H 1390.14 4.97914 4.59443 0
M  V30 14930 H 1391.09 6.11227 3.57501 0
M  V30 14931 H 1391.49 4.37076 3.57247 0
M  V30 14932 N 1390.89 -0.493031 1.4969 0
M  V30 14933 C 1392.14 -1.24664 1.59578 0
M  V30 14934 C 1392.47 -1.92385 0.286075 0
M  V30 14935 O 1391.72 -1.81712 -0.726586 0
M  V30 14936 C 1392.02 -2.33014 2.70997 0
M  V30 14937 C 1391.69 -1.82697 4.12229 0
M  V30 14938 C 1390.35 -1.68694 4.50662 0
M  V30 14939 C 1392.7 -1.45127 5.00587 0
M  V30 14940 C 1390.03 -1.15512 5.75216 0
M  V30 14941 C 1392.38 -0.933951 6.25668 0
M  V30 14942 C 1391.05 -0.780378 6.62923 0
M  V30 14943 H 1390.32 -0.456178 0.583937 0
M  V30 14944 H 1392.96 -0.546091 1.83549 0
M  V30 14945 H 1391.27 -3.08889 2.41029 0
M  V30 14946 H 1392.96 -2.91041 2.75855 0
M  V30 14947 H 1389.55 -1.94557 3.81897 0
M  V30 14948 H 1393.74 -1.5479 4.71544 0
M  V30 14949 H 1388.99 -1.0234 6.02774 0
M  V30 14950 H 1393.17 -0.634088 6.93507 0
M  V30 14951 H 1390.8 -0.366111 7.59318 0
M  V30 14952 N 1392.37 -1.38898 -0.744656 0
M  V30 14953 C 1393.62 -1.35327 -1.50104 0
M  V30 14954 C 1393.94 0.0532788 -1.94927 0
M  V30 14955 O 1393.21 1.0027 -1.68294 0
M  V30 14956 H 1391.79 -0.49797 -0.556808 0
M  V30 14957 H 1394.45 -1.73667 -0.884625 0
M  V30 14958 H 1393.55 -2.00983 -2.38773 0
M  V30 14959 N 1393.85 0.973806 -1.23914 0
M  V30 14960 C 1394.8 2.06734 -1.02614 0
M  V30 14961 C 1395.77 1.65997 0.0585705 0
M  V30 14962 O 1396.95 1.90564 -0.0948467 0
M  V30 14963 C 1394.09 3.39292 -0.630493 0
M  V30 14964 C 1393.2 3.9326 -1.78803 0
M  V30 14965 C 1392.34 5.14059 -1.33854 0
M  V30 14966 C 1391.38 5.60209 -2.46642 0
M  V30 14967 N 1390.51 6.72232 -2.02603 0
M  V30 14968 H 1395.35 2.24287 -1.96212 0
M  V30 14969 H 1392.89 1.09935 -0.977376 0
M  V30 14970 H 1394.85 4.15446 -0.382163 0
M  V30 14971 H 1393.48 3.21682 0.268483 0
M  V30 14972 H 1392.53 3.13801 -2.15019 0
M  V30 14973 H 1393.84 4.23475 -2.63573 0
M  V30 14974 H 1393 5.97567 -1.04873 0
M  V30 14975 H 1391.74 4.85513 -0.46131 0
M  V30 14976 H 1390.74 4.75278 -2.7639 0
M  V30 14977 H 1391.97 5.90771 -3.34912 0
M  V30 14978 H 1389.91 6.45433 -1.17269 0
M  V30 14979 H 1389.83 7.01865 -2.80929 0
M  V30 14980 H 1391.1 7.59198 -1.76745 0
M  V30 14981 N 1395.33 1.05191 1.17357 0
M  V30 14982 C 1396.55 0.782373 1.91537 0
M  V30 14983 C 1396.97 -0.661935 1.76816 0
M  V30 14984 O 1396.33 -1.45221 1.10531 0
M  V30 14985 C 1396.38 1.15357 3.426 0
M  V30 14986 O 1396.1 2.54119 3.56869 0
M  V30 14987 C 1397.6 0.910167 4.33856 0
M  V30 14988 H 1394.82 0.284461 0.607719 0
M  V30 14989 H 1397.36 1.40259 1.48821 0
M  V30 14990 H 1395.52 0.578107 3.83062 0
M  V30 14991 H 1395.93 2.68668 4.50464 0
M  V30 14992 H 1397.41 1.21964 5.38358 0
M  V30 14993 H 1397.88 -0.154624 4.38928 0
M  V30 14994 H 1398.49 1.46947 3.99107 0
M  V30 14995 N 1396.8 -1.33791 0.83293 0
M  V30 14996 C 1397.73 -2.31853 0.276846 0
M  V30 14997 C 1398.72 -1.58702 -0.612184 0
M  V30 14998 O 1399.9 -1.86629 -0.536975 0
M  V30 14999 C 1397.03 -3.42855 -0.55385 0
M  V30 15000 C 1395.98 -4.27333 0.238884 0
M  V30 15001 C 1395.31 -5.29895 -0.715187 0
M  V30 15002 C 1396.61 -5.01692 1.45265 0
M  V30 15003 H 1398.3 -2.78611 1.09618 0
M  V30 15004 H 1395.85 -1.33949 0.528562 0
M  V30 15005 H 1397.8 -4.10479 -0.953133 0
M  V30 15006 H 1396.53 -2.94771 -1.40634 0
M  V30 15007 H 1395.19 -3.61325 0.619656 0
M  V30 15008 H 1394.83 -4.7807 -1.56391 0
M  V30 15009 H 1394.53 -5.87296 -0.188921 0
M  V30 15010 H 1396.06 -6.00387 -1.11211 0
M  V30 15011 H 1397.47 -5.62117 1.12685 0
M  V30 15012 H 1395.87 -5.68715 1.91528 0
M  V30 15013 H 1396.94 -4.30809 2.22558 0
M  V30 15014 N 1398.28 -0.588812 -1.46187 0
M  V30 15015 C 1399.51 -0.0806571 -2.07243 0
M  V30 15016 C 1399.93 1.21766 -1.43369 0
M  V30 15017 O 1399.29 1.73694 -0.51964 0
M  V30 15018 C 1399.34 0.065267 -3.60541 0
M  V30 15019 O 1398.44 1.12026 -3.96893 0
M  V30 15020 H 1397.78 -0.0655622 -0.660755 0
M  V30 15021 H 1400.31 -0.813489 -1.87733 0
M  V30 15022 H 1400.32 0.269494 -4.07109 0
M  V30 15023 H 1399 -0.88284 -4.06422 0
M  V30 15024 H 1397.58 0.894 -3.62025 0
M  V30 15025 N 1399.76 1.54172 -0.326923 0
M  V30 15026 C 1401.01 2.00233 0.274098 0
M  V30 15027 C 1401.33 1.21665 1.5239 0
M  V30 15028 O 1400.6 0.319359 1.93279 0
M  V30 15029 H 1399.18 0.739687 0.104271 0
M  V30 15030 H 1401.84 1.8977 -0.444244 0
M  V30 15031 H 1400.94 3.07599 0.528154 0
M  V30 15032 N 1401.24 0.0551678 1.57503 0
M  V30 15033 C 1402.47 -0.6272 1.97164 0
M  V30 15034 C 1402.88 -1.64143 0.932876 0
M  V30 15035 O 1402.24 -1.82314 -0.0824465 0
M  V30 15036 C 1402.29 -1.31057 3.36907 0
M  V30 15037 O 1402.01 -0.336951 4.36802 0
M  V30 15038 C 1403.51 -2.08232 3.91349 0
M  V30 15039 H 1400.73 -0.171196 0.648793 0
M  V30 15040 H 1403.28 0.122651 2.04132 0
M  V30 15041 H 1401.43 -2.01162 3.31078 0
M  V30 15042 H 1401.84 -0.825204 5.17968 0
M  V30 15043 H 1403.32 -2.51463 4.91397 0
M  V30 15044 H 1403.8 -2.93212 3.26991 0
M  V30 15045 H 1404.4 -1.43029 4.00528 0
M  V30 15046 N 1402.72 -1.56081 -0.218252 0
M  V30 15047 C 1403.66 -1.93544 -1.2901 0
M  V30 15048 C 1404.66 -0.817886 -1.48348 0
M  V30 15049 O 1405.86 -1.00274 -1.49483 0
M  V30 15050 H 1402.24 -0.61511 -0.432601 0
M  V30 15051 H 1404.21 -2.82975 -0.946966 0
M  V30 15052 C 1402.96 -2.27134 -2.63259 0
M  V30 15053 H 1402.28 -3.12643 -2.49188 0
M  V30 15054 H 1403.72 -2.57228 -3.3706 0
M  V30 15055 C 1402.18 -1.09764 -3.18518 0
M  V30 15056 O 1402.71 -0.360501 -4.00079 0
M  V30 15057 N 1400.92 -0.880589 -2.76937 0
M  V30 15058 H 1400.46 -1.48175 -2.10718 0
M  V30 15059 H 1400.42 -0.0970234 -3.1425 0
M  V30 15060 N 1404.2 0.485086 -1.49949 0
M  V30 15061 C 1405.42 1.26648 -1.64241 0
M  V30 15062 C 1405.85 1.85359 -0.319939 0
M  V30 15063 O 1405.2 1.66628 0.714487 0
M  V30 15064 C 1405.25 2.36109 -2.72552 0
M  V30 15065 O 1404.36 3.40387 -2.32832 0
M  V30 15066 H 1403.7 0.373208 -0.549192 0
M  V30 15067 H 1406.23 0.578929 -1.96239 0
M  V30 15068 H 1406.24 2.81634 -2.95205 0
M  V30 15069 H 1404.91 1.92745 -3.6854 0
M  V30 15070 H 1403.49 3.0067 -2.20571 0
M  V30 15071 N 1405.67 1.39291 0.737279 0
M  V30 15072 C 1406.92 1.35702 1.49224 0
M  V30 15073 C 1407.24 -0.0450282 1.95548 0
M  V30 15074 O 1408.44 -0.203495 2.70736 0
M  V30 15075 C 1406.9 2.38387 2.69629 0
M  V30 15076 C 1406.51 3.84295 2.30263 0
M  V30 15077 C 1408.25 2.4387 3.47459 0
M  V30 15078 C 1406.16 4.78626 3.47377 0
M  V30 15079 H 1405.09 0.50449 0.560362 0
M  V30 15080 H 1407.74 1.64926 0.804466 0
M  V30 15081 H 1406.12 2.0223 3.40469 0
M  V30 15082 H 1407.29 4.2948 1.66984 0
M  V30 15083 H 1405.61 3.82085 1.6553 0
M  V30 15084 H 1408.21 3.11539 4.34566 0
M  V30 15085 H 1408.55 1.46253 3.89764 0
M  V30 15086 H 1409.08 2.78908 2.83646 0
M  V30 15087 H 1405.82 5.77497 3.10124 0
M  V30 15088 H 1405.34 4.38123 4.09645 0
M  V30 15089 H 1407.02 4.9742 4.13742 0
M  V30 15090 N 1407.15 -0.967221 1.24429 0
M  V30 15091 C 1408.38 -1.75053 1.11226 0
M  V30 15092 C 1408.8 -1.85162 -0.331139 0
M  V30 15093 O 1408.16 -1.32288 -1.23974 0
M  V30 15094 C 1408.21 -3.14882 1.75733 0
M  V30 15095 O 1407.31 -3.99371 1.02842 0
M  V30 15096 H 1406.65 -0.538078 0.389061 0
M  V30 15097 H 1409.18 -1.21325 1.64746 0
M  V30 15098 H 1409.19 -3.65402 1.81509 0
M  V30 15099 H 1407.87 -3.06839 2.80754 0
M  V30 15100 H 1406.44 -3.57854 1.04856 0
M  V30 15101 N 1408.63 -1.05812 -1.16797 0
M  V30 15102 C 1409.56 -0.622584 -2.20582 0
M  V30 15103 C 1410.57 0.316905 -1.59686 0
M  V30 15104 O 1411.76 0.108657 -1.78169 0
M  V30 15105 C 1408.86 0.108124 -3.38727 0
M  V30 15106 C 1408.04 -0.84363 -4.29187 0
M  V30 15107 C 1407.1 -0.15305 -5.25977 0
M  V30 15108 O 1406.12 -0.78915 -5.63703 0
M  V30 15109 N 1407.32 1.10721 -5.69843 0
M  V30 15110 H 1410.09 -1.51532 -2.5857 0
M  V30 15111 H 1407.65 -0.940815 -1.31758 0
M  V30 15112 H 1409.64 0.580395 -4.00517 0
M  V30 15113 H 1408.21 0.902599 -2.99286 0
M  V30 15114 H 1407.43 -1.49538 -3.64735 0
M  V30 15115 H 1408.72 -1.48946 -4.86511 0
M  V30 15116 H 1408.12 1.64423 -5.41278 0
M  V30 15117 H 1406.67 1.52344 -6.33746 0
M  V30 15118 N 1410.11 1.33347 -0.840014 0
M  V30 15119 C 1411.02 2.32965 -0.276527 0
M  V30 15120 C 1412.03 1.634 0.598037 0
M  V30 15121 O 1413.21 1.95046 0.501888 0
M  V30 15122 C 1410.27 3.42498 0.53816 0
M  V30 15123 C 1409.34 4.27781 -0.360814 0
M  V30 15124 C 1408.57 5.32083 0.415085 0
M  V30 15125 O 1408.79 5.46115 1.64666 0
M  V30 15126 O 1407.73 6.01528 -0.211503 0
M  V30 15127 H 1411.55 2.83022 -1.10147 0
M  V30 15128 H 1409.14 1.3671 -0.602566 0
M  V30 15129 H 1411.02 4.09336 1.00108 0
M  V30 15130 H 1409.69 2.94655 1.34015 0
M  V30 15131 H 1408.6 3.63805 -0.871598 0
M  V30 15132 H 1409.93 4.7911 -1.1276 0
M  V30 15133 N 1411.59 0.596556 1.45873 0
M  V30 15134 C 1412.83 0.0850976 2.0152 0
M  V30 15135 C 1413.15 -1.28799 1.47208 0
M  V30 15136 O 1414.35 -1.89156 1.94762 0
M  V30 15137 C 1412.81 0.101488 3.59757 0
M  V30 15138 C 1412.42 1.47374 4.23066 0
M  V30 15139 C 1414.16 -0.355303 4.2301 0
M  V30 15140 C 1412.07 1.44711 5.73422 0
M  V30 15141 H 1411 0.0280444 0.753478 0
M  V30 15142 H 1413.65 0.750255 1.67462 0
M  V30 15143 H 1412.03 -0.630108 3.90955 0
M  V30 15144 H 1413.21 2.22617 4.03458 0
M  V30 15145 H 1411.52 1.87171 3.71962 0
M  V30 15146 H 1414.12 -0.394236 5.33245 0
M  V30 15147 H 1414.46 -1.37573 3.92911 0
M  V30 15148 H 1414.99 0.32267 3.96489 0
M  V30 15149 H 1411.73 2.44479 6.08203 0
M  V30 15150 H 1411.25 0.737102 5.95254 0
M  V30 15151 H 1412.93 1.16598 6.36407 0
M  V30 15152 N 1413.06 -1.53996 0.335095 0
M  V30 15153 C 1414 -2.21007 -0.568424 0
M  V30 15154 C 1414.97 -1.19112 -1.10685 0
M  V30 15155 O 1416.16 -1.47898 -1.1687 0
M  V30 15156 C 1413.29 -2.88086 -1.78113 0
M  V30 15157 C 1412.33 -4.03798 -1.37292 0
M  V30 15158 S 1413.16 -5.34005 -0.399865 0
M  V30 15159 C 1414.32 -6.04582 -1.6196 0
M  V30 15160 H 1414.55 -2.973 0.000770174 0
M  V30 15161 H 1412.09 -1.53939 0.119169 0
M  V30 15162 H 1414.04 -3.27353 -2.4769 0
M  V30 15163 H 1412.71 -2.11575 -2.32153 0
M  V30 15164 H 1411.9 -4.49637 -2.27689 0
M  V30 15165 H 1411.5 -3.66264 -0.75673 0
M  V30 15166 H 1413.79 -6.27462 -2.55534 0
M  V30 15167 H 1414.74 -6.97804 -1.20315 0
M  V30 15168 H 1415.14 -5.34634 -1.81181 0
M  V30 15169 N 1414.54 -0.0635198 -1.57472 0
M  V30 15170 C 1415.82 0.648029 -1.84553 0
M  V30 15171 C 1416.2 1.88295 -0.954371 0
M  V30 15172 O 1415.55 2.28492 -0.0185351 0
M  V30 15173 C 1415.76 0.993573 -3.34558 0
M  V30 15174 C 1417.1 1.3706 -4.0187 0
M  V30 15175 O 1418.13 1.08555 -3.39255 0
M  V30 15176 O 1416.99 1.90309 -5.12294 0
M  V30 15177 H 1414.08 0.321047 -0.76214 0
M  V30 15178 H 1416.63 -0.0938223 -1.6944 0
M  V30 15179 H 1415.4 0.116139 -3.91128 0
M  V30 15180 H 1415.02 1.79246 -3.54904 0
M  V30 15181 N 1416.02 1.56195 0.209972 0
M  V30 15182 C 1417.24 1.84189 0.953364 0
M  V30 15183 C 1417.67 0.645288 1.76685 0
M  V30 15184 O 1417.03 -0.405962 1.76696 0
M  V30 15185 C 1417.08 3.10281 1.83733 0
M  V30 15186 O 1416.18 2.89788 2.93422 0
M  V30 15187 H 1415.52 0.606931 0.269314 0
M  V30 15188 H 1418.05 2.03416 0.219783 0
M  V30 15189 H 1418.06 3.40688 2.2449 0
M  V30 15190 H 1416.74 3.97 1.23951 0
M  V30 15191 H 1415.31 2.70643 2.56528 0
M  V30 15192 N 1417.5 -0.477127 1.50204 0
M  V30 15193 C 1418.74 -1.23147 1.6113 0
M  V30 15194 C 1419.08 -1.91743 0.307909 0
M  V30 15195 O 1418.35 -1.81841 -0.690223 0
M  V30 15196 C 1418.63 -2.27985 2.78738 0
M  V30 15197 C 1418.49 -1.63733 4.18941 0
M  V30 15198 C 1419.81 -3.29349 2.9192 0
M  V30 15199 H 1416.93 -0.446358 0.586459 0
M  V30 15200 H 1419.57 -0.52612 1.8257 0
M  V30 15201 H 1417.72 -2.88143 2.60588 0
M  V30 15202 H 1419.39 -1.07218 4.48667 0
M  V30 15203 H 1417.63 -0.940634 4.23479 0
M  V30 15204 H 1418.3 -2.39888 4.9715 0
M  V30 15205 H 1420.78 -2.79208 3.08516 0
M  V30 15206 H 1419.66 -4.0004 3.75845 0
M  V30 15207 H 1419.92 -3.93111 2.02278 0
M  V30 15208 N 1418.98 -1.3968 -0.729882 0
M  V30 15209 C 1419.92 -1.3896 -1.86528 0
M  V30 15210 C 1420.92 -0.272027 -1.67202 0
M  V30 15211 O 1422.12 -0.442328 -1.74481 0
M  V30 15212 H 1418.5 -0.434045 -0.614092 0
M  V30 15213 H 1420.47 -2.34721 -1.84252 0
M  V30 15214 C 1419.22 -1.255 -3.24261 0
M  V30 15215 H 1418.54 -2.10767 -3.39731 0
M  V30 15216 H 1419.98 -1.29054 -4.03882 0
M  V30 15217 C 1418.44 0.0361127 -3.36881 0
M  V30 15218 O 1418.97 1.0044 -3.8894 0
M  V30 15219 N 1417.18 0.100874 -2.90425 0
M  V30 15220 H 1416.72 -0.687797 -2.48248 0
M  V30 15221 H 1416.68 0.964251 -2.99248 0
M  V30 15222 N 1420.45 0.960609 -1.2494 0
M  V30 15223 C 1421.4 2.07763 -1.04581 0
M  V30 15224 C 1422.4 1.69386 0.0214505 0
M  V30 15225 O 1423.6 1.79503 -0.133683 0
M  V30 15226 H 1419.98 0.679944 -0.321216 0
M  V30 15227 H 1421.95 2.22094 -1.99291 0
M  V30 15228 C 1420.7 3.41088 -0.674876 0
M  V30 15229 H 1420.02 3.71082 -1.4879 0
M  V30 15230 H 1421.46 4.20123 -0.572079 0
M  V30 15231 C 1419.92 3.31172 0.6186 0
M  V30 15232 O 1420.45 3.65688 1.66238 0
M  V30 15233 N 1418.66 2.84297 0.601984 0
M  V30 15234 H 1418.2 2.56406 -0.24778 0
M  V30 15235 H 1418.16 2.78045 1.4676 0
M  V30 15236 N 1421.93 1.0643 1.16234 0
M  V30 15237 C 1422.84 0.687446 2.24302 0
M  V30 15238 C 1423.86 -0.297132 1.71444 0
M  V30 15239 O 1425.03 -0.146101 2.00869 0
M  V30 15240 C 1422.1 0.0810973 3.46605 0
M  V30 15241 C 1421.16 1.11772 4.14494 0
M  V30 15242 C 1420.39 0.54021 5.30959 0
M  V30 15243 O 1420.62 -0.646619 5.66723 0
M  V30 15244 O 1419.55 1.28057 5.8812 0
M  V30 15245 H 1423.38 1.58842 2.58849 0
M  V30 15246 H 1420.96 0.836649 1.23776 0
M  V30 15247 H 1422.84 -0.25524 4.20626 0
M  V30 15248 H 1421.52 -0.793338 3.13828 0
M  V30 15249 H 1420.43 1.50626 3.42436 0
M  V30 15250 H 1421.76 1.96373 4.5133 0
M  V30 15251 N 1423.41 -1.329 0.847073 0
M  V30 15252 C 1424.32 -2.32815 0.288878 0
M  V30 15253 C 1425.34 -1.63715 -0.589363 0
M  V30 15254 O 1426.51 -1.9531 -0.491537 0
M  V30 15255 C 1423.58 -3.42778 -0.519988 0
M  V30 15256 C 1422.64 -4.27584 0.383496 0
M  V30 15257 C 1421.87 -5.32296 -0.386862 0
M  V30 15258 O 1422.09 -5.4698 -1.61768 0
M  V30 15259 O 1421.03 -6.01408 0.2434 0
M  V30 15260 H 1424.85 -2.82434 1.11647 0
M  V30 15261 H 1422.44 -1.36388 0.609807 0
M  V30 15262 H 1424.32 -4.09862 -0.979357 0
M  V30 15263 H 1423 -2.95362 -1.3245 0
M  V30 15264 H 1421.9 -3.63338 0.890879 0
M  V30 15265 H 1423.24 -4.78505 1.15299 0
M  V30 15266 N 1424.89 -0.604284 -1.45555 0
M  V30 15267 C 1425.82 0.103859 -2.33269 0
M  V30 15268 C 1426.8 0.862104 -1.46635 0
M  V30 15269 O 1427.98 0.833308 -1.75413 0
M  V30 15270 C 1425.11 1.104 -3.29286 0
M  V30 15271 C 1424.07 0.459189 -4.2553 0
M  V30 15272 C 1423.39 1.56734 -5.11213 0
M  V30 15273 C 1424.69 -0.617509 -5.18637 0
M  V30 15274 H 1426.39 -0.628538 -2.92728 0
M  V30 15275 H 1423.93 -0.303711 -1.40761 0
M  V30 15276 H 1425.89 1.60794 -3.89517 0
M  V30 15277 H 1424.61 1.86695 -2.67979 0
M  V30 15278 H 1423.27 -0.0238508 -3.66592 0
M  V30 15279 H 1422.92 2.32049 -4.46276 0
M  V30 15280 H 1422.62 1.14142 -5.76407 0
M  V30 15281 H 1424.14 2.07361 -5.74312 0
M  V30 15282 H 1425.56 -0.197784 -5.72959 0
M  V30 15283 H 1423.95 -0.96499 -5.9229 0
M  V30 15284 H 1425.02 -1.49541 -4.61265 0
M  V30 15285 N 1426.37 1.53816 -0.343257 0
M  V30 15286 C 1427.59 2.05326 0.254744 0
M  V30 15287 C 1428.01 1.21824 1.44237 0
M  V30 15288 O 1427.37 0.253507 1.80731 0
M  V30 15289 C 1427.42 3.55235 0.670075 0
M  V30 15290 O 1427.14 4.35568 -0.470322 0
M  V30 15291 C 1428.64 4.22915 1.32882 0
M  V30 15292 H 1425.86 0.669191 0.0492324 0
M  V30 15293 H 1428.4 1.98415 -0.495159 0
M  V30 15294 H 1426.56 3.6237 1.36992 0
M  V30 15295 H 1426.97 5.24315 -0.139303 0
M  V30 15296 H 1428.45 5.29197 1.57019 0
M  V30 15297 H 1428.92 3.75244 2.28229 0
M  V30 15298 H 1429.53 4.19973 0.67102 0
M  V30 15299 N 1427.84 0.0718701 1.57436 0
M  V30 15300 C 1429.12 -0.638233 1.84894 0
M  V30 15301 C 1429.5 -1.87786 0.964343 0
M  V30 15302 O 1428.85 -2.28479 0.0306523 0
M  V30 15303 C 1429.06 -0.975817 3.3508 0
M  V30 15304 C 1430.41 -1.34927 4.02591 0
M  V30 15305 O 1431.43 -1.06754 3.39826 0
M  V30 15306 O 1430.29 -1.87589 5.13296 0
M  V30 15307 H 1427.38 -0.317 0.763832 0
M  V30 15308 H 1429.93 0.102807 1.69388 0
M  V30 15309 H 1428.7 -0.0953948 3.91184 0
M  V30 15310 H 1428.33 -1.77362 3.55849 0
M  V30 15311 N 1429.32 -1.56304 -0.201686 0
M  V30 15312 C 1430.23 -1.97215 -1.27057 0
M  V30 15313 C 1431.25 -0.878834 -1.50175 0
M  V30 15314 O 1432.42 -1.18405 -1.62918 0
M  V30 15315 C 1429.49 -2.29772 -2.59626 0
M  V30 15316 C 1428.55 -3.52776 -2.44637 0
M  V30 15317 C 1427.78 -3.83771 -3.70885 0
M  V30 15318 O 1428.01 -3.16149 -4.7477 0
M  V30 15319 O 1426.94 -4.77216 -3.66808 0
M  V30 15320 H 1430.77 -2.88347 -0.953393 0
M  V30 15321 H 1428.35 -1.43773 -0.406158 0
M  V30 15322 H 1430.23 -2.51817 -3.37885 0
M  V30 15323 H 1428.91 -1.41809 -2.90984 0
M  V30 15324 H 1427.82 -3.35986 -1.64512 0
M  V30 15325 H 1429.15 -4.41184 -2.18214 0
M  V30 15326 N 1430.8 0.469154 -1.50455 0
M  V30 15327 C 1431.73 1.57493 -1.7239 0
M  V30 15328 C 1432.71 1.60161 -0.572915 0
M  V30 15329 O 1433.9 1.76397 -0.812259 0
M  V30 15330 C 1431.03 2.95804 -1.81981 0
M  V30 15331 C 1429.98 3.08001 -2.97185 0
M  V30 15332 C 1429.31 4.4798 -2.91922 0
M  V30 15333 C 1430.61 2.85039 -4.37665 0
M  V30 15334 H 1432.3 1.39389 -2.64974 0
M  V30 15335 H 1429.85 0.669133 -1.27509 0
M  V30 15336 H 1431.8 3.73091 -1.95911 0
M  V30 15337 H 1430.52 3.15068 -0.86021 0
M  V30 15338 H 1429.18 2.33148 -2.82909 0
M  V30 15339 H 1428.83 4.64165 -1.93803 0
M  V30 15340 H 1428.53 4.57076 -3.69263 0
M  V30 15341 H 1430.05 5.27284 -3.07903 0
M  V30 15342 H 1431.47 3.52074 -4.52456 0
M  V30 15343 H 1429.87 3.05578 -5.16471 0
M  V30 15344 H 1430.94 1.8088 -4.499 0
M  V30 15345 N 1432.28 1.40065 0.722464 0
M  V30 15346 C 1433.21 1.42532 1.84951 0
M  V30 15347 C 1434.19 0.287082 1.6766 0
M  V30 15348 O 1435.37 0.494715 1.87793 0
M  V30 15349 C 1432.5 1.28041 3.22836 0
M  V30 15350 C 1431.46 2.39396 3.54787 0
M  V30 15351 C 1430.78 2.09986 4.91742 0
M  V30 15352 C 1432.08 3.81729 3.56483 0
M  V30 15353 H 1433.78 2.36851 1.83144 0
M  V30 15354 H 1431.32 1.14005 0.879714 0
M  V30 15355 H 1433.28 1.28385 4.01367 0
M  V30 15356 H 1432 0.301947 3.25201 0
M  V30 15357 H 1430.66 2.3829 2.78592 0
M  V30 15358 H 1430.31 1.10547 4.90702 0
M  V30 15359 H 1430.01 2.84586 5.14086 0
M  V30 15360 H 1431.53 2.12 5.72615 0
M  V30 15361 H 1432.95 3.84696 4.25067 0
M  V30 15362 H 1431.34 4.55791 3.90351 0
M  V30 15363 H 1432.41 4.11807 2.56014 0
M  V30 15364 N 1433.76 -0.95397 1.25448 0
M  V30 15365 C 1435.01 -1.6953 1.10018 0
M  V30 15366 C 1435.33 -1.9166 -0.359385 0
M  V30 15367 O 1434.6 -1.50417 -1.25506 0
M  V30 15368 H 1433.18 -0.628238 0.404136 0
M  V30 15369 H 1435.84 -1.14691 1.57581 0
M  V30 15370 H 1434.93 -2.67427 1.60901 0
M  V30 15371 N 1435.24 -1.07045 -1.15668 0
M  V30 15372 C 1436.48 -0.801045 -1.8805 0
M  V30 15373 C 1436.84 0.660714 -1.80274 0
M  V30 15374 O 1438.04 1.04503 -2.47654 0
M  V30 15375 C 1436.31 -1.2914 -3.33253 0
M  V30 15376 S 1437.87 -1.15221 -4.23402 0
M  V30 15377 H 1434.69 -0.29037 -0.649004 0
M  V30 15378 H 1437.29 -1.36892 -1.39574 0
M  V30 15379 H 1435.99 -2.35003 -3.36455 0
M  V30 15380 H 1435.53 -0.718605 -3.86781 0
M  V30 15381 H 1437.54 -0.087806 -4.96122 0
M  V30 15382 N 1436.71 1.32449 -0.85411 0
M  V30 15383 C 1437.64 2.31383 -0.313697 0
M  V30 15384 C 1438.62 1.59656 0.586858 0
M  V30 15385 O 1439.81 1.87459 0.507216 0
M  V30 15386 C 1436.94 3.43693 0.499235 0
M  V30 15387 C 1435.89 4.26899 -0.306839 0
M  V30 15388 C 1435.22 5.30966 0.630795 0
M  V30 15389 C 1436.52 4.99318 -1.53229 0
M  V30 15390 H 1438.21 2.76832 -1.14037 0
M  V30 15391 H 1435.76 1.33091 -0.549805 0
M  V30 15392 H 1437.71 4.11944 0.887709 0
M  V30 15393 H 1436.44 2.96971 1.35926 0
M  V30 15394 H 1435.1 3.60294 -0.677061 0
M  V30 15395 H 1434.74 4.80498 1.48765 0
M  V30 15396 H 1434.44 5.87522 0.0954635 0
M  V30 15397 H 1435.97 6.0208 1.01646 0
M  V30 15398 H 1437.38 5.60253 -1.21614 0
M  V30 15399 H 1435.78 5.65596 -2.00552 0
M  V30 15400 H 1436.85 4.27213 -2.29383 0
M  V30 15401 N 1438.19 0.611994 1.45232 0
M  V30 15402 C 1439.15 -0.0943825 2.29006 0
M  V30 15403 C 1440.15 -0.790863 1.40007 0
M  V30 15404 O 1441.34 -0.638356 1.62082 0
M  V30 15405 C 1438.48 -1.1439 3.21135 0
M  V30 15406 H 1439.67 0.6422 2.92943 0
M  V30 15407 H 1437.22 0.37124 1.51827 0
M  V30 15408 H 1437.96 -1.9111 2.62007 0
M  V30 15409 H 1437.74 -0.648638 3.86698 0
M  V30 15410 H 1439.23 -1.63848 3.84114 0
M  V30 15411 N 1439.67 -1.53632 0.351409 0
M  V30 15412 C 1440.63 -2.23916 -0.489293 0
M  V30 15413 C 1441.63 -1.24207 -1.02124 0
M  V30 15414 O 1442.82 -1.48589 -0.909235 0
M  V30 15415 C 1439.95 -2.96492 -1.68242 0
M  V30 15416 H 1441.15 -2.99637 0.125518 0
M  V30 15417 H 1438.7 -1.55961 0.102874 0
M  V30 15418 H 1439.44 -2.24978 -2.33571 0
M  V30 15419 H 1439.22 -3.69637 -1.3081 0
M  V30 15420 H 1440.71 -3.49961 -2.27853 0
M  V30 15421 N 1441.15 -0.0802183 -1.57396 0
M  V30 15422 C 1442.06 0.898597 -2.16708 0
M  V30 15423 C 1443.07 1.321 -1.1325 0
M  V30 15424 O 1444.25 1.39197 -1.45554 0
M  V30 15425 C 1441.31 2.14501 -2.72379 0
M  V30 15426 C 1440.38 1.77822 -3.9074 0
M  V30 15427 C 1439.61 2.96521 -4.43747 0
M  V30 15428 O 1439.83 4.10797 -3.9573 0
M  V30 15429 O 1438.77 2.75849 -5.34968 0
M  V30 15430 H 1442.59 0.424027 -3.00725 0
M  V30 15431 H 1440.18 0.14332 -1.48711 0
M  V30 15432 H 1442.06 2.87575 -3.08024 0
M  V30 15433 H 1440.73 2.61039 -1.91416 0
M  V30 15434 H 1439.64 1.01974 -3.59934 0
M  V30 15435 H 1440.97 1.36059 -4.73021 0
M  V30 15436 N 1442.63 1.56409 0.193394 0
M  V30 15437 C 1443.56 1.97707 1.24234 0
M  V30 15438 C 1444.54 0.849286 1.47381 0
M  V30 15439 O 1445.72 1.11374 1.59089 0
M  V30 15440 C 1442.85 2.31804 2.5862 0
M  V30 15441 C 1441.81 3.47337 2.50082 0
M  V30 15442 C 1441.13 3.67114 3.88756 0
M  V30 15443 C 1442.43 4.81472 2.02441 0
M  V30 15444 H 1444.13 2.8558 0.89914 0
M  V30 15445 H 1441.67 1.37396 0.431078 0
M  V30 15446 H 1443.62 2.5929 3.32185 0
M  V30 15447 H 1442.35 1.40816 2.94684 0
M  V30 15448 H 1441.01 3.19944 1.78973 0
M  V30 15449 H 1440.66 2.73454 4.22175 0
M  V30 15450 H 1440.36 4.44838 3.83918 0
M  V30 15451 H 1441.88 3.96978 4.6394 0
M  V30 15452 H 1443.29 5.07978 2.65766 0
M  V30 15453 H 1441.69 5.62677 2.08601 0
M  V30 15454 H 1442.76 4.74941 0.977704 0
M  V30 15455 N 1444.1 -0.461169 1.50702 0
M  V30 15456 C 1445.03 -1.56576 1.73223 0
M  V30 15457 C 1446.01 -1.59855 0.581401 0
M  V30 15458 O 1447.2 -1.75964 0.821602 0
M  V30 15459 C 1444.33 -2.94835 1.83548 0
M  V30 15460 C 1443.28 -3.06421 2.98815 0
M  V30 15461 C 1442.61 -4.46425 2.94293 0
M  V30 15462 C 1443.91 -2.82714 4.3917 0
M  V30 15463 H 1445.6 -1.37982 2.65709 0
M  V30 15464 H 1443.15 -0.662362 1.27862 0
M  V30 15465 H 1445.1 -3.72047 1.97887 0
M  V30 15466 H 1443.83 -3.14608 0.876906 0
M  V30 15467 H 1442.49 -2.31644 2.84142 0
M  V30 15468 H 1442.13 -4.63131 1.96262 0
M  V30 15469 H 1441.83 -4.55111 3.71682 0
M  V30 15470 H 1443.36 -5.25644 3.10695 0
M  V30 15471 H 1444.77 -3.4967 4.54317 0
M  V30 15472 H 1443.17 -3.02835 5.18084 0
M  V30 15473 H 1444.24 -1.78492 4.50853 0
M  V30 15474 N 1445.58 -1.40446 -0.715026 0
M  V30 15475 C 1446.54 -1.40506 -1.81082 0
M  V30 15476 C 1447.54 -0.298768 -1.58 0
M  V30 15477 O 1448.73 -0.5577 -1.65031 0
M  V30 15478 C 1445.87 -1.19735 -3.19181 0
M  V30 15479 H 1447.06 -2.38034 -1.82427 0
M  V30 15480 H 1444.61 -1.26303 -0.920718 0
M  V30 15481 H 1445.35 -0.229695 -3.23486 0
M  V30 15482 H 1445.13 -1.99871 -3.37334 0
M  V30 15483 H 1446.62 -1.22566 -3.99208 0
M  V30 15484 N 1447.06 0.947303 -1.25952 0
M  V30 15485 C 1447.99 2.0625 -1.09467 0
M  V30 15486 C 1448.97 1.701 -0.00160498 0
M  V30 15487 O 1450.16 1.93432 -0.172501 0
M  V30 15488 C 1447.29 3.39746 -0.720392 0
M  V30 15489 C 1446.24 3.89935 -1.76451 0
M  V30 15490 C 1445.57 5.2001 -1.24472 0
M  V30 15491 C 1446.87 4.15496 -3.16481 0
M  V30 15492 H 1448.56 2.203 -2.02752 0
M  V30 15493 H 1446.11 1.05858 -0.97622 0
M  V30 15494 H 1448.06 4.17221 -0.591972 0
M  V30 15495 H 1446.78 3.25656 0.248161 0
M  V30 15496 H 1445.44 3.14635 -1.8815 0
M  V30 15497 H 1445.09 5.02295 -0.266182 0
M  V30 15498 H 1444.79 5.54559 -1.94263 0
M  V30 15499 H 1446.31 6.00075 -1.12884 0
M  V30 15500 H 1447.73 4.83605 -3.07894 0
M  V30 15501 H 1446.12 4.61315 -3.83808 0
M  V30 15502 H 1447.19 3.21501 -3.62995 0
M  V30 15503 N 1448.54 1.07657 1.15099 0
M  V30 15504 C 1449.82 0.714608 1.82079 0
M  V30 15505 C 1450.2 -0.802578 1.95248 0
M  V30 15506 O 1449.54 -1.71818 1.50634 0
M  V30 15507 C 1449.75 1.43264 3.1824 0
M  V30 15508 C 1451.1 1.58675 3.93837 0
M  V30 15509 O 1452.13 1.39367 3.27804 0
M  V30 15510 O 1450.98 1.9047 5.12234 0
M  V30 15511 H 1448.08 0.254645 0.786819 0
M  V30 15512 H 1450.62 1.17768 1.22183 0
M  V30 15513 H 1449.4 2.46655 3.03772 0
M  V30 15514 H 1449.02 0.960546 3.85823 0
M  V30 15515 N 1450.02 -1.31994 0.861122 0
M  V30 15516 C 1450.93 -2.32495 0.313555 0
M  V30 15517 C 1451.94 -1.64331 -0.571966 0
M  V30 15518 O 1453.12 -1.9582 -0.470794 0
M  V30 15519 C 1450.18 -3.43311 -0.483603 0
M  V30 15520 C 1449.24 -4.27153 0.428825 0
M  V30 15521 C 1448.48 -5.32676 -0.330383 0
M  V30 15522 O 1448.7 -5.48665 -1.55957 0
M  V30 15523 O 1447.63 -6.01116 0.307174 0
M  V30 15524 H 1451.46 -2.81234 1.14636 0
M  V30 15525 H 1449.05 -1.35734 0.624239 0
M  V30 15526 H 1450.93 -4.10877 -0.935831 0
M  V30 15527 H 1449.6 -2.9675 -1.2931 0
M  V30 15528 H 1448.51 -3.62372 0.929366 0
M  V30 15529 H 1449.84 -4.77255 1.20368 0
M  V30 15530 N 1451.49 -0.619688 -1.44906 0
M  V30 15531 C 1452.44 0.0920359 -2.30616 0
M  V30 15532 C 1453.41 0.848114 -1.42815 0
M  V30 15533 O 1454.6 0.831439 -1.71732 0
M  V30 15534 C 1451.74 1.07537 -3.27917 0
M  V30 15535 C 1450.85 0.318904 -4.30821 0
M  V30 15536 C 1449.98 1.29303 -5.15222 0
M  V30 15537 C 1449.02 0.525071 -6.09844 0
M  V30 15538 N 1448.16 1.44909 -6.86983 0
M  V30 15539 H 1453 -0.644834 -2.9094 0
M  V30 15540 H 1450.54 -0.329785 -1.43356 0
M  V30 15541 H 1452.5 1.65874 -3.82808 0
M  V30 15542 H 1451.13 1.7795 -2.6932 0
M  V30 15543 H 1450.18 -0.380192 -3.78495 0
M  V30 15544 H 1451.49 -0.279742 -4.98015 0
M  V30 15545 H 1450.64 1.94809 -5.74573 0
M  V30 15546 H 1449.38 1.92561 -4.48076 0
M  V30 15547 H 1448.39 -0.14355 -5.49613 0
M  V30 15548 H 1449.61 -0.102625 -6.79022 0
M  V30 15549 H 1447.56 2.06908 -6.22515 0
M  V30 15550 H 1447.48 0.90418 -7.50574 0
M  V30 15551 H 1448.74 2.09335 -7.50866 0
M  V30 15552 N 1452.97 1.53444 -0.359552 0
M  V30 15553 C 1454.25 1.93467 0.288106 0
M  V30 15554 C 1454.63 1.29256 1.66901 0
M  V30 15555 O 1453.98 0.449402 2.24037 0
M  V30 15556 C 1454.19 3.47297 0.344359 0
M  V30 15557 C 1455.54 4.20515 0.587585 0
M  V30 15558 O 1456.56 3.53646 0.425818 0
M  V30 15559 O 1455.42 5.39003 0.902119 0
M  V30 15560 H 1452.51 0.809033 0.171451 0
M  V30 15561 H 1455.06 1.64625 -0.411896 0
M  V30 15562 H 1453.83 3.86292 -0.624064 0
M  V30 15563 H 1453.45 3.82353 1.0905 0
M  V30 15564 N 1454.45 0.0885642 1.57351 0
M  V30 15565 C 1455.4 -0.890284 2.14888 0
M  V30 15566 C 1456.39 -1.29671 1.09004 0
M  V30 15567 O 1457.6 -1.272 1.27359 0
M  V30 15568 H 1453.97 -0.305107 0.687324 0
M  V30 15569 H 1455.94 -0.380243 2.95967 0
M  V30 15570 C 1454.69 -2.14216 2.73874 0
M  V30 15571 H 1454.02 -1.8383 3.55031 0
M  V30 15572 H 1455.46 -2.8078 3.17708 0
M  V30 15573 C 1453.92 -2.91186 1.69448 0
M  V30 15574 O 1454.45 -3.85494 1.12949 0
M  V30 15575 N 1452.65 -2.54603 1.40091 0
M  V30 15576 H 1452.2 -1.77984 1.86225 0
M  V30 15577 H 1452.16 -3.06403 0.704577 0
M  V30 15578 N 1455.93 -1.56509 -0.185096 0
M  V30 15579 C 1456.88 -1.96237 -1.24875 0
M  V30 15580 C 1457.87 -0.849169 -1.46579 0
M  V30 15581 O 1459.08 -1.03422 -1.47322 0
M  V30 15582 H 1455.45 -0.624147 -0.419457 0
M  V30 15583 H 1457.42 -2.8492 -0.88673 0
M  V30 15584 C 1456.17 -2.32667 -2.58382 0
M  V30 15585 H 1455.49 -3.17858 -2.425 0
M  V30 15586 H 1456.93 -2.6432 -3.31528 0
M  V30 15587 C 1455.39 -1.16496 -3.16118 0
M  V30 15588 O 1455.92 -0.445283 -3.99224 0
M  V30 15589 N 1454.13 -0.939133 -2.75007 0
M  V30 15590 H 1453.68 -1.52611 -2.07527 0
M  V30 15591 H 1453.63 -0.163659 -3.13974 0
M  V30 15592 N 1457.41 0.45317 -1.50944 0
M  V30 15593 C 1458.63 1.23136 -1.6689 0
M  V30 15594 C 1459.06 1.84639 -0.359185 0
M  V30 15595 O 1458.41 1.68106 0.678983 0
M  V30 15596 C 1458.46 2.30275 -2.77499 0
M  V30 15597 O 1457.57 3.35371 -2.39999 0
M  V30 15598 H 1456.91 0.361475 -0.556984 0
M  V30 15599 H 1459.44 0.537174 -1.97422 0
M  V30 15600 H 1459.45 2.75309 -3.01113 0
M  V30 15601 H 1458.12 1.84885 -3.72546 0
M  V30 15602 H 1456.7 2.95924 -2.26899 0
M  V30 15603 N 1458.88 1.40823 0.707568 0
M  V30 15604 C 1460.12 1.40992 1.47989 0
M  V30 15605 C 1460.49 0.0138056 1.91995 0
M  V30 15606 O 1461.69 -0.109666 2.68576 0
M  V30 15607 C 1459.96 2.37857 2.66756 0
M  V30 15608 S 1461.52 2.56453 3.56058 0
M  V30 15609 H 1458.34 0.499622 0.505864 0
M  V30 15610 H 1460.94 1.77161 0.826703 0
M  V30 15611 H 1459.64 3.38113 2.32611 0
M  V30 15612 H 1459.17 2.03 3.36979 0
M  V30 15613 H 1461.19 1.82294 4.61501 0
M  V30 15614 N 1460.36 -0.94061 1.26453 0
M  V30 15615 C 1461.29 -2.04322 1.03852 0
M  V30 15616 C 1462.31 -1.628 -0.00122618 0
M  V30 15617 O 1463.5 -1.76894 0.238911 0
M  V30 15618 C 1460.6 -3.34394 0.550789 0
M  V30 15619 C 1459.77 -4.0468 1.6599 0
M  V30 15620 C 1458.83 -5.13025 1.17012 0
M  V30 15621 O 1457.85 -5.37699 1.8673 0
M  V30 15622 N 1459.06 -5.80497 0.0188478 0
M  V30 15623 H 1461.82 -2.24276 1.98797 0
M  V30 15624 H 1459.38 -1.11013 1.17846 0
M  V30 15625 H 1461.37 -4.04169 0.207305 0
M  V30 15626 H 1459.94 -3.11108 -0.30509 0
M  V30 15627 H 1459.16 -3.28813 2.17429 0
M  V30 15628 H 1460.45 -4.48392 2.40463 0
M  V30 15629 H 1459.85 -5.62888 -0.563368 0
M  V30 15630 H 1458.41 -6.51259 -0.265556 0
M  V30 15631 N 1461.84 -1.08266 -1.14527 0
M  V30 15632 C 1462.79 -0.711332 -2.19565 0
M  V30 15633 C 1463.76 0.301774 -1.63336 0
M  V30 15634 O 1464.94 0.186109 -1.8989 0
M  V30 15635 C 1462.08 -0.125255 -3.44873 0
M  V30 15636 C 1461.2 -1.19096 -4.15259 0
M  V30 15637 C 1460.33 -0.568901 -5.28145 0
M  V30 15638 C 1459.37 -1.61675 -5.90362 0
M  V30 15639 N 1458.51 -1.01659 -6.94701 0
M  V30 15640 H 1463.35 -1.61137 -2.50677 0
M  V30 15641 H 1460.88 -0.805286 -1.231 0
M  V30 15642 H 1462.84 0.232247 -4.16553 0
M  V30 15643 H 1461.47 0.738101 -3.14248 0
M  V30 15644 H 1460.52 -1.66591 -3.41982 0
M  V30 15645 H 1461.84 -1.98508 -4.57598 0
M  V30 15646 H 1460.99 -0.159563 -6.0649 0
M  V30 15647 H 1459.73 0.256884 -4.87023 0
M  V30 15648 H 1458.73 -2.03576 -5.10722 0
M  V30 15649 H 1459.96 -2.44498 -6.33559 0
M  V30 15650 H 1457.9 -0.211872 -6.55658 0
M  V30 15651 H 1457.82 -1.74781 -7.35518 0
M  V30 15652 H 1459.09 -0.63306 -7.76925 0
M  V30 15653 N 1463.32 1.31536 -0.86811 0
M  V30 15654 C 1464.25 2.2663 -0.2672 0
M  V30 15655 C 1465.23 1.51023 0.602574 0
M  V30 15656 O 1466.41 1.80101 0.556408 0
M  V30 15657 C 1463.54 3.32943 0.62183 0
M  V30 15658 C 1462.59 4.26135 -0.176348 0
M  V30 15659 S 1463.42 5.12467 -1.55363 0
M  V30 15660 C 1464.58 6.22296 -0.670673 0
M  V30 15661 H 1464.81 2.7725 -1.07331 0
M  V30 15662 H 1462.34 1.39273 -0.666521 0
M  V30 15663 H 1464.3 3.94667 1.12908 0
M  V30 15664 H 1462.96 2.81081 1.40187 0
M  V30 15665 H 1462.15 5.015 0.501358 0
M  V30 15666 H 1461.76 3.68898 -0.61563 0
M  V30 15667 H 1464.05 6.77395 0.119508 0
M  V30 15668 H 1464.99 6.94215 -1.39539 0
M  V30 15669 H 1465.4 5.63994 -0.239048 0
M  V30 15670 N 1464.8 0.627364 1.44575 0
M  V30 15671 C 1465.76 -0.0700881 2.29093 0
M  V30 15672 C 1466.76 -0.775969 1.40838 0
M  V30 15673 O 1467.95 -0.621129 1.6275 0
M  V30 15674 C 1465.08 -1.10977 3.2233 0
M  V30 15675 H 1466.28 0.673234 2.92246 0
M  V30 15676 H 1463.83 0.387322 1.51425 0
M  V30 15677 H 1464.56 -1.8832 2.64019 0
M  V30 15678 H 1464.35 -0.607587 3.87364 0
M  V30 15679 H 1465.84 -1.59764 3.8583 0
M  V30 15680 N 1466.28 -1.53251 0.367684 0
M  V30 15681 C 1467.22 -2.27318 -0.4929 0
M  V30 15682 C 1468.22 -1.30376 -1.08159 0
M  V30 15683 O 1469.42 -1.47996 -1.02455 0
M  V30 15684 H 1465.8 -0.730709 -0.177677 0
M  V30 15685 H 1467.77 -2.98005 0.153525 0
M  V30 15686 C 1466.52 -3.07678 -1.61955 0
M  V30 15687 H 1465.84 -3.82117 -1.17587 0
M  V30 15688 H 1467.28 -3.62678 -2.19638 0
M  V30 15689 C 1465.74 -2.18648 -2.5631 0
M  V30 15690 O 1466.27 -1.79869 -3.5918 0
M  V30 15691 N 1464.48 -1.83239 -2.25548 0
M  V30 15692 H 1464.02 -2.14973 -1.4193 0
M  V30 15693 H 1463.98 -1.23957 -2.88933 0
M  V30 15694 N 1467.75 -0.0969077 -1.57302 0
M  V30 15695 C 1468.66 0.875561 -2.17649 0
M  V30 15696 C 1469.68 1.30892 -1.14645 0
M  V30 15697 O 1470.86 1.37646 -1.47022 0
M  V30 15698 C 1467.92 2.116 -2.74639 0
M  V30 15699 C 1466.98 1.73667 -3.92604 0
M  V30 15700 C 1466.21 2.91798 -4.46867 0
M  V30 15701 O 1466.44 4.06577 -4.00064 0
M  V30 15702 O 1465.37 2.70159 -5.37864 0
M  V30 15703 H 1469.2 0.392107 -3.01158 0
M  V30 15704 H 1466.78 0.127539 -1.48855 0
M  V30 15705 H 1468.66 2.84292 -3.11057 0
M  V30 15706 H 1467.34 2.58994 -1.94174 0
M  V30 15707 H 1466.25 0.981505 -3.60995 0
M  V30 15708 H 1467.58 1.31035 -4.74437 0
M  V30 15709 N 1469.23 1.56605 0.176793 0
M  V30 15710 C 1470.46 1.85812 0.910019 0
M  V30 15711 C 1470.87 0.68164 1.76066 0
M  V30 15712 O 1470.23 -0.34936 1.79125 0
M  V30 15713 C 1470.28 3.14001 1.79125 0
M  V30 15714 O 1470 4.27114 0.974931 0
M  V30 15715 C 1471.5 3.56516 2.6346 0
M  V30 15716 H 1468.72 0.616608 0.264643 0
M  V30 15717 H 1471.27 2.03719 0.178537 0
M  V30 15718 H 1469.42 2.97937 2.47613 0
M  V30 15719 H 1469.84 5.00227 1.57711 0
M  V30 15720 H 1471.31 4.49128 3.20918 0
M  V30 15721 H 1471.79 2.80373 3.38065 0
M  V30 15722 H 1472.39 3.75173 2.00313 0
M  V30 15723 N 1470.71 -0.445159 1.51182 0
M  V30 15724 C 1471.99 -1.20598 1.53998 0
M  V30 15725 C 1472.37 -2.08962 0.29967 0
M  V30 15726 O 1471.71 -2.17003 -0.715666 0
M  V30 15727 C 1471.92 -2.01461 2.84982 0
M  V30 15728 C 1473.27 -2.5877 3.36635 0
M  V30 15729 O 1474.3 -2.11679 2.86479 0
M  V30 15730 O 1473.16 -3.44637 4.24132 0
M  V30 15731 H 1470.25 -0.548635 0.618812 0
M  V30 15732 H 1472.8 -0.454865 1.6349 0
M  V30 15733 H 1471.57 -1.36511 3.66716 0
M  V30 15734 H 1471.19 -2.83654 2.78615 0
M  V30 15735 N 1472.19 -1.41197 -0.700089 0
M  V30 15736 C 1473.6 -1.3593 -1.27985 0
M  V30 15737 C 1473.95 -0.0402059 -1.96159 0
M  V30 15738 O 1473.07 0.861611 -1.98508 0
M  V30 15739 C 1473.67 -2.46203 -2.32743 0
M  V30 15740 C 1472.23 -2.44348 -2.86306 0
M  V30 15741 C 1471.38 -2.26283 -1.60285 0
M  V30 15742 H 1474.33 -1.50778 -0.495152 0
M  V30 15743 H 1474.35 -2.15001 -3.13934 0
M  V30 15744 H 1473.86 -3.42195 -1.83096 0
M  V30 15745 H 1471.96 -1.521 -3.40142 0
M  V30 15746 H 1472.07 -3.40497 -3.37044 0
M  V30 15747 H 1470.44 -1.74078 -1.85928 0
M  V30 15748 H 1471.22 -3.24295 -1.1264 0
M  V30 15749 N 1473.67 0.933891 -1.2695 0
M  V30 15750 C 1474.58 2.06713 -1.10936 0
M  V30 15751 C 1475.59 1.73952 -0.0409734 0
M  V30 15752 O 1476.77 1.9989 -0.246199 0
M  V30 15753 C 1473.83 3.38453 -0.751696 0
M  V30 15754 C 1472.89 3.84951 -1.90029 0
M  V30 15755 C 1472.13 5.10404 -1.55959 0
M  V30 15756 O 1472.35 5.68504 -0.464646 0
M  V30 15757 O 1471.28 5.52123 -2.39675 0
M  V30 15758 H 1475.11 2.23133 -2.06023 0
M  V30 15759 H 1472.69 1.05202 -1.06079 0
M  V30 15760 H 1474.58 4.17591 -0.565285 0
M  V30 15761 H 1473.25 3.23255 0.169703 0
M  V30 15762 H 1472.16 3.06727 -2.14172 0
M  V30 15763 H 1473.49 4.04681 -2.80167 0
M  V30 15764 N 1475.14 1.08871 1.13951 0
M  V30 15765 C 1476.09 0.71755 2.21255 0
M  V30 15766 C 1477.09 -0.278901 1.67088 0
M  V30 15767 O 1478.29 -0.140964 1.79447 0
M  V30 15768 H 1474.67 0.214032 0.720898 0
M  V30 15769 H 1476.64 1.63182 2.49828 0
M  V30 15770 C 1475.39 0.148098 3.47384 0
M  V30 15771 H 1474.71 0.906028 3.89398 0
M  V30 15772 H 1476.15 -0.0737451 4.23936 0
M  V30 15773 C 1474.61 -1.11524 3.17906 0
M  V30 15774 O 1475.14 -2.19937 3.3614 0
M  V30 15775 N 1473.34 -1.0275 2.71829 0
M  V30 15776 H 1472.89 -0.145193 2.5719 0
M  V30 15777 H 1472.85 -1.87353 2.5248 0
M  V30 15778 N 1476.62 -1.31073 0.875073 0
M  V30 15779 C 1477.55 -2.30855 0.350468 0
M  V30 15780 C 1478.53 -1.60569 -0.561384 0
M  V30 15781 O 1479.72 -1.88242 -0.477329 0
M  V30 15782 C 1476.85 -3.44444 -0.444493 0
M  V30 15783 C 1475.8 -4.26357 0.374716 0
M  V30 15784 C 1475.13 -5.31903 -0.546243 0
M  V30 15785 C 1476.43 -4.96817 1.61153 0
M  V30 15786 H 1478.12 -2.74983 1.18427 0
M  V30 15787 H 1475.67 -1.32199 0.570909 0
M  V30 15788 H 1477.62 -4.13304 -0.82206 0
M  V30 15789 H 1476.34 -2.99096 -1.31185 0
M  V30 15790 H 1475 -3.59171 0.734295 0
M  V30 15791 H 1474.65 -4.82803 -1.41102 0
M  V30 15792 H 1474.35 -5.876 -0.00198173 0
M  V30 15793 H 1475.88 -6.03621 -0.920542 0
M  V30 15794 H 1477.29 -5.58247 1.30511 0
M  V30 15795 H 1475.69 -5.62334 2.09524 0
M  V30 15796 H 1476.76 -4.2351 2.36151 0
M  V30 15797 N 1478.1 -0.635022 -1.4424 0
M  V30 15798 C 1479.05 0.0797218 -2.32463 0
M  V30 15799 C 1480.04 0.831818 -1.47571 0
M  V30 15800 O 1481.25 0.744277 -1.63892 0
M  V30 15801 H 1477.62 0.0445532 -0.750679 0
M  V30 15802 H 1479.59 -0.682374 -2.90493 0
M  V30 15803 C 1478.34 1.04505 -3.31623 0
M  V30 15804 H 1477.67 0.475755 -3.96959 0
M  V30 15805 H 1479.11 1.51458 -3.96026 0
M  V30 15806 C 1477.57 2.13221 -2.60842 0
M  V30 15807 O 1478.1 3.21357 -2.41025 0
M  V30 15808 N 1476.3 1.89264 -2.20516 0
M  V30 15809 H 1475.85 1.01329 -2.36834 0
M  V30 15810 H 1475.81 2.62203 -1.73484 0
M  V30 15811 N 1479.58 1.53054 -0.375806 0
M  V30 15812 C 1480.51 2.28973 0.45754 0
M  V30 15813 C 1481.49 1.31812 1.07516 0
M  V30 15814 O 1482.67 1.60693 1.09048 0
M  V30 15815 C 1479.8 3.08657 1.59212 0
M  V30 15816 C 1478.76 4.1359 1.10123 0
M  V30 15817 C 1478.08 4.81417 2.32684 0
M  V30 15818 C 1479.38 5.21994 0.17872 0
M  V30 15819 H 1481.08 2.98883 -0.175872 0
M  V30 15820 H 1478.62 1.43743 -0.0860253 0
M  V30 15821 H 1480.58 3.6052 2.18182 0
M  V30 15822 H 1479.3 2.36456 2.25291 0
M  V30 15823 H 1477.96 3.62688 0.534151 0
M  V30 15824 H 1477.61 4.05778 2.97243 0
M  V30 15825 H 1477.31 5.52332 2.00506 0
M  V30 15826 H 1478.83 5.36079 2.92322 0
M  V30 15827 H 1480.25 5.69298 0.676204 0
M  V30 15828 H 1478.64 6.00077 -0.0526605 0
M  V30 15829 H 1479.71 4.78646 -0.776246 0
M  V30 15830 N 1481.06 0.105248 1.57248 0
M  V30 15831 C 1482.3 -0.556878 1.95004 0
M  V30 15832 C 1482.64 -1.672 0.987818 0
M  V30 15833 O 1481.91 -1.94487 0.022616 0
M  V30 15834 C 1482.19 -1.10252 3.42807 0
M  V30 15835 C 1482.05 0.00823908 4.49799 0
M  V30 15836 C 1483.37 -1.99774 3.92146 0
M  V30 15837 H 1480.48 -0.200959 0.709073 0
M  V30 15838 H 1483.13 0.178019 1.89164 0
M  V30 15839 H 1481.28 -1.7288 3.47915 0
M  V30 15840 H 1482.95 0.642944 4.56797 0
M  V30 15841 H 1481.19 0.673265 4.28544 0
M  V30 15842 H 1481.86 -0.414538 5.50441 0
M  V30 15843 H 1484.34 -1.47036 3.89255 0
M  V30 15844 H 1483.21 -2.34874 4.9611 0
M  V30 15845 H 1483.48 -2.91902 3.32033 0
M  V30 15846 N 1482.53 -1.56697 -0.168486 0
M  V30 15847 C 1483.46 -1.99659 -1.21073 0
M  V30 15848 C 1484.45 -0.872625 -1.46011 0
M  V30 15849 O 1485.63 -1.13891 -1.57297 0
M  V30 15850 C 1482.76 -2.35889 -2.54899 0
M  V30 15851 C 1481.71 -3.51272 -2.44524 0
M  V30 15852 C 1481.04 -3.73253 -3.82866 0
M  V30 15853 C 1482.34 -4.84631 -1.94756 0
M  V30 15854 H 1484.03 -2.86974 -0.853593 0
M  V30 15855 H 1481.58 -1.38065 -0.409165 0
M  V30 15856 H 1483.53 -2.64542 -3.28017 0
M  V30 15857 H 1482.26 -1.45486 -2.92406 0
M  V30 15858 H 1480.92 -3.22751 -1.7386 0
M  V30 15859 H 1480.56 -2.80136 -4.17772 0
M  V30 15860 H 1480.26 -4.5089 -3.76792 0
M  V30 15861 H 1481.79 -4.04309 -4.57566 0
M  V30 15862 H 1483.2 -5.12142 -2.5765 0
M  V30 15863 H 1481.6 -5.65925 -1.99623 0
M  V30 15864 H 1482.67 -4.76436 -0.902021 0
M  V30 15865 N 1484.01 0.437135 -1.51416 0
M  V30 15866 C 1485.43 0.773631 -1.39596 0
M  V30 15867 C 1485.63 1.95737 -0.478463 0
M  V30 15868 O 1484.68 2.52413 0.0662971 0
M  V30 15869 C 1486 1.05381 -2.8163 0
M  V30 15870 C 1487.55 1.15824 -2.90782 0
M  V30 15871 C 1488.02 1.47135 -4.33722 0
M  V30 15872 N 1489.51 1.54059 -4.3683 0
M  V30 15873 C 1490.25 1.79858 -5.44462 0
M  V30 15874 N 1489.74 2.03449 -6.62254 0
M  V30 15875 N 1491.54 1.81642 -5.31942 0
M  V30 15876 H 1483.69 -0.342468 -2.09621 0
M  V30 15877 H 1485.95 -0.0908158 -0.94364 0
M  V30 15878 H 1485.66 0.256708 -3.50762 0
M  V30 15879 H 1485.53 1.98139 -3.20968 0
M  V30 15880 H 1487.92 1.94597 -2.21847 0
M  V30 15881 H 1488 0.209663 -2.54939 0
M  V30 15882 H 1487.64 0.688897 -5.03206 0
M  V30 15883 H 1487.57 2.43199 -4.67078 0
M  V30 15884 H 1490.06 1.3773 -3.51907 0
M  V30 15885 H 1490.38 2.22506 -7.40075 0
M  V30 15886 H 1488.72 2.00771 -6.65369 0
M  V30 15887 H 1491.91 1.62731 -4.38903 0
M  V30 15888 H 1492.08 2.01411 -6.15904 0
M  V30 15889 N 1485.49 1.41566 0.692592 0
M  V30 15890 C 1486.74 1.42293 1.45342 0
M  V30 15891 C 1487.09 0.032316 1.92373 0
M  V30 15892 O 1486.38 -0.942367 1.66823 0
M  V30 15893 C 1486.58 2.36683 2.67799 0
M  V30 15894 C 1486.41 3.84784 2.32748 0
M  V30 15895 C 1485.18 4.53446 2.22967 0
M  V30 15896 C 1487.38 4.75681 1.95531 0
M  V30 15897 N 1485.36 5.86662 1.80833 0
M  V30 15898 C 1486.73 5.97868 1.64178 0
M  V30 15899 C 1488.78 4.633 1.82367 0
M  V30 15900 C 1487.49 7.09053 1.20983 0
M  V30 15901 C 1489.51 5.74449 1.40577 0
M  V30 15902 C 1488.87 6.95737 1.10137 0
M  V30 15903 H 1484.97 0.575898 0.529023 0
M  V30 15904 H 1487.56 1.77459 0.801013 0
M  V30 15905 H 1485.73 2.03606 3.30755 0
M  V30 15906 H 1487.46 2.28109 3.34288 0
M  V30 15907 H 1484.22 4.07423 2.4146 0
M  V30 15908 H 1484.64 6.57273 1.62239 0
M  V30 15909 H 1489.28 3.70024 2.04554 0
M  V30 15910 H 1487 8.02192 0.975411 0
M  V30 15911 H 1490.59 5.66875 1.30937 0
M  V30 15912 H 1489.47 7.80282 0.782888 0
M  V30 15913 N 1486.97 -0.927146 1.27443 0
M  V30 15914 C 1488.38 -1.20319 1.0486 0
M  V30 15915 C 1488.58 -2.00323 -0.217491 0
M  V30 15916 O 1487.64 -2.35032 -0.922833 0
M  V30 15917 C 1488.95 -1.9508 2.28833 0
M  V30 15918 C 1490.5 -2.08016 2.33877 0
M  V30 15919 C 1490.98 -2.86183 3.5758 0
M  V30 15920 N 1492.47 -2.93751 3.58141 0
M  V30 15921 C 1493.2 -3.54698 4.5053 0
M  V30 15922 N 1492.7 -4.17032 5.53223 0
M  V30 15923 N 1494.49 -3.52107 4.38152 0
M  V30 15924 H 1486.64 -0.392671 2.08739 0
M  V30 15925 H 1488.91 -0.236323 0.918072 0
M  V30 15926 H 1488.61 -1.43712 3.20998 0
M  V30 15927 H 1488.49 -2.95692 2.34193 0
M  V30 15928 H 1490.87 -2.5857 1.42217 0
M  V30 15929 H 1490.95 -1.06622 2.3252 0
M  V30 15930 H 1490.6 -2.36312 4.49576 0
M  V30 15931 H 1490.53 -3.87863 3.56188 0
M  V30 15932 H 1493.02 -2.49449 2.83872 0
M  V30 15933 H 1493.33 -4.61477 6.19886 0
M  V30 15934 H 1491.68 -4.15576 5.57065 0
M  V30 15935 H 1494.87 -3.02611 3.57134 0
M  V30 15936 H 1495.04 -3.99315 5.10344 0
M  V30 15937 N 1488.45 -1.09474 -1.13372 0
M  V30 15938 C 1489.69 -0.82945 -1.84295 0
M  V30 15939 C 1490.02 0.646788 -1.83961 0
M  V30 15940 O 1489.29 1.46929 -1.29572 0
M  V30 15941 H 1487.87 -0.303853 -0.682409 0
M  V30 15942 H 1490.53 -1.38298 -1.3733 0
M  V30 15943 H 1489.62 -1.18342 -2.88793 0
M  V30 15944 N 1489.92 1.30607 -0.882012 0
M  V30 15945 C 1491.15 2.00954 -0.513048 0
M  V30 15946 C 1491.57 1.65697 0.890279 0
M  V30 15947 O 1490.93 0.872001 1.58952 0
M  V30 15948 C 1490.98 3.53907 -0.691525 0
M  V30 15949 O 1490.08 4.11555 0.263896 0
M  V30 15950 H 1489.43 0.632356 -0.202537 0
M  V30 15951 H 1491.96 1.66524 -1.18874 0
M  V30 15952 H 1491.97 4.0372 -0.589392 0
M  V30 15953 H 1490.64 3.78907 -1.71471 0
M  V30 15954 H 1489.22 3.7272 0.115707 0
M  V30 15955 N 1491.4 0.642663 1.43901 0
M  V30 15956 C 1492.63 0.159202 2.06287 0
M  V30 15957 C 1493.05 -1.17091 1.48105 0
M  V30 15958 O 1492.4 -1.72064 0.608302 0
M  V30 15959 C 1492.45 0.0506891 3.61464 0
M  V30 15960 O 1492.17 1.32821 4.17481 0
M  V30 15961 C 1493.68 -0.460103 4.40906 0
M  V30 15962 H 1490.9 0.085003 0.665594 0
M  V30 15963 H 1493.44 0.880328 1.84582 0
M  V30 15964 H 1491.59 -0.620938 3.82391 0
M  V30 15965 H 1492.01 1.18053 5.11042 0
M  V30 15966 H 1493.48 -0.48501 5.49865 0
M  V30 15967 H 1493.96 -1.4894 4.13175 0
M  V30 15968 H 1494.57 0.178668 4.24925 0
M  V30 15969 N 1492.88 -1.52852 0.383918 0
M  V30 15970 C 1494.29 -1.86477 -0.0912997 0
M  V30 15971 C 1494.64 -1.30382 -1.46611 0
M  V30 15972 O 1493.77 -0.633042 -2.06934 0
M  V30 15973 C 1494.36 -3.38361 -0.172447 0
M  V30 15974 C 1492.92 -3.71716 -0.591948 0
M  V30 15975 C 1492.07 -2.76176 0.24945 0
M  V30 15976 H 1495.02 -1.46839 0.602006 0
M  V30 15977 H 1495.04 -3.67325 -0.992603 0
M  V30 15978 H 1494.55 -3.79158 0.8283 0
M  V30 15979 H 1492.65 -3.36486 -1.60026 0
M  V30 15980 H 1492.77 -4.77792 -0.353835 0
M  V30 15981 H 1491.13 -2.53106 -0.284469 0
M  V30 15982 H 1491.91 -3.19809 1.24808 0
M  V30 15983 N 1494.36 -0.113586 -1.5719 0
M  V30 15984 C 1495.31 0.83862 -2.15025 0
M  V30 15985 C 1496.28 1.26726 -1.07376 0
M  V30 15986 O 1497.46 1.34574 -1.35257 0
M  V30 15987 C 1494.6 2.08538 -2.74965 0
M  V30 15988 C 1493.71 1.70559 -3.96905 0
M  V30 15989 C 1492.85 2.90161 -4.44949 0
M  V30 15990 C 1491.89 2.48396 -5.59433 0
M  V30 15991 N 1491.03 3.60894 -6.02246 0
M  V30 15992 H 1495.87 0.338585 -2.9607 0
M  V30 15993 H 1493.4 0.155437 -1.46276 0
M  V30 15994 H 1495.36 2.81579 -3.07846 0
M  V30 15995 H 1493.99 2.56009 -1.96619 0
M  V30 15996 H 1493.04 0.874133 -3.7022 0
M  V30 15997 H 1494.35 1.35863 -4.7994 0
M  V30 15998 H 1493.51 3.71434 -4.7971 0
M  V30 15999 H 1492.25 3.28081 -3.60852 0
M  V30 16000 H 1491.25 1.65555 -5.24282 0
M  V30 16001 H 1492.48 2.116 -6.45292 0
M  V30 16002 H 1490.42 3.98497 -5.21091 0
M  V30 16003 H 1490.34 3.30103 -6.80124 0
M  V30 16004 H 1491.61 4.42622 -6.41643 0
M  V30 16005 N 1495.84 1.56784 0.160173 0
M  V30 16006 C 1496.75 2.00514 1.21783 0
M  V30 16007 C 1497.76 0.918341 1.47792 0
M  V30 16008 O 1498.94 1.22683 1.59721 0
M  V30 16009 C 1496 2.36575 2.53443 0
M  V30 16010 C 1495.07 3.59138 2.35198 0
M  V30 16011 C 1494.3 3.93469 3.6058 0
M  V30 16012 O 1494.52 3.28625 4.6622 0
M  V30 16013 O 1493.46 4.86774 3.54027 0
M  V30 16014 H 1497.28 2.90774 0.876607 0
M  V30 16015 H 1494.87 1.44799 0.367897 0
M  V30 16016 H 1496.75 2.60687 3.31089 0
M  V30 16017 H 1495.42 1.49474 2.87122 0
M  V30 16018 H 1494.33 3.4023 1.55546 0
M  V30 16019 H 1495.66 4.46815 2.0644 0
M  V30 16020 N 1497.32 -0.429099 1.51646 0
M  V30 16021 C 1498.25 -1.54168 1.68249 0
M  V30 16022 C 1499.23 -1.53718 0.530037 0
M  V30 16023 O 1500.41 -1.72723 0.754911 0
M  V30 16024 C 1497.54 -2.92738 1.7036 0
M  V30 16025 C 1496.58 -3.11179 2.91668 0
M  V30 16026 S 1497.42 -2.86603 4.52348 0
M  V30 16027 C 1498.57 -4.2744 4.57216 0
M  V30 16028 H 1498.81 -1.39852 2.62352 0
M  V30 16029 H 1496.34 -0.619348 1.41434 0
M  V30 16030 H 1498.3 -3.72608 1.7226 0
M  V30 16031 H 1496.96 -3.0441 0.774186 0
M  V30 16032 H 1496.15 -4.12512 2.89569 0
M  V30 16033 H 1495.75 -2.39146 2.87551 0
M  V30 16034 H 1498.04 -5.20771 4.33363 0
M  V30 16035 H 1498.99 -4.34569 5.59067 0
M  V30 16036 H 1499.4 -4.11479 3.86452 0
M  V30 16037 N 1498.79 -1.41931 -0.685074 0
M  V30 16038 C 1500.04 -1.41571 -1.44229 0
M  V30 16039 C 1500.36 -0.0294445 -1.94978 0
M  V30 16040 O 1499.63 0.930414 -1.72395 0
M  V30 16041 H 1498.21 -0.521138 -0.535186 0
M  V30 16042 H 1500.87 -1.77263 -0.81017 0
M  V30 16043 H 1499.97 -2.10929 -2.30034 0
M  V30 16044 N 1500.27 0.920374 -1.27933 0
M  V30 16045 C 1501.69 1.19761 -1.05496 0
M  V30 16046 C 1501.89 2.00435 0.206864 0
M  V30 16047 O 1500.94 2.35518 0.910356 0
M  V30 16048 C 1502.26 1.93863 -2.29864 0
M  V30 16049 C 1503.8 2.06773 -2.34976 0
M  V30 16050 C 1504.28 2.84282 -3.59093 0
M  V30 16051 N 1505.77 2.91847 -3.59694 0
M  V30 16052 C 1506.51 3.52303 -4.52404 0
M  V30 16053 N 1506 4.14092 -5.55427 0
M  V30 16054 N 1507.79 3.49778 -4.40013 0
M  V30 16055 H 1499.95 0.381596 -2.08944 0
M  V30 16056 H 1502.21 0.231451 -0.919312 0
M  V30 16057 H 1501.91 1.42008 -3.21756 0
M  V30 16058 H 1501.79 2.94446 -2.35757 0
M  V30 16059 H 1504.18 2.57812 -1.43586 0
M  V30 16060 H 1504.26 1.05388 -2.33082 0
M  V30 16061 H 1503.9 2.33925 -4.50823 0
M  V30 16062 H 1503.83 3.85968 -3.5824 0
M  V30 16063 H 1506.32 2.4794 -2.85191 0
M  V30 16064 H 1506.63 4.58183 -6.22325 0
M  V30 16065 H 1504.98 4.12616 -5.59261 0
M  V30 16066 H 1508.17 3.00712 -3.58733 0
M  V30 16067 H 1508.34 3.96603 -5.12455 0
M  V30 16068 N 1501.75 1.10074 1.1279 0
M  V30 16069 C 1502.66 0.758458 2.22001 0
M  V30 16070 C 1503.68 -0.242438 1.72303 0
M  V30 16071 O 1504.85 -0.0821223 2.01233 0
M  V30 16072 C 1501.92 0.191326 3.46172 0
M  V30 16073 C 1500.98 1.24902 4.10729 0
M  V30 16074 C 1500.21 0.708857 5.28972 0
M  V30 16075 O 1500.43 -0.465993 5.68493 0
M  V30 16076 O 1499.37 1.46703 5.83748 0
M  V30 16077 H 1503.19 1.66997 2.53665 0
M  V30 16078 H 1500.78 0.875604 1.21052 0
M  V30 16079 H 1502.66 -0.121292 4.21225 0
M  V30 16080 H 1501.34 -0.693094 3.16193 0
M  V30 16081 H 1500.24 1.61444 3.37471 0
M  V30 16082 H 1501.58 2.10632 4.44854 0
M  V30 16083 N 1503.23 -1.30138 0.888926 0
M  V30 16084 C 1504.46 -2.00143 0.524437 0
M  V30 16085 C 1504.87 -1.66608 -0.888093 0
M  V30 16086 O 1504.23 -0.905326 -1.58462 0
M  V30 16087 C 1504.28 -3.54769 0.694327 0
M  V30 16088 O 1504 -3.87112 2.05125 0
M  V30 16089 C 1505.5 -4.42045 0.333354 0
M  V30 16090 H 1502.72 -0.639775 0.202309 0
M  V30 16091 H 1505.26 -1.65929 1.19531 0
M  V30 16092 H 1503.42 -3.87335 0.0707712 0
M  V30 16093 H 1503.83 -4.81807 2.07275 0
M  V30 16094 H 1505.31 -5.49702 0.503107 0
M  V30 16095 H 1505.78 -4.33109 -0.728893 0
M  V30 16096 H 1506.39 -4.14931 0.933398 0
M  V30 16097 N 1504.71 -0.650285 -1.43559 0
M  V30 16098 C 1505.93 -0.170139 -2.06199 0
M  V30 16099 C 1506.35 1.16304 -1.48724 0
M  V30 16100 O 1505.71 1.71739 -0.617418 0
M  V30 16101 C 1505.76 -0.0698577 -3.61432 0
M  V30 16102 O 1505.48 -1.35033 -4.16771 0
M  V30 16103 C 1506.98 0.436714 -4.41144 0
M  V30 16104 H 1504.2 -0.0885316 -0.665134 0
M  V30 16105 H 1506.74 -0.890104 -1.84112 0
M  V30 16106 H 1504.9 0.60065 -3.82715 0
M  V30 16107 H 1505.31 -1.20762 -5.10409 0
M  V30 16108 H 1506.79 0.455843 -5.50115 0
M  V30 16109 H 1507.26 1.46747 -4.13959 0
M  V30 16110 H 1507.87 -0.201201 -4.24824 0
M  V30 16111 N 1506.18 1.52647 -0.392018 0
M  V30 16112 C 1507.13 2.26532 0.441819 0
M  V30 16113 C 1508.1 1.2825 1.05552 0
M  V30 16114 O 1509.29 1.57083 1.08303 0
M  V30 16115 C 1506.43 3.0774 1.56174 0
M  V30 16116 C 1505.54 4.20955 0.970632 0
M  V30 16117 C 1504.67 4.89553 2.06183 0
M  V30 16118 C 1503.71 5.94756 1.44676 0
M  V30 16119 N 1502.85 6.5694 2.47738 0
M  V30 16120 H 1507.69 2.97363 -0.194699 0
M  V30 16121 H 1505.23 1.46704 -0.107848 0
M  V30 16122 H 1507.18 3.53116 2.22183 0
M  V30 16123 H 1505.81 2.39112 2.16853 0
M  V30 16124 H 1504.87 3.79874 0.200067 0
M  V30 16125 H 1506.18 4.96474 0.481181 0
M  V30 16126 H 1505.33 5.38247 2.79956 0
M  V30 16127 H 1504.07 4.13564 2.58488 0
M  V30 16128 H 1503.08 5.45399 0.694288 0
M  V30 16129 H 1504.3 6.72679 0.931617 0
M  V30 16130 H 1502.25 5.8379 2.99208 0
M  V30 16131 H 1502.16 7.2808 2.03556 0
M  V30 16132 H 1503.43 7.10277 3.21133 0
M  V30 16133 N 1507.66 0.121921 1.57128 0
M  V30 16134 C 1508.91 -0.536164 1.95584 0
M  V30 16135 C 1509.24 -1.66143 1.0055 0
M  V30 16136 O 1508.52 -1.94452 0.0432427 0
M  V30 16137 C 1508.8 -1.0661 3.43957 0
M  V30 16138 C 1508.65 0.0559458 4.49765 0
M  V30 16139 C 1509.97 -1.95603 3.94243 0
M  V30 16140 H 1507.09 -0.193427 0.711165 0
M  V30 16141 H 1509.73 0.198072 1.88965 0
M  V30 16142 H 1507.88 -1.69181 3.49729 0
M  V30 16143 H 1509.55 0.691357 4.5609 0
M  V30 16144 H 1507.8 0.71868 4.27805 0
M  V30 16145 H 1508.47 -0.356133 5.5085 0
M  V30 16146 H 1510.94 -1.42899 3.90793 0
M  V30 16147 H 1509.82 -2.29599 4.98573 0
M  V30 16148 H 1510.08 -2.88364 3.3511 0
M  V30 16149 N 1509.14 -1.56867 -0.151857 0
M  V30 16150 C 1510.09 -1.97899 -1.18763 0
M  V30 16151 C 1511.06 -0.845833 -1.42951 0
M  V30 16152 O 1512.24 -1.10751 -1.55367 0
M  V30 16153 C 1509.38 -2.36063 -2.5173 0
M  V30 16154 C 1508.5 -3.62647 -2.34757 0
M  V30 16155 C 1507.63 -3.89936 -3.60726 0
M  V30 16156 C 1506.67 -5.09806 -3.38769 0
M  V30 16157 N 1505.81 -5.33129 -4.56856 0
M  V30 16158 H 1510.65 -2.86187 -0.830713 0
M  V30 16159 H 1508.18 -1.41592 -0.398745 0
M  V30 16160 H 1510.14 -2.56218 -3.29254 0
M  V30 16161 H 1508.77 -1.50861 -2.85379 0
M  V30 16162 H 1507.82 -3.50297 -1.48312 0
M  V30 16163 H 1509.14 -4.50328 -2.1449 0
M  V30 16164 H 1508.29 -4.10563 -4.4668 0
M  V30 16165 H 1507.03 -3.00668 -3.83993 0
M  V30 16166 H 1506.03 -4.89057 -2.51203 0
M  V30 16167 H 1507.26 -6.00623 -3.16906 0
M  V30 16168 H 1505.2 -4.46815 -4.80305 0
M  V30 16169 H 1505.12 -6.1507 -4.39574 0
M  V30 16170 H 1506.39 -5.5825 -5.44038 0
M  V30 16171 N 1510.62 0.421051 -1.51871 0
M  V30 16172 C 1511.87 1.16611 -1.64574 0
M  V30 16173 C 1512.18 1.91955 -0.375835 0
M  V30 16174 O 1513.39 2.68792 -0.382481 0
M  V30 16175 C 1511.84 2.12164 -2.90714 0
M  V30 16176 C 1511.45 1.42392 -4.24769 0
M  V30 16177 C 1513.19 2.87002 -3.12778 0
M  V30 16178 C 1511.1 2.36523 -5.42043 0
M  V30 16179 H 1510.03 0.438989 -0.613029 0
M  V30 16180 H 1512.68 0.431636 -1.78351 0
M  V30 16181 H 1511.06 2.89114 -2.70608 0
M  V30 16182 H 1512.24 0.708875 -4.55315 0
M  V30 16183 H 1510.55 0.796421 -4.08713 0
M  V30 16184 H 1513.15 3.5755 -3.9757 0
M  V30 16185 H 1513.49 3.49277 -2.2652 0
M  V30 16186 H 1514.03 2.17154 -3.333 0
M  V30 16187 H 1510.77 1.78913 -6.30611 0
M  V30 16188 H 1510.29 3.06034 -5.15852 0
M  V30 16189 H 1511.96 2.97306 -5.74646 0
M  V30 16190 N 1512.1 1.42293 0.677538 0
M  V30 16191 C 1513.03 1.41503 1.80304 0
M  V30 16192 C 1514.04 0.314499 1.59733 0
M  V30 16193 O 1515.23 0.57741 1.68903 0
M  V30 16194 C 1512.33 1.18879 3.17366 0
M  V30 16195 C 1511.5 2.41314 3.6481 0
M  V30 16196 C 1510.56 2.14277 4.80595 0
M  V30 16197 O 1509.59 2.87457 4.91281 0
M  V30 16198 N 1510.79 1.14419 5.69112 0
M  V30 16199 H 1513.56 2.38515 1.81468 0
M  V30 16200 H 1511.12 1.37137 0.860529 0
M  V30 16201 H 1513.11 0.987135 3.92476 0
M  V30 16202 H 1511.68 0.304002 3.11118 0
M  V30 16203 H 1510.9 2.77066 2.80407 0
M  V30 16204 H 1512.19 3.2285 3.9325 0
M  V30 16205 H 1511.58 0.53888 5.63127 0
M  V30 16206 H 1510.14 1.00241 6.44046 0
M  V30 16207 N 1513.57 -0.913576 1.28419 0
M  V30 16208 C 1514.99 -1.192 1.0613 0
M  V30 16209 C 1515.19 -2.00542 -0.196232 0
M  V30 16210 O 1514.25 -2.35998 -0.897853 0
M  V30 16211 C 1515.56 -1.92642 2.30889 0
M  V30 16212 C 1517.11 -2.05524 2.3607 0
M  V30 16213 C 1517.58 -2.82374 3.60595 0
M  V30 16214 N 1519.07 -2.89935 3.61236 0
M  V30 16215 C 1519.81 -3.49899 4.54266 0
M  V30 16216 N 1519.3 -4.11141 5.57615 0
M  V30 16217 N 1521.1 -3.4744 4.41862 0
M  V30 16218 H 1513.25 -0.370509 2.09143 0
M  V30 16219 H 1515.51 -0.226573 0.920526 0
M  V30 16220 H 1515.22 -1.40299 3.22504 0
M  V30 16221 H 1515.09 -2.93191 2.37316 0
M  V30 16222 H 1517.48 -2.57047 1.44951 0
M  V30 16223 H 1517.56 -1.0415 2.33637 0
M  V30 16224 H 1517.2 -2.3153 4.52058 0
M  V30 16225 H 1517.13 -3.84063 3.60282 0
M  V30 16226 H 1519.62 -2.46424 2.86502 0
M  V30 16227 H 1519.94 -4.54877 6.24746 0
M  V30 16228 H 1518.28 -4.09645 5.61441 0
M  V30 16229 H 1521.47 -2.98806 3.60323 0
M  V30 16230 H 1521.65 -3.9388 5.14551 0
M  V30 16231 N 1515.05 -1.1067 -1.12204 0
M  V30 16232 C 1516 -0.726979 -2.161 0
M  V30 16233 C 1516.99 0.26505 -1.58702 0
M  V30 16234 O 1518.18 0.0734052 -1.76848 0
M  V30 16235 C 1515.31 -0.163062 -3.42913 0
M  V30 16236 C 1514.39 -1.18228 -4.07287 0
M  V30 16237 N 1514.78 -2.3738 -4.46637 0
M  V30 16238 C 1513.08 -1.02336 -4.34101 0
M  V30 16239 C 1513.78 -3.02318 -4.9697 0
M  V30 16240 N 1512.76 -2.29826 -4.92627 0
M  V30 16241 H 1516.56 -1.63396 -2.44293 0
M  V30 16242 H 1514.08 -0.984782 -1.29135 0
M  V30 16243 H 1516.07 0.127067 -4.16706 0
M  V30 16244 H 1514.73 0.738611 -3.16188 0
M  V30 16245 H 1515.74 -2.74889 -4.38926 0
M  V30 16246 H 1512.42 -0.177452 -4.17123 0
M  V30 16247 H 1513.81 -4.03685 -5.3711 0
M  V30 16248 N 1516.53 1.29665 -0.895815 0
M  V30 16249 C 1517.76 2.00399 -0.534333 0
M  V30 16250 C 1518.18 1.66632 0.872654 0
M  V30 16251 O 1517.54 0.888811 1.58018 0
M  V30 16252 C 1517.59 3.53154 -0.729023 0
M  V30 16253 O 1516.69 4.11812 0.22023 0
M  V30 16254 H 1516.03 0.630173 -0.209233 0
M  V30 16255 H 1518.56 1.65253 -1.20634 0
M  V30 16256 H 1518.57 4.03073 -0.632179 0
M  V30 16257 H 1517.25 3.77067 -1.75481 0
M  V30 16258 H 1515.82 3.72822 0.0761687 0
M  V30 16259 N 1518.01 0.657889 1.43212 0
M  V30 16260 C 1519.23 0.179444 2.06622 0
M  V30 16261 C 1519.66 -1.14787 1.49015 0
M  V30 16262 O 1519.02 -1.71016 0.60192 0
M  V30 16263 C 1519.06 0.106826 3.60442 0
M  V30 16264 O 1518.17 -0.92962 4.01786 0
M  V30 16265 H 1517.51 0.0970131 0.656875 0
M  V30 16266 H 1520.04 0.902132 1.83638 0
M  V30 16267 H 1520.05 -0.07495 4.07931 0
M  V30 16268 H 1518.72 1.07574 4.01747 0
M  V30 16269 H 1517.3 -0.720255 3.65878 0
M  V30 16270 N 1519.49 -1.52437 0.400108 0
M  V30 16271 C 1520.73 -2.01312 -0.178252 0
M  V30 16272 C 1521.06 -1.28797 -1.46411 0
M  V30 16273 O 1520.33 -0.411211 -1.91536 0
M  V30 16274 H 1518.91 -0.743819 -0.0688613 0
M  V30 16275 H 1521.57 -1.87434 0.53428 0
M  V30 16276 H 1520.66 -3.09768 -0.380793 0
M  V30 16277 N 1520.96 -0.130252 -1.57061 0
M  V30 16278 C 1521.89 0.812189 -2.18919 0
M  V30 16279 C 1522.88 1.2692 -1.13249 0
M  V30 16280 O 1524.06 1.32978 -1.41529 0
M  V30 16281 C 1521.19 2.05803 -2.79754 0
M  V30 16282 C 1520.14 1.73841 -3.91105 0
M  V30 16283 C 1519.47 3.05549 -4.38799 0
M  V30 16284 C 1520.77 0.997991 -5.12677 0
M  V30 16285 H 1522.46 0.296692 -2.97926 0
M  V30 16286 H 1520.01 0.141265 -1.43305 0
M  V30 16287 H 1521.96 2.72201 -3.21691 0
M  V30 16288 H 1520.69 2.59697 -1.98053 0
M  V30 16289 H 1519.35 1.09828 -3.49762 0
M  V30 16290 H 1518.99 3.57399 -3.53942 0
M  V30 16291 H 1518.69 2.84932 -5.13894 0
M  V30 16292 H 1520.22 3.73045 -4.83394 0
M  V30 16293 H 1521.63 1.56372 -5.51562 0
M  V30 16294 H 1520.03 0.892378 -5.93428 0
M  V30 16295 H 1521.1 -0.0132936 -4.84898 0
M  V30 16296 N 1522.44 1.56945 0.143535 0
M  V30 16297 C 1523.86 1.51688 0.496291 0
M  V30 16298 C 1524.06 0.839251 1.83191 0
M  V30 16299 O 1523.12 0.411235 2.49129 0
M  V30 16300 C 1524.43 2.96456 0.503402 0
M  V30 16301 C 1525.98 3.07414 0.588676 0
M  V30 16302 C 1526.45 4.53696 0.626416 0
M  V30 16303 N 1527.94 4.58054 0.688543 0
M  V30 16304 C 1528.68 5.68621 0.738786 0
M  V30 16305 N 1528.17 6.88748 0.748163 0
M  V30 16306 N 1529.97 5.56663 0.779931 0
M  V30 16307 H 1522.12 1.99392 -0.731901 0
M  V30 16308 H 1524.38 0.909546 -0.267263 0
M  V30 16309 H 1524.09 3.49304 -0.409845 0
M  V30 16310 H 1523.96 3.52593 1.34008 0
M  V30 16311 H 1526.35 2.54584 1.49234 0
M  V30 16312 H 1526.43 2.54315 -0.275213 0
M  V30 16313 H 1526.07 5.07165 -0.273108 0
M  V30 16314 H 1526 5.04581 1.50684 0
M  V30 16315 H 1528.49 3.71576 0.688455 0
M  V30 16316 H 1528.81 7.68767 0.788444 0
M  V30 16317 H 1527.15 6.91302 0.715982 0
M  V30 16318 H 1530.34 4.61727 0.769799 0
M  V30 16319 H 1530.52 6.42847 0.815621 0
M  V30 16320 N 1523.92 -0.412991 1.52093 0
M  V30 16321 C 1525.17 -1.15737 1.65191 0
M  V30 16322 C 1525.48 -1.91753 0.38601 0
M  V30 16323 O 1526.69 -2.68586 0.396731 0
M  V30 16324 C 1525.15 -2.10619 2.91835 0
M  V30 16325 C 1524.75 -1.40137 4.25518 0
M  V30 16326 C 1526.5 -2.85339 3.14296 0
M  V30 16327 C 1524.4 -2.33645 5.4329 0
M  V30 16328 H 1523.33 -0.435732 0.615348 0
M  V30 16329 H 1525.99 -0.422172 1.78578 0
M  V30 16330 H 1524.37 -2.87675 2.72138 0
M  V30 16331 H 1525.54 -0.684719 4.55684 0
M  V30 16332 H 1523.86 -0.774734 4.09129 0
M  V30 16333 H 1526.45 -3.55437 3.99461 0
M  V30 16334 H 1526.8 -3.48071 2.28369 0
M  V30 16335 H 1527.33 -2.15384 3.34447 0
M  V30 16336 H 1524.07 -1.75566 6.31551 0
M  V30 16337 H 1523.59 -3.03294 5.17467 0
M  V30 16338 H 1525.27 -2.94255 5.76215 0
M  V30 16339 N 1525.4 -1.4265 -0.669982 0
M  V30 16340 C 1526.63 -1.46571 -1.45604 0
M  V30 16341 C 1527.04 -0.0769961 -1.89043 0
M  V30 16342 O 1526.38 0.919604 -1.59025 0
M  V30 16343 C 1526.44 -2.33435 -2.73401 0
M  V30 16344 C 1526.11 -3.81236 -2.52008 0
M  V30 16345 C 1527.1 -4.72768 -2.16301 0
M  V30 16346 C 1524.79 -4.25552 -2.66853 0
M  V30 16347 C 1526.78 -6.0661 -1.95712 0
M  V30 16348 C 1524.47 -5.59452 -2.4588 0
M  V30 16349 C 1525.47 -6.49797 -2.10364 0
M  V30 16350 O 1525.16 -7.81222 -1.89597 0
M  V30 16351 H 1524.89 -0.500529 -0.454364 0
M  V30 16352 H 1527.44 -1.87875 -0.830199 0
M  V30 16353 H 1525.67 -1.86989 -3.38485 0
M  V30 16354 H 1527.36 -2.28755 -3.353 0
M  V30 16355 H 1528.13 -4.39814 -2.04423 0
M  V30 16356 H 1524.01 -3.55518 -2.93475 0
M  V30 16357 H 1527.55 -6.7709 -1.67914 0
M  V30 16358 H 1523.45 -5.91978 -2.57355 0
M  V30 16359 H 1524.21 -7.9263 -2.04157 0
M  V30 16360 N 1526.88 0.906753 -1.28902 0
M  V30 16361 C 1528.15 1.63637 -1.07155 0
M  V30 16362 C 1528.53 2.07527 0.386727 0
M  V30 16363 O 1527.88 1.82562 1.37417 0
M  V30 16364 C 1528.09 2.82256 -2.05263 0
M  V30 16365 C 1529.44 3.53109 -2.35794 0
M  V30 16366 O 1530.46 2.92414 -2.03402 0
M  V30 16367 O 1529.32 4.62512 -2.91109 0
M  V30 16368 H 1526.42 0.718194 -0.410032 0
M  V30 16369 H 1528.96 0.955442 -1.40248 0
M  V30 16370 H 1527.74 2.46968 -3.03517 0
M  V30 16371 H 1527.36 3.58059 -1.72857 0
M  V30 16372 N 1528.36 1.11264 1.11616 0
M  V30 16373 C 1529.77 0.846176 1.35322 0
M  V30 16374 C 1529.97 -0.530043 1.94404 0
M  V30 16375 O 1529.03 -1.28122 2.1758 0
M  V30 16376 C 1530.34 1.9528 2.28662 0
M  V30 16377 C 1531.89 1.98225 2.42231 0
M  V30 16378 C 1532.36 3.08086 3.38891 0
M  V30 16379 N 1533.85 3.07448 3.46453 0
M  V30 16380 C 1534.59 3.89094 4.21181 0
M  V30 16381 N 1534.09 4.80698 4.989 0
M  V30 16382 N 1535.88 3.77279 4.16674 0
M  V30 16383 H 1528.03 1.99958 0.716284 0
M  V30 16384 H 1530.29 0.869439 0.377862 0
M  V30 16385 H 1530 2.94381 1.92439 0
M  V30 16386 H 1529.87 1.84739 3.28864 0
M  V30 16387 H 1532.26 0.997517 2.77729 0
M  V30 16388 H 1532.34 2.12842 1.41887 0
M  V30 16389 H 1531.98 4.06784 3.0412 0
M  V30 16390 H 1531.91 2.90709 4.39085 0
M  V30 16391 H 1534.41 2.41077 2.91016 0
M  V30 16392 H 1534.72 5.39535 5.53282 0
M  V30 16393 H 1533.06 4.84721 4.98067 0
M  V30 16394 H 1536.25 3.05059 3.55044 0
M  V30 16395 H 1536.43 4.41142 4.74655 0
M  V30 16396 N 1529.83 -1.29188 0.902679 0
M  V30 16397 C 1530.74 -2.3138 0.387363 0
M  V30 16398 C 1531.76 -1.66067 -0.519396 0
M  V30 16399 O 1532.94 -1.97219 -0.408257 0
M  V30 16400 C 1530 -3.44675 -0.374137 0
M  V30 16401 C 1529.06 -4.25572 0.564503 0
M  V30 16402 C 1528.29 -5.33458 -0.160748 0
M  V30 16403 O 1528.52 -5.53349 -1.38423 0
M  V30 16404 O 1527.45 -5.99834 0.498259 0
M  V30 16405 H 1531.28 -2.77444 1.23525 0
M  V30 16406 H 1528.86 -1.33679 0.667106 0
M  V30 16407 H 1530.74 -4.13647 -0.80464 0
M  V30 16408 H 1529.42 -3.00714 -1.19804 0
M  V30 16409 H 1528.33 -3.59232 1.04418 0
M  V30 16410 H 1529.66 -4.73184 1.3549 0
M  V30 16411 N 1531.31 -0.665475 -1.42861 0
M  V30 16412 C 1532.22 0.018927 -2.34592 0
M  V30 16413 C 1533.24 0.798967 -1.54572 0
M  V30 16414 O 1534.41 0.743419 -1.87177 0
M  V30 16415 C 1531.48 0.965013 -3.32999 0
M  V30 16416 C 1530.54 0.180544 -4.2892 0
M  V30 16417 C 1529.77 1.08157 -5.22626 0
M  V30 16418 O 1530 2.32101 -5.21043 0
M  V30 16419 O 1528.93 0.54738 -5.99406 0
M  V30 16420 H 1532.76 -0.736444 -2.94636 0
M  V30 16421 H 1530.34 -0.425684 -1.43207 0
M  V30 16422 H 1532.22 1.50839 -3.93479 0
M  V30 16423 H 1530.9 1.7004 -2.75442 0
M  V30 16424 H 1529.8 -0.40671 -3.71883 0
M  V30 16425 H 1531.14 -0.515529 -4.89493 0
M  V30 16426 N 1532.79 1.52222 -0.408187 0
M  V30 16427 C 1533.74 2.26988 0.417767 0
M  V30 16428 C 1534.71 1.29362 1.04185 0
M  V30 16429 O 1535.89 1.58223 1.06631 0
M  V30 16430 C 1533.03 3.09379 1.52901 0
M  V30 16431 C 1532.14 4.2196 0.92593 0
M  V30 16432 C 1531.28 4.91712 2.00979 0
M  V30 16433 C 1530.32 5.96258 1.3836 0
M  V30 16434 N 1529.46 6.59531 2.40756 0
M  V30 16435 H 1534.3 2.9714 -0.226228 0
M  V30 16436 H 1531.83 1.46581 -0.123402 0
M  V30 16437 H 1533.79 3.55452 2.18425 0
M  V30 16438 H 1532.42 2.41399 2.14304 0
M  V30 16439 H 1531.47 3.80064 0.159765 0
M  V30 16440 H 1532.78 4.96956 0.428497 0
M  V30 16441 H 1531.94 5.41186 2.74231 0
M  V30 16442 H 1530.68 4.16282 2.54087 0
M  V30 16443 H 1529.68 5.46104 0.636402 0
M  V30 16444 H 1530.91 6.7363 0.860218 0
M  V30 16445 H 1528.85 5.86931 2.92999 0
M  V30 16446 H 1528.77 7.30198 1.95822 0
M  V30 16447 H 1530.04 7.13643 3.13581 0
M  V30 16448 N 1534.27 0.138579 1.5699 0
M  V30 16449 C 1535.51 -0.514627 1.95852 0
M  V30 16450 C 1535.84 -1.65424 1.02299 0
M  V30 16451 O 1535.1 -1.95635 0.0505654 0
M  V30 16452 C 1535.4 -1.06969 3.41017 0
M  V30 16453 C 1535.06 -0.049396 4.50873 0
M  V30 16454 C 1533.72 0.231103 4.80645 0
M  V30 16455 C 1536.08 0.644865 5.17195 0
M  V30 16456 C 1533.4 1.21181 5.74049 0
M  V30 16457 C 1535.76 1.61434 6.11655 0
M  V30 16458 C 1534.42 1.90262 6.3981 0
M  V30 16459 H 1533.69 -0.188315 0.716672 0
M  V30 16460 H 1536.34 0.223629 1.9019 0
M  V30 16461 H 1534.64 -1.88511 3.43469 0
M  V30 16462 H 1536.34 -1.58354 3.68409 0
M  V30 16463 H 1532.93 -0.278202 4.27696 0
M  V30 16464 H 1537.11 0.441346 4.94334 0
M  V30 16465 H 1532.37 1.4417 5.94159 0
M  V30 16466 H 1536.54 2.15786 6.62125 0
M  V30 16467 H 1534.17 2.66407 7.11991 0
M  V30 16468 N 1535.75 -1.57019 -0.13521 0
M  V30 16469 C 1536.68 -2.02182 -1.16811 0
M  V30 16470 C 1537.66 -0.9034 -1.44127 0
M  V30 16471 O 1538.84 -1.17202 -1.54846 0
M  V30 16472 C 1535.97 -2.41243 -2.49838 0
M  V30 16473 C 1534.93 -3.56379 -2.37018 0
M  V30 16474 C 1534.25 -3.8129 -3.74863 0
M  V30 16475 C 1535.55 -4.88653 -1.84432 0
M  V30 16476 H 1537.25 -2.8872 -0.792529 0
M  V30 16477 H 1534.79 -1.38901 -0.379788 0
M  V30 16478 H 1536.74 -2.7144 -3.22332 0
M  V30 16479 H 1535.47 -1.51656 -2.89254 0
M  V30 16480 H 1534.13 -3.26366 -1.66975 0
M  V30 16481 H 1533.78 -2.88934 -4.11735 0
M  V30 16482 H 1533.48 -4.58781 -3.67143 0
M  V30 16483 H 1535 -4.13924 -4.48887 0
M  V30 16484 H 1536.41 -5.17492 -2.46729 0
M  V30 16485 H 1534.81 -5.70032 -1.87574 0
M  V30 16486 H 1535.88 -4.78242 -0.800759 0
M  V30 16487 N 1537.22 0.404919 -1.52309 0
M  V30 16488 C 1538.47 1.14859 -1.65802 0
M  V30 16489 C 1538.79 1.91546 -0.396174 0
M  V30 16490 O 1539.99 2.68372 -0.410969 0
M  V30 16491 C 1538.45 2.09068 -2.92948 0
M  V30 16492 C 1538.06 1.37878 -4.26255 0
M  V30 16493 C 1539.8 2.83669 -3.15804 0
M  V30 16494 C 1537.71 2.30761 -5.44521 0
M  V30 16495 H 1536.64 0.432463 -0.61765 0
M  V30 16496 H 1539.29 0.412695 -1.78799 0
M  V30 16497 H 1537.67 2.86228 -2.7366 0
M  V30 16498 H 1538.84 0.660543 -4.56041 0
M  V30 16499 H 1537.16 0.753026 -4.09534 0
M  V30 16500 H 1539.76 3.53313 -4.0134 0
M  V30 16501 H 1540.1 3.46855 -2.30212 0
M  V30 16502 H 1540.63 2.13607 -3.35584 0
M  V30 16503 H 1537.37 1.72214 -6.32473 0
M  V30 16504 H 1536.89 3.00546 -5.19069 0
M  V30 16505 H 1538.57 2.91195 -5.77767 0
M  V30 16506 N 1538.7 1.43003 0.662408 0
M  V30 16507 C 1539.93 1.47766 1.45533 0
M  V30 16508 C 1540.35 0.0940298 1.87865 0
M  V30 16509 O 1539.71 -0.910252 1.56793 0
M  V30 16510 C 1539.76 2.42084 2.6726 0
M  V30 16511 O 1538.86 1.90076 3.65985 0
M  V30 16512 H 1538.2 0.500167 0.436725 0
M  V30 16513 H 1540.73 1.87823 0.811399 0
M  V30 16514 H 1540.74 2.5908 3.15185 0
M  V30 16515 H 1539.42 3.42601 2.3579 0
M  V30 16516 H 1538 1.82695 3.2508 0
M  V30 16517 N 1540.18 -0.899904 1.29381 0
M  V30 16518 C 1541.13 -2.02537 1.14375 0
M  V30 16519 C 1542.12 -1.69296 0.0593904 0
M  V30 16520 O 1543.33 -1.78661 0.219174 0
M  V30 16521 H 1539.7 -0.663844 0.353291 0
M  V30 16522 H 1541.67 -2.12332 2.0966 0
M  V30 16523 C 1540.42 -3.37479 0.836845 0
M  V30 16524 H 1539.75 -3.6356 1.66326 0
M  V30 16525 H 1541.19 -4.16915 0.771873 0
M  V30 16526 C 1539.65 -3.33746 -0.459889 0
M  V30 16527 O 1540.18 -3.73203 -1.48601 0
M  V30 16528 N 1538.38 -2.86845 -0.465657 0
M  V30 16529 H 1537.93 -2.54931 0.369833 0
M  V30 16530 H 1537.89 -2.8473 -1.33327 0
M  V30 16531 N 1541.66 -1.11854 -1.11024 0
M  V30 16532 C 1542.57 -0.79368 -2.20767 0
M  V30 16533 C 1543.58 0.214996 -1.72667 0
M  V30 16534 O 1544.76 0.0500976 -2.01338 0
M  V30 16535 C 1541.83 -0.246375 -3.45823 0
M  V30 16536 C 1540.89 -1.31421 -4.0869 0
M  V30 16537 C 1540.12 -0.792922 -5.27777 0
M  V30 16538 O 1540.34 0.375492 -5.69163 0
M  V30 16539 O 1539.28 -1.55971 -5.8134 0
M  V30 16540 H 1543.1 -1.71011 -2.50976 0
M  V30 16541 H 1540.69 -0.894752 -1.19643 0
M  V30 16542 H 1542.57 0.0542632 -4.21365 0
M  V30 16543 H 1541.24 0.642703 -3.17255 0
M  V30 16544 H 1540.15 -1.66792 -3.3486 0
M  V30 16545 H 1541.48 -2.17683 -4.41446 0
M  V30 16546 N 1543.14 1.28707 -0.909517 0
M  V30 16547 C 1544.08 2.27427 -0.393155 0
M  V30 16548 C 1545.05 1.57414 0.53009 0
M  V30 16549 O 1546.24 1.85339 0.453205 0
M  V30 16550 C 1543.38 3.4317 0.364507 0
M  V30 16551 C 1542.49 4.27942 -0.590757 0
M  V30 16552 C 1541.63 5.30878 0.184931 0
M  V30 16553 C 1540.67 6.07311 -0.764222 0
M  V30 16554 N 1539.8 7.02096 -0.0223203 0
M  V30 16555 H 1544.64 2.70974 -1.24005 0
M  V30 16556 H 1542.18 1.33265 -0.6228 0
M  V30 16557 H 1544.14 4.09063 0.819937 0
M  V30 16558 H 1542.77 3.00625 1.17578 0
M  V30 16559 H 1541.82 3.62131 -1.16471 0
M  V30 16560 H 1543.13 4.81102 -1.31689 0
M  V30 16561 H 1542.29 6.02635 0.701116 0
M  V30 16562 H 1541.02 4.78474 0.944143 0
M  V30 16563 H 1540.03 5.34408 -1.29182 0
M  V30 16564 H 1541.25 6.61804 -1.52292 0
M  V30 16565 H 1539.2 6.52048 0.718978 0
M  V30 16566 H 1539.12 7.5286 -0.688359 0
M  V30 16567 H 1540.39 7.78059 0.473807 0
M  V30 16568 N 1544.61 0.673042 1.42506 0
M  V30 16569 C 1545.56 -0.00638067 2.30799 0
M  V30 16570 C 1546.53 -0.794524 1.45865 0
M  V30 16571 O 1547.72 -0.767129 1.74699 0
M  V30 16572 C 1544.86 -0.952923 3.31683 0
M  V30 16573 C 1543.97 -0.158787 4.31708 0
M  V30 16574 C 1543.1 -1.10092 5.19666 0
M  V30 16575 C 1542.14 -0.29837 6.11372 0
M  V30 16576 N 1541.28 -1.19312 6.91888 0
M  V30 16577 H 1546.12 0.75237 2.88346 0
M  V30 16578 H 1543.66 0.382763 1.42033 0
M  V30 16579 H 1545.62 -1.51552 3.887 0
M  V30 16580 H 1544.25 -1.67832 2.75739 0
M  V30 16581 H 1543.3 0.520406 3.76823 0
M  V30 16582 H 1544.61 0.464385 4.96634 0
M  V30 16583 H 1543.76 -1.7335 5.81407 0
M  V30 16584 H 1542.5 -1.75798 4.54914 0
M  V30 16585 H 1541.51 0.347437 5.48701 0
M  V30 16586 H 1542.73 0.354569 6.78174 0
M  V30 16587 H 1540.68 -1.83661 6.29765 0
M  V30 16588 H 1540.6 -0.624986 7.53412 0
M  V30 16589 H 1541.86 -1.81323 7.58118 0
M  V30 16590 N 1546.09 -1.52004 0.416254 0
M  V30 16591 C 1547.34 -2.01076 -0.158591 0
M  V30 16592 C 1547.65 -1.30598 -1.45614 0
M  V30 16593 O 1548.86 -1.70525 -2.11267 0
M  V30 16594 C 1547.32 -3.58354 -0.333179 0
M  V30 16595 C 1546.92 -4.37753 0.952696 0
M  V30 16596 C 1548.67 -4.15637 -0.86293 0
M  V30 16597 C 1546.58 -5.8669 0.744905 0
M  V30 16598 H 1545.51 -0.75136 -0.0630423 0
M  V30 16599 H 1548.16 -1.75288 0.542791 0
M  V30 16600 H 1546.54 -3.805 -1.09706 0
M  V30 16601 H 1547.71 -4.27364 1.72328 0
M  V30 16602 H 1546.03 -3.91823 1.40939 0
M  V30 16603 H 1548.62 -5.24596 -1.03454 0
M  V30 16604 H 1548.97 -3.73449 -1.8396 0
M  V30 16605 H 1549.5 -3.97486 -0.157918 0
M  V30 16606 H 1546.24 -6.3325 1.69334 0
M  V30 16607 H 1545.76 -5.99798 0.0137458 0
M  V30 16608 H 1547.44 -6.45824 0.389851 0
M  V30 16609 N 1547.57 -0.146903 -1.56914 0
M  V30 16610 C 1548.82 0.504234 -1.96122 0
M  V30 16611 C 1549.15 1.64879 -1.03175 0
M  V30 16612 O 1548.4 1.95605 -0.0609397 0
M  V30 16613 C 1548.7 1.05159 -3.41579 0
M  V30 16614 C 1548.37 0.0254845 -4.50893 0
M  V30 16615 C 1547.03 -0.256589 -4.80515 0
M  V30 16616 C 1549.38 -0.672284 -5.16846 0
M  V30 16617 C 1546.71 -1.24224 -5.73398 0
M  V30 16618 C 1549.06 -1.64675 -6.1079 0
M  V30 16619 C 1547.72 -1.93652 -6.38792 0
M  V30 16620 H 1546.99 0.184512 -0.71766 0
M  V30 16621 H 1549.64 -0.233712 -1.90069 0
M  V30 16622 H 1547.95 1.86687 -3.44464 0
M  V30 16623 H 1549.64 1.56398 -3.69244 0
M  V30 16624 H 1546.23 0.255517 -4.27838 0
M  V30 16625 H 1550.42 -0.467555 -4.94093 0
M  V30 16626 H 1545.67 -1.47319 -5.93386 0
M  V30 16627 H 1549.85 -2.19294 -6.60971 0
M  V30 16628 H 1547.47 -2.70179 -7.10568 0
M  V30 16629 N 1549.05 1.57088 0.126881 0
M  V30 16630 C 1550.27 1.88984 0.854389 0
M  V30 16631 C 1550.7 0.738037 1.73016 0
M  V30 16632 O 1550.06 -0.311728 1.786 0
M  V30 16633 C 1550.1 3.19584 1.67028 0
M  V30 16634 O 1549.21 3.04935 2.77648 0
M  V30 16635 H 1548.55 0.620354 0.236763 0
M  V30 16636 H 1551.08 2.04295 0.111647 0
M  V30 16637 H 1551.09 3.52109 2.06115 0
M  V30 16638 H 1549.76 4.03012 1.02732 0
M  V30 16639 H 1548.34 2.83861 2.41821 0
M  V30 16640 N 1550.53 -0.396836 1.52522 0
M  V30 16641 C 1551.44 -1.50871 1.79653 0
M  V30 16642 C 1552.45 -1.60043 0.682804 0
M  V30 16643 O 1553.63 -1.76527 0.96955 0
M  V30 16644 C 1550.69 -2.86485 1.95263 0
M  V30 16645 C 1549.75 -2.87099 3.19175 0
M  V30 16646 C 1548.99 -4.16244 3.34031 0
M  V30 16647 O 1549.21 -5.1079 2.5387 0
M  V30 16648 O 1548.14 -4.23962 4.27247 0
M  V30 16649 H 1551.97 -1.30878 2.74052 0
M  V30 16650 H 1549.56 -0.583908 1.37517 0
M  V30 16651 H 1551.44 -3.66895 2.07282 0
M  V30 16652 H 1550.11 -3.0652 1.04052 0
M  V30 16653 H 1549.02 -2.05497 3.12605 0
M  V30 16654 H 1550.35 -2.72014 4.10206 0
M  V30 16655 N 1552.01 -1.43353 -0.654814 0
M  V30 16656 C 1552.95 -1.48652 -1.789 0
M  V30 16657 C 1553.95 -0.360274 -1.65525 0
M  V30 16658 O 1555.15 -0.534194 -1.71891 0
M  V30 16659 H 1551.53 -0.465987 -0.590221 0
M  V30 16660 H 1553.5 -2.44158 -1.7155 0
M  V30 16661 C 1552.25 -1.42512 -3.17152 0
M  V30 16662 H 1551.57 -2.28479 -3.28081 0
M  V30 16663 H 1553.01 -1.50282 -3.96474 0
M  V30 16664 C 1551.47 -0.142511 -3.36598 0
M  V30 16665 O 1552 0.796821 -3.93718 0
M  V30 16666 N 1550.21 -0.0532157 -2.90551 0
M  V30 16667 H 1549.75 -0.818421 -2.44253 0
M  V30 16668 H 1549.71 0.80427 -3.03939 0
M  V30 16669 N 1553.48 0.89303 -1.29857 0
M  V30 16670 C 1554.71 1.6827 -1.21243 0
M  V30 16671 C 1555.13 1.86778 0.222621 0
M  V30 16672 O 1554.49 1.39291 1.1605 0
M  V30 16673 C 1554.54 3.041 -1.93792 0
M  V30 16674 O 1553.64 3.92696 -1.25951 0
M  V30 16675 H 1552.98 0.514479 -0.419771 0
M  V30 16676 H 1555.51 1.11513 -1.7154 0
M  V30 16677 H 1555.52 3.54198 -2.02504 0
M  V30 16678 H 1554.2 2.89948 -2.98166 0
M  V30 16679 H 1552.78 3.51132 -1.25541 0
M  V30 16680 N 1554.96 1.12442 1.10429 0
M  V30 16681 C 1555.89 0.814745 2.18824 0
M  V30 16682 C 1556.87 -0.221476 1.68652 0
M  V30 16683 O 1558.06 -0.0826537 1.94024 0
M  V30 16684 C 1555.19 0.268632 3.4626 0
M  V30 16685 C 1554.14 1.23792 4.09707 0
M  V30 16686 C 1553.47 0.552034 5.31843 0
M  V30 16687 C 1554.77 2.5926 4.53411 0
M  V30 16688 H 1556.46 1.72111 2.44986 0
M  V30 16689 H 1554.01 0.828968 1.17746 0
M  V30 16690 H 1555.96 0.0397207 4.21381 0
M  V30 16691 H 1554.68 -0.673079 3.19589 0
M  V30 16692 H 1553.34 1.45264 3.36592 0
M  V30 16693 H 1552.99 -0.394821 5.01448 0
M  V30 16694 H 1552.69 1.19861 5.75245 0
M  V30 16695 H 1554.22 0.332161 6.09696 0
M  V30 16696 H 1555.63 2.41816 5.19806 0
M  V30 16697 H 1554.03 3.19997 5.07663 0
M  V30 16698 H 1555.1 3.17699 3.66327 0
M  V30 16699 N 1556.44 -1.28223 0.91633 0
M  V30 16700 C 1557.39 -2.27215 0.40521 0
M  V30 16701 C 1558.36 -1.57693 -0.521734 0
M  V30 16702 O 1559.54 -1.85577 -0.443369 0
M  V30 16703 C 1556.68 -3.43358 -0.346303 0
M  V30 16704 C 1555.79 -4.27622 0.613443 0
M  V30 16705 C 1554.93 -5.30969 -0.156775 0
M  V30 16706 C 1553.97 -6.06897 0.796418 0
M  V30 16707 N 1553.11 -7.02075 0.0595539 0
M  V30 16708 H 1557.95 -2.70312 1.2544 0
M  V30 16709 H 1555.48 -1.32933 0.629859 0
M  V30 16710 H 1557.44 -4.09492 -0.798231 0
M  V30 16711 H 1556.07 -3.01244 -1.15982 0
M  V30 16712 H 1555.12 -3.61508 1.1839 0
M  V30 16713 H 1556.43 -4.80397 1.34239 0
M  V30 16714 H 1555.59 -6.02999 -0.669146 0
M  V30 16715 H 1554.33 -4.78968 -0.918755 0
M  V30 16716 H 1553.33 -5.33716 1.32014 0
M  V30 16717 H 1554.56 -6.60987 1.558 0
M  V30 16718 H 1552.5 -6.5242 -0.684388 0
M  V30 16719 H 1552.42 -7.52484 0.728275 0
M  V30 16720 H 1553.69 -7.78299 -0.432538 0
M  V30 16721 N 1557.92 -0.68059 -1.42147 0
M  V30 16722 C 1559.14 -0.212293 -2.06311 0
M  V30 16723 C 1559.57 1.12402 -1.50822 0
M  V30 16724 O 1558.93 1.70037 -0.629051 0
M  V30 16725 C 1558.97 -0.164156 -3.60226 0
M  V30 16726 O 1558.08 0.865582 -4.03214 0
M  V30 16727 H 1557.42 -0.107451 -0.655248 0
M  V30 16728 H 1559.95 -0.931233 -1.82179 0
M  V30 16729 H 1559.96 0.0100422 -4.07999 0
M  V30 16730 H 1558.63 -1.13952 -3.99985 0
M  V30 16731 H 1557.21 0.661955 -3.66978 0
M  V30 16732 N 1559.4 1.51781 -0.424309 0
M  V30 16733 C 1560.31 2.31162 0.40015 0
M  V30 16734 C 1561.32 1.39523 1.03969 0
M  V30 16735 O 1562.5 1.72597 1.0379 0
M  V30 16736 C 1559.56 3.12875 1.49366 0
M  V30 16737 C 1558.62 4.20275 0.875616 0
M  V30 16738 C 1557.86 4.98082 1.91702 0
M  V30 16739 O 1558.08 4.76365 3.13739 0
M  V30 16740 O 1557.01 5.82527 1.5148 0
M  V30 16741 H 1560.84 3.0269 -0.247529 0
M  V30 16742 H 1558.42 1.48223 -0.187146 0
M  V30 16743 H 1560.31 3.63714 2.12815 0
M  V30 16744 H 1558.98 2.44125 2.12567 0
M  V30 16745 H 1557.89 3.73546 0.203429 0
M  V30 16746 H 1559.22 4.91361 0.287306 0
M  V30 16747 N 1560.87 0.155222 1.56834 0
M  V30 16748 C 1561.78 -0.794179 2.20749 0
M  V30 16749 C 1562.8 -1.26546 1.19424 0
M  V30 16750 O 1563.98 -1.32094 1.5203 0
M  V30 16751 C 1561.04 -2.01261 2.82303 0
M  V30 16752 C 1560.1 -1.58976 3.98779 0
M  V30 16753 C 1559.33 -2.75011 4.57389 0
M  V30 16754 O 1559.56 -3.91449 4.14879 0
M  V30 16755 O 1558.49 -2.50011 5.4752 0
M  V30 16756 H 1562.32 -0.280064 3.02406 0
M  V30 16757 H 1559.9 -0.0722048 1.49225 0
M  V30 16758 H 1561.78 -2.72551 3.21394 0
M  V30 16759 H 1560.46 -2.51609 2.03653 0
M  V30 16760 H 1559.37 -0.846848 3.64389 0
M  V30 16761 H 1560.7 -1.13336 4.78974 0
M  V30 16762 N 1562.35 -1.57153 -0.118549 0
M  V30 16763 C 1563.76 -1.74046 -0.675645 0
M  V30 16764 C 1564.11 -0.773974 -1.80289 0
M  V30 16765 O 1563.24 0.0530041 -2.16335 0
M  V30 16766 C 1563.83 -3.15591 -1.23239 0
M  V30 16767 C 1562.39 -3.33988 -1.73577 0
M  V30 16768 C 1561.54 -2.69916 -0.63567 0
M  V30 16769 H 1564.49 -1.58336 0.10737 0
M  V30 16770 H 1564.51 -3.17166 -2.10205 0
M  V30 16771 H 1564.02 -3.8591 -0.411744 0
M  V30 16772 H 1562.12 -2.68712 -2.58118 0
M  V30 16773 H 1562.24 -4.42154 -1.84491 0
M  V30 16774 H 1560.6 -2.31163 -1.06939 0
M  V30 16775 H 1561.38 -3.42859 0.174005 0
M  V30 16776 N 1563.83 0.388742 -1.5273 0
M  V30 16777 C 1565.08 1.13094 -1.67011 0
M  V30 16778 C 1565.39 1.91115 -0.416467 0
M  V30 16779 O 1566.6 2.67921 -0.43941 0
M  V30 16780 C 1565.05 2.0595 -2.95149 0
M  V30 16781 C 1564.66 1.3335 -4.27694 0
M  V30 16782 C 1566.41 2.80303 -3.18795 0
M  V30 16783 C 1564.31 2.24973 -5.46938 0
M  V30 16784 H 1563.24 0.425887 -0.622203 0
M  V30 16785 H 1565.89 0.393708 -1.79227 0
M  V30 16786 H 1564.28 2.83309 -2.7668 0
M  V30 16787 H 1565.45 0.612137 -4.56716 0
M  V30 16788 H 1563.76 0.709547 -4.1031 0
M  V30 16789 H 1566.36 3.49036 -4.05065 0
M  V30 16790 H 1566.7 3.44394 -2.33877 0
M  V30 16791 H 1567.24 2.10036 -3.37831 0
M  V30 16792 H 1563.98 1.65497 -6.34264 0
M  V30 16793 H 1563.5 2.95024 -5.22227 0
M  V30 16794 H 1565.18 2.8505 -5.80823 0
M  V30 16795 N 1565.31 1.43698 0.647203 0
M  V30 16796 C 1566.24 1.52135 1.77136 0
M  V30 16797 C 1567.22 0.375551 1.65902 0
M  V30 16798 O 1568.4 0.593564 1.84907 0
M  V30 16799 C 1565.53 1.44974 3.15594 0
M  V30 16800 C 1564.49 2.57866 3.41598 0
M  V30 16801 C 1563.81 2.35757 4.7992 0
M  V30 16802 C 1565.11 4.00089 3.35747 0
M  V30 16803 H 1566.81 2.46227 1.70332 0
M  V30 16804 H 1564.35 1.18507 0.818046 0
M  V30 16805 H 1566.31 1.4948 3.93997 0
M  V30 16806 H 1565.03 0.473905 3.23143 0
M  V30 16807 H 1563.69 2.52722 2.65569 0
M  V30 16808 H 1563.34 1.36403 4.84152 0
M  V30 16809 H 1563.04 3.11436 4.98278 0
M  V30 16810 H 1564.56 2.42055 5.60572 0
M  V30 16811 H 1565.98 4.06687 4.04078 0
M  V30 16812 H 1564.37 4.75842 3.65642 0
M  V30 16813 H 1565.44 4.24798 2.33825 0
M  V30 16814 N 1566.79 -0.886131 1.30328 0
M  V30 16815 C 1568.03 -1.64032 1.20271 0
M  V30 16816 C 1568.39 -1.90891 -0.240498 0
M  V30 16817 O 1567.68 -1.51793 -1.16916 0
M  V30 16818 C 1567.87 -2.98624 1.96364 0
M  V30 16819 C 1567.7 -2.84904 3.47936 0
M  V30 16820 C 1566.47 -2.84948 4.17292 0
M  V30 16821 C 1568.67 -2.60937 4.43189 0
M  V30 16822 N 1566.65 -2.62108 5.55133 0
M  V30 16823 C 1568.02 -2.47208 5.68584 0
M  V30 16824 C 1570.08 -2.46153 4.32797 0
M  V30 16825 C 1568.78 -2.20198 6.84767 0
M  V30 16826 C 1570.81 -2.20528 5.48745 0
M  V30 16827 C 1570.17 -2.07574 6.73121 0
M  V30 16828 H 1566.27 -0.605263 0.495158 0
M  V30 16829 H 1568.85 -1.0443 1.64324 0
M  V30 16830 H 1567.02 -3.5626 1.54703 0
M  V30 16831 H 1568.76 -3.63228 1.78458 0
M  V30 16832 H 1565.51 -2.96736 3.69114 0
M  V30 16833 H 1565.94 -2.53703 6.27665 0
M  V30 16834 H 1570.58 -2.54904 3.37319 0
M  V30 16835 H 1568.3 -2.10185 7.80287 0
M  V30 16836 H 1571.88 -2.09912 5.42612 0
M  V30 16837 H 1570.76 -1.88023 7.61326 0
M  V30 16838 N 1568.26 -1.13026 -1.09832 0
M  V30 16839 C 1569.49 -0.91246 -1.85693 0
M  V30 16840 C 1569.91 0.538558 -1.80956 0
M  V30 16841 O 1569.26 1.37262 -1.20273 0
M  V30 16842 C 1569.32 -1.38684 -3.3384 0
M  V30 16843 O 1569.04 -2.78099 -3.38515 0
M  V30 16844 C 1570.54 -1.20688 -4.26555 0
M  V30 16845 H 1567.76 -0.32565 -0.58668 0
M  V30 16846 H 1570.3 -1.50177 -1.38806 0
M  V30 16847 H 1568.46 -0.840617 -3.7817 0
M  V30 16848 H 1568.87 -2.99061 -4.30886 0
M  V30 16849 H 1570.34 -1.5876 -5.28677 0
M  V30 16850 H 1570.82 -0.148111 -4.3895 0
M  V30 16851 H 1571.43 -1.74092 -3.88036 0
M  V30 16852 N 1569.74 1.27735 -0.923117 0
M  V30 16853 C 1570.69 2.26997 -0.417254 0
M  V30 16854 C 1571.66 1.57968 0.513364 0
M  V30 16855 O 1572.84 1.8581 0.433521 0
M  V30 16856 C 1569.98 3.43537 0.328089 0
M  V30 16857 C 1569.1 4.27291 -0.636112 0
M  V30 16858 C 1568.23 5.31044 0.128614 0
M  V30 16859 C 1567.27 6.06466 -0.828592 0
M  V30 16860 N 1566.41 7.02033 -0.0967858 0
M  V30 16861 H 1571.25 2.69643 -1.26872 0
M  V30 16862 H 1568.79 1.32597 -0.6369 0
M  V30 16863 H 1570.74 4.0991 0.776504 0
M  V30 16864 H 1569.37 3.01855 1.14383 0
M  V30 16865 H 1568.43 3.60875 -1.20306 0
M  V30 16866 H 1569.74 4.79679 -1.36784 0
M  V30 16867 H 1568.89 6.03345 0.637159 0
M  V30 16868 H 1567.63 4.79448 0.893341 0
M  V30 16869 H 1566.64 5.33008 -1.34843 0
M  V30 16870 H 1567.86 6.60151 -1.59303 0
M  V30 16871 H 1565.81 6.52774 0.649779 0
M  V30 16872 H 1565.72 7.52087 -0.768171 0
M  V30 16873 H 1566.99 7.78517 0.391257 0
M  V30 16874 N 1571.22 0.688118 1.41784 0
M  V30 16875 C 1572.47 0.215517 2.00948 0
M  V30 16876 C 1572.79 -1.18656 1.54744 0
M  V30 16877 O 1572.06 -1.79925 0.774831 0
M  V30 16878 H 1570.64 0.0766876 0.743053 0
M  V30 16879 H 1573.3 0.88761 1.73515 0
M  V30 16880 H 1572.4 0.227139 3.11272 0
M  V30 16881 N 1572.7 -1.51554 0.432352 0
M  V30 16882 C 1573.61 -2.31371 -0.387885 0
M  V30 16883 C 1574.62 -1.40072 -1.03227 0
M  V30 16884 O 1575.8 -1.73145 -1.02873 0
M  V30 16885 C 1572.87 -3.13662 -1.47705 0
M  V30 16886 C 1571.93 -4.20734 -0.853315 0
M  V30 16887 C 1571.16 -4.99092 -1.89058 0
M  V30 16888 O 1571.38 -4.78022 -3.11209 0
M  V30 16889 O 1570.32 -5.83322 -1.48389 0
M  V30 16890 H 1574.14 -3.02554 0.263578 0
M  V30 16891 H 1571.73 -1.48122 0.195004 0
M  V30 16892 H 1573.61 -3.64837 -2.10884 0
M  V30 16893 H 1572.28 -2.45249 -2.11269 0
M  V30 16894 H 1571.19 -3.73649 -0.183616 0
M  V30 16895 H 1572.52 -4.91506 -0.261244 0
M  V30 16896 N 1574.18 -0.163538 -1.56749 0
M  V30 16897 C 1575.43 0.483453 -1.9582 0
M  V30 16898 C 1575.74 1.64913 -1.05181 0
M  V30 16899 O 1576.94 2.36184 -1.33901 0
M  V30 16900 C 1575.4 0.911471 -3.48167 0
M  V30 16901 C 1575.01 -0.228178 -4.47419 0
M  V30 16902 C 1576.75 1.52732 -3.96072 0
M  V30 16903 C 1574.66 0.219036 -5.90994 0
M  V30 16904 H 1573.59 0.184383 -0.731108 0
M  V30 16905 H 1576.24 -0.250527 -1.81782 0
M  V30 16906 H 1574.62 1.7012 -3.57596 0
M  V30 16907 H 1575.8 -1.0054 -4.49698 0
M  V30 16908 H 1574.11 -0.753485 -4.09526 0
M  V30 16909 H 1576.71 1.87383 -5.00791 0
M  V30 16910 H 1577.05 2.42239 -3.38565 0
M  V30 16911 H 1577.58 0.802176 -3.89628 0
M  V30 16912 H 1574.32 -0.641066 -6.52358 0
M  V30 16913 H 1573.84 0.96178 -5.92039 0
M  V30 16914 H 1575.52 0.665524 -6.43568 0
M  V30 16915 N 1575.65 1.57214 0.110213 0
M  V30 16916 C 1576.58 2.04015 1.13579 0
M  V30 16917 C 1577.57 0.926215 1.42672 0
M  V30 16918 O 1578.75 1.19651 1.52962 0
M  V30 16919 C 1575.88 2.45187 2.45969 0
M  V30 16920 C 1574.83 3.60105 2.31319 0
M  V30 16921 C 1574.16 3.87205 3.68749 0
M  V30 16922 C 1575.46 4.91526 1.76635 0
M  V30 16923 H 1577.15 2.89944 0.746496 0
M  V30 16924 H 1574.7 1.39488 0.357642 0
M  V30 16925 H 1576.65 2.76534 3.17973 0
M  V30 16926 H 1575.38 1.56238 2.86805 0
M  V30 16927 H 1574.04 3.28981 1.61762 0
M  V30 16928 H 1573.68 2.95448 4.07087 0
M  V30 16929 H 1573.38 4.64563 3.59798 0
M  V30 16930 H 1574.91 4.21013 4.42245 0
M  V30 16931 H 1576.32 5.21351 2.38465 0
M  V30 16932 H 1574.72 5.72944 1.78482 0
M  V30 16933 H 1575.79 4.79456 0.724573 0
M  V30 16934 N 1577.13 -0.380637 1.52934 0
M  V30 16935 C 1578.38 -1.12261 1.68053 0
M  V30 16936 C 1578.7 -1.90263 0.427191 0
M  V30 16937 O 1577.97 -1.87768 -0.558559 0
M  V30 16938 H 1576.55 -0.41742 0.619491 0
M  V30 16939 H 1579.21 -0.430906 1.90077 0
M  V30 16940 H 1578.31 -1.82085 2.53479 0
M  V30 16941 N 1578.61 -1.44039 -0.639573 0
M  V30 16942 C 1579.56 -1.50254 -1.75192 0
M  V30 16943 C 1580.53 -0.350994 -1.62349 0
M  V30 16944 O 1581.71 -0.56006 -1.82395 0
M  V30 16945 C 1578.85 -1.44464 -3.13407 0
M  V30 16946 C 1577.97 -2.69929 -3.37287 0
M  V30 16947 C 1577.1 -2.56031 -4.65426 0
M  V30 16948 C 1576.14 -3.76699 -4.82456 0
M  V30 16949 N 1575.28 -3.61529 -6.01865 0
M  V30 16950 H 1580.12 -2.45296 -1.69216 0
M  V30 16951 H 1577.65 -1.21748 -0.825576 0
M  V30 16952 H 1579.61 -1.39099 -3.93328 0
M  V30 16953 H 1578.24 -0.529951 -3.1842 0
M  V30 16954 H 1577.29 -2.85516 -2.51366 0
M  V30 16955 H 1578.61 -3.59523 -3.45753 0
M  V30 16956 H 1577.76 -2.48451 -5.53495 0
M  V30 16957 H 1576.5 -1.63983 -4.59305 0
M  V30 16958 H 1575.5 -3.84672 -3.92819 0
M  V30 16959 H 1576.73 -4.69772 -4.90398 0
M  V30 16960 H 1574.67 -2.72226 -5.96849 0
M  V30 16961 H 1574.59 -4.44733 -6.1135 0
M  V30 16962 H 1575.86 -3.57826 -6.92518 0
M  V30 16963 N 1580.09 0.879207 -1.30796 0
M  V30 16964 C 1581.34 1.62828 -1.19715 0
M  V30 16965 C 1581.66 1.93429 0.247031 0
M  V30 16966 O 1580.93 1.57478 1.16522 0
M  V30 16967 H 1579.51 0.603607 -0.440077 0
M  V30 16968 H 1582.17 1.05309 -1.64 0
M  V30 16969 H 1581.27 2.57591 -1.76219 0
M  V30 16970 N 1581.57 1.13606 1.09231 0
M  V30 16971 C 1582.53 0.818197 2.14099 0
M  V30 16972 C 1583.53 -0.173275 1.59864 0
M  V30 16973 O 1584.72 0.05405 1.74116 0
M  V30 16974 C 1581.85 0.218138 3.40201 0
M  V30 16975 H 1583.05 1.74748 2.43727 0
M  V30 16976 H 1580.6 0.940962 1.24802 0
M  V30 16977 H 1581.33 -0.720269 3.162 0
M  V30 16978 H 1581.12 0.932156 3.80859 0
M  V30 16979 H 1582.61 0.0126639 4.17598 0
M  V30 16980 N 1583.05 -1.27244 0.929878 0
M  V30 16981 C 1584.28 -1.98086 0.586993 0
M  V30 16982 C 1584.68 -1.69541 -0.839799 0
M  V30 16983 O 1584.03 -0.953724 -1.57003 0
M  V30 16984 C 1584.09 -3.51893 0.735656 0
M  V30 16985 C 1583.75 -4.04064 2.13497 0
M  V30 16986 C 1584.75 -4.16671 3.10936 0
M  V30 16987 C 1582.43 -4.38358 2.4525 0
M  V30 16988 C 1584.43 -4.62849 4.38235 0
M  V30 16989 C 1582.12 -4.84226 3.72785 0
M  V30 16990 C 1583.11 -4.96431 4.6909 0
M  V30 16991 O 1582.8 -5.41292 5.94355 0
M  V30 16992 H 1582.53 -0.638845 0.221027 0
M  V30 16993 H 1585.09 -1.63006 1.24973 0
M  V30 16994 H 1583.32 -3.86697 0.0158117 0
M  V30 16995 H 1585.01 -4.03949 0.397505 0
M  V30 16996 H 1585.77 -3.90434 2.87726 0
M  V30 16997 H 1581.65 -4.28099 1.71032 0
M  V30 16998 H 1585.2 -4.7229 5.13408 0
M  V30 16999 H 1581.09 -5.09905 3.95812 0
M  V30 17000 H 1581.86 -5.59541 5.97375 0
M  V30 17001 N 1584.52 -0.695628 -1.41417 0
M  V30 17002 C 1585.77 -0.226171 -2.0083 0
M  V30 17003 C 1586.09 1.17833 -1.55371 0
M  V30 17004 O 1585.36 1.79512 -0.784362 0
M  V30 17005 H 1583.94 -0.0806271 -0.742636 0
M  V30 17006 H 1586.6 -0.8968 -1.73042 0
M  V30 17007 H 1585.7 -0.243643 -3.11148 0
M  V30 17008 N 1586 1.51322 -0.440383 0
M  V30 17009 C 1587.23 2.0653 0.123649 0
M  V30 17010 C 1587.64 1.30751 1.36197 0
M  V30 17011 O 1587 0.367932 1.78753 0
M  V30 17012 C 1587.05 3.58778 0.442802 0
M  V30 17013 O 1586.77 4.31695 -0.746375 0
M  V30 17014 C 1588.27 4.3051 1.05717 0
M  V30 17015 H 1585.49 0.670968 0.00657466 0
M  V30 17016 H 1588.04 1.94864 -0.620341 0
M  V30 17017 H 1586.19 3.70349 1.13669 0
M  V30 17018 H 1586.61 5.22368 -0.472466 0
M  V30 17019 H 1588.08 5.38111 1.23046 0
M  V30 17020 H 1588.56 3.88999 2.03903 0
M  V30 17021 H 1589.16 4.2339 0.402574 0
M  V30 17022 N 1587.48 0.171848 1.5666 0
M  V30 17023 C 1588.73 -0.473669 1.97191 0
M  V30 17024 C 1589.06 -1.6286 1.05784 0
M  V30 17025 O 1588.33 -1.94216 0.105084 0
M  V30 17026 C 1588.62 -0.956134 3.47174 0
M  V30 17027 C 1588.47 0.199007 4.4936 0
M  V30 17028 C 1589.79 -1.82962 4.00266 0
M  V30 17029 H 1586.91 -0.170704 0.716958 0
M  V30 17030 H 1589.55 0.25809 1.88239 0
M  V30 17031 H 1587.7 -1.57969 3.54934 0
M  V30 17032 H 1589.37 0.836109 4.53659 0
M  V30 17033 H 1587.61 0.85442 4.25302 0
M  V30 17034 H 1588.29 -0.180704 5.51704 0
M  V30 17035 H 1590.76 -1.30394 3.95141 0
M  V30 17036 H 1589.64 -2.13621 5.05625 0
M  V30 17037 H 1589.9 -2.77557 3.44114 0
M  V30 17038 N 1588.96 -1.5727 -0.101874 0
M  V30 17039 C 1590.19 -1.89667 -0.81914 0
M  V30 17040 C 1590.6 -0.763027 -1.73132 0
M  V30 17041 O 1589.94 0.274317 -1.8164 0
M  V30 17042 C 1590 -3.17252 -1.6909 0
M  V30 17043 C 1589.66 -4.4699 -0.951257 0
M  V30 17044 C 1590.66 -5.19123 -0.28417 0
M  V30 17045 C 1588.35 -4.93665 -0.927349 0
M  V30 17046 C 1590.34 -6.36163 0.396934 0
M  V30 17047 C 1588.03 -6.10619 -0.242456 0
M  V30 17048 C 1589.03 -6.81717 0.418514 0
M  V30 17049 O 1588.71 -7.96443 1.09244 0
M  V30 17050 H 1588.45 -0.632024 -0.239836 0
M  V30 17051 H 1591 -2.05222 -0.0855979 0
M  V30 17052 H 1589.23 -2.97825 -2.46651 0
M  V30 17053 H 1590.92 -3.35533 -2.28413 0
M  V30 17054 H 1591.68 -4.84107 -0.294146 0
M  V30 17055 H 1587.56 -4.38219 -1.43126 0
M  V30 17056 H 1591.11 -6.91594 0.913417 0
M  V30 17057 H 1587 -6.45089 -0.230303 0
M  V30 17058 H 1587.77 -8.12385 0.998647 0
M  V30 17059 N 1590.44 0.372521 -1.53134 0
M  V30 17060 C 1591.68 1.12465 -1.70678 0
M  V30 17061 C 1592.04 1.8676 -0.445503 0
M  V30 17062 O 1593.24 2.64155 -0.497531 0
M  V30 17063 C 1591.51 2.06389 -2.91785 0
M  V30 17064 S 1593.07 2.89216 -3.3 0
M  V30 17065 H 1589.89 0.380458 -0.600644 0
M  V30 17066 H 1592.49 0.406831 -1.9122 0
M  V30 17067 H 1591.19 1.50559 -3.81786 0
M  V30 17068 H 1590.73 2.82654 -2.73624 0
M  V30 17069 H 1592.74 4.08642 -2.81471 0
M  V30 17070 N 1591.91 1.44376 0.631925 0
M  V30 17071 C 1593.16 1.46827 1.38875 0
M  V30 17072 C 1593.48 0.101789 1.94734 0
M  V30 17073 O 1592.75 -0.86579 1.7573 0
M  V30 17074 H 1591.33 0.540642 0.515475 0
M  V30 17075 H 1593.99 1.80148 0.743822 0
M  V30 17076 H 1593.09 2.19321 2.22047 0
M  V30 17077 N 1593.39 -0.872258 1.31261 0
M  V30 17078 C 1594.32 -1.99517 1.21306 0
M  V30 17079 C 1595.3 -1.69801 0.100775 0
M  V30 17080 O 1596.49 -1.92098 0.284984 0
M  V30 17081 C 1593.62 -3.34968 0.917249 0
M  V30 17082 C 1592.57 -3.78984 1.98885 0
M  V30 17083 C 1591.9 -5.11869 1.54578 0
M  V30 17084 C 1593.2 -3.96338 3.40167 0
M  V30 17085 H 1594.89 -2.08104 2.15251 0
M  V30 17086 H 1592.44 -0.999865 1.03628 0
M  V30 17087 H 1594.39 -4.1306 0.834217 0
M  V30 17088 H 1593.11 -3.26549 -0.0578721 0
M  V30 17089 H 1591.77 -3.0313 2.06174 0
M  V30 17090 H 1591.42 -4.99889 0.558581 0
M  V30 17091 H 1591.12 -5.4229 2.26265 0
M  V30 17092 H 1592.65 -5.92472 1.47678 0
M  V30 17093 H 1594.06 -4.64831 3.35566 0
M  V30 17094 H 1592.46 -4.38153 4.10051 0
M  V30 17095 H 1593.53 -2.9979 3.81122 0
M  V30 17096 N 1594.87 -1.14184 -1.08627 0
M  V30 17097 C 1596.1 -0.932104 -1.84714 0
M  V30 17098 C 1596.51 0.519335 -1.81517 0
M  V30 17099 O 1595.87 1.35978 -1.21722 0
M  V30 17100 C 1595.92 -1.42217 -3.3235 0
M  V30 17101 O 1595.64 -2.81674 -3.35547 0
M  V30 17102 C 1597.14 -1.25205 -4.25251 0
M  V30 17103 H 1594.36 -0.331854 -0.583193 0
M  V30 17104 H 1596.91 -1.51641 -1.37205 0
M  V30 17105 H 1595.06 -0.880679 -3.77257 0
M  V30 17106 H 1595.48 -3.03615 -4.2769 0
M  V30 17107 H 1596.95 -1.64358 -5.26963 0
M  V30 17108 H 1597.43 -0.194659 -4.38768 0
M  V30 17109 H 1598.03 -1.78198 -3.86168 0
M  V30 17110 N 1596.35 1.26749 -0.936613 0
M  V30 17111 C 1597.57 1.98597 -0.597817 0
M  V30 17112 C 1598 1.69324 0.8192 0
M  V30 17113 O 1597.36 0.938634 1.55111 0
M  V30 17114 C 1597.4 3.50656 -0.841007 0
M  V30 17115 O 1596.51 4.12304 0.0891038 0
M  V30 17116 H 1595.85 0.623197 -0.229176 0
M  V30 17117 H 1598.38 1.61332 -1.2583 0
M  V30 17118 H 1598.39 4.00857 -0.760093 0
M  V30 17119 H 1597.06 3.71293 -1.87388 0
M  V30 17120 H 1595.64 3.72876 -0.0424804 0
M  V30 17121 N 1597.83 0.703118 1.41046 0
M  V30 17122 C 1598.76 0.00331992 2.292 0
M  V30 17123 C 1599.77 -0.736648 1.4518 0
M  V30 17124 O 1600.96 -0.586097 1.68604 0
M  V30 17125 C 1598.06 -1.01948 3.23203 0
M  V30 17126 C 1597.23 -0.347591 4.36017 0
M  V30 17127 C 1596.29 -1.27404 5.10543 0
M  V30 17128 O 1595.32 -0.763558 5.64055 0
M  V30 17129 N 1596.52 -2.60596 5.1872 0
M  V30 17130 H 1599.29 0.760179 2.89899 0
M  V30 17131 H 1596.85 0.549747 1.52281 0
M  V30 17132 H 1598.84 -1.64115 3.6993 0
M  V30 17133 H 1597.41 -1.6778 2.63758 0
M  V30 17134 H 1596.63 0.454088 3.91576 0
M  V30 17135 H 1597.92 0.119295 5.0866 0
M  V30 17136 H 1597.31 -3.0458 4.76705 0
M  V30 17137 H 1595.87 -3.17939 5.68998 0
M  V30 17138 N 1599.3 -1.51086 0.448402 0
M  V30 17139 C 1600.55 -2.01778 -0.114116 0
M  V30 17140 C 1600.87 -1.3339 -1.4224 0
M  V30 17141 O 1600.14 -0.471938 -1.9013 0
M  V30 17142 H 1598.72 -0.745634 -0.0451624 0
M  V30 17143 H 1601.39 -1.85639 0.59364 0
M  V30 17144 H 1600.48 -3.10823 -0.28205 0
M  V30 17145 N 1600.78 -0.180154 -1.56567 0
M  V30 17146 C 1601.71 0.77825 -2.15583 0
M  V30 17147 C 1602.73 1.18746 -1.1137 0
M  V30 17148 O 1603.92 1.12578 -1.38523 0
M  V30 17149 C 1601.02 2.06024 -2.69086 0
M  V30 17150 C 1600.19 1.8132 -3.98047 0
M  V30 17151 C 1599.25 2.93823 -4.36526 0
M  V30 17152 O 1598.27 2.64075 -5.04235 0
M  V30 17153 N 1599.48 4.21823 -3.98806 0
M  V30 17154 H 1602.24 0.273661 -2.98448 0
M  V30 17155 H 1599.8 0.00232952 -1.619 0
M  V30 17156 H 1601.79 2.80398 -2.9182 0
M  V30 17157 H 1600.36 2.47648 -1.9076 0
M  V30 17158 H 1599.58 0.908046 -3.83599 0
M  V30 17159 H 1600.87 1.62194 -4.82256 0
M  V30 17160 H 1600.27 4.48849 -3.44313 0
M  V30 17161 H 1598.83 4.92871 -4.26522 0
M  V30 17162 N 1602.26 1.57322 0.0935319 0
M  V30 17163 C 1603.19 2.05208 1.11409 0
M  V30 17164 C 1604.17 0.941295 1.41681 0
M  V30 17165 O 1605.36 1.21266 1.51684 0
M  V30 17166 C 1602.49 2.47782 2.43354 0
M  V30 17167 C 1601.44 3.62538 2.27486 0
M  V30 17168 C 1600.77 3.91095 3.64622 0
M  V30 17169 C 1602.07 4.93371 1.71412 0
M  V30 17170 H 1603.76 2.9072 0.715702 0
M  V30 17171 H 1601.31 1.3986 0.342827 0
M  V30 17172 H 1603.26 2.79891 3.15022 0
M  V30 17173 H 1601.98 1.59272 2.85132 0
M  V30 17174 H 1600.64 3.30679 1.58263 0
M  V30 17175 H 1600.29 2.99749 4.0393 0
M  V30 17176 H 1599.99 4.68353 3.5485 0
M  V30 17177 H 1601.51 4.25679 4.37755 0
M  V30 17178 H 1602.93 5.23851 2.32922 0
M  V30 17179 H 1601.33 5.74804 1.72395 0
M  V30 17180 H 1602.4 4.80197 0.67368 0
M  V30 17181 N 1603.74 -0.364395 1.53329 0
M  V30 17182 C 1604.99 -1.10423 1.68789 0
M  V30 17183 C 1605.3 -1.90428 0.446819 0
M  V30 17184 O 1606.51 -2.67188 0.481978 0
M  V30 17185 C 1604.96 -2.01228 2.98388 0
M  V30 17186 C 1604.57 -1.26529 4.29761 0
M  V30 17187 C 1606.31 -2.75196 3.23214 0
M  V30 17188 C 1604.22 -2.16243 5.50448 0
M  V30 17189 H 1603.15 -0.415935 0.628899 0
M  V30 17190 H 1605.8 -0.365145 1.7983 0
M  V30 17191 H 1604.18 -2.78872 2.81152 0
M  V30 17192 H 1605.36 -0.5394 4.57632 0
M  V30 17193 H 1603.67 -0.644181 4.11387 0
M  V30 17194 H 1606.27 -3.42548 4.10567 0
M  V30 17195 H 1606.61 -3.40629 2.39327 0
M  V30 17196 H 1607.15 -2.04635 3.4113 0
M  V30 17197 H 1603.89 -1.55385 6.36817 0
M  V30 17198 H 1603.41 -2.86678 5.26855 0
M  V30 17199 H 1605.08 -2.75774 5.85284 0
M  V30 17200 N 1605.22 -1.44709 -0.62426 0
M  V30 17201 C 1606.18 -1.51738 -1.7178 0
M  V30 17202 C 1607.18 -0.398646 -1.5578 0
M  V30 17203 O 1608.37 -0.661525 -1.61151 0
M  V30 17204 C 1605.5 -1.39792 -3.1092 0
M  V30 17205 H 1606.69 -2.49154 -1.6692 0
M  V30 17206 H 1604.25 -1.31903 -0.838531 0
M  V30 17207 H 1604.98 -0.434955 -3.2137 0
M  V30 17208 H 1604.77 -2.20919 -3.2394 0
M  V30 17209 H 1606.26 -1.47706 -3.90606 0
M  V30 17210 N 1606.69 0.865285 -1.31722 0
M  V30 17211 C 1607.94 1.62108 -1.21855 0
M  V30 17212 C 1608.27 1.9293 0.221714 0
M  V30 17213 O 1607.55 1.56423 1.15595 0
M  V30 17214 C 1607.83 2.94828 -2.06756 0
M  V30 17215 C 1607.68 2.70855 -3.59107 0
M  V30 17216 C 1609 3.95983 -1.92055 0
M  V30 17217 H 1606.12 0.588234 -0.444015 0
M  V30 17218 H 1608.76 0.999922 -1.6156 0
M  V30 17219 H 1606.91 3.47843 -1.73025 0
M  V30 17220 H 1608.59 2.24477 -4.02999 0
M  V30 17221 H 1606.83 2.05004 -3.82303 0
M  V30 17222 H 1607.5 3.65312 -4.13825 0
M  V30 17223 H 1609.98 3.52193 -2.21584 0
M  V30 17224 H 1608.85 4.86724 -2.53754 0
M  V30 17225 H 1609.11 4.33148 -0.885174 0
M  V30 17226 N 1608.17 1.14759 1.0802 0
M  V30 17227 C 1609.12 0.838134 2.15044 0
M  V30 17228 C 1610.09 -0.206031 1.64817 0
M  V30 17229 O 1611.27 -0.0750812 1.90652 0
M  V30 17230 C 1608.41 0.326112 3.43556 0
M  V30 17231 C 1607.53 1.43104 4.07609 0
M  V30 17232 C 1606.66 0.875857 5.2393 0
M  V30 17233 C 1605.7 1.9582 5.79932 0
M  V30 17234 N 1604.84 1.41989 6.87593 0
M  V30 17235 H 1609.68 1.75478 2.40856 0
M  V30 17236 H 1607.22 0.875686 1.18195 0
M  V30 17237 H 1609.17 0.0110103 4.17199 0
M  V30 17238 H 1607.8 -0.55363 3.18017 0
M  V30 17239 H 1606.86 1.86247 3.31687 0
M  V30 17240 H 1608.17 2.24849 4.45246 0
M  V30 17241 H 1607.32 0.512893 6.04528 0
M  V30 17242 H 1606.06 0.0275017 4.87692 0
M  V30 17243 H 1605.07 2.33006 4.97984 0
M  V30 17244 H 1606.29 2.81021 6.18227 0
M  V30 17245 H 1604.24 0.593779 6.53307 0
M  V30 17246 H 1604.15 2.17367 7.24077 0
M  V30 17247 H 1605.42 1.08495 7.71913 0
M  V30 17248 N 1609.65 -1.26251 0.943322 0
M  V30 17249 C 1610.58 -2.25468 0.411904 0
M  V30 17250 C 1611.6 -1.55988 -0.466005 0
M  V30 17251 O 1612.78 -1.76352 -0.276106 0
M  V30 17252 C 1609.88 -3.362 -0.426909 0
M  V30 17253 C 1609.06 -4.35228 0.435346 0
M  V30 17254 C 1608.12 -5.25078 -0.343388 0
M  V30 17255 O 1607.14 -5.68632 0.254322 0
M  V30 17256 N 1608.34 -5.5687 -1.63939 0
M  V30 17257 H 1611.11 -2.71701 1.26486 0
M  V30 17258 H 1608.67 -1.40039 0.812438 0
M  V30 17259 H 1610.66 -3.93263 -0.955316 0
M  V30 17260 H 1609.23 -2.89446 -1.18067 0
M  V30 17261 H 1608.45 -3.77206 1.14495 0
M  V30 17262 H 1609.74 -4.98384 1.02427 0
M  V30 17263 H 1609.14 -5.2337 -2.14709 0
M  V30 17264 H 1607.7 -6.16566 -2.11399 0
M  V30 17265 N 1611.13 -0.710588 -1.40671 0
M  V30 17266 C 1612.38 -0.248316 -2.01274 0
M  V30 17267 C 1612.71 1.1539 -1.56201 0
M  V30 17268 O 1611.98 1.78182 -0.779838 0
M  V30 17269 C 1612.27 -0.322762 -3.58651 0
M  V30 17270 C 1612.12 -1.763 -4.1381 0
M  V30 17271 C 1613.44 0.308908 -4.39015 0
M  V30 17272 H 1610.56 -0.0917037 -0.731272 0
M  V30 17273 H 1613.2 -0.902145 -1.67216 0
M  V30 17274 H 1611.35 0.233923 -3.87795 0
M  V30 17275 H 1613.02 -2.37468 -3.95483 0
M  V30 17276 H 1611.26 -2.29233 -3.68286 0
M  V30 17277 H 1611.94 -1.76652 -5.22971 0
M  V30 17278 H 1614.41 -0.165363 -4.15771 0
M  V30 17279 H 1613.29 0.226347 -5.48433 0
M  V30 17280 H 1613.55 1.39174 -4.19622 0
M  V30 17281 N 1612.61 1.50847 -0.456408 0
M  V30 17282 C 1613.57 2.26755 0.33388 0
M  V30 17283 C 1614.57 1.30947 0.933247 0
M  V30 17284 O 1615.76 1.54499 0.804716 0
M  V30 17285 C 1612.89 3.07378 1.47417 0
M  V30 17286 H 1614.09 2.98061 -0.331634 0
M  V30 17287 H 1611.64 1.54882 -0.210067 0
M  V30 17288 H 1612.37 2.40534 2.17518 0
M  V30 17289 H 1612.16 3.7777 1.05036 0
M  V30 17290 H 1613.65 3.64826 2.03204 0
M  V30 17291 N 1614.09 0.188454 1.56469 0
M  V30 17292 C 1615.02 -0.730379 2.21783 0
M  V30 17293 C 1616 -1.22629 1.17882 0
M  V30 17294 O 1617.18 -1.27634 1.46367 0
M  V30 17295 C 1614.31 -1.95278 2.872 0
M  V30 17296 C 1613.27 -1.59205 3.97288 0
M  V30 17297 C 1612.59 -2.89052 4.49836 0
M  V30 17298 C 1613.89 -0.807027 5.16027 0
M  V30 17299 H 1615.59 -0.185914 2.98822 0
M  V30 17300 H 1613.13 -0.0879804 1.43731 0
M  V30 17301 H 1615.08 -2.60074 3.31571 0
M  V30 17302 H 1613.81 -2.52167 2.07556 0
M  V30 17303 H 1612.47 -0.967713 3.53597 0
M  V30 17304 H 1612.12 -3.44017 3.66963 0
M  V30 17305 H 1611.82 -2.65663 5.24115 0
M  V30 17306 H 1613.34 -3.54847 4.96906 0
M  V30 17307 H 1614.75 -1.35794 5.56986 0
M  V30 17308 H 1613.15 -0.671516 5.96331 0
M  V30 17309 H 1614.22 0.193251 4.84515 0
M  V30 17310 N 1615.56 -1.5737 -0.0851874 0
M  V30 17311 C 1616.84 -1.77624 -0.819094 0
M  V30 17312 C 1617.22 -0.772645 -1.96452 0
M  V30 17313 O 1616.57 0.196912 -2.2765 0
M  V30 17314 C 1616.78 -3.23704 -1.30449 0
M  V30 17315 C 1618.13 -3.87163 -1.74328 0
M  V30 17316 O 1619.15 -3.27513 -1.40048 0
M  V30 17317 O 1618.01 -4.92075 -2.37748 0
M  V30 17318 H 1615.1 -0.728487 -0.391453 0
M  V30 17319 H 1617.65 -1.6957 -0.0663006 0
M  V30 17320 H 1616.42 -3.88292 -0.484277 0
M  V30 17321 H 1616.04 -3.36429 -2.119 0
M  V30 17322 N 1617.04 0.356258 -1.53521 0
M  V30 17323 C 1618.27 1.11828 -1.74075 0
M  V30 17324 C 1618.68 1.82753 -0.473998 0
M  V30 17325 O 1618.04 1.73899 0.553649 0
M  V30 17326 C 1618.09 2.14149 -2.91243 0
M  V30 17327 O 1617.81 1.4611 -4.13017 0
M  V30 17328 C 1619.31 3.02826 -3.23746 0
M  V30 17329 H 1616.53 0.334002 -0.581965 0
M  V30 17330 H 1619.08 0.412336 -2.003 0
M  V30 17331 H 1617.23 2.80328 -2.67386 0
M  V30 17332 H 1617.65 2.1436 -4.78696 0
M  V30 17333 H 1619.12 3.70583 -4.09112 0
M  V30 17334 H 1619.6 3.68149 -2.39505 0
M  V30 17335 H 1620.2 2.42252 -3.49563 0
M  V30 17336 N 1618.52 1.45038 0.616577 0
M  V30 17337 C 1619.74 1.52321 1.40759 0
M  V30 17338 C 1620.17 0.15375 1.87471 0
M  V30 17339 O 1619.53 -0.859908 1.5961 0
M  V30 17340 C 1619.58 2.50464 2.59423 0
M  V30 17341 O 1618.68 2.01623 3.59753 0
M  V30 17342 H 1618.02 0.513808 0.420592 0
M  V30 17343 H 1620.55 1.90309 0.751234 0
M  V30 17344 H 1620.56 2.68977 3.06783 0
M  V30 17345 H 1619.24 3.4993 2.24771 0
M  V30 17346 H 1617.81 1.92945 3.19103 0
M  V30 17347 N 1620 -0.858287 1.32179 0
M  V30 17348 C 1620.95 -1.98796 1.2076 0
M  V30 17349 C 1621.94 -1.69021 0.11322 0
M  V30 17350 O 1623.15 -1.77873 0.275903 0
M  V30 17351 H 1619.52 -0.652269 0.374232 0
M  V30 17352 H 1621.49 -2.05555 2.1631 0
M  V30 17353 C 1620.24 -3.34646 0.943787 0
M  V30 17354 H 1619.56 -3.58084 1.77808 0
M  V30 17355 H 1621 -4.14248 0.904121 0
M  V30 17356 C 1619.46 -3.35041 -0.353477 0
M  V30 17357 O 1619.99 -3.77742 -1.36652 0
M  V30 17358 N 1618.2 -2.88181 -0.374164 0
M  V30 17359 H 1617.75 -2.53626 0.45075 0
M  V30 17360 H 1617.7 -2.88828 -1.24201 0
M  V30 17361 N 1621.48 -1.1533 -1.07409 0
M  V30 17362 C 1622.42 -0.849527 -2.14597 0
M  V30 17363 C 1623.39 0.197288 -1.64924 0
M  V30 17364 O 1624.58 0.0649694 -1.90689 0
M  V30 17365 C 1621.72 -0.344327 -3.43378 0
M  V30 17366 C 1620.83 -1.45264 -4.06844 0
M  V30 17367 C 1619.97 -0.90363 -5.23458 0
M  V30 17368 C 1619 -1.98892 -5.78885 0
M  V30 17369 N 1618.14 -1.45633 -6.8683 0
M  V30 17370 H 1622.98 -1.76753 -2.39922 0
M  V30 17371 H 1620.52 -0.881942 -1.17729 0
M  V30 17372 H 1622.48 -0.0331352 -4.17187 0
M  V30 17373 H 1621.11 0.536757 -3.18306 0
M  V30 17374 H 1620.16 -1.88003 -3.30695 0
M  V30 17375 H 1621.47 -2.27207 -4.44048 0
M  V30 17376 H 1620.62 -0.544945 -6.04248 0
M  V30 17377 H 1619.36 -0.0533648 -4.87671 0
M  V30 17378 H 1618.37 -2.35644 -4.96741 0
M  V30 17379 H 1619.59 -2.84295 -6.16728 0
M  V30 17380 H 1617.54 -0.628417 -6.52983 0
M  V30 17381 H 1617.46 -2.21204 -7.22914 0
M  V30 17382 H 1618.72 -1.12587 -7.71326 0
M  V30 17383 N 1622.95 1.25748 -0.950004 0
M  V30 17384 C 1623.88 2.28419 -0.484467 0
M  V30 17385 C 1624.86 1.63569 0.466813 0
M  V30 17386 O 1626.05 1.90705 0.366766 0
M  V30 17387 C 1623.18 3.46449 0.242916 0
M  V30 17388 C 1622.13 4.23447 -0.622657 0
M  V30 17389 C 1621.46 5.34182 0.235199 0
M  V30 17390 C 1622.76 4.86576 -1.89845 0
M  V30 17391 H 1624.45 2.6761 -1.34257 0
M  V30 17392 H 1622 1.28646 -0.647014 0
M  V30 17393 H 1623.95 4.17394 0.579693 0
M  V30 17394 H 1622.68 3.06235 1.13523 0
M  V30 17395 H 1621.34 3.54279 -0.942453 0
M  V30 17396 H 1620.98 4.90209 1.12713 0
M  V30 17397 H 1620.68 5.86612 -0.340609 0
M  V30 17398 H 1622.21 6.07961 0.567048 0
M  V30 17399 H 1623.62 5.49688 -1.62837 0
M  V30 17400 H 1622.02 5.49162 -2.41954 0
M  V30 17401 H 1623.09 4.09021 -2.60441 0
M  V30 17402 N 1624.43 0.718038 1.40292 0
M  V30 17403 C 1625.39 0.0757483 2.29075 0
M  V30 17404 C 1626.39 -0.684831 1.45488 0
M  V30 17405 O 1627.58 -0.516369 1.66371 0
M  V30 17406 C 1624.72 -0.902534 3.28736 0
M  V30 17407 H 1625.91 0.857729 2.87373 0
M  V30 17408 H 1623.46 0.482839 1.48655 0
M  V30 17409 H 1624.2 -1.71148 2.75461 0
M  V30 17410 H 1623.98 -0.360009 3.90444 0
M  V30 17411 H 1625.47 -1.34903 3.9521 0
M  V30 17412 N 1625.91 -1.50602 0.464402 0
M  V30 17413 C 1626.87 -2.26929 -0.32185 0
M  V30 17414 C 1627.87 -1.3144 -0.926289 0
M  V30 17415 O 1629.06 -1.54924 -0.796511 0
M  V30 17416 C 1626.2 -3.08155 -1.45785 0
M  V30 17417 H 1627.39 -2.97881 0.347436 0
M  V30 17418 H 1624.94 -1.54768 0.218278 0
M  V30 17419 H 1625.68 -2.41684 -2.16239 0
M  V30 17420 H 1625.46 -3.78321 -1.03031 0
M  V30 17421 H 1626.95 -3.65899 -2.01266 0
M  V30 17422 N 1627.39 -0.19675 -1.56367 0
M  V30 17423 C 1628.3 0.735372 -2.22777 0
M  V30 17424 C 1629.31 1.23336 -1.22737 0
M  V30 17425 O 1630.49 1.28017 -1.55479 0
M  V30 17426 C 1627.56 1.93706 -2.8754 0
M  V30 17427 C 1626.62 1.48348 -4.02854 0
M  V30 17428 C 1625.85 2.62788 -4.64519 0
M  V30 17429 O 1626.07 3.80311 -4.25111 0
M  V30 17430 O 1625.01 2.35406 -5.53956 0
M  V30 17431 H 1628.83 0.199788 -3.03042 0
M  V30 17432 H 1626.42 0.0326149 -1.49364 0
M  V30 17433 H 1628.3 2.63934 -3.28507 0
M  V30 17434 H 1626.97 2.46121 -2.10252 0
M  V30 17435 H 1625.88 0.749939 -3.66506 0
M  V30 17436 H 1627.21 1.00597 -4.8181 0
M  V30 17437 N 1628.87 1.57413 0.0768405 0
M  V30 17438 C 1629.81 2.0334 1.09185 0
M  V30 17439 C 1630.78 0.913073 1.38752 0
M  V30 17440 O 1631.97 1.18038 1.49906 0
M  V30 17441 C 1629.11 2.47805 2.40181 0
M  V30 17442 C 1628.22 3.73435 2.17188 0
M  V30 17443 C 1627.36 4.06703 3.41711 0
M  V30 17444 C 1626.4 5.25388 3.1406 0
M  V30 17445 N 1625.53 5.54319 4.309 0
M  V30 17446 H 1630.37 2.89825 0.693223 0
M  V30 17447 H 1627.91 1.43334 0.330736 0
M  V30 17448 H 1629.87 2.71635 3.16655 0
M  V30 17449 H 1628.5 1.64305 2.77856 0
M  V30 17450 H 1627.55 3.56974 1.3143 0
M  V30 17451 H 1628.86 4.60049 1.9276 0
M  V30 17452 H 1628.02 4.31407 4.26583 0
M  V30 17453 H 1626.75 3.18646 3.6921 0
M  V30 17454 H 1625.76 5.00486 2.27583 0
M  V30 17455 H 1626.98 6.15059 2.87888 0
M  V30 17456 H 1624.93 4.69222 4.5844 0
M  V30 17457 H 1624.85 6.35342 4.09727 0
M  V30 17458 H 1626.12 5.83571 5.16783 0
M  V30 17459 N 1630.34 -0.348112 1.53707 0
M  V30 17460 C 1631.25 -1.45079 1.84361 0
M  V30 17461 C 1632.27 -1.5779 0.733375 0
M  V30 17462 O 1633.45 -1.73353 1.02522 0
M  V30 17463 C 1630.51 -2.80127 2.04278 0
M  V30 17464 C 1629.57 -2.76799 3.28148 0
M  V30 17465 C 1628.81 -4.05406 3.47105 0
M  V30 17466 O 1629.03 -5.02454 2.69992 0
M  V30 17467 O 1627.96 -4.10155 4.40519 0
M  V30 17468 H 1631.79 -1.22093 2.78077 0
M  V30 17469 H 1629.37 -0.539863 1.39305 0
M  V30 17470 H 1631.26 -3.60115 2.18849 0
M  V30 17471 H 1629.93 -3.03055 1.13751 0
M  V30 17472 H 1628.84 -1.95448 3.18984 0
M  V30 17473 H 1630.17 -2.58826 4.18653 0
M  V30 17474 N 1631.82 -1.45363 -0.608876 0
M  V30 17475 C 1633.05 -1.52614 -1.39257 0
M  V30 17476 C 1633.46 -0.157106 -1.88547 0
M  V30 17477 O 1632.8 0.851329 -1.62782 0
M  V30 17478 C 1632.87 -2.44821 -2.63255 0
M  V30 17479 C 1632.53 -3.91582 -2.35612 0
M  V30 17480 C 1633.53 -4.81517 -1.96054 0
M  V30 17481 C 1631.21 -4.36488 -2.48564 0
M  V30 17482 C 1633.21 -6.14365 -1.69808 0
M  V30 17483 C 1630.89 -5.69377 -2.21931 0
M  V30 17484 C 1631.89 -6.58135 -1.82614 0
M  V30 17485 O 1631.58 -7.88561 -1.56292 0
M  V30 17486 H 1631.31 -0.51935 -0.432726 0
M  V30 17487 H 1633.86 -1.91227 -0.749768 0
M  V30 17488 H 1632.09 -2.01177 -3.30249 0
M  V30 17489 H 1633.78 -2.4277 -3.25296 0
M  V30 17490 H 1634.55 -4.48088 -1.85585 0
M  V30 17491 H 1630.43 -3.67646 -2.78133 0
M  V30 17492 H 1633.97 -6.83602 -1.39045 0
M  V30 17493 H 1629.87 -6.02361 -2.32016 0
M  V30 17494 H 1630.64 -8.00576 -1.70355 0
M  V30 17495 N 1633.3 0.851265 -1.32632 0
M  V30 17496 C 1634.72 1.14 -1.11696 0
M  V30 17497 C 1634.92 2.0125 0.100327 0
M  V30 17498 O 1633.97 2.40013 0.784233 0
M  V30 17499 C 1635.29 1.81406 -2.39817 0
M  V30 17500 C 1636.83 1.94027 -2.45607 0
M  V30 17501 C 1637.31 2.64848 -3.73657 0
M  V30 17502 N 1638.8 2.7237 -3.74658 0
M  V30 17503 C 1639.53 3.27827 -4.70443 0
M  V30 17504 N 1639.03 3.84068 -5.76596 0
M  V30 17505 N 1640.82 3.25962 -4.57936 0
M  V30 17506 H 1632.97 0.270302 -2.10673 0
M  V30 17507 H 1635.24 0.182395 -0.930288 0
M  V30 17508 H 1634.94 1.24753 -3.28831 0
M  V30 17509 H 1634.82 2.81535 -2.51034 0
M  V30 17510 H 1637.2 2.49838 -1.5705 0
M  V30 17511 H 1637.29 0.928844 -2.3834 0
M  V30 17512 H 1636.93 2.09699 -4.62589 0
M  V30 17513 H 1636.86 3.66436 -3.78196 0
M  V30 17514 H 1639.35 2.32474 -2.97933 0
M  V30 17515 H 1639.66 4.24551 -6.45737 0
M  V30 17516 H 1638.01 3.82391 -5.80347 0
M  V30 17517 H 1641.2 2.81274 -3.74169 0
M  V30 17518 H 1641.37 3.68881 -5.32758 0
M  V30 17519 N 1634.78 1.15898 1.06796 0
M  V30 17520 C 1635.73 0.860895 2.14143 0
M  V30 17521 C 1636.7 -0.188539 1.65026 0
M  V30 17522 O 1637.88 -0.0548558 1.90721 0
M  V30 17523 C 1635.02 0.362533 3.4319 0
M  V30 17524 C 1634.13 1.4742 4.06068 0
M  V30 17525 C 1633.27 0.931377 5.22971 0
M  V30 17526 C 1632.31 2.0196 5.77822 0
M  V30 17527 N 1631.44 1.49274 6.86048 0
M  V30 17528 H 1636.28 1.78023 2.38981 0
M  V30 17529 H 1633.82 0.888173 1.1726 0
M  V30 17530 H 1635.78 0.0552592 4.17163 0
M  V30 17531 H 1634.41 -0.519869 3.18586 0
M  V30 17532 H 1633.46 1.89754 3.29693 0
M  V30 17533 H 1634.77 2.29559 4.42836 0
M  V30 17534 H 1633.93 0.576982 6.0395 0
M  V30 17535 H 1632.67 0.0792265 4.87636 0
M  V30 17536 H 1631.67 2.38275 4.95485 0
M  V30 17537 H 1632.9 2.87562 6.15211 0
M  V30 17538 H 1630.84 0.663037 6.52641 0
M  V30 17539 H 1630.76 2.25035 7.21731 0
M  V30 17540 H 1632.03 1.16676 7.70718 0
M  V30 17541 N 1636.26 -1.25243 0.956659 0
M  V30 17542 C 1637.19 -2.28159 0.496574 0
M  V30 17543 C 1638.17 -1.63814 -0.458132 0
M  V30 17544 O 1639.35 -1.90897 -0.356648 0
M  V30 17545 C 1636.48 -3.46573 -0.22454 0
M  V30 17546 C 1635.44 -4.2311 0.645104 0
M  V30 17547 C 1634.76 -5.343 -0.206867 0
M  V30 17548 C 1636.06 -4.85562 1.92422 0
M  V30 17549 H 1637.76 -2.66895 1.35675 0
M  V30 17550 H 1635.3 -1.28301 0.653827 0
M  V30 17551 H 1637.26 -4.17695 -0.55755 0
M  V30 17552 H 1635.98 -3.06833 -1.11898 0
M  V30 17553 H 1634.64 -3.53774 0.961228 0
M  V30 17554 H 1634.29 -4.908 -1.10112 0
M  V30 17555 H 1633.99 -5.86423 0.371714 0
M  V30 17556 H 1635.51 -6.08253 -0.534798 0
M  V30 17557 H 1636.92 -5.48817 1.65749 0
M  V30 17558 H 1635.32 -5.47871 2.44862 0
M  V30 17559 H 1636.39 -4.07634 2.62607 0
M  V30 17560 N 1637.73 -0.725468 -1.3991 0
M  V30 17561 C 1638.67 -0.0397832 -2.29165 0
M  V30 17562 C 1639.68 0.713458 -1.46334 0
M  V30 17563 O 1640.87 0.559199 -1.69515 0
M  V30 17564 C 1637.97 0.967929 -3.24784 0
M  V30 17565 C 1637.14 0.278181 -4.36515 0
M  V30 17566 C 1636.2 1.19266 -5.12506 0
M  V30 17567 O 1635.23 0.673726 -5.65199 0
M  V30 17568 N 1636.43 2.5231 -5.228 0
M  V30 17569 H 1639.19 -0.806204 -2.88653 0
M  V30 17570 H 1636.75 -0.573904 -1.51387 0
M  V30 17571 H 1638.75 1.58209 -3.72494 0
M  V30 17572 H 1637.32 1.63563 -2.66394 0
M  V30 17573 H 1636.54 -0.516326 -3.90804 0
M  V30 17574 H 1637.82 -0.200203 -5.08406 0
M  V30 17575 H 1637.22 2.96957 -4.8149 0
M  V30 17576 H 1635.78 3.08846 -5.73984 0
M  V30 17577 N 1639.21 1.50354 -0.472382 0
M  V30 17578 C 1640.12 2.32318 0.326405 0
M  V30 17579 C 1641.14 1.4276 0.994771 0
M  V30 17580 O 1642.31 1.75811 0.98246 0
M  V30 17581 C 1639.38 3.17468 1.39337 0
M  V30 17582 C 1638.44 4.22848 0.741465 0
M  V30 17583 C 1637.67 5.03929 1.75759 0
M  V30 17584 O 1637.9 4.86105 2.98425 0
M  V30 17585 O 1636.83 5.87051 1.32871 0
M  V30 17586 H 1640.66 3.01749 -0.343702 0
M  V30 17587 H 1638.24 1.47553 -0.234207 0
M  V30 17588 H 1640.12 3.703 2.01136 0
M  V30 17589 H 1638.8 2.50764 2.04692 0
M  V30 17590 H 1637.71 3.74005 0.0844848 0
M  V30 17591 H 1639.04 4.92026 0.130838 0
M  V30 17592 N 1640.69 0.205039 1.56261 0
M  V30 17593 C 1641.6 -0.723548 2.23164 0
M  V30 17594 C 1642.62 -1.22683 1.23389 0
M  V30 17595 O 1643.79 -1.27191 1.56155 0
M  V30 17596 C 1640.86 -1.92178 2.88563 0
M  V30 17597 C 1639.92 -1.46209 4.03635 0
M  V30 17598 C 1639.15 -2.60321 4.65906 0
M  V30 17599 O 1639.38 -3.78051 4.27122 0
M  V30 17600 O 1638.31 -2.32465 5.55197 0
M  V30 17601 H 1642.14 -0.183715 3.03144 0
M  V30 17602 H 1639.72 -0.0246933 1.4938 0
M  V30 17603 H 1641.6 -2.62188 3.29902 0
M  V30 17604 H 1640.28 -2.45003 2.11555 0
M  V30 17605 H 1639.18 -0.730492 3.66899 0
M  V30 17606 H 1640.52 -0.980402 4.82337 0
M  V30 17607 N 1642.17 -1.57451 -0.0684915 0
M  V30 17608 C 1643.42 -1.87689 -0.768156 0
M  V30 17609 C 1643.75 -0.79776 -1.77058 0
M  V30 17610 O 1643.02 0.191614 -1.93554 0
M  V30 17611 C 1643.31 -3.28587 -1.47319 0
M  V30 17612 C 1643.16 -4.47156 -0.486954 0
M  V30 17613 C 1644.48 -3.67772 -2.41727 0
M  V30 17614 H 1641.6 -0.682642 -0.277793 0
M  V30 17615 H 1644.24 -1.89974 -0.0312968 0
M  V30 17616 H 1642.39 -3.26769 -2.10129 0
M  V30 17617 H 1644.06 -4.61099 0.136189 0
M  V30 17618 H 1642.3 -4.33351 0.197429 0
M  V30 17619 H 1642.98 -5.42533 -1.01795 0
M  V30 17620 H 1645.45 -3.70704 -1.88992 0
M  V30 17621 H 1644.33 -4.6724 -2.88059 0
M  V30 17622 H 1644.59 -2.97882 -3.26679 0
M  V30 17623 N 1643.65 0.339955 -1.5389 0
M  V30 17624 C 1644.92 1.09703 -1.6194 0
M  V30 17625 C 1645.3 2.06401 -0.442907 0
M  V30 17626 O 1644.65 2.21418 0.564477 0
M  V30 17627 C 1644.86 1.8135 -2.98183 0
M  V30 17628 C 1646.21 2.34965 -3.53662 0
M  V30 17629 O 1647.23 1.91442 -3.00381 0
M  V30 17630 O 1646.09 3.14601 -4.46865 0
M  V30 17631 H 1643.19 0.504703 -0.655136 0
M  V30 17632 H 1645.73 0.34116 -1.66235 0
M  V30 17633 H 1644.51 1.10924 -3.75249 0
M  V30 17634 H 1644.13 2.63787 -2.97494 0
M  V30 17635 N 1645.13 1.45684 0.601159 0
M  V30 17636 C 1646.06 1.57694 1.72206 0
M  V30 17637 C 1647.04 0.428141 1.64624 0
M  V30 17638 O 1648.22 0.65209 1.82925 0
M  V30 17639 C 1645.35 1.54941 3.10822 0
M  V30 17640 C 1644.31 2.68603 3.33222 0
M  V30 17641 C 1643.63 2.50906 4.72176 0
M  V30 17642 C 1644.93 4.10568 3.22849 0
M  V30 17643 H 1646.63 2.51521 1.62412 0
M  V30 17644 H 1644.17 1.2105 0.779929 0
M  V30 17645 H 1646.12 1.61939 3.89042 0
M  V30 17646 H 1644.85 0.576471 3.21472 0
M  V30 17647 H 1643.51 2.61043 2.57394 0
M  V30 17648 H 1643.16 1.51736 4.79568 0
M  V30 17649 H 1642.86 3.27131 4.88118 0
M  V30 17650 H 1644.38 2.59767 5.52588 0
M  V30 17651 H 1645.79 4.19336 3.90935 0
M  V30 17652 H 1644.19 4.87234 3.50318 0
M  V30 17653 H 1645.26 4.32022 2.20192 0
M  V30 17654 N 1646.6 -0.84422 1.33082 0
M  V30 17655 C 1647.53 -1.96899 1.25511 0
M  V30 17656 C 1648.51 -1.69549 0.13677 0
M  V30 17657 O 1649.7 -1.9145 0.325667 0
M  V30 17658 C 1646.83 -3.32947 0.988094 0
M  V30 17659 C 1645.78 -3.7468 2.06879 0
M  V30 17660 C 1645.11 -5.08475 1.65401 0
M  V30 17661 C 1646.41 -3.89033 3.48498 0
M  V30 17662 H 1648.1 -2.03491 2.19617 0
M  V30 17663 H 1645.65 -0.977659 1.05725 0
M  V30 17664 H 1647.6 -4.11198 0.921645 0
M  V30 17665 H 1646.33 -3.26598 0.0114067 0
M  V30 17666 H 1644.99 -2.98689 2.12557 0
M  V30 17667 H 1644.63 -4.98592 0.66449 0
M  V30 17668 H 1644.33 -5.37368 2.37717 0
M  V30 17669 H 1645.86 -5.89207 1.60212 0
M  V30 17670 H 1647.27 -4.57609 3.4535 0
M  V30 17671 H 1645.67 -4.29357 4.19253 0
M  V30 17672 H 1646.74 -2.91639 3.87395 0
M  V30 17673 N 1648.08 -1.16463 -1.0618 0
M  V30 17674 C 1649.03 -0.87224 -2.13683 0
M  V30 17675 C 1650 0.179784 -1.65124 0
M  V30 17676 O 1651.18 0.0447406 -1.90748 0
M  V30 17677 C 1648.32 -0.380728 -3.42993 0
M  V30 17678 C 1647.44 -1.49571 -4.05281 0
M  V30 17679 C 1646.57 -0.959099 -5.2247 0
M  V30 17680 C 1645.61 -2.05021 -5.76743 0
M  V30 17681 N 1644.75 -1.5291 -6.85247 0
M  V30 17682 H 1649.59 -1.79288 -2.38033 0
M  V30 17683 H 1647.12 -0.894379 -1.16787 0
M  V30 17684 H 1649.08 -0.0773816 -4.17128 0
M  V30 17685 H 1647.71 0.502966 -3.18857 0
M  V30 17686 H 1646.76 -1.915 -3.28682 0
M  V30 17687 H 1648.08 -2.31904 -4.41613 0
M  V30 17688 H 1647.23 -0.609003 -6.03636 0
M  V30 17689 H 1645.97 -0.105086 -4.87587 0
M  V30 17690 H 1644.97 -2.40899 -4.94214 0
M  V30 17691 H 1646.2 -2.90821 -6.13678 0
M  V30 17692 H 1644.15 -0.697639 -6.5228 0
M  V30 17693 H 1644.06 -2.28859 -7.20527 0
M  V30 17694 H 1645.33 -1.20762 -7.70089 0
M  V30 17695 N 1649.56 1.24734 -0.963288 0
M  V30 17696 C 1650.52 2.23795 -0.494824 0
M  V30 17697 C 1651.52 1.55584 0.406225 0
M  V30 17698 O 1652.71 1.73021 0.202302 0
M  V30 17699 C 1649.84 3.39715 0.283963 0
M  V30 17700 H 1651.04 2.66753 -1.37051 0
M  V30 17701 H 1648.59 1.37271 -0.747428 0
M  V30 17702 H 1649.33 3.0219 1.17693 0
M  V30 17703 H 1649.11 3.9042 -0.362586 0
M  V30 17704 H 1650.6 4.13254 0.600899 0
M  V30 17705 N 1651.04 0.732878 1.39523 0
M  V30 17706 C 1651.97 0.106583 2.33257 0
M  V30 17707 C 1652.95 -0.726582 1.53801 0
M  V30 17708 O 1654.13 -0.671994 1.82203 0
M  V30 17709 C 1651.26 -0.803051 3.37888 0
M  V30 17710 C 1650.22 -0.0742048 4.27936 0
M  V30 17711 C 1649.54 -1.10071 5.23248 0
M  V30 17712 C 1650.84 1.08195 5.10971 0
M  V30 17713 H 1652.54 0.889539 2.8588 0
M  V30 17714 H 1650.08 0.429209 1.37455 0
M  V30 17715 H 1652.04 -1.25071 4.02412 0
M  V30 17716 H 1650.76 -1.6181 2.83699 0
M  V30 17717 H 1649.42 0.35381 3.64889 0
M  V30 17718 H 1649.07 -1.90927 4.65356 0
M  V30 17719 H 1648.77 -0.617825 5.84343 0
M  V30 17720 H 1650.29 -1.54812 5.90649 0
M  V30 17721 H 1651.71 0.712835 5.68851 0
M  V30 17722 H 1650.1 1.49433 5.81197 0
M  V30 17723 H 1651.17 1.90463 4.45928 0
M  V30 17724 N 1652.52 -1.50101 0.480349 0
M  V30 17725 C 1653.46 -2.28722 -0.308993 0
M  V30 17726 C 1654.43 -1.34186 -0.978948 0
M  V30 17727 O 1655.62 -1.6313 -0.989602 0
M  V30 17728 C 1652.76 -3.16322 -1.37966 0
M  V30 17729 C 1651.87 -4.25898 -0.723552 0
M  V30 17730 C 1651.01 -5.00741 -1.7729 0
M  V30 17731 C 1650.04 -6.0218 -1.09754 0
M  V30 17732 N 1649.18 -6.70266 -2.09015 0
M  V30 17733 H 1654.02 -2.95722 0.367739 0
M  V30 17734 H 1651.56 -1.45826 0.193197 0
M  V30 17735 H 1653.52 -3.65469 -2.01217 0
M  V30 17736 H 1652.15 -2.51349 -2.02543 0
M  V30 17737 H 1651.2 -3.80394 0.0217507 0
M  V30 17738 H 1652.51 -4.98435 -0.190905 0
M  V30 17739 H 1651.66 -5.53653 -2.48098 0
M  V30 17740 H 1650.4 -4.27931 -2.33937 0
M  V30 17741 H 1649.41 -5.48519 -0.375123 0
M  V30 17742 H 1650.63 -6.76967 -0.537841 0
M  V30 17743 H 1648.58 -6.00242 -2.64662 0
M  V30 17744 H 1648.5 -7.3871 -1.6076 0
M  V30 17745 H 1649.76 -7.27792 -2.79175 0
M  V30 17746 N 1653.99 -0.213323 -1.5615 0
M  V30 17747 C 1654.94 0.713371 -2.16553 0
M  V30 17748 C 1655.93 1.16341 -1.11147 0
M  V30 17749 O 1657.12 1.11877 -1.37159 0
M  V30 17750 C 1654.25 1.92487 -2.8426 0
M  V30 17751 C 1653.33 1.49489 -3.9688 0
M  V30 17752 N 1653.73 0.776985 -4.99797 0
M  V30 17753 C 1652.02 1.78281 -4.08818 0
M  V30 17754 C 1652.72 0.558882 -5.79009 0
M  V30 17755 N 1651.7 1.11311 -5.32082 0
M  V30 17756 H 1655.5 0.156357 -2.93484 0
M  V30 17757 H 1653.02 -0.0142491 -1.62394 0
M  V30 17758 H 1655.01 2.59942 -3.25938 0
M  V30 17759 H 1653.67 2.48643 -2.08822 0
M  V30 17760 H 1654.68 0.430529 -5.16107 0
M  V30 17761 H 1651.36 2.35816 -3.44524 0
M  V30 17762 H 1652.75 -0.0119209 -6.71899 0
M  V30 17763 N 1655.47 1.57485 0.0601405 0
M  V30 17764 C 1656.72 1.88094 0.758192 0
M  V30 17765 C 1657.05 0.807138 1.76632 0
M  V30 17766 O 1656.33 -0.181347 1.93653 0
M  V30 17767 C 1656.61 3.29363 1.45574 0
M  V30 17768 C 1656.46 4.47408 0.463233 0
M  V30 17769 C 1657.78 3.69048 2.39773 0
M  V30 17770 H 1654.9 0.684106 0.274169 0
M  V30 17771 H 1657.54 1.89988 0.0212215 0
M  V30 17772 H 1655.69 3.27879 2.08393 0
M  V30 17773 H 1657.36 4.6102 -0.160641 0
M  V30 17774 H 1655.61 4.3324 -0.220408 0
M  V30 17775 H 1656.28 5.43065 0.989164 0
M  V30 17776 H 1658.75 3.71701 1.87024 0
M  V30 17777 H 1657.63 4.68761 2.85577 0
M  V30 17778 H 1657.89 2.9961 3.25094 0
M  V30 17779 N 1656.95 -0.331789 1.54068 0
M  V30 17780 C 1657.9 -1.42815 1.83593 0
M  V30 17781 C 1658.89 -1.53931 0.707231 0
M  V30 17782 O 1660.1 -1.56414 0.890763 0
M  V30 17783 H 1656.47 -0.476418 0.581833 0
M  V30 17784 H 1658.44 -1.15133 2.75294 0
M  V30 17785 C 1657.19 -2.79162 2.07277 0
M  V30 17786 H 1656.52 -2.7138 2.93586 0
M  V30 17787 H 1657.96 -3.54966 2.31895 0
M  V30 17788 C 1656.42 -3.25691 0.861816 0
M  V30 17789 O 1656.95 -4.01644 0.0670133 0
M  V30 17790 N 1655.15 -2.82634 0.675746 0
M  V30 17791 H 1654.7 -2.20988 1.32371 0
M  V30 17792 H 1654.66 -3.14119 -0.133004 0
M  V30 17793 N 1658.43 -1.46001 -0.593424 0
M  V30 17794 C 1659.68 -1.50025 -1.34816 0
M  V30 17795 C 1659.99 -0.151905 -1.95009 0
M  V30 17796 O 1661.2 -0.0698751 -2.7141 0
M  V30 17797 C 1659.65 -2.643 -2.44282 0
M  V30 17798 C 1659.26 -4.05509 -1.90438 0
M  V30 17799 C 1661 -2.77584 -3.21165 0
M  V30 17800 C 1658.91 -5.11142 -2.97469 0
M  V30 17801 H 1657.84 -0.558299 -0.506772 0
M  V30 17802 H 1660.49 -1.72182 -0.634484 0
M  V30 17803 H 1658.87 -2.35453 -3.18399 0
M  V30 17804 H 1660.05 -4.44099 -1.22935 0
M  V30 17805 H 1658.36 -3.96798 -1.26256 0
M  V30 17806 H 1660.96 -3.53673 -4.01023 0
M  V30 17807 H 1661.3 -1.84718 -3.73075 0
M  V30 17808 H 1661.84 -3.06026 -2.54151 0
M  V30 17809 H 1658.58 -6.05764 -2.5046 0
M  V30 17810 H 1658.1 -4.77107 -3.63495 0
M  V30 17811 H 1659.77 -5.36516 -3.61607 0
M  V30 17812 N 1659.91 0.83715 -1.33527 0
M  V30 17813 C 1661.15 1.59487 -1.25267 0
M  V30 17814 C 1661.49 1.93357 0.180741 0
M  V30 17815 O 1660.76 1.5884 1.12251 0
M  V30 17816 C 1661.04 2.90376 -2.12964 0
M  V30 17817 C 1660.9 2.63177 -3.64771 0
M  V30 17818 C 1662.22 3.9182 -2.00412 0
M  V30 17819 H 1659.33 0.578684 -0.456392 0
M  V30 17820 H 1661.98 0.965428 -1.63644 0
M  V30 17821 H 1660.13 3.44095 -1.80364 0
M  V30 17822 H 1661.8 2.15878 -4.0767 0
M  V30 17823 H 1660.04 1.96849 -3.86566 0
M  V30 17824 H 1660.71 3.56452 -4.21481 0
M  V30 17825 H 1663.19 3.47413 -2.29005 0
M  V30 17826 H 1662.06 4.81232 -2.64021 0
M  V30 17827 H 1662.33 4.31173 -0.976852 0
M  V30 17828 N 1661.38 1.17024 1.05561 0
M  V30 17829 C 1662.35 0.885897 2.11387 0
M  V30 17830 C 1663.35 -0.122327 1.60334 0
M  V30 17831 O 1664.54 0.109416 1.73856 0
M  V30 17832 C 1661.67 0.32626 3.39335 0
M  V30 17833 H 1662.86 1.82414 2.38045 0
M  V30 17834 H 1660.42 0.980191 1.21745 0
M  V30 17835 H 1661.15 -0.619308 3.18332 0
M  V30 17836 H 1660.94 1.05285 3.777 0
M  V30 17837 H 1662.43 0.145513 4.17346 0
M  V30 17838 N 1662.86 -1.24221 0.969889 0
M  V30 17839 C 1664.09 -1.96118 0.649715 0
M  V30 17840 C 1664.5 -1.72127 -0.785436 0
M  V30 17841 O 1663.84 -1.00319 -1.53889 0
M  V30 17842 C 1663.91 -3.49374 0.847236 0
M  V30 17843 C 1663.57 -3.97067 2.26244 0
M  V30 17844 C 1664.57 -4.06568 3.24034 0
M  V30 17845 C 1662.25 -4.30333 2.59072 0
M  V30 17846 C 1664.25 -4.48672 4.52738 0
M  V30 17847 C 1661.93 -4.72121 3.88001 0
M  V30 17848 C 1662.93 -4.81256 4.84646 0
M  V30 17849 O 1662.62 -5.22109 6.11275 0
M  V30 17850 H 1662.35 -0.63149 0.24124 0
M  V30 17851 H 1664.9 -1.58948 1.30095 0
M  V30 17852 H 1663.13 -3.86451 0.138828 0
M  V30 17853 H 1664.82 -4.0248 0.525817 0
M  V30 17854 H 1665.59 -3.81083 3.00002 0
M  V30 17855 H 1661.47 -4.22441 1.84565 0
M  V30 17856 H 1665.01 -4.55717 5.28174 0
M  V30 17857 H 1660.91 -4.97054 4.11834 0
M  V30 17858 H 1661.68 -5.40252 6.14874 0
M  V30 17859 N 1664.34 -0.740267 -1.39132 0
M  V30 17860 C 1665.27 -0.118951 -2.33197 0
M  V30 17861 C 1666.25 0.718416 -1.54184 0
M  V30 17862 O 1667.44 0.662322 -1.82557 0
M  V30 17863 C 1664.57 0.78512 -3.38309 0
M  V30 17864 C 1663.52 0.0515093 -4.27969 0
M  V30 17865 C 1662.85 1.07295 -5.23824 0
M  V30 17866 C 1664.15 -1.10903 -5.1039 0
M  V30 17867 H 1665.84 -0.904687 -2.85405 0
M  V30 17868 H 1663.39 -0.436493 -1.37225 0
M  V30 17869 H 1665.34 1.22935 -4.03069 0
M  V30 17870 H 1664.06 1.60303 -2.84553 0
M  V30 17871 H 1662.72 -0.373156 -3.64696 0
M  V30 17872 H 1662.37 1.88456 -4.66362 0
M  V30 17873 H 1662.07 0.586827 -5.84662 0
M  V30 17874 H 1663.59 1.51677 -5.91461 0
M  V30 17875 H 1665.01 -0.742993 -5.68465 0
M  V30 17876 H 1663.41 -1.52513 -5.80396 0
M  V30 17877 H 1664.48 -1.92825 -4.44912 0
M  V30 17878 N 1665.82 1.49844 -0.488302 0
M  V30 17879 C 1667.07 2.02009 0.0605782 0
M  V30 17880 C 1667.39 1.37114 1.38653 0
M  V30 17881 O 1666.66 0.522182 1.88812 0
M  V30 17882 H 1665.24 0.746569 0.0253773 0
M  V30 17883 H 1667.9 1.84 -0.64265 0
M  V30 17884 H 1667 3.11461 0.199542 0
M  V30 17885 N 1667.3 0.221601 1.56034 0
M  V30 17886 C 1668.52 -0.414945 2.02696 0
M  V30 17887 C 1668.94 -1.53344 1.10141 0
M  V30 17888 O 1668.3 -1.82162 0.111026 0
M  V30 17889 C 1668.35 -0.946532 3.48888 0
M  V30 17890 O 1668.07 0.12737 4.37915 0
M  V30 17891 C 1669.57 -1.65631 4.11195 0
M  V30 17892 H 1666.79 -0.101548 0.663271 0
M  V30 17893 H 1669.33 0.338069 2.01686 0
M  V30 17894 H 1667.49 -1.64982 3.50514 0
M  V30 17895 H 1667.9 -0.272211 5.23793 0
M  V30 17896 H 1669.38 -1.98027 5.15257 0
M  V30 17897 H 1669.85 -2.56947 3.56195 0
M  V30 17898 H 1670.46 -0.998231 4.13419 0
M  V30 17899 N 1668.77 -1.57515 -0.0517878 0
M  V30 17900 C 1670.01 -1.90056 -0.752209 0
M  V30 17901 C 1670.38 -0.817682 -1.73718 0
M  V30 17902 O 1671.58 -1.02674 -2.48418 0
M  V30 17903 C 1669.85 -3.27798 -1.42419 0
M  V30 17904 S 1671.41 -3.82129 -2.15691 0
M  V30 17905 H 1668.23 -0.665706 -0.249712 0
M  V30 17906 H 1670.83 -1.95499 -0.0075584 0
M  V30 17907 H 1669.53 -4.04493 -0.693783 0
M  V30 17908 H 1669.06 -3.25602 -2.20786 0
M  V30 17909 H 1671.08 -3.59025 -3.42513 0
M  V30 17910 N 1670.25 0.323614 -1.54242 0
M  V30 17911 C 1671.18 1.40344 -1.86616 0
M  V30 17912 C 1672.16 1.53972 -0.722963 0
M  V30 17913 O 1673.35 1.67852 -0.976692 0
M  V30 17914 C 1670.48 2.77112 -2.09347 0
M  V30 17915 C 1669.43 2.78273 -3.25189 0
M  V30 17916 C 1668.76 4.18116 -3.33291 0
M  V30 17917 C 1670.06 2.42025 -4.6284 0
M  V30 17918 H 1671.75 1.13499 -2.77053 0
M  V30 17919 H 1669.3 0.544553 -1.33306 0
M  V30 17920 H 1671.25 3.52719 -2.3058 0
M  V30 17921 H 1669.98 3.05435 -1.1566 0
M  V30 17922 H 1668.64 2.05121 -3.03844 0
M  V30 17923 H 1668.28 4.4358 -2.37163 0
M  V30 17924 H 1667.98 4.19799 -4.11147 0
M  V30 17925 H 1669.51 4.95536 -3.56758 0
M  V30 17926 H 1670.92 3.07346 -4.83954 0
M  V30 17927 H 1669.32 2.5496 -5.43245 0
M  V30 17928 H 1670.39 1.37175 -4.65092 0
M  V30 17929 N 1671.73 1.46313 0.585673 0
M  V30 17930 C 1672.66 1.52683 1.7094 0
M  V30 17931 C 1673.68 0.415447 1.5741 0
M  V30 17932 O 1674.87 0.683657 1.64889 0
M  V30 17933 C 1671.97 1.38822 3.09163 0
M  V30 17934 C 1671.14 2.64027 3.48724 0
M  V30 17935 C 1670.2 2.44407 4.65995 0
M  V30 17936 O 1669.22 3.18118 4.72006 0
M  V30 17937 N 1670.43 1.50381 5.60683 0
M  V30 17938 H 1673.19 2.49573 1.65932 0
M  V30 17939 H 1670.75 1.42332 0.771573 0
M  V30 17940 H 1672.74 1.23474 3.85404 0
M  V30 17941 H 1671.31 0.501247 3.08555 0
M  V30 17942 H 1670.53 2.94338 2.62219 0
M  V30 17943 H 1671.82 3.47206 3.71921 0
M  V30 17944 H 1671.22 0.895917 5.5856 0
M  V30 17945 H 1669.78 1.40997 6.36367 0
M  V30 17946 N 1673.21 -0.830057 1.33969 0
M  V30 17947 C 1674.12 -1.97244 1.27012 0
M  V30 17948 C 1675.14 -1.73076 0.179075 0
M  V30 17949 O 1676.31 -1.97301 0.404262 0
M  V30 17950 C 1673.38 -3.31409 1.01827 0
M  V30 17951 C 1672.44 -3.68633 2.20018 0
M  V30 17952 C 1671.67 -4.96397 1.96025 0
M  V30 17953 O 1671.89 -5.63014 0.91494 0
M  V30 17954 O 1670.83 -5.31331 2.82791 0
M  V30 17955 H 1674.65 -2.06056 2.23103 0
M  V30 17956 H 1672.24 -0.964399 1.14104 0
M  V30 17957 H 1674.12 -4.11779 0.895337 0
M  V30 17958 H 1672.8 -3.23581 0.0877091 0
M  V30 17959 H 1671.7 -2.88738 2.37869 0
M  V30 17960 H 1673.04 -3.81138 3.11439 0
M  V30 17961 N 1674.69 -1.17582 -1.04939 0
M  V30 17962 C 1675.64 -0.891102 -2.14854 0
M  V30 17963 C 1676.63 0.145242 -1.68776 0
M  V30 17964 O 1677.84 -0.00207978 -1.8 0
M  V30 17965 H 1674.21 -0.270641 -0.701611 0
M  V30 17966 H 1676.18 -1.82519 -2.36071 0
M  V30 17967 C 1674.93 -0.423679 -3.45109 0
M  V30 17968 H 1674.25 -1.2126 -3.80967 0
M  V30 17969 H 1675.69 -0.263369 -4.23181 0
M  V30 17970 C 1674.15 0.859085 -3.25763 0
M  V30 17971 O 1674.68 1.9253 -3.52555 0
M  V30 17972 N 1672.89 0.80824 -2.79134 0
M  V30 17973 H 1672.44 -0.0596431 -2.57531 0
M  V30 17974 H 1672.39 1.66697 -2.6657 0
M  V30 17975 N 1676.17 1.23705 -0.976463 0
M  V30 17976 C 1677.39 1.96055 -0.661065 0
M  V30 17977 C 1677.81 1.7233 0.77121 0
M  V30 17978 O 1677.17 1.01234 1.51849 0
M  V30 17979 C 1677.22 3.49144 -0.937071 0
M  V30 17980 O 1676.94 3.72061 -2.31305 0
M  V30 17981 C 1678.44 4.38698 -0.637077 0
M  V30 17982 H 1675.66 0.624319 -0.245901 0
M  V30 17983 H 1678.2 1.57301 -1.30678 0
M  V30 17984 H 1676.36 3.85928 -0.33743 0
M  V30 17985 H 1676.77 4.66383 -2.39973 0
M  V30 17986 H 1678.25 5.44931 -0.88059 0
M  V30 17987 H 1678.72 4.37102 0.428802 0
M  V30 17988 H 1679.33 4.07515 -1.21702 0
M  V30 17989 N 1677.64 0.747635 1.38738 0
M  V30 17990 C 1678.89 0.301593 2.00545 0
M  V30 17991 C 1679.22 -1.11208 1.59205 0
M  V30 17992 O 1678.5 -1.76052 0.826806 0
M  V30 17993 C 1678.78 0.417739 3.57669 0
M  V30 17994 C 1678.63 1.87209 4.0899 0
M  V30 17995 C 1679.95 -0.192403 4.39679 0
M  V30 17996 H 1677.07 0.11106 0.728584 0
M  V30 17997 H 1679.71 0.946162 1.64766 0
M  V30 17998 H 1677.86 -0.131024 3.88279 0
M  V30 17999 H 1679.54 2.4787 3.89048 0
M  V30 18000 H 1677.78 2.38917 3.62079 0
M  V30 18001 H 1678.45 1.90455 5.18103 0
M  V30 18002 H 1680.93 0.27554 4.15187 0
M  V30 18003 H 1679.8 -0.0808605 5.4884 0
M  V30 18004 H 1680.06 -1.28 4.23165 0
M  V30 18005 N 1679.12 -1.49583 0.496242 0
M  V30 18006 C 1680.35 -2.07342 -0.0490986 0
M  V30 18007 C 1680.77 -1.35474 -1.30493 0
M  V30 18008 O 1680.13 -0.410005 -1.76603 0
M  V30 18009 C 1680.18 -3.59427 -0.290601 0
M  V30 18010 O 1679.28 -3.89111 -1.36626 0
M  V30 18011 H 1678.62 -0.663562 0.0241141 0
M  V30 18012 H 1681.15 -1.92452 0.6945 0
M  V30 18013 H 1681.16 -4.04627 -0.523549 0
M  V30 18014 H 1679.84 -4.11147 0.626959 0
M  V30 18015 H 1678.41 -3.55726 -1.11864 0
M  V30 18016 N 1680.6 -0.229873 -1.55915 0
M  V30 18017 C 1681.85 0.399963 -1.97695 0
M  V30 18018 C 1682.16 1.60303 -1.12081 0
M  V30 18019 O 1683.37 2.30292 -1.43797 0
M  V30 18020 C 1681.82 0.762982 -3.51719 0
M  V30 18021 C 1681.43 -0.417738 -4.46048 0
M  V30 18022 C 1683.18 1.35796 -4.02194 0
M  V30 18023 C 1681.08 -0.0318216 -5.91391 0
M  V30 18024 H 1680.01 0.153209 -0.73827 0
M  V30 18025 H 1682.66 -0.327401 -1.80556 0
M  V30 18026 H 1681.05 1.548 -3.6449 0
M  V30 18027 H 1682.22 -1.19523 -4.45029 0
M  V30 18028 H 1680.53 -0.926501 -4.05962 0
M  V30 18029 H 1683.13 1.65974 -5.08288 0
M  V30 18030 H 1683.47 2.27661 -3.48534 0
M  V30 18031 H 1684.01 0.6362 -3.9268 0
M  V30 18032 H 1680.75 -0.917176 -6.49052 0
M  V30 18033 H 1680.27 0.709811 -5.95585 0
M  V30 18034 H 1681.95 0.391966 -6.45812 0
M  V30 18035 N 1682.08 1.5754 0.0434337 0
M  V30 18036 C 1683.32 1.88608 0.737108 0
M  V30 18037 C 1683.65 0.825342 1.7612 0
M  V30 18038 O 1682.91 -0.175437 1.94912 0
M  V30 18039 C 1683.21 3.26402 1.45591 0
M  V30 18040 C 1682.87 4.47294 0.56915 0
M  V30 18041 C 1681.53 4.80102 0.324866 0
M  V30 18042 C 1683.89 5.21181 -0.0439735 0
M  V30 18043 C 1681.21 5.84195 -0.541556 0
M  V30 18044 C 1683.57 6.26194 -0.898013 0
M  V30 18045 C 1682.23 6.57486 -1.1519 0
M  V30 18046 H 1681.5 0.690166 0.269727 0
M  V30 18047 H 1684.15 1.915 -0.00275199 0
M  V30 18048 H 1682.45 3.19431 2.26872 0
M  V30 18049 H 1684.15 3.47684 1.99793 0
M  V30 18050 H 1680.74 4.21632 0.769694 0
M  V30 18051 H 1684.92 4.96125 0.131816 0
M  V30 18052 H 1680.18 6.06823 -0.746711 0
M  V30 18053 H 1684.35 6.82596 -1.37969 0
M  V30 18054 H 1681.98 7.37969 -1.82501 0
M  V30 18055 N 1683.56 -0.31543 1.54411 0
M  V30 18056 C 1684.49 -1.41263 1.79221 0
M  V30 18057 C 1685.47 -1.49363 0.642601 0
M  V30 18058 O 1686.65 -1.66648 0.880953 0
M  V30 18059 C 1683.78 -2.79294 1.91605 0
M  V30 18060 C 1682.82 -2.88686 3.13946 0
M  V30 18061 S 1683.66 -2.52259 4.72362 0
M  V30 18062 C 1684.81 -3.92347 4.87663 0
M  V30 18063 H 1685.05 -1.20006 2.72003 0
M  V30 18064 H 1682.58 -0.51273 1.45638 0
M  V30 18065 H 1684.54 -3.58803 1.99425 0
M  V30 18066 H 1683.2 -2.97828 0.997857 0
M  V30 18067 H 1682.39 -3.89896 3.1937 0
M  V30 18068 H 1681.99 -2.17157 3.04498 0
M  V30 18069 H 1684.28 -4.8719 4.70799 0
M  V30 18070 H 1685.23 -3.91901 5.89762 0
M  V30 18071 H 1685.64 -3.81679 4.1591 0
M  V30 18072 N 1685.03 -1.46622 -0.577906 0
M  V30 18073 C 1685.94 -1.60143 -1.71439 0
M  V30 18074 C 1686.96 -0.484781 -1.6711 0
M  V30 18075 O 1688.14 -0.749551 -1.86932 0
M  V30 18076 C 1685.2 -1.59282 -3.07945 0
M  V30 18077 C 1684.26 -2.82216 -3.235 0
M  V30 18078 C 1683.5 -2.81387 -4.53495 0
M  V30 18079 O 1683.72 -1.90407 -5.37681 0
M  V30 18080 O 1682.65 -3.72991 -4.724 0
M  V30 18081 H 1686.48 -2.56265 -1.62978 0
M  V30 18082 H 1684.06 -1.2947 -0.745514 0
M  V30 18083 H 1685.95 -1.61515 -3.89218 0
M  V30 18084 H 1684.62 -0.663212 -3.16833 0
M  V30 18085 H 1683.53 -2.85536 -2.41702 0
M  V30 18086 H 1684.86 -3.74402 -3.19506 0
M  V30 18087 N 1686.51 0.822941 -1.34408 0
M  V30 18088 C 1687.76 1.57916 -1.26763 0
M  V30 18089 C 1688.09 1.93821 0.162408 0
M  V30 18090 O 1687.34 1.60226 1.12366 0
M  V30 18091 C 1687.64 2.88915 -2.10388 0
M  V30 18092 C 1687.31 2.72302 -3.59392 0
M  V30 18093 C 1685.97 2.67479 -4.00011 0
M  V30 18094 C 1688.32 2.5598 -4.54008 0
M  V30 18095 C 1685.65 2.44255 -5.33438 0
M  V30 18096 C 1688 2.34288 -5.87615 0
M  V30 18097 C 1686.67 2.27877 -6.27398 0
M  V30 18098 H 1685.94 0.577854 -0.46386 0
M  V30 18099 H 1688.58 0.95218 -1.6615 0
M  V30 18100 H 1686.89 3.55903 -1.63829 0
M  V30 18101 H 1688.58 3.46511 -2.01819 0
M  V30 18102 H 1685.17 2.76896 -3.27149 0
M  V30 18103 H 1689.36 2.5873 -4.23524 0
M  V30 18104 H 1684.61 2.37749 -5.63281 0
M  V30 18105 H 1688.79 2.20646 -6.60521 0
M  V30 18106 H 1686.42 2.09643 -7.30722 0
M  V30 18107 N 1687.99 1.18137 1.04314 0
M  V30 18108 C 1689.24 0.976648 1.77734 0
M  V30 18109 C 1689.57 -0.492756 1.87844 0
M  V30 18110 O 1688.84 -1.36586 1.38472 0
M  V30 18111 C 1689.13 1.62911 3.21142 0
M  V30 18112 C 1688.98 3.1712 3.1899 0
M  V30 18113 C 1690.3 1.34029 4.19195 0
M  V30 18114 H 1687.42 0.356217 0.645197 0
M  V30 18115 H 1690.06 1.45767 1.21868 0
M  V30 18116 H 1688.21 1.22009 3.68844 0
M  V30 18117 H 1689.88 3.67139 2.79296 0
M  V30 18118 H 1688.13 3.4941 2.57089 0
M  V30 18119 H 1688.8 3.57907 4.20245 0
M  V30 18120 H 1691.27 1.69463 3.80028 0
M  V30 18121 H 1690.15 1.82253 5.1776 0
M  V30 18122 H 1690.41 0.262712 4.41319 0
M  V30 18123 N 1689.47 -1.23186 0.98301 0
M  V30 18124 C 1690.88 -1.73484 0.689933 0
M  V30 18125 C 1691.23 -1.79428 -0.793724 0
M  V30 18126 O 1690.36 -1.43391 -1.62074 0
M  V30 18127 C 1690.95 -3.15068 1.24571 0
M  V30 18128 C 1689.51 -3.62812 1.00222 0
M  V30 18129 C 1688.66 -2.40988 1.37186 0
M  V30 18130 H 1691.61 -1.08672 1.15655 0
M  V30 18131 H 1691.63 -3.75425 0.619406 0
M  V30 18132 H 1691.14 -3.10709 2.32554 0
M  V30 18133 H 1689.24 -3.72549 -0.0614202 0
M  V30 18134 H 1689.35 -4.49473 1.65863 0
M  V30 18135 H 1687.72 -2.42127 0.79035 0
M  V30 18136 H 1688.5 -2.39299 2.46152 0
M  V30 18137 N 1690.95 -0.754982 -1.38339 0
M  V30 18138 C 1692.19 -0.311146 -1.9969 0
M  V30 18139 C 1692.52 1.11138 -1.60229 0
M  V30 18140 O 1691.79 1.76024 -0.859794 0
M  V30 18141 H 1690.37 -0.112052 -0.738548 0
M  V30 18142 H 1693.03 -0.969386 -1.69083 0
M  V30 18143 H 1692.12 -0.375392 -3.09834 0
M  V30 18144 N 1692.42 1.49318 -0.504168 0
M  V30 18145 C 1693.67 2.02062 0.039149 0
M  V30 18146 C 1693.99 1.38577 1.37191 0
M  V30 18147 O 1693.26 0.542179 1.88248 0
M  V30 18148 H 1691.84 0.746796 0.0174575 0
M  V30 18149 H 1694.51 1.83308 -0.66213 0
M  V30 18150 H 1693.6 3.11656 0.166496 0
M  V30 18151 N 1693.9 0.238138 1.5579 0
M  V30 18152 C 1695.13 -0.396409 2.03576 0
M  V30 18153 C 1695.55 -1.5138 1.11649 0
M  V30 18154 O 1694.91 -1.80979 0.107774 0
M  V30 18155 C 1694.96 -0.889749 3.49451 0
M  V30 18156 O 1694.06 -1.99997 3.60659 0
M  V30 18157 H 1693.4 -0.0876017 0.658196 0
M  V30 18158 H 1695.93 0.361632 2.01379 0
M  V30 18159 H 1695.94 -1.19526 3.901 0
M  V30 18160 H 1694.62 -0.0720136 4.15838 0
M  V30 18161 H 1693.2 -1.69983 3.31904 0
M  V30 18162 N 1695.38 -1.57561 -0.0350783 0
M  V30 18163 C 1696.63 -1.88177 -0.726105 0
M  V30 18164 C 1696.94 -0.835856 -1.76841 0
M  V30 18165 O 1698.15 -1.03105 -2.51161 0
M  V30 18166 C 1696.6 -3.33924 -1.34249 0
M  V30 18167 C 1696.21 -4.46732 -0.336845 0
M  V30 18168 C 1697.96 -3.73696 -2.01374 0
M  V30 18169 C 1695.86 -5.83536 -0.961234 0
M  V30 18170 H 1694.79 -0.702082 -0.274948 0
M  V30 18171 H 1697.44 -1.83489 0.0197081 0
M  V30 18172 H 1695.83 -3.33337 -2.13781 0
M  V30 18173 H 1697 -4.58777 0.431323 0
M  V30 18174 H 1695.32 -4.15753 0.231983 0
M  V30 18175 H 1697.91 -4.7322 -2.48931 0
M  V30 18176 H 1698.26 -3.05379 -2.8293 0
M  V30 18177 H 1698.79 -3.76431 -1.28626 0
M  V30 18178 H 1695.53 -6.55238 -0.185217 0
M  V30 18179 H 1695.05 -5.75223 -1.69938 0
M  V30 18180 H 1696.73 -6.30071 -1.47035 0
M  V30 18181 N 1696.86 0.307236 -1.54576 0
M  V30 18182 C 1698.08 1.06668 -1.77867 0
M  V30 18183 C 1698.51 1.80375 -0.533536 0
M  V30 18184 O 1697.87 1.73812 0.515663 0
M  V30 18185 C 1697.91 2.02777 -2.98184 0
M  V30 18186 O 1697.02 3.10969 -2.70872 0
M  V30 18187 H 1696.36 0.306741 -0.588902 0
M  V30 18188 H 1698.89 0.346557 -2.01644 0
M  V30 18189 H 1698.9 2.45355 -3.25983 0
M  V30 18190 H 1697.57 1.48534 -3.88472 0
M  V30 18191 H 1696.15 2.7295 -2.54072 0
M  V30 18192 N 1698.34 1.46926 0.570122 0
M  V30 18193 C 1699.56 1.56722 1.35841 0
M  V30 18194 C 1699.99 0.213314 1.86887 0
M  V30 18195 O 1699.34 -0.808694 1.62265 0
M  V30 18196 C 1699.39 2.5859 2.51323 0
M  V30 18197 O 1698.5 2.12966 3.53156 0
M  V30 18198 H 1697.84 0.526929 0.404032 0
M  V30 18199 H 1700.37 1.92603 0.690308 0
M  V30 18200 H 1700.38 2.78601 2.9807 0
M  V30 18201 H 1699.05 3.56903 2.13525 0
M  V30 18202 H 1697.63 2.02999 3.12803 0
M  V30 18203 N 1699.82 -0.815801 1.34842 0
M  V30 18204 C 1701.06 -1.56747 1.26938 0
M  V30 18205 C 1701.38 -1.9497 -0.156887 0
M  V30 18206 O 1702.58 -2.69128 -0.358132 0
M  V30 18207 C 1701.04 -2.82832 2.22562 0
M  V30 18208 C 1700.65 -2.51883 3.70485 0
M  V30 18209 C 1702.39 -3.60849 2.23581 0
M  V30 18210 C 1700.3 -3.74204 4.57957 0
M  V30 18211 H 1699.23 -0.58832 0.471588 0
M  V30 18212 H 1701.88 -0.897551 1.60051 0
M  V30 18213 H 1700.26 -3.51486 1.8241 0
M  V30 18214 H 1701.44 -1.91294 4.19217 0
M  V30 18215 H 1699.75 -1.87129 3.71983 0
M  V30 18216 H 1702.35 -4.51686 2.86154 0
M  V30 18217 H 1702.69 -3.97496 1.23703 0
M  V30 18218 H 1703.22 -2.99146 2.62215 0
M  V30 18219 H 1699.96 -3.42672 5.58799 0
M  V30 18220 H 1699.48 -4.34051 4.13956 0
M  V30 18221 H 1701.16 -4.41536 4.72921 0
M  V30 18222 N 1701.29 -1.18689 -1.03686 0
M  V30 18223 C 1702.54 -0.978948 -1.7635 0
M  V30 18224 C 1702.86 0.49195 -1.89312 0
M  V30 18225 O 1704.06 0.818501 -2.58868 0
M  V30 18226 C 1702.52 -1.70255 -3.17083 0
M  V30 18227 C 1702.13 -3.21301 -3.12201 0
M  V30 18228 C 1703.87 -1.57756 -3.94098 0
M  V30 18229 C 1701.78 -3.86284 -4.47815 0
M  V30 18230 H 1700.71 -0.362652 -0.661059 0
M  V30 18231 H 1703.36 -1.42102 -1.161 0
M  V30 18232 H 1701.74 -1.18826 -3.77752 0
M  V30 18233 H 1702.91 -3.79785 -2.6096 0
M  V30 18234 H 1701.23 -3.33984 -2.48684 0
M  V30 18235 H 1703.83 -2.03664 -4.94394 0
M  V30 18236 H 1704.17 -0.530427 -4.12907 0
M  V30 18237 H 1704.7 -2.06486 -3.40012 0
M  V30 18238 H 1701.44 -4.91061 -4.34211 0
M  V30 18239 H 1700.96 -3.32589 -4.99144 0
M  V30 18240 H 1702.64 -3.89369 -5.16721 0
M  V30 18241 N 1702.77 1.22662 -0.989529 0
M  V30 18242 C 1703.72 2.26484 -0.529864 0
M  V30 18243 C 1704.71 1.64168 0.417759 0
M  V30 18244 O 1705.92 1.77638 0.290649 0
M  V30 18245 H 1702.29 0.736282 -0.152949 0
M  V30 18246 H 1704.27 2.62608 -1.41702 0
M  V30 18247 C 1703.01 3.47405 0.143148 0
M  V30 18248 H 1702.34 3.95615 -0.576962 0
M  V30 18249 H 1703.78 4.21831 0.428279 0
M  V30 18250 C 1702.24 3.07457 1.37738 0
M  V30 18251 O 1702.77 3.16555 2.47297 0
M  V30 18252 N 1700.97 2.62276 1.25139 0
M  V30 18253 H 1700.52 2.55073 0.359927 0
M  V30 18254 H 1700.48 2.35915 2.07826 0
M  V30 18255 N 1704.25 0.762308 1.37937 0
M  V30 18256 C 1705.67 0.440871 1.5339 0
M  V30 18257 C 1705.87 -1.04483 1.72295 0
M  V30 18258 O 1704.92 -1.83078 1.73892 0
M  V30 18259 C 1706.23 1.24772 2.73592 0
M  V30 18260 C 1707.78 1.23867 2.87447 0
M  V30 18261 C 1708.26 2.02866 4.10621 0
M  V30 18262 N 1709.75 2.00171 4.17715 0
M  V30 18263 C 1710.48 2.58086 5.12034 0
M  V30 18264 N 1709.98 3.2475 6.11972 0
M  V30 18265 N 1711.77 2.47968 5.04449 0
M  V30 18266 H 1703.92 1.72506 1.23916 0
M  V30 18267 H 1706.19 0.731791 0.602649 0
M  V30 18268 H 1705.89 2.30016 2.66056 0
M  V30 18269 H 1705.77 0.870485 3.67018 0
M  V30 18270 H 1708.15 0.194255 2.9446 0
M  V30 18271 H 1708.23 1.65548 1.95007 0
M  V30 18272 H 1707.88 3.07323 4.04369 0
M  V30 18273 H 1707.81 1.58574 5.02157 0
M  V30 18274 H 1710.3 1.5163 3.46146 0
M  V30 18275 H 1710.61 3.66339 6.80453 0
M  V30 18276 H 1708.96 3.28846 6.12279 0
M  V30 18277 H 1712.15 1.95509 4.25316 0
M  V30 18278 H 1712.32 2.93398 5.77773 0
M  V30 18279 N 1705.73 -1.49049 0.51208 0
M  V30 18280 C 1706.97 -2.0248 -0.0284889 0
M  V30 18281 C 1707.3 -1.39082 -1.35965 0
M  V30 18282 O 1706.56 -0.519593 -1.88676 0
M  V30 18283 C 1706.86 -3.56734 -0.218125 0
M  V30 18284 C 1706.52 -4.38827 1.03643 0
M  V30 18285 C 1705.18 -4.60979 1.38029 0
M  V30 18286 C 1707.54 -4.86505 1.86982 0
M  V30 18287 C 1704.86 -5.28055 2.55686 0
M  V30 18288 C 1707.22 -5.54876 3.03801 0
M  V30 18289 C 1705.88 -5.75271 3.38555 0
M  V30 18290 H 1705.15 -0.740927 -0.0104248 0
M  V30 18291 H 1707.8 -1.79229 0.674481 0
M  V30 18292 H 1706.1 -3.78725 -1.00372 0
M  V30 18293 H 1707.8 -3.9568 -0.651013 0
M  V30 18294 H 1704.39 -4.21833 0.758594 0
M  V30 18295 H 1708.57 -4.69209 1.61729 0
M  V30 18296 H 1703.83 -5.42046 2.82837 0
M  V30 18297 H 1708 -5.90793 3.68696 0
M  V30 18298 H 1705.63 -6.2702 4.29825 0
M  V30 18299 N 1707.21 -0.246397 -1.55662 0
M  V30 18300 C 1708.45 0.377739 -1.98539 0
M  V30 18301 C 1708.77 1.58504 -1.13585 0
M  V30 18302 O 1708.04 1.94677 -0.218528 0
M  V30 18303 H 1706.62 0.142554 -0.733272 0
M  V30 18304 H 1709.29 -0.345069 -1.91821 0
M  V30 18305 H 1708.38 0.687224 -3.0444 0
M  V30 18306 N 1708.68 1.57577 0.026722 0
M  V30 18307 C 1710.09 1.77689 0.573022 0
M  V30 18308 C 1710.45 0.877771 1.7547 0
M  V30 18309 O 1709.57 0.0732156 2.16276 0
M  V30 18310 C 1710.17 3.22239 1.0463 0
M  V30 18311 C 1708.72 3.4354 1.5381 0
M  V30 18312 C 1707.87 2.73163 0.47722 0
M  V30 18313 H 1710.82 1.57441 -0.199502 0
M  V30 18314 H 1710.84 3.28882 1.91355 0
M  V30 18315 H 1710.36 3.87654 0.186047 0
M  V30 18316 H 1708.46 2.83304 2.42012 0
M  V30 18317 H 1708.57 4.52158 1.58398 0
M  V30 18318 H 1706.93 2.37004 0.932793 0
M  V30 18319 H 1707.72 3.41261 -0.373605 0
M  V30 18320 N 1710.16 -0.299034 1.54737 0
M  V30 18321 C 1711.09 -1.37358 1.88826 0
M  V30 18322 C 1712.07 -1.52802 0.747367 0
M  V30 18323 O 1713.26 -1.66277 1.00327 0
M  V30 18324 C 1710.39 -2.73746 2.13729 0
M  V30 18325 C 1709.34 -2.73065 3.29575 0
M  V30 18326 C 1708.67 -4.12761 3.39901 0
M  V30 18327 C 1709.97 -2.34631 4.66632 0
M  V30 18328 H 1711.66 -1.09077 2.78824 0
M  V30 18329 H 1709.21 -0.523276 1.34156 0
M  V30 18330 H 1711.16 -3.49006 2.36162 0
M  V30 18331 H 1709.88 -3.03556 1.20504 0
M  V30 18332 H 1708.54 -2.00261 3.07068 0
M  V30 18333 H 1708.19 -4.39751 2.44189 0
M  V30 18334 H 1707.89 -4.13205 4.17774 0
M  V30 18335 H 1709.42 -4.89797 3.64597 0
M  V30 18336 H 1710.83 -2.99608 4.88782 0
M  V30 18337 H 1709.23 -2.46285 5.47233 0
M  V30 18338 H 1710.3 -1.29759 4.67216 0
M  V30 18339 N 1711.64 -1.47227 -0.562322 0
M  V30 18340 C 1713.05 -1.47509 -1.14446 0
M  V30 18341 C 1713.4 -0.22699 -1.94883 0
M  V30 18342 O 1712.53 0.668483 -2.05816 0
M  V30 18343 C 1713.12 -2.67266 -2.08217 0
M  V30 18344 C 1711.68 -2.70524 -2.61713 0
M  V30 18345 C 1710.83 -2.4053 -1.37988 0
M  V30 18346 H 1713.78 -1.54811 -0.349185 0
M  V30 18347 H 1713.8 -2.43945 -2.92012 0
M  V30 18348 H 1713.31 -3.58089 -1.49646 0
M  V30 18349 H 1711.41 -1.83827 -3.24096 0
M  V30 18350 H 1711.53 -3.71072 -3.03056 0
M  V30 18351 H 1709.89 -1.91007 -1.68489 0
M  V30 18352 H 1710.67 -3.33554 -0.812177 0
M  V30 18353 N 1713.12 0.808639 -1.35273 0
M  V30 18354 C 1714.03 1.95198 -1.30134 0
M  V30 18355 C 1715.04 1.72769 -0.206587 0
M  V30 18356 O 1716.22 1.96633 -0.4356 0
M  V30 18357 C 1713.28 3.29747 -1.07087 0
M  V30 18358 C 1712.35 3.65086 -2.25855 0
M  V30 18359 C 1711.58 4.93215 -2.03898 0
M  V30 18360 O 1711.8 5.61487 -1.00439 0
M  V30 18361 O 1710.74 5.26765 -2.91208 0
M  V30 18362 H 1714.56 2.0248 -2.26353 0
M  V30 18363 H 1712.15 0.946124 -1.15624 0
M  V30 18364 H 1714.03 4.10302 -0.960734 0
M  V30 18365 H 1712.7 3.23401 -0.139177 0
M  V30 18366 H 1711.61 2.84917 -2.42432 0
M  V30 18367 H 1712.94 3.76135 -3.17464 0
M  V30 18368 N 1714.6 1.19237 1.03055 0
M  V30 18369 C 1715.53 0.871947 2.10885 0
M  V30 18370 C 1716.51 -0.170311 1.61706 0
M  V30 18371 O 1717.69 -0.0469972 1.88441 0
M  V30 18372 C 1714.82 0.304639 3.37327 0
M  V30 18373 C 1713.86 1.32569 4.05374 0
M  V30 18374 S 1714.7 2.88551 4.51108 0
M  V30 18375 C 1715.85 2.33359 5.8077 0
M  V30 18376 H 1716.09 1.78514 2.37739 0
M  V30 18377 H 1713.62 1.01933 1.1597 0
M  V30 18378 H 1715.58 -0.0161522 4.10497 0
M  V30 18379 H 1714.24 -0.586834 3.08569 0
M  V30 18380 H 1713.43 0.877829 4.96296 0
M  V30 18381 H 1713.03 1.59323 3.38367 0
M  V30 18382 H 1715.33 1.7225 6.55238 0
M  V30 18383 H 1716.27 3.22622 6.30334 0
M  V30 18384 H 1716.68 1.75999 5.36362 0
M  V30 18385 N 1716.07 -1.22136 0.99602 0
M  V30 18386 C 1717.32 -1.9125 0.674632 0
M  V30 18387 C 1717.65 -1.77331 -0.791655 0
M  V30 18388 O 1716.93 -1.14419 -1.57285 0
M  V30 18389 C 1717.21 -3.43359 1.08521 0
M  V30 18390 C 1717.06 -3.66312 2.61028 0
M  V30 18391 C 1718.38 -4.3541 0.640795 0
M  V30 18392 H 1715.5 -0.694534 0.246559 0
M  V30 18393 H 1718.14 -1.4395 1.2401 0
M  V30 18394 H 1716.29 -3.83775 0.604071 0
M  V30 18395 H 1717.97 -3.3528 3.16836 0
M  V30 18396 H 1716.21 -3.10485 3.02954 0
M  V30 18397 H 1716.88 -4.72852 2.84807 0
M  V30 18398 H 1719.36 -4.02527 1.05411 0
M  V30 18399 H 1718.23 -5.40505 0.956337 0
M  V30 18400 H 1718.49 -4.39717 -0.458421 0
M  V30 18401 N 1717.55 -0.769612 -1.37531 0
M  V30 18402 C 1718.8 -0.332966 -1.99744 0
M  V30 18403 C 1719.13 1.0899 -1.61094 0
M  V30 18404 O 1718.38 1.7639 -0.847656 0
M  V30 18405 C 1718.68 -0.421385 -3.54907 0
M  V30 18406 C 1718.35 -1.8022 -4.13318 0
M  V30 18407 C 1717.01 -2.18005 -4.28984 0
M  V30 18408 C 1719.36 -2.70724 -4.45374 0
M  V30 18409 C 1716.69 -3.45736 -4.74008 0
M  V30 18410 C 1719.04 -3.97862 -4.91822 0
M  V30 18411 C 1717.71 -4.35695 -5.05694 0
M  V30 18412 H 1716.98 -0.121841 -0.730914 0
M  V30 18413 H 1719.62 -0.98322 -1.64332 0
M  V30 18414 H 1717.93 0.312411 -3.90552 0
M  V30 18415 H 1719.62 -0.0648705 -4.00948 0
M  V30 18416 H 1716.21 -1.49852 -4.0155 0
M  V30 18417 H 1720.4 -2.42792 -4.32857 0
M  V30 18418 H 1715.65 -3.74946 -4.82935 0
M  V30 18419 H 1719.83 -4.68121 -5.15593 0
M  V30 18420 H 1717.46 -5.34729 -5.40341 0
M  V30 18421 N 1719.03 1.48775 -0.519977 0
M  V30 18422 C 1720.27 2.04394 0.0158731 0
M  V30 18423 C 1720.63 1.38935 1.32518 0
M  V30 18424 O 1721.84 1.85383 1.94645 0
M  V30 18425 C 1720.11 3.57103 0.145657 0
M  V30 18426 S 1721.67 4.3421 0.633016 0
M  V30 18427 H 1718.48 0.710963 -0.0072764 0
M  V30 18428 H 1721.09 1.82605 -0.698264 0
M  V30 18429 H 1719.79 4.02282 -0.812259 0
M  V30 18430 H 1719.32 3.83328 0.884471 0
M  V30 18431 H 1721.34 4.58416 1.89918 0
M  V30 18432 N 1720.51 0.254649 1.55529 0
M  V30 18433 C 1721.46 -0.64162 2.21702 0
M  V30 18434 C 1722.43 -1.16544 1.1835 0
M  V30 18435 O 1723.61 -1.2185 1.46824 0
M  V30 18436 C 1720.75 -1.82935 2.92624 0
M  V30 18437 C 1719.86 -1.34132 4.10649 0
M  V30 18438 C 1719 -2.48922 4.69267 0
M  V30 18439 C 1718.04 -1.9702 5.79525 0
M  V30 18440 N 1717.17 -3.05206 6.32293 0
M  V30 18441 H 1722.01 -0.0706476 2.97916 0
M  V30 18442 H 1719.55 -0.0231077 1.47082 0
M  V30 18443 H 1721.51 -2.52719 3.31947 0
M  V30 18444 H 1720.14 -2.37267 2.1887 0
M  V30 18445 H 1719.19 -0.53726 3.76587 0
M  V30 18446 H 1720.5 -0.921003 4.90223 0
M  V30 18447 H 1719.66 -3.26735 5.11203 0
M  V30 18448 H 1718.4 -2.94259 3.88925 0
M  V30 18449 H 1717.4 -1.17679 5.37058 0
M  V30 18450 H 1718.63 -1.52643 6.61723 0
M  V30 18451 H 1716.57 -3.49963 5.54853 0
M  V30 18452 H 1716.49 -2.67528 7.07082 0
M  V30 18453 H 1717.76 -3.83055 6.78888 0
M  V30 18454 N 1721.99 -1.57589 -0.0183649 0
M  V30 18455 C 1723.22 -1.93743 -0.71745 0
M  V30 18456 C 1723.62 -0.853727 -1.68844 0
M  V30 18457 O 1722.97 0.177648 -1.82839 0
M  V30 18458 C 1723.03 -3.25769 -1.52036 0
M  V30 18459 C 1722.69 -4.51404 -0.71298 0
M  V30 18460 C 1723.69 -5.19899 -0.00859461 0
M  V30 18461 C 1721.38 -4.97887 -0.664364 0
M  V30 18462 C 1723.37 -6.33164 0.733592 0
M  V30 18463 C 1721.06 -6.11046 0.0815603 0
M  V30 18464 C 1722.05 -6.7854 0.779288 0
M  V30 18465 O 1721.74 -7.89532 1.51308 0
M  V30 18466 H 1721.47 -0.643849 -0.205996 0
M  V30 18467 H 1724.03 -2.05387 0.023306 0
M  V30 18468 H 1722.26 -3.10481 -2.30518 0
M  V30 18469 H 1723.95 -3.47169 -2.10305 0
M  V30 18470 H 1724.71 -4.84986 -0.0371173 0
M  V30 18471 H 1720.59 -4.4519 -1.19696 0
M  V30 18472 H 1724.14 -6.8578 1.27873 0
M  V30 18473 H 1720.03 -6.45403 0.111968 0
M  V30 18474 H 1720.8 -8.05949 1.42787 0
M  V30 18475 N 1723.46 0.290824 -1.54893 0
M  V30 18476 C 1724.69 1.04344 -1.78661 0
M  V30 18477 C 1725.11 1.80578 -0.551083 0
M  V30 18478 O 1724.46 1.76091 0.479394 0
M  V30 18479 C 1724.52 2.01604 -3.00064 0
M  V30 18480 O 1724.24 1.28461 -4.18843 0
M  V30 18481 C 1725.74 2.88822 -3.36298 0
M  V30 18482 H 1722.96 0.309018 -0.595608 0
M  V30 18483 H 1725.5 0.327011 -2.01868 0
M  V30 18484 H 1723.66 2.68735 -2.79035 0
M  V30 18485 H 1724.07 1.93864 -4.87357 0
M  V30 18486 H 1725.54 3.52898 -4.24461 0
M  V30 18487 H 1726.02 3.5766 -2.54904 0
M  V30 18488 H 1726.63 2.27208 -3.59523 0
M  V30 18489 N 1724.94 1.47523 0.554506 0
M  V30 18490 C 1725.89 1.60213 1.66134 0
M  V30 18491 C 1726.86 0.445051 1.60027 0
M  V30 18492 O 1728.04 0.665449 1.7882 0
M  V30 18493 C 1725.18 1.62491 3.04452 0
M  V30 18494 C 1724.3 2.89134 3.20976 0
M  V30 18495 C 1723.43 2.82731 4.49707 0
M  V30 18496 C 1722.47 4.04187 4.59673 0
M  V30 18497 N 1721.61 3.96004 5.79763 0
M  V30 18498 H 1726.45 2.54744 1.54626 0
M  V30 18499 H 1723.99 1.26355 0.753189 0
M  V30 18500 H 1725.94 1.61795 3.84549 0
M  V30 18501 H 1724.57 0.714698 3.14789 0
M  V30 18502 H 1723.63 2.99685 2.34292 0
M  V30 18503 H 1724.94 3.79069 3.24203 0
M  V30 18504 H 1724.09 2.80299 5.38068 0
M  V30 18505 H 1722.83 1.90483 4.48963 0
M  V30 18506 H 1721.84 4.06921 3.69724 0
M  V30 18507 H 1723.06 4.97565 4.62175 0
M  V30 18508 H 1721.01 3.06561 5.79962 0
M  V30 18509 H 1720.92 4.7962 5.8438 0
M  V30 18510 H 1722.19 3.97593 6.70478 0
M  V30 18511 N 1726.42 -0.801453 1.357 0
M  V30 18512 C 1727.35 -1.92179 1.24899 0
M  V30 18513 C 1728.37 -1.61898 0.171131 0
M  V30 18514 O 1729.55 -1.73371 0.42484 0
M  V30 18515 C 1726.65 -3.26684 0.901706 0
M  V30 18516 C 1725.83 -3.84833 2.07899 0
M  V30 18517 C 1724.89 -4.97754 1.70667 0
M  V30 18518 O 1723.91 -5.14909 2.42605 0
M  V30 18519 N 1725.11 -5.77035 0.633294 0
M  V30 18520 H 1727.88 -2.0197 2.21423 0
M  V30 18521 H 1725.44 -0.979132 1.28936 0
M  V30 18522 H 1727.43 -3.99703 0.63402 0
M  V30 18523 H 1726 -3.12589 0.0259836 0
M  V30 18524 H 1725.22 -3.03947 2.51018 0
M  V30 18525 H 1726.51 -4.20415 2.86581 0
M  V30 18526 H 1725.91 -5.65689 0.0357078 0
M  V30 18527 H 1724.47 -6.5041 0.425402 0
M  V30 18528 N 1727.9 -1.19782 -1.02421 0
M  V30 18529 C 1729.15 -0.997598 -1.75302 0
M  V30 18530 C 1729.46 0.471843 -1.89824 0
M  V30 18531 O 1730.67 0.790999 -2.59722 0
M  V30 18532 C 1729.12 -1.73608 -3.15259 0
M  V30 18533 C 1728.73 -3.24594 -3.08776 0
M  V30 18534 C 1730.47 -1.61927 -3.92403 0
M  V30 18535 C 1728.38 -3.91012 -4.43693 0
M  V30 18536 H 1727.31 -0.369643 -0.657176 0
M  V30 18537 H 1729.96 -1.43325 -1.14587 0
M  V30 18538 H 1728.34 -1.22826 -3.7647 0
M  V30 18539 H 1729.52 -3.82531 -2.56918 0
M  V30 18540 H 1727.83 -3.36603 -2.45127 0
M  V30 18541 H 1730.43 -2.08896 -4.92206 0
M  V30 18542 H 1730.77 -0.574192 -4.12321 0
M  V30 18543 H 1731.31 -2.10081 -3.37803 0
M  V30 18544 H 1728.05 -4.95639 -4.28979 0
M  V30 18545 H 1727.57 -3.37864 -4.95588 0
M  V30 18546 H 1729.24 -3.94828 -5.12562 0
M  V30 18547 N 1729.38 1.21606 -1.00248 0
M  V30 18548 C 1730.31 2.26159 -0.580911 0
M  V30 18549 C 1731.29 1.65402 0.397017 0
M  V30 18550 O 1732.47 1.92089 0.285552 0
M  V30 18551 C 1729.6 3.47168 0.0957564 0
M  V30 18552 C 1728.56 4.20425 -0.801695 0
M  V30 18553 C 1727.88 5.34699 0.00842241 0
M  V30 18554 C 1729.18 4.78086 -2.10311 0
M  V30 18555 H 1730.88 2.61675 -1.45487 0
M  V30 18556 H 1728.42 1.25786 -0.700995 0
M  V30 18557 H 1730.38 4.19477 0.402141 0
M  V30 18558 H 1729.1 3.10775 1.00433 0
M  V30 18559 H 1727.76 3.49963 -1.09187 0
M  V30 18560 H 1727.41 4.94548 0.918206 0
M  V30 18561 H 1727.11 5.84639 -0.589105 0
M  V30 18562 H 1728.63 6.09819 0.30868 0
M  V30 18563 H 1730.05 5.42287 -1.86004 0
M  V30 18564 H 1728.44 5.38405 -2.65028 0
M  V30 18565 H 1729.51 3.97607 -2.77555 0
M  V30 18566 N 1730.86 0.776895 1.37121 0
M  V30 18567 C 1731.79 0.124809 2.2886 0
M  V30 18568 C 1732.8 -0.658655 1.48881 0
M  V30 18569 O 1733.99 -0.4959 1.71473 0
M  V30 18570 C 1731.09 -0.84672 3.28152 0
M  V30 18571 C 1730.26 -0.11598 4.37246 0
M  V30 18572 C 1729.32 -1.00162 5.16579 0
M  V30 18573 O 1728.35 -0.463491 5.6731 0
M  V30 18574 N 1729.55 -2.32733 5.31804 0
M  V30 18575 H 1732.31 0.91278 2.85462 0
M  V30 18576 H 1729.88 0.629695 1.49152 0
M  V30 18577 H 1731.87 -1.44275 3.78109 0
M  V30 18578 H 1730.44 -1.53563 2.72281 0
M  V30 18579 H 1729.66 0.661015 3.88618 0
M  V30 18580 H 1730.95 0.388757 5.07313 0
M  V30 18581 H 1730.34 -2.78882 4.9218 0
M  V30 18582 H 1728.9 -2.8733 5.85051 0
M  V30 18583 N 1732.33 -1.48497 0.527859 0
M  V30 18584 C 1733.58 -2.02099 -0.00699772 0
M  V30 18585 C 1733.9 -1.40742 -1.34969 0
M  V30 18586 O 1733.17 -0.572059 -1.87361 0
M  V30 18587 H 1731.75 -0.746979 -0.00557445 0
M  V30 18588 H 1734.41 -1.82231 0.691209 0
M  V30 18589 H 1733.51 -3.11881 -0.116893 0
M  V30 18590 N 1733.81 -0.262893 -1.55392 0
M  V30 18591 C 1735.06 0.357895 -1.99617 0
M  V30 18592 C 1735.39 1.56415 -1.151 0
M  V30 18593 O 1734.67 1.93273 -0.218139 0
M  V30 18594 C 1734.95 0.752095 -3.52158 0
M  V30 18595 C 1734.8 -0.460658 -4.47435 0
M  V30 18596 C 1736.12 1.59314 -4.10253 0
M  V30 18597 H 1733.24 0.128612 -0.725691 0
M  V30 18598 H 1735.88 -0.367399 -1.86414 0
M  V30 18599 H 1734.03 1.37006 -3.6354 0
M  V30 18600 H 1735.7 -1.09918 -4.48013 0
M  V30 18601 H 1733.95 -1.10093 -4.19597 0
M  V30 18602 H 1734.62 -0.141262 -5.51819 0
M  V30 18603 H 1737.09 1.07135 -4.02071 0
M  V30 18604 H 1735.97 1.83779 -5.1722 0
M  V30 18605 H 1736.23 2.57022 -3.59711 0
M  V30 18606 N 1735.29 1.57597 0.0100073 0
M  V30 18607 C 1736.25 2.06745 0.989401 0
M  V30 18608 C 1737.25 0.97499 1.27869 0
M  V30 18609 O 1738.44 1.23798 1.22555 0
M  V30 18610 C 1735.57 2.50048 2.31709 0
M  V30 18611 H 1736.77 2.9454 0.564473 0
M  V30 18612 H 1734.32 1.54168 0.257266 0
M  V30 18613 H 1735.06 1.65466 2.78911 0
M  V30 18614 H 1734.84 3.29823 2.12035 0
M  V30 18615 H 1736.33 2.88433 3.01987 0
M  V30 18616 N 1736.77 -0.282606 1.55045 0
M  V30 18617 C 1738 -1.03245 1.78952 0
M  V30 18618 C 1738.41 -1.80777 0.558225 0
M  V30 18619 O 1737.75 -1.77264 -0.482009 0
M  V30 18620 C 1737.81 -2.04557 2.95629 0
M  V30 18621 C 1737.47 -1.46051 4.33034 0
M  V30 18622 C 1738.47 -0.881083 5.1238 0
M  V30 18623 C 1736.16 -1.4906 4.79673 0
M  V30 18624 C 1738.15 -0.339532 6.36495 0
M  V30 18625 C 1735.84 -0.945189 6.03746 0
M  V30 18626 C 1736.84 -0.370643 6.81994 0
M  V30 18627 O 1736.52 0.166447 8.03728 0
M  V30 18628 H 1736.26 -0.311139 0.60014 0
M  V30 18629 H 1738.81 -0.32175 2.02864 0
M  V30 18630 H 1737.04 -2.79359 2.67386 0
M  V30 18631 H 1738.73 -2.65592 3.06946 0
M  V30 18632 H 1739.49 -0.850602 4.77483 0
M  V30 18633 H 1735.37 -1.92719 4.18784 0
M  V30 18634 H 1738.92 0.109564 6.97514 0
M  V30 18635 H 1734.81 -0.972878 6.38126 0
M  V30 18636 H 1735.58 0.054892 8.18482 0
M  V30 18637 N 1738.25 -1.47815 -0.546675 0
M  V30 18638 C 1739.18 -1.63976 -1.66235 0
M  V30 18639 C 1740.16 -0.488945 -1.62921 0
M  V30 18640 O 1741.34 -0.719532 -1.80378 0
M  V30 18641 C 1738.47 -1.6637 -3.04858 0
M  V30 18642 C 1737.43 -2.80785 -3.23023 0
M  V30 18643 C 1736.75 -2.68257 -4.62539 0
M  V30 18644 C 1738.05 -4.22267 -3.07388 0
M  V30 18645 H 1739.75 -2.57375 -1.52965 0
M  V30 18646 H 1737.29 -1.23861 -0.734465 0
M  V30 18647 H 1739.24 -1.76266 -3.82764 0
M  V30 18648 H 1737.97 -0.695386 -3.19111 0
M  V30 18649 H 1736.63 -2.70417 -2.47529 0
M  V30 18650 H 1736.28 -1.69431 -4.73606 0
M  V30 18651 H 1735.98 -3.45022 -4.75641 0
M  V30 18652 H 1737.5 -2.80097 -5.42566 0
M  V30 18653 H 1738.91 -4.33557 -3.75102 0
M  V30 18654 H 1737.31 -4.999 -3.31994 0
M  V30 18655 H 1738.38 -4.39897 -2.04006 0
M  V30 18656 N 1739.72 0.794246 -1.36123 0
M  V30 18657 C 1740.67 1.8963 -1.26588 0
M  V30 18658 C 1741.66 1.60118 -0.158415 0
M  V30 18659 O 1742.85 1.72632 -0.390783 0
M  V30 18660 C 1739.98 3.26767 -1.05255 0
M  V30 18661 C 1739.06 3.62304 -2.20447 0
M  V30 18662 N 1739.46 3.69185 -3.4574 0
M  V30 18663 C 1737.75 3.92336 -2.12106 0
M  V30 18664 C 1738.45 4.00822 -4.21565 0
M  V30 18665 N 1737.43 4.15553 -3.50453 0
M  V30 18666 H 1741.23 1.93169 -2.21501 0
M  V30 18667 H 1738.75 0.989508 -1.28773 0
M  V30 18668 H 1740.74 4.05575 -0.965108 0
M  V30 18669 H 1739.4 3.24505 -0.112374 0
M  V30 18670 H 1740.41 3.51951 -3.79935 0
M  V30 18671 H 1737.09 3.98028 -1.26016 0
M  V30 18672 H 1738.48 4.1311 -5.29896 0
M  V30 18673 N 1741.2 1.20323 1.01785 0
M  V30 18674 C 1742.11 0.966603 2.13761 0
M  V30 18675 C 1743.13 -0.0771059 1.73829 0
M  V30 18676 O 1744.3 0.110054 2.01099 0
M  V30 18677 C 1741.37 0.520405 3.42772 0
M  V30 18678 C 1740.43 1.63482 3.96954 0
M  V30 18679 C 1739.66 1.20981 5.19807 0
M  V30 18680 O 1739.89 0.0779814 5.70347 0
M  V30 18681 O 1738.82 2.01674 5.67108 0
M  V30 18682 H 1742.65 1.90414 2.36593 0
M  V30 18683 H 1740.23 0.986997 1.12155 0
M  V30 18684 H 1742.11 0.280747 4.20464 0
M  V30 18685 H 1740.79 -0.388563 3.21359 0
M  V30 18686 H 1739.69 1.92874 3.20547 0
M  V30 18687 H 1741.03 2.52074 4.22752 0
M  V30 18688 N 1742.68 -1.21073 1.00892 0
M  V30 18689 C 1743.63 -2.25613 0.565829 0
M  V30 18690 C 1744.62 -1.64812 -0.391588 0
M  V30 18691 O 1745.83 -1.78078 -0.262352 0
M  V30 18692 H 1742.2 -0.733755 0.164643 0
M  V30 18693 H 1744.17 -2.60321 1.45862 0
M  V30 18694 C 1742.92 -3.47589 -0.087861 0
M  V30 18695 H 1742.25 -3.94647 0.639828 0
M  V30 18696 H 1743.69 -4.22459 -0.361115 0
M  V30 18697 C 1742.14 -3.09609 -1.32829 0
M  V30 18698 O 1742.67 -3.20449 -2.4223 0
M  V30 18699 N 1740.88 -2.64234 -1.2095 0
M  V30 18700 H 1740.43 -2.55613 -0.319301 0
M  V30 18701 H 1740.39 -2.39191 -2.04046 0
M  V30 18702 N 1744.16 -0.784156 -1.36707 0
M  V30 18703 C 1745.4 -0.359468 -2.01214 0
M  V30 18704 C 1745.76 1.04773 -1.60893 0
M  V30 18705 O 1746.96 1.57321 -2.17953 0
M  V30 18706 C 1745.23 -0.512117 -3.53712 0
M  V30 18707 S 1746.79 -0.174528 -4.38453 0
M  V30 18708 H 1743.61 -0.137618 -0.697555 0
M  V30 18709 H 1746.21 -1.02149 -1.66691 0
M  V30 18710 H 1744.92 -1.53667 -3.80545 0
M  V30 18711 H 1744.45 0.166027 -3.9305 0
M  V30 18712 H 1746.46 1.02572 -4.85483 0
M  V30 18713 N 1745.64 1.48215 -0.535727 0
M  V30 18714 C 1746.88 2.028 -0.00373305 0
M  V30 18715 C 1747.22 1.41143 1.33388 0
M  V30 18716 O 1746.49 0.559227 1.86287 0
M  V30 18717 C 1746.77 3.59925 0.112186 0
M  V30 18718 C 1746.63 4.32053 -1.251 0
M  V30 18719 C 1747.95 4.32083 0.836177 0
M  V30 18720 H 1745.06 0.736995 -0.00283063 0
M  V30 18721 H 1747.71 1.76877 -0.693868 0
M  V30 18722 H 1745.86 3.82142 0.69996 0
M  V30 18723 H 1747.53 4.21238 -1.88033 0
M  V30 18724 H 1745.77 3.93246 -1.83139 0
M  V30 18725 H 1746.44 5.4046 -1.12283 0
M  V30 18726 H 1748.92 4.1473 0.337333 0
M  V30 18727 H 1747.79 5.41699 0.886196 0
M  V30 18728 H 1748.06 3.99772 1.88771 0
M  V30 18729 N 1747.11 0.27113 1.5525 0
M  V30 18730 C 1748.36 -0.347304 1.99804 0
M  V30 18731 C 1748.69 -1.55803 1.15928 0
M  V30 18732 O 1747.97 -1.93154 0.228386 0
M  V30 18733 C 1748.25 -0.733408 3.52552 0
M  V30 18734 C 1748.1 0.48438 4.47184 0
M  V30 18735 C 1749.42 -1.57136 4.11092 0
M  V30 18736 H 1746.54 -0.124762 0.726363 0
M  V30 18737 H 1749.18 0.37728 1.86217 0
M  V30 18738 H 1747.33 -1.35076 3.64262 0
M  V30 18739 H 1749.01 1.12293 4.47424 0
M  V30 18740 H 1747.25 1.12317 4.19008 0
M  V30 18741 H 1747.92 0.170525 5.51737 0
M  V30 18742 H 1750.4 -1.05001 4.02634 0
M  V30 18743 H 1749.27 -1.81033 5.18187 0
M  V30 18744 H 1749.53 -2.55111 3.61069 0
M  V30 18745 N 1748.59 -1.576 -0.00164943 0
M  V30 18746 C 1749.54 -2.04799 -1.00207 0
M  V30 18747 C 1750.53 -0.9424 -1.30413 0
M  V30 18748 O 1751.72 -1.20618 -1.29539 0
M  V30 18749 C 1748.85 -2.55349 -2.29459 0
M  V30 18750 C 1747.93 -3.72782 -2.02224 0
M  V30 18751 N 1748.32 -4.84528 -1.45142 0
M  V30 18752 C 1746.62 -3.80681 -2.32375 0
M  V30 18753 C 1747.32 -5.65975 -1.34339 0
M  V30 18754 N 1746.3 -5.11927 -1.82844 0
M  V30 18755 H 1750.1 -2.88608 -0.555191 0
M  V30 18756 H 1747.62 -1.6107 -0.20738 0
M  V30 18757 H 1749.61 -2.87438 -3.01969 0
M  V30 18758 H 1748.27 -1.72957 -2.74802 0
M  V30 18759 H 1749.28 -5.05412 -1.13045 0
M  V30 18760 H 1745.96 -3.09141 -2.80603 0
M  V30 18761 H 1747.35 -6.65782 -0.904622 0
M  V30 18762 N 1750.07 0.274379 -1.55193 0
M  V30 18763 C 1751.49 0.621497 -1.47002 0
M  V30 18764 C 1751.69 1.89572 -0.682995 0
M  V30 18765 O 1750.74 2.51696 -0.201296 0
M  V30 18766 C 1752.06 0.749741 -2.91203 0
M  V30 18767 C 1753.6 0.843886 -3.01409 0
M  V30 18768 C 1754.08 1.00392 -4.46862 0
M  V30 18769 N 1755.57 1.06947 -4.50684 0
M  V30 18770 C 1756.3 1.21207 -5.60443 0
M  V30 18771 N 1755.8 1.32195 -6.80071 0
M  V30 18772 N 1757.59 1.24307 -5.48183 0
M  V30 18773 H 1749.74 -0.562462 -2.04817 0
M  V30 18774 H 1752.01 -0.190205 -0.928723 0
M  V30 18775 H 1751.71 -0.116074 -3.51508 0
M  V30 18776 H 1751.59 1.63046 -3.40141 0
M  V30 18777 H 1753.97 1.70017 -2.41202 0
M  V30 18778 H 1754.06 -0.061411 -2.55726 0
M  V30 18779 H 1753.7 0.152298 -5.07672 0
M  V30 18780 H 1753.63 1.92384 -4.902 0
M  V30 18781 H 1756.12 0.997012 -3.64511 0
M  V30 18782 H 1756.43 1.42906 -7.59472 0
M  V30 18783 H 1754.78 1.29202 -6.82885 0
M  V30 18784 H 1757.97 1.15352 -4.53665 0
M  V30 18785 H 1758.14 1.35076 -6.33765 0
M  V30 18786 N 1751.55 1.48103 0.538828 0
M  V30 18787 C 1752.83 1.46155 1.29992 0
M  V30 18788 C 1753.21 0.16841 2.10427 0
M  V30 18789 O 1752.55 -0.849967 2.12103 0
M  V30 18790 C 1752.76 2.71826 2.18888 0
M  V30 18791 C 1754.11 3.19794 2.79315 0
M  V30 18792 O 1755.14 2.72681 2.2918 0
M  V30 18793 O 1753.99 4.0175 3.70485 0
M  V30 18794 H 1751.09 0.583293 0.586258 0
M  V30 18795 H 1753.63 1.60326 0.556212 0
M  V30 18796 H 1752.41 3.57462 1.59176 0
M  V30 18797 H 1752.03 2.60332 3.00521 0
M  V30 18798 N 1753.03 -0.787016 1.36542 0
M  V30 18799 C 1754.28 -1.54019 1.30234 0
M  V30 18800 C 1754.59 -1.95259 -0.115496 0
M  V30 18801 O 1755.79 -2.69827 -0.300966 0
M  V30 18802 C 1754.25 -2.78048 2.28512 0
M  V30 18803 C 1753.86 -2.43968 3.75744 0
M  V30 18804 C 1755.6 -3.56025 2.31185 0
M  V30 18805 C 1753.51 -3.64406 4.65792 0
M  V30 18806 H 1752.44 -0.578185 0.483961 0
M  V30 18807 H 1755.09 -0.8634 1.61919 0
M  V30 18808 H 1753.47 -3.47538 1.89824 0
M  V30 18809 H 1754.65 -1.82359 4.23181 0
M  V30 18810 H 1752.96 -1.79197 3.75869 0
M  V30 18811 H 1755.56 -4.45514 2.9567 0
M  V30 18812 H 1755.9 -3.94783 1.32107 0
M  V30 18813 H 1756.43 -2.93516 2.68502 0
M  V30 18814 H 1753.17 -3.30742 5.65942 0
M  V30 18815 H 1752.69 -4.25173 4.2307 0
M  V30 18816 H 1754.37 -4.31406 4.82181 0
M  V30 18817 N 1754.5 -1.20861 -1.01145 0
M  V30 18818 C 1755.45 -0.962085 -2.09792 0
M  V30 18819 C 1756.42 0.109588 -1.65738 0
M  V30 18820 O 1757.61 -0.0362022 -1.90766 0
M  V30 18821 C 1754.75 -0.52586 -3.4107 0
M  V30 18822 C 1753.86 -1.66626 -3.98572 0
M  V30 18823 C 1752.99 -1.17983 -5.17932 0
M  V30 18824 C 1752.03 -2.29298 -5.67529 0
M  V30 18825 N 1751.17 -1.81836 -6.78145 0
M  V30 18826 H 1756.01 -1.89222 -2.30215 0
M  V30 18827 H 1753.55 -0.943108 -1.12889 0
M  V30 18828 H 1755.51 -0.25423 -4.16425 0
M  V30 18829 H 1754.14 0.367275 -3.20704 0
M  V30 18830 H 1753.19 -2.05268 -3.20264 0
M  V30 18831 H 1754.5 -2.50426 -4.3138 0
M  V30 18832 H 1753.65 -0.864477 -6.0051 0
M  V30 18833 H 1752.39 -0.311793 -4.86702 0
M  V30 18834 H 1751.4 -2.61644 -4.83552 0
M  V30 18835 H 1752.62 -3.16587 -6.00791 0
M  V30 18836 H 1750.57 -0.973665 -6.48734 0
M  V30 18837 H 1750.49 -2.59213 -7.10172 0
M  V30 18838 H 1751.75 -1.53315 -7.64274 0
M  V30 18839 N 1755.98 1.20536 -1.01532 0
M  V30 18840 C 1757.23 1.89496 -0.70254 0
M  V30 18841 C 1757.55 1.7915 0.770072 0
M  V30 18842 O 1756.82 1.19308 1.55379 0
M  V30 18843 H 1755.4 0.701447 -0.256868 0
M  V30 18844 H 1758.06 1.46394 -1.28665 0
M  V30 18845 H 1757.16 2.96155 -0.984817 0
M  V30 18846 N 1757.46 0.791395 1.36289 0
M  V30 18847 C 1758.41 0.179128 2.31909 0
M  V30 18848 C 1759.4 -0.662657 1.55901 0
M  V30 18849 O 1760.61 -0.55752 1.71148 0
M  V30 18850 H 1756.98 0.0391522 0.75098 0
M  V30 18851 H 1758.95 1.001 2.8111 0
M  V30 18852 C 1757.7 -0.670016 3.41183 0
M  V30 18853 H 1757.03 -0.0316331 3.99787 0
M  V30 18854 H 1758.47 -1.06506 4.10405 0
M  V30 18855 C 1756.93 -1.8291 2.82923 0
M  V30 18856 O 1757.46 -2.92579 2.75247 0
M  V30 18857 N 1755.66 -1.63584 2.40185 0
M  V30 18858 H 1755.21 -0.743799 2.46628 0
M  V30 18859 H 1755.17 -2.41298 2.01551 0
M  V30 18860 N 1758.94 -1.47929 0.54358 0
M  V30 18861 C 1759.89 -2.3151 -0.224935 0
M  V30 18862 C 1760.88 -1.4208 -0.922473 0
M  V30 18863 O 1762.09 -1.58917 -0.845309 0
M  V30 18864 H 1758.46 -0.746424 -0.0914091 0
M  V30 18865 H 1760.43 -2.94192 0.499381 0
M  V30 18866 C 1759.18 -3.24439 -1.25038 0
M  V30 18867 H 1758.51 -3.93207 -0.723059 0
M  V30 18868 H 1759.95 -3.8578 -1.75927 0
M  V30 18869 C 1758.4 -2.46998 -2.29115 0
M  V30 18870 O 1758.93 -2.20457 -3.358 0
M  V30 18871 N 1757.14 -2.08249 -2.02684 0
M  V30 18872 H 1756.69 -2.30034 -1.15941 0
M  V30 18873 H 1756.65 -1.56748 -2.72539 0
M  V30 18874 N 1760.42 -0.27936 -1.55104 0
M  V30 18875 C 1761.66 0.336703 -1.99985 0
M  V30 18876 C 1762 1.55186 -1.16752 0
M  V30 18877 O 1761.27 1.93031 -0.238626 0
M  V30 18878 C 1761.55 0.714701 -3.52936 0
M  V30 18879 C 1761.41 -0.508088 -4.46921 0
M  V30 18880 C 1762.73 1.54953 -4.11919 0
M  V30 18881 H 1759.85 0.120908 -0.727015 0
M  V30 18882 H 1762.49 -0.38715 -1.86014 0
M  V30 18883 H 1760.64 1.33143 -3.64973 0
M  V30 18884 H 1762.31 -1.14664 -4.46822 0
M  V30 18885 H 1760.55 -1.14537 -4.18406 0
M  V30 18886 H 1761.22 -0.199782 -5.51638 0
M  V30 18887 H 1763.7 1.02864 -4.03185 0
M  V30 18888 H 1762.58 1.78282 -5.1914 0
M  V30 18889 H 1762.84 2.53192 -3.62417 0
M  V30 18890 N 1761.9 1.57599 -0.0067085 0
M  V30 18891 C 1762.83 2.04302 1.01665 0
M  V30 18892 C 1763.81 0.934217 1.33083 0
M  V30 18893 O 1764.99 1.20285 1.45133 0
M  V30 18894 C 1762.12 2.44627 2.34255 0
M  V30 18895 C 1761.16 3.66307 2.18453 0
M  V30 18896 S 1762 5.13937 1.50428 0
M  V30 18897 C 1763.15 5.57538 2.84434 0
M  V30 18898 H 1763.39 2.90784 0.619005 0
M  V30 18899 H 1760.92 1.53042 0.204354 0
M  V30 18900 H 1762.88 2.68527 3.10489 0
M  V30 18901 H 1761.54 1.58531 2.71158 0
M  V30 18902 H 1760.73 3.92295 3.16419 0
M  V30 18903 H 1760.33 3.42443 1.50363 0
M  V30 18904 H 1762.62 5.60408 3.80722 0
M  V30 18905 H 1763.57 6.57392 2.63138 0
M  V30 18906 H 1763.98 4.85119 2.88651 0
M  V30 18907 N 1763.37 -0.266145 1.55336 0
M  V30 18908 C 1764.3 -1.33322 1.91697 0
M  V30 18909 C 1765.28 -1.51182 0.77961 0
M  V30 18910 O 1766.47 -1.64112 1.03832 0
M  V30 18911 C 1763.6 -2.69151 2.19488 0
M  V30 18912 C 1762.55 -2.66012 3.35293 0
M  V30 18913 C 1761.88 -4.05458 3.4858 0
M  V30 18914 C 1763.18 -2.24681 4.71504 0
M  V30 18915 H 1764.87 -1.03138 2.81075 0
M  V30 18916 H 1762.42 -0.494702 1.35236 0
M  V30 18917 H 1764.37 -3.43918 2.43512 0
M  V30 18918 H 1763.1 -3.00932 1.26916 0
M  V30 18919 H 1761.76 -1.93703 3.11247 0
M  V30 18920 H 1761.4 -4.34472 2.53462 0
M  V30 18921 H 1761.1 -4.04251 4.26445 0
M  V30 18922 H 1762.63 -4.81954 3.74904 0
M  V30 18923 H 1764.04 -2.89173 4.95027 0
M  V30 18924 H 1762.44 -2.34622 5.52334 0
M  V30 18925 H 1763.51 -1.19819 4.69863 0
M  V30 18926 N 1764.85 -1.48386 -0.530967 0
M  V30 18927 C 1765.78 -1.57405 -1.65224 0
M  V30 18928 C 1766.76 -0.424555 -1.5696 0
M  V30 18929 O 1767.95 -0.63602 -1.77446 0
M  V30 18930 C 1765.07 -1.50112 -3.03618 0
M  V30 18931 C 1764.12 -2.6989 -3.30245 0
M  V30 18932 S 1764.95 -4.31867 -3.16624 0
M  V30 18933 C 1766.11 -4.27171 -4.57466 0
M  V30 18934 H 1766.34 -2.52262 -1.57324 0
M  V30 18935 H 1763.87 -1.36907 -0.713851 0
M  V30 18936 H 1765.83 -1.46591 -3.83434 0
M  V30 18937 H 1764.49 -0.565934 -3.0896 0
M  V30 18938 H 1763.69 -2.60923 -4.31202 0
M  V30 18939 H 1763.29 -2.70668 -2.58098 0
M  V30 18940 H 1765.58 -3.97044 -5.48965 0
M  V30 18941 H 1766.52 -5.28304 -4.71487 0
M  V30 18942 H 1766.93 -3.57653 -4.36743 0
M  V30 18943 N 1766.33 0.779763 -1.36958 0
M  V30 18944 C 1767.74 1.35555 -1.28381 0
M  V30 18945 C 1768.09 1.96067 0.0721422 0
M  V30 18946 O 1767.22 1.9325 0.973824 0
M  V30 18947 C 1767.81 2.46454 -2.32477 0
M  V30 18948 C 1766.37 2.99823 -2.27559 0
M  V30 18949 C 1765.52 1.72975 -2.16737 0
M  V30 18950 H 1768.47 0.580646 -1.47696 0
M  V30 18951 H 1768.49 3.25726 -1.96679 0
M  V30 18952 H 1768 2.02383 -3.31154 0
M  V30 18953 H 1766.1 3.4829 -1.3238 0
M  V30 18954 H 1766.22 3.55982 -3.20646 0
M  V30 18955 H 1764.58 1.95587 -1.6315 0
M  V30 18956 H 1765.36 1.31018 -3.17315 0
M  V30 18957 N 1767.81 1.21396 1.00503 0
M  V30 18958 C 1769.04 1.05714 1.77855 0
M  V30 18959 C 1769.45 -0.393058 1.84663 0
M  V30 18960 O 1768.81 -1.2727 1.308 0
M  V30 18961 C 1768.86 1.64774 3.21763 0
M  V30 18962 O 1768.58 3.0412 3.15346 0
M  V30 18963 C 1770.08 1.54202 4.15616 0
M  V30 18964 H 1767.3 0.371241 0.558947 0
M  V30 18965 H 1769.84 1.60733 1.26433 0
M  V30 18966 H 1768 1.13847 3.70294 0
M  V30 18967 H 1768.41 3.32356 4.05758 0
M  V30 18968 H 1769.89 2.00269 5.14389 0
M  V30 18969 H 1770.36 0.496455 4.36385 0
M  V30 18970 H 1770.97 2.04377 3.72975 0
M  V30 18971 N 1769.29 -1.19996 1.0217 0
M  V30 18972 C 1770.53 -1.89121 0.712579 0
M  V30 18973 C 1770.85 -1.79556 -0.760561 0
M  V30 18974 O 1770.12 -1.2013 -1.54744 0
M  V30 18975 H 1768.7 -0.700075 0.260585 0
M  V30 18976 H 1771.37 -1.4571 1.2944 0
M  V30 18977 H 1770.46 -2.95629 1.00051 0
M  V30 18978 N 1770.76 -0.798611 -1.35867 0
M  V30 18979 C 1772.01 -0.371795 -1.98244 0
M  V30 18980 C 1772.33 1.06474 -1.64081 0
M  V30 18981 O 1773.53 1.59428 -2.19761 0
M  V30 18982 C 1771.99 -0.613821 -3.54627 0
M  V30 18983 C 1771.6 -2.06237 -3.97706 0
M  V30 18984 C 1773.34 -0.251966 -4.23752 0
M  V30 18985 C 1771.25 -2.25057 -5.46903 0
M  V30 18986 H 1770.18 -0.135278 -0.741765 0
M  V30 18987 H 1772.83 -0.981544 -1.55042 0
M  V30 18988 H 1771.21 0.0657688 -3.95945 0
M  V30 18989 H 1772.38 -2.77912 -3.67562 0
M  V30 18990 H 1770.7 -2.38334 -3.41447 0
M  V30 18991 H 1773.3 -0.370736 -5.33413 0
M  V30 18992 H 1773.64 0.800968 -4.08522 0
M  V30 18993 H 1774.17 -0.885155 -3.87827 0
M  V30 18994 H 1770.91 -3.28767 -5.67091 0
M  V30 18995 H 1770.43 -1.57898 -5.78643 0
M  V30 18996 H 1772.11 -2.06219 -6.13256 0
M  V30 18997 N 1772.24 1.47639 -0.551417 0
M  V30 18998 C 1773.49 2.01687 -0.0230887 0
M  V30 18999 C 1773.8 1.43178 1.33265 0
M  V30 19000 O 1775.01 1.88853 1.95056 0
M  V30 19001 C 1773.47 3.59899 0.00918719 0
M  V30 19002 C 1773.07 4.27398 -1.34295 0
M  V30 19003 C 1774.82 4.21718 0.485213 0
M  V30 19004 C 1772.72 5.77601 -1.2701 0
M  V30 19005 H 1771.65 0.753984 -0.00486122 0
M  V30 19006 H 1774.31 1.6969 -0.698405 0
M  V30 19007 H 1772.69 3.88832 0.75003 0
M  V30 19008 H 1773.86 4.10113 -2.10105 0
M  V30 19009 H 1772.18 3.77542 -1.75644 0
M  V30 19010 H 1774.77 5.3178 0.558025 0
M  V30 19011 H 1775.12 3.88495 1.4959 0
M  V30 19012 H 1775.65 3.97294 -0.200594 0
M  V30 19013 H 1772.39 6.15433 -2.2566 0
M  V30 19014 H 1771.91 5.97239 -0.553709 0
M  V30 19015 H 1773.59 6.39692 -0.969726 0
M  V30 19016 N 1773.72 0.287581 1.54954 0
M  V30 19017 C 1774.67 -0.594449 2.23013 0
M  V30 19018 C 1775.64 -1.14007 1.20795 0
M  V30 19019 O 1776.82 -1.18708 1.49376 0
M  V30 19020 C 1773.96 -1.76687 2.96439 0
M  V30 19021 C 1773.08 -1.25391 4.13402 0
M  V30 19022 C 1772.21 -2.38912 4.74441 0
M  V30 19023 C 1771.25 -1.84683 5.83574 0
M  V30 19024 N 1770.39 -2.91725 6.38624 0
M  V30 19025 H 1775.23 -0.00743921 2.97999 0
M  V30 19026 H 1772.76 0.00809578 1.47098 0
M  V30 19027 H 1774.72 -2.45621 3.37233 0
M  V30 19028 H 1773.35 -2.32571 2.23853 0
M  V30 19029 H 1772.4 -0.45726 3.77642 0
M  V30 19030 H 1773.72 -0.816813 4.92067 0
M  V30 19031 H 1772.87 -3.15818 5.18019 0
M  V30 19032 H 1771.61 -2.85943 3.95079 0
M  V30 19033 H 1770.61 -1.06261 5.39434 0
M  V30 19034 H 1771.84 -1.38572 6.64812 0
M  V30 19035 H 1769.78 -3.38115 5.62152 0
M  V30 19036 H 1769.7 -2.5247 7.12597 0
M  V30 19037 H 1770.97 -3.68569 6.86861 0
M  V30 19038 N 1775.2 -1.57593 0.0150662 0
M  V30 19039 C 1776.13 -2.12395 -0.970081 0
M  V30 19040 C 1777.11 -1.03666 -1.34861 0
M  V30 19041 O 1778.29 -1.31427 -1.4297 0
M  V30 19042 C 1775.42 -2.63958 -2.25707 0
M  V30 19043 C 1774.38 -3.77348 -2.01971 0
M  V30 19044 C 1773.7 -4.15284 -3.36814 0
M  V30 19045 C 1775 -5.04008 -1.37017 0
M  V30 19046 H 1776.7 -2.9496 -0.513731 0
M  V30 19047 H 1774.24 -1.41889 -0.245666 0
M  V30 19048 H 1776.2 -3.00927 -2.94993 0
M  V30 19049 H 1774.92 -1.78535 -2.73483 0
M  V30 19050 H 1773.58 -3.40795 -1.35107 0
M  V30 19051 H 1773.23 -3.26863 -3.82321 0
M  V30 19052 H 1772.93 -4.91686 -3.21744 0
M  V30 19053 H 1774.45 -4.54824 -4.07391 0
M  V30 19054 H 1775.87 -5.38652 -1.96282 0
M  V30 19055 H 1774.26 -5.85315 -1.32388 0
M  V30 19056 H 1775.33 -4.83698 -0.341281 0
M  V30 19057 N 1776.68 0.257904 -1.55475 0
M  V30 19058 C 1777.93 0.985329 -1.75995 0
M  V30 19059 C 1778.24 1.86898 -0.57694 0
M  V30 19060 O 1779.44 2.63233 -0.664893 0
M  V30 19061 C 1777.9 1.80195 -3.11541 0
M  V30 19062 C 1777.51 0.966227 -4.37456 0
M  V30 19063 C 1779.25 2.52277 -3.41404 0
M  V30 19064 C 1777.16 1.7781 -5.64037 0
M  V30 19065 H 1776.09 0.371623 -0.656058 0
M  V30 19066 H 1778.74 0.240396 -1.81919 0
M  V30 19067 H 1777.12 2.58841 -2.99695 0
M  V30 19068 H 1778.3 0.222865 -4.60261 0
M  V30 19069 H 1776.61 0.359255 -4.14847 0
M  V30 19070 H 1779.21 3.13451 -4.33189 0
M  V30 19071 H 1779.55 3.23333 -2.62224 0
M  V30 19072 H 1780.08 1.80649 -3.54416 0
M  V30 19073 H 1776.82 1.11147 -6.46008 0
M  V30 19074 H 1776.34 2.49703 -5.45352 0
M  V30 19075 H 1778.02 2.348 -6.02891 0
M  V30 19076 N 1778.15 1.48666 0.52309 0
M  V30 19077 C 1779.43 1.47526 1.28435 0
M  V30 19078 C 1779.81 0.190719 2.10237 0
M  V30 19079 O 1779.16 -0.827423 2.12993 0
M  V30 19080 C 1779.37 2.74132 2.15992 0
M  V30 19081 C 1780.72 3.22739 2.75907 0
M  V30 19082 O 1781.74 2.75097 2.26275 0
M  V30 19083 O 1780.6 4.05657 3.66203 0
M  V30 19084 H 1777.69 0.589478 0.580039 0
M  V30 19085 H 1780.24 1.60907 0.539176 0
M  V30 19086 H 1779.01 3.5913 1.55375 0
M  V30 19087 H 1778.64 2.63505 2.97743 0
M  V30 19088 N 1779.63 -0.772489 1.37369 0
M  V30 19089 C 1780.88 -1.53102 1.32537 0
M  V30 19090 C 1781.21 -1.9429 -0.0903608 0
M  V30 19091 O 1780.46 -1.64286 -1.06342 0
M  V30 19092 C 1780.76 -2.80907 2.20966 0
M  V30 19093 C 1780.43 -2.58775 3.69251 0
M  V30 19094 C 1779.09 -2.52448 4.09663 0
M  V30 19095 C 1781.44 -2.38954 4.63196 0
M  V30 19096 C 1778.77 -2.24288 5.42136 0
M  V30 19097 C 1781.12 -2.12318 5.95906 0
M  V30 19098 C 1779.79 -2.04434 6.35423 0
M  V30 19099 H 1779.06 -0.56024 0.484987 0
M  V30 19100 H 1781.7 -0.889859 1.69569 0
M  V30 19101 H 1780.01 -3.49578 1.76925 0
M  V30 19102 H 1781.7 -3.38782 2.14541 0
M  V30 19103 H 1778.29 -2.64563 3.37201 0
M  V30 19104 H 1782.48 -2.42833 4.32835 0
M  V30 19105 H 1777.73 -2.16679 5.71717 0
M  V30 19106 H 1781.91 -1.95979 6.68255 0
M  V30 19107 H 1779.54 -1.82378 7.37999 0
M  V30 19108 N 1781.11 -1.21927 -0.998575 0
M  V30 19109 C 1782.36 -1.03834 -1.73386 0
M  V30 19110 C 1782.68 0.428247 -1.90239 0
M  V30 19111 O 1781.95 1.30847 -1.45794 0
M  V30 19112 H 1780.53 -0.381225 -0.642399 0
M  V30 19113 H 1783.19 -1.53344 -1.20298 0
M  V30 19114 H 1782.29 -1.51155 -2.73054 0
M  V30 19115 N 1782.59 1.19452 -1.02805 0
M  V30 19116 C 1783.83 1.90815 -0.732731 0
M  V30 19117 C 1784.19 1.77774 0.725275 0
M  V30 19118 O 1785.39 2.43726 1.13363 0
M  V30 19119 C 1783.66 3.37692 -1.17042 0
M  V30 19120 S 1785.22 4.27281 -0.998818 0
M  V30 19121 H 1782.04 0.65905 -0.266784 0
M  V30 19122 H 1784.64 1.44418 -1.31771 0
M  V30 19123 H 1783.35 3.44708 -2.2272 0
M  V30 19124 H 1782.88 3.8912 -0.5787 0
M  V30 19125 H 1784.89 4.96116 0.0911076 0
M  V30 19126 N 1784.07 0.805805 1.35442 0
M  V30 19127 C 1785.03 0.221278 2.28129 0
M  V30 19128 C 1786.03 -0.590919 1.49549 0
M  V30 19129 O 1787.22 -0.409518 1.69318 0
M  V30 19130 C 1784.35 -0.691643 3.3381 0
M  V30 19131 H 1785.54 1.03875 2.81336 0
M  V30 19132 H 1783.1 0.5764 1.45284 0
M  V30 19133 H 1783.83 -1.53283 2.85788 0
M  V30 19134 H 1783.62 -0.110972 3.91943 0
M  V30 19135 H 1785.11 -1.09497 4.02989 0
M  V30 19136 N 1785.54 -1.47344 0.559239 0
M  V30 19137 C 1786.96 -1.58088 0.219155 0
M  V30 19138 C 1787.16 -1.55758 -1.27834 0
M  V30 19139 O 1786.22 -1.46207 -2.05864 0
M  V30 19140 C 1787.53 -2.88507 0.847606 0
M  V30 19141 C 1789.08 -3.02094 0.819022 0
M  V30 19142 C 1789.55 -4.35216 1.42658 0
M  V30 19143 N 1791.04 -4.41857 1.38986 0
M  V30 19144 C 1791.78 -5.43429 1.82956 0
M  V30 19145 N 1791.27 -6.51801 2.34792 0
M  V30 19146 N 1793.07 -5.34486 1.74015 0
M  V30 19147 H 1785.22 -1.47102 1.53215 0
M  V30 19148 H 1787.48 -0.700228 0.63905 0
M  V30 19149 H 1787.19 -2.95954 1.90011 0
M  V30 19150 H 1787.06 -3.75648 0.341841 0
M  V30 19151 H 1789.45 -2.94243 -0.224794 0
M  V30 19152 H 1789.53 -2.1649 1.36257 0
M  V30 19153 H 1789.17 -4.43824 2.46947 0
M  V30 19154 H 1789.1 -5.19556 0.858462 0
M  V30 19155 H 1791.59 -3.64133 1.01071 0
M  V30 19156 H 1791.91 -7.25482 2.66262 0
M  V30 19157 H 1790.25 -6.52685 2.38804 0
M  V30 19158 H 1793.44 -4.48721 1.33294 0
M  V30 19159 H 1793.62 -6.13506 2.086 0
M  V30 19160 N 1787.02 -0.295795 -1.54799 0
M  V30 19161 C 1788.44 0.0577516 -1.59495 0
M  V30 19162 C 1788.64 1.52862 -1.31284 0
M  V30 19163 O 1787.69 2.28061 -1.08372 0
M  V30 19164 C 1789.01 -0.335503 -2.98822 0
M  V30 19165 C 1790.56 -0.283835 -3.1171 0
M  V30 19166 C 1791.03 -0.651835 -4.53338 0
M  V30 19167 N 1792.52 -0.604171 -4.59243 0
M  V30 19168 C 1793.26 -0.861453 -5.66892 0
M  V30 19169 N 1792.75 -1.18443 -6.826 0
M  V30 19170 N 1794.55 -0.788863 -5.56537 0
M  V30 19171 H 1786.7 -1.25444 -1.71399 0
M  V30 19172 H 1788.96 -0.50822 -0.80026 0
M  V30 19173 H 1788.67 -1.35923 -3.24373 0
M  V30 19174 H 1788.54 0.313443 -3.75895 0
M  V30 19175 H 1790.93 0.730641 -2.85912 0
M  V30 19176 H 1791.01 -0.967331 -2.36804 0
M  V30 19177 H 1790.65 -1.66409 -4.79865 0
M  V30 19178 H 1790.58 0.053676 -5.26573 0
M  V30 19179 H 1793.07 -0.365262 -3.76131 0
M  V30 19180 H 1793.39 -1.36686 -7.60616 0
M  V30 19181 H 1791.73 -1.22242 -6.84165 0
M  V30 19182 H 1794.92 -0.536231 -4.65018 0
M  V30 19183 H 1795.09 -0.992744 -6.4035 0
M  V30 19184 N 1788.5 1.57583 -0.0234236 0
M  V30 19185 C 1789.43 2.12907 0.958804 0
M  V30 19186 C 1790.41 1.0438 1.34309 0
M  V30 19187 O 1791.6 1.32184 1.42271 0
M  V30 19188 C 1788.73 2.65151 2.24304 0
M  V30 19189 C 1787.68 3.78414 1.99967 0
M  V30 19190 C 1787.01 4.17064 3.34607 0
M  V30 19191 C 1788.31 5.04727 1.34342 0
M  V30 19192 H 1790 2.95228 0.498081 0
M  V30 19193 H 1787.55 1.42017 0.238138 0
M  V30 19194 H 1789.5 3.02487 2.93393 0
M  V30 19195 H 1788.22 1.79983 2.72532 0
M  V30 19196 H 1786.88 3.41507 1.33298 0
M  V30 19197 H 1786.53 3.28886 3.80583 0
M  V30 19198 H 1786.23 4.93385 3.19132 0
M  V30 19199 H 1787.76 4.56978 4.04973 0
M  V30 19200 H 1789.17 5.39686 1.93422 0
M  V30 19201 H 1787.57 5.86009 1.29282 0
M  V30 19202 H 1788.64 4.83872 0.315625 0
M  V30 19203 N 1789.98 -0.249655 1.5561 0
M  V30 19204 C 1790.94 -1.29242 1.89286 0
M  V30 19205 C 1791.94 -1.41214 0.769104 0
M  V30 19206 O 1793.13 -1.39962 1.03712 0
M  V30 19207 C 1790.26 -2.67053 2.11885 0
M  V30 19208 H 1791.46 -1.00601 2.82523 0
M  V30 19209 H 1789.01 -0.488819 1.4846 0
M  V30 19210 H 1789.75 -3.00838 1.21107 0
M  V30 19211 H 1789.53 -2.59745 2.93726 0
M  V30 19212 H 1791.02 -3.42353 2.39132 0
M  V30 19213 N 1791.46 -1.48941 -0.515198 0
M  V30 19214 C 1792.7 -1.5892 -1.26949 0
M  V30 19215 C 1793.06 -0.266142 -1.9055 0
M  V30 19216 O 1792.35 0.732387 -1.7705 0
M  V30 19217 C 1792.55 -2.67508 -2.37011 0
M  V30 19218 C 1792.37 -4.10244 -1.84201 0
M  V30 19219 C 1791.14 -4.77207 -1.66139 0
M  V30 19220 C 1793.34 -4.95937 -1.362 0
M  V30 19221 N 1791.32 -6.04306 -1.08108 0
M  V30 19222 C 1792.7 -6.13402 -0.902136 0
M  V30 19223 C 1794.75 -4.82047 -1.24641 0
M  V30 19224 C 1793.45 -7.18505 -0.33812 0
M  V30 19225 C 1795.48 -5.87286 -0.696375 0
M  V30 19226 C 1794.84 -7.03968 -0.24666 0
M  V30 19227 H 1790.94 -0.635987 -0.455021 0
M  V30 19228 H 1793.52 -1.85887 -0.579142 0
M  V30 19229 H 1791.7 -2.42338 -3.03524 0
M  V30 19230 H 1793.43 -2.67088 -3.0405 0
M  V30 19231 H 1790.18 -4.33776 -1.90094 0
M  V30 19232 H 1790.61 -6.72129 -0.810614 0
M  V30 19233 H 1795.25 -3.92163 -1.58012 0
M  V30 19234 H 1792.97 -8.081 0.00788597 0
M  V30 19235 H 1796.55 -5.78594 -0.609908 0
M  V30 19236 H 1795.43 -7.84011 0.172321 0
M  V30 19237 N 1792.94 0.765193 -1.37777 0
M  V30 19238 C 1793.9 1.8603 -1.33886 0
M  V30 19239 C 1794.9 1.58974 -0.241614 0
M  V30 19240 O 1796.09 1.66935 -0.497843 0
M  V30 19241 C 1793.22 3.2329 -1.08151 0
M  V30 19242 H 1794.41 1.9089 -2.31303 0
M  V30 19243 H 1791.97 0.965653 -1.22902 0
M  V30 19244 H 1792.7 3.24103 -0.112926 0
M  V30 19245 H 1792.49 3.4432 -1.8758 0
M  V30 19246 H 1793.98 4.03367 -1.08095 0
M  V30 19247 N 1794.41 1.22455 0.992094 0
M  V30 19248 C 1795.66 1.04752 1.72833 0
M  V30 19249 C 1795.98 -0.418152 1.90464 0
M  V30 19250 O 1795.25 -1.30072 1.46486 0
M  V30 19251 H 1793.83 0.384626 0.640368 0
M  V30 19252 H 1796.49 1.5398 1.19483 0
M  V30 19253 H 1795.59 1.52601 2.72249 0
M  V30 19254 N 1795.89 -1.18905 1.03437 0
M  V30 19255 C 1796.82 -2.24539 0.640669 0
M  V30 19256 C 1797.8 -1.66396 -0.353024 0
M  V30 19257 O 1798.99 -1.92779 -0.234522 0
M  V30 19258 C 1796.12 -3.473 -0.00367731 0
M  V30 19259 C 1795.07 -4.18151 0.912881 0
M  V30 19260 C 1794.4 -5.34534 0.133347 0
M  V30 19261 C 1795.7 -4.72342 2.22913 0
M  V30 19262 H 1797.39 -2.57726 1.52374 0
M  V30 19263 H 1794.94 -1.23883 0.734098 0
M  V30 19264 H 1796.89 -4.20396 -0.290783 0
M  V30 19265 H 1795.61 -3.13328 -0.921578 0
M  V30 19266 H 1794.27 -3.46945 1.18427 0
M  V30 19267 H 1793.92 -4.96809 -0.786762 0
M  V30 19268 H 1793.62 -5.82872 0.743905 0
M  V30 19269 H 1795.15 -6.10423 -0.146889 0
M  V30 19270 H 1796.56 -5.37165 2.00317 0
M  V30 19271 H 1794.96 -5.31189 2.79209 0
M  V30 19272 H 1796.03 -3.90108 2.87999 0
M  V30 19273 N 1797.37 -0.812977 -1.35013 0
M  V30 19274 C 1798.32 -0.216001 -2.31595 0
M  V30 19275 C 1799.31 0.637771 -1.56936 0
M  V30 19276 O 1800.52 0.530221 -1.72014 0
M  V30 19277 H 1796.89 -0.0510947 -0.750262 0
M  V30 19278 H 1798.86 -1.04559 -2.79482 0
M  V30 19279 C 1797.61 0.615651 -3.42206 0
M  V30 19280 H 1796.94 -0.0319737 -3.99787 0
M  V30 19281 H 1798.38 0.99963 -4.12048 0
M  V30 19282 C 1796.83 1.78386 -2.85797 0
M  V30 19283 O 1797.36 2.88163 -2.79866 0
M  V30 19284 N 1795.57 1.59742 -2.42757 0
M  V30 19285 H 1795.12 0.704468 -2.4778 0
M  V30 19286 H 1795.08 2.38061 -2.05364 0
M  V30 19287 N 1798.85 1.47045 -0.567045 0
M  V30 19288 C 1800.1 2.02046 -0.0465877 0
M  V30 19289 C 1800.42 1.44271 1.3119 0
M  V30 19290 O 1799.69 0.621533 1.85779 0
M  V30 19291 H 1798.27 0.746864 -0.0142323 0
M  V30 19292 H 1800.93 1.80335 -0.739281 0
M  V30 19293 H 1800.02 3.12081 0.0341623 0
M  V30 19294 N 1800.33 0.304 1.5464 0
M  V30 19295 C 1801.55 -0.306916 2.04611 0
M  V30 19296 C 1801.97 -1.4729 1.18114 0
M  V30 19297 O 1801.33 -1.81317 0.20743 0
M  V30 19298 C 1801.38 -0.760263 3.53415 0
M  V30 19299 O 1801.1 0.359321 4.36624 0
M  V30 19300 C 1802.6 -1.43602 4.19396 0
M  V30 19301 H 1799.82 -0.066247 0.667722 0
M  V30 19302 H 1802.36 0.444504 1.99611 0
M  V30 19303 H 1800.52 -1.4617 3.58766 0
M  V30 19304 H 1800.93 0.00582275 5.245 0
M  V30 19305 H 1802.41 -1.70436 5.25029 0
M  V30 19306 H 1802.88 -2.37705 3.69314 0
M  V30 19307 H 1803.49 -0.777683 4.18129 0
M  V30 19308 N 1801.8 -1.57568 0.0317802 0
M  V30 19309 C 1802.75 -2.06878 -0.958403 0
M  V30 19310 C 1803.74 -0.96985 -1.28385 0
M  V30 19311 O 1804.93 -1.23338 -1.26951 0
M  V30 19312 C 1802.06 -2.60159 -2.23991 0
M  V30 19313 C 1801.14 -3.76987 -1.94272 0
M  V30 19314 N 1801.54 -4.87498 -1.34832 0
M  V30 19315 C 1799.83 -3.85524 -2.24248 0
M  V30 19316 C 1800.53 -5.68697 -1.22304 0
M  V30 19317 N 1799.51 -5.1569 -1.71944 0
M  V30 19318 H 1803.31 -2.89721 -0.493848 0
M  V30 19319 H 1800.83 -1.61474 -0.173168 0
M  V30 19320 H 1802.82 -2.93778 -2.95804 0
M  V30 19321 H 1801.48 -1.78747 -2.71071 0
M  V30 19322 H 1802.49 -5.07696 -1.02299 0
M  V30 19323 H 1799.17 -3.15023 -2.73983 0
M  V30 19324 H 1800.56 -6.67551 -0.763197 0
M  V30 19325 N 1803.28 0.241399 -1.5574 0
M  V30 19326 C 1804.51 0.99028 -1.82231 0
M  V30 19327 C 1804.93 1.77949 -0.609559 0
M  V30 19328 O 1804.29 1.75843 0.44148 0
M  V30 19329 C 1804.34 1.89947 -3.06516 0
M  V30 19330 O 1803.44 2.99201 -2.83818 0
M  V30 19331 H 1802.78 0.281488 -0.601382 0
M  V30 19332 H 1805.31 0.260721 -2.02932 0
M  V30 19333 H 1805.32 2.31308 -3.36096 0
M  V30 19334 H 1804 1.31924 -3.94422 0
M  V30 19335 H 1802.58 2.61929 -2.6542 0
M  V30 19336 N 1804.76 1.49212 0.507292 0
M  V30 19337 C 1806.04 1.4888 1.26863 0
M  V30 19338 C 1806.42 0.213007 2.10023 0
M  V30 19339 O 1805.77 -0.804785 2.13858 0
M  V30 19340 C 1805.98 2.76407 2.13073 0
M  V30 19341 C 1807.32 3.25647 2.72468 0
M  V30 19342 O 1808.35 2.77481 2.23344 0
M  V30 19343 O 1807.21 4.09518 3.6188 0
M  V30 19344 H 1804.3 0.595597 0.573754 0
M  V30 19345 H 1806.85 1.6147 0.52208 0
M  V30 19346 H 1805.62 3.60758 1.51558 0
M  V30 19347 H 1805.24 2.66648 2.94932 0
M  V30 19348 N 1806.24 -0.757876 1.38181 0
M  V30 19349 C 1807.17 -1.87937 1.29441 0
M  V30 19350 C 1808.15 -1.61685 0.172246 0
M  V30 19351 O 1809.33 -1.85244 0.348836 0
M  V30 19352 C 1806.46 -3.23459 1.00459 0
M  V30 19353 C 1805.51 -3.68604 2.14554 0
M  V30 19354 S 1806.34 -3.80645 3.76656 0
M  V30 19355 C 1807.5 -5.18993 3.49853 0
M  V30 19356 H 1807.73 -1.95064 2.2436 0
M  V30 19357 H 1805.26 -0.920415 1.23967 0
M  V30 19358 H 1807.22 -4.01725 0.844209 0
M  V30 19359 H 1805.88 -3.14016 0.0726505 0
M  V30 19360 H 1805.07 -4.66892 1.8981 0
M  V30 19361 H 1804.68 -2.97479 2.26677 0
M  V30 19362 H 1806.97 -6.0461 3.05701 0
M  V30 19363 H 1807.91 -5.48755 4.47519 0
M  V30 19364 H 1808.32 -4.87587 2.84463 0
M  V30 19365 N 1807.72 -1.22979 -0.985586 0
M  V30 19366 C 1808.65 -1.03073 -2.09519 0
M  V30 19367 C 1809.63 0.0507025 -1.70024 0
M  V30 19368 O 1810.81 -0.112938 -1.93871 0
M  V30 19369 C 1807.94 -0.615578 -3.41801 0
M  V30 19370 C 1806.9 -1.64377 -3.95176 0
M  V30 19371 C 1806.22 -1.08422 -5.23592 0
M  V30 19372 C 1807.52 -3.03555 -4.25032 0
M  V30 19373 H 1809.22 -1.95882 -2.2643 0
M  V30 19374 H 1806.76 -0.943206 -1.0881 0
M  V30 19375 H 1808.72 -0.463394 -4.18844 0
M  V30 19376 H 1807.44 0.348185 -3.24739 0
M  V30 19377 H 1806.1 -1.78386 -3.20272 0
M  V30 19378 H 1805.75 -0.111597 -5.02876 0
M  V30 19379 H 1805.45 -1.77118 -5.6027 0
M  V30 19380 H 1806.97 -0.94378 -6.03262 0
M  V30 19381 H 1808.38 -2.92878 -4.92844 0
M  V30 19382 H 1806.78 -3.69441 -4.72899 0
M  V30 19383 H 1807.85 -3.52937 -3.32511 0
M  V30 19384 N 1809.19 1.18355 -1.04066 0
M  V30 19385 C 1810.14 2.21987 -0.631714 0
M  V30 19386 C 1811.11 1.62142 0.360462 0
M  V30 19387 O 1812.3 1.89096 0.254445 0
M  V30 19388 C 1809.44 3.451 -0.000843566 0
M  V30 19389 C 1808.55 4.19283 -1.04048 0
M  V30 19390 C 1807.68 5.29852 -0.37813 0
M  V30 19391 C 1806.72 5.95807 -1.40287 0
M  V30 19392 N 1805.86 6.97915 -0.765481 0
M  V30 19393 H 1810.7 2.56323 -1.51995 0
M  V30 19394 H 1808.24 1.25923 -0.760384 0
M  V30 19395 H 1810.2 4.15445 0.382267 0
M  V30 19396 H 1808.83 3.11383 0.850911 0
M  V30 19397 H 1807.88 3.47765 -1.54154 0
M  V30 19398 H 1809.19 4.64457 -1.81882 0
M  V30 19399 H 1808.34 6.06671 0.059186 0
M  V30 19400 H 1807.08 4.8578 0.432293 0
M  V30 19401 H 1806.09 5.17729 -1.85032 0
M  V30 19402 H 1807.31 6.41962 -2.21499 0
M  V30 19403 H 1805.26 6.55995 0.0246364 0
M  V30 19404 H 1805.18 7.41341 -1.48152 0
M  V30 19405 H 1806.44 7.78702 -0.35256 0
M  V30 19406 N 1810.67 0.820125 1.3458 0
M  V30 19407 C 1811.9 0.418747 2.03129 0
M  V30 19408 C 1812.32 -0.966605 1.61364 0
M  V30 19409 O 1811.68 -1.62847 0.796903 0
M  V30 19410 C 1811.73 0.525681 3.56748 0
M  V30 19411 O 1810.83 -0.455592 4.09876 0
M  V30 19412 H 1810.17 0.172819 0.641116 0
M  V30 19413 H 1812.7 1.10977 1.71888 0
M  V30 19414 H 1812.71 0.400422 4.0603 0
M  V30 19415 H 1811.39 1.53609 3.86493 0
M  V30 19416 H 1809.97 -0.289449 3.71775 0
M  V30 19417 N 1812.15 -1.46743 0.574835 0
M  V30 19418 C 1813.08 -2.27221 -0.211109 0
M  V30 19419 C 1814.06 -1.35143 -0.90416 0
M  V30 19420 O 1815.25 -1.64545 -0.919627 0
M  V30 19421 C 1812.37 -3.12665 -1.30223 0
M  V30 19422 C 1811.42 -4.20449 -0.715857 0
M  V30 19423 S 1812.25 -5.33596 0.451197 0
M  V30 19424 C 1813.41 -6.22606 -0.641314 0
M  V30 19425 H 1813.64 -2.93533 0.471766 0
M  V30 19426 H 1811.17 -1.50107 0.361547 0
M  V30 19427 H 1813.13 -3.62459 -1.927 0
M  V30 19428 H 1811.79 -2.45682 -1.95702 0
M  V30 19429 H 1810.99 -4.80031 -1.53578 0
M  V30 19430 H 1810.59 -3.73627 -0.166909 0
M  V30 19431 H 1812.88 -6.60021 -1.52899 0
M  V30 19432 H 1813.82 -7.08052 -0.0824416 0
M  V30 19433 H 1814.23 -5.56586 -0.941918 0
M  V30 19434 N 1813.63 -0.312197 -1.54477 0
M  V30 19435 C 1814.58 0.574207 -2.20651 0
M  V30 19436 C 1815.56 1.09037 -1.18321 0
M  V30 19437 O 1816.75 1.02928 -1.43996 0
M  V30 19438 C 1813.88 1.74019 -2.95926 0
M  V30 19439 C 1812.97 1.23946 -4.05584 0
M  V30 19440 N 1813.36 0.457561 -5.03726 0
M  V30 19441 C 1811.66 1.51921 -4.19328 0
M  V30 19442 C 1812.36 0.189523 -5.81391 0
M  V30 19443 N 1811.34 0.772477 -5.38083 0
M  V30 19444 H 1815.14 -0.0306045 -2.93884 0
M  V30 19445 H 1812.65 -0.117497 -1.61974 0
M  V30 19446 H 1814.65 2.38687 -3.4181 0
M  V30 19447 H 1813.31 2.34859 -2.24212 0
M  V30 19448 H 1814.32 0.101432 -5.17801 0
M  V30 19449 H 1811 2.13428 -3.58824 0
M  V30 19450 H 1812.39 -0.439199 -6.70463 0
M  V30 19451 N 1815.11 1.57549 -0.040136 0
M  V30 19452 C 1816.35 1.9187 0.634838 0
M  V30 19453 C 1816.68 0.918178 1.7203 0
M  V30 19454 O 1815.95 -0.0386563 1.95862 0
M  V30 19455 H 1814.53 0.708245 0.237483 0
M  V30 19456 H 1817.19 1.9469 -0.0905369 0
M  V30 19457 H 1816.28 2.92799 1.08053 0
M  V30 19458 N 1816.58 -0.233136 1.55866 0
M  V30 19459 C 1817.81 -0.976415 1.82411 0
M  V30 19460 C 1818.23 -1.78409 0.617724 0
M  V30 19461 O 1817.58 -1.77749 -0.413709 0
M  V30 19462 C 1817.64 -1.90328 3.07339 0
M  V30 19463 O 1817.36 -1.12828 4.23322 0
M  V30 19464 C 1818.86 -2.76142 3.46786 0
M  V30 19465 H 1816.08 -0.2867 0.606666 0
M  V30 19466 H 1818.62 -0.251863 2.02943 0
M  V30 19467 H 1816.78 -2.58193 2.88816 0
M  V30 19468 H 1817.19 -1.75643 4.94216 0
M  V30 19469 H 1818.66 -3.36901 4.37266 0
M  V30 19470 H 1819.14 -3.47953 2.68003 0
M  V30 19471 H 1819.75 -2.13708 3.67708 0
M  V30 19472 N 1818.06 -1.49479 -0.499372 0
M  V30 19473 C 1819.47 -1.52231 -1.08087 0
M  V30 19474 C 1819.83 -0.309442 -1.93744 0
M  V30 19475 O 1818.95 0.580587 -2.08466 0
M  V30 19476 C 1819.55 -2.75857 -1.96694 0
M  V30 19477 C 1818.1 -2.81381 -2.50003 0
M  V30 19478 C 1817.25 -2.46166 -1.27662 0
M  V30 19479 H 1820.2 -1.56153 -0.283211 0
M  V30 19480 H 1820.22 -2.56111 -2.81403 0
M  V30 19481 H 1819.74 -3.64114 -1.34324 0
M  V30 19482 H 1817.84 -1.97408 -3.16008 0
M  V30 19483 H 1817.95 -3.83591 -2.87045 0
M  V30 19484 H 1816.31 -1.97981 -1.60236 0
M  V30 19485 H 1817.1 -3.36699 -0.669974 0
M  V30 19486 N 1819.54 0.750537 -1.38581 0
M  V30 19487 C 1820.77 1.53755 -1.37996 0
M  V30 19488 C 1821.18 1.89174 0.0313394 0
M  V30 19489 O 1820.52 1.535 1.00912 0
M  V30 19490 C 1820.58 2.86315 -2.17403 0
M  V30 19491 C 1820.25 2.73417 -3.66186 0
M  V30 19492 C 1821.25 2.43008 -4.59612 0
M  V30 19493 C 1818.93 2.90774 -4.0958 0
M  V30 19494 C 1820.92 2.30114 -5.94413 0
M  V30 19495 C 1818.61 2.775 -5.4446 0
M  V30 19496 C 1819.61 2.47213 -6.3669 0
M  V30 19497 O 1819.3 2.34004 -7.69089 0
M  V30 19498 H 1819.03 0.482269 -0.473701 0
M  V30 19499 H 1821.58 0.936379 -1.82814 0
M  V30 19500 H 1819.81 3.48633 -1.67307 0
M  V30 19501 H 1821.5 3.47844 -2.09187 0
M  V30 19502 H 1822.27 2.29263 -4.27391 0
M  V30 19503 H 1818.15 3.13344 -3.38137 0
M  V30 19504 H 1821.69 2.06396 -6.66368 0
M  V30 19505 H 1817.59 2.90818 -5.76277 0
M  V30 19506 H 1818.36 2.49193 -7.79644 0
M  V30 19507 N 1821.02 1.235 0.979051 0
M  V30 19508 C 1822.27 1.07956 1.72387 0
M  V30 19509 C 1822.62 -0.379427 1.88622 0
M  V30 19510 O 1821.91 -1.27702 1.42838 0
M  V30 19511 C 1822.11 1.74004 3.12182 0
M  V30 19512 C 1821.94 3.26174 3.09581 0
M  V30 19513 C 1820.71 3.95341 3.14696 0
M  V30 19514 C 1822.9 4.22924 2.92643 0
M  V30 19515 N 1820.89 5.34483 3.01996 0
M  V30 19516 C 1822.26 5.48988 2.88119 0
M  V30 19517 C 1824.31 4.13641 2.77138 0
M  V30 19518 C 1823.02 6.66834 2.69676 0
M  V30 19519 C 1825.04 5.31152 2.6006 0
M  V30 19520 C 1824.4 6.56143 2.56235 0
M  V30 19521 H 1820.5 0.449578 0.639847 0
M  V30 19522 H 1823.09 1.56249 1.16165 0
M  V30 19523 H 1821.26 1.28241 3.66618 0
M  V30 19524 H 1822.99 1.51423 3.75304 0
M  V30 19525 H 1819.74 3.46429 3.2293 0
M  V30 19526 H 1820.17 6.07435 2.98917 0
M  V30 19527 H 1824.81 3.17778 2.78885 0
M  V30 19528 H 1822.53 7.62831 2.66674 0
M  V30 19529 H 1826.11 5.25812 2.49024 0
M  V30 19530 H 1824.99 7.4554 2.43185 0
M  V30 19531 N 1822.5 -1.17802 1.04693 0
M  V30 19532 C 1823.43 -2.20498 0.587866 0
M  V30 19533 C 1824.41 -1.58076 -0.380899 0
M  V30 19534 O 1825.59 -1.86198 -0.293711 0
M  V30 19535 C 1822.72 -3.38409 -0.140359 0
M  V30 19536 C 1821.77 -4.19258 0.782636 0
M  V30 19537 S 1822.6 -4.85052 2.26902 0
M  V30 19538 C 1823.75 -6.06357 1.55182 0
M  V30 19539 H 1823.99 -2.59096 1.45796 0
M  V30 19540 H 1821.52 -1.28336 0.858441 0
M  V30 19541 H 1823.48 -4.0674 -0.554333 0
M  V30 19542 H 1822.14 -2.98209 -0.98642 0
M  V30 19543 H 1821.33 -5.03522 0.219411 0
M  V30 19544 H 1820.93 -3.56338 1.13575 0
M  V30 19545 H 1823.23 -6.72168 0.848353 0
M  V30 19546 H 1824.17 -6.67198 2.37175 0
M  V30 19547 H 1824.58 -5.54811 1.04142 0
M  V30 19548 N 1823.98 -0.827251 -1.34143 0
M  V30 19549 C 1824.94 -0.257543 -2.27748 0
M  V30 19550 C 1825.94 0.567053 -1.5047 0
M  V30 19551 O 1827.13 0.382529 -1.69948 0
M  V30 19552 C 1824.26 0.638449 -3.34868 0
M  V30 19553 H 1825.45 -1.08338 -2.79648 0
M  V30 19554 H 1823.01 -0.599441 -1.44348 0
M  V30 19555 H 1823.74 1.48717 -2.8819 0
M  V30 19556 H 1823.53 0.0486033 -3.9207 0
M  V30 19557 H 1825.02 1.03071 -4.0468 0
M  V30 19558 N 1825.45 1.46436 -0.582609 0
M  V30 19559 C 1826.86 1.86047 -0.156012 0
M  V30 19560 C 1827.22 1.48619 1.28089 0
M  V30 19561 O 1826.34 0.90104 1.96749 0
M  V30 19562 C 1826.94 3.37671 -0.276358 0
M  V30 19563 C 1825.49 3.76279 0.0953682 0
M  V30 19564 C 1824.64 2.70454 -0.612348 0
M  V30 19565 H 1827.59 1.37592 -0.790834 0
M  V30 19566 H 1827.61 3.77223 0.498312 0
M  V30 19567 H 1827.13 3.64881 -1.32225 0
M  V30 19568 H 1825.23 3.54687 1.1414 0
M  V30 19569 H 1825.34 4.78276 -0.280881 0
M  V30 19570 H 1823.7 2.54646 -0.0526182 0
M  V30 19571 H 1824.49 3.00504 -1.65989 0
M  V30 19572 N 1826.93 0.320385 1.54309 0
M  V30 19573 C 1827.84 -0.556017 2.27916 0
M  V30 19574 C 1828.86 -1.13192 1.32149 0
M  V30 19575 O 1830.03 -1.15257 1.6516 0
M  V30 19576 C 1827.1 -1.70244 3.02023 0
M  V30 19577 C 1826.16 -1.15866 4.13369 0
M  V30 19578 C 1825.39 -2.25044 4.83933 0
M  V30 19579 O 1825.62 -3.45327 4.53988 0
M  V30 19580 O 1824.55 -1.90642 5.70911 0
M  V30 19581 H 1828.38 0.0416563 3.03671 0
M  V30 19582 H 1825.96 0.0861809 1.49151 0
M  V30 19583 H 1827.84 -2.36995 3.48442 0
M  V30 19584 H 1826.52 -2.28635 2.29146 0
M  V30 19585 H 1825.42 -0.456323 3.71306 0
M  V30 19586 H 1826.76 -0.619916 4.88281 0
M  V30 19587 N 1828.41 -1.57525 0.0484906 0
M  V30 19588 C 1829.66 -1.9287 -0.626817 0
M  V30 19589 C 1829.99 -0.926899 -1.70652 0
M  V30 19590 O 1829.26 0.0475129 -1.94442 0
M  V30 19591 C 1829.55 -3.38609 -1.22539 0
M  V30 19592 C 1829.4 -4.49537 -0.153923 0
M  V30 19593 C 1830.72 -3.84689 -2.13781 0
M  V30 19594 H 1827.84 -0.701367 -0.226391 0
M  V30 19595 H 1830.48 -1.89683 0.109708 0
M  V30 19596 H 1828.63 -3.41456 -1.85311 0
M  V30 19597 H 1830.3 -4.58818 0.477846 0
M  V30 19598 H 1828.54 -4.30692 0.518334 0
M  V30 19599 H 1829.22 -5.48589 -0.612708 0
M  V30 19600 H 1831.69 -3.83701 -1.60974 0
M  V30 19601 H 1830.57 -4.8732 -2.52607 0
M  V30 19602 H 1830.83 -3.21293 -3.03682 0
M  V30 19603 N 1829.89 0.224867 -1.55988 0
M  V30 19604 C 1831.14 0.947776 -1.78045 0
M  V30 19605 C 1831.45 1.85632 -0.616454 0
M  V30 19606 O 1832.66 2.61763 -0.720579 0
M  V30 19607 C 1831.11 1.73546 -3.15293 0
M  V30 19608 C 1830.72 0.873219 -4.39407 0
M  V30 19609 C 1832.46 2.44978 -3.46679 0
M  V30 19610 C 1830.37 1.65806 -5.67682 0
M  V30 19611 H 1829.3 0.357623 -0.663793 0
M  V30 19612 H 1831.95 0.201754 -1.82388 0
M  V30 19613 H 1830.33 2.52426 -3.05118 0
M  V30 19614 H 1831.51 0.125187 -4.6063 0
M  V30 19615 H 1829.82 0.271179 -4.15516 0
M  V30 19616 H 1832.42 3.04192 -4.3974 0
M  V30 19617 H 1832.76 3.17699 -2.69023 0
M  V30 19618 H 1833.3 1.7309 -3.58168 0
M  V30 19619 H 1830.03 0.974191 -6.4822 0
M  V30 19620 H 1829.55 2.38079 -5.50526 0
M  V30 19621 H 1831.23 2.21959 -6.07736 0
M  V30 19622 N 1831.37 1.49742 0.491438 0
M  V30 19623 C 1832.31 1.67614 1.61271 0
M  V30 19624 C 1833.31 0.542004 1.60495 0
M  V30 19625 O 1834.51 0.721922 1.64889 0
M  V30 19626 H 1830.89 0.528696 0.534775 0
M  V30 19627 H 1832.86 2.61711 1.43352 0
M  V30 19628 C 1831.61 1.76877 2.99349 0
M  V30 19629 H 1830.93 2.63526 3.00656 0
M  V30 19630 H 1832.37 1.93414 3.77315 0
M  V30 19631 C 1830.83 0.515719 3.32929 0
M  V30 19632 O 1831.36 -0.354312 4.00134 0
M  V30 19633 N 1829.57 0.3758 2.8816 0
M  V30 19634 H 1829.11 1.08481 2.33644 0
M  V30 19635 H 1829.07 -0.461494 3.10995 0
M  V30 19636 N 1832.84 -0.743177 1.38977 0
M  V30 19637 C 1833.75 -1.88767 1.39299 0
M  V30 19638 C 1834.77 -1.71587 0.288782 0
M  V30 19639 O 1835.95 -1.94331 0.52892 0
M  V30 19640 C 1833.01 -3.24263 1.22697 0
M  V30 19641 C 1832.07 -3.53895 2.43017 0
M  V30 19642 C 1831.31 -4.82925 2.27198 0
M  V30 19643 O 1831.53 -5.56056 1.27114 0
M  V30 19644 O 1830.46 -5.12271 3.16009 0
M  V30 19645 H 1834.29 -1.9145 2.35755 0
M  V30 19646 H 1831.87 -0.889881 1.20006 0
M  V30 19647 H 1833.76 -4.05251 1.1554 0
M  V30 19648 H 1832.43 -3.22368 0.293317 0
M  V30 19649 H 1831.34 -2.73026 2.5575 0
M  V30 19650 H 1832.67 -3.6056 3.35048 0
M  V30 19651 N 1834.32 -1.24018 -0.972487 0
M  V30 19652 C 1835.55 -1.10483 -1.75523 0
M  V30 19653 C 1835.97 0.338985 -1.8502 0
M  V30 19654 O 1835.33 1.24534 -1.31761 0
M  V30 19655 C 1835.38 -1.74396 -3.15624 0
M  V30 19656 O 1834.48 -1.01148 -3.99804 0
M  V30 19657 H 1833.82 -0.386777 -0.539722 0
M  V30 19658 H 1836.35 -1.64231 -1.22022 0
M  V30 19659 H 1836.36 -1.79958 -3.66168 0
M  V30 19660 H 1835.04 -2.7945 -3.08026 0
M  V30 19661 H 1833.62 -1.03338 -3.58296 0
M  V30 19662 N 1835.8 1.17245 -1.05316 0
M  V30 19663 C 1837.05 1.87165 -0.762471 0
M  V30 19664 C 1837.37 1.8151 0.712687 0
M  V30 19665 O 1836.64 1.2419 1.51504 0
M  V30 19666 H 1835.22 0.69292 -0.279054 0
M  V30 19667 H 1837.88 1.42227 -1.33257 0
M  V30 19668 H 1836.98 2.92872 -1.07854 0
M  V30 19669 N 1837.28 0.834353 1.33702 0
M  V30 19670 C 1838.51 0.440589 2.01847 0
M  V30 19671 C 1838.92 -0.961513 1.62947 0
M  V30 19672 O 1838.26 -1.63556 0.836377 0
M  V30 19673 C 1838.32 0.476396 3.5633 0
M  V30 19674 C 1837.99 1.83382 4.18593 0
M  V30 19675 C 1838.98 2.79638 4.3829 0
M  V30 19676 C 1836.67 2.12543 4.55116 0
M  V30 19677 C 1838.66 4.0322 4.93652 0
M  V30 19678 C 1836.35 3.36382 5.10187 0
M  V30 19679 C 1837.35 4.31537 5.294 0
M  V30 19680 O 1837.03 5.53187 5.833 0
M  V30 19681 H 1836.77 0.173726 0.653296 0
M  V30 19682 H 1839.32 1.1272 1.71707 0
M  V30 19683 H 1837.55 -0.266969 3.85777 0
M  V30 19684 H 1839.24 0.101088 4.05774 0
M  V30 19685 H 1840.01 2.58409 4.10427 0
M  V30 19686 H 1835.88 1.39274 4.39459 0
M  V30 19687 H 1839.43 4.77502 5.08564 0
M  V30 19688 H 1835.33 3.5747 5.3748 0
M  V30 19689 H 1836.09 5.54864 6.01721 0
M  V30 19690 N 1838.76 -1.46125 0.590367 0
M  V30 19691 C 1840 -2.01947 0.0787256 0
M  V30 19692 C 1840.33 -1.4634 -1.28878 0
M  V30 19693 O 1839.6 -0.651011 -1.84767 0
M  V30 19694 H 1838.18 -0.746543 0.0261125 0
M  V30 19695 H 1840.84 -1.79136 0.767877 0
M  V30 19696 H 1839.93 -3.12096 0.0154914 0
M  V30 19697 N 1840.23 -0.328564 -1.54137 0
M  V30 19698 C 1841.65 0.0239073 -1.59582 0
M  V30 19699 C 1841.85 1.50043 -1.34497 0
M  V30 19700 O 1840.91 2.25711 -1.13185 0
M  V30 19701 C 1842.22 -0.398812 -2.98044 0
M  V30 19702 C 1843.77 -0.34989 -3.11038 0
M  V30 19703 C 1844.24 -0.747848 -4.51853 0
M  V30 19704 N 1845.73 -0.701447 -4.57858 0
M  V30 19705 C 1846.47 -0.981505 -5.64937 0
M  V30 19706 N 1845.96 -1.32895 -6.79934 0
M  V30 19707 N 1847.76 -0.906735 -5.54738 0
M  V30 19708 H 1839.91 -1.29052 -1.68699 0
M  V30 19709 H 1842.17 -0.52508 -0.7893 0
M  V30 19710 H 1841.88 -1.42773 -3.21417 0
M  V30 19711 H 1841.75 0.233639 -3.76476 0
M  V30 19712 H 1844.14 0.669831 -2.87397 0
M  V30 19713 H 1844.22 -1.01734 -2.34699 0
M  V30 19714 H 1843.86 -1.76551 -4.76227 0
M  V30 19715 H 1843.79 -0.0580299 -5.26568 0
M  V30 19716 H 1846.28 -0.444963 -3.75271 0
M  V30 19717 H 1846.6 -1.52789 -7.57546 0
M  V30 19718 H 1844.94 -1.36726 -6.81418 0
M  V30 19719 H 1848.13 -0.634748 -4.63776 0
M  V30 19720 H 1848.31 -1.12835 -6.38101 0
M  V30 19721 N 1841.71 1.57497 -0.0568439 0
M  V30 19722 C 1842.66 2.11862 0.915593 0
M  V30 19723 C 1843.63 1.02738 1.30515 0
M  V30 19724 O 1844.81 1.30318 1.39362 0
M  V30 19725 C 1841.95 2.67269 2.18315 0
M  V30 19726 C 1841.07 3.90498 1.84757 0
M  V30 19727 C 1840.2 4.342 3.06013 0
M  V30 19728 C 1839.24 5.50115 2.68403 0
M  V30 19729 N 1838.38 5.88844 3.8237 0
M  V30 19730 H 1843.22 2.94657 0.445101 0
M  V30 19731 H 1840.76 1.45621 0.20807 0
M  V30 19732 H 1842.71 2.97494 2.92494 0
M  V30 19733 H 1841.34 1.87262 2.62931 0
M  V30 19734 H 1840.4 3.66828 1.00703 0
M  V30 19735 H 1841.71 4.7473 1.53077 0
M  V30 19736 H 1840.86 4.66008 3.88486 0
M  V30 19737 H 1839.6 3.4879 3.40876 0
M  V30 19738 H 1838.61 5.17973 1.84348 0
M  V30 19739 H 1839.83 6.37244 2.34726 0
M  V30 19740 H 1837.78 5.06387 4.17024 0
M  V30 19741 H 1837.69 6.67781 3.54407 0
M  V30 19742 H 1838.96 6.25269 4.65466 0
M  V30 19743 N 1843.19 -0.216591 1.56105 0
M  V30 19744 C 1844.42 -0.961164 1.83784 0
M  V30 19745 C 1844.84 -1.76957 0.637792 0
M  V30 19746 O 1844.2 -1.76523 -0.413449 0
M  V30 19747 C 1844.25 -1.85047 3.095 0
M  V30 19748 O 1843.35 -2.94648 2.88542 0
M  V30 19749 H 1842.69 -0.271885 0.605784 0
M  V30 19750 H 1845.22 -0.228404 2.03321 0
M  V30 19751 H 1845.23 -2.25932 3.39733 0
M  V30 19752 H 1843.91 -1.25633 3.96471 0
M  V30 19753 H 1842.48 -2.57673 2.69554 0
M  V30 19754 N 1844.67 -1.5 -0.48349 0
M  V30 19755 C 1845.95 -1.50879 -1.24478 0
M  V30 19756 C 1846.33 -0.246393 -2.09657 0
M  V30 19757 O 1845.67 0.77066 -2.15112 0
M  V30 19758 C 1845.88 -2.79762 -2.08648 0
M  V30 19759 C 1847.23 -3.29941 -2.67253 0
M  V30 19760 O 1848.26 -2.80999 -2.18901 0
M  V30 19761 O 1847.11 -4.15224 -3.55319 0
M  V30 19762 H 1844.21 -0.604649 -0.564206 0
M  V30 19763 H 1846.75 -1.6228 -0.496325 0
M  V30 19764 H 1845.53 -3.63123 -1.45799 0
M  V30 19765 H 1845.15 -2.71306 -2.90652 0
M  V30 19766 N 1846.15 0.735796 -1.39369 0
M  V30 19767 C 1847.4 1.49079 -1.35861 0
M  V30 19768 C 1847.71 1.95553 0.0429472 0
M  V30 19769 O 1848.91 2.70758 0.200614 0
M  V30 19770 C 1847.37 2.69375 -2.38674 0
M  V30 19771 C 1846.98 2.29854 -3.8454 0
M  V30 19772 C 1848.72 3.47199 -2.44239 0
M  V30 19773 C 1846.63 3.46868 -4.78996 0
M  V30 19774 H 1845.56 0.559825 -0.505086 0
M  V30 19775 H 1848.21 0.80271 -1.65012 0
M  V30 19776 H 1846.59 3.40253 -2.02592 0
M  V30 19777 H 1847.77 1.66527 -4.29657 0
M  V30 19778 H 1846.08 1.65123 -3.82261 0
M  V30 19779 H 1848.68 4.34234 -3.12002 0
M  V30 19780 H 1849.02 3.89608 -1.46668 0
M  V30 19781 H 1849.55 2.83349 -2.7921 0
M  V30 19782 H 1846.29 3.0951 -5.77827 0
M  V30 19783 H 1845.81 4.09178 -4.38558 0
M  V30 19784 H 1847.49 4.13213 -4.9786 0
M  V30 19785 N 1847.63 1.24532 0.965897 0
M  V30 19786 C 1848.87 1.09778 1.71232 0
M  V30 19787 C 1849.23 -0.3594 1.89013 0
M  V30 19788 O 1848.52 -1.2618 1.44185 0
M  V30 19789 C 1848.71 1.77305 3.10319 0
M  V30 19790 C 1848.54 3.29439 3.06104 0
M  V30 19791 C 1847.31 3.98656 3.10485 0
M  V30 19792 C 1849.51 4.26004 2.88141 0
M  V30 19793 N 1847.49 5.37656 2.9631 0
M  V30 19794 C 1848.86 5.52013 2.8228 0
M  V30 19795 C 1850.92 4.16557 2.72736 0
M  V30 19796 C 1849.62 6.69656 2.62588 0
M  V30 19797 C 1851.65 5.33881 2.54412 0
M  V30 19798 C 1851.01 6.58823 2.49261 0
M  V30 19799 H 1847.11 0.456339 0.635042 0
M  V30 19800 H 1849.69 1.57472 1.14502 0
M  V30 19801 H 1847.86 1.32122 3.65237 0
M  V30 19802 H 1849.6 1.55395 3.73677 0
M  V30 19803 H 1846.35 3.49835 3.19237 0
M  V30 19804 H 1846.77 6.10572 2.92457 0
M  V30 19805 H 1851.42 3.20719 2.75499 0
M  V30 19806 H 1849.13 7.65616 2.58568 0
M  V30 19807 H 1852.72 5.28424 2.43433 0
M  V30 19808 H 1851.6 7.48078 2.35264 0
M  V30 19809 N 1849.1 -1.16685 1.05936 0
M  V30 19810 C 1850.33 -1.91576 0.794558 0
M  V30 19811 C 1850.75 -1.76706 -0.644718 0
M  V30 19812 O 1850.11 -1.0899 -1.44882 0
M  V30 19813 C 1850.16 -3.40417 1.18947 0
M  V30 19814 O 1849.26 -4.11109 0.326091 0
M  V30 19815 H 1848.6 -0.596983 0.290702 0
M  V30 19816 H 1851.13 -1.47856 1.4142 0
M  V30 19817 H 1851.14 -3.91178 1.15947 0
M  V30 19818 H 1849.82 -3.5056 2.23786 0
M  V30 19819 H 1848.4 -3.70557 0.417347 0
M  V30 19820 N 1850.58 -0.841432 -1.33258 0
M  V30 19821 C 1851.83 -0.434677 -1.96961 0
M  V30 19822 C 1852.14 1.012 -1.67386 0
M  V30 19823 O 1853.35 1.52356 -2.24722 0
M  V30 19824 C 1851.81 -0.726332 -3.52495 0
M  V30 19825 C 1851.41 -2.18786 -3.90943 0
M  V30 19826 C 1853.16 -0.386652 -4.22735 0
M  V30 19827 C 1851.06 -2.42343 -5.39466 0
M  V30 19828 H 1849.99 -0.158809 -0.737086 0
M  V30 19829 H 1852.65 -1.03037 -1.51841 0
M  V30 19830 H 1851.03 -0.0602315 -3.95954 0
M  V30 19831 H 1852.2 -2.89465 -3.58534 0
M  V30 19832 H 1850.52 -2.49076 -3.33691 0
M  V30 19833 H 1853.11 -0.540249 -5.31964 0
M  V30 19834 H 1853.46 0.670595 -4.10863 0
M  V30 19835 H 1853.99 -1.00809 -3.84815 0
M  V30 19836 H 1850.73 -3.46642 -5.56345 0
M  V30 19837 H 1850.25 -1.76227 -5.73327 0
M  V30 19838 H 1851.93 -2.25625 -6.06385 0
M  V30 19839 N 1852.06 1.4581 -0.598108 0
M  V30 19840 C 1853.31 2.01902 -0.0894342 0
M  V30 19841 C 1853.63 1.47021 1.281 0
M  V30 19842 O 1852.9 0.6608 1.84419 0
M  V30 19843 H 1851.48 0.746394 -0.0300712 0
M  V30 19844 H 1854.14 1.78726 -0.777367 0
M  V30 19845 H 1853.24 3.12084 -0.0320424 0
M  V30 19846 N 1853.54 0.336733 1.53961 0
M  V30 19847 C 1854.78 -0.26229 2.0271 0
M  V30 19848 C 1855.14 -1.48309 1.21936 0
M  V30 19849 O 1856.34 -2.15584 1.60552 0
M  V30 19850 C 1854.61 -0.575319 3.52739 0
M  V30 19851 S 1856.17 -1.15212 4.23405 0
M  V30 19852 H 1852.99 -0.0785306 0.70665 0
M  V30 19853 H 1855.59 0.472914 1.89694 0
M  V30 19854 H 1854.3 0.32111 4.09142 0
M  V30 19855 H 1853.83 -1.34037 3.69862 0
M  V30 19856 H 1855.84 -2.43824 4.32162 0
M  V30 19857 N 1855.02 -1.57465 0.0651956 0
M  V30 19858 C 1856.24 -1.9756 -0.614633 0
M  V30 19859 C 1856.66 -0.943308 -1.63546 0
M  V30 19860 O 1856.02 0.0708362 -1.82362 0
M  V30 19861 C 1856.07 -3.37735 -1.28909 0
M  V30 19862 O 1855.79 -4.37008 -0.309131 0
M  V30 19863 C 1857.29 -3.92667 -2.05736 0
M  V30 19864 H 1854.51 -0.64987 -0.167061 0
M  V30 19865 H 1857.05 -2.0405 0.135647 0
M  V30 19866 H 1855.21 -3.32352 -1.9905 0
M  V30 19867 H 1855.62 -5.18483 -0.792206 0
M  V30 19868 H 1857.1 -4.92988 -2.48329 0
M  V30 19869 H 1857.57 -3.28851 -2.91124 0
M  V30 19870 H 1858.18 -4.01431 -1.40476 0
M  V30 19871 N 1856.49 0.20831 -1.56217 0
M  V30 19872 C 1857.74 0.932104 -1.8011 0
M  V30 19873 C 1858.07 1.83453 -0.637061 0
M  V30 19874 O 1857.35 1.91081 0.363066 0
M  V30 19875 C 1857.63 1.7597 -3.14176 0
M  V30 19876 C 1857.48 0.882874 -4.4105 0
M  V30 19877 C 1858.8 2.7349 -3.44806 0
M  V30 19878 H 1855.92 0.337428 -0.655218 0
M  V30 19879 H 1858.56 0.2002 -1.88942 0
M  V30 19880 H 1856.71 2.38369 -3.06778 0
M  V30 19881 H 1858.39 0.274607 -4.60482 0
M  V30 19882 H 1856.63 0.188921 -4.33388 0
M  V30 19883 H 1857.3 1.49662 -5.31324 0
M  V30 19884 H 1859.78 2.21225 -3.52418 0
M  V30 19885 H 1858.65 3.28489 -4.39757 0
M  V30 19886 H 1858.91 3.51887 -2.67635 0
M  V30 19887 N 1857.97 1.50255 0.475528 0
M  V30 19888 C 1859.22 1.61022 1.22793 0
M  V30 19889 C 1859.55 0.308508 1.92038 0
M  V30 19890 O 1858.8 -0.70533 1.82547 0
M  V30 19891 C 1859.1 2.73698 2.29835 0
M  V30 19892 C 1858.77 4.14333 1.77873 0
M  V30 19893 C 1857.43 4.526 1.63423 0
M  V30 19894 C 1859.78 5.02247 1.39275 0
M  V30 19895 C 1857.11 5.76525 1.08791 0
M  V30 19896 C 1859.46 6.26715 0.860869 0
M  V30 19897 C 1858.12 6.63788 0.702959 0
M  V30 19898 H 1857.39 0.589221 0.449332 0
M  V30 19899 H 1860.04 1.84173 0.524633 0
M  V30 19900 H 1858.35 2.44617 3.06055 0
M  V30 19901 H 1860.04 2.79233 2.87802 0
M  V30 19902 H 1856.63 3.84142 1.90087 0
M  V30 19903 H 1860.82 4.73319 1.49276 0
M  V30 19904 H 1856.07 6.03927 0.952987 0
M  V30 19905 H 1860.25 6.942 0.553109 0
M  V30 19906 H 1857.87 7.59693 0.277471 0
M  V30 19907 N 1859.45 -0.728395 1.39758 0
M  V30 19908 C 1860.36 -1.87279 1.41293 0
M  V30 19909 C 1861.38 -1.71271 0.306965 0
M  V30 19910 O 1862.55 -1.93759 0.549502 0
M  V30 19911 C 1859.62 -3.22943 1.2613 0
M  V30 19912 C 1858.68 -3.51297 2.46756 0
M  V30 19913 C 1857.91 -4.80489 2.32307 0
M  V30 19914 O 1858.13 -5.54676 1.33005 0
M  V30 19915 O 1857.07 -5.08891 3.21425 0
M  V30 19916 H 1860.89 -1.88939 2.37773 0
M  V30 19917 H 1858.48 -0.877103 1.20943 0
M  V30 19918 H 1860.36 -4.04003 1.19832 0
M  V30 19919 H 1859.04 -3.22039 0.327492 0
M  V30 19920 H 1857.94 -2.70298 2.58631 0
M  V30 19921 H 1859.28 -3.56986 3.38853 0
M  V30 19922 N 1860.93 -1.25042 -0.959279 0
M  V30 19923 C 1861.86 -0.993416 -2.05442 0
M  V30 19924 C 1862.84 0.0757423 -1.62423 0
M  V30 19925 O 1864.02 -0.0629495 -1.88395 0
M  V30 19926 C 1861.15 -0.500792 -3.34977 0
M  V30 19927 C 1860.2 -1.55978 -3.96955 0
M  V30 19928 S 1861.03 -3.14361 -4.33517 0
M  V30 19929 C 1862.18 -2.66823 -5.66177 0
M  V30 19930 H 1862.42 -1.92071 -2.26927 0
M  V30 19931 H 1859.95 -1.08521 -1.0983 0
M  V30 19932 H 1861.91 -0.223207 -4.09893 0
M  V30 19933 H 1860.57 0.405931 -3.11466 0
M  V30 19934 H 1859.76 -1.16569 -4.90334 0
M  V30 19935 H 1859.36 -1.7878 -3.28502 0
M  V30 19936 H 1861.66 -2.10159 -6.4408 0
M  V30 19937 H 1862.6 -3.58824 -6.10452 0
M  V30 19938 H 1863.01 -2.06972 -5.25189 0
M  V30 19939 N 1862.41 1.16121 -1.06553 0
M  V30 19940 C 1863.37 2.18796 -0.682711 0
M  V30 19941 C 1864.37 1.58467 0.272905 0
M  V30 19942 O 1865.56 1.74113 0.0549379 0
M  V30 19943 C 1862.69 3.409 -0.00496866 0
M  V30 19944 H 1863.88 2.54178 -1.59165 0
M  V30 19945 H 1861.44 1.30442 -0.861077 0
M  V30 19946 H 1862.17 3.11077 0.916593 0
M  V30 19947 H 1861.96 3.85942 -0.692165 0
M  V30 19948 H 1863.45 4.1686 0.248503 0
M  V30 19949 N 1863.88 0.848487 1.3281 0
M  V30 19950 C 1865.11 0.462643 2.01661 0
M  V30 19951 C 1865.53 -0.938906 1.63799 0
M  V30 19952 O 1864.88 -1.61171 0.85617 0
M  V30 19953 C 1864.94 0.584905 3.56737 0
M  V30 19954 O 1864.66 1.93124 3.93236 0
M  V30 19955 C 1866.16 0.197265 4.42861 0
M  V30 19956 H 1863.38 0.18254 0.645694 0
M  V30 19957 H 1865.92 1.14372 1.69527 0
M  V30 19958 H 1864.08 -0.0483701 3.8737 0
M  V30 19959 H 1864.49 1.92361 4.87952 0
M  V30 19960 H 1865.96 0.333833 5.5099 0
M  V30 19961 H 1866.44 -0.861732 4.30663 0
M  V30 19962 H 1867.05 0.805363 4.17605 0
M  V30 19963 N 1865.36 -1.4549 0.605832 0
M  V30 19964 C 1866.61 -2.01852 0.10014 0
M  V30 19965 C 1866.93 -1.47699 -1.27319 0
M  V30 19966 O 1866.2 -0.670571 -1.84066 0
M  V30 19967 H 1864.78 -0.746225 0.0340291 0
M  V30 19968 H 1867.44 -1.78311 0.786834 0
M  V30 19969 H 1866.54 -3.12062 0.0485925 0
M  V30 19970 N 1866.84 -0.344893 -1.5378 0
M  V30 19971 C 1867.79 0.511269 -2.25066 0
M  V30 19972 C 1868.76 1.09446 -1.24944 0
M  V30 19973 O 1869.94 1.13082 -1.53679 0
M  V30 19974 C 1867.08 1.65563 -3.02792 0
M  V30 19975 C 1866.2 1.09962 -4.17771 0
M  V30 19976 C 1865.33 2.21139 -4.82981 0
M  V30 19977 C 1864.37 1.62897 -5.90026 0
M  V30 19978 N 1863.51 2.67822 -6.49011 0
M  V30 19979 H 1868.35 -0.103166 -2.97821 0
M  V30 19980 H 1865.88 -0.0626846 -1.46966 0
M  V30 19981 H 1867.84 2.32936 -3.46117 0
M  V30 19982 H 1866.47 2.24103 -2.32331 0
M  V30 19983 H 1865.52 0.316786 -3.79079 0
M  V30 19984 H 1866.84 0.633622 -4.94759 0
M  V30 19985 H 1865.99 2.96375 -5.29383 0
M  V30 19986 H 1864.73 2.71083 -4.0542 0
M  V30 19987 H 1863.73 0.861672 -5.43006 0
M  V30 19988 H 1864.96 1.13803 -6.69497 0
M  V30 19989 H 1862.9 3.17018 -5.74313 0
M  V30 19990 H 1862.82 2.25848 -7.21477 0
M  V30 19991 H 1864.09 3.42822 -7.00066 0
M  V30 19992 N 1868.32 1.57428 -0.0735454 0
M  V30 19993 C 1869.73 1.80973 0.458858 0
M  V30 19994 C 1870.08 0.987586 1.69532 0
M  V30 19995 O 1869.21 0.210611 2.15373 0
M  V30 19996 C 1869.8 3.28241 0.839246 0
M  V30 19997 C 1868.36 3.52626 1.3165 0
M  V30 19998 C 1867.51 2.75645 0.302533 0
M  V30 19999 H 1870.46 1.55854 -0.299225 0
M  V30 20000 H 1870.48 3.40386 1.70052 0
M  V30 20001 H 1869.99 3.88052 -0.0608625 0
M  V30 20002 H 1868.09 2.98121 2.23505 0
M  V30 20003 H 1868.2 4.61316 1.29322 0
M  V30 20004 H 1866.57 2.42457 0.780179 0
M  V30 20005 H 1867.35 3.38194 -0.589878 0
M  V30 20006 N 1869.8 -0.200022 1.56326 0
M  V30 20007 C 1871.21 -0.765141 1.70301 0
M  V30 20008 C 1871.56 -1.84066 0.679277 0
M  V30 20009 O 1870.68 -2.15768 -0.165308 0
M  V30 20010 C 1871.28 -1.39466 3.08763 0
M  V30 20011 C 1869.84 -1.90692 3.2452 0
M  V30 20012 C 1868.98 -0.77502 2.66249 0
M  V30 20013 H 1871.94 0.024977 1.5868 0
M  V30 20014 H 1871.96 -2.26396 3.05819 0
M  V30 20015 H 1871.47 -0.61165 3.8325 0
M  V30 20016 H 1869.57 -2.71728 2.54941 0
M  V30 20017 H 1869.68 -2.0721 4.31973 0
M  V30 20018 H 1868.05 -1.18802 2.25296 0
M  V30 20019 H 1868.83 -0.00432851 3.433 0
M  V30 20020 N 1871.27 -1.50505 -0.467553 0
M  V30 20021 C 1872.2 -1.72558 -1.57309 0
M  V30 20022 C 1873.19 -0.574619 -1.601 0
M  V30 20023 O 1874.37 -0.814135 -1.76311 0
M  V30 20024 C 1871.5 -1.82296 -2.9561 0
M  V30 20025 C 1870.45 -2.97513 -3.07685 0
M  V30 20026 C 1869.78 -2.92398 -4.47669 0
M  V30 20027 C 1871.08 -4.37968 -2.84573 0
M  V30 20028 H 1872.77 -2.65122 -1.39107 0
M  V30 20029 H 1870.32 -1.2758 -0.667776 0
M  V30 20030 H 1872.27 -1.96308 -3.72882 0
M  V30 20031 H 1871 -0.863562 -3.14976 0
M  V30 20032 H 1869.66 -2.83157 -2.32847 0
M  V30 20033 H 1869.3 -1.94297 -4.63959 0
M  V30 20034 H 1869 -3.69749 -4.56683 0
M  V30 20035 H 1870.53 -3.08464 -5.26956 0
M  V30 20036 H 1871.94 -4.52831 -3.51593 0
M  V30 20037 H 1870.34 -5.16796 -3.05028 0
M  V30 20038 H 1871.41 -4.50093 -1.80402 0
M  V30 20039 N 1872.75 0.720973 -1.40142 0
M  V30 20040 C 1873.72 1.81676 -1.39737 0
M  V30 20041 C 1874.72 1.58125 -0.292068 0
M  V30 20042 O 1875.91 1.65266 -0.550699 0
M  V30 20043 C 1873.04 3.19685 -1.18381 0
M  V30 20044 H 1874.23 1.83435 -2.37259 0
M  V30 20045 H 1871.78 0.926064 -1.25912 0
M  V30 20046 H 1872.52 3.2358 -0.21598 0
M  V30 20047 H 1872.3 3.38178 -1.98439 0
M  V30 20048 H 1873.79 3.99724 -1.20873 0
M  V30 20049 N 1874.23 1.25549 0.952634 0
M  V30 20050 C 1875.46 1.13262 1.73743 0
M  V30 20051 C 1875.88 -0.309507 1.85536 0
M  V30 20052 O 1875.24 -1.22422 1.33726 0
M  V30 20053 C 1875.29 1.79395 3.12809 0
M  V30 20054 O 1874.39 1.07496 3.98144 0
M  V30 20055 H 1873.73 0.395314 0.5335 0
M  V30 20056 H 1876.26 1.66151 1.19394 0
M  V30 20057 H 1876.27 1.85761 3.63259 0
M  V30 20058 H 1874.95 2.84316 3.03542 0
M  V30 20059 H 1873.52 1.09025 3.56606 0
M  V30 20060 N 1875.71 -1.15554 1.07168 0
M  V30 20061 C 1876.64 -2.19201 0.634504 0
M  V30 20062 C 1877.62 -1.58848 -0.347283 0
M  V30 20063 O 1878.8 -1.86779 -0.25415 0
M  V30 20064 C 1875.93 -3.38631 -0.0685456 0
M  V30 20065 C 1874.98 -4.17503 0.87139 0
M  V30 20066 S 1875.81 -4.8013 2.37139 0
M  V30 20067 C 1876.97 -6.02929 1.68009 0
M  V30 20068 H 1877.2 -2.55946 1.51259 0
M  V30 20069 H 1874.73 -1.26486 0.88547 0
M  V30 20070 H 1876.69 -4.07824 -0.467933 0
M  V30 20071 H 1875.35 -3.00234 -0.922944 0
M  V30 20072 H 1874.54 -5.02943 0.326166 0
M  V30 20073 H 1874.15 -3.53849 1.21107 0
M  V30 20074 H 1876.44 -6.70217 0.990739 0
M  V30 20075 H 1877.38 -6.62017 2.51274 0
M  V30 20076 H 1877.79 -5.52477 1.15887 0
M  V30 20077 N 1877.19 -0.855519 -1.32358 0
M  V30 20078 C 1878.46 -0.380575 -1.91862 0
M  V30 20079 C 1878.84 1.13593 -1.77932 0
M  V30 20080 O 1878.19 1.95797 -1.17796 0
M  V30 20081 C 1878.4 -0.845902 -3.38593 0
M  V30 20082 C 1879.75 -0.863586 -4.15725 0
M  V30 20083 O 1880.77 -0.790597 -3.47315 0
M  V30 20084 O 1879.63 -0.966658 -5.37883 0
M  V30 20085 H 1876.73 -0.111156 -0.819496 0
M  V30 20086 H 1879.27 -0.942476 -1.41122 0
M  V30 20087 H 1878.05 -1.88909 -3.42679 0
M  V30 20088 H 1877.67 -0.2615 -3.96739 0
M  V30 20089 N 1878.67 1.45167 -0.61354 0
M  V30 20090 C 1880.08 1.57166 -0.277678 0
M  V30 20091 C 1880.28 1.60395 1.21965 0
M  V30 20092 O 1879.34 1.53747 2.00295 0
M  V30 20093 C 1880.65 2.85162 -0.9541 0
M  V30 20094 C 1882.2 2.98847 -0.930579 0
M  V30 20095 C 1882.67 4.29621 -1.58712 0
M  V30 20096 N 1884.16 4.36394 -1.55289 0
M  V30 20097 C 1884.9 5.36264 -2.02999 0
M  V30 20098 N 1884.4 6.42638 -2.58821 0
M  V30 20099 N 1886.19 5.27659 -1.93732 0
M  V30 20100 H 1878.34 1.41314 -1.58569 0
M  V30 20101 H 1880.6 0.676027 -0.664598 0
M  V30 20102 H 1880.31 2.88698 -2.00864 0
M  V30 20103 H 1880.18 3.7412 -0.481025 0
M  V30 20104 H 1882.57 2.94874 0.115433 0
M  V30 20105 H 1882.65 2.11283 -1.44198 0
M  V30 20106 H 1882.29 4.34352 -2.6325 0
M  V30 20107 H 1882.22 5.16011 -1.0507 0
M  V30 20108 H 1884.72 3.60131 -1.14516 0
M  V30 20109 H 1885.03 7.151 -2.93004 0
M  V30 20110 H 1883.37 6.43372 -2.62863 0
M  V30 20111 H 1886.56 4.43465 -1.49856 0
M  V30 20112 H 1886.74 6.05341 -2.31227 0
M  V30 20113 N 1880.14 0.353044 1.53595 0
M  V30 20114 C 1881.08 -0.542593 2.21656 0
M  V30 20115 C 1882.05 -1.09287 1.20396 0
M  V30 20116 O 1883.24 -1.15136 1.49251 0
M  V30 20117 C 1880.37 -1.74739 2.90145 0
M  V30 20118 C 1879.41 -1.32571 4.05373 0
M  V30 20119 S 1880.24 -0.337517 5.34435 0
M  V30 20120 C 1881.4 -1.54893 6.06431 0
M  V30 20121 H 1881.63 0.0354663 2.97279 0
M  V30 20122 H 1879.17 0.137127 1.5379 0
M  V30 20123 H 1881.12 -2.43853 3.30221 0
M  V30 20124 H 1879.79 -2.29668 2.1427 0
M  V30 20125 H 1878.98 -2.22426 4.52264 0
M  V30 20126 H 1878.58 -0.713934 3.67123 0
M  V30 20127 H 1880.87 -2.48194 6.30401 0
M  V30 20128 H 1881.82 -1.12163 6.9916 0
M  V30 20129 H 1882.22 -1.74929 5.36712 0
M  V30 20130 N 1881.62 -1.57387 0.0818932 0
M  V30 20131 C 1882.58 -2.12162 -0.86718 0
M  V30 20132 C 1883.58 -1.04788 -1.21967 0
M  V30 20133 O 1884.77 -1.30733 -1.15128 0
M  V30 20134 C 1881.91 -2.63132 -2.16736 0
M  V30 20135 H 1883.1 -2.9733 -0.391788 0
M  V30 20136 H 1880.65 -1.55406 -0.166944 0
M  V30 20137 H 1881.39 -1.81446 -2.6879 0
M  V30 20138 H 1881.17 -3.41625 -1.92445 0
M  V30 20139 H 1882.66 -3.05549 -2.84657 0
M  V30 20140 N 1883.1 0.191729 -1.56429 0
M  V30 20141 C 1884.06 1.22128 -1.93952 0
M  V30 20142 C 1885.06 1.38262 -0.820984 0
M  V30 20143 O 1886.25 1.36017 -1.08835 0
M  V30 20144 C 1883.38 2.59005 -2.21651 0
M  V30 20145 H 1884.58 0.900458 -2.86063 0
M  V30 20146 H 1882.13 0.433382 -1.50172 0
M  V30 20147 H 1882.87 2.96136 -1.32189 0
M  V30 20148 H 1882.65 2.48665 -3.03164 0
M  V30 20149 H 1884.14 3.33242 -2.51674 0
M  V30 20150 N 1884.58 1.50751 0.459565 0
M  V30 20151 C 1885.51 1.65108 1.57526 0
M  V30 20152 C 1886.49 0.498959 1.54755 0
M  V30 20153 O 1887.67 0.719958 1.74209 0
M  V30 20154 C 1884.8 1.64427 2.96111 0
M  V30 20155 C 1883.85 2.85339 3.16992 0
M  V30 20156 S 1884.68 4.46482 2.95659 0
M  V30 20157 C 1885.83 4.48511 4.36565 0
M  V30 20158 H 1886.07 2.59481 1.45109 0
M  V30 20159 H 1883.6 1.40157 0.647718 0
M  V30 20160 H 1885.56 1.64718 3.76003 0
M  V30 20161 H 1884.22 0.712698 3.05908 0
M  V30 20162 H 1883.41 2.81199 4.18262 0
M  V30 20163 H 1883.01 2.82674 2.4489 0
M  V30 20164 H 1885.31 4.22783 5.29396 0
M  V30 20165 H 1886.25 5.50198 4.45744 0
M  V30 20166 H 1886.66 3.78084 4.19181 0
M  V30 20167 N 1886.06 -0.713531 1.40522 0
M  V30 20168 C 1887.3 -1.47343 1.38911 0
M  V30 20169 C 1887.63 -1.94498 -0.00787452 0
M  V30 20170 O 1886.89 -1.68648 -0.992786 0
M  V30 20171 C 1887.18 -2.71283 2.32681 0
M  V30 20172 C 1886.85 -2.42881 3.79894 0
M  V30 20173 C 1885.51 -2.34846 4.20001 0
M  V30 20174 C 1887.86 -2.19093 4.72914 0
M  V30 20175 C 1885.19 -2.01093 5.51161 0
M  V30 20176 C 1887.54 -1.86852 6.04375 0
M  V30 20177 C 1886.21 -1.773 6.43522 0
M  V30 20178 H 1885.48 -0.539166 0.508312 0
M  V30 20179 H 1888.13 -0.817138 1.73191 0
M  V30 20180 H 1886.43 -3.41759 1.91593 0
M  V30 20181 H 1888.13 -3.29378 2.28717 0
M  V30 20182 H 1884.72 -2.50023 3.48118 0
M  V30 20183 H 1888.9 -2.24256 4.42745 0
M  V30 20184 H 1884.16 -1.92236 5.80392 0
M  V30 20185 H 1888.33 -1.6746 6.75966 0
M  V30 20186 H 1885.96 -1.50913 7.4507 0
M  V30 20187 N 1887.53 -1.26053 -0.945962 0
M  V30 20188 C 1888.76 -1.13913 -1.72358 0
M  V30 20189 C 1889.17 0.308885 -1.86662 0
M  V30 20190 O 1888.51 1.22366 -1.37012 0
M  V30 20191 C 1888.58 -1.72987 -3.15144 0
M  V30 20192 C 1888.24 -3.2205 -3.24242 0
M  V30 20193 C 1889.24 -4.1893 -3.07886 0
M  V30 20194 C 1886.92 -3.62424 -3.47785 0
M  V30 20195 C 1888.92 -5.54162 -3.14933 0
M  V30 20196 C 1886.6 -4.97791 -3.54468 0
M  V30 20197 C 1887.6 -5.9347 -3.38058 0
M  V30 20198 O 1887.29 -7.26372 -3.4444 0
M  V30 20199 H 1887.02 -0.39772 -0.546622 0
M  V30 20200 H 1889.58 -1.67076 -1.19476 0
M  V30 20201 H 1887.81 -1.14281 -3.69428 0
M  V30 20202 H 1889.49 -1.55822 -3.74799 0
M  V30 20203 H 1890.26 -3.89078 -2.89558 0
M  V30 20204 H 1886.14 -2.8844 -3.59615 0
M  V30 20205 H 1889.68 -6.28821 -3.02042 0
M  V30 20206 H 1885.58 -5.27306 -3.72315 0
M  V30 20207 H 1886.35 -7.34582 -3.61014 0
M  V30 20208 N 1889.01 1.14984 -1.07779 0
M  V30 20209 C 1890.26 1.85219 -0.798561 0
M  V30 20210 C 1890.57 1.83476 0.677935 0
M  V30 20211 O 1891.78 2.49436 1.0721 0
M  V30 20212 C 1890.24 3.32454 -1.37849 0
M  V30 20213 C 1889.84 3.42631 -2.88631 0
M  V30 20214 C 1891.59 4.07843 -1.17747 0
M  V30 20215 C 1889.49 4.8404 -3.39794 0
M  V30 20216 H 1888.42 0.693872 -0.295054 0
M  V30 20217 H 1891.08 1.29668 -1.2984 0
M  V30 20218 H 1889.46 3.87703 -0.806374 0
M  V30 20219 H 1890.63 2.97466 -3.51925 0
M  V30 20220 H 1888.95 2.80691 -3.07573 0
M  V30 20221 H 1891.54 5.1221 -1.53444 0
M  V30 20222 H 1891.89 4.16136 -0.116815 0
M  V30 20223 H 1892.42 3.58876 -1.71618 0
M  V30 20224 H 1889.16 4.80932 -4.45404 0
M  V30 20225 H 1888.68 5.29769 -2.81256 0
M  V30 20226 H 1890.36 5.5291 -3.36005 0
M  V30 20227 N 1890.49 0.862526 1.31902 0
M  V30 20228 C 1891.74 0.468847 1.96586 0
M  V30 20229 C 1892.06 -0.980535 1.68554 0
M  V30 20230 O 1891.33 -1.68635 0.996952 0
M  V30 20231 H 1889.91 0.170387 0.727308 0
M  V30 20232 H 1892.57 1.10068 1.60845 0
M  V30 20233 H 1891.67 0.620415 3.05871 0
M  V30 20234 N 1891.97 -1.4484 0.62123 0
M  V30 20235 C 1892.93 -2.29061 -0.0797989 0
M  V30 20236 C 1893.93 -1.40508 -0.781932 0
M  V30 20237 O 1895.12 -1.62485 -0.628023 0
M  V30 20238 C 1892.25 -3.21857 -1.12342 0
M  V30 20239 H 1893.45 -2.92528 0.66084 0
M  V30 20240 H 1891 -1.51588 0.3809 0
M  V30 20241 H 1891.73 -2.63218 -1.89437 0
M  V30 20242 H 1891.52 -3.87103 -0.624003 0
M  V30 20243 H 1893.01 -3.8515 -1.61398 0
M  V30 20244 N 1893.45 -0.361184 -1.53405 0
M  V30 20245 C 1894.4 0.503718 -2.22366 0
M  V30 20246 C 1895.38 1.05217 -1.2173 0
M  V30 20247 O 1896.57 0.982945 -1.47198 0
M  V30 20248 C 1893.7 1.64517 -3.01312 0
M  V30 20249 C 1892.79 1.1098 -4.09322 0
M  V30 20250 N 1893.18 0.297072 -5.04927 0
M  V30 20251 C 1891.48 1.38503 -4.23949 0
M  V30 20252 C 1892.18 0.00446147 -5.817 0
M  V30 20253 N 1891.15 0.600899 -5.40269 0
M  V30 20254 H 1894.96 -0.124086 -2.93638 0
M  V30 20255 H 1892.47 -0.168968 -1.61519 0
M  V30 20256 H 1894.47 2.27692 -3.49231 0
M  V30 20257 H 1893.13 2.27607 -2.31571 0
M  V30 20258 H 1894.14 -0.0633533 -5.17861 0
M  V30 20259 H 1890.81 2.01904 -3.65432 0
M  V30 20260 H 1892.2 -0.65228 -6.68726 0
M  V30 20261 N 1894.92 1.57341 -0.0902386 0
M  V30 20262 C 1896.34 1.57361 0.266413 0
M  V30 20263 C 1896.54 1.10104 1.68758 0
M  V30 20264 O 1895.6 0.775287 2.40303 0
M  V30 20265 C 1896.91 3.00642 0.0592661 0
M  V30 20266 C 1898.46 3.12741 0.127389 0
M  V30 20267 C 1898.93 4.57971 -0.0517042 0
M  V30 20268 N 1900.42 4.632 0.0032917 0
M  V30 20269 C 1901.16 5.73293 -0.110598 0
M  V30 20270 N 1900.65 6.92238 -0.279049 0
M  V30 20271 N 1902.45 5.62076 -0.0522147 0
M  V30 20272 H 1894.6 1.86369 -1.01884 0
M  V30 20273 H 1896.86 0.859996 -0.398886 0
M  V30 20274 H 1896.57 3.39396 -0.922117 0
M  V30 20275 H 1896.44 3.68539 0.80368 0
M  V30 20276 H 1898.83 2.73861 1.09927 0
M  V30 20277 H 1898.91 2.47445 -0.648435 0
M  V30 20278 H 1898.55 4.97544 -1.02043 0
M  V30 20279 H 1898.48 5.21321 0.743753 0
M  V30 20280 H 1900.97 3.77672 0.131145 0
M  V30 20281 H 1901.29 7.71972 -0.357596 0
M  V30 20282 H 1899.63 6.94287 -0.314653 0
M  V30 20283 H 1902.82 4.68035 0.0782189 0
M  V30 20284 H 1903 6.47839 -0.144423 0
M  V30 20285 N 1896.4 -0.183431 1.56529 0
M  V30 20286 C 1897.65 -0.900214 1.80944 0
M  V30 20287 C 1897.97 -1.83302 0.665246 0
M  V30 20288 O 1897.24 -1.9334 -0.315697 0
M  V30 20289 H 1895.82 -0.335409 0.667465 0
M  V30 20290 H 1898.48 -0.186146 1.94009 0
M  V30 20291 H 1897.58 -1.48437 2.74541 0
M  V30 20292 N 1897.88 -1.50992 -0.451564 0
M  V30 20293 C 1898.81 -1.74216 -1.5547 0
M  V30 20294 C 1899.79 -0.591568 -1.59482 0
M  V30 20295 O 1900.98 -0.83279 -1.75437 0
M  V30 20296 C 1898.11 -1.85421 -2.9366 0
M  V30 20297 C 1897.06 -3.0076 -3.04512 0
M  V30 20298 C 1896.39 -2.9713 -4.44542 0
M  V30 20299 C 1897.69 -4.40961 -2.79911 0
M  V30 20300 H 1899.38 -2.66582 -1.36287 0
M  V30 20301 H 1896.93 -1.28281 -0.654207 0
M  V30 20302 H 1898.88 -2.00252 -3.70779 0
M  V30 20303 H 1897.6 -0.896921 -3.14043 0
M  V30 20304 H 1896.26 -2.85611 -2.2983 0
M  V30 20305 H 1895.91 -1.99207 -4.61872 0
M  V30 20306 H 1895.61 -3.74572 -4.52736 0
M  V30 20307 H 1897.13 -3.14035 -5.23655 0
M  V30 20308 H 1898.55 -4.56534 -3.4677 0
M  V30 20309 H 1896.95 -5.20002 -2.9953 0
M  V30 20310 H 1898.02 -4.51981 -1.75618 0
M  V30 20311 N 1899.36 0.706069 -1.40899 0
M  V30 20312 C 1900.29 1.83004 -1.36327 0
M  V30 20313 C 1901.27 1.60934 -0.232136 0
M  V30 20314 O 1902.45 1.83822 -0.417348 0
M  V30 20315 C 1899.58 3.19508 -1.12395 0
M  V30 20316 C 1898.63 3.60387 -2.28086 0
M  V30 20317 S 1899.46 3.66403 -3.90524 0
M  V30 20318 C 1900.62 5.0565 -3.68874 0
M  V30 20319 H 1900.85 1.86603 -2.31445 0
M  V30 20320 H 1898.38 0.873772 -1.27297 0
M  V30 20321 H 1900.34 3.98315 -0.992725 0
M  V30 20322 H 1899 3.1353 -0.189145 0
M  V30 20323 H 1898.19 4.59526 -2.07008 0
M  V30 20324 H 1897.8 2.88861 -2.37561 0
M  V30 20325 H 1900.09 5.92847 -3.27931 0
M  V30 20326 H 1901.03 5.31767 -4.67578 0
M  V30 20327 H 1901.44 4.76693 -3.02364 0
M  V30 20328 N 1900.84 1.26553 0.939264 0
M  V30 20329 C 1902.25 1.11093 1.50051 0
M  V30 20330 C 1902.6 -0.308105 1.93766 0
M  V30 20331 O 1901.72 -1.19981 1.80093 0
M  V30 20332 C 1902.32 2.01053 2.72696 0
M  V30 20333 C 1900.88 1.89734 3.25082 0
M  V30 20334 C 1900.02 1.94291 1.97854 0
M  V30 20335 H 1902.98 1.39614 0.754553 0
M  V30 20336 H 1903 1.55955 3.47071 0
M  V30 20337 H 1902.51 3.04325 2.40848 0
M  V30 20338 H 1900.61 0.894042 3.61715 0
M  V30 20339 H 1900.72 2.75368 3.92058 0
M  V30 20340 H 1899.09 1.38367 2.13838 0
M  V30 20341 H 1899.87 2.99196 1.68335 0
M  V30 20342 N 1902.31 -1.14411 1.08387 0
M  V30 20343 C 1903.73 -1.67013 0.83448 0
M  V30 20344 C 1904.08 -1.85509 -0.638802 0
M  V30 20345 O 1903.2 -1.56611 -1.49338 0
M  V30 20346 C 1903.8 -3.03377 1.50825 0
M  V30 20347 C 1902.36 -3.53013 1.3061 0
M  V30 20348 C 1901.5 -2.28494 1.57117 0
M  V30 20349 H 1904.45 -0.984794 1.24449 0
M  V30 20350 H 1904.47 -3.68824 0.935352 0
M  V30 20351 H 1903.99 -2.89883 2.5805 0
M  V30 20352 H 1902.09 -3.7173 0.254538 0
M  V30 20353 H 1902.2 -4.33799 2.0336 0
M  V30 20354 H 1900.56 -2.34558 0.99271 0
M  V30 20355 H 1901.35 -2.17576 2.65547 0
M  V30 20356 N 1903.79 -0.869509 -1.31443 0
M  V30 20357 C 1904.72 -0.340679 -2.31001 0
M  V30 20358 C 1905.7 0.568186 -1.6033 0
M  V30 20359 O 1906.89 0.485305 -1.88038 0
M  V30 20360 C 1904.02 0.45909 -3.44252 0
M  V30 20361 C 1902.97 -0.356639 -4.26512 0
M  V30 20362 C 1902.3 0.568786 -5.31666 0
M  V30 20363 C 1903.6 -1.59045 -4.97496 0
M  V30 20364 H 1905.29 -1.1726 -2.75482 0
M  V30 20365 H 1902.84 -0.5653 -1.3244 0
M  V30 20366 H 1904.79 0.839573 -4.12952 0
M  V30 20367 H 1903.52 1.32451 -2.98537 0
M  V30 20368 H 1902.17 -0.719063 -3.59479 0
M  V30 20369 H 1901.82 1.43148 -4.82201 0
M  V30 20370 H 1901.52 0.0268906 -5.87594 0
M  V30 20371 H 1903.05 0.946122 -6.03225 0
M  V30 20372 H 1904.46 -1.28144 -5.58795 0
M  V30 20373 H 1902.86 -2.07139 -5.63217 0
M  V30 20374 H 1903.93 -2.34354 -4.24507 0
M  V30 20375 N 1905.27 1.44508 -0.628902 0
M  V30 20376 C 1906.68 1.85457 -0.215122 0
M  V30 20377 C 1907.03 1.52619 1.23296 0
M  V30 20378 O 1906.16 0.963178 1.93783 0
M  V30 20379 C 1906.75 3.36621 -0.383645 0
M  V30 20380 C 1905.31 3.76392 -0.0243904 0
M  V30 20381 C 1904.46 2.68369 -0.698081 0
M  V30 20382 H 1907.41 1.35006 -0.834208 0
M  V30 20383 H 1907.43 3.78617 0.378049 0
M  V30 20384 H 1906.94 3.6049 -1.43767 0
M  V30 20385 H 1905.04 3.58139 1.02798 0
M  V30 20386 H 1905.16 4.7714 -0.432898 0
M  V30 20387 H 1903.52 2.54349 -0.133605 0
M  V30 20388 H 1904.3 2.95071 -1.75465 0
M  V30 20389 N 1906.75 0.369315 1.53212 0
M  V30 20390 C 1908.03 -0.275781 1.93646 0
M  V30 20391 C 1908.41 -1.66075 1.30316 0
M  V30 20392 O 1907.75 -2.23746 0.463658 0
M  V30 20393 C 1907.96 -0.322239 3.47509 0
M  V30 20394 C 1909.31 -0.560798 4.2088 0
M  V30 20395 O 1910.34 -0.403291 3.5391 0
M  V30 20396 O 1909.2 -0.86778 5.39566 0
M  V30 20397 H 1906.29 -0.166296 0.810108 0
M  V30 20398 H 1908.84 0.42237 1.6436 0
M  V30 20399 H 1907.61 0.648648 3.85886 0
M  V30 20400 H 1907.23 -1.06613 3.8304 0
M  V30 20401 N 1908.23 -1.57291 0.0985816 0
M  V30 20402 C 1909.18 -2.10757 -0.869797 0
M  V30 20403 C 1910.16 -1.02343 -1.24156 0
M  V30 20404 O 1911.35 -1.28612 -1.21606 0
M  V30 20405 C 1908.48 -2.69425 -2.12756 0
M  V30 20406 C 1907.57 -3.84888 -1.78107 0
M  V30 20407 N 1907.96 -4.92778 -1.14034 0
M  V30 20408 C 1906.26 -3.94688 -2.07695 0
M  V30 20409 C 1906.96 -5.73373 -0.980736 0
M  V30 20410 N 1905.93 -5.22519 -1.49917 0
M  V30 20411 H 1909.74 -2.91555 -0.370523 0
M  V30 20412 H 1907.25 -1.62063 -0.104525 0
M  V30 20413 H 1909.25 -3.0606 -2.83077 0
M  V30 20414 H 1907.91 -1.90083 -2.63246 0
M  V30 20415 H 1908.92 -5.11578 -0.806735 0
M  V30 20416 H 1905.6 -3.2636 -2.60375 0
M  V30 20417 H 1906.99 -6.70188 -0.479379 0
M  V30 20418 N 1909.71 0.175127 -1.56624 0
M  V30 20419 C 1910.95 0.892368 -1.81777 0
M  V30 20420 C 1911.28 1.8241 -0.675051 0
M  V30 20421 O 1910.54 1.9276 0.337944 0
M  V30 20422 C 1910.83 1.72397 -3.13072 0
M  V30 20423 C 1910.5 0.941494 -4.40961 0
M  V30 20424 C 1909.16 0.725524 -4.75699 0
M  V30 20425 C 1911.51 0.392358 -5.19721 0
M  V30 20426 C 1908.84 -0.0507428 -5.86678 0
M  V30 20427 C 1911.19 -0.370801 -6.31512 0
M  V30 20428 C 1909.86 -0.597606 -6.64819 0
M  V30 20429 H 1909.13 0.326541 -0.665171 0
M  V30 20430 H 1911.78 0.157524 -1.90851 0
M  V30 20431 H 1910.08 2.52809 -2.99324 0
M  V30 20432 H 1911.78 2.28189 -3.29743 0
M  V30 20433 H 1908.37 1.11986 -4.13711 0
M  V30 20434 H 1912.55 0.546561 -4.93281 0
M  V30 20435 H 1907.81 -0.236241 -6.10943 0
M  V30 20436 H 1911.98 -0.803585 -6.91748 0
M  V30 20437 H 1909.61 -1.201 -7.50653 0
M  V30 20438 N 1911.18 1.5123 0.44355 0
M  V30 20439 C 1912.41 1.67671 1.2207 0
M  V30 20440 C 1912.83 0.370934 1.84406 0
M  V30 20441 O 1912.19 -0.668265 1.68535 0
M  V30 20442 C 1912.24 2.7896 2.28503 0
M  V30 20443 O 1911.34 2.4213 3.33837 0
M  V30 20444 H 1910.68 0.559275 0.357921 0
M  V30 20445 H 1913.21 1.9776 0.524592 0
M  V30 20446 H 1913.22 3.0286 2.73386 0
M  V30 20447 H 1911.9 3.73716 1.82509 0
M  V30 20448 H 1910.48 2.28779 2.94473 0
M  V30 20449 N 1912.66 -0.698586 1.41271 0
M  V30 20450 C 1913.57 -1.8424 1.45234 0
M  V30 20451 C 1914.59 -1.70581 0.343225 0
M  V30 20452 O 1915.76 -1.9255 0.590477 0
M  V30 20453 C 1912.83 -3.20195 1.32951 0
M  V30 20454 C 1911.89 -3.45984 2.54152 0
M  V30 20455 C 1911.12 -4.75453 2.42446 0
M  V30 20456 O 1911.35 -5.5173 1.44741 0
M  V30 20457 O 1910.28 -5.01958 3.32147 0
M  V30 20458 H 1914.11 -1.83853 2.41727 0
M  V30 20459 H 1911.69 -0.851252 1.22776 0
M  V30 20460 H 1913.57 -4.0137 1.28374 0
M  V30 20461 H 1912.25 -3.21272 0.395728 0
M  V30 20462 H 1911.15 -2.64751 2.64306 0
M  V30 20463 H 1912.49 -3.49718 3.46349 0
M  V30 20464 N 1914.14 -1.27049 -0.93254 0
M  V30 20465 C 1915.09 -1.09183 -2.05382 0
M  V30 20466 C 1916.08 -0.0162863 -1.69392 0
M  V30 20467 O 1917.29 -0.173635 -1.79161 0
M  V30 20468 H 1913.66 -0.336282 -0.67262 0
M  V30 20469 H 1915.63 -2.04189 -2.17599 0
M  V30 20470 C 1914.38 -0.750687 -3.395 0
M  V30 20471 H 1913.71 -1.57019 -3.67675 0
M  V30 20472 H 1915.15 -0.665521 -4.18744 0
M  V30 20473 C 1913.6 0.544676 -3.32468 0
M  V30 20474 O 1914.13 1.58051 -3.69301 0
M  V30 20475 N 1912.34 0.538506 -2.85567 0
M  V30 20476 H 1911.89 -0.304834 -2.5579 0
M  V30 20477 H 1911.85 1.4053 -2.81245 0
M  V30 20478 N 1915.62 1.13835 -1.08993 0
M  V30 20479 C 1916.58 2.17299 -0.728968 0
M  V30 20480 C 1917.58 1.5901 0.23923 0
M  V30 20481 O 1918.77 1.74191 0.0179935 0
M  V30 20482 C 1915.9 3.40812 -0.0772774 0
M  V30 20483 H 1917.1 2.50745 -1.64521 0
M  V30 20484 H 1914.65 1.28586 -0.888552 0
M  V30 20485 H 1915.38 3.12952 0.850403 0
M  V30 20486 H 1915.17 3.84387 -0.773873 0
M  V30 20487 H 1916.66 4.17293 0.160024 0
M  V30 20488 N 1917.1 0.876467 1.3098 0
M  V30 20489 C 1918.06 0.341893 2.26636 0
M  V30 20490 C 1919.06 -0.510816 1.52471 0
M  V30 20491 O 1920.25 -0.31919 1.71251 0
M  V30 20492 C 1917.38 -0.513725 3.37007 0
M  V30 20493 H 1918.57 1.18642 2.75434 0
M  V30 20494 H 1916.13 0.652602 1.42024 0
M  V30 20495 H 1916.86 -1.37919 2.93511 0
M  V30 20496 H 1916.65 0.0969443 3.9198 0
M  V30 20497 H 1918.14 -0.87981 4.08227 0
M  V30 20498 N 1918.57 -1.44173 0.636557 0
M  V30 20499 C 1919.85 -1.9546 0.0738864 0
M  V30 20500 C 1920.23 -1.57838 -1.4018 0
M  V30 20501 O 1919.58 -0.855144 -2.11895 0
M  V30 20502 C 1919.79 -3.47687 0.302493 0
M  V30 20503 C 1921.14 -4.24135 0.198569 0
M  V30 20504 O 1922.16 -3.5543 0.234151 0
M  V30 20505 O 1921.02 -5.46393 0.108108 0
M  V30 20506 H 1918.11 -0.826777 -0.0191985 0
M  V30 20507 H 1920.66 -1.54196 0.708638 0
M  V30 20508 H 1919.43 -3.68139 1.32625 0
M  V30 20509 H 1919.05 -3.95911 -0.366134 0
M  V30 20510 N 1920.05 -0.377435 -1.53014 0
M  V30 20511 C 1921.3 0.20853 -2.01423 0
M  V30 20512 C 1921.63 1.47801 -1.26433 0
M  V30 20513 O 1920.88 1.92551 -0.34966 0
M  V30 20514 C 1921.18 0.534659 -3.53378 0
M  V30 20515 C 1920.85 -0.641876 -4.46308 0
M  V30 20516 C 1919.51 -0.964671 -4.71431 0
M  V30 20517 C 1921.86 -1.42954 -5.01212 0
M  V30 20518 C 1919.19 -2.07689 -5.4871 0
M  V30 20519 C 1921.54 -2.53227 -5.79706 0
M  V30 20520 C 1920.2 -2.86028 -6.03112 0
M  V30 20521 H 1919.47 0.0763064 -0.737061 0
M  V30 20522 H 1922.12 -0.51234 -1.84519 0
M  V30 20523 H 1920.43 1.3367 -3.68293 0
M  V30 20524 H 1922.12 1.00048 -3.88319 0
M  V30 20525 H 1918.71 -0.380266 -4.2691 0
M  V30 20526 H 1922.9 -1.1934 -4.81738 0
M  V30 20527 H 1918.15 -2.33487 -5.65061 0
M  V30 20528 H 1922.33 -3.14669 -6.21254 0
M  V30 20529 H 1919.95 -3.72332 -6.62777 0
M  V30 20530 N 1921.53 1.57237 -0.106922 0
M  V30 20531 C 1922.78 1.95064 0.554803 0
M  V30 20532 C 1923.11 0.989597 1.67095 0
M  V30 20533 O 1922.38 0.0246857 1.94484 0
M  V30 20534 C 1922.67 3.42924 1.09887 0
M  V30 20535 C 1922.52 4.49798 -0.0130257 0
M  V30 20536 C 1923.84 3.92358 1.99356 0
M  V30 20537 H 1920.96 0.709287 0.200204 0
M  V30 20538 H 1923.6 1.89145 -0.180032 0
M  V30 20539 H 1921.75 3.48098 1.7251 0
M  V30 20540 H 1923.42 4.56729 -0.647804 0
M  V30 20541 H 1921.67 4.28472 -0.677825 0
M  V30 20542 H 1922.34 5.50485 0.40868 0
M  V30 20543 H 1924.81 3.89411 1.46622 0
M  V30 20544 H 1923.69 4.9636 2.34346 0
M  V30 20545 H 1923.95 3.32343 2.91549 0
M  V30 20546 N 1923.01 -0.166818 1.56715 0
M  V30 20547 C 1924.42 -0.518754 1.50934 0
M  V30 20548 C 1924.62 -1.84416 0.811964 0
M  V30 20549 O 1923.68 -2.49712 0.374207 0
M  V30 20550 C 1924.99 -0.547356 2.95676 0
M  V30 20551 C 1926.54 -0.634247 3.06507 0
M  V30 20552 C 1927.02 -0.693699 4.52716 0
M  V30 20553 N 1928.51 -0.756466 4.56981 0
M  V30 20554 C 1929.24 -0.823116 5.67461 0
M  V30 20555 N 1928.74 -0.850325 6.87562 0
M  V30 20556 N 1930.53 -0.862482 5.55444 0
M  V30 20557 H 1922.68 0.70222 2.00456 0
M  V30 20558 H 1924.95 0.253731 0.913414 0
M  V30 20559 H 1924.65 0.357945 3.49874 0
M  V30 20560 H 1924.53 -1.39227 3.50565 0
M  V30 20561 H 1926.91 -1.52997 2.52341 0
M  V30 20562 H 1926.99 0.23743 2.54696 0
M  V30 20563 H 1926.64 0.197788 5.07515 0
M  V30 20564 H 1926.57 -1.58158 5.02288 0
M  V30 20565 H 1929.06 -0.74354 3.70513 0
M  V30 20566 H 1929.37 -0.902481 7.67512 0
M  V30 20567 H 1927.72 -0.818528 6.90163 0
M  V30 20568 H 1930.91 -0.838257 4.60533 0
M  V30 20569 H 1931.08 -0.910962 6.41565 0
M  V30 20570 N 1924.49 -1.51463 -0.435524 0
M  V30 20571 C 1925.42 -1.67594 -1.54879 0
M  V30 20572 C 1926.4 -0.523516 -1.53942 0
M  V30 20573 O 1927.58 -0.747582 -1.73042 0
M  V30 20574 C 1924.71 -1.69117 -2.93457 0
M  V30 20575 C 1923.75 -2.90346 -3.12413 0
M  V30 20576 S 1924.59 -4.51129 -2.88518 0
M  V30 20577 C 1925.74 -4.554 -4.29374 0
M  V30 20578 H 1925.98 -2.61757 -1.40963 0
M  V30 20579 H 1923.51 -1.4117 -0.625338 0
M  V30 20580 H 1925.47 -1.70679 -3.73335 0
M  V30 20581 H 1924.13 -0.761275 -3.04735 0
M  V30 20582 H 1923.32 -2.87818 -4.13735 0
M  V30 20583 H 1922.92 -2.86534 -2.40362 0
M  V30 20584 H 1925.22 -4.31152 -5.22603 0
M  V30 20585 H 1926.16 -5.5722 -4.36935 0
M  V30 20586 H 1926.57 -3.84704 -4.13113 0
M  V30 20587 N 1925.96 0.691085 -1.4164 0
M  V30 20588 C 1927.2 1.46333 -1.42709 0
M  V30 20589 C 1927.57 1.91966 -0.0362114 0
M  V30 20590 O 1928.77 2.68686 0.078314 0
M  V30 20591 C 1927.04 2.63962 -2.40954 0
M  V30 20592 S 1928.6 3.53041 -2.6059 0
M  V30 20593 H 1925.42 0.499999 -0.505492 0
M  V30 20594 H 1928.02 0.805972 -1.78113 0
M  V30 20595 H 1926.72 2.28649 -3.40804 0
M  V30 20596 H 1926.25 3.34587 -2.06919 0
M  V30 20597 H 1928.27 4.59342 -1.87667 0
M  V30 20598 N 1927.44 1.27542 0.925789 0
M  V30 20599 C 1928.37 1.12952 2.04363 0
M  V30 20600 C 1929.35 0.0304761 1.70073 0
M  V30 20601 O 1930.54 0.205307 1.93112 0
M  V30 20602 C 1927.67 0.777954 3.38475 0
M  V30 20603 C 1926.62 1.83044 3.86883 0
M  V30 20604 C 1925.95 1.3328 5.17823 0
M  V30 20605 C 1927.25 3.23488 4.10065 0
M  V30 20606 H 1928.94 2.06462 2.16827 0
M  V30 20607 H 1926.49 0.994046 1.04186 0
M  V30 20608 H 1928.44 0.662702 4.16156 0
M  V30 20609 H 1927.17 -0.192851 3.2603 0
M  V30 20610 H 1925.82 1.93463 3.11396 0
M  V30 20611 H 1925.47 0.351399 5.01771 0
M  V30 20612 H 1925.17 2.03648 5.51182 0
M  V30 20613 H 1926.7 1.23053 5.98072 0
M  V30 20614 H 1928.11 3.16058 4.7831 0
M  V30 20615 H 1926.51 3.91583 4.54734 0
M  V30 20616 H 1927.58 3.68399 3.15293 0
M  V30 20617 N 1928.92 -1.13255 1.09595 0
M  V30 20618 C 1930.15 -1.88411 0.854927 0
M  V30 20619 C 1930.56 -1.79214 -0.593949 0
M  V30 20620 O 1929.92 -1.15995 -1.40895 0
M  V30 20621 C 1929.97 -3.37946 1.28353 0
M  V30 20622 O 1929.69 -3.46907 2.67558 0
M  V30 20623 C 1931.19 -4.30065 1.07514 0
M  V30 20624 H 1928.41 -0.596416 0.307455 0
M  V30 20625 H 1930.96 -1.43358 1.45838 0
M  V30 20626 H 1929.11 -3.80576 0.72393 0
M  V30 20627 H 1929.53 -4.39878 2.8567 0
M  V30 20628 H 1931 -5.33309 1.42428 0
M  V30 20629 H 1931.48 -4.39198 0.0130611 0
M  V30 20630 H 1932.08 -3.93206 1.62077 0
M  V30 20631 N 1930.4 -0.883401 -1.30514 0
M  V30 20632 C 1931.81 -0.577183 -1.48798 0
M  V30 20633 C 1932.01 0.885462 -1.81002 0
M  V30 20634 O 1931.07 1.66679 -1.89669 0
M  V30 20635 C 1932.38 -1.48898 -2.61247 0
M  V30 20636 C 1933.93 -1.49244 -2.75128 0
M  V30 20637 C 1934.41 -2.39012 -3.90688 0
M  V30 20638 N 1935.9 -2.36967 -3.97996 0
M  V30 20639 C 1936.63 -3.03138 -4.86718 0
M  V30 20640 N 1936.13 -3.78529 -5.80248 0
M  V30 20641 N 1937.92 -2.92378 -4.80074 0
M  V30 20642 H 1930.07 -1.82963 -1.07882 0
M  V30 20643 H 1932.34 -0.783078 -0.534315 0
M  V30 20644 H 1932.04 -2.53035 -2.44266 0
M  V30 20645 H 1931.92 -1.19739 -3.5769 0
M  V30 20646 H 1934.3 -0.458579 -2.91515 0
M  V30 20647 H 1934.38 -1.82432 -1.7931 0
M  V30 20648 H 1934.03 -3.42482 -3.75058 0
M  V30 20649 H 1933.96 -2.03141 -4.85841 0
M  V30 20650 H 1936.45 -1.82179 -3.31088 0
M  V30 20651 H 1936.76 -4.26115 -6.44706 0
M  V30 20652 H 1935.11 -3.82636 -5.80185 0
M  V30 20653 H 1938.3 -2.33008 -4.05986 0
M  V30 20654 H 1938.47 -3.44225 -5.49011 0
M  V30 20655 N 1931.88 1.43833 -0.644194 0
M  V30 20656 C 1933.15 1.95418 -0.0842511 0
M  V30 20657 C 1933.53 1.58579 1.39341 0
M  V30 20658 O 1932.88 0.866369 2.11439 0
M  V30 20659 C 1933.09 3.47521 -0.320928 0
M  V30 20660 C 1934.44 4.24024 -0.221059 0
M  V30 20661 O 1935.46 3.553 -0.252997 0
M  V30 20662 O 1934.32 5.46328 -0.137083 0
M  V30 20663 H 1931.42 0.826867 0.0148137 0
M  V30 20664 H 1933.96 1.53818 -0.716805 0
M  V30 20665 H 1932.73 3.67431 -1.34575 0
M  V30 20666 H 1932.36 3.96099 0.345133 0
M  V30 20667 N 1933.35 0.385544 1.52811 0
M  V30 20668 C 1934.29 -0.486433 2.23979 0
M  V30 20669 C 1935.3 -1.02981 1.2609 0
M  V30 20670 O 1936.49 -0.932779 1.52189 0
M  V30 20671 C 1933.59 -1.68645 2.93959 0
M  V30 20672 C 1932.76 -1.2711 4.18523 0
M  V30 20673 C 1931.82 -2.33538 4.71536 0
M  V30 20674 O 1930.85 -1.95101 5.34719 0
M  V30 20675 N 1932.05 -3.65401 4.51068 0
M  V30 20676 H 1934.81 0.12327 2.99446 0
M  V30 20677 H 1932.37 0.211712 1.6051 0
M  V30 20678 H 1934.37 -2.3936 3.26326 0
M  V30 20679 H 1932.94 -2.20257 2.21823 0
M  V30 20680 H 1932.16 -0.392983 3.92236 0
M  V30 20681 H 1933.44 -0.970192 4.99464 0
M  V30 20682 H 1932.84 -3.99393 4.00626 0
M  V30 20683 H 1931.4 -4.32162 4.87934 0
M  V30 20684 N 1934.83 -1.57178 0.115259 0
M  V30 20685 C 1935.78 -2.11668 -0.847394 0
M  V30 20686 C 1936.77 -1.03654 -1.23064 0
M  V30 20687 O 1937.96 -1.29894 -1.20235 0
M  V30 20688 C 1935.09 -2.71667 -2.09886 0
M  V30 20689 C 1934.17 -3.86755 -1.74015 0
M  V30 20690 N 1934.56 -4.9396 -1.08801 0
M  V30 20691 C 1932.86 -3.96869 -2.03497 0
M  V30 20692 C 1933.56 -5.74381 -0.919867 0
M  V30 20693 N 1932.54 -5.24079 -1.44367 0
M  V30 20694 H 1936.34 -2.91932 -0.339579 0
M  V30 20695 H 1933.86 -1.62165 -0.0873304 0
M  V30 20696 H 1935.85 -3.09045 -2.79815 0
M  V30 20697 H 1934.51 -1.92865 -2.61215 0
M  V30 20698 H 1935.52 -5.12405 -0.75243 0
M  V30 20699 H 1932.2 -3.29104 -2.56899 0
M  V30 20700 H 1933.59 -6.70658 -0.408269 0
M  V30 20701 N 1936.31 0.158505 -1.56801 0
M  V30 20702 C 1937.22 1.2157 -2.00644 0
M  V30 20703 C 1938.24 1.47694 -0.919914 0
M  V30 20704 O 1939.41 1.59591 -1.22853 0
M  V30 20705 C 1936.48 2.53191 -2.36844 0
M  V30 20706 C 1935.54 2.34816 -3.59389 0
M  V30 20707 C 1934.77 3.60161 -3.93853 0
M  V30 20708 O 1935 4.65871 -3.29121 0
M  V30 20709 O 1933.93 3.53508 -4.8715 0
M  V30 20710 H 1937.76 0.873512 -2.90867 0
M  V30 20711 H 1935.34 0.366356 -1.44839 0
M  V30 20712 H 1937.22 3.30812 -2.6104 0
M  V30 20713 H 1935.9 2.86963 -1.4978 0
M  V30 20714 H 1934.8 1.55184 -3.40395 0
M  V30 20715 H 1936.14 2.05964 -4.47034 0
M  V30 20716 N 1937.79 1.51692 0.427485 0
M  V30 20717 C 1939.21 1.40086 0.764726 0
M  V30 20718 C 1939.41 0.490917 1.95428 0
M  V30 20719 O 1938.46 -0.0502236 2.5245 0
M  V30 20720 C 1939.77 2.82295 1.03586 0
M  V30 20721 C 1941.32 2.91513 1.1397 0
M  V30 20722 C 1941.8 4.34651 1.44371 0
M  V30 20723 N 1943.29 4.37802 1.51274 0
M  V30 20724 C 1944.02 5.45596 1.76388 0
M  V30 20725 N 1943.52 6.63536 1.99228 0
M  V30 20726 N 1945.31 5.33088 1.78252 0
M  V30 20727 H 1937.46 2.09399 -0.355809 0
M  V30 20728 H 1939.73 0.943043 -0.0968225 0
M  V30 20729 H 1939.43 3.50918 0.234369 0
M  V30 20730 H 1939.31 3.22223 1.96092 0
M  V30 20731 H 1941.69 2.23082 1.9318 0
M  V30 20732 H 1941.77 2.55068 0.193426 0
M  V30 20733 H 1941.42 5.03635 0.656841 0
M  V30 20734 H 1941.35 4.68617 2.4022 0
M  V30 20735 H 1943.84 3.52777 1.35487 0
M  V30 20736 H 1944.15 7.41477 2.17789 0
M  V30 20737 H 1942.5 6.66634 1.9653 0
M  V30 20738 H 1945.69 4.39931 1.59933 0
M  V30 20739 H 1945.86 6.17174 1.97486 0
M  V30 20740 N 1939.27 -0.683564 1.42004 0
M  V30 20741 C 1940.68 -1.26389 1.37414 0
M  V30 20742 C 1941.03 -1.96099 0.0630958 0
M  V30 20743 O 1940.15 -1.995 -0.838385 0
M  V30 20744 C 1940.75 -2.29854 2.48903 0
M  V30 20745 C 1939.31 -2.83435 2.47673 0
M  V30 20746 C 1938.46 -1.57634 2.28138 0
M  V30 20747 H 1941.41 -0.477522 1.51345 0
M  V30 20748 H 1941.43 -3.11404 2.18651 0
M  V30 20749 H 1940.94 -1.7909 3.44309 0
M  V30 20750 H 1939.04 -3.38344 1.56059 0
M  V30 20751 H 1939.15 -3.33048 3.44407 0
M  V30 20752 H 1937.52 -1.83883 1.76236 0
M  V30 20753 H 1938.3 -1.08848 3.25587 0
M  V30 20754 N 1940.75 -1.28031 -0.919012 0
M  V30 20755 C 1941.97 -1.17828 -1.70679 0
M  V30 20756 C 1942.4 0.260207 -1.86292 0
M  V30 20757 O 1941.75 1.18833 -1.36925 0
M  V30 20758 C 1941.8 -1.87626 -3.07943 0
M  V30 20759 O 1940.91 -1.18014 -3.95154 0
M  V30 20760 H 1940.25 -0.40932 -0.522832 0
M  V30 20761 H 1942.78 -1.69258 -1.14947 0
M  V30 20762 H 1942.79 -1.95327 -3.58206 0
M  V30 20763 H 1941.46 -2.92263 -2.95897 0
M  V30 20764 H 1940.04 -1.18441 -3.5359 0
M  V30 20765 N 1942.22 1.12672 -1.10194 0
M  V30 20766 C 1943.19 2.16513 -0.751974 0
M  V30 20767 C 1944.19 1.59255 0.222352 0
M  V30 20768 O 1945.38 1.742 -0.000482744 0
M  V30 20769 C 1942.51 3.40711 -0.113421 0
M  V30 20770 H 1943.7 2.48986 -1.67171 0
M  V30 20771 H 1941.25 1.27637 -0.90214 0
M  V30 20772 H 1941.99 3.13836 0.817162 0
M  V30 20773 H 1941.77 3.83545 -0.814599 0
M  V30 20774 H 1943.26 4.1744 0.115756 0
M  V30 20775 N 1943.7 0.89031 1.30043 0
M  V30 20776 C 1944.63 0.377386 2.3043 0
M  V30 20777 C 1945.61 -0.542607 1.61213 0
M  V30 20778 O 1946.8 -0.455328 1.88787 0
M  V30 20779 C 1943.93 -0.404264 3.44939 0
M  V30 20780 C 1942.88 0.424448 4.2589 0
M  V30 20781 C 1942.21 -0.48413 5.32504 0
M  V30 20782 C 1943.51 1.6694 4.94902 0
M  V30 20783 H 1945.2 1.21628 2.73582 0
M  V30 20784 H 1942.75 0.586299 1.31524 0
M  V30 20785 H 1944.7 -0.773769 4.14235 0
M  V30 20786 H 1943.42 -1.27685 3.00606 0
M  V30 20787 H 1942.08 0.776162 3.58289 0
M  V30 20788 H 1941.73 -1.35458 4.84417 0
M  V30 20789 H 1941.43 0.0665939 5.87562 0
M  V30 20790 H 1942.96 -0.850034 6.04654 0
M  V30 20791 H 1944.37 1.37017 5.56686 0
M  V30 20792 H 1942.77 2.16073 5.59851 0
M  V30 20793 H 1943.84 2.41077 4.20725 0
M  V30 20794 N 1945.18 -1.43489 0.651812 0
M  V30 20795 C 1946.11 -2.29063 -0.0793108 0
M  V30 20796 C 1947.12 -1.4243 -0.788508 0
M  V30 20797 O 1948.31 -1.66381 -0.646499 0
M  V30 20798 C 1945.41 -3.19317 -1.13533 0
M  V30 20799 C 1944.59 -4.3448 -0.504553 0
M  V30 20800 C 1943.65 -5.05619 -1.45727 0
M  V30 20801 O 1942.67 -5.60936 -0.966409 0
M  V30 20802 N 1943.87 -5.08988 -2.79126 0
M  V30 20803 H 1946.64 -2.92451 0.655174 0
M  V30 20804 H 1944.2 -1.54164 0.494491 0
M  V30 20805 H 1946.19 -3.63773 -1.77345 0
M  V30 20806 H 1944.76 -2.57538 -1.7718 0
M  V30 20807 H 1943.98 -3.92958 0.312626 0
M  V30 20808 H 1945.27 -5.0876 -0.0641591 0
M  V30 20809 H 1944.67 -4.65415 -3.21567 0
M  V30 20810 H 1943.22 -5.57166 -3.38245 0
M  V30 20811 N 1946.66 -0.393643 -1.52605 0
M  V30 20812 C 1947.59 0.430786 -2.29492 0
M  V30 20813 C 1948.57 1.0597 -1.33058 0
M  V30 20814 O 1949.75 1.07165 -1.61955 0
M  V30 20815 C 1946.88 1.55599 -3.10494 0
M  V30 20816 C 1945.84 1.05289 -4.14847 0
M  V30 20817 C 1945.16 2.2705 -4.841 0
M  V30 20818 C 1946.46 0.117789 -5.22167 0
M  V30 20819 H 1948.16 -0.210741 -2.98657 0
M  V30 20820 H 1945.7 -0.102795 -1.43633 0
M  V30 20821 H 1947.66 2.1396 -3.63042 0
M  V30 20822 H 1946.38 2.22517 -2.39069 0
M  V30 20823 H 1945.04 0.491788 -3.63286 0
M  V30 20824 H 1944.69 2.92487 -4.09219 0
M  V30 20825 H 1944.39 1.94047 -5.54635 0
M  V30 20826 H 1945.91 2.86045 -5.39454 0
M  V30 20827 H 1947.33 0.609718 -5.70049 0
M  V30 20828 H 1945.72 -0.122689 -5.99975 0
M  V30 20829 H 1946.79 -0.832053 -4.77708 0
M  V30 20830 N 1948.14 1.57115 -0.123593 0
M  V30 20831 C 1949.07 2.18573 0.821462 0
M  V30 20832 C 1950.05 1.1271 1.27399 0
M  V30 20833 O 1951.23 1.40964 1.33577 0
M  V30 20834 C 1948.36 2.78879 2.06987 0
M  V30 20835 C 1947.32 3.90365 1.75497 0
M  V30 20836 C 1946.64 4.37499 3.07406 0
M  V30 20837 C 1947.94 5.12249 1.01972 0
M  V30 20838 H 1949.64 2.97798 0.309319 0
M  V30 20839 H 1947.18 1.43244 0.147338 0
M  V30 20840 H 1949.13 3.20534 2.73562 0
M  V30 20841 H 1947.86 1.96951 2.60534 0
M  V30 20842 H 1946.52 3.49293 1.1131 0
M  V30 20843 H 1946.17 3.52424 3.58896 0
M  V30 20844 H 1945.87 5.12682 2.87108 0
M  V30 20845 H 1947.39 4.81808 3.75091 0
M  V30 20846 H 1948.8 5.50894 1.58709 0
M  V30 20847 H 1947.2 5.93044 0.917526 0
M  V30 20848 H 1948.27 4.84899 0.00726173 0
M  V30 20849 N 1949.61 -0.150187 1.56883 0
M  V30 20850 C 1950.56 -1.18552 1.98025 0
M  V30 20851 C 1951.53 -1.42861 0.847353 0
M  V30 20852 O 1952.72 -1.55249 1.10917 0
M  V30 20853 C 1949.86 -2.51479 2.36331 0
M  V30 20854 C 1948.97 -2.34371 3.62897 0
M  V30 20855 C 1948.1 -3.60311 3.9032 0
M  V30 20856 C 1947.14 -3.38226 5.10166 0
M  V30 20857 N 1946.28 -4.56289 5.33615 0
M  V30 20858 H 1951.12 -0.827667 2.86276 0
M  V30 20859 H 1948.66 -0.397238 1.41635 0
M  V30 20860 H 1950.61 -3.28981 2.56568 0
M  V30 20861 H 1949.24 -2.85218 1.51164 0
M  V30 20862 H 1948.3 -1.47939 3.50454 0
M  V30 20863 H 1949.61 -2.1401 4.50556 0
M  V30 20864 H 1948.76 -4.46243 4.11038 0
M  V30 20865 H 1947.5 -3.83672 3.01076 0
M  V30 20866 H 1946.51 -2.50682 4.89324 0
M  V30 20867 H 1947.73 -3.16266 6.0096 0
M  V30 20868 H 1945.68 -4.79829 4.47325 0
M  V30 20869 H 1945.59 -4.38919 6.15537 0
M  V30 20870 H 1946.86 -5.43443 5.58829 0
M  V30 20871 N 1951.09 -1.51916 -0.419434 0
M  V30 20872 C 1952.04 -1.70902 -1.50919 0
M  V30 20873 C 1953.03 -0.562909 -1.50732 0
M  V30 20874 O 1954.22 -0.819564 -1.56883 0
M  V30 20875 C 1951.35 -1.85375 -2.88948 0
M  V30 20876 C 1950.43 -3.05825 -2.93823 0
M  V30 20877 N 1950.82 -4.28707 -2.6841 0
M  V30 20878 C 1949.12 -3.05448 -3.24989 0
M  V30 20879 C 1949.82 -5.10103 -2.79589 0
M  V30 20880 N 1948.8 -4.45129 -3.12028 0
M  V30 20881 H 1952.6 -2.6356 -1.30051 0
M  V30 20882 H 1950.12 -1.49808 -0.627004 0
M  V30 20883 H 1952.11 -1.9709 -3.6737 0
M  V30 20884 H 1950.77 -0.939096 -3.10823 0
M  V30 20885 H 1951.78 -4.57353 -2.42999 0
M  V30 20886 H 1948.46 -2.23681 -3.52524 0
M  V30 20887 H 1949.85 -6.17972 -2.63743 0
M  V30 20888 N 1952.57 0.676023 -1.42365 0
M  V30 20889 C 1953.8 1.46937 -1.46371 0
M  V30 20890 C 1954.22 1.87946 -0.076099 0
M  V30 20891 O 1953.58 1.55917 0.925172 0
M  V30 20892 C 1953.63 2.69558 -2.39523 0
M  V30 20893 O 1952.73 3.67782 -1.86575 0
M  V30 20894 H 1952.07 0.441478 -0.495977 0
M  V30 20895 H 1954.6 0.829284 -1.8704 0
M  V30 20896 H 1954.61 3.17642 -2.56061 0
M  V30 20897 H 1953.29 2.39049 -3.40336 0
M  V30 20898 H 1951.86 3.26808 -1.79585 0
M  V30 20899 N 1954.05 1.28517 0.912209 0
M  V30 20900 C 1955.3 1.15761 1.6615 0
M  V30 20901 C 1955.62 -0.293495 1.92273 0
M  V30 20902 O 1954.88 -1.22975 1.52235 0
M  V30 20903 C 1955.18 1.90307 3.02519 0
M  V30 20904 C 1954.84 3.40095 2.96051 0
M  V30 20905 C 1953.51 3.80948 2.93994 0
M  V30 20906 C 1955.86 4.35601 2.86185 0
M  V30 20907 C 1953.19 5.15643 2.79873 0
M  V30 20908 C 1955.54 5.70371 2.73604 0
M  V30 20909 C 1954.2 6.10497 2.69906 0
M  V30 20910 H 1953.47 0.423598 0.607985 0
M  V30 20911 H 1956.12 1.59309 1.06268 0
M  V30 20912 H 1954.42 1.39312 3.66196 0
M  V30 20913 H 1956.12 1.77852 3.59402 0
M  V30 20914 H 1952.71 3.07615 2.98447 0
M  V30 20915 H 1956.89 4.05 2.8686 0
M  V30 20916 H 1952.15 5.45858 2.75407 0
M  V30 20917 H 1956.32 6.44035 2.64939 0
M  V30 20918 H 1953.95 7.1482 2.58722 0
M  V30 20919 N 1955.53 -1.12086 1.1079 0
M  V30 20920 C 1956.46 -2.2001 0.78217 0
M  V30 20921 C 1957.44 -1.68305 -0.246488 0
M  V30 20922 O 1958.62 -1.9388 -0.111448 0
M  V30 20923 C 1955.75 -3.4662 0.2172 0
M  V30 20924 C 1954.71 -4.11499 1.17696 0
M  V30 20925 C 1954.03 -5.32604 0.47302 0
M  V30 20926 C 1955.33 -4.5721 2.52501 0
M  V30 20927 H 1957.03 -2.47514 1.68456 0
M  V30 20928 H 1954.57 -1.18964 0.811397 0
M  V30 20929 H 1956.53 -4.21394 -0.0228381 0
M  V30 20930 H 1955.25 -3.18555 -0.720448 0
M  V30 20931 H 1953.91 -3.38711 1.40252 0
M  V30 20932 H 1953.56 -5.00807 -0.469217 0
M  V30 20933 H 1953.26 -5.76961 1.11308 0
M  V30 20934 H 1954.78 -6.10122 0.241615 0
M  V30 20935 H 1956.19 -5.23338 2.34073 0
M  V30 20936 H 1954.59 -5.12357 3.12426 0
M  V30 20937 H 1955.66 -3.71003 3.12226 0
M  V30 20938 N 1957 -0.897194 -1.29569 0
M  V30 20939 C 1957.91 -0.377551 -2.31542 0
M  V30 20940 C 1958.93 0.526431 -1.65845 0
M  V30 20941 O 1960.11 0.416614 -1.97044 0
M  V30 20942 C 1957.17 0.388744 -3.44514 0
M  V30 20943 C 1956.23 -0.546458 -4.25808 0
M  V30 20944 C 1955.47 0.183361 -5.33385 0
M  V30 20945 O 1955.69 1.40767 -5.52757 0
M  V30 20946 O 1954.62 -0.472827 -6.0004 0
M  V30 20947 H 1958.45 -1.22348 -2.77965 0
M  V30 20948 H 1956.03 -0.661433 -1.33961 0
M  V30 20949 H 1957.92 0.822167 -4.13302 0
M  V30 20950 H 1956.59 1.21077 -3.00203 0
M  V30 20951 H 1955.5 -1.02894 -3.59671 0
M  V30 20952 H 1956.83 -1.33483 -4.73754 0
M  V30 20953 N 1958.48 1.43142 -0.659413 0
M  V30 20954 C 1959.9 1.56203 -0.327538 0
M  V30 20955 C 1960.1 1.64194 1.16801 0
M  V30 20956 O 1959.15 1.60041 1.95303 0
M  V30 20957 C 1960.47 2.81982 -1.04434 0
M  V30 20958 C 1962.02 2.95735 -1.02518 0
M  V30 20959 C 1962.49 4.24354 -1.723 0
M  V30 20960 N 1963.98 4.31232 -1.69094 0
M  V30 20961 C 1964.72 5.29534 -2.19957 0
M  V30 20962 N 1964.21 6.34078 -2.79135 0
M  V30 20963 N 1966.01 5.21229 -2.10421 0
M  V30 20964 H 1958.16 1.36198 -1.62984 0
M  V30 20965 H 1960.42 0.654541 -0.685769 0
M  V30 20966 H 1960.13 2.82162 -2.09947 0
M  V30 20967 H 1960 3.72401 -0.599805 0
M  V30 20968 H 1962.39 2.95092 0.0215626 0
M  V30 20969 H 1962.47 2.06589 -1.50846 0
M  V30 20970 H 1962.11 4.25758 -2.76935 0
M  V30 20971 H 1962.04 5.12408 -1.21433 0
M  V30 20972 H 1964.53 3.56306 -1.25915 0
M  V30 20973 H 1964.85 7.05417 -3.15606 0
M  V30 20974 H 1963.19 6.34684 -2.83199 0
M  V30 20975 H 1966.38 4.38473 -1.63888 0
M  V30 20976 H 1966.55 5.97679 -2.50368 0
M  V30 20977 N 1959.96 0.40173 1.52394 0
M  V30 20978 C 1961.19 -0.178662 2.06629 0
M  V30 20979 C 1961.61 -1.3871 1.27048 0
M  V30 20980 O 1960.97 -1.78821 0.298765 0
M  V30 20981 C 1961.02 -0.514797 3.56906 0
M  V30 20982 O 1960.12 -1.60691 3.79805 0
M  V30 20983 H 1959.46 -0.0174284 0.663771 0
M  V30 20984 H 1961.99 0.572792 1.96419 0
M  V30 20985 H 1962 -0.775554 4.00561 0
M  V30 20986 H 1960.68 0.368624 4.14263 0
M  V30 20987 H 1959.25 -1.3389 3.48034 0
M  V30 20988 N 1961.44 -1.57047 0.131923 0
M  V30 20989 C 1962.39 -2.12555 -0.824896 0
M  V30 20990 C 1963.37 -1.04953 -1.21957 0
M  V30 20991 O 1964.56 -1.31162 -1.18851 0
M  V30 20992 C 1961.69 -2.73877 -2.06993 0
M  V30 20993 C 1960.78 -3.88579 -1.69903 0
M  V30 20994 N 1961.17 -4.95086 -1.03556 0
M  V30 20995 C 1959.47 -3.99005 -1.99276 0
M  V30 20996 C 1960.17 -5.75324 -0.858894 0
M  V30 20997 N 1959.15 -5.25581 -1.388 0
M  V30 20998 H 1962.95 -2.92275 -0.308596 0
M  V30 20999 H 1960.46 -1.62249 -0.0701257 0
M  V30 21000 H 1962.46 -3.11996 -2.76522 0
M  V30 21001 H 1961.12 -1.95625 -2.59155 0
M  V30 21002 H 1962.13 -5.13174 -0.69804 0
M  V30 21003 H 1958.81 -3.3181 -2.53394 0
M  V30 21004 H 1960.2 -6.71054 -0.337114 0
M  V30 21005 O 1962.96 0.00710271 -1.61498 0
M  V30 21006 H 1963.65 0.624735 -1.83349 0
M  V30 END ATOM
M  V30 BEGIN BOND
M  V30 END BOND
M  V30 END CTAB
M  END
$$$$
