drugbank_target|Q57193 Cholera enterotoxin B subunit (DB03077)
 OpenBabel12092120483D

  0  0  0     0  0            999 V3000
M  V30 BEGIN CTAB
M  V30 COUNTS 1970 1989 0 0 0
M  V30 BEGIN ATOM
M  V30 1 H -0.908 1.98254 -0.117106 0
M  V30 2 N 0 1.576 0 0
M  V30 3 C 0.933 2.03868 1.02534 0
M  V30 4 C 1.911 0.928543 1.3348 0
M  V30 5 O 3.095 1.19667 1.45644 0
M  V30 6 C 0.222 2.43627 2.35294 0
M  V30 7 C -0.732 3.65373 2.2001 0
M  V30 8 S 0.101 5.13292 1.52614 0
M  V30 9 C 1.257 5.56322 2.86805 0
M  V30 10 H 1.49 2.90518 0.631377 0
M  V30 11 H -0.977 1.52953 0.210867 0
M  V30 12 H 0.981 2.67203 3.11629 0
M  V30 13 H -0.358 1.57376 2.7183 0
M  V30 14 H -1.165 3.90944 3.18086 0
M  V30 15 H -1.563 3.418 1.51819 0
M  V30 16 H 0.729 5.58782 3.83104 0
M  V30 17 H 1.672 6.56266 2.65933 0
M  V30 18 H 2.08 4.83886 2.90714 0
M  V30 19 N 1.4781 -0.272755 1.55222 0
M  V30 20 C 2.7271 -1.00211 1.75045 0
M  V30 21 C 3.0401 -1.87441 0.559046 0
M  V30 22 O 4.2461 -2.63856 0.639698 0
M  V30 23 C 2.7021 -1.83165 3.09804 0
M  V30 24 C 2.3101 -1.008 4.36513 0
M  V30 25 C 4.0541 -2.55529 3.38977 0
M  V30 26 C 1.9611 -1.83194 5.62311 0
M  V30 27 H 0.8911 -0.377878 0.652476 0
M  V30 28 H 3.5421 -0.257776 1.8168 0
M  V30 29 H 1.9241 -2.61694 2.97207 0
M  V30 30 H 3.0981 -0.266855 4.60027 0
M  V30 31 H 1.4131 -0.398897 4.14485 0
M  V30 32 H 4.0101 -3.17578 4.30172 0
M  V30 33 H 4.3531 -3.25825 2.59121 0
M  V30 34 H 4.8861 -1.84029 3.52673 0
M  V30 35 H 1.6251 -1.17318 6.44916 0
M  V30 36 H 1.1451 -2.54905 5.4294 0
M  V30 37 H 2.8241 -2.40552 6.00619 0
M  V30 38 N 2.9562 -1.48159 -0.537278 0
M  V30 39 C 3.9032 -1.62138 -1.64256 0
M  V30 40 C 4.8732 -0.463668 -1.59497 0
M  V30 41 O 6.0582 -0.686241 -1.78032 0
M  V30 42 C 3.1982 -1.66028 -3.02537 0
M  V30 43 C 2.3112 -2.92855 -3.17585 0
M  V30 44 C 1.4462 -2.87952 -4.46382 0
M  V30 45 C 0.4852 -4.09516 -4.54932 0
M  V30 46 N -0.3778 -4.02733 -5.75109 0
M  V30 47 H 4.4622 -2.56529 -1.51647 0
M  V30 48 H 1.9992 -1.27224 -0.738414 0
M  V30 49 H 3.9572 -1.66265 -3.82638 0
M  V30 50 H 2.5872 -0.751331 -3.13934 0
M  V30 51 H 1.6392 -3.02395 -2.30784 0
M  V30 52 H 2.9512 -3.82822 -3.19764 0
M  V30 53 H 2.1052 -2.8655 -5.34765 0
M  V30 54 H 0.8442 -1.95702 -4.46712 0
M  V30 55 H -0.1508 -4.11201 -3.64957 0
M  V30 56 H 1.0742 -5.02917 -4.56346 0
M  V30 57 H -0.9798 -3.13299 -5.76351 0
M  V30 58 H -1.0628 -4.86397 -5.78752 0
M  V30 59 H 0.2052 -4.05379 -6.65799 0
M  V30 60 N 4.4343 0.785586 -1.36625 0
M  V30 61 C 5.3643 1.91259 -1.33949 0
M  V30 62 C 6.3453 1.68795 -0.210325 0
M  V30 63 O 7.5303 1.89854 -0.408561 0
M  V30 64 C 4.6603 3.28339 -1.13186 0
M  V30 65 C 3.6143 3.65335 -2.22967 0
M  V30 66 C 2.9403 5.00806 -1.87342 0
M  V30 67 C 4.2403 3.7352 -3.65075 0
M  V30 68 H 5.9343 1.93755 -2.28253 0
M  V30 69 H 3.4803 0.930788 -1.09874 0
M  V30 70 H 5.4333 4.06804 -1.09948 0
M  V30 71 H 4.1573 3.2624 -0.153332 0
M  V30 72 H 2.8163 2.89169 -2.25337 0
M  V30 73 H 2.4643 4.95233 -0.880545 0
M  V30 74 H 2.1643 5.26529 -2.60846 0
M  V30 75 H 3.6883 5.81687 -1.85667 0
M  V30 76 H 5.1023 4.42168 -3.64911 0
M  V30 77 H 3.4993 4.10731 -4.37516 0
M  V30 78 H 4.5693 2.74527 -3.99703 0
M  V30 79 N 5.9124 1.20967 1.01018 0
M  V30 80 C 6.8594 0.964281 2.09691 0
M  V30 81 C 7.8294 -0.107853 1.65749 0
M  V30 82 O 9.0144 0.0381987 1.90762 0
M  V30 83 C 6.1544 0.52943 3.41015 0
M  V30 84 C 5.2674 1.67043 3.98398 0
M  V30 85 C 4.4024 1.18525 5.17808 0
M  V30 86 C 3.4414 2.29892 5.67288 0
M  V30 87 N 2.5784 1.82546 6.77954 0
M  V30 88 H 7.4184 1.89463 2.30017 0
M  V30 89 H 4.9554 0.944289 1.1279 0
M  V30 90 H 6.9134 0.258588 4.16398 0
M  V30 91 H 5.5434 -0.363919 3.20742 0
M  V30 92 H 4.5954 2.05603 3.20049 0
M  V30 93 H 5.9074 2.50877 4.31117 0
M  V30 94 H 5.0614 0.870762 6.00419 0
M  V30 95 H 3.8004 0.316887 4.86669 0
M  V30 96 H 2.8054 2.6215 4.83278 0
M  V30 97 H 4.0304 3.17216 6.00459 0
M  V30 98 H 1.9764 0.980454 6.48632 0
M  V30 99 H 1.8934 2.59956 7.09901 0
M  V30 100 H 3.1614 1.54115 7.64113 0
M  V30 101 N 7.3905 -1.2043 1.01659 0
M  V30 102 C 8.6375 -1.89797 0.705917 0
M  V30 103 C 8.9655 -1.78848 -0.764439 0
M  V30 104 O 8.2205 -1.16694 -1.57102 0
M  V30 105 C 8.5195 -3.40464 1.08714 0
M  V30 106 C 8.1855 -3.71614 2.5537 0
M  V30 107 C 6.8475 -3.79826 2.95441 0
M  V30 108 C 9.1995 -3.85915 3.50313 0
M  V30 109 C 6.5275 -3.99797 4.29394 0
M  V30 110 C 8.8795 -4.07396 4.83954 0
M  V30 111 C 7.5435 -4.13837 5.23732 0
M  V30 112 H 6.8135 -0.694518 0.258313 0
M  V30 113 H 9.4605 -1.42691 1.27717 0
M  V30 114 H 7.7655 -3.89385 0.434309 0
M  V30 115 H 9.4625 -3.92433 0.824461 0
M  V30 116 H 6.0525 -3.65822 2.23321 0
M  V30 117 H 10.2365 -3.78926 3.20513 0
M  V30 118 H 5.4925 -4.03018 4.59768 0
M  V30 119 H 9.6665 -4.17404 5.57447 0
M  V30 120 H 7.2935 -4.29064 6.27541 0
M  V30 121 N 8.8686 -0.792821 -1.36206 0
M  V30 122 C 10.1166 -0.366062 -1.98757 0
M  V30 123 C 10.4376 1.0668 -1.63231 0
M  V30 124 O 9.7076 1.73587 -0.907978 0
M  V30 125 H 8.2876 -0.132364 -0.735179 0
M  V30 126 H 10.9496 -1.01562 -1.66347 0
M  V30 127 H 10.0456 -0.460638 -3.08682 0
M  V30 128 N 10.3467 1.47872 -0.545128 0
M  V30 129 C 11.5927 2.02793 -0.0166104 0
M  V30 130 C 11.9257 1.41987 1.32489 0
M  V30 131 O 11.2007 0.571045 1.85928 0
M  V30 132 C 11.4837 3.59989 0.0893294 0
M  V30 133 C 11.3367 4.3125 -1.27841 0
M  V30 134 C 12.6557 4.32606 0.808724 0
M  V30 135 H 9.7747 0.736962 -0.00751035 0
M  V30 136 H 12.4167 1.76433 -0.705085 0
M  V30 137 H 10.5667 3.82579 0.675681 0
M  V30 138 H 12.2387 4.20035 -1.90704 0
M  V30 139 H 10.4817 3.92076 -1.85632 0
M  V30 140 H 11.1527 5.39736 -1.15713 0
M  V30 141 H 13.6287 4.14936 0.310992 0
M  V30 142 H 12.5047 5.42251 0.851782 0
M  V30 143 H 12.7657 4.00963 1.86229 0
M  V30 144 N 11.8248 0.280983 1.55075 0
M  V30 145 C 13.0718 -0.334115 1.99725 0
M  V30 146 C 13.3998 -1.5542 1.1694 0
M  V30 147 O 12.6548 -1.94361 0.228531 0
M  V30 148 C 12.9538 -0.754656 3.49342 0
M  V30 149 C 12.6198 0.361445 4.49449 0
M  V30 150 C 11.2818 0.667893 4.76542 0
M  V30 151 C 13.6338 1.11322 5.09173 0
M  V30 152 C 10.9618 1.7296 5.60626 0
M  V30 153 C 13.3138 2.1647 5.9441 0
M  V30 154 C 11.9778 2.47742 6.19822 0
M  V30 155 H 11.2478 -0.122261 0.730844 0
M  V30 156 H 13.8948 0.395917 1.87363 0
M  V30 157 H 12.1998 -1.56446 3.5921 0
M  V30 158 H 13.8968 -1.24142 3.813 0
M  V30 159 H 10.4868 0.112481 4.28452 0
M  V30 160 H 14.6708 0.88973 4.8826 0
M  V30 161 H 9.9268 1.97684 5.78559 0
M  V30 162 H 14.1008 2.75193 6.3972 0
M  V30 163 H 11.7278 3.30145 6.84769 0
M  V30 164 N 13.3029 -1.57598 0.00835791 0
M  V30 165 C 14.5499 -1.90928 -0.674732 0
M  V30 166 C 14.8779 -0.88277 -1.73313 0
M  V30 167 O 14.1329 0.111294 -1.95383 0
M  V30 168 C 14.4319 -3.3101 -1.34787 0
M  V30 169 C 14.0979 -4.48922 -0.421861 0
M  V30 170 C 12.7599 -4.8091 -0.166927 0
M  V30 171 C 15.1119 -5.20755 0.215211 0
M  V30 172 C 12.4399 -5.821 0.733232 0
M  V30 173 C 14.7919 -6.22905 1.1033 0
M  V30 174 C 13.4559 -6.53346 1.36733 0
M  V30 175 H 12.7259 -0.698656 -0.246902 0
M  V30 176 H 15.3729 -1.91387 0.0656779 0
M  V30 177 H 13.6779 -3.26714 -2.16253 0
M  V30 178 H 15.3749 -3.54061 -1.8826 0
M  V30 179 H 11.9649 -4.23934 -0.630729 0
M  V30 180 H 16.1489 -4.9629 0.0312829 0
M  V30 181 H 11.4049 -6.04042 0.945712 0
M  V30 182 H 15.5789 -6.77694 1.60325 0
M  V30 183 H 13.2059 -7.31573 2.06652 0
M  V30 184 N 14.781 0.264519 -1.55364 0
M  V30 185 C 16.009 1.013 -1.80405 0
M  V30 186 C 16.424 1.79618 -0.581622 0
M  V30 187 O 15.781 1.76879 0.449468 0
M  V30 188 C 15.832 1.96487 -3.03439 0
M  V30 189 O 15.553 1.21341 -4.20961 0
M  V30 190 C 17.054 2.83079 -3.41147 0
M  V30 191 H 14.274 0.298875 -0.600762 0
M  V30 192 H 16.818 0.292736 -2.02394 0
M  V30 193 H 14.973 2.63965 -2.83551 0
M  V30 194 H 15.387 1.85573 -4.90574 0
M  V30 195 H 16.861 3.4565 -4.30384 0
M  V30 196 H 17.338 3.53286 -2.60932 0
M  V30 197 H 17.944 2.2108 -3.63323 0
M  V30 198 N 16.2591 1.48442 0.529413 0
M  V30 199 C 17.5051 1.5672 1.28711 0
M  V30 200 C 17.8381 0.2406 1.92704 0
M  V30 201 O 17.1131 -0.753454 1.79313 0
M  V30 202 C 17.3961 2.70587 2.37603 0
M  V30 203 C 17.2491 4.12953 1.78297 0
M  V30 204 C 18.5681 2.80212 3.39366 0
M  V30 205 H 15.6871 0.570474 0.466613 0
M  V30 206 H 18.3291 1.80617 0.589706 0
M  V30 207 H 16.4791 2.50342 2.97088 0
M  V30 208 H 18.1511 4.44639 1.22858 0
M  V30 209 H 16.3941 4.19927 1.0883 0
M  V30 210 H 17.0651 4.88448 2.57144 0
M  V30 211 H 19.5411 2.98553 2.89836 0
M  V30 212 H 18.4171 3.61611 4.12951 0
M  V30 213 H 18.6781 1.88393 3.99951 0
M  V30 214 N 17.7372 -0.778329 1.37039 0
M  V30 215 C 18.6672 -1.90546 1.34962 0
M  V30 216 C 19.6482 -1.68681 0.219274 0
M  V30 217 O 20.8332 -1.89634 0.418624 0
M  V30 218 C 17.9632 -3.27734 1.14925 0
M  V30 219 C 16.9172 -3.64147 2.24902 0
M  V30 220 C 16.2432 -4.99806 1.89996 0
M  V30 221 C 17.5432 -3.71579 3.67051 0
M  V30 222 H 19.2372 -1.92541 2.29277 0
M  V30 223 H 16.7832 -0.924948 1.10366 0
M  V30 224 H 18.7362 -4.06215 1.12104 0
M  V30 225 H 17.4602 -3.26154 0.170631 0
M  V30 226 H 16.1192 -2.8797 2.26868 0
M  V30 227 H 15.7672 -4.94759 0.906796 0
M  V30 228 H 15.4672 -5.25139 2.63634 0
M  V30 229 H 16.9912 -5.80694 1.88749 0
M  V30 230 H 18.4052 -4.40227 3.67251 0
M  V30 231 H 16.8022 -4.08405 4.39688 0
M  V30 232 H 17.8722 -2.72404 4.01154 0
M  V30 233 N 19.2153 -1.21501 -1.00376 0
M  V30 234 C 20.1453 -0.999478 -2.11028 0
M  V30 235 C 21.1263 0.0759671 -1.6993 0
M  V30 236 O 22.3113 -0.0841106 -1.94018 0
M  V30 237 C 19.4413 -0.564709 -3.42678 0
M  V30 238 C 18.3953 -1.58486 -3.97576 0
M  V30 239 C 17.7213 -1.00628 -5.25146 0
M  V30 240 C 19.0213 -2.97204 -4.29496 0
M  V30 241 H 20.7153 -1.92495 -2.29317 0
M  V30 242 H 18.2613 -0.92693 -1.102 0
M  V30 243 H 20.2143 -0.401091 -4.19487 0
M  V30 244 H 18.9383 0.396411 -3.24185 0
M  V30 245 H 17.5973 -1.73606 -3.22888 0
M  V30 246 H 17.2453 -0.0368439 -5.02987 0
M  V30 247 H 16.9453 -1.68771 -5.62841 0
M  V30 248 H 18.4693 -0.854015 -6.04598 0
M  V30 249 H 19.8833 -2.8552 -4.97143 0
M  V30 250 H 18.2803 -3.62372 -4.78338 0
M  V30 251 H 19.3503 -3.47956 -3.3772 0
M  V30 252 N 20.6934 1.19889 -1.02296 0
M  V30 253 C 21.9184 1.9393 -0.735237 0
M  V30 254 C 22.3434 1.74639 0.698782 0
M  V30 255 O 21.7014 1.04481 1.48167 0
M  V30 256 C 21.7494 3.43916 -1.08417 0
M  V30 257 O 20.8534 4.11917 -0.199446 0
M  V30 258 H 20.1944 0.605645 -0.272196 0
M  V30 259 H 22.7244 1.52137 -1.36804 0
M  V30 260 H 22.7344 3.9456 -1.03856 0
M  V30 261 H 21.4094 3.5728 -2.12894 0
M  V30 262 H 19.9864 3.71666 -0.303136 0
M  V30 263 N 22.1715 0.800033 1.35784 0
M  V30 264 C 23.3965 0.388511 2.03729 0
M  V30 265 C 23.8215 -0.990481 1.5991 0
M  V30 266 O 23.1795 -1.64013 0.772612 0
M  V30 267 C 23.2275 0.4726 3.5749 0
M  V30 268 O 22.3315 -0.51646 4.09153 0
M  V30 269 H 21.6725 0.163271 0.643614 0
M  V30 270 H 24.2025 1.0841 1.73518 0
M  V30 271 H 24.2125 0.34003 4.06581 0
M  V30 272 H 22.8875 1.47848 3.88734 0
M  V30 273 H 21.4645 -0.344673 3.71304 0
M  V30 274 N 23.6496 -1.47581 0.552962 0
M  V30 275 C 24.6126 -2.28439 -0.186605 0
M  V30 276 C 25.6126 -1.36706 -0.84665 0
M  V30 277 O 26.8026 -1.59378 -0.703164 0
M  V30 278 C 23.9346 -3.16264 -1.2724 0
M  V30 279 H 25.1276 -2.95294 0.523609 0
M  V30 280 H 22.6806 -1.532 0.309745 0
M  V30 281 H 23.4156 -2.54091 -2.01514 0
M  V30 282 H 23.2006 -3.83769 -0.803968 0
M  V30 283 H 24.6906 -3.77198 -1.79196 0
M  V30 284 N 25.1277 -0.289203 -1.54924 0
M  V30 285 C 26.3577 0.325989 -2.04012 0
M  V30 286 C 26.7657 1.48961 -1.1665 0
M  V30 287 O 26.1087 1.82794 -0.1822 0
M  V30 288 C 26.1707 0.856112 -3.49158 0
M  V30 289 C 25.8347 -0.180697 -4.56643 0
M  V30 290 C 26.8317 -1.0051 -5.10092 0
M  V30 291 C 24.5167 -0.318998 -5.01286 0
M  V30 292 C 26.5107 -1.95385 -6.06715 0
M  V30 293 C 24.1977 -1.27121 -5.97732 0
M  V30 294 C 25.1957 -2.08713 -6.50329 0
M  V30 295 O 24.8837 -3.02322 -7.44887 0
M  V30 296 H 24.6157 0.0765276 -0.671654 0
M  V30 297 H 27.1697 -0.423254 -2.00992 0
M  V30 298 H 25.3997 1.65567 -3.49463 0
M  V30 299 H 27.0887 1.38591 -3.81507 0
M  V30 300 H 27.8547 -0.90906 -4.76404 0
M  V30 301 H 23.7337 0.306108 -4.59983 0
M  V30 302 H 27.2777 -2.59111 -6.47694 0
M  V30 303 H 23.1747 -1.36801 -6.30837 0
M  V30 304 H 23.9427 -2.97165 -7.6265 0
M  V30 305 N 26.6058 1.57591 -0.0167156 0
M  V30 306 C 27.5688 2.08393 0.954204 0
M  V30 307 C 28.5688 0.996531 1.26198 0
M  V30 308 O 29.7588 1.25858 1.20438 0
M  V30 309 C 26.8908 2.5394 2.27436 0
M  V30 310 H 28.0838 2.95455 0.514451 0
M  V30 311 H 25.6368 1.54582 0.231089 0
M  V30 312 H 26.3718 1.70171 2.76066 0
M  V30 313 H 26.1568 3.33371 2.06412 0
M  V30 314 H 27.6468 2.93512 2.97053 0
M  V30 315 N 28.0839 -0.256276 1.55502 0
M  V30 316 C 29.0339 -1.31981 1.85916 0
M  V30 317 C 30.0179 -1.43927 0.719296 0
M  V30 318 O 31.2099 -1.47326 0.981019 0
M  V30 319 C 28.3389 -2.67703 2.14918 0
M  V30 320 C 27.4249 -2.59801 3.35208 0
M  V30 321 N 27.8159 -2.21524 4.54709 0
M  V30 322 C 26.1139 -2.90832 3.38131 0
M  V30 323 C 26.8149 -2.24024 5.36832 0
M  V30 324 N 25.7909 -2.63158 4.75656 0
M  V30 325 H 29.5929 -1.01423 2.75845 0
M  V30 326 H 27.1069 -0.464911 1.55603 0
M  V30 327 H 29.1039 -3.44445 2.34869 0
M  V30 328 H 27.7639 -2.99137 1.26282 0
M  V30 329 H 28.7749 -1.93223 4.80505 0
M  V30 330 H 25.4519 -3.26867 2.59739 0
M  V30 331 H 26.8419 -1.9685 6.42417 0
M  V30 332 N 29.562 -1.4872 -0.521534 0
M  V30 333 C 30.81 -1.56857 -1.27437 0
M  V30 334 C 31.131 -0.247982 -1.93417 0
M  V30 335 O 30.401 0.731151 -1.81744 0
M  V30 336 H 28.981 -0.577885 -0.473347 0
M  V30 337 H 31.643 -1.85233 -0.606205 0
M  V30 338 H 30.739 -2.35402 -2.0492 0
M  V30 339 N 31.0401 0.771051 -1.3745 0
M  V30 340 C 32.2681 1.56015 -1.35893 0
M  V30 341 C 32.6831 1.88718 0.0555523 0
M  V30 342 O 32.0401 1.51502 1.01752 0
M  V30 343 C 32.0911 2.87001 -2.19801 0
M  V30 344 O 31.8121 2.557 -3.55738 0
M  V30 345 C 33.3131 3.81228 -2.26231 0
M  V30 346 H 30.5331 0.483317 -0.465453 0
M  V30 347 H 33.0771 0.955611 -1.80799 0
M  V30 348 H 31.2321 3.43877 -1.78402 0
M  V30 349 H 31.6461 3.39584 -3.99729 0
M  V30 350 H 33.1201 4.70139 -2.89263 0
M  V30 351 H 33.5971 4.20409 -1.27093 0
M  V30 352 H 34.2031 3.30281 -2.67945 0
M  V30 353 N 32.5182 1.22032 0.997298 0
M  V30 354 C 33.9292 1.0397 1.55071 0
M  V30 355 C 34.2802 -0.398192 1.92117 0
M  V30 356 O 33.4052 -1.28254 1.74298 0
M  V30 357 C 34.0002 1.88109 2.81781 0
M  V30 358 C 32.5592 1.74357 3.33581 0
M  V30 359 C 31.7062 1.84846 2.06706 0
M  V30 360 H 34.6572 1.35941 0.818883 0
M  V30 361 H 34.6782 1.39589 3.53971 0
M  V30 362 H 34.1902 2.92754 2.54787 0
M  V30 363 H 32.2912 0.72427 3.65493 0
M  V30 364 H 32.4042 2.56772 4.04481 0
M  V30 365 H 30.7682 1.28238 2.20062 0
M  V30 366 H 31.5512 2.91014 1.82114 0
M  V30 367 N 33.9963 -1.19345 1.0293 0
M  V30 368 C 34.9283 -2.22036 0.56857 0
M  V30 369 C 35.9413 -1.58865 -0.355779 0
M  V30 370 O 37.1303 -1.77851 -0.152103 0
M  V30 371 C 34.2303 -3.38363 -0.190752 0
M  V30 372 C 33.4033 -4.31118 0.738643 0
M  V30 373 C 32.4623 -5.26194 0.0246497 0
M  V30 374 O 31.4883 -5.65461 0.651354 0
M  V30 375 N 32.6903 -5.66971 -1.24594 0
M  V30 376 H 35.4553 -2.6219 1.45177 0
M  V30 377 H 33.0163 -1.34015 0.908381 0
M  V30 378 H 35.0083 -3.98981 -0.677961 0
M  V30 379 H 33.5783 -2.96994 -0.975366 0
M  V30 380 H 32.7983 -3.68276 1.40593 0
M  V30 381 H 34.0863 -4.90001 1.37029 0
M  V30 382 H 33.4843 -5.37104 -1.77583 0
M  V30 383 H 32.0413 -6.2984 -1.67764 0
M  V30 384 N 35.4744 -0.807222 -1.35358 0
M  V30 385 C 36.4224 -0.20614 -2.31685 0
M  V30 386 C 37.4164 0.644445 -1.56663 0
M  V30 387 O 38.6224 0.537538 -1.71786 0
M  V30 388 H 34.9974 -0.0479006 -0.750473 0
M  V30 389 H 36.9684 -1.03369 -2.79924 0
M  V30 390 C 35.7174 0.630212 -3.41941 0
M  V30 391 H 35.0404 -0.0149558 -3.99797 0
M  V30 392 H 36.4804 1.01716 -4.11619 0
M  V30 393 C 34.9394 1.79601 -2.85035 0
M  V30 394 O 35.4694 2.89351 -2.78637 0
M  V30 395 N 33.6754 1.60774 -2.42074 0
M  V30 396 H 33.2224 0.715009 -2.47478 0
M  V30 397 H 33.1804 2.38933 -2.04349 0
M  V30 398 N 36.9525 1.47285 -0.560781 0
M  V30 399 C 38.2015 2.01668 -0.035895 0
M  V30 400 C 38.5145 1.44021 1.32353 0
M  V30 401 O 39.7205 1.90088 1.93853 0
M  V30 402 C 38.1765 3.59897 -0.0136659 0
M  V30 403 C 37.7845 4.26536 -1.37006 0
M  V30 404 C 39.5285 4.22017 0.458425 0
M  V30 405 C 37.4355 5.76782 -1.30675 0
M  V30 406 H 36.3655 0.753938 -0.00964879 0
M  V30 407 H 39.0165 1.69243 -0.709166 0
M  V30 408 H 37.3985 3.89301 0.725325 0
M  V30 409 H 38.5725 4.0877 -2.12705 0
M  V30 410 H 36.8875 3.76419 -1.78038 0
M  V30 411 H 39.4845 5.32124 0.524247 0
M  V30 412 H 39.8275 3.89437 1.4712 0
M  V30 413 H 40.3605 3.97159 -0.225818 0
M  V30 414 H 37.0995 6.13988 -2.29564 0
M  V30 415 H 36.6195 5.96875 -0.591622 0
M  V30 416 H 38.2985 6.39063 -1.01033 0
M  V30 417 N 38.4306 0.297415 1.54768 0
M  V30 418 C 39.6586 -0.315623 2.04478 0
M  V30 419 C 40.0736 -1.47792 1.17486 0
M  V30 420 O 39.4306 -1.81404 0.19971 0
M  V30 421 C 39.4816 -0.7753 3.53088 0
M  V30 422 O 39.2026 0.340732 4.36773 0
M  V30 423 C 40.7036 -1.45386 4.18781 0
M  V30 424 H 37.9236 -0.0690887 0.667434 0
M  V30 425 H 40.4676 0.436003 1.99798 0
M  V30 426 H 38.6226 -1.47696 3.58141 0
M  V30 427 H 39.0366 -0.0165035 5.24497 0
M  V30 428 H 40.5106 -1.72669 5.24299 0
M  V30 429 H 40.9876 -2.39275 3.68299 0
M  V30 430 H 41.5936 -0.795475 4.17795 0
M  V30 431 N 39.9087 -1.5758 0.0250728 0
M  V30 432 C 41.1857 -1.82917 -0.692873 0
M  V30 433 C 41.5657 -0.908137 -1.90568 0
M  V30 434 O 40.9137 0.0372298 -2.2847 0
M  V30 435 C 41.1237 -3.32034 -1.07492 0
M  V30 436 C 42.4717 -3.98406 -1.46826 0
M  V30 437 O 43.4957 -3.36505 -1.16801 0
M  V30 438 O 42.3547 -5.07497 -2.02754 0
M  V30 439 H 39.4487 -0.754079 -0.33955 0
M  V30 440 H 41.9947 -1.69619 0.0524456 0
M  V30 441 H 40.7667 -3.90728 -0.211552 0
M  V30 442 H 40.3897 -3.50424 -1.87854 0
M  V30 443 N 41.3868 0.248026 -1.55636 0
M  V30 444 C 42.3168 1.31079 -1.93237 0
M  V30 445 C 43.2978 1.50264 -0.797174 0
M  V30 446 O 44.4828 1.62891 -1.05737 0
M  V30 447 C 41.6128 2.66575 -2.22609 0
M  V30 448 C 40.5668 2.62087 -3.3837 0
M  V30 449 C 39.8928 4.01369 -3.53281 0
M  V30 450 C 41.1928 2.19171 -4.7409 0
M  V30 451 H 42.8868 0.998556 -2.82257 0
M  V30 452 H 40.4328 0.47891 -1.35803 0
M  V30 453 H 42.3858 3.41057 -2.47503 0
M  V30 454 H 41.1098 2.99432 -1.30414 0
M  V30 455 H 39.7688 1.90063 -3.13483 0
M  V30 456 H 39.4168 4.31489 -2.58508 0
M  V30 457 H 39.1168 3.99254 -4.31127 0
M  V30 458 H 40.6408 4.77552 -3.80495 0
M  V30 459 H 42.0548 2.83384 -4.98363 0
M  V30 460 H 40.4518 2.2817 -5.5503 0
M  V30 461 H 41.5218 1.14336 -4.71227 0
M  V30 462 N 42.8649 1.48995 0.513639 0
M  V30 463 C 44.1049 1.59452 1.27885 0
M  V30 464 C 44.4689 0.269479 1.90099 0
M  V30 465 O 45.6699 0.249139 2.67643 0
M  V30 466 C 43.9409 2.71277 2.32688 0
M  V30 467 S 45.4999 3.01604 3.18717 0
M  V30 468 H 42.3179 0.562565 0.434789 0
M  V30 469 H 44.9199 1.86595 0.583301 0
M  V30 470 H 43.6239 3.66089 1.8549 0
M  V30 471 H 43.1549 2.46086 3.06929 0
M  V30 472 H 45.1699 2.42155 4.331 0
M  V30 473 N 44.343 -0.763751 1.37857 0
M  V30 474 C 45.306 -1.85889 1.34081 0
M  V30 475 C 46.306 -1.58949 0.243277 0
M  V30 476 O 47.496 -1.66882 0.499589 0
M  V30 477 C 44.628 -3.23176 1.08489 0
M  V30 478 H 45.821 -1.90648 2.31502 0
M  V30 479 H 43.374 -0.964367 1.23003 0
M  V30 480 H 44.109 -3.24091 0.116318 0
M  V30 481 H 43.894 -3.44124 1.8794 0
M  V30 482 H 45.384 -4.03254 1.08517 0
M  V30 483 N 45.8211 -1.22559 -0.990812 0
M  V30 484 C 46.7311 -1.01394 -2.11557 0
M  V30 485 C 47.7471 0.0383962 -1.73958 0
M  V30 486 O 48.9231 -0.154787 -2.00804 0
M  V30 487 C 45.9881 -0.596569 -3.41529 0
M  V30 488 C 45.0491 -1.72276 -3.93217 0
M  V30 489 C 44.2821 -1.32521 -5.16985 0
M  V30 490 O 44.5051 -0.204909 -5.70032 0
M  V30 491 O 43.4391 -2.14247 -5.62478 0
M  V30 492 H 47.2651 -1.95633 -2.32296 0
M  V30 493 H 44.8501 -1.01172 -1.0993 0
M  V30 494 H 46.7321 -0.374263 -4.19735 0
M  V30 495 H 45.4071 0.316939 -3.22145 0
M  V30 496 H 44.3141 -1.99961 -3.16174 0
M  V30 497 H 45.6471 -2.61421 -4.17037 0
M  V30 498 N 47.2992 1.18797 -1.03562 0
M  V30 499 C 48.5292 1.92319 -0.754773 0
M  V30 500 C 48.9372 1.7612 0.691248 0
M  V30 501 O 48.2802 1.08491 1.48241 0
M  V30 502 C 48.3422 3.44284 -1.03484 0
M  V30 503 C 48.0062 3.84258 -2.47376 0
M  V30 504 C 49.0032 3.88459 -3.45537 0
M  V30 505 C 46.6882 4.15701 -2.81954 0
M  V30 506 C 48.6822 4.23545 -4.76328 0
M  V30 507 C 46.3692 4.50458 -4.12954 0
M  V30 508 C 47.3672 4.54356 -5.09951 0
M  V30 509 O 47.0552 4.88305 -6.38603 0
M  V30 510 H 46.7872 0.617527 -0.275021 0
M  V30 511 H 49.3412 1.51683 -1.38497 0
M  V30 512 H 47.5712 3.85135 -0.347513 0
M  V30 513 H 49.2602 3.99049 -0.7426 0
M  V30 514 H 50.0262 3.6431 -3.20162 0
M  V30 515 H 45.9052 4.11847 -2.0713 0
M  V30 516 H 49.4492 4.26502 -5.52035 0
M  V30 517 H 45.3462 4.74067 -4.38099 0
M  V30 518 H 46.1142 5.06227 -6.43177 0
M  V30 519 N 48.7773 0.814389 1.34928 0
M  V30 520 C 49.7273 0.202752 2.27097 0
M  V30 521 C 50.7113 -0.62799 1.48139 0
M  V30 522 O 51.9033 -0.483969 1.70255 0
M  V30 523 C 49.0323 -0.64146 3.37254 0
M  V30 524 C 48.1183 0.19944 4.23631 0
M  V30 525 N 48.5093 1.26628 4.89693 0
M  V30 526 C 46.8073 -0.0176433 4.45997 0
M  V30 527 C 47.5083 1.78031 5.53787 0
M  V30 528 N 46.4843 1.08553 5.32651 0
M  V30 529 H 50.2863 1.01893 2.75672 0
M  V30 530 H 47.8003 0.656332 1.48546 0
M  V30 531 H 49.7973 -1.09575 4.02243 0
M  V30 532 H 48.4573 -1.4559 2.9023 0
M  V30 533 H 49.4683 1.64901 4.90946 0
M  V30 534 H 46.1453 -0.800601 4.09752 0
M  V30 535 H 47.5353 2.67236 6.16469 0
M  V30 536 N 50.2554 -1.46986 0.568584 0
M  V30 537 C 51.2034 -2.31858 -0.185649 0
M  V30 538 C 52.1974 -1.43624 -0.898249 0
M  V30 539 O 53.4034 -1.60327 -0.818242 0
M  V30 540 H 49.7784 -0.747866 -0.0787399 0
M  V30 541 H 51.7494 -2.93303 0.549191 0
M  V30 542 C 50.4984 -3.26513 -1.19519 0
M  V30 543 H 49.8214 -3.94377 -0.656285 0
M  V30 544 H 51.2614 -3.88707 -1.6936 0
M  V30 545 C 49.7204 -2.50847 -2.24894 0
M  V30 546 O 50.2504 -2.26119 -3.32014 0
M  V30 547 N 48.4564 -2.11656 -1.99124 0
M  V30 548 H 48.0034 -2.31966 -1.12024 0
M  V30 549 H 47.9614 -1.61347 -2.69842 0
M  V30 550 N 51.7335 -0.305618 -1.54608 0
M  V30 551 C 52.9615 0.304775 -2.04643 0
M  V30 552 C 53.3765 1.47167 -1.18268 0
M  V30 553 O 52.7335 1.81296 -0.209328 0
M  V30 554 C 52.7845 0.756564 -3.53495 0
M  V30 555 O 52.5055 -0.36389 -4.36586 0
M  V30 556 C 54.0065 1.43163 -4.19546 0
M  V30 557 H 51.2265 0.0655481 -0.667791 0
M  V30 558 H 53.7705 -0.446592 -1.99564 0
M  V30 559 H 51.9255 1.45794 -3.58919 0
M  V30 560 H 52.3395 -0.0113121 -5.24499 0
M  V30 561 H 53.8135 1.69886 -5.25207 0
M  V30 562 H 54.2905 2.37318 -3.69563 0
M  V30 563 H 54.8965 0.773307 -4.18211 0
M  V30 564 N 53.2116 1.57565 -0.0334293 0
M  V30 565 C 54.1436 2.0739 0.975811 0
M  V30 566 C 55.1566 0.998166 1.2861 0
M  V30 567 O 56.3456 1.27426 1.25 0
M  V30 568 C 53.4456 2.4871 2.30209 0
M  V30 569 C 52.6186 3.79413 2.17634 0
M  V30 570 C 51.6776 4.07237 3.33233 0
M  V30 571 O 50.7036 4.77425 3.09927 0
M  V30 572 N 51.9056 3.5775 4.5716 0
M  V30 573 H 54.6706 2.94598 0.55066 0
M  V30 574 H 52.2316 1.61173 0.15323 0
M  V30 575 H 54.2236 2.64413 3.06378 0
M  V30 576 H 52.7936 1.66845 2.64351 0
M  V30 577 H 52.0136 3.73465 1.26165 0
M  V30 578 H 53.3016 4.65038 2.0644 0
M  V30 579 H 52.6996 3.00976 4.78989 0
M  V30 580 H 51.2566 3.78724 5.30482 0
M  V30 581 N 54.6897 -0.239769 1.55765 0
M  V30 582 C 55.9387 -0.964754 1.77131 0
M  V30 583 C 56.2517 -1.86213 0.59868 0
M  V30 584 O 57.4577 -2.6244 0.695522 0
M  V30 585 C 55.9137 -1.76552 3.1362 0
M  V30 586 C 55.5217 -0.915185 4.38553 0
M  V30 587 C 57.2657 -2.48281 3.44321 0
M  V30 588 C 55.1727 -1.71225 5.66071 0
M  V30 589 H 54.1027 -0.363953 0.660344 0
M  V30 590 H 56.7537 -0.219181 1.82186 0
M  V30 591 H 55.1357 -2.55331 3.02691 0
M  V30 592 H 56.3097 -0.169217 4.60489 0
M  V30 593 H 54.6247 -0.310889 4.15238 0
M  V30 594 H 57.2217 -3.08382 4.36812 0
M  V30 595 H 57.5647 -3.20256 2.65973 0
M  V30 596 H 58.0977 -1.76507 3.56497 0
M  V30 597 H 54.8367 -1.03612 6.4726 0
M  V30 598 H 54.3567 -2.43331 5.48224 0
M  V30 599 H 56.0357 -2.27758 6.05587 0
M  V30 600 N 56.1678 -1.49265 -0.50573 0
M  V30 601 C 57.1178 -1.6198 -1.60457 0
M  V30 602 C 58.1018 -0.47568 -1.53708 0
M  V30 603 O 59.2938 -0.728392 -1.61318 0
M  V30 604 C 56.4228 -1.68526 -2.99089 0
M  V30 605 C 55.5088 -2.885 -3.10852 0
M  V30 606 N 55.8998 -4.12635 -2.92517 0
M  V30 607 C 54.1978 -2.86338 -3.41945 0
M  V30 608 C 54.8988 -4.93258 -3.08337 0
M  V30 609 N 53.8748 -4.26533 -3.37003 0
M  V30 610 H 57.6768 -2.55681 -1.44928 0
M  V30 611 H 55.1908 -1.45972 -0.711752 0
M  V30 612 H 57.1878 -1.75732 -3.78053 0
M  V30 613 H 55.8478 -0.759584 -3.1569 0
M  V30 614 H 56.8588 -4.42689 -2.68787 0
M  V30 615 H 53.5358 -2.03129 -3.64753 0
M  V30 616 H 54.9258 -6.01856 -2.98695 0
M  V30 617 N 57.6459 0.756429 -1.3826 0
M  V30 618 C 58.8739 1.54565 -1.3754 0
M  V30 619 C 59.2889 1.88767 0.0355331 0
M  V30 620 O 58.6459 1.52572 1.0014 0
M  V30 621 C 58.6969 2.84654 -2.22833 0
M  V30 622 O 58.4179 2.51912 -3.5843 0
M  V30 623 C 59.9189 3.78807 -2.30261 0
M  V30 624 H 57.1389 0.478353 -0.470553 0
M  V30 625 H 59.6829 0.936381 -1.81803 0
M  V30 626 H 57.8379 3.41965 -1.8204 0
M  V30 627 H 58.2519 3.35325 -4.03308 0
M  V30 628 H 59.7259 4.67045 -2.94233 0
M  V30 629 H 60.2029 4.19038 -1.31545 0
M  V30 630 H 60.8089 3.2742 -2.71433 0
M  V30 631 N 59.124 1.23083 0.984299 0
M  V30 632 C 60.054 1.03292 2.09411 0
M  V30 633 C 61.035 -0.048923 1.7003 0
M  V30 634 O 62.22 0.114967 1.93859 0
M  V30 635 C 59.35 0.619155 3.41736 0
M  V30 636 C 58.304 1.64791 3.95004 0
M  V30 637 C 57.63 1.0897 5.23478 0
M  V30 638 C 58.93 3.03999 4.24714 0
M  V30 639 H 60.624 1.96119 2.26225 0
M  V30 640 H 58.17 0.944344 1.08711 0
M  V30 641 H 60.123 0.467777 4.18796 0
M  V30 642 H 58.847 -0.344786 3.24775 0
M  V30 643 H 57.506 1.78721 3.20085 0
M  V30 644 H 57.154 0.11686 5.02864 0
M  V30 645 H 56.854 1.77704 5.60085 0
M  V30 646 H 58.378 0.950093 6.03163 0
M  V30 647 H 59.792 2.93393 4.92538 0
M  V30 648 H 58.189 3.69936 4.72512 0
M  V30 649 H 59.259 3.53285 3.32142 0
M  V30 650 N 60.6021 -1.18246 1.0419 0
M  V30 651 C 61.5501 -2.23968 0.627792 0
M  V30 652 C 62.5441 -1.65828 -0.346019 0
M  V30 653 O 63.7501 -1.78733 -0.213175 0
M  V30 654 H 60.1251 -0.728939 0.184802 0
M  V30 655 H 62.0961 -2.56202 1.52981 0
M  V30 656 C 60.8451 -3.47699 0.00796591 0
M  V30 657 H 60.1681 -3.92734 0.748347 0
M  V30 658 H 61.6081 -4.23294 -0.24455 0
M  V30 659 C 60.0671 -3.13153 -1.24246 0
M  V30 660 O 60.5971 -3.27003 -2.33307 0
M  V30 661 N 58.8031 -2.67467 -1.13622 0
M  V30 662 H 58.3501 -2.56396 -0.248734 0
M  V30 663 H 58.3081 -2.44724 -1.97377 0
M  V30 664 N 62.0802 -0.821533 -1.34494 0
M  V30 665 C 63.3572 -0.33159 -1.92769 0
M  V30 666 C 63.7372 1.18088 -1.74981 0
M  V30 667 O 63.0852 1.98733 -1.12772 0
M  V30 668 C 63.2952 -0.759398 -3.40638 0
M  V30 669 C 64.6432 -0.757433 -4.1779 0
M  V30 670 O 65.6672 -0.70189 -3.49216 0
M  V30 671 O 64.5262 -0.829361 -5.4017 0
M  V30 672 H 61.6202 -0.0902502 -0.822061 0
M  V30 673 H 64.1662 -0.906231 -1.43477 0
M  V30 674 H 62.9382 -1.8012 -3.47379 0
M  V30 675 H 62.5612 -0.160378 -3.97276 0
M  V30 676 N 63.5583 1.46682 -0.576371 0
M  V30 677 C 64.5053 2.30241 0.160499 0
M  V30 678 C 65.4753 1.40233 0.890162 0
M  V30 679 O 66.6603 1.69186 0.882084 0
M  V30 680 C 63.8003 3.24578 1.1723 0
M  V30 681 C 62.9133 4.29684 0.446736 0
M  V30 682 C 62.0483 5.11154 1.44551 0
M  V30 683 C 61.0873 6.08015 0.70599 0
M  V30 684 N 60.2243 6.82376 1.65251 0
M  V30 685 H 65.0643 2.92727 -0.558127 0
M  V30 686 H 62.6013 1.44272 -0.287056 0
M  V30 687 H 64.5593 3.77711 1.77172 0
M  V30 688 H 63.1893 2.63916 1.85872 0
M  V30 689 H 62.2413 3.79458 -0.267594 0
M  V30 690 H 63.5533 4.98626 -0.131686 0
M  V30 691 H 62.7073 5.68533 2.11791 0
M  V30 692 H 61.4463 4.42158 2.05786 0
M  V30 693 H 60.4513 5.49796 0.0197725 0
M  V30 694 H 61.6763 6.79028 0.09912 0
M  V30 695 H 59.6223 6.16094 2.25308 0
M  V30 696 H 59.5393 7.47556 1.12673 0
M  V30 697 H 60.8073 7.44316 2.31546 0
M  V30 698 N 65.0364 0.313813 1.54444 0
M  V30 699 C 66.2854 -0.292519 1.99568 0
M  V30 700 C 66.5984 -1.54011 1.20582 0
M  V30 701 O 67.8044 -2.22183 1.56035 0
M  V30 702 C 66.2604 -0.571752 3.55329 0
M  V30 703 C 65.8684 0.658229 4.43138 0
M  V30 704 C 67.6124 -1.13857 4.08946 0
M  V30 705 C 65.5194 0.351439 5.90355 0
M  V30 706 H 64.4494 -0.113079 0.745472 0
M  V30 707 H 67.1004 0.424518 1.78522 0
M  V30 708 H 65.4824 -1.34872 3.72325 0
M  V30 709 H 66.6564 1.43403 4.37918 0
M  V30 710 H 64.9714 1.14458 4.0036 0
M  V30 711 H 67.5684 -1.38257 5.16516 0
M  V30 712 H 67.9114 -2.08489 3.6033 0
M  V30 713 H 68.4444 -0.423015 3.95544 0
M  V30 714 H 65.1834 1.26667 6.43145 0
M  V30 715 H 64.7034 -0.386842 5.98551 0
M  V30 716 H 66.3824 -0.0423134 6.46986 0
M  V30 717 N 66.5145 -1.57545 0.0417849 0
M  V30 718 C 67.7615 -1.92317 -0.634082 0
M  V30 719 C 68.0895 -0.919334 -1.71402 0
M  V30 720 O 67.3445 0.0698253 -1.95575 0
M  V30 721 C 67.6435 -3.33794 -1.27735 0
M  V30 722 C 67.3095 -4.49716 -0.326543 0
M  V30 723 C 65.9715 -4.81156 -0.0648814 0
M  V30 724 C 68.3235 -5.20182 0.325623 0
M  V30 725 C 65.6515 -5.80414 0.856539 0
M  V30 726 C 68.0035 -6.20424 1.23518 0
M  V30 727 C 66.6675 -6.50298 1.5056 0
M  V30 728 H 65.9375 -0.703736 -0.232027 0
M  V30 729 H 68.5845 -1.91205 0.106259 0
M  V30 730 H 66.8895 -3.31228 -2.09274 0
M  V30 731 H 68.5865 -3.57975 -1.80707 0
M  V30 732 H 65.1765 -4.25176 -0.540665 0
M  V30 733 H 69.3605 -4.96112 0.136546 0
M  V30 734 H 64.6165 -6.019 1.07363 0
M  V30 735 H 68.7905 -6.74141 1.74664 0
M  V30 736 H 66.4175 -7.27025 2.22123 0
M  V30 737 N 67.9926 0.231505 -1.5589 0
M  V30 738 C 69.2176 0.978689 -1.82856 0
M  V30 739 C 69.6426 1.77559 -0.620846 0
M  V30 740 O 69.0006 1.76119 0.430305 0
M  V30 741 C 69.0486 1.87997 -3.07716 0
M  V30 742 O 68.1526 2.97393 -2.85712 0
M  V30 743 H 67.4936 0.277663 -0.603158 0
M  V30 744 H 70.0236 0.24783 -2.03093 0
M  V30 745 H 70.0336 2.2917 -3.37558 0
M  V30 746 H 68.7086 1.29417 -3.95252 0
M  V30 747 H 67.2856 2.60238 -2.67078 0
M  V30 748 N 69.4707 1.49531 0.497807 0
M  V30 749 C 70.7007 1.62657 1.27382 0
M  V30 750 C 71.1087 0.298488 1.86831 0
M  V30 751 O 70.4517 -0.72647 1.68725 0
M  V30 752 C 70.5137 2.6393 2.44093 0
M  V30 753 C 70.1777 4.08195 2.05489 0
M  V30 754 C 71.1747 4.949 1.59279 0
M  V30 755 C 68.8597 4.53948 2.15026 0
M  V30 756 C 70.8537 6.25397 1.23113 0
M  V30 757 C 68.5407 5.84458 1.78473 0
M  V30 758 C 69.5387 6.70006 1.32591 0
M  V30 759 O 69.2267 7.98083 0.965327 0
M  V30 760 H 68.9587 0.550429 0.392434 0
M  V30 761 H 71.5127 1.96325 0.603801 0
M  V30 762 H 69.7427 2.25449 3.14181 0
M  V30 763 H 71.4317 2.66552 3.06113 0
M  V30 764 H 72.1977 4.60779 1.51354 0
M  V30 765 H 68.0767 3.87525 2.4969 0
M  V30 766 H 71.6207 6.92125 0.872299 0
M  V30 767 H 67.5177 6.18107 1.86048 0
M  V30 768 H 68.2857 8.11122 1.09652 0
M  V30 769 N 70.9488 -0.749086 1.3866 0
M  V30 770 C 72.1768 -1.53834 1.38358 0
M  V30 771 C 72.5918 -1.88783 -0.0255219 0
M  V30 772 O 71.9488 -1.53101 -0.993292 0
M  V30 773 C 71.9998 -2.83468 2.2434 0
M  V30 774 O 71.7208 -2.50008 3.5976 0
M  V30 775 C 73.2218 -3.7758 2.32267 0
M  V30 776 H 70.4418 -0.47585 0.473083 0
M  V30 777 H 72.9858 -0.926726 1.82297 0
M  V30 778 H 71.1408 -3.40995 1.83851 0
M  V30 779 H 71.5548 -3.33182 4.05081 0
M  V30 780 H 73.0288 -4.65478 2.96706 0
M  V30 781 H 73.5058 -4.18334 1.33765 0
M  V30 782 H 74.1118 -3.25976 2.73166 0
M  V30 783 N 72.4269 -1.23603 -0.977757 0
M  V30 784 C 73.3369 -1.03632 -2.1047 0
M  V30 785 C 74.3529 0.0199435 -1.73989 0
M  V30 786 O 75.5289 -0.176076 -2.00629 0
M  V30 787 C 72.5939 -0.63276 -3.40877 0
M  V30 788 C 71.6549 -1.76437 -3.91367 0
M  V30 789 C 70.8879 -1.37997 -5.15551 0
M  V30 790 O 71.1109 -0.265357 -5.69782 0
M  V30 791 O 70.0449 -2.20201 -5.60174 0
M  V30 792 H 73.8709 -1.98086 -2.30208 0
M  V30 793 H 71.4559 -1.02332 -1.08851 0
M  V30 794 H 73.3379 -0.418761 -4.19314 0
M  V30 795 H 72.0129 0.282754 -3.22463 0
M  V30 796 H 70.9199 -2.03304 -3.14036 0
M  V30 797 H 72.2529 -2.6583 -4.14241 0
M  V30 798 N 73.905 1.17692 -1.04816 0
M  V30 799 C 75.13 1.92327 -0.776207 0
M  V30 800 C 75.555 1.76082 0.661581 0
M  V30 801 O 74.913 1.076 1.45917 0
M  V30 802 C 74.961 3.41539 -1.15687 0
M  V30 803 O 74.065 4.11402 -0.286775 0
M  V30 804 H 73.406 0.599735 -0.284981 0
M  V30 805 H 75.936 1.49201 -1.4 0
M  V30 806 H 75.946 3.92269 -1.12202 0
M  V30 807 H 74.621 3.52684 -2.20425 0
M  V30 808 H 73.198 3.70939 -0.381903 0
M  V30 809 N 75.3831 0.828654 1.34056 0
M  V30 810 C 76.3131 0.269443 2.3194 0
M  V30 811 C 77.2941 -0.617247 1.58506 0
M  V30 812 O 78.4791 -0.542931 1.86456 0
M  V30 813 C 75.6091 -0.564793 3.42677 0
M  V30 814 C 74.5631 0.225241 4.27407 0
M  V30 815 C 73.8891 -0.7321 5.29664 0
M  V30 816 C 75.1891 1.43663 5.02154 0
M  V30 817 H 76.8831 1.08728 2.7896 0
M  V30 818 H 74.4291 0.524283 1.34117 0
M  V30 819 H 76.3821 -0.966233 4.10173 0
M  V30 820 H 75.1061 -1.41574 2.9432 0
M  V30 821 H 73.7651 0.608117 3.61521 0
M  V30 822 H 73.4131 -1.57916 4.77568 0
M  V30 823 H 73.1131 -0.20767 5.87233 0
M  V30 824 H 74.6371 -1.13128 6.00029 0
M  V30 825 H 76.0511 1.1089 5.62473 0
M  V30 826 H 74.4481 1.89711 5.69324 0
M  V30 827 H 75.5181 2.21181 4.31517 0
M  V30 828 N 76.8612 -1.46375 0.584142 0
M  V30 829 C 77.8242 -2.28784 -0.138108 0
M  V30 830 C 78.8242 -1.38471 -0.817462 0
M  V30 831 O 80.0142 -1.60833 -0.669199 0
M  V30 832 C 77.1462 -3.18892 -1.20503 0
M  V30 833 H 78.3392 -2.94117 0.586127 0
M  V30 834 H 75.8922 -1.52509 0.342171 0
M  V30 835 H 76.6272 -2.58309 -1.96079 0
M  V30 836 H 76.4122 -3.85388 -0.722384 0
M  V30 837 H 77.9022 -3.80914 -1.71155 0
M  V30 838 N 78.3393 -0.321999 -1.54275 0
M  V30 839 C 79.5873 0.280489 -2.00144 0
M  V30 840 C 79.9083 1.52777 -1.21178 0
M  V30 841 O 79.1783 1.9338 -0.313187 0
M  V30 842 H 77.7583 0.106632 -0.73935 0
M  V30 843 H 80.4203 -0.438184 -1.8991 0
M  V30 844 H 79.5163 0.537972 -3.07428 0
M  V30 845 N 79.8174 1.5752 -0.0501392 0
M  V30 846 C 80.7644 2.1147 0.924603 0
M  V30 847 C 81.7344 1.02182 1.30951 0
M  V30 848 O 82.9194 1.29723 1.39916 0
M  V30 849 C 80.0594 2.66337 2.19451 0
M  V30 850 C 79.1724 3.89708 1.86418 0
M  V30 851 C 78.3074 4.32893 3.07859 0
M  V30 852 C 77.3464 5.48967 2.70742 0
M  V30 853 N 76.4834 5.87211 3.84874 0
M  V30 854 H 81.3234 2.94465 0.457639 0
M  V30 855 H 78.8604 1.45531 0.214266 0
M  V30 856 H 80.8184 2.96247 2.93758 0
M  V30 857 H 79.4484 1.86141 2.63726 0
M  V30 858 H 78.5004 3.66396 1.02264 0
M  V30 859 H 79.8124 4.74074 1.55096 0
M  V30 860 H 78.9664 4.6435 3.90466 0
M  V30 861 H 77.7054 3.47336 3.42358 0
M  V30 862 H 76.7104 5.17183 1.86551 0
M  V30 863 H 77.9354 6.3624 2.37436 0
M  V30 864 H 75.8814 5.04607 4.19175 0
M  V30 865 H 75.7984 6.66266 3.57247 0
M  V30 866 H 77.0664 6.23282 4.68123 0
M  V30 867 N 81.2955 -0.223234 1.56011 0
M  V30 868 C 82.7115 -0.572856 1.48965 0
M  V30 869 C 82.9115 -1.87225 0.74492 0
M  V30 870 O 81.9675 -2.50899 0.283896 0
M  V30 871 C 83.2805 -0.653646 2.9351 0
M  V30 872 C 84.8285 -0.744386 3.0402 0
M  V30 873 C 85.3035 -0.856535 4.49919 0
M  V30 874 N 86.7945 -0.9208 4.53955 0
M  V30 875 C 87.5295 -1.02726 5.64123 0
M  V30 876 N 87.0255 -1.09777 6.84047 0
M  V30 877 N 88.8185 -1.06226 5.51971 0
M  V30 878 H 80.9695 0.629462 2.02858 0
M  V30 879 H 83.2325 0.220621 0.921971 0
M  V30 880 H 82.9385 0.231518 3.50937 0
M  V30 881 H 82.8125 -1.51781 3.45315 0
M  V30 882 H 85.1995 -1.61999 2.46658 0
M  V30 883 H 85.2805 0.14541 2.55386 0
M  V30 884 H 84.9245 0.0146069 5.07898 0
M  V30 885 H 84.8545 -1.76172 4.96257 0
M  V30 886 H 87.3455 -0.876694 3.6759 0
M  V30 887 H 87.6585 -1.17872 7.63758 0
M  V30 888 H 86.0035 -1.06693 6.86762 0
M  V30 889 H 89.1945 -1.00382 4.5721 0
M  V30 890 H 89.3675 -1.14177 6.37862 0
M  V30 891 N 82.7736 -1.49793 -0.48987 0
M  V30 892 C 83.6836 -1.70036 -1.61632 0
M  V30 893 C 84.6996 -0.583102 -1.63939 0
M  V30 894 O 85.8756 -0.859169 -1.82154 0
M  V30 895 C 82.9406 -1.77277 -2.97949 0
M  V30 896 C 82.0016 -3.00918 -3.06181 0
M  V30 897 C 81.2346 -3.07804 -4.35996 0
M  V30 898 O 81.4576 -2.21982 -5.25433 0
M  V30 899 O 80.3916 -4.00369 -4.49431 0
M  V30 900 H 84.2176 -2.65486 -1.47482 0
M  V30 901 H 81.8026 -1.33666 -0.667362 0
M  V30 902 H 83.6846 -1.84329 -3.78947 0
M  V30 903 H 82.3596 -0.850076 -3.12339 0
M  V30 904 H 81.2666 -2.99377 -2.2433 0
M  V30 905 H 82.5996 -3.92704 -2.96723 0
M  V30 906 N 84.2517 0.741722 -1.39055 0
M  V30 907 C 85.1847 1.86416 -1.31622 0
M  V30 908 C 86.1627 1.61473 -0.191076 0
M  V30 909 O 87.3467 1.84825 -0.370399 0
M  V30 910 C 84.4737 3.22266 -1.04221 0
M  V30 911 C 83.5197 3.66079 -2.18834 0
M  V30 912 S 84.3527 3.7623 -3.81066 0
M  V30 913 C 85.5087 5.14881 -3.55877 0
M  V30 914 H 85.7417 1.92437 -2.26617 0
M  V30 915 H 83.2747 0.905907 -1.25031 0
M  V30 916 H 85.2327 4.00714 -0.890964 0
M  V30 917 H 83.8937 3.1391 -0.109237 0
M  V30 918 H 83.0867 4.64648 -1.95238 0
M  V30 919 H 82.6887 2.94817 -2.30128 0
M  V30 920 H 84.9807 6.01006 -3.12726 0
M  V30 921 H 85.9237 5.43503 -4.53884 0
M  V30 922 H 86.3317 4.84239 -2.90126 0
M  V30 923 N 85.7298 1.2412 0.971189 0
M  V30 924 C 86.6928 1.03156 2.04674 0
M  V30 925 C 87.6928 -0.00990322 1.60797 0
M  V30 926 O 88.8828 0.230729 1.72665 0
M  V30 927 C 86.0148 0.562765 3.36223 0
M  V30 928 H 87.2078 1.98614 2.24705 0
M  V30 929 H 84.7608 1.06293 1.14593 0
M  V30 930 H 85.4958 -0.395176 3.21883 0
M  V30 931 H 85.2808 1.31441 3.69413 0
M  V30 932 H 86.7708 0.437015 4.15307 0
M  V30 933 N 87.2079 -1.17134 1.05439 0
M  V30 934 C 88.4569 -1.86791 0.761049 0
M  V30 935 C 88.7699 -1.82072 -0.714795 0
M  V30 936 O 89.9759 -2.47223 -1.12218 0
M  V30 937 C 88.4319 -3.35166 1.31117 0
M  V30 938 C 88.0399 -3.48381 2.81664 0
M  V30 939 C 89.7839 -4.10134 1.09499 0
M  V30 940 C 87.6909 -4.90793 3.29964 0
M  V30 941 H 86.6209 -0.699681 0.281002 0
M  V30 942 H 89.2719 -1.3226 1.27199 0
M  V30 943 H 87.6539 -3.8925 0.72803 0
M  V30 944 H 88.8279 -3.04502 3.45855 0
M  V30 945 H 87.1429 -2.86836 3.01851 0
M  V30 946 H 89.7399 -5.152 1.43084 0
M  V30 947 H 90.0829 -4.16287 0.0328772 0
M  V30 948 H 90.6159 -3.62264 1.64346 0
M  V30 949 H 87.3549 -4.89816 4.35616 0
M  V30 950 H 86.8749 -5.35333 2.70516 0
M  V30 951 H 88.5539 -5.59573 3.24787 0
M  V30 952 N 88.686 -0.835752 -1.33615 0
M  V30 953 C 89.935 -0.426289 -1.97144 0
M  V30 954 C 90.248 1.01912 -1.66953 0
M  V30 955 O 91.454 1.53311 -2.24072 0
M  V30 956 C 89.91 -0.711321 -3.52801 0
M  V30 957 C 89.518 -2.1712 -3.91871 0
M  V30 958 C 91.262 -0.368654 -4.22896 0
M  V30 959 C 89.169 -2.40044 -5.40493 0
M  V30 960 H 88.099 -0.15567 -0.737755 0
M  V30 961 H 90.75 -1.0239 -1.52278 0
M  V30 962 H 89.132 -0.0433766 -3.95976 0
M  V30 963 H 90.306 -2.87936 -3.59763 0
M  V30 964 H 88.621 -2.47654 -3.34749 0
M  V30 965 H 91.218 -0.517601 -5.32189 0
M  V30 966 H 91.561 0.688078 -4.10574 0
M  V30 967 H 92.094 -0.991702 -3.8524 0
M  V30 968 H 88.833 -3.44271 -5.57815 0
M  V30 969 H 88.353 -1.73785 -5.74072 0
M  V30 970 H 90.032 -2.23042 -6.0734 0
M  V30 971 N 90.1641 1.46063 -0.591896 0
M  V30 972 C 91.3921 2.06717 -0.0868936 0
M  V30 973 C 91.8071 1.43916 1.22203 0
M  V30 974 O 91.1641 0.547698 1.74088 0
M  V30 975 C 91.2151 3.6142 0.0758725 0
M  V30 976 O 90.9361 4.21874 -1.18126 0
M  V30 977 C 92.4371 4.39025 0.61416 0
M  V30 978 H 89.6571 0.668162 -0.0616518 0
M  V30 979 H 92.2011 1.8755 -0.815175 0
M  V30 980 H 90.3561 3.79983 0.754413 0
M  V30 981 H 90.7701 5.14861 -1.00092 0
M  V30 982 H 92.2441 5.4783 0.677193 0
M  V30 983 H 92.7211 4.07708 1.63312 0
M  V30 984 H 93.3271 4.2529 -0.0298142 0
M  V30 985 N 91.6422 0.330177 1.54103 0
M  V30 986 C 92.8892 -0.270405 2.00686 0
M  V30 987 C 93.2172 -1.51621 1.21825 0
M  V30 988 O 92.4722 -1.93536 0.29025 0
M  V30 989 C 92.7712 -0.643134 3.51566 0
M  V30 990 C 92.4372 0.504251 4.48072 0
M  V30 991 C 91.0992 0.819163 4.74176 0
M  V30 992 C 93.4512 1.27465 5.05373 0
M  V30 993 C 90.7792 1.90708 5.5484 0
M  V30 994 C 93.1312 2.35271 5.87223 0
M  V30 995 C 91.7952 2.67336 6.11627 0
M  V30 996 H 91.0652 -0.0989482 0.734364 0
M  V30 997 H 93.7122 0.455324 1.86008 0
M  V30 998 H 92.0172 -1.44938 3.64006 0
M  V30 999 H 93.7142 -1.11949 3.85056 0
M  V30 1000 H 90.3042 0.248733 4.27878 0
M  V30 1001 H 94.4882 1.04462 4.85182 0
M  V30 1002 H 89.7442 2.15991 5.71977 0
M  V30 1003 H 93.9182 2.95405 6.30641 0
M  V30 1004 H 91.5452 3.51763 6.73919 0
M  V30 1005 N 93.1203 -1.57491 0.0584922 0
M  V30 1006 C 94.0673 -2.11958 -0.913376 0
M  V30 1007 C 95.0373 -1.02875 -1.30407 0
M  V30 1008 O 96.2223 -1.30464 -1.39226 0
M  V30 1009 C 93.3623 -2.67497 -2.18035 0
M  V30 1010 C 92.4753 -3.90691 -1.84349 0
M  V30 1011 C 91.6103 -4.3452 -3.05559 0
M  V30 1012 C 90.6493 -5.50395 -2.67827 0
M  V30 1013 N 89.7863 -5.89244 -3.81754 0
M  V30 1014 H 94.6263 -2.94704 -0.442017 0
M  V30 1015 H 92.1633 -1.45643 -0.206545 0
M  V30 1016 H 94.1213 -2.978 -2.92183 0
M  V30 1017 H 92.7513 -1.87537 -2.62735 0
M  V30 1018 H 91.8033 -3.66934 -1.00319 0
M  V30 1019 H 93.1153 -4.7489 -1.5258 0
M  V30 1020 H 92.2693 -4.66414 -3.87998 0
M  V30 1021 H 91.0083 -3.49147 -3.40511 0
M  V30 1022 H 90.0133 -5.18165 -1.83806 0
M  V30 1023 H 91.2383 -6.3749 -2.34059 0
M  V30 1024 H 89.1843 -5.06823 -4.16493 0
M  V30 1025 H 89.1013 -6.68151 -3.53708 0
M  V30 1026 H 90.3693 -6.25756 -4.64811 0
M  V30 1027 N 94.5984 0.214957 -1.56127 0
M  V30 1028 C 95.5464 1.28601 -1.93816 0
M  V30 1029 C 96.5404 1.48175 -0.821016 0
M  V30 1030 O 97.7464 1.49271 -1.0059 0
M  V30 1031 H 94.1214 0.431302 -0.616022 0
M  V30 1032 H 96.0924 0.940991 -2.83175 0
M  V30 1033 C 94.8414 2.62779 -2.27689 0
M  V30 1034 H 94.1644 2.48527 -3.13168 0
M  V30 1035 H 95.6044 3.36517 -2.57939 0
M  V30 1036 C 94.0634 3.18285 -1.10436 0
M  V30 1037 O 94.5934 4.00002 -0.368945 0
M  V30 1038 N 92.7994 2.7675 -0.886433 0
M  V30 1039 H 92.3464 2.10404 -1.48619 0
M  V30 1040 H 92.3044 3.14229 -0.103656 0
M  V30 1041 N 96.0765 1.50051 0.48192 0
M  V30 1042 C 97.3245 1.60181 1.23234 0
M  V30 1043 C 97.6455 0.299176 1.92691 0
M  V30 1044 O 96.9155 -0.682708 1.83619 0
M  V30 1045 H 95.4955 0.590232 0.457859 0
M  V30 1046 H 98.1575 1.86775 0.556881 0
M  V30 1047 H 97.2535 2.40753 1.98607 0
M  V30 1048 N 97.5546 -0.734337 1.39446 0
M  V30 1049 C 98.5176 -1.83004 1.37994 0
M  V30 1050 C 99.5176 -1.58397 0.276938 0
M  V30 1051 O 100.708 -1.65785 0.534875 0
M  V30 1052 C 97.8396 -3.20802 1.1532 0
M  V30 1053 H 99.0326 -1.85694 2.35494 0
M  V30 1054 H 96.5856 -0.938059 1.25021 0
M  V30 1055 H 97.3206 -3.23772 0.185036 0
M  V30 1056 H 97.1056 -3.4006 1.95197 0
M  V30 1057 H 98.5956 -4.00862 1.17046 0
M  V30 1058 N 99.0327 -1.24633 -0.964593 0
M  V30 1059 C 100.261 -1.11501 -1.74285 0
M  V30 1060 C 100.676 0.332165 -1.85855 0
M  V30 1061 O 100.033 1.22903 -1.34911 0
M  V30 1062 C 100.084 -1.75258 -3.16175 0
M  V30 1063 O 99.8047 -3.14318 -3.05182 0
M  V30 1064 C 101.306 -1.67776 -4.10324 0
M  V30 1065 H 98.5257 -0.389407 -0.546446 0
M  V30 1066 H 101.07 -1.64801 -1.21083 0
M  V30 1067 H 99.2247 -1.25954 -3.66353 0
M  V30 1068 H 99.6387 -3.4551 -3.94618 0
M  V30 1069 H 101.113 -2.17064 -5.0753 0
M  V30 1070 H 101.59 -0.639584 -4.34518 0
M  V30 1071 H 102.196 -2.16522 -3.66058 0
M  V30 1072 N 100.511 1.16574 -1.06058 0
M  V30 1073 C 101.758 1.87047 -0.775873 0
M  V30 1074 C 102.086 1.81562 0.697534 0
M  V30 1075 O 101.341 1.22445 1.52662 0
M  V30 1076 C 101.64 3.36195 -1.21275 0
M  V30 1077 C 101.306 3.6188 -2.68986 0
M  V30 1078 C 99.9678 3.68599 -3.09335 0
M  V30 1079 C 102.32 3.72648 -3.64394 0
M  V30 1080 C 99.6478 3.83584 -4.43937 0
M  V30 1081 C 102 3.89154 -4.98741 0
M  V30 1082 C 100.664 3.94114 -5.3873 0
M  V30 1083 H 99.9338 0.684452 -0.283912 0
M  V30 1084 H 102.581 1.37853 -1.32925 0
M  V30 1085 H 100.886 3.87505 -0.578528 0
M  V30 1086 H 102.583 3.89103 -0.969542 0
M  V30 1087 H 99.1728 3.57281 -2.36744 0
M  V30 1088 H 103.357 3.66769 -3.34356 0
M  V30 1089 H 98.6128 3.85677 -4.74409 0
M  V30 1090 H 102.787 3.96427 -5.72554 0
M  V30 1091 H 100.414 4.05478 -6.43033 0
M  V30 1092 N 101.989 0.842826 1.3317 0
M  V30 1093 C 102.921 0.236245 2.27979 0
M  V30 1094 C 103.934 -0.585282 1.51915 0
M  V30 1095 O 105.123 -0.411705 1.73687 0
M  V30 1096 C 102.223 -0.685717 3.3189 0
M  V30 1097 C 101.396 0.0973448 4.37292 0
M  V30 1098 C 100.455 -0.748565 5.20848 0
M  V30 1099 O 99.4809 -0.186339 5.68895 0
M  V30 1100 N 100.683 -2.06527 5.42519 0
M  V30 1101 H 103.448 1.05088 2.80672 0
M  V30 1102 H 101.009 0.701667 1.45905 0
M  V30 1103 H 103.001 -1.25669 3.84694 0
M  V30 1104 H 101.571 -1.40105 2.79445 0
M  V30 1105 H 100.791 0.849706 3.84933 0
M  V30 1106 H 102.079 0.635643 5.04814 0
M  V30 1107 H 101.477 -2.54554 5.05192 0
M  V30 1108 H 100.034 -2.58464 5.98364 0
M  V30 1109 N 103.467 -1.45747 0.599634 0
M  V30 1110 C 104.713 -2.02592 0.0918643 0
M  V30 1111 C 105.046 -1.46806 -1.27128 0
M  V30 1112 O 104.321 -0.639658 -1.83681 0
M  V30 1113 C 104.604 -3.60073 0.0443398 0
M  V30 1114 C 104.457 -4.26208 1.43759 0
M  V30 1115 C 105.776 -4.35309 -0.647608 0
M  V30 1116 H 102.895 -0.736175 0.034857 0
M  V30 1117 H 105.537 -1.73694 0.770081 0
M  V30 1118 H 103.687 -3.84823 -0.533224 0
M  V30 1119 H 105.359 -4.12668 2.06162 0
M  V30 1120 H 103.602 -3.84916 2.00056 0
M  V30 1121 H 104.273 -5.35069 1.35665 0
M  V30 1122 H 106.749 -4.15805 -0.156776 0
M  V30 1123 H 105.625 -5.45038 -0.649942 0
M  V30 1124 H 105.886 -4.07598 -1.71219 0
M  V30 1125 N 104.945 -0.338344 -1.53925 0
M  V30 1126 C 105.855 0.529421 -2.28548 0
M  V30 1127 C 106.871 1.11645 -1.3346 0
M  V30 1128 O 108.047 1.13325 -1.66492 0
M  V30 1129 C 105.112 1.66713 -3.03987 0
M  V30 1130 C 104.173 1.11041 -4.14691 0
M  V30 1131 C 103.406 2.19389 -4.86522 0
M  V30 1132 O 103.629 3.40013 -4.57982 0
M  V30 1133 O 102.563 1.83976 -5.73094 0
M  V30 1134 H 106.389 -0.0770399 -3.03602 0
M  V30 1135 H 103.974 -0.103555 -1.49041 0
M  V30 1136 H 105.856 2.32918 -3.5118 0
M  V30 1137 H 104.531 2.25949 -2.31794 0
M  V30 1138 H 103.438 0.413024 -3.71813 0
M  V30 1139 H 104.771 0.562975 -4.8897 0
M  V30 1140 N 106.423 1.57458 -0.0668435 0
M  V30 1141 C 107.669 1.93587 0.6043 0
M  V30 1142 C 108.002 0.946722 1.69561 0
M  V30 1143 O 107.277 -0.0248516 1.94484 0
M  V30 1144 C 107.56 3.40014 1.18585 0
M  V30 1145 C 107.413 4.49685 0.101529 0
M  V30 1146 C 108.732 3.87154 2.09284 0
M  V30 1147 H 105.851 0.703958 0.218202 0
M  V30 1148 H 108.493 1.89542 -0.131804 0
M  V30 1149 H 106.643 3.43592 1.81319 0
M  V30 1150 H 108.315 4.5823 -0.531279 0
M  V30 1151 H 106.558 4.30059 -0.568487 0
M  V30 1152 H 107.229 5.49266 0.54874 0
M  V30 1153 H 109.705 3.85551 1.56491 0
M  V30 1154 H 108.581 4.90231 2.46911 0
M  V30 1155 H 108.842 3.2481 2.99918 0
M  V30 1156 N 107.901 -0.206675 1.56239 0
M  V30 1157 C 109.312 -0.772383 1.69974 0
M  V30 1158 C 109.663 -1.84353 0.671436 0
M  V30 1159 O 108.788 -2.15695 -0.174491 0
M  V30 1160 C 109.383 -1.40779 3.08167 0
M  V30 1161 C 107.942 -1.92072 3.23706 0
M  V30 1162 C 107.089 -0.786347 2.65917 0
M  V30 1163 H 110.04 0.0182223 1.5869 0
M  V30 1164 H 110.061 -2.27696 3.04852 0
M  V30 1165 H 109.573 -0.627958 3.82986 0
M  V30 1166 H 107.674 -2.7281 2.53782 0
M  V30 1167 H 107.787 -2.09046 4.31087 0
M  V30 1168 H 106.151 -1.1976 2.24788 0
M  V30 1169 H 106.934 -0.0189416 3.43295 0
M  V30 1170 N 109.379 -1.50304 -0.473955 0
M  V30 1171 C 110.627 -1.60832 -1.22382 0
M  V30 1172 C 110.948 -0.30939 -1.9253 0
M  V30 1173 O 110.218 0.67296 -1.83978 0
M  V30 1174 H 108.798 -0.592652 -0.454723 0
M  V30 1175 H 111.46 -1.87068 -0.546968 0
M  V30 1176 H 110.556 -2.41803 -1.97327 0
M  V30 1177 N 110.857 0.726932 -1.39834 0
M  V30 1178 C 112.082 1.52121 -1.40976 0
M  V30 1179 C 112.507 1.88098 -0.00826029 0
M  V30 1180 O 111.865 1.52479 0.980807 0
M  V30 1181 C 111.913 2.78021 -2.29644 0
M  V30 1182 O 111.017 3.74272 -1.73188 0
M  V30 1183 H 110.358 0.45908 -0.479731 0
M  V30 1184 H 112.888 0.896207 -1.83927 0
M  V30 1185 H 112.898 3.26671 -2.44438 0
M  V30 1186 H 111.573 2.51169 -3.31492 0
M  V30 1187 H 110.15 3.33073 -1.6768 0
M  V30 1188 N 112.336 1.25143 0.95797 0
M  V30 1189 C 113.268 1.01023 2.05735 0
M  V30 1190 C 114.281 -0.0236902 1.62783 0
M  V30 1191 O 115.47 0.21448 1.77207 0
M  V30 1192 C 112.57 0.504595 3.35122 0
M  V30 1193 C 111.743 1.6039 4.06932 0
M  V30 1194 C 110.802 1.09922 5.14591 0
M  V30 1195 O 109.828 1.79293 5.40225 0
M  V30 1196 N 111.03 -0.0612545 5.80468 0
M  V30 1197 H 113.795 1.95683 2.26998 0
M  V30 1198 H 111.356 1.16303 1.12629 0
M  V30 1199 H 113.348 0.151516 4.04416 0
M  V30 1200 H 111.918 -0.347989 3.10657 0
M  V30 1201 H 111.138 2.12872 3.31782 0
M  V30 1202 H 112.426 2.34252 4.51667 0
M  V30 1203 H 111.824 -0.640985 5.62057 0
M  V30 1204 H 110.381 -0.355395 6.5083 0
M  V30 1205 N 113.814 -1.1601 1.06675 0
M  V30 1206 C 114.764 -2.18512 0.650888 0
M  V30 1207 C 115.748 -1.57677 -0.320441 0
M  V30 1208 O 116.94 -1.76482 -0.135266 0
M  V30 1209 C 114.069 -3.43273 0.0429255 0
M  V30 1210 C 113.155 -4.11176 1.03898 0
M  V30 1211 N 113.546 -4.54672 2.216 0
M  V30 1212 C 111.844 -4.37417 0.870779 0
M  V30 1213 C 112.545 -5.07248 2.84736 0
M  V30 1214 N 111.521 -5.0037 2.12441 0
M  V30 1215 H 115.323 -2.49863 1.54745 0
M  V30 1216 H 112.837 -1.32503 0.938975 0
M  V30 1217 H 114.834 -4.16006 -0.272857 0
M  V30 1218 H 113.494 -3.13408 -0.84884 0
M  V30 1219 H 114.505 -4.4828 2.59356 0
M  V30 1220 H 111.182 -4.17488 0.0313293 0
M  V30 1221 H 112.572 -5.50912 3.84636 0
M  V30 1222 N 115.292 -0.849877 -1.32721 0
M  V30 1223 C 116.541 -0.447175 -1.96681 0
M  V30 1224 C 116.854 1.00135 -1.68025 0
M  V30 1225 O 118.06 1.50926 -2.25685 0
M  V30 1226 C 116.516 -0.7487 -3.52026 0
M  V30 1227 C 116.124 -2.21264 -3.89546 0
M  V30 1228 C 117.868 -0.413487 -4.22481 0
M  V30 1229 C 115.775 -2.45763 -5.37917 0
M  V30 1230 H 114.705 -0.163486 -0.736063 0
M  V30 1231 H 117.356 -1.03999 -1.51183 0
M  V30 1232 H 115.738 -0.0853727 -3.95908 0
M  V30 1233 H 116.912 -2.91736 -3.56689 0
M  V30 1234 H 115.227 -2.5119 -3.32103 0
M  V30 1235 H 117.824 -0.574017 -5.3161 0
M  V30 1236 H 118.167 0.644492 -4.11281 0
M  V30 1237 H 118.7 -1.03251 -3.84167 0
M  V30 1238 H 115.439 -3.50168 -5.54132 0
M  V30 1239 H 114.959 -1.79864 -5.72197 0
M  V30 1240 H 116.638 -2.29471 -6.0494 0
M  V30 1241 N 116.77 1.45427 -0.607355 0
M  V30 1242 C 118.047 1.9557 -0.0344566 0
M  V30 1243 C 118.427 1.54979 1.43334 0
M  V30 1244 O 117.775 0.812241 2.13576 0
M  V30 1245 C 117.985 3.48226 -0.232321 0
M  V30 1246 C 119.333 4.2445 -0.113001 0
M  V30 1247 O 120.357 3.55829 -0.162431 0
M  V30 1248 O 119.216 5.465 0.00209442 0
M  V30 1249 H 116.31 0.826222 0.0358667 0
M  V30 1250 H 118.856 1.55594 -0.6774 0
M  V30 1251 H 117.628 3.70739 -1.25174 0
M  V30 1252 H 117.251 3.95092 0.445896 0
M  V30 1253 N 118.248 0.346503 1.53744 0
M  V30 1254 C 119.473 -0.253074 2.0585 0
M  V30 1255 C 119.898 -1.43202 1.21962 0
M  V30 1256 O 119.256 -1.79783 0.234073 0
M  V30 1257 C 119.304 -0.643193 3.54817 0
M  V30 1258 O 118.408 -1.74286 3.73762 0
M  V30 1259 H 117.749 -0.0413583 0.662711 0
M  V30 1260 H 120.279 0.501574 1.98357 0
M  V30 1261 H 120.289 -0.919526 3.97503 0
M  V30 1262 H 118.964 0.218966 4.15323 0
M  V30 1263 H 117.541 -1.46356 3.42979 0
M  V30 1264 N 119.726 -1.57421 0.075193 0
M  V30 1265 C 120.658 -2.09904 -0.920483 0
M  V30 1266 C 121.671 -1.03191 -1.25918 0
M  V30 1267 O 122.86 -1.30695 -1.21577 0
M  V30 1268 C 119.96 -2.54726 -2.23534 0
M  V30 1269 C 119.133 -3.8505 -2.07498 0
M  V30 1270 C 118.192 -4.15929 -3.22319 0
M  V30 1271 O 117.218 -4.85474 -2.9716 0
M  V30 1272 N 118.42 -3.69745 -4.47514 0
M  V30 1273 H 121.185 -2.95954 -0.472359 0
M  V30 1274 H 118.746 -1.61523 -0.110444 0
M  V30 1275 H 120.738 -2.72443 -2.9926 0
M  V30 1276 H 119.308 -1.73795 -2.59835 0
M  V30 1277 H 118.528 -3.76679 -1.16219 0
M  V30 1278 H 119.816 -4.70348 -1.94038 0
M  V30 1279 H 119.214 -3.13569 -4.7084 0
M  V30 1280 H 117.771 -3.92655 -5.20255 0
M  V30 1281 N 121.204 0.198386 -1.56346 0
M  V30 1282 C 122.151 1.24589 -1.94284 0
M  V30 1283 C 123.121 1.454 -0.802997 0
M  V30 1284 O 124.306 1.58588 -1.06087 0
M  V30 1285 C 121.446 2.58631 -2.28482 0
M  V30 1286 C 120.559 2.45426 -3.55514 0
M  V30 1287 C 119.694 3.7215 -3.79049 0
M  V30 1288 C 118.733 3.53763 -4.99518 0
M  V30 1289 N 117.87 4.72491 -5.19323 0
M  V30 1290 H 122.71 0.915356 -2.83593 0
M  V30 1291 H 120.247 0.440629 -1.40346 0
M  V30 1292 H 122.205 3.3672 -2.46324 0
M  V30 1293 H 120.835 2.89734 -1.42317 0
M  V30 1294 H 119.887 1.58652 -3.45737 0
M  V30 1295 H 121.199 2.27772 -4.43758 0
M  V30 1296 H 120.353 4.58679 -3.97113 0
M  V30 1297 H 119.092 3.92754 -2.89129 0
M  V30 1298 H 118.097 2.65619 -4.8138 0
M  V30 1299 H 119.322 3.34607 -5.90944 0
M  V30 1300 H 117.268 4.93365 -4.3235 0
M  V30 1301 H 117.185 4.5765 -6.01741 0
M  V30 1302 H 118.453 5.6038 -5.41843 0
M  V30 1303 N 122.682 1.50554 0.465978 0
M  V30 1304 C 123.629 1.6979 1.56333 0
M  V30 1305 C 124.599 0.539239 1.57103 0
M  V30 1306 O 125.784 0.770401 1.74555 0
M  V30 1307 C 122.924 1.80273 2.94271 0
M  V30 1308 C 122.037 3.07674 3.0325 0
M  V30 1309 C 121.172 3.08922 4.32135 0
M  V30 1310 C 120.211 4.30755 4.34875 0
M  V30 1311 N 119.348 4.29714 5.55239 0
M  V30 1312 H 124.188 2.63472 1.39235 0
M  V30 1313 H 121.725 1.30602 0.676873 0
M  V30 1314 H 123.683 1.84332 3.74269 0
M  V30 1315 H 122.313 0.900258 3.09992 0
M  V30 1316 H 121.365 3.13062 2.16094 0
M  V30 1317 H 122.677 3.97642 3.01135 0
M  V30 1318 H 121.831 3.11738 5.20485 0
M  V30 1319 H 120.57 2.16792 4.36866 0
M  V30 1320 H 119.575 4.28146 3.44922 0
M  V30 1321 H 120.8 5.24117 4.31831 0
M  V30 1322 H 118.746 3.4044 5.60746 0
M  V30 1323 H 118.663 5.13456 5.54886 0
M  V30 1324 H 119.931 4.36683 6.457 0
M  V30 1325 N 124.16 -0.719506 1.40217 0
M  V30 1326 C 125.123 -1.8153 1.39927 0
M  V30 1327 C 126.123 -1.58095 0.293723 0
M  V30 1328 O 127.313 -1.65209 0.552429 0
M  V30 1329 C 124.445 -3.19561 1.18716 0
M  V30 1330 H 125.638 -1.83186 2.37451 0
M  V30 1331 H 123.191 -0.924746 1.26008 0
M  V30 1332 H 123.926 -3.23557 0.219366 0
M  V30 1333 H 123.711 -3.3797 1.98793 0
M  V30 1334 H 125.201 -3.99598 1.21291 0
M  V30 1335 N 125.638 -1.25649 -0.95132 0
M  V30 1336 C 126.887 -1.09988 -1.69073 0
M  V30 1337 C 127.2 0.358355 -1.92289 0
M  V30 1338 O 128.406 0.635466 -2.63958 0
M  V30 1339 C 126.862 -1.92012 -3.044 0
M  V30 1340 C 126.47 -3.42347 -2.88968 0
M  V30 1341 C 128.214 -1.8493 -3.82101 0
M  V30 1342 C 126.121 -4.16655 -4.19705 0
M  V30 1343 H 125.051 -0.407993 -0.63408 0
M  V30 1344 H 127.702 -1.49873 -1.05879 0
M  V30 1345 H 126.084 -1.44952 -3.68517 0
M  V30 1346 H 127.258 -3.97104 -2.33762 0
M  V30 1347 H 125.573 -3.50557 -2.24719 0
M  V30 1348 H 128.17 -2.37739 -4.78941 0
M  V30 1349 H 128.513 -0.817883 -4.08187 0
M  V30 1350 H 129.046 -2.29758 -3.2474 0
M  V30 1351 H 125.785 -5.20224 -3.98807 0
M  V30 1352 H 125.305 -3.66681 -4.74663 0
M  V30 1353 H 126.984 -4.24551 -4.88227 0
M  V30 1354 N 127.117 1.15442 -1.07289 0
M  V30 1355 C 128.027 2.23786 -0.704057 0
M  V30 1356 C 129.043 1.7166 0.284413 0
M  V30 1357 O 130.219 2.00972 0.131205 0
M  V30 1358 C 127.284 3.46535 -0.106792 0
M  V30 1359 C 126.345 4.13654 -1.14842 0
M  V30 1360 C 125.578 5.30544 -0.57956 0
M  V30 1361 O 125.801 5.67187 0.604585 0
M  V30 1362 O 124.735 5.87154 -1.32414 0
M  V30 1363 H 128.561 2.57664 -1.60757 0
M  V30 1364 H 126.146 1.23152 -0.845803 0
M  V30 1365 H 128.028 4.20804 0.224048 0
M  V30 1366 H 126.703 3.14407 0.770049 0
M  V30 1367 H 125.61 3.4131 -1.5316 0
M  V30 1368 H 126.943 4.49861 -1.99714 0
M  V30 1369 N 128.595 0.856903 1.32268 0
M  V30 1370 C 130.011 0.547061 1.49931 0
M  V30 1371 C 130.211 -0.921781 1.7918 0
M  V30 1372 O 129.267 -1.70469 1.8627 0
M  V30 1373 C 130.58 1.43599 2.64196 0
M  V30 1374 C 132.128 1.43665 2.78081 0
M  V30 1375 C 132.603 2.31085 3.95428 0
M  V30 1376 N 134.094 2.28893 4.02694 0
M  V30 1377 C 134.829 2.93262 4.92732 0
M  V30 1378 N 134.325 3.66751 5.87763 0
M  V30 1379 N 136.118 2.82638 4.85873 0
M  V30 1380 H 128.269 1.8075 1.11549 0
M  V30 1381 H 130.532 0.772144 0.549997 0
M  V30 1382 H 130.238 2.48058 2.49319 0
M  V30 1383 H 130.112 1.12502 3.60032 0
M  V30 1384 H 132.499 0.399701 2.92381 0
M  V30 1385 H 132.58 1.7878 1.82952 0
M  V30 1386 H 132.224 3.34849 3.81888 0
M  V30 1387 H 132.154 1.93302 4.89839 0
M  V30 1388 H 134.645 1.75466 3.34694 0
M  V30 1389 H 134.958 4.13027 6.53168 0
M  V30 1390 H 133.303 3.70859 5.87783 0
M  V30 1391 H 136.494 2.24774 4.10602 0
M  V30 1392 H 136.667 3.33084 5.55841 0
M  V30 1393 N 130.073 -1.45103 0.615059 0
M  V30 1394 C 131.006 -2.27717 -0.148408 0
M  V30 1395 C 131.984 -1.37584 -0.866572 0
M  V30 1396 O 133.168 -1.67017 -0.87393 0
M  V30 1397 C 130.295 -3.16136 -1.21557 0
M  V30 1398 C 129.341 -4.22263 -0.599712 0
M  V30 1399 S 130.174 -5.3215 0.598081 0
M  V30 1400 C 131.33 -6.24137 -0.469484 0
M  V30 1401 H 131.563 -2.92121 0.552483 0
M  V30 1402 H 129.096 -1.49054 0.402778 0
M  V30 1403 H 131.054 -3.67633 -1.82638 0
M  V30 1404 H 129.715 -2.50982 -1.88857 0
M  V30 1405 H 128.908 -4.84081 -1.4029 0
M  V30 1406 H 128.51 -3.73945 -0.063876 0
M  V30 1407 H 130.802 -6.63984 -1.34652 0
M  V30 1408 H 131.745 -7.0801 0.112725 0
M  V30 1409 H 132.153 -5.58971 -0.788168 0
M  V30 1410 N 131.551 -0.354651 -1.53558 0
M  V30 1411 C 132.498 0.496968 -2.25386 0
M  V30 1412 C 133.468 1.0865 -1.25636 0
M  V30 1413 O 134.653 1.12104 -1.54394 0
M  V30 1414 C 131.793 1.63637 -3.03837 0
M  V30 1415 C 130.906 1.07307 -4.18461 0
M  V30 1416 C 130.041 2.18068 -4.84376 0
M  V30 1417 C 129.08 1.59147 -5.91049 0
M  V30 1418 N 128.217 2.63695 -6.50699 0
M  V30 1419 H 133.057 -0.122075 -2.9775 0
M  V30 1420 H 130.594 -0.0720154 -1.46924 0
M  V30 1421 H 132.552 2.30734 -3.47589 0
M  V30 1422 H 131.182 2.22623 -2.33749 0
M  V30 1423 H 130.234 0.292708 -3.79272 0
M  V30 1424 H 131.546 0.602193 -4.95152 0
M  V30 1425 H 130.7 2.93007 -5.31255 0
M  V30 1426 H 129.439 2.68504 -4.07133 0
M  V30 1427 H 128.444 0.827175 -5.43542 0
M  V30 1428 H 129.669 1.09549 -6.70206 0
M  V30 1429 H 127.615 3.13365 -5.76315 0
M  V30 1430 H 127.532 2.21263 -7.22896 0
M  V30 1431 H 128.8 3.3837 -7.02229 0
M  V30 1432 N 133.029 1.57378 -0.0835403 0
M  V30 1433 C 134.306 1.85363 0.624507 0
M  V30 1434 C 134.686 0.978239 1.87066 0
M  V30 1435 O 134.034 0.0475908 2.2845 0
M  V30 1436 C 134.244 3.35795 0.950947 0
M  V30 1437 C 135.592 4.03581 1.31939 0
M  V30 1438 O 136.616 3.40609 1.04232 0
M  V30 1439 O 135.475 5.14672 1.83779 0
M  V30 1440 H 132.569 0.766162 0.311329 0
M  V30 1441 H 135.115 1.69307 -0.115362 0
M  V30 1442 H 133.887 3.91244 0.0663899 0
M  V30 1443 H 133.51 3.57154 1.74719 0
M  V30 1444 N 134.507 -0.190092 1.56449 0
M  V30 1445 C 135.735 -0.925772 1.85033 0
M  V30 1446 C 136.15 -1.76638 0.666658 0
M  V30 1447 O 135.507 -1.78822 -0.364565 0
M  V30 1448 C 135.558 -1.81786 3.12468 0
M  V30 1449 O 135.279 -1.01118 4.26271 0
M  V30 1450 C 136.78 -2.6648 3.54265 0
M  V30 1451 H 134 -0.269872 0.614337 0
M  V30 1452 H 136.544 -0.195837 2.0356 0
M  V30 1453 H 134.699 -2.50136 2.95822 0
M  V30 1454 H 135.113 -1.61956 4.98869 0
M  V30 1455 H 136.587 -3.24722 4.46385 0
M  V30 1456 H 137.064 -3.40434 2.77491 0
M  V30 1457 H 137.67 -2.03493 3.73458 0
M  V30 1458 N 135.985 -1.50799 -0.457987 0
M  V30 1459 C 136.915 -1.73553 -1.5621 0
M  V30 1460 C 137.896 -0.584774 -1.59732 0
M  V30 1461 O 139.081 -0.825314 -1.7579 0
M  V30 1462 C 136.211 -1.84169 -2.94447 0
M  V30 1463 C 135.165 -2.99461 -3.0579 0
M  V30 1464 C 134.491 -2.95235 -4.45803 0
M  V30 1465 C 135.791 -4.39766 -2.81786 0
M  V30 1466 H 137.485 -2.66 -1.37421 0
M  V30 1467 H 135.031 -1.28002 -0.659662 0
M  V30 1468 H 136.984 -1.98672 -3.71628 0
M  V30 1469 H 135.708 -0.883545 -3.14422 0
M  V30 1470 H 134.367 -2.8463 -2.31044 0
M  V30 1471 H 134.015 -1.97239 -4.62715 0
M  V30 1472 H 133.715 -3.72642 -4.54326 0
M  V30 1473 H 135.239 -3.11803 -5.24987 0
M  V30 1474 H 136.653 -4.55054 -3.4871 0
M  V30 1475 H 135.05 -5.18722 -3.0174 0
M  V30 1476 H 136.12 -4.51229 -1.7754 0
M  V30 1477 N 137.463 0.71206 -1.40597 0
M  V30 1478 C 138.879 1.02058 -1.22704 0
M  V30 1479 C 139.079 2.01228 -0.104729 0
M  V30 1480 O 138.135 2.4674 0.53624 0
M  V30 1481 C 139.448 1.56094 -2.57012 0
M  V30 1482 C 140.996 1.6806 -2.64054 0
M  V30 1483 C 141.471 2.25501 -3.9864 0
M  V30 1484 N 142.962 2.32882 -4.004 0
M  V30 1485 C 143.697 2.78317 -5.01325 0
M  V30 1486 N 143.193 3.23478 -6.12645 0
M  V30 1487 N 144.986 2.77733 -4.88693 0
M  V30 1488 H 137.137 0.0547896 -2.12329 0
M  V30 1489 H 139.4 0.0869027 -0.944008 0
M  V30 1490 H 139.106 0.906865 -3.39807 0
M  V30 1491 H 138.98 2.54564 -2.78347 0
M  V30 1492 H 141.367 2.32583 -1.81629 0
M  V30 1493 H 141.448 0.681802 -2.46546 0
M  V30 1494 H 141.092 1.61598 -4.81506 0
M  V30 1495 H 141.022 3.26102 -4.13479 0
M  V30 1496 H 143.513 2.00991 -3.20017 0
M  V30 1497 H 143.826 3.56725 -6.85542 0
M  V30 1498 H 142.171 3.21429 -6.16205 0
M  V30 1499 H 145.362 2.4179 -4.00818 0
M  V30 1500 H 145.535 3.12826 -5.67489 0
M  V30 1501 N 138.941 1.26152 0.944643 0
M  V30 1502 C 140.19 1.10883 1.68487 0
M  V30 1503 C 140.503 -0.348153 1.92477 0
M  V30 1504 O 141.709 -0.621459 2.64292 0
M  V30 1505 C 140.165 1.93624 3.03377 0
M  V30 1506 C 139.773 3.43875 2.87148 0
M  V30 1507 C 141.517 1.86954 3.81115 0
M  V30 1508 C 139.424 4.18875 4.1749 0
M  V30 1509 H 138.354 0.41135 0.631907 0
M  V30 1510 H 141.005 1.50433 1.05082 0
M  V30 1511 H 139.387 1.46904 3.67743 0
M  V30 1512 H 140.561 3.98338 2.31653 0
M  V30 1513 H 138.876 3.51744 2.22856 0
M  V30 1514 H 141.473 2.40275 4.77673 0
M  V30 1515 H 141.816 0.839518 4.07747 0
M  V30 1516 H 142.349 2.31477 3.23517 0
M  V30 1517 H 139.088 5.22332 3.96043 0
M  V30 1518 H 138.608 3.69193 4.72712 0
M  V30 1519 H 140.287 4.27134 4.85968 0
M  V30 1520 N 140.419 -1.14872 1.07899 0
M  V30 1521 C 141.382 -2.17986 0.708161 0
M  V30 1522 C 142.382 -1.58775 -0.25442 0
M  V30 1523 O 143.572 -1.74166 -0.034645 0
M  V30 1524 C 140.704 -3.40871 0.0446929 0
M  V30 1525 H 141.897 -2.52306 1.62116 0
M  V30 1526 H 139.45 -1.2943 0.876218 0
M  V30 1527 H 140.185 -3.12124 -0.880281 0
M  V30 1528 H 139.97 -3.8511 0.737091 0
M  V30 1529 H 141.46 -4.17121 -0.19991 0
M  V30 1530 N 141.898 -0.863906 -1.31812 0
M  V30 1531 C 143.128 -0.485406 -2.00817 0
M  V30 1532 C 143.536 0.925007 -1.65046 0
M  V30 1533 O 142.879 1.61653 -0.872574 0
M  V30 1534 C 142.941 -0.555589 -3.55181 0
M  V30 1535 C 142.605 -1.92654 -4.14407 0
M  V30 1536 C 143.602 -2.89324 -4.31958 0
M  V30 1537 C 141.287 -2.2262 -4.50273 0
M  V30 1538 C 143.281 -4.14108 -4.84555 0
M  V30 1539 C 140.968 -3.47654 -5.02573 0
M  V30 1540 C 141.966 -4.43214 -5.19664 0
M  V30 1541 O 141.654 -5.66033 -5.70843 0
M  V30 1542 H 141.386 -0.188224 -0.649267 0
M  V30 1543 H 143.94 -1.16514 -1.69156 0
M  V30 1544 H 142.17 0.181037 -3.86276 0
M  V30 1545 H 143.859 -0.19138 -4.05449 0
M  V30 1546 H 144.625 -2.6748 -4.04573 0
M  V30 1547 H 140.504 -1.4902 -4.3625 0
M  V30 1548 H 144.048 -4.88703 -4.9781 0
M  V30 1549 H 139.945 -3.69345 -5.29391 0
M  V30 1550 H 140.713 -5.6812 -5.89222 0
M  V30 1551 N 143.376 1.44774 -0.622745 0
M  V30 1552 C 144.306 2.33382 0.0741861 0
M  V30 1553 C 145.287 1.47719 0.843387 0
M  V30 1554 O 146.472 1.76458 0.810934 0
M  V30 1555 C 143.602 3.30663 1.06204 0
M  V30 1556 C 142.556 4.26079 0.405037 0
M  V30 1557 C 141.882 5.13165 1.5022 0
M  V30 1558 C 143.182 5.1781 -0.683414 0
M  V30 1559 H 144.876 2.91905 -0.665713 0
M  V30 1560 H 142.422 1.40363 -0.321587 0
M  V30 1561 H 144.375 3.9153 1.55827 0
M  V30 1562 H 143.099 2.70331 1.83272 0
M  V30 1563 H 141.758 3.66532 -0.0704683 0
M  V30 1564 H 141.406 4.49191 2.26355 0
M  V30 1565 H 141.106 5.77812 1.06803 0
M  V30 1566 H 142.63 5.76902 2.00041 0
M  V30 1567 H 144.044 5.72661 -0.270631 0
M  V30 1568 H 142.441 5.91015 -1.04023 0
M  V30 1569 H 143.511 4.59326 -1.55395 0
M  V30 1570 N 144.854 0.36279 1.53368 0
M  V30 1571 C 146.082 -0.228613 2.05633 0
M  V30 1572 C 146.497 -1.42676 1.23649 0
M  V30 1573 O 145.854 -1.80394 0.27647 0
M  V30 1574 C 145.905 -0.624845 3.56059 0
M  V30 1575 O 145.626 0.525675 4.34935 0
M  V30 1576 C 147.127 -1.27493 4.24571 0
M  V30 1577 H 144.347 -0.0407183 0.669763 0
M  V30 1578 H 146.891 0.520352 1.97769 0
M  V30 1579 H 145.046 -1.32373 3.64083 0
M  V30 1580 H 145.46 0.205969 5.24095 0
M  V30 1581 H 146.934 -1.50277 5.31151 0
M  V30 1582 H 147.411 -2.23439 3.78116 0
M  V30 1583 H 148.017 -0.617558 4.20792 0
M  V30 1584 N 146.332 -1.57332 0.0918853 0
M  V30 1585 C 147.242 -2.17368 -0.882505 0
M  V30 1586 C 148.258 -1.14226 -1.31257 0
M  V30 1587 O 149.434 -1.46582 -1.38115 0
M  V30 1588 C 146.499 -2.73962 -2.12476 0
M  V30 1589 C 145.56 -3.92048 -1.7492 0
M  V30 1590 C 144.793 -4.45933 -2.93223 0
M  V30 1591 O 145.016 -3.98764 -4.07852 0
M  V30 1592 O 143.95 -5.36999 -2.71875 0
M  V30 1593 H 147.776 -3.01031 -0.40172 0
M  V30 1594 H 145.361 -1.48813 -0.132291 0
M  V30 1595 H 147.243 -3.10147 -2.85283 0
M  V30 1596 H 145.918 -1.93347 -2.59613 0
M  V30 1597 H 144.825 -3.6068 -0.993025 0
M  V30 1598 H 146.158 -4.74017 -1.32548 0
M  V30 1599 N 147.81 0.181792 -1.56548 0
M  V30 1600 C 148.773 1.20894 -1.94724 0
M  V30 1601 C 149.773 1.37738 -0.829747 0
M  V30 1602 O 150.963 1.35323 -1.09697 0
M  V30 1603 C 148.095 2.57593 -2.23291 0
M  V30 1604 H 149.288 0.882275 -2.86629 0
M  V30 1605 H 146.841 0.423838 -1.50444 0
M  V30 1606 H 147.576 2.95291 -1.34067 0
M  V30 1607 H 147.361 2.46735 -3.04736 0
M  V30 1608 H 148.851 3.31637 -2.53785 0
M  V30 1609 N 149.288 1.51039 0.449983 0
M  V30 1610 C 150.235 1.71439 1.54523 0
M  V30 1611 C 151.205 0.555871 1.56522 0
M  V30 1612 O 152.39 0.788871 1.73728 0
M  V30 1613 C 149.53 1.83384 2.92343 0
M  V30 1614 C 148.643 3.10873 2.9997 0
M  V30 1615 C 147.778 3.13488 4.28834 0
M  V30 1616 C 146.817 4.35343 4.30282 0
M  V30 1617 N 145.954 4.35579 5.5065 0
M  V30 1618 H 150.794 2.64934 1.36433 0
M  V30 1619 H 148.331 1.31312 0.662982 0
M  V30 1620 H 150.289 1.88291 3.72293 0
M  V30 1621 H 148.919 0.933086 3.0902 0
M  V30 1622 H 147.971 3.15336 2.12761 0
M  V30 1623 H 149.283 4.00814 2.96901 0
M  V30 1624 H 148.437 3.17241 5.17149 0
M  V30 1625 H 147.176 2.21414 4.34543 0
M  V30 1626 H 146.181 4.3178 3.40362 0
M  V30 1627 H 147.406 5.28668 4.26248 0
M  V30 1628 H 145.352 3.46369 5.57104 0
M  V30 1629 H 145.269 5.19313 5.49409 0
M  V30 1630 H 146.537 4.43507 6.41032 0
M  V30 1631 N 150.766 -0.704594 1.40972 0
M  V30 1632 C 152.012 -1.46675 1.40051 0
M  V30 1633 C 152.345 -1.94199 0.00641102 0
M  V30 1634 O 151.62 -1.68916 -0.964235 0
M  V30 1635 C 151.903 -2.68505 2.39952 0
M  V30 1636 C 151.756 -2.26805 3.88432 0
M  V30 1637 C 153.075 -3.70686 2.37233 0
M  V30 1638 H 150.194 -0.532015 0.510028 0
M  V30 1639 H 152.836 -0.803255 1.72185 0
M  V30 1640 H 150.986 -3.25114 2.1268 0
M  V30 1641 H 152.658 -1.75592 4.26574 0
M  V30 1642 H 150.901 -1.58685 4.03734 0
M  V30 1643 H 151.572 -3.14181 4.53866 0
M  V30 1644 H 154.048 -3.23731 2.61415 0
M  V30 1645 H 152.924 -4.53553 3.09162 0
M  V30 1646 H 153.185 -4.19754 1.38777 0
M  V30 1647 N 152.244 -1.26651 -0.937939 0
M  V30 1648 C 153.154 -1.10276 -2.07066 0
M  V30 1649 C 154.17 -0.0354197 -1.73964 0
M  V30 1650 O 155.346 -0.239816 -1.99967 0
M  V30 1651 C 152.411 -0.740887 -3.38691 0
M  V30 1652 C 151.472 -1.88799 -3.85556 0
M  V30 1653 C 150.705 -1.54329 -5.10899 0
M  V30 1654 O 150.928 -0.446494 -5.6865 0
M  V30 1655 O 149.862 -2.37911 -5.52885 0
M  V30 1656 H 153.688 -2.05309 -2.23789 0
M  V30 1657 H 151.273 -1.05743 -1.0554 0
M  V30 1658 H 153.155 -0.55195 -4.1777 0
M  V30 1659 H 151.83 0.180022 -3.23199 0
M  V30 1660 H 150.737 -2.13191 -3.07409 0
M  V30 1661 H 152.07 -2.78874 -4.05574 0
M  V30 1662 N 153.722 1.14298 -1.08507 0
M  V30 1663 C 154.669 2.19414 -0.715965 0
M  V30 1664 C 155.639 1.63399 0.298326 0
M  V30 1665 O 156.824 1.89929 0.182101 0
M  V30 1666 C 153.964 3.44845 -0.132534 0
M  V30 1667 C 153.077 4.15007 -1.19973 0
M  V30 1668 C 152.212 5.28024 -0.580048 0
M  V30 1669 C 151.251 5.9002 -1.62921 0
M  V30 1670 N 150.388 6.94485 -1.03125 0
M  V30 1671 H 155.228 2.50336 -1.61666 0
M  V30 1672 H 152.765 1.2293 -0.807882 0
M  V30 1673 H 154.723 4.16601 0.223454 0
M  V30 1674 H 153.353 3.14403 0.731467 0
M  V30 1675 H 152.405 3.41629 -1.67313 0
M  V30 1676 H 153.717 4.57178 -1.99473 0
M  V30 1677 H 152.871 6.06455 -0.172364 0
M  V30 1678 H 151.61 4.87076 0.246603 0
M  V30 1679 H 150.615 5.10291 -2.04654 0
M  V30 1680 H 151.84 6.33042 -2.45835 0
M  V30 1681 H 149.786 6.55612 -0.225711 0
M  V30 1682 H 149.703 7.35148 -1.76334 0
M  V30 1683 H 150.971 7.7679 -0.649458 0
M  V30 1684 N 155.201 0.870884 1.31352 0
M  V30 1685 C 156.131 0.343096 2.30966 0
M  V30 1686 C 157.112 -0.566507 1.60389 0
M  V30 1687 O 158.297 -0.483336 1.88089 0
M  V30 1688 C 155.427 -0.455487 3.443 0
M  V30 1689 C 154.381 0.361103 4.26474 0
M  V30 1690 C 153.707 -0.563221 5.31725 0
M  V30 1691 C 155.007 1.59566 4.97329 0
M  V30 1692 H 156.701 1.17548 2.75359 0
M  V30 1693 H 154.247 0.566686 1.32381 0
M  V30 1694 H 156.2 -0.83525 4.13039 0
M  V30 1695 H 154.924 -1.32139 2.98675 0
M  V30 1696 H 153.583 0.722825 3.59403 0
M  V30 1697 H 153.231 -1.42643 4.82351 0
M  V30 1698 H 152.931 -0.0207409 5.87596 0
M  V30 1699 H 154.455 -0.939808 6.03324 0
M  V30 1700 H 155.869 1.28728 5.58661 0
M  V30 1701 H 154.266 2.07728 5.63 0
M  V30 1702 H 155.336 2.34798 4.24262 0
M  V30 1703 N 156.679 -1.44442 0.630414 0
M  V30 1704 C 157.919 -2.03934 0.137919 0
M  V30 1705 C 158.283 -1.48509 -1.21692 0
M  V30 1706 O 159.484 -1.99499 -1.80149 0
M  V30 1707 C 157.755 -3.57187 0.123373 0
M  V30 1708 S 159.314 -4.37741 -0.304604 0
M  V30 1709 H 156.132 -0.708401 0.0607353 0
M  V30 1710 H 158.734 -1.76835 0.833643 0
M  V30 1711 H 157.438 -3.95032 1.11256 0
M  V30 1712 H 156.969 -3.88895 -0.59362 0
M  V30 1713 H 158.984 -4.71403 -1.54897 0
M  V30 1714 N 158.157 -0.370918 -1.53173 0
M  V30 1715 C 159.403 0.217423 -2.01631 0
M  V30 1716 C 159.736 1.47983 -1.25756 0
M  V30 1717 O 159.011 1.91274 -0.352764 0
M  V30 1718 C 159.294 0.503982 -3.56556 0
M  V30 1719 C 159.147 -0.77243 -4.43118 0
M  V30 1720 C 160.466 1.30234 -4.20389 0
M  V30 1721 H 157.585 0.0775486 -0.732909 0
M  V30 1722 H 160.227 -0.496863 -1.83388 0
M  V30 1723 H 158.377 1.11248 -3.72231 0
M  V30 1724 H 160.049 -1.4098 -4.39229 0
M  V30 1725 H 158.292 -1.39167 -4.10871 0
M  V30 1726 H 158.963 -0.526815 -5.4948 0
M  V30 1727 H 161.439 0.787546 -4.08579 0
M  V30 1728 H 160.315 1.47158 -5.28806 0
M  V30 1729 H 160.576 2.31237 -3.76805 0
M  V30 1730 N 159.635 1.57281 -0.100228 0
M  V30 1731 C 160.881 1.95626 0.556946 0
M  V30 1732 C 161.236 0.981655 1.65473 0
M  V30 1733 O 160.529 0.00849847 1.91598 0
M  V30 1734 C 160.723 3.38305 1.15259 0
M  V30 1735 C 160.552 4.49555 0.114035 0
M  V30 1736 C 159.322 5.0434 -0.311266 0
M  V30 1737 C 161.52 5.10051 -0.659768 0
M  V30 1738 N 159.502 5.99152 -1.33755 0
M  V30 1739 C 160.873 6.00628 -1.53774 0
M  V30 1740 C 162.928 4.92772 -0.712723 0
M  V30 1741 C 161.631 6.7578 -2.46403 0
M  V30 1742 C 163.657 5.6859 -1.62663 0
M  V30 1743 C 163.019 6.58838 -2.49222 0
M  V30 1744 H 159.118 0.7624 0.173982 0
M  V30 1745 H 161.702 1.93829 -0.183988 0
M  V30 1746 H 159.873 3.40786 1.86332 0
M  V30 1747 H 161.605 3.63817 1.77254 0
M  V30 1748 H 158.36 4.73537 0.0774812 0
M  V30 1749 H 158.784 6.5126 -1.84905 0
M  V30 1750 H 163.426 4.22761 -0.0576648 0
M  V30 1751 H 161.144 7.4505 -3.12931 0
M  V30 1752 H 164.73 5.57233 -1.67281 0
M  V30 1753 H 163.61 7.16479 -3.18791 0
M  V30 1754 N 161.113 -0.173488 1.56642 0
M  V30 1755 C 162.061 -1.23417 1.97157 0
M  V30 1756 C 163.055 -1.45946 0.860013 0
M  V30 1757 O 164.261 -1.46551 1.04512 0
M  V30 1758 H 160.636 -0.414818 0.62724 0
M  V30 1759 H 162.607 -0.865582 2.8557 0
M  V30 1760 C 161.356 -2.5665 2.34576 0
M  V30 1761 H 160.679 -2.40137 3.19647 0
M  V30 1762 H 162.119 -3.2956 2.6677 0
M  V30 1763 C 160.578 -3.15245 1.18836 0
M  V30 1764 O 161.108 -3.98883 0.474869 0
M  V30 1765 N 159.314 -2.74303 0.959497 0
M  V30 1766 H 158.861 -2.0639 1.54146 0
M  V30 1767 H 158.819 -3.13844 0.186932 0
M  V30 1768 N 162.591 -1.51276 -0.441967 0
M  V30 1769 C 163.539 -1.72823 -1.55676 0
M  V30 1770 C 164.533 -0.59445 -1.58627 0
M  V30 1771 O 165.739 -0.775715 -1.62427 0
M  V30 1772 H 162.114 -0.545983 -0.517113 0
M  V30 1773 H 164.085 -2.6628 -1.34675 0
M  V30 1774 C 162.834 -1.86619 -2.93375 0
M  V30 1775 H 162.157 -2.73264 -2.91834 0
M  V30 1776 H 163.597 -2.05709 -3.70756 0
M  V30 1777 C 162.056 -0.624842 -3.31055 0
M  V30 1778 O 162.586 0.222636 -4.01083 0
M  V30 1779 N 160.792 -0.470288 -2.86769 0
M  V30 1780 H 160.339 -1.161 -2.29953 0
M  V30 1781 H 160.297 0.359051 -3.12343 0
M  V30 1782 N 164.069 0.697108 -1.41344 0
M  V30 1783 C 165.016 1.81106 -1.43071 0
M  V30 1784 C 165.986 1.63632 -0.285275 0
M  V30 1785 O 167.171 1.84504 -0.486091 0
M  V30 1786 C 164.311 3.18975 -1.31715 0
M  V30 1787 C 163.424 3.47892 -2.56115 0
M  V30 1788 C 162.559 4.75367 -2.37064 0
M  V30 1789 C 161.598 4.97247 -3.56948 0
M  V30 1790 N 160.735 6.15947 -3.36977 0
M  V30 1791 H 165.575 1.78965 -2.38276 0
M  V30 1792 H 163.112 0.873975 -1.18322 0
M  V30 1793 H 165.07 3.98615 -1.23133 0
M  V30 1794 H 163.7 3.20297 -0.401183 0
M  V30 1795 H 162.752 2.62669 -2.75153 0
M  V30 1796 H 164.064 3.59962 -3.45295 0
M  V30 1797 H 163.218 5.63059 -2.25941 0
M  V30 1798 H 161.957 4.65541 -1.45338 0
M  V30 1799 H 160.962 4.08004 -3.68527 0
M  V30 1800 H 162.187 5.08934 -4.49626 0
M  V30 1801 H 160.133 6.07336 -2.47949 0
M  V30 1802 H 160.05 6.28777 -4.19732 0
M  V30 1803 H 161.318 7.06377 -3.29623 0
M  V30 1804 N 165.547 1.27147 0.931209 0
M  V30 1805 C 166.775 1.16082 1.71267 0
M  V30 1806 C 167.19 -0.282772 1.8667 0
M  V30 1807 O 166.547 -1.19283 1.38122 0
M  V30 1808 C 166.598 1.8358 3.11417 0
M  V30 1809 O 166.319 3.22299 2.96741 0
M  V30 1810 C 167.82 1.78597 4.05732 0
M  V30 1811 H 165.04 0.403758 0.535929 0
M  V30 1812 H 167.584 1.67953 1.16671 0
M  V30 1813 H 165.739 1.35623 3.62885 0
M  V30 1814 H 166.153 3.55851 3.85319 0
M  V30 1815 H 167.627 2.30444 5.01597 0
M  V30 1816 H 168.104 0.754564 4.3267 0
M  V30 1817 H 168.71 2.26152 3.60188 0
M  V30 1818 N 167.025 -1.13721 1.09112 0
M  V30 1819 C 168.436 -1.6648 0.845068 0
M  V30 1820 C 168.787 -1.85911 -0.62701 0
M  V30 1821 O 167.912 -1.57556 -1.48341 0
M  V30 1822 C 168.507 -3.02413 1.52748 0
M  V30 1823 C 167.066 -3.52176 1.32849 0
M  V30 1824 C 166.213 -2.27492 1.58564 0
M  V30 1825 H 169.164 -0.976872 1.25072 0
M  V30 1826 H 169.185 -3.68223 0.958752 0
M  V30 1827 H 168.697 -2.88238 2.59885 0
M  V30 1828 H 166.798 -3.7156 0.278137 0
M  V30 1829 H 166.911 -4.32499 2.0611 0
M  V30 1830 H 165.275 -2.33923 1.00758 0
M  V30 1831 H 166.058 -2.15886 2.66924 0
M  V30 1832 N 168.503 -0.877838 -1.30888 0
M  V30 1833 C 169.453 -0.310872 -2.25871 0
M  V30 1834 C 170.437 0.556596 -1.50966 0
M  V30 1835 O 171.629 0.402187 -1.7237 0
M  V30 1836 C 168.758 0.479821 -3.3993 0
M  V30 1837 C 167.844 -0.401333 -4.22197 0
M  V30 1838 N 168.235 -1.49848 -4.83093 0
M  V30 1839 C 166.533 -0.195167 -4.45573 0
M  V30 1840 C 167.234 -2.0425 -5.44662 0
M  V30 1841 N 166.21 -1.33843 -5.26865 0
M  V30 1842 H 170.012 -1.1493 -2.70496 0
M  V30 1843 H 167.526 -0.726458 -1.45246 0
M  V30 1844 H 169.523 0.902582 -4.07012 0
M  V30 1845 H 168.183 1.31577 -2.96846 0
M  V30 1846 H 169.194 -1.88137 -4.82519 0
M  V30 1847 H 165.871 0.604192 -4.13105 0
M  V30 1848 H 167.261 -2.96345 -6.03017 0
M  V30 1849 N 169.982 1.44106 -0.638065 0
M  V30 1850 C 170.945 2.29138 0.0531013 0
M  V30 1851 C 171.945 1.41409 0.765506 0
M  V30 1852 O 173.135 1.63206 0.609046 0
M  V30 1853 C 170.267 3.23144 1.08584 0
M  V30 1854 H 171.46 2.91739 -0.694883 0
M  V30 1855 H 169.013 1.51134 -0.398538 0
M  V30 1856 H 169.748 2.65408 1.86357 0
M  V30 1857 H 169.533 3.87804 0.578852 0
M  V30 1858 H 171.023 3.87004 1.56899 0
M  V30 1859 N 171.46 0.379036 1.52974 0
M  V30 1860 C 172.709 -0.207612 2.00629 0
M  V30 1861 C 173.022 -1.48758 1.27006 0
M  V30 1862 O 174.228 -2.15365 1.65318 0
M  V30 1863 C 172.684 -0.42053 3.57435 0
M  V30 1864 C 172.292 0.845587 4.39948 0
M  V30 1865 C 174.036 -0.964102 4.13407 0
M  V30 1866 C 171.943 0.601513 5.88333 0
M  V30 1867 H 170.873 -0.0813591 0.749598 0
M  V30 1868 H 173.524 0.499853 1.76561 0
M  V30 1869 H 171.906 -1.18959 3.7771 0
M  V30 1870 H 173.08 1.61848 4.31442 0
M  V30 1871 H 171.395 1.31336 3.95145 0
M  V30 1872 H 173.992 -1.16225 5.21916 0
M  V30 1873 H 174.335 -1.93019 3.68849 0
M  V30 1874 H 174.868 -0.25487 3.96983 0
M  V30 1875 H 171.607 1.53831 6.37194 0
M  V30 1876 H 171.127 -0.132628 5.99653 0
M  V30 1877 H 172.806 0.232134 6.46583 0
M  V30 1878 N 172.938 -1.57226 0.108567 0
M  V30 1879 C 173.901 -2.13602 -0.831082 0
M  V30 1880 C 174.901 -1.06841 -1.20173 0
M  V30 1881 O 176.091 -1.32666 -1.12895 0
M  V30 1882 C 173.223 -2.66769 -2.12243 0
M  V30 1883 H 174.416 -2.97951 -0.341317 0
M  V30 1884 H 171.969 -1.55667 -0.14057 0
M  V30 1885 H 172.704 -1.85977 -2.65675 0
M  V30 1886 H 172.489 -3.44839 -1.86625 0
M  V30 1887 H 173.979 -3.10332 -2.79435 0
M  V30 1888 N 174.416 0.165178 -1.56732 0
M  V30 1889 C 175.379 1.18822 -1.95995 0
M  V30 1890 C 176.379 1.3685 -0.84431 0
M  V30 1891 O 177.569 1.34152 -1.11126 0
M  V30 1892 C 174.701 2.5521 -2.26011 0
M  V30 1893 H 175.894 0.851825 -2.87548 0
M  V30 1894 H 173.447 0.407857 -1.50885 0
M  V30 1895 H 174.182 2.93852 -1.37191 0
M  V30 1896 H 173.967 2.43489 -3.07336 0
M  V30 1897 H 175.457 3.28927 -2.57288 0
M  V30 1898 N 175.894 1.51508 0.433938 0
M  V30 1899 C 177.143 1.63578 1.18005 0
M  V30 1900 C 177.456 0.359514 1.92268 0
M  V30 1901 O 178.662 0.359632 2.69108 0
M  V30 1902 C 177.118 2.88901 2.14626 0
M  V30 1903 C 176.726 4.23544 1.45995 0
M  V30 1904 C 178.47 3.10328 2.89649 0
M  V30 1905 C 176.377 5.40014 2.4112 0
M  V30 1906 H 175.307 0.609277 0.444182 0
M  V30 1907 H 177.958 1.77978 0.446773 0
M  V30 1908 H 176.34 2.68142 2.91403 0
M  V30 1909 H 177.514 4.54696 0.747532 0
M  V30 1910 H 175.829 4.08021 0.831115 0
M  V30 1911 H 178.426 3.94518 3.60915 0
M  V30 1912 H 178.769 2.23544 3.51189 0
M  V30 1913 H 179.302 3.31443 2.19978 0
M  V30 1914 H 176.041 6.29068 1.84264 0
M  V30 1915 H 175.561 5.13233 3.10406 0
M  V30 1916 H 177.24 5.72099 3.02177 0
M  V30 1917 N 177.372 -0.689602 1.41712 0
M  V30 1918 C 178.597 -1.48329 1.44959 0
M  V30 1919 C 179.022 -1.8801 0.0581283 0
M  V30 1920 O 178.38 -1.55026 -0.940035 0
M  V30 1921 C 178.428 -2.71835 2.36935 0
M  V30 1922 O 177.532 -3.69549 1.8305 0
M  V30 1923 H 176.873 -0.446199 0.491734 0
M  V30 1924 H 179.403 -0.847127 1.86239 0
M  V30 1925 H 179.413 -3.20076 2.53013 0
M  V30 1926 H 178.088 -2.42291 3.38035 0
M  V30 1927 H 176.665 -3.2851 1.76452 0
M  V30 1928 N 178.85 -1.27639 -0.924453 0
M  V30 1929 C 179.783 -1.04966 -2.02626 0
M  V30 1930 C 180.761 0.0309505 -1.62571 0
M  V30 1931 O 181.945 -0.114846 -1.8815 0
M  V30 1932 C 179.072 -0.59292 -3.3347 0
M  V30 1933 C 178.118 -1.66858 -3.92506 0
M  V30 1934 S 178.951 -3.2619 -4.24689 0
M  V30 1935 C 180.107 -2.82325 -5.58609 0
M  V30 1936 H 180.34 -1.98252 -2.21547 0
M  V30 1937 H 177.873 -1.11506 -1.06798 0
M  V30 1938 H 179.831 -0.336086 -4.09122 0
M  V30 1939 H 178.492 0.319939 -3.12466 0
M  V30 1940 H 177.685 -1.30038 -4.86935 0
M  V30 1941 H 177.287 -1.87766 -3.2345 0
M  V30 1942 H 179.579 -2.2783 -6.38044 0
M  V30 1943 H 180.522 -3.75511 -6.00331 0
M  V30 1944 H 180.93 -2.21367 -5.19285 0
M  V30 1945 N 180.328 1.1314 -1.09713 0
M  V30 1946 C 181.291 2.16831 -0.742751 0
M  V30 1947 C 182.291 1.59159 0.229129 0
M  V30 1948 O 183.481 1.74199 0.00693237 0
M  V30 1949 C 180.613 3.40756 -0.0989168 0
M  V30 1950 H 181.806 2.49695 -1.66109 0
M  V30 1951 H 179.359 1.2802 -0.896699 0
M  V30 1952 H 180.094 3.13485 0.830514 0
M  V30 1953 H 179.879 3.83888 -0.798265 0
M  V30 1954 H 181.369 4.17386 0.133524 0
M  V30 1955 N 181.806 0.884767 1.30421 0
M  V30 1956 C 182.754 0.340869 2.30089 0
M  V30 1957 C 183.748 -0.55201 1.60154 0
M  V30 1958 O 184.954 -0.436467 1.74628 0
M  V30 1959 H 181.329 0.0915739 0.746404 0
M  V30 1960 H 183.3 1.19513 2.73421 0
M  V30 1961 C 182.049 -0.429779 3.45034 0
M  V30 1962 H 181.372 0.248024 3.9903 0
M  V30 1963 H 182.812 -0.775445 4.16849 0
M  V30 1964 C 181.271 -1.62677 2.95022 0
M  V30 1965 O 181.801 -2.72614 2.95033 0
M  V30 1966 N 180.007 -1.46387 2.51036 0
M  V30 1967 H 179.554 -0.569506 2.51226 0
M  V30 1968 H 179.512 -2.26612 2.17932 0
M  V30 1969 O 183.323 -1.41116 0.785407 0
M  V30 1970 H 184.014 -1.90435 0.354159 0
M  V30 END ATOM
M  V30 BEGIN BOND
M  V30 END BOND
M  V30 END CTAB
M  END
$$$$
