drugbank_target|Q57VC7 Uncharacterized protein (DB04580; DB04605)
 OpenBabel12092120303D

  0  0  0     0  0            999 V3000
M  V30 BEGIN CTAB
M  V30 COUNTS 2410 2436 0 0 0
M  V30 BEGIN ATOM
M  V30 1 H -0.908 1.98254 -0.117106 0
M  V30 2 N 0 1.576 0 0
M  V30 3 C 0.933 2.03868 1.02534 0
M  V30 4 C 1.911 0.928543 1.3348 0
M  V30 5 O 3.095 1.19667 1.45644 0
M  V30 6 C 0.222 2.43627 2.35294 0
M  V30 7 C -0.732 3.65373 2.2001 0
M  V30 8 S 0.101 5.13292 1.52614 0
M  V30 9 C 1.257 5.56322 2.86805 0
M  V30 10 H 1.49 2.90518 0.631377 0
M  V30 11 H -0.977 1.52953 0.210867 0
M  V30 12 H 0.981 2.67203 3.11629 0
M  V30 13 H -0.358 1.57376 2.7183 0
M  V30 14 H -1.165 3.90944 3.18086 0
M  V30 15 H -1.563 3.418 1.51819 0
M  V30 16 H 0.729 5.58782 3.83104 0
M  V30 17 H 1.672 6.56266 2.65933 0
M  V30 18 H 2.08 4.83886 2.90714 0
M  V30 19 N 1.4781 -0.272755 1.55222 0
M  V30 20 C 2.8941 -0.619959 1.47067 0
M  V30 21 C 3.0941 -1.895 0.684978 0
M  V30 22 O 2.1501 -2.51675 0.203931 0
M  V30 23 C 3.4631 -0.746693 2.91282 0
M  V30 24 C 5.0111 -0.840731 3.01497 0
M  V30 25 C 5.4861 -0.99924 4.46967 0
M  V30 26 N 6.9771 -1.06476 4.50796 0
M  V30 27 C 7.7121 -1.20621 5.6057 0
M  V30 28 N 7.2081 -1.31483 6.80209 0
M  V30 29 N 9.0011 -1.23733 5.48312 0
M  V30 30 H 1.1521 0.564606 2.04758 0
M  V30 31 H 3.4151 0.191177 0.928523 0
M  V30 32 H 3.1211 0.119753 3.51496 0
M  V30 33 H 2.9951 -1.6269 3.40311 0
M  V30 34 H 5.3821 -1.69764 2.41379 0
M  V30 35 H 5.4631 0.0640874 2.5572 0
M  V30 36 H 5.1071 -0.146984 5.07687 0
M  V30 37 H 5.0371 -1.91871 4.90401 0
M  V30 38 H 7.5281 -0.993196 3.64615 0
M  V30 39 H 7.8411 -1.42111 7.59621 0
M  V30 40 H 6.1861 -1.28487 6.8302 0
M  V30 41 H 9.3771 -1.14877 4.53785 0
M  V30 42 H 9.5501 -1.34412 6.33906 0
M  V30 43 N 2.9562 -1.48159 -0.537278 0
M  V30 44 C 3.9032 -1.62138 -1.64256 0
M  V30 45 C 4.8732 -0.463668 -1.59497 0
M  V30 46 O 6.0582 -0.686241 -1.78032 0
M  V30 47 C 3.1982 -1.66028 -3.02537 0
M  V30 48 C 2.3112 -2.92855 -3.17585 0
M  V30 49 C 1.4462 -2.87952 -4.46382 0
M  V30 50 C 0.4852 -4.09516 -4.54932 0
M  V30 51 N -0.3778 -4.02733 -5.75109 0
M  V30 52 H 4.4622 -2.56529 -1.51647 0
M  V30 53 H 1.9992 -1.27224 -0.738414 0
M  V30 54 H 3.9572 -1.66265 -3.82638 0
M  V30 55 H 2.5872 -0.751331 -3.13934 0
M  V30 56 H 1.6392 -3.02395 -2.30784 0
M  V30 57 H 2.9512 -3.82822 -3.19764 0
M  V30 58 H 2.1052 -2.8655 -5.34765 0
M  V30 59 H 0.8442 -1.95702 -4.46712 0
M  V30 60 H -0.1508 -4.11201 -3.64957 0
M  V30 61 H 1.0742 -5.02917 -4.56346 0
M  V30 62 H -0.9798 -3.13299 -5.76351 0
M  V30 63 H -1.0628 -4.86397 -5.78752 0
M  V30 64 H 0.2052 -4.05379 -6.65799 0
M  V30 65 N 4.4343 0.785586 -1.36625 0
M  V30 66 C 5.6833 1.53883 -1.30396 0
M  V30 67 C 5.9963 1.95271 0.113452 0
M  V30 68 O 7.2023 2.69858 0.298142 0
M  V30 69 C 5.6583 2.77808 -2.28802 0
M  V30 70 C 5.2663 2.43574 -3.75999 0
M  V30 71 C 7.0103 3.55783 -2.31558 0
M  V30 72 C 4.9173 3.63919 -4.66173 0
M  V30 73 H 3.8473 0.577678 -0.484566 0
M  V30 74 H 6.4983 0.861705 -1.62009 0
M  V30 75 H 4.8803 3.47339 -1.90188 0
M  V30 76 H 6.0543 1.81916 -4.23371 0
M  V30 77 H 4.3693 1.78803 -3.76056 0
M  V30 78 H 6.9663 4.45205 -2.96137 0
M  V30 79 H 7.3093 3.94644 -1.3252 0
M  V30 80 H 7.8423 2.93235 -2.68809 0
M  V30 81 H 4.5813 3.3015 -5.66287 0
M  V30 82 H 4.1013 4.2473 -4.23515 0
M  V30 83 H 5.7803 4.30901 -4.82632 0
M  V30 84 N 5.9124 1.20967 1.01018 0
M  V30 85 C 7.1424 1.04803 1.78044 0
M  V30 86 C 7.5504 -0.405462 1.84804 0
M  V30 87 O 6.8934 -1.2932 1.30468 0
M  V30 88 C 6.9554 1.56377 3.23707 0
M  V30 89 C 6.6194 3.04767 3.40538 0
M  V30 90 C 7.6164 4.02366 3.29239 0
M  V30 91 C 5.3014 3.43862 3.66147 0
M  V30 92 C 7.2954 5.37049 3.43304 0
M  V30 93 C 4.9824 4.78699 3.79855 0
M  V30 94 C 5.9804 5.75101 3.68439 0
M  V30 95 O 5.6684 7.07493 3.81719 0
M  V30 96 H 5.4004 0.368778 0.56655 0
M  V30 97 H 7.9544 1.60642 1.27997 0
M  V30 98 H 6.1844 0.949297 3.74867 0
M  V30 99 H 7.8734 1.36136 3.8239 0
M  V30 100 H 8.6394 3.73506 3.09384 0
M  V30 101 H 4.5184 2.69364 3.74118 0
M  V30 102 H 8.0624 6.12277 3.34309 0
M  V30 103 H 3.9594 5.07247 3.99213 0
M  V30 104 H 4.7274 7.1483 3.98697 0
M  V30 105 N 7.3905 -1.2043 1.01659 0
M  V30 106 C 8.6395 -1.89118 0.701237 0
M  V30 107 C 8.9525 -1.79705 -0.772358 0
M  V30 108 O 10.1585 -2.43528 -1.20026 0
M  V30 109 C 8.6145 -3.39168 1.20388 0
M  V30 110 C 8.2225 -3.57166 2.70438 0
M  V30 111 C 9.9665 -4.1341 0.963953 0
M  V30 112 C 7.8735 -5.01042 3.14183 0
M  V30 113 H 6.8035 -0.708267 0.2586 0
M  V30 114 H 9.4545 -1.36239 1.22927 0
M  V30 115 H 7.8365 -3.91369 0.603824 0
M  V30 116 H 9.0105 -3.15351 3.35992 0
M  V30 117 H 7.3255 -2.96294 2.92572 0
M  V30 118 H 9.9225 -5.19491 1.26621 0
M  V30 119 H 10.2655 -4.16181 -0.099578 0
M  V30 120 H 10.7985 -3.67309 1.52738 0
M  V30 121 H 7.5375 -5.03426 4.19812 0
M  V30 122 H 7.0575 -5.43668 2.53348 0
M  V30 123 H 8.7365 -5.69623 3.0682 0
M  V30 124 N 8.8686 -0.792821 -1.36206 0
M  V30 125 C 9.8316 -0.199459 -2.2833 0
M  V30 126 C 10.8316 0.605189 -1.48977 0
M  V30 127 O 12.0216 0.425685 -1.68919 0
M  V30 128 C 9.1536 0.723523 -3.33134 0
M  V30 129 H 10.3466 -1.01181 -2.82316 0
M  V30 130 H 7.8996 -0.562485 -1.45828 0
M  V30 131 H 8.6346 1.56008 -2.84309 0
M  V30 132 H 8.4196 0.148436 -3.91819 0
M  V30 133 H 9.9096 1.13344 -4.01924 0
M  V30 134 N 10.3467 1.47872 -0.545128 0
M  V30 135 C 11.5947 2.02093 -0.016553 0
M  V30 136 C 11.9157 1.42305 1.3332 0
M  V30 137 O 11.1857 0.593853 1.86682 0
M  V30 138 H 9.7657 0.746993 -0.00313038 0
M  V30 139 H 12.4277 1.81414 -0.712397 0
M  V30 140 H 11.5237 3.11996 0.0805422 0
M  V30 141 N 11.8248 0.280983 1.55075 0
M  V30 142 C 13.2358 -0.215629 1.85451 0
M  V30 143 C 13.5868 -1.54991 1.203 0
M  V30 144 O 12.7118 -2.10699 0.493435 0
M  V30 145 C 13.3068 -0.398026 3.36454 0
M  V30 146 C 11.8658 -0.838866 3.66933 0
M  V30 147 C 11.0128 0.064458 2.77225 0
M  V30 148 H 13.9638 0.502601 1.50531 0
M  V30 149 H 13.9848 -1.23569 3.59876 0
M  V30 150 H 13.4968 0.573241 3.83843 0
M  V30 151 H 11.5978 -1.8214 3.25048 0
M  V30 152 H 11.7108 -0.672123 4.74362 0
M  V30 153 H 10.0748 -0.452863 2.50642 0
M  V30 154 H 10.8578 1.03172 3.2743 0
M  V30 155 N 13.3029 -1.57598 0.00835791 0
M  V30 156 C 14.2659 -2.07884 -0.965242 0
M  V30 157 C 15.2659 -0.989825 -1.26725 0
M  V30 158 O 16.4559 -1.25218 -1.21104 0
M  V30 159 C 13.5879 -2.52731 -2.28779 0
M  V30 160 H 14.7809 -2.95178 -0.530112 0
M  V30 161 H 12.3339 -1.54458 -0.239283 0
M  V30 162 H 13.0689 -1.68705 -2.76964 0
M  V30 163 H 12.8539 -3.32272 -2.08177 0
M  V30 164 H 14.3439 -2.91933 -2.98605 0
M  V30 165 N 14.781 0.264519 -1.55364 0
M  V30 166 C 16.027 0.99646 -1.76631 0
M  V30 167 C 16.36 1.85632 -0.570478 0
M  V30 168 O 15.635 1.89647 0.43175 0
M  V30 169 C 15.918 1.87187 -3.07625 0
M  V30 170 C 15.771 1.04138 -4.37579 0
M  V30 171 C 17.09 2.85749 -3.34717 0
M  V30 172 H 14.209 0.360841 -0.642622 0
M  V30 173 H 16.851 0.268218 -1.88097 0
M  V30 174 H 15.001 2.49279 -2.9798 0
M  V30 175 H 16.673 0.440517 -4.59192 0
M  V30 176 H 14.916 0.345115 -4.32425 0
M  V30 177 H 15.587 1.68729 -5.2558 0
M  V30 178 H 18.063 2.33793 -3.4421 0
M  V30 179 H 16.939 3.44136 -4.27623 0
M  V30 180 H 17.2 3.61311 -2.54768 0
M  V30 181 N 16.2591 1.48442 0.529413 0
M  V30 182 C 17.5061 1.56488 1.28521 0
M  V30 183 C 17.8341 0.239042 1.93025 0
M  V30 184 O 17.0891 -0.770713 1.79885 0
M  V30 185 C 17.3881 2.6523 2.39558 0
M  V30 186 C 17.0541 4.07648 1.92702 0
M  V30 187 C 15.7161 4.46411 1.79641 0
M  V30 188 C 18.0681 4.96896 1.573 0
M  V30 189 C 15.3961 5.72226 1.29514 0
M  V30 190 C 17.7481 6.23202 1.08636 0
M  V30 191 C 16.4121 6.60821 0.941919 0
M  V30 192 H 15.6821 0.572631 0.470292 0
M  V30 193 H 18.3291 1.82161 0.59072 0
M  V30 194 H 16.6341 2.33419 3.14679 0
M  V30 195 H 18.3311 2.68671 2.97686 0
M  V30 196 H 14.9211 3.77036 2.03819 0
M  V30 197 H 19.1051 4.67626 1.66251 0
M  V30 198 H 14.3611 6.00097 1.17019 0
M  V30 199 H 18.5351 6.91753 0.803136 0
M  V30 200 H 16.1621 7.58198 0.5513 0
M  V30 201 N 17.7372 -0.778329 1.37039 0
M  V30 202 C 18.6852 -1.91278 1.32345 0
M  V30 203 C 19.6792 -1.68051 0.213331 0
M  V30 204 O 20.8852 -1.75922 0.38098 0
M  V30 205 H 17.2602 -0.628909 0.412283 0
M  V30 206 H 19.2312 -1.92355 2.28127 0
M  V30 207 C 17.9802 -3.28455 1.14073 0
M  V30 208 H 17.3032 -3.46901 1.98746 0
M  V30 209 H 18.7432 -4.08152 1.14837 0
M  V30 210 C 17.2022 -3.36548 -0.154015 0
M  V30 211 O 17.7322 -3.85186 -1.13993 0
M  V30 212 N 15.9382 -2.89894 -0.202475 0
M  V30 213 H 15.4852 -2.50504 0.600476 0
M  V30 214 H 15.4432 -2.9569 -1.06841 0
M  V30 215 N 19.2153 -1.21501 -1.00376 0
M  V30 216 C 20.6263 -1.03146 -1.55621 0
M  V30 217 C 20.9773 0.408375 -1.91903 0
M  V30 218 O 20.1023 1.29177 -1.73616 0
M  V30 219 C 20.6973 -1.86612 -2.82775 0
M  V30 220 C 19.2563 -1.72586 -3.34501 0
M  V30 221 C 18.4033 -1.83747 -2.07683 0
M  V30 222 H 21.3543 -1.35505 -0.826081 0
M  V30 223 H 21.3753 -1.3771 -3.54706 0
M  V30 224 H 20.8873 -2.91399 -2.56336 0
M  V30 225 H 18.9883 -0.704877 -3.65872 0
M  V30 226 H 19.1013 -2.54623 -4.05837 0
M  V30 227 H 17.4653 -1.27069 -2.20739 0
M  V30 228 H 18.2483 -2.90044 -1.83655 0
M  V30 229 N 20.6934 1.19889 -1.02296 0
M  V30 230 C 21.9704 1.85148 -0.630832 0
M  V30 231 C 22.3504 1.91385 0.890782 0
M  V30 232 O 21.6984 1.42642 1.78509 0
M  V30 233 C 21.9084 3.24442 -1.28602 0
M  V30 234 C 23.2564 4.00663 -1.4055 0
M  V30 235 O 24.2804 3.33818 -1.24273 0
M  V30 236 O 23.1394 5.20387 -1.66913 0
M  V30 237 H 20.2334 0.797613 -0.218499 0
M  V30 238 H 22.7794 1.27427 -1.12074 0
M  V30 239 H 21.5514 3.14704 -2.32545 0
M  V30 240 H 21.1744 3.89802 -0.7836 0
M  V30 241 N 22.1715 0.800033 1.35784 0
M  V30 242 C 23.1045 0.151499 2.27697 0
M  V30 243 C 24.0825 -0.678663 1.4776 0
M  V30 244 O 25.2665 -0.647358 1.77035 0
M  V30 245 C 22.3935 -0.790492 3.29346 0
M  V30 246 C 21.4395 -0.0407832 4.26481 0
M  V30 247 S 22.2725 1.29077 5.19711 0
M  V30 248 C 23.4285 0.353055 6.24903 0
M  V30 249 H 23.6615 0.930796 2.82353 0
M  V30 250 H 21.1945 0.594767 1.42485 0
M  V30 251 H 23.1525 -1.3285 3.88409 0
M  V30 252 H 21.8135 -1.54312 2.73581 0
M  V30 253 H 21.0065 -0.755971 4.98298 0
M  V30 254 H 20.6085 0.427063 3.71554 0
M  V30 255 H 22.9005 -0.464147 6.75908 0
M  V30 256 H 23.8435 1.04023 7.00418 0
M  V30 257 H 24.2515 -0.0483344 5.64479 0
M  V30 258 N 23.6496 -1.47581 0.552962 0
M  V30 259 C 24.8976 -2.02082 0.0272703 0
M  V30 260 C 25.2186 -1.4301 -1.32563 0
M  V30 261 O 24.4886 -0.603745 -1.86365 0
M  V30 262 H 23.0686 -0.746966 0.00709182 0
M  V30 263 H 25.7306 -1.81033 0.722008 0
M  V30 264 H 24.8266 -3.12034 -0.0639951 0
M  V30 265 N 25.1277 -0.289203 -1.54924 0
M  V30 266 C 26.0907 0.579144 -2.21762 0
M  V30 267 C 27.0907 1.07047 -1.1999 0
M  V30 268 O 28.2807 0.968384 -1.44803 0
M  V30 269 C 25.4127 1.80055 -2.8947 0
M  V30 270 H 26.6057 -0.00464908 -2.999 0
M  V30 271 H 24.1587 -0.0399306 -1.56249 0
M  V30 272 H 24.8937 2.42449 -2.15381 0
M  V30 273 H 24.6787 1.45602 -3.64064 0
M  V30 274 H 26.1687 2.41773 -3.40493 0
M  V30 275 N 26.6058 1.57591 -0.0167156 0
M  V30 276 C 27.8308 1.9598 0.67872 0
M  V30 277 C 28.2558 0.892546 1.65575 0
M  V30 278 O 27.6138 -0.147772 1.80697 0
M  V30 279 C 27.6618 3.33468 1.37227 0
M  V30 280 O 26.7658 3.28954 2.48722 0
M  V30 281 H 26.1068 0.639339 0.17928 0
M  V30 282 H 28.6368 2.04463 -0.0748802 0
M  V30 283 H 28.6468 3.69417 1.7319 0
M  V30 284 H 27.3218 4.10694 0.656007 0
M  V30 285 H 25.8988 3.04705 2.14963 0
M  V30 286 N 28.0839 -0.256276 1.55502 0
M  V30 287 C 29.3139 -1.00196 1.80677 0
M  V30 288 C 29.7219 -1.79805 0.588797 0
M  V30 289 O 29.0649 -1.78055 -0.451883 0
M  V30 290 C 29.1269 -1.99515 2.99055 0
M  V30 291 C 28.7909 -1.38688 4.35448 0
M  V30 292 C 29.7879 -0.794079 5.138 0
M  V30 293 C 27.4729 -1.40906 4.82132 0
M  V30 294 C 29.4669 -0.231562 6.36979 0
M  V30 295 C 27.1539 -0.842684 6.05262 0
M  V30 296 C 28.1519 -0.254953 6.82524 0
M  V30 297 O 27.8399 0.3027 8.0333 0
M  V30 298 H 27.5719 -0.300919 0.60533 0
M  V30 299 H 30.1259 -0.287307 2.03381 0
M  V30 300 H 28.3559 -2.74785 2.72084 0
M  V30 301 H 30.0449 -2.60349 3.11405 0
M  V30 302 H 30.8109 -0.769519 4.78856 0
M  V30 303 H 26.6899 -1.85591 4.21992 0
M  V30 304 H 30.2339 0.227816 6.97228 0
M  V30 305 H 26.1309 -0.86454 6.39684 0
M  V30 306 H 26.8989 0.193662 8.18271 0
M  V30 307 N 29.562 -1.4872 -0.521534 0
M  V30 308 C 30.792 -1.6061 -1.29954 0
M  V30 309 C 31.2 -0.268728 -1.87282 0
M  V30 310 O 30.543 0.753221 -1.67548 0
M  V30 311 C 30.605 -2.60013 -2.48261 0
M  V30 312 C 30.269 -4.04874 -2.11957 0
M  V30 313 C 31.266 -4.92304 -1.67132 0
M  V30 314 C 28.951 -4.5047 -2.22221 0
M  V30 315 C 30.945 -6.2336 -1.33047 0
M  V30 316 C 28.632 -5.81544 -1.87748 0
M  V30 317 C 29.63 -6.67812 -1.43234 0
M  V30 318 O 29.318 -7.96446 -1.09217 0
M  V30 319 H 29.05 -0.544116 -0.401141 0
M  V30 320 H 31.604 -1.95339 -0.634958 0
M  V30 321 H 29.834 -2.20422 -3.17728 0
M  V30 322 H 31.523 -2.61648 -3.10315 0
M  V30 323 H 32.289 -4.58312 -1.58665 0
M  V30 324 H 28.168 -3.83504 -2.55823 0
M  V30 325 H 31.712 -6.90649 -0.982299 0
M  V30 326 H 27.609 -6.15069 -1.95858 0
M  V30 327 H 28.377 -8.09275 -1.22542 0
M  V30 328 N 31.0401 0.771051 -1.3745 0
M  V30 329 C 31.9881 1.90574 -1.33358 0
M  V30 330 C 32.9821 1.67936 -0.22224 0
M  V30 331 O 34.1881 1.75717 -0.390304 0
M  V30 332 H 30.5631 0.626714 -0.415612 0
M  V30 333 H 32.5341 1.91142 -2.29144 0
M  V30 334 C 31.2831 3.27845 -1.15813 0
M  V30 335 H 30.6061 3.45842 -2.00583 0
M  V30 336 H 32.0461 4.07538 -1.17 0
M  V30 337 C 30.5051 3.36625 0.136165 0
M  V30 338 O 31.0351 3.85785 1.11949 0
M  V30 339 N 29.2411 2.89997 0.187099 0
M  V30 340 H 28.7881 2.50182 -0.613753 0
M  V30 341 H 28.7461 2.96252 1.05272 0
M  V30 342 N 32.5182 1.22032 0.997298 0
M  V30 343 C 33.4652 0.986467 2.08656 0
M  V30 344 C 34.4352 -0.0902671 1.65855 0
M  V30 345 O 35.6202 0.0584294 1.90711 0
M  V30 346 C 32.7602 0.565569 3.40434 0
M  V30 347 C 31.8732 1.71259 3.96604 0
M  V30 348 C 31.0082 1.24011 5.16522 0
M  V30 349 C 30.0472 2.35896 5.64818 0
M  V30 350 N 29.1842 1.89726 6.7598 0
M  V30 351 H 34.0242 1.91892 2.27994 0
M  V30 352 H 31.5612 0.956199 1.11782 0
M  V30 353 H 33.5192 0.302738 4.161 0
M  V30 354 H 32.1492 -0.329879 3.2111 0
M  V30 355 H 31.2012 2.08986 3.17851 0
M  V30 356 H 32.5132 2.55436 4.28432 0
M  V30 357 H 31.6672 0.934395 5.99461 0
M  V30 358 H 30.4062 0.368487 4.86306 0
M  V30 359 H 29.4112 2.67261 4.8047 0
M  V30 360 H 30.6362 3.23567 5.97061 0
M  V30 361 H 28.5822 1.0492 6.47555 0
M  V30 362 H 28.4992 2.67471 7.07103 0
M  V30 363 H 29.7672 1.62211 7.62435 0
M  V30 364 N 33.9963 -1.19345 1.0293 0
M  V30 365 C 35.2423 -1.89318 0.727083 0
M  V30 366 C 35.5753 -1.79446 -0.742483 0
M  V30 367 O 34.8503 -1.1871 -1.54072 0
M  V30 368 C 35.1333 -3.40238 1.17942 0
M  V30 369 C 34.9863 -3.58979 2.71024 0
M  V30 370 C 36.3053 -4.33479 0.760548 0
M  V30 371 H 33.4243 -0.687475 0.265606 0
M  V30 372 H 36.0663 -1.40477 1.2793 0
M  V30 373 H 34.2163 -3.81964 0.709608 0
M  V30 374 H 35.8883 -3.26421 3.25955 0
M  V30 375 H 34.1313 -3.02018 3.11396 0
M  V30 376 H 34.8023 -4.64823 2.9773 0
M  V30 377 H 37.2783 -3.99469 1.16464 0
M  V30 378 H 36.1543 -5.37664 1.10493 0
M  V30 379 H 36.4153 -4.40813 -0.337063 0
M  V30 380 N 35.4744 -0.807222 -1.35358 0
M  V30 381 C 36.8904 -0.491038 -1.51858 0
M  V30 382 C 37.0904 0.987648 -1.75635 0
M  V30 383 O 36.1464 1.77265 -1.79815 0
M  V30 384 C 37.4594 -1.33695 -2.69344 0
M  V30 385 C 39.0074 -1.33246 -2.83222 0
M  V30 386 C 39.4824 -2.1625 -4.03733 0
M  V30 387 N 40.9734 -2.1379 -4.10911 0
M  V30 388 C 41.7084 -2.74772 -5.03277 0
M  V30 389 N 41.2044 -3.44684 -6.0097 0
M  V30 390 N 42.9974 -2.6441 -4.96028 0
M  V30 391 H 35.1484 -1.76485 -1.18181 0
M  V30 392 H 37.4114 -0.751199 -0.578276 0
M  V30 393 H 37.1174 -2.38634 -2.58354 0
M  V30 394 H 36.9914 -0.990618 -3.6396 0
M  V30 395 H 39.3784 -0.290911 -2.93663 0
M  V30 396 H 39.4594 -1.71866 -1.89461 0
M  V30 397 H 39.1034 -3.20445 -3.94052 0
M  V30 398 H 39.0334 -1.74989 -4.96675 0
M  V30 399 H 41.5244 -1.62923 -3.40976 0
M  V30 400 H 41.8374 -3.88501 -6.68047 0
M  V30 401 H 40.1824 -3.48788 -6.01142 0
M  V30 402 H 43.3734 -2.0938 -4.18662 0
M  V30 403 H 43.5464 -3.12225 -5.6782 0
M  V30 404 N 36.9525 1.47285 -0.560781 0
M  V30 405 C 37.8625 2.33846 0.187954 0
M  V30 406 C 38.8785 1.48412 0.908293 0
M  V30 407 O 40.0545 1.81332 0.876388 0
M  V30 408 C 37.1195 3.25178 1.2025 0
M  V30 409 C 36.1805 4.26504 0.489208 0
M  V30 410 C 35.4135 5.13472 1.45542 0
M  V30 411 O 35.6365 5.02959 2.6905 0
M  V30 412 O 34.5705 5.93902 0.977963 0
M  V30 413 H 38.3965 2.99177 -0.522177 0
M  V30 414 H 35.9815 1.45903 -0.321364 0
M  V30 415 H 37.8635 3.81584 1.78805 0
M  V30 416 H 36.5385 2.6247 1.89449 0
M  V30 417 H 35.4455 3.73847 -0.137627 0
M  V30 418 H 36.7785 4.91935 -0.161399 0
M  V30 419 N 38.4306 0.297415 1.54768 0
M  V30 420 C 39.3606 -0.573494 2.26348 0
M  V30 421 C 40.3416 -1.14085 1.26169 0
M  V30 422 O 41.5266 -1.17086 1.54934 0
M  V30 423 C 38.6566 -1.74716 3.00153 0
M  V30 424 C 37.6106 -1.31032 4.07449 0
M  V30 425 C 36.9366 -2.56887 4.68949 0
M  V30 426 C 38.2366 -0.444183 5.20408 0
M  V30 427 H 39.9306 0.0235131 2.99391 0
M  V30 428 H 37.4766 0.0127488 1.43994 0
M  V30 429 H 39.4296 -2.3625 3.48947 0
M  V30 430 H 38.1536 -2.37035 2.24682 0
M  V30 431 H 36.8126 -0.718066 3.59499 0
M  V30 432 H 36.4606 -3.17512 3.90122 0
M  V30 433 H 36.1606 -2.2836 5.41411 0
M  V30 434 H 37.6846 -3.19229 5.20505 0
M  V30 435 H 39.0986 -0.9651 5.65118 0
M  V30 436 H 37.4956 -0.252846 5.99567 0
M  V30 437 H 38.5656 0.531609 4.81977 0
M  V30 438 N 39.9087 -1.5758 0.0250728 0
M  V30 439 C 40.8387 -2.13007 -0.956575 0
M  V30 440 C 41.8197 -1.0452 -1.342 0
M  V30 441 O 43.0047 -1.32332 -1.42133 0
M  V30 442 C 40.1347 -2.65386 -2.24026 0
M  V30 443 C 39.0887 -3.78623 -1.99571 0
M  V30 444 C 38.4147 -4.17414 -3.3417 0
M  V30 445 C 39.7147 -5.04867 -1.33814 0
M  V30 446 H 41.4087 -2.9528 -0.494991 0
M  V30 447 H 38.9547 -1.42042 -0.236651 0
M  V30 448 H 40.9077 -3.02794 -2.93076 0
M  V30 449 H 39.6317 -1.80268 -2.72343 0
M  V30 450 H 38.2907 -3.41646 -1.32941 0
M  V30 451 H 37.9387 -3.29284 -3.80238 0
M  V30 452 H 37.6387 -4.93719 -3.18615 0
M  V30 453 H 39.1627 -4.57402 -4.04495 0
M  V30 454 H 40.5767 -5.39888 -1.92857 0
M  V30 455 H 38.9737 -5.86144 -1.28669 0
M  V30 456 H 40.0437 -4.83904 -0.310561 0
M  V30 457 N 41.3868 0.248026 -1.55636 0
M  V30 458 C 42.3338 1.30707 -1.90222 0
M  V30 459 C 43.3038 1.47881 -0.756332 0
M  V30 460 O 44.4888 1.61883 -1.00988 0
M  V30 461 C 41.6288 2.65769 -2.20138 0
M  V30 462 C 40.7418 2.56612 -3.47526 0
M  V30 463 C 39.8768 3.8402 -3.67017 0
M  V30 464 C 38.9158 3.69476 -4.8801 0
M  V30 465 N 38.0528 4.88774 -5.04029 0
M  V30 466 H 42.8928 1.00512 -2.80538 0
M  V30 467 H 40.4298 0.485055 -1.38873 0
M  V30 468 H 42.3878 3.44386 -2.35487 0
M  V30 469 H 41.0178 2.94115 -1.33027 0
M  V30 470 H 40.0698 1.69571 -3.40514 0
M  V30 471 H 41.3818 2.41774 -4.36287 0
M  V30 472 H 40.5358 4.7108 -3.8232 0
M  V30 473 H 39.2748 4.01754 -2.76487 0
M  V30 474 H 38.2798 2.80799 -4.72686 0
M  V30 475 H 39.5048 3.53238 -5.8 0
M  V30 476 H 37.4508 5.0687 -4.16435 0
M  V30 477 H 37.3678 4.76562 -5.86877 0
M  V30 478 H 38.6358 5.77335 -5.23741 0
M  V30 479 N 42.8649 1.48995 0.513639 0
M  V30 480 C 43.8119 1.6473 1.61656 0
M  V30 481 C 44.7819 0.488984 1.58739 0
M  V30 482 O 45.9669 0.714478 1.76918 0
M  V30 483 C 43.1069 1.7082 2.99858 0
M  V30 484 C 42.2199 2.9787 3.12885 0
M  V30 485 C 41.3549 2.95017 4.41744 0
M  V30 486 C 40.3939 4.16702 4.48359 0
M  V30 487 N 39.5309 4.11832 5.68629 0
M  V30 488 H 44.3709 2.58909 1.47547 0
M  V30 489 H 41.9079 1.28382 0.71808 0
M  V30 490 H 43.8659 1.72331 3.79944 0
M  V30 491 H 42.4959 0.801181 3.12699 0
M  V30 492 H 41.5479 3.06029 2.25944 0
M  V30 493 H 42.8599 3.8786 3.13633 0
M  V30 494 H 42.0139 2.95021 5.30139 0
M  V30 495 H 40.7529 2.02784 4.43542 0
M  V30 496 H 39.7579 4.16955 3.58369 0
M  V30 497 H 40.9829 5.10113 4.48287 0
M  V30 498 H 38.9289 3.22428 5.71293 0
M  V30 499 H 38.8459 4.95543 5.7094 0
M  V30 500 H 40.1139 4.1592 6.59266 0
M  V30 501 N 44.343 -0.763751 1.37857 0
M  V30 502 C 45.253 -1.90817 1.36478 0
M  V30 503 C 46.269 -1.71997 0.263248 0
M  V30 504 O 47.445 -1.95095 0.499979 0
M  V30 505 C 44.51 -3.2605 1.17864 0
M  V30 506 C 43.571 -3.57467 2.3773 0
M  V30 507 C 42.804 -4.86249 2.19995 0
M  V30 508 O 43.027 -5.57884 1.18836 0
M  V30 509 O 41.961 -5.16911 3.08361 0
M  V30 510 H 45.787 -1.94933 2.32884 0
M  V30 511 H 43.372 -0.907619 1.1867 0
M  V30 512 H 45.254 -4.06924 1.09504 0
M  V30 513 H 43.929 -3.22769 0.245372 0
M  V30 514 H 42.836 -2.76796 2.51664 0
M  V30 515 H 44.169 -3.655 3.29652 0
M  V30 516 N 45.8211 -1.22559 -0.990812 0
M  V30 517 C 46.7691 -0.994798 -2.10253 0
M  V30 518 C 47.7631 0.0627798 -1.69284 0
M  V30 519 O 48.9691 -0.0898392 -1.79776 0
M  V30 520 H 45.3441 -0.304527 -0.687581 0
M  V30 521 H 47.3151 -1.93812 -2.26891 0
M  V30 522 C 46.0641 -0.591439 -3.42633 0
M  V30 523 H 45.3871 -1.3969 -3.74602 0
M  V30 524 H 46.8271 -0.469385 -4.21394 0
M  V30 525 C 45.2861 0.699232 -3.29564 0
M  V30 526 O 45.8161 1.75112 -3.61523 0
M  V30 527 N 44.0221 0.671182 -2.82743 0
M  V30 528 H 43.5691 -0.185136 -2.56934 0
M  V30 529 H 43.5271 1.53502 -2.7438 0
M  V30 530 N 47.2992 1.18797 -1.03562 0
M  V30 531 C 48.5452 1.8893 -0.737113 0
M  V30 532 C 48.8782 1.79837 0.732956 0
M  V30 533 O 48.1532 1.19525 1.5344 0
M  V30 534 C 48.4362 3.39607 -1.19745 0
M  V30 535 C 48.2892 3.57537 -2.72924 0
M  V30 536 C 49.6082 4.33069 -0.783526 0
M  V30 537 H 46.7272 0.686057 -0.269249 0
M  V30 538 H 49.3692 1.39797 -1.28673 0
M  V30 539 H 47.5192 3.81583 -0.729855 0
M  V30 540 H 49.1912 3.24688 -3.27682 0
M  V30 541 H 47.4342 3.00363 -3.12993 0
M  V30 542 H 48.1052 4.63238 -3.00191 0
M  V30 543 H 50.5812 3.98846 -1.18581 0
M  V30 544 H 49.4572 5.3707 -1.13343 0
M  V30 545 H 49.7182 4.40986 0.313681 0
M  V30 546 N 48.7773 0.814389 1.34928 0
M  V30 547 C 49.7103 0.175641 2.27523 0
M  V30 548 C 50.6883 -0.662953 1.48471 0
M  V30 549 O 51.8723 -0.628545 1.77712 0
M  V30 550 C 48.9993 -0.755516 3.30166 0
M  V30 551 C 48.0453 0.00445305 4.265 0
M  V30 552 S 48.8783 1.34582 5.18313 0
M  V30 553 C 50.0343 0.419315 6.24494 0
M  V30 554 H 50.2673 0.960691 2.8135 0
M  V30 555 H 47.8003 0.609846 1.41846 0
M  V30 556 H 49.7583 -1.28723 3.89796 0
M  V30 557 H 48.4193 -1.51402 2.75202 0
M  V30 558 H 47.6123 -0.703077 4.99072 0
M  V30 559 H 47.2143 0.466447 3.7108 0
M  V30 560 H 49.5063 -0.392432 6.76362 0
M  V30 561 H 50.4493 1.11446 6.99275 0
M  V30 562 H 50.8573 0.0115389 5.64499 0
M  V30 563 N 50.2554 -1.46986 0.568584 0
M  V30 564 C 51.6664 -1.86188 0.138219 0
M  V30 565 C 52.0174 -1.47388 -1.29504 0
M  V30 566 O 51.1424 -0.88219 -1.97602 0
M  V30 567 C 51.7374 -3.3792 0.244065 0
M  V30 568 C 50.2964 -3.76171 -0.131335 0
M  V30 569 C 49.4434 -2.71027 0.586465 0
M  V30 570 H 52.3944 -1.38342 0.777645 0
M  V30 571 H 52.4154 -3.76729 -0.534351 0
M  V30 572 H 51.9274 -3.66128 1.28731 0
M  V30 573 H 50.0284 -3.5358 -1.17526 0
M  V30 574 H 50.1414 -4.78523 0.235146 0
M  V30 575 H 48.5054 -2.54684 0.0282722 0
M  V30 576 H 49.2884 -3.02077 1.63109 0
M  V30 577 N 51.7335 -0.305618 -1.54608 0
M  V30 578 C 52.6635 0.561482 -2.26649 0
M  V30 579 C 53.6445 1.13415 -1.26772 0
M  V30 580 O 54.8295 1.16262 -1.55553 0
M  V30 581 C 51.9595 1.73122 -3.01075 0
M  V30 582 C 50.9135 1.2887 -4.08138 0
M  V30 583 C 50.2395 2.54396 -4.70305 0
M  V30 584 C 51.5395 0.416578 -5.20636 0
M  V30 585 H 53.2335 -0.0393902 -2.99374 0
M  V30 586 H 50.7795 -0.020385 -1.43986 0
M  V30 587 H 52.7325 2.34396 -3.50195 0
M  V30 588 H 51.4565 2.3584 -2.25936 0
M  V30 589 H 50.1155 0.698991 -3.59875 0
M  V30 590 H 49.7635 3.15439 -3.918 0
M  V30 591 H 49.4635 2.25486 -5.42614 0
M  V30 592 H 50.9875 3.16464 -5.2219 0
M  V30 593 H 52.4015 0.935116 -5.65622 0
M  V30 594 H 50.7985 0.221046 -5.99693 0
M  V30 595 H 51.8685 -0.557162 -4.81688 0
M  V30 596 N 53.2116 1.57565 -0.0334293 0
M  V30 597 C 54.4606 1.91155 0.643639 0
M  V30 598 C 54.7736 0.91192 1.73042 0
M  V30 599 O 55.9796 1.13923 2.46442 0
M  V30 600 C 54.4356 3.39443 1.1961 0
M  V30 601 C 54.0436 4.47774 0.142381 0
M  V30 602 C 55.7876 3.82094 1.84944 0
M  V30 603 C 53.6946 5.87162 0.706727 0
M  V30 604 H 52.6246 0.713368 0.244176 0
M  V30 605 H 55.2756 1.8323 -0.0994323 0
M  V30 606 H 53.6576 3.42313 1.99092 0
M  V30 607 H 54.8316 4.56469 -0.630296 0
M  V30 608 H 53.1466 4.14352 -0.412446 0
M  V30 609 H 55.7436 4.83591 2.2813 0
M  V30 610 H 56.0866 3.17386 2.69392 0
M  V30 611 H 56.6196 3.81665 1.12145 0
M  V30 612 H 53.3586 6.55424 -0.0997178 0
M  V30 613 H 52.8786 5.82064 1.44779 0
M  V30 614 H 54.5576 6.35866 1.19514 0
M  V30 615 N 54.6897 -0.239769 1.55765 0
M  V30 616 C 56.1007 -0.808263 1.68297 0
M  V30 617 C 56.4517 -1.85736 0.632181 0
M  V30 618 O 55.5767 -2.15277 -0.220204 0
M  V30 619 C 56.1717 -1.47284 3.05111 0
M  V30 620 C 54.7307 -1.98895 3.19559 0
M  V30 621 C 53.8777 -0.842575 2.64189 0
M  V30 622 H 56.8287 -0.0154422 1.58692 0
M  V30 623 H 56.8497 -2.34111 2.99954 0
M  V30 624 H 56.3617 -0.709053 3.81568 0
M  V30 625 H 54.4627 -2.78132 2.47938 0
M  V30 626 H 54.5757 -2.18143 4.26556 0
M  V30 627 H 52.9397 -1.24501 2.22197 0
M  V30 628 H 53.7227 -0.0917552 3.43177 0
M  V30 629 N 56.1678 -1.49265 -0.50573 0
M  V30 630 C 57.3958 -1.62215 -1.28429 0
M  V30 631 C 57.8108 -0.291697 -1.86533 0
M  V30 632 O 57.1678 0.722233 -1.67601 0
M  V30 633 C 57.2188 -2.68735 -2.41793 0
M  V30 634 O 56.9398 -3.96619 -1.86078 0
M  V30 635 C 58.4408 -2.92346 -3.3324 0
M  V30 636 H 55.6608 -0.546239 -0.389697 0
M  V30 637 H 58.2048 -1.95265 -0.607609 0
M  V30 638 H 56.3598 -2.38476 -3.053 0
M  V30 639 H 56.7738 -4.55256 -2.60465 0
M  V30 640 H 58.2478 -3.70623 -4.09075 0
M  V30 641 H 58.7248 -2.02081 -3.89948 0
M  V30 642 H 59.3308 -3.24003 -2.75503 0
M  V30 643 N 57.6459 0.756429 -1.3826 0
M  V30 644 C 58.9229 1.50584 -1.24835 0
M  V30 645 C 59.3029 2.10556 0.151485 0
M  V30 646 O 58.6509 1.96825 1.1607 0
M  V30 647 C 58.8609 2.57448 -2.3563 0
M  V30 648 C 60.2089 3.24429 -2.73917 0
M  V30 649 O 61.2329 2.67751 -2.34921 0
M  V30 650 O 60.0919 4.26937 -3.41156 0
M  V30 651 H 57.1859 0.667664 -0.48801 0
M  V30 652 H 59.7319 0.792083 -1.5008 0
M  V30 653 H 58.5039 2.11362 -3.29305 0
M  V30 654 H 58.1269 3.36408 -2.11933 0
M  V30 655 N 59.124 1.23083 0.984299 0
M  V30 656 C 60.072 1.00593 2.09723 0
M  V30 657 C 61.066 -0.0538014 1.69315 0
M  V30 658 O 62.272 0.0993719 1.79725 0
M  V30 659 H 58.647 0.30817 0.685956 0
M  V30 660 H 60.618 1.95012 2.2586 0
M  V30 661 C 59.367 0.609601 3.42314 0
M  V30 662 H 58.69 1.41675 3.73856 0
M  V30 663 H 60.13 0.491726 4.21139 0
M  V30 664 C 58.589 -0.681745 3.2993 0
M  V30 665 O 59.119 -1.73192 3.62446 0
M  V30 666 N 57.325 -0.656178 2.83095 0
M  V30 667 H 56.872 0.198759 2.56832 0
M  V30 668 H 56.83 -1.52044 2.75191 0
M  V30 669 N 60.6021 -1.18246 1.0419 0
M  V30 670 C 61.5121 -2.25574 0.644476 0
M  V30 671 C 62.5281 -1.70845 -0.329826 0
M  V30 672 O 63.7041 -2.00554 -0.184443 0
M  V30 673 C 60.7691 -3.46697 0.014877 0
M  V30 674 C 59.8301 -4.16554 1.03834 0
M  V30 675 C 59.0631 -5.31894 0.438692 0
M  V30 676 O 59.2861 -5.65385 -0.754752 0
M  V30 677 O 58.2201 -5.90459 1.168 0
M  V30 678 H 62.0461 -2.61836 1.53869 0
M  V30 679 H 59.6311 -1.25352 0.812854 0
M  V30 680 H 61.5131 -4.20062 -0.335538 0
M  V30 681 H 60.1881 -3.12255 -0.853138 0
M  V30 682 H 59.0951 -3.45251 1.44057 0
M  V30 683 H 60.4281 -4.54998 1.87716 0
M  V30 684 N 62.0802 -0.821533 -1.34494 0
M  V30 685 C 63.0432 -0.247847 -2.27856 0
M  V30 686 C 64.0432 0.573453 -1.50227 0
M  V30 687 O 65.2332 0.389759 -1.69784 0
M  V30 688 C 62.3652 0.652698 -3.34593 0
M  V30 689 H 63.5582 -1.07146 -2.80107 0
M  V30 690 H 61.1112 -0.593291 -1.44602 0
M  V30 691 H 61.8462 1.49943 -2.87555 0
M  V30 692 H 61.6312 0.065292 -3.92046 0
M  V30 693 H 63.1212 1.04793 -4.04238 0
M  V30 694 N 63.5583 1.46682 -0.576371 0
M  V30 695 C 64.7863 2.06798 -0.0649635 0
M  V30 696 C 65.2013 1.42612 1.23723 0
M  V30 697 O 64.5583 0.529203 1.74659 0
M  V30 698 C 64.6093 3.6132 0.114202 0
M  V30 699 O 64.3303 4.23104 -1.13644 0
M  V30 700 C 65.8313 4.38349 0.66069 0
M  V30 701 H 63.0513 0.668778 -0.0545616 0
M  V30 702 H 65.5953 1.88404 -0.795237 0
M  V30 703 H 63.7503 3.79162 0.794673 0
M  V30 704 H 64.1643 5.15894 -0.946253 0
M  V30 705 H 65.6383 5.47081 0.73526 0
M  V30 706 H 66.1153 4.05953 1.67627 0
M  V30 707 H 66.7213 4.25297 0.0152951 0
M  V30 708 N 65.0364 0.313813 1.54444 0
M  V30 709 C 66.2844 -0.291099 1.99993 0
M  V30 710 C 66.6054 -1.53418 1.20366 0
M  V30 711 O 65.8754 -1.93544 0.302927 0
M  V30 712 H 64.4554 -0.110552 0.738774 0
M  V30 713 H 67.1174 0.428106 1.9014 0
M  V30 714 H 66.2134 -0.554268 3.07139 0
M  V30 715 N 66.5145 -1.57545 0.0417849 0
M  V30 716 C 67.4775 -2.09885 -0.92093 0
M  V30 717 C 68.4775 -1.01648 -1.24596 0
M  V30 718 O 69.6675 -1.27759 -1.1842 0
M  V30 719 C 66.7995 -2.57527 -2.23367 0
M  V30 720 H 67.9925 -2.96236 -0.467382 0
M  V30 721 H 65.5455 -1.5493 -0.206467 0
M  V30 722 H 66.2805 -1.74542 -2.73323 0
M  V30 723 H 66.0655 -3.36613 -2.01083 0
M  V30 724 H 67.5555 -2.98201 -2.92346 0
M  V30 725 N 67.9926 0.231505 -1.5589 0
M  V30 726 C 68.9226 1.29022 -1.94617 0
M  V30 727 C 69.9036 1.4941 -0.813067 0
M  V30 728 O 71.0886 1.6176 -1.07459 0
M  V30 729 C 68.2186 2.64199 -2.25424 0
M  V30 730 C 67.1726 2.58484 -3.41131 0
M  V30 731 C 66.4986 3.97599 -3.57518 0
M  V30 732 C 67.7986 2.1413 -4.76388 0
M  V30 733 H 69.4926 0.968563 -2.83301 0
M  V30 734 H 67.0386 0.464479 -1.36303 0
M  V30 735 H 68.9916 3.38413 -2.51107 0
M  V30 736 H 67.7156 2.98032 -1.33583 0
M  V30 737 H 66.3746 1.86727 -3.15481 0
M  V30 738 H 66.0226 4.28723 -2.6307 0
M  V30 739 H 65.7226 3.94659 -4.35337 0
M  V30 740 H 67.2466 4.7349 -3.85538 0
M  V30 741 H 68.6606 2.78083 -5.01341 0
M  V30 742 H 67.0576 2.2227 -5.57419 0
M  V30 743 H 68.1276 1.09331 -4.72414 0
M  V30 744 N 69.4707 1.49531 0.497807 0
M  V30 745 C 70.7477 1.49682 1.25915 0
M  V30 746 C 71.1277 0.226339 2.09883 0
M  V30 747 O 70.4757 -0.791189 2.14365 0
M  V30 748 C 70.6857 2.77755 2.11313 0
M  V30 749 C 72.0337 3.27371 2.70395 0
M  V30 750 O 73.0577 2.78894 2.21578 0
M  V30 751 O 71.9167 4.11808 3.59272 0
M  V30 752 H 69.0107 0.599228 0.56996 0
M  V30 753 H 71.5567 1.61798 0.511816 0
M  V30 754 H 70.3287 3.61713 1.49264 0
M  V30 755 H 69.9517 2.68515 2.93233 0
M  V30 756 N 70.9488 -0.749086 1.3866 0
M  V30 757 C 72.1978 -1.50371 1.3443 0
M  V30 758 C 72.5108 -1.95503 -0.0616397 0
M  V30 759 O 73.7168 -2.70554 -0.226489 0
M  V30 760 C 72.1728 -2.71644 2.36088 0
M  V30 761 C 71.7808 -2.3352 3.82325 0
M  V30 762 C 73.5248 -3.49518 2.40909 0
M  V30 763 C 71.4318 -3.51431 4.75658 0
M  V30 764 H 70.3618 -0.564628 0.499712 0
M  V30 765 H 73.0128 -0.818449 1.64237 0
M  V30 766 H 71.3948 -3.42175 1.9933 0
M  V30 767 H 72.5688 -1.70627 4.28046 0
M  V30 768 H 70.8838 -1.6877 3.80665 0
M  V30 769 H 73.4808 -4.37197 3.07836 0
M  V30 770 H 73.8238 -3.90992 1.42937 0
M  V30 771 H 74.3568 -2.86005 2.76489 0
M  V30 772 H 71.0958 -3.15019 5.74842 0
M  V30 773 H 70.6158 -4.13352 4.34627 0
M  V30 774 H 72.2948 -4.17953 4.93887 0
M  V30 775 N 72.4269 -1.23603 -0.977757 0
M  V30 776 C 73.8429 -0.999251 -1.24447 0
M  V30 777 C 74.0429 0.298053 -1.99283 0
M  V30 778 O 73.0989 1.01681 -2.31122 0
M  V30 779 C 74.4119 -2.20784 -2.04144 0
M  V30 780 C 75.9599 -2.25303 -2.17273 0
M  V30 781 C 76.4349 -3.45755 -3.00362 0
M  V30 782 N 77.9259 -3.4601 -3.07947 0
M  V30 783 C 78.6609 -4.35868 -3.72568 0
M  V30 784 N 78.1569 -5.35966 -4.38991 0
M  V30 785 N 79.9499 -4.23605 -3.6948 0
M  V30 786 H 72.1009 -2.06986 -0.476483 0
M  V30 787 H 74.3639 -0.907801 -0.273134 0
M  V30 788 H 74.0699 -3.14945 -1.56533 0
M  V30 789 H 73.9439 -2.22085 -3.04891 0
M  V30 790 H 76.3309 -1.3168 -2.64092 0
M  V30 791 H 76.4119 -2.28033 -1.15907 0
M  V30 792 H 76.0559 -4.39687 -2.5424 0
M  V30 793 H 75.9859 -3.40266 -4.01904 0
M  V30 794 H 78.4769 -2.73588 -2.60688 0
M  V30 795 H 78.7899 -6.00783 -4.86086 0
M  V30 796 H 77.1349 -5.39863 -4.37691 0
M  V30 797 H 80.3259 -3.44647 -3.16759 0
M  V30 798 H 80.4989 -4.93836 -4.1956 0
M  V30 799 N 73.905 1.17692 -1.04816 0
M  V30 800 C 74.837 2.21103 -0.603822 0
M  V30 801 C 75.85 1.59411 0.33046 0
M  V30 802 O 77.039 1.7807 0.12379 0
M  V30 803 C 74.139 3.38623 0.136898 0
M  V30 804 C 73.312 4.29888 -0.807137 0
M  V30 805 C 72.371 5.26088 -0.10836 0
M  V30 806 O 71.397 5.64353 -0.741232 0
M  V30 807 N 72.599 5.68882 1.15558 0
M  V30 808 H 75.364 2.59848 -1.49329 0
M  V30 809 H 72.925 1.32553 -0.929587 0
M  V30 810 H 74.917 4.00009 0.614401 0
M  V30 811 H 73.487 2.98508 0.927993 0
M  V30 812 H 72.707 3.65993 -1.46434 0
M  V30 813 H 73.995 4.87759 -1.44807 0
M  V30 814 H 73.393 5.39861 1.69015 0
M  V30 815 H 71.95 6.32429 1.57722 0
M  V30 816 N 75.3831 0.828654 1.34056 0
M  V30 817 C 76.3301 0.252567 2.29414 0
M  V30 818 C 77.3001 -0.62588 1.53857 0
M  V30 819 O 78.4851 -0.566312 1.82202 0
M  V30 820 C 75.6251 -0.574831 3.40279 0
M  V30 821 C 74.7381 0.326499 4.30764 0
M  V30 822 C 73.8731 -0.511016 5.28736 0
M  V30 823 C 72.9121 0.389342 6.1086 0
M  V30 824 N 72.0491 -0.409439 7.00905 0
M  V30 825 H 76.8891 1.07108 2.78086 0
M  V30 826 H 74.4261 0.539677 1.36843 0
M  V30 827 H 76.3841 -1.06992 4.03248 0
M  V30 828 H 75.0141 -1.35841 2.92826 0
M  V30 829 H 74.0661 0.939837 3.68607 0
M  V30 830 H 75.3781 1.01857 4.88289 0
M  V30 831 H 74.5321 -1.07035 5.97184 0
M  V30 832 H 73.2711 -1.23657 4.71763 0
M  V30 833 H 72.2761 0.960769 5.4134 0
M  V30 834 H 73.5011 1.1131 6.69916 0
M  V30 835 H 71.4471 -1.11856 6.46393 0
M  V30 836 H 71.3641 0.224126 7.55668 0
M  V30 837 H 72.6321 -0.951336 7.73673 0
M  V30 838 N 76.8612 -1.46375 0.584142 0
M  V30 839 C 77.8092 -2.32042 -0.161047 0
M  V30 840 C 78.8032 -1.44569 -0.882966 0
M  V30 841 O 80.0092 -1.61186 -0.801191 0
M  V30 842 H 76.3842 -0.748659 -0.0708033 0
M  V30 843 H 78.3552 -2.92704 0.580269 0
M  V30 844 C 77.1042 -3.27762 -1.1605 0
M  V30 845 H 76.4272 -3.95051 -0.614419 0
M  V30 846 H 77.8672 -3.90481 -1.65228 0
M  V30 847 C 76.3262 -2.53218 -2.22221 0
M  V30 848 O 76.8562 -2.29628 -3.29597 0
M  V30 849 N 75.0622 -2.13756 -1.96868 0
M  V30 850 H 74.6092 -2.33142 -1.09557 0
M  V30 851 H 74.5672 -1.642 -2.68115 0
M  V30 852 N 78.3393 -0.321999 -1.54275 0
M  V30 853 C 79.5883 0.281931 -1.9972 0
M  V30 854 C 79.9013 1.53369 -1.21397 0
M  V30 855 O 81.1073 2.21352 -1.57211 0
M  V30 856 C 79.5633 0.5529 -3.55628 0
M  V30 857 C 79.1713 -0.681721 -4.42783 0
M  V30 858 C 80.9153 1.11687 -4.09544 0
M  V30 859 C 78.8223 -0.382742 -5.9016 0
M  V30 860 H 77.7523 0.109124 -0.746062 0
M  V30 861 H 80.4033 -0.43398 -1.78294 0
M  V30 862 H 78.7853 1.32896 -3.73035 0
M  V30 863 H 79.9593 -1.45723 -4.37151 0
M  V30 864 H 78.2743 -1.1658 -3.99748 0
M  V30 865 H 80.8713 1.35515 -5.17242 0
M  V30 866 H 81.2143 2.06575 -3.61431 0
M  V30 867 H 81.7473 0.402032 -3.95763 0
M  V30 868 H 78.4863 -1.30076 -6.42464 0
M  V30 869 H 78.0063 0.355094 -5.98748 0
M  V30 870 H 79.6853 0.00800157 -6.47 0
M  V30 871 N 79.8174 1.5752 -0.0501392 0
M  V30 872 C 80.7494 2.08413 0.95376 0
M  V30 873 C 81.7624 1.01175 1.27544 0
M  V30 874 O 82.9514 1.28744 1.23641 0
M  V30 875 C 80.0514 2.51138 2.27559 0
M  V30 876 C 79.2244 3.817 2.13598 0
M  V30 877 C 78.2834 4.10749 3.28895 0
M  V30 878 O 77.3094 4.80685 3.04845 0
M  V30 879 N 78.5114 3.62579 4.5334 0
M  V30 880 H 81.2764 2.95165 0.519383 0
M  V30 881 H 78.8374 1.61327 0.136127 0
M  V30 882 H 80.8294 2.67648 3.03557 0
M  V30 883 H 79.3994 1.6964 2.62567 0
M  V30 884 H 78.6194 3.74782 1.22197 0
M  V30 885 H 79.9074 4.67201 2.01496 0
M  V30 886 H 79.3054 3.06039 4.75769 0
M  V30 887 H 77.8624 3.84329 5.26436 0
M  V30 888 N 81.2955 -0.223234 1.56011 0
M  V30 889 C 82.2285 -1.30377 1.87289 0
M  V30 890 C 83.2065 -1.45286 0.730112 0
M  V30 891 O 84.3905 -1.61126 0.978302 0
M  V30 892 C 81.5175 -2.67431 2.07843 0
M  V30 893 C 80.5635 -2.69546 3.30526 0
M  V30 894 S 81.3965 -2.23781 4.865 0
M  V30 895 C 82.5525 -3.62714 5.10088 0
M  V30 896 H 82.7855 -1.03652 2.78646 0
M  V30 897 H 80.3185 -0.425393 1.48424 0
M  V30 898 H 82.2765 -3.46336 2.20368 0
M  V30 899 H 80.9375 -2.91381 1.17285 0
M  V30 900 H 80.1305 -3.70255 3.41947 0
M  V30 901 H 79.7325 -1.98703 3.16849 0
M  V30 902 H 82.0245 -4.58391 4.98883 0
M  V30 903 H 82.9675 -3.5621 6.11981 0
M  V30 904 H 83.3755 -3.56323 4.37829 0
M  V30 905 N 82.7736 -1.49793 -0.48987 0
M  V30 906 C 84.0226 -1.59085 -1.23995 0
M  V30 907 C 84.3356 -0.287907 -1.9347 0
M  V30 908 O 85.5416 -0.259506 -2.70257 0
M  V30 909 C 83.9976 -2.80736 -2.252 0
M  V30 910 C 83.6056 -4.17833 -1.61614 0
M  V30 911 C 85.3496 -2.99364 -3.00967 0
M  V30 912 C 83.2566 -5.30693 -2.60996 0
M  V30 913 H 82.1866 -0.592372 -0.466488 0
M  V30 914 H 84.8376 -1.76197 -0.51252 0
M  V30 915 H 83.2196 -2.57142 -3.01154 0
M  V30 916 H 84.3936 -4.51608 -0.915774 0
M  V30 917 H 82.7086 -4.04656 -0.981977 0
M  V30 918 H 85.3056 -3.80851 -3.75308 0
M  V30 919 H 85.6486 -2.10356 -3.59244 0
M  V30 920 H 86.1816 -3.2305 -2.32128 0
M  V30 921 H 82.9206 -6.21796 -2.07485 0
M  V30 922 H 82.4406 -5.01359 -3.2924 0
M  V30 923 H 84.1196 -5.6049 -3.23202 0
M  V30 924 N 84.2517 0.741722 -1.39055 0
M  V30 925 C 85.1987 1.85566 -1.37237 0
M  V30 926 C 86.1687 1.64457 -0.233072 0
M  V30 927 O 87.3537 1.85957 -0.427147 0
M  V30 928 C 84.4937 3.23004 -1.215 0
M  V30 929 C 83.6067 3.55864 -2.44918 0
M  V30 930 C 82.7417 4.82669 -2.21821 0
M  V30 931 C 81.7807 5.08351 -3.40948 0
M  V30 932 N 80.9177 6.26356 -3.17211 0
M  V30 933 H 85.7577 1.86455 -2.32462 0
M  V30 934 H 83.2947 0.911176 -1.15482 0
M  V30 935 H 85.2527 4.02331 -1.10389 0
M  V30 936 H 83.8827 3.21411 -0.29908 0
M  V30 937 H 82.9347 2.7129 -2.66657 0
M  V30 938 H 84.2467 3.70765 -3.33668 0
M  V30 939 H 83.4007 5.69962 -2.07914 0
M  V30 940 H 82.1397 4.69929 -1.30454 0
M  V30 941 H 81.1447 4.19522 -3.55361 0
M  V30 942 H 82.3697 5.22981 -4.33207 0
M  V30 943 H 80.3157 6.14917 -2.28502 0
M  V30 944 H 80.2327 6.41813 -3.99515 0
M  V30 945 H 81.5007 7.16506 -3.06984 0
M  V30 946 N 85.7298 1.2412 0.971189 0
M  V30 947 C 87.0068 0.986867 1.6888 0
M  V30 948 C 87.3868 -0.491857 2.0529 0
M  V30 949 O 86.7348 -1.46531 1.75331 0
M  V30 950 C 86.9448 1.9063 2.92338 0
M  V30 951 C 88.2928 2.17515 3.64654 0
M  V30 952 O 89.3168 1.88254 3.02388 0
M  V30 953 O 88.1758 2.6719 4.7673 0
M  V30 954 H 85.2698 0.372944 0.738134 0
M  V30 955 H 87.8158 1.35203 1.02559 0
M  V30 956 H 86.5878 2.90552 2.62097 0
M  V30 957 H 86.2108 1.54408 3.66393 0
M  V30 958 N 87.2079 -1.17134 1.05439 0
M  V30 959 C 88.4479 -1.89137 0.77502 0
M  V30 960 C 88.8119 -1.79345 -0.685526 0
M  V30 961 O 90.0129 -2.46188 -1.0791 0
M  V30 962 C 88.2839 -3.35003 1.2453 0
M  V30 963 S 89.8429 -4.24952 1.09367 0
M  V30 964 H 86.6609 -0.652949 0.281387 0
M  V30 965 H 89.2629 -1.4145 1.34953 0
M  V30 966 H 87.9669 -3.39666 2.30338 0
M  V30 967 H 87.4979 -3.87736 0.665166 0
M  V30 968 H 89.5129 -4.96196 0.0193397 0
M  V30 969 N 88.686 -0.835752 -1.33615 0
M  V30 970 C 89.963 -0.352017 -1.92406 0
M  V30 971 C 90.343 1.16225 -1.76224 0
M  V30 972 O 89.691 1.97526 -1.14873 0
M  V30 973 C 89.901 -0.795485 -3.39813 0
M  V30 974 C 91.249 -0.801703 -4.16963 0
M  V30 975 O 92.273 -0.738889 -3.48452 0
M  V30 976 O 91.132 -0.886607 -5.3926 0
M  V30 977 H 88.226 -0.0989641 -0.821057 0
M  V30 978 H 90.772 -0.921397 -1.42507 0
M  V30 979 H 89.544 -1.83795 -3.45449 0
M  V30 980 H 89.167 -0.202505 -3.97084 0
M  V30 981 N 90.1641 1.46063 -0.591896 0
M  V30 982 C 91.1271 2.28854 0.125973 0
M  V30 983 C 92.1271 1.38903 0.810107 0
M  V30 984 O 93.3171 1.61186 0.66066 0
M  V30 985 C 90.4491 3.19526 1.1881 0
M  V30 986 H 91.6421 2.93802 -0.601717 0
M  V30 987 H 89.1951 1.52325 -0.350254 0
M  V30 988 H 89.9301 2.59345 1.94707 0
M  V30 989 H 89.7151 3.85766 0.701936 0
M  V30 990 H 91.2051 3.81817 1.69132 0
M  V30 991 N 91.6422 0.330177 1.54103 0
M  V30 992 C 92.8882 -0.270806 2.00984 0
M  V30 993 C 93.2212 -1.51265 1.21789 0
M  V30 994 O 92.4962 -1.92142 0.301927 0
M  V30 995 C 92.7792 -0.598339 3.55094 0
M  V30 996 C 92.6322 0.654674 4.4501 0
M  V30 997 C 93.9512 -1.41334 4.16789 0
M  V30 998 H 91.0702 -0.0969531 0.730595 0
M  V30 999 H 93.7122 0.448066 1.84641 0
M  V30 1000 H 91.8622 -1.21078 3.69151 0
M  V30 1001 H 93.5342 1.29285 4.42813 0
M  V30 1002 H 91.7772 1.28224 4.14416 0
M  V30 1003 H 92.4482 0.380944 5.50684 0
M  V30 1004 H 94.9242 -0.895597 4.06347 0
M  V30 1005 H 93.8002 -1.61127 5.24718 0
M  V30 1006 H 94.0612 -2.41146 3.70541 0
M  V30 1007 N 93.1203 -1.57491 0.0584922 0
M  V30 1008 C 94.3693 -1.92155 -0.613146 0
M  V30 1009 C 94.6823 -0.939334 -1.71569 0
M  V30 1010 O 95.8883 -1.17829 -2.44599 0
M  V30 1011 C 94.3443 -3.41303 -1.14195 0
M  V30 1012 C 93.9523 -4.47944 -0.0711265 0
M  V30 1013 C 95.6963 -3.84988 -1.78841 0
M  V30 1014 C 93.6033 -5.88212 -0.613225 0
M  V30 1015 H 92.5333 -0.717162 -0.232796 0
M  V30 1016 H 95.1843 -1.83049 0.12857 0
M  V30 1017 H 93.5663 -3.45437 -1.93621 0
M  V30 1018 H 94.7403 -4.55408 0.702836 0
M  V30 1019 H 93.0553 -4.13644 0.478313 0
M  V30 1020 H 95.6523 -4.87159 -2.20408 0
M  V30 1021 H 95.9953 -3.21632 -2.64308 0
M  V30 1022 H 96.5283 -3.83401 -1.06059 0
M  V30 1023 H 93.2673 -6.55183 0.203978 0
M  V30 1024 H 92.7873 -5.84294 -1.35501 0
M  V30 1025 H 94.4663 -6.37687 -1.09383 0
M  V30 1026 N 94.5984 0.214957 -1.56127 0
M  V30 1027 C 95.5614 1.24997 -1.92116 0
M  V30 1028 C 96.5614 1.39467 -0.800344 0
M  V30 1029 O 97.7514 1.37619 -1.06802 0
M  V30 1030 C 94.8834 2.62271 -2.17777 0
M  V30 1031 H 96.0764 0.942875 -2.84693 0
M  V30 1032 H 93.6294 0.455654 -1.49511 0
M  V30 1033 H 94.3644 2.98068 -1.27773 0
M  V30 1034 H 94.1494 2.53143 -2.99434 0
M  V30 1035 H 95.6394 3.36946 -2.46693 0
M  V30 1036 N 96.0765 1.50051 0.48192 0
M  V30 1037 C 97.3535 1.51009 1.2432 0
M  V30 1038 C 97.7335 0.248587 2.09631 0
M  V30 1039 O 97.0815 -0.768409 2.15192 0
M  V30 1040 C 97.2915 2.79981 2.08355 0
M  V30 1041 C 98.6395 3.3022 2.66908 0
M  V30 1042 O 99.6635 2.81228 2.18607 0
M  V30 1043 O 98.5225 4.15595 3.54884 0
M  V30 1044 H 95.6165 0.605239 0.563573 0
M  V30 1045 H 98.1625 1.62332 0.494627 0
M  V30 1046 H 96.9345 3.63275 1.45419 0
M  V30 1047 H 96.5575 2.7161 2.90368 0
M  V30 1048 N 97.5546 -0.734337 1.39446 0
M  V30 1049 C 98.4846 -1.86155 1.40955 0
M  V30 1050 C 99.4656 -1.67898 0.272827 0
M  V30 1051 O 100.651 -1.88207 0.478743 0
M  V30 1052 C 97.7806 -3.23912 1.25294 0
M  V30 1053 C 96.7346 -3.56808 2.36373 0
M  V30 1054 C 96.0606 -4.93508 2.058 0
M  V30 1055 C 97.3606 -3.59713 3.78687 0
M  V30 1056 H 99.0546 -1.8515 2.35287 0
M  V30 1057 H 96.6006 -0.889367 1.13253 0
M  V30 1058 H 98.5536 -4.02443 1.2497 0
M  V30 1059 H 97.2776 -3.25446 0.274308 0
M  V30 1060 H 95.9366 -2.80606 2.35914 0
M  V30 1061 H 95.5846 -4.91623 1.06374 0
M  V30 1062 H 95.2846 -5.16486 2.80208 0
M  V30 1063 H 96.8086 -5.74396 2.07128 0
M  V30 1064 H 98.2226 -4.2832 3.81071 0
M  V30 1065 H 96.6196 -3.94209 4.52459 0
M  V30 1066 H 97.6896 -2.59504 4.09617 0
M  V30 1067 N 99.0327 -1.24633 -0.964593 0
M  V30 1068 C 100.258 -1.11596 -1.74818 0
M  V30 1069 C 100.683 0.32723 -1.85232 0
M  V30 1070 O 100.041 1.23695 -1.32549 0
M  V30 1071 C 100.089 -1.76397 -3.1451 0
M  V30 1072 O 99.1927 -1.03685 -3.99153 0
M  V30 1073 H 98.5337 -0.390196 -0.537255 0
M  V30 1074 H 101.064 -1.65002 -1.20977 0
M  V30 1075 H 101.074 -1.8228 -3.65018 0
M  V30 1076 H 99.7487 -2.81401 -3.06246 0
M  V30 1077 H 98.3257 -1.05611 -3.57632 0
M  V30 1078 N 100.511 1.16574 -1.06058 0
M  V30 1079 C 101.922 1.68662 -0.800632 0
M  V30 1080 C 102.273 1.84184 0.67608 0
M  V30 1081 O 101.398 1.53568 1.52466 0
M  V30 1082 C 101.993 3.06356 -1.44676 0
M  V30 1083 C 100.552 3.55575 -1.23465 0
M  V30 1084 C 99.6988 2.31616 -1.52477 0
M  V30 1085 H 102.65 1.00969 -1.22438 0
M  V30 1086 H 102.671 3.70636 -0.860788 0
M  V30 1087 H 102.183 2.95027 -2.52152 0
M  V30 1088 H 100.284 3.72167 -0.179527 0
M  V30 1089 H 100.397 4.37812 -1.94571 0
M  V30 1090 H 98.7608 2.36512 -0.945209 0
M  V30 1091 H 99.5438 2.22887 -2.61106 0
M  V30 1092 N 101.989 0.842826 1.3317 0
M  V30 1093 C 103.236 0.440447 1.97652 0
M  V30 1094 C 103.564 -1.00123 1.6675 0
M  V30 1095 O 102.819 -1.7155 0.941761 0
M  V30 1096 C 103.118 0.612607 3.52111 0
M  V30 1097 C 102.784 2.02297 4.02972 0
M  V30 1098 C 101.446 2.40874 4.16573 0
M  V30 1099 C 103.798 2.94402 4.30089 0
M  V30 1100 C 101.126 3.70852 4.54627 0
M  V30 1101 C 103.478 4.23865 4.69597 0
M  V30 1102 C 102.142 4.62392 4.81404 0
M  V30 1103 H 101.412 0.161171 0.72326 0
M  V30 1104 H 104.059 1.07061 1.58777 0
M  V30 1105 H 102.364 -0.100849 3.9167 0
M  V30 1106 H 104.061 0.2815 4.00011 0
M  V30 1107 H 100.651 1.71338 3.92863 0
M  V30 1108 H 104.835 2.65835 4.19101 0
M  V30 1109 H 100.091 4.00501 4.61962 0
M  V30 1110 H 104.265 4.95306 4.89536 0
M  V30 1111 H 101.892 5.63154 5.10648 0
M  V30 1112 N 103.467 -1.45747 0.599634 0
M  V30 1113 C 104.883 -1.57424 0.26264 0
M  V30 1114 C 105.083 -1.59222 -1.23493 0
M  V30 1115 O 104.139 -1.51825 -2.01756 0
M  V30 1116 C 105.452 -2.86061 0.926795 0
M  V30 1117 C 107 -2.99722 0.901967 0
M  V30 1118 C 107.475 -4.31119 1.54598 0
M  V30 1119 N 108.966 -4.37858 1.5111 0
M  V30 1120 C 109.701 -5.3818 1.97863 0
M  V30 1121 N 109.197 -6.45083 2.52666 0
M  V30 1122 N 110.99 -5.29487 1.88679 0
M  V30 1123 H 103.141 -1.42823 1.57211 0
M  V30 1124 H 105.404 -0.68235 0.658105 0
M  V30 1125 H 105.11 -2.90605 1.98095 0
M  V30 1126 H 104.984 -3.74563 0.445238 0
M  V30 1127 H 107.371 -2.9475 -0.143617 0
M  V30 1128 H 107.452 -2.12652 1.42171 0
M  V30 1129 H 107.096 -4.36849 2.59085 0
M  V30 1130 H 107.026 -5.16992 1.00132 0
M  V30 1131 H 109.517 -3.61209 1.11068 0
M  V30 1132 H 109.83 -7.17869 2.86155 0
M  V30 1133 H 108.175 -6.45856 2.56701 0
M  V30 1134 H 111.366 -4.44877 1.4561 0
M  V30 1135 H 111.539 -6.07524 2.25429 0
M  V30 1136 N 104.945 -0.338344 -1.53925 0
M  V30 1137 C 106.193 0.259245 -2.0043 0
M  V30 1138 C 106.514 1.51484 -1.22791 0
M  V30 1139 O 105.784 1.93037 -0.33368 0
M  V30 1140 H 104.364 0.0987845 -0.740439 0
M  V30 1141 H 107.026 -0.458302 -1.89435 0
M  V30 1142 H 106.122 0.505334 -3.07982 0
M  V30 1143 N 106.423 1.57458 -0.0668435 0
M  V30 1144 C 107.373 2.0896 0.912119 0
M  V30 1145 C 108.357 0.998186 1.26195 0
M  V30 1146 O 109.549 1.26133 1.24175 0
M  V30 1147 C 106.678 2.6508 2.18145 0
M  V30 1148 C 105.764 3.81218 1.85832 0
M  V30 1149 N 106.155 4.90378 1.23948 0
M  V30 1150 C 104.453 3.9042 2.15612 0
M  V30 1151 C 105.154 5.71279 1.09616 0
M  V30 1152 N 104.13 5.19389 1.60423 0
M  V30 1153 H 107.932 2.90749 0.42924 0
M  V30 1154 H 105.446 1.6182 0.137184 0
M  V30 1155 H 107.443 3.0029 2.89192 0
M  V30 1156 H 106.103 1.84736 2.67025 0
M  V30 1157 H 107.114 5.09847 0.909731 0
M  V30 1158 H 103.791 3.21043 2.66903 0
M  V30 1159 H 105.181 6.69085 0.614425 0
M  V30 1160 N 107.901 -0.206675 1.56239 0
M  V30 1161 C 108.811 -1.27686 1.96808 0
M  V30 1162 C 109.827 -1.50455 0.874035 0
M  V30 1163 O 111.003 -1.63295 1.17884 0
M  V30 1164 C 108.068 -2.60358 2.28942 0
M  V30 1165 C 107.129 -2.45762 3.51994 0
M  V30 1166 C 106.362 -3.72108 3.82585 0
M  V30 1167 O 106.585 -4.75776 3.14631 0
M  V30 1168 O 105.519 -3.6833 4.76043 0
M  V30 1169 H 109.345 -0.962593 2.88041 0
M  V30 1170 H 106.93 -0.410746 1.43643 0
M  V30 1171 H 108.812 -3.38687 2.50737 0
M  V30 1172 H 107.487 -2.91435 1.4088 0
M  V30 1173 H 106.394 -1.65584 3.35459 0
M  V30 1174 H 107.727 -2.19621 4.40486 0
M  V30 1175 N 109.379 -1.50304 -0.473955 0
M  V30 1176 C 110.79 -1.54042 -1.0549 0
M  V30 1177 C 111.141 -0.342248 -1.93192 0
M  V30 1178 O 110.266 0.545157 -2.09421 0
M  V30 1179 C 110.861 -2.79152 -1.91989 0
M  V30 1180 C 109.42 -2.8558 -2.45196 0
M  V30 1181 C 108.567 -2.48295 -1.2347 0
M  V30 1182 H 111.518 -1.5661 -0.256693 0
M  V30 1183 H 111.539 -2.60845 -2.7702 0
M  V30 1184 H 111.051 -3.66339 -1.28131 0
M  V30 1185 H 109.152 -2.02738 -3.12615 0
M  V30 1186 H 109.265 -3.88403 -2.80499 0
M  V30 1187 H 107.629 -2.00669 -1.56856 0
M  V30 1188 H 108.412 -3.37787 -0.612789 0
M  V30 1189 N 110.857 0.726932 -1.39834 0
M  V30 1190 C 112.134 1.47902 -1.28001 0
M  V30 1191 C 112.514 2.1083 0.106789 0
M  V30 1192 O 111.862 1.99242 1.11869 0
M  V30 1193 C 112.072 2.52392 -2.41038 0
M  V30 1194 C 113.42 3.18546 -2.80737 0
M  V30 1195 O 114.444 2.62708 -2.40547 0
M  V30 1196 O 113.303 4.19604 -3.50135 0
M  V30 1197 H 110.397 0.657163 -0.502062 0
M  V30 1198 H 112.943 0.760071 -1.51727 0
M  V30 1199 H 111.715 2.04329 -3.33715 0
M  V30 1200 H 111.338 3.31837 -2.19021 0
M  V30 1201 N 112.336 1.25143 0.95797 0
M  V30 1202 C 113.576 1.10893 1.71703 0
M  V30 1203 C 113.94 -0.34478 1.88879 0
M  V30 1204 O 115.141 -0.609014 2.6181 0
M  V30 1205 C 113.412 1.83889 3.06463 0
M  V30 1206 S 114.971 1.85491 3.97666 0
M  V30 1207 H 111.789 0.396428 0.590226 0
M  V30 1208 H 114.391 1.58618 1.14283 0
M  V30 1209 H 113.095 2.88756 2.9163 0
M  V30 1210 H 112.626 1.36538 3.68946 0
M  V30 1211 H 114.641 0.929553 4.87415 0
M  V30 1212 N 113.814 -1.1601 1.06675 0
M  V30 1213 C 115.062 -1.86264 0.784229 0
M  V30 1214 C 115.383 -1.82328 -0.691488 0
M  V30 1215 O 114.653 -1.25947 -1.50047 0
M  V30 1216 H 113.233 -0.689621 0.28711 0
M  V30 1217 H 115.895 -1.40664 1.34906 0
M  V30 1218 H 114.991 -2.91595 1.11259 0
M  V30 1219 N 115.292 -0.849877 -1.32721 0
M  V30 1220 C 116.52 -0.464754 -2.01613 0
M  V30 1221 C 116.935 0.937191 -1.63897 0
M  V30 1222 O 116.292 1.61081 -0.857856 0
M  V30 1223 C 116.343 -0.588638 -3.56675 0
M  V30 1224 O 116.064 -1.93535 -3.93034 0
M  V30 1225 C 117.565 -0.2019 -4.4284 0
M  V30 1226 H 114.785 -0.183215 -0.645502 0
M  V30 1227 H 117.329 -1.1455 -1.69407 0
M  V30 1228 H 115.484 0.0443159 -3.87375 0
M  V30 1229 H 115.898 -1.92871 -4.87751 0
M  V30 1230 H 117.372 -0.339599 -5.50954 0
M  V30 1231 H 117.849 0.857224 -4.30753 0
M  V30 1232 H 118.455 -0.809733 -4.17521 0
M  V30 1233 N 116.77 1.45427 -0.607355 0
M  V30 1234 C 117.733 2.28974 0.101693 0
M  V30 1235 C 118.733 1.39754 0.795329 0
M  V30 1236 O 119.923 1.61878 0.643527 0
M  V30 1237 C 117.055 3.20768 1.15414 0
M  V30 1238 H 118.248 2.93147 -0.632844 0
M  V30 1239 H 115.801 1.51945 -0.366391 0
M  V30 1240 H 116.536 2.61395 1.91945 0
M  V30 1241 H 116.321 3.86489 0.66098 0
M  V30 1242 H 117.811 3.83589 1.65073 0
M  V30 1243 N 118.248 0.346503 1.53744 0
M  V30 1244 C 119.495 -0.249104 2.00962 0
M  V30 1245 C 119.823 -1.5032 1.23426 0
M  V30 1246 O 119.078 -1.93217 0.310761 0
M  V30 1247 C 119.377 -0.605809 3.52228 0
M  V30 1248 C 119.043 0.551747 4.47512 0
M  V30 1249 C 117.705 0.86941 4.73281 0
M  V30 1250 C 120.057 1.32818 5.03993 0
M  V30 1251 C 117.385 1.96582 5.52786 0
M  V30 1252 C 119.737 2.41486 5.84694 0
M  V30 1253 C 118.401 2.73808 6.08757 0
M  V30 1254 H 117.671 -0.0911538 0.735372 0
M  V30 1255 H 120.318 0.475027 1.85515 0
M  V30 1256 H 118.623 -1.4107 3.65522 0
M  V30 1257 H 120.32 -1.07858 3.86222 0
M  V30 1258 H 116.91 0.294102 4.2759 0
M  V30 1259 H 121.094 1.09602 4.84047 0
M  V30 1260 H 116.35 2.22045 5.69654 0
M  V30 1261 H 120.524 3.02078 6.27473 0
M  V30 1262 H 118.151 3.58892 6.7015 0
M  V30 1263 N 119.726 -1.57421 0.075193 0
M  V30 1264 C 120.636 -2.1642 -0.905511 0
M  V30 1265 C 121.652 -1.12828 -1.32461 0
M  V30 1266 O 122.828 -1.45109 -1.39661 0
M  V30 1267 C 119.893 -2.71693 -2.15369 0
M  V30 1268 C 118.954 -3.90171 -1.79068 0
M  V30 1269 C 118.187 -4.42798 -2.97936 0
M  V30 1270 O 118.41 -3.94416 -4.12058 0
M  V30 1271 O 117.344 -5.34085 -2.77555 0
M  V30 1272 H 121.17 -3.00588 -0.433626 0
M  V30 1273 H 118.755 -1.48664 -0.148067 0
M  V30 1274 H 120.637 -3.07104 -2.88557 0
M  V30 1275 H 119.312 -1.90582 -2.61649 0
M  V30 1276 H 118.219 -3.59606 -1.03122 0
M  V30 1277 H 119.552 -4.72584 -1.37569 0
M  V30 1278 N 121.204 0.198386 -1.56346 0
M  V30 1279 C 122.45 0.920648 -1.80698 0
M  V30 1280 C 122.783 1.83045 -0.648697 0
M  V30 1281 O 122.058 1.91308 0.350925 0
M  V30 1282 C 122.341 1.73971 -3.15287 0
M  V30 1283 C 122.194 0.85485 -4.41602 0
M  V30 1284 C 123.513 2.71296 -3.46535 0
M  V30 1285 H 120.632 0.333261 -0.657348 0
M  V30 1286 H 123.274 0.188198 -1.89066 0
M  V30 1287 H 121.424 2.36416 -3.08285 0
M  V30 1288 H 123.096 0.245362 -4.60647 0
M  V30 1289 H 121.339 0.161398 -4.335 0
M  V30 1290 H 122.01 1.46286 -5.32264 0
M  V30 1291 H 124.486 2.18983 -3.53816 0
M  V30 1292 H 123.362 3.2569 -4.41834 0
M  V30 1293 H 123.623 3.5018 -2.69864 0
M  V30 1294 N 122.682 1.50554 0.465978 0
M  V30 1295 C 123.93 1.61479 1.21528 0
M  V30 1296 C 124.251 0.319596 1.92363 0
M  V30 1297 O 123.521 -0.663194 1.84333 0
M  V30 1298 H 122.101 0.595055 0.451573 0
M  V30 1299 H 124.763 1.87355 0.53704 0
M  V30 1300 H 123.859 2.42846 1.96042 0
M  V30 1301 N 124.16 -0.719506 1.40217 0
M  V30 1302 C 125.39 -1.50646 1.41384 0
M  V30 1303 C 125.798 -1.89197 0.0107743 0
M  V30 1304 O 125.141 -1.55709 -0.974708 0
M  V30 1305 C 125.203 -2.81405 2.23722 0
M  V30 1306 C 124.867 -2.65199 3.72181 0
M  V30 1307 C 125.864 -2.32717 4.64907 0
M  V30 1308 C 123.549 -2.81586 4.1595 0
M  V30 1309 C 125.543 -2.16827 5.99387 0
M  V30 1310 C 123.23 -2.65313 5.50502 0
M  V30 1311 C 124.228 -2.32981 6.42035 0
M  V30 1312 O 123.916 -2.16827 7.74107 0
M  V30 1313 H 123.648 -0.471606 0.484318 0
M  V30 1314 H 126.202 -0.895456 1.84853 0
M  V30 1315 H 124.432 -3.44823 1.75026 0
M  V30 1316 H 126.121 -3.43102 2.16878 0
M  V30 1317 H 126.887 -2.19694 4.32388 0
M  V30 1318 H 122.766 -3.0574 3.45027 0
M  V30 1319 H 126.31 -1.91513 6.70797 0
M  V30 1320 H 122.207 -2.7792 5.82607 0
M  V30 1321 H 122.975 -2.31778 7.84998 0
M  V30 1322 N 125.638 -1.25649 -0.95132 0
M  V30 1323 C 126.601 -1.06399 -2.03007 0
M  V30 1324 C 127.601 -0.0156794 -1.60792 0
M  V30 1325 O 128.791 -0.25817 -1.72276 0
M  V30 1326 C 125.923 -0.616184 -3.35285 0
M  V30 1327 H 127.116 -2.02164 -2.21517 0
M  V30 1328 H 124.669 -1.08103 -1.12887 0
M  V30 1329 H 125.404 0.343917 -3.22471 0
M  V30 1330 H 125.189 -1.37301 -3.67275 0
M  V30 1331 H 126.679 -0.503032 -4.14559 0
M  V30 1332 N 127.117 1.15442 -1.07289 0
M  V30 1333 C 128.08 2.18358 -0.696591 0
M  V30 1334 C 129.08 1.58637 0.262837 0
M  V30 1335 O 130.27 1.74145 0.0438809 0
M  V30 1336 C 127.402 3.4089 -0.0266151 0
M  V30 1337 H 128.595 2.53162 -1.60776 0
M  V30 1338 H 126.148 1.29893 -0.869342 0
M  V30 1339 H 126.883 3.11653 0.896822 0
M  V30 1340 H 126.668 3.85495 -0.716657 0
M  V30 1341 H 128.158 4.17009 0.222028 0
M  V30 1342 N 128.595 0.856903 1.32268 0
M  V30 1343 C 129.558 0.308171 2.27119 0
M  V30 1344 C 130.558 -0.533421 1.51695 0
M  V30 1345 O 131.748 -0.344607 1.70757 0
M  V30 1346 C 128.88 -0.563757 3.36206 0
M  V30 1347 H 130.073 1.14535 2.77167 0
M  V30 1348 H 127.626 0.631421 1.42978 0
M  V30 1349 H 128.361 -1.42266 2.91429 0
M  V30 1350 H 128.146 0.0386749 3.92081 0
M  V30 1351 H 129.636 -0.940386 4.06874 0
M  V30 1352 N 130.073 -1.45103 0.615059 0
M  V30 1353 C 131.003 -2.33339 -0.0865619 0
M  V30 1354 C 131.984 -1.4727 -0.851209 0
M  V30 1355 O 133.169 -1.76026 -0.820281 0
M  V30 1356 C 130.299 -3.30095 -1.07956 0
M  V30 1357 C 129.253 -4.25858 -0.427628 0
M  V30 1358 C 128.579 -5.12361 -1.5294 0
M  V30 1359 C 129.879 -5.18165 0.655944 0
M  V30 1360 H 131.573 -2.92254 0.650224 0
M  V30 1361 H 129.119 -1.40532 0.314138 0
M  V30 1362 H 131.072 -3.90698 -1.57901 0
M  V30 1363 H 129.796 -2.69355 -1.84703 0
M  V30 1364 H 128.455 -3.66564 0.0510292 0
M  V30 1365 H 128.103 -4.47984 -2.28734 0
M  V30 1366 H 127.803 -5.77238 -1.09865 0
M  V30 1367 H 129.327 -5.75833 -2.03098 0
M  V30 1368 H 130.741 -5.72796 0.240257 0
M  V30 1369 H 129.138 -5.91559 1.00888 0
M  V30 1370 H 130.208 -4.60144 1.52957 0
M  V30 1371 N 131.551 -0.354651 -1.53558 0
M  V30 1372 C 132.499 0.512195 -2.26891 0
M  V30 1373 C 133.493 1.09263 -1.29452 0
M  V30 1374 O 134.699 1.03709 -1.47121 0
M  V30 1375 H 131.074 0.183878 -0.729173 0
M  V30 1376 H 133.045 -0.128202 -2.98124 0
M  V30 1377 C 131.794 1.64563 -3.06291 0
M  V30 1378 H 131.117 1.20829 -3.81104 0
M  V30 1379 H 132.557 2.22711 -3.60799 0
M  V30 1380 C 131.016 2.58158 -2.16462 0
M  V30 1381 O 131.546 3.60695 -1.76811 0
M  V30 1382 N 129.752 2.27096 -1.81317 0
M  V30 1383 H 129.299 1.43751 -2.1376 0
M  V30 1384 H 129.257 2.89975 -1.21498 0
M  V30 1385 N 133.029 1.57378 -0.0835403 0
M  V30 1386 C 133.976 2.13384 0.879539 0
M  V30 1387 C 134.946 1.04936 1.28754 0
M  V30 1388 O 136.131 1.32662 1.37133 0
M  V30 1389 C 133.271 2.70932 2.13752 0
M  V30 1390 C 132.384 3.93575 1.7811 0
M  V30 1391 C 131.519 4.39326 2.98607 0
M  V30 1392 C 130.558 5.54587 2.59037 0
M  V30 1393 N 129.695 5.95243 3.72331 0
M  V30 1394 H 134.535 2.9537 0.395076 0
M  V30 1395 H 132.072 1.45953 0.183349 0
M  V30 1396 H 134.03 3.02411 2.87408 0
M  V30 1397 H 132.66 1.91693 2.59718 0
M  V30 1398 H 131.712 3.68483 0.94469 0
M  V30 1399 H 133.024 4.77258 1.45005 0
M  V30 1400 H 132.178 4.72528 3.80529 0
M  V30 1401 H 130.917 3.5452 3.34913 0
M  V30 1402 H 129.922 5.21024 1.75539 0
M  V30 1403 H 131.147 6.41133 2.23887 0
M  V30 1404 H 129.093 5.13385 4.08378 0
M  V30 1405 H 129.01 6.73694 3.43034 0
M  V30 1406 H 130.278 6.33072 4.54797 0
M  V30 1407 N 134.507 -0.190092 1.56449 0
M  V30 1408 C 135.44 -1.26375 1.90012 0
M  V30 1409 C 136.418 -1.43705 0.760765 0
M  V30 1410 O 137.602 -1.59014 1.01226 0
M  V30 1411 C 134.729 -2.62962 2.13468 0
M  V30 1412 C 133.775 -2.62474 3.36169 0
M  V30 1413 S 134.608 -2.13412 4.91137 0
M  V30 1414 C 135.764 -3.51812 5.17667 0
M  V30 1415 H 135.997 -0.977181 2.80782 0
M  V30 1416 H 133.53 -0.393814 1.49293 0
M  V30 1417 H 135.488 -3.41583 2.27664 0
M  V30 1418 H 134.149 -2.88828 1.23439 0
M  V30 1419 H 133.342 -3.62918 3.49723 0
M  V30 1420 H 132.944 -1.91937 3.20992 0
M  V30 1421 H 135.236 -4.47706 5.08494 0
M  V30 1422 H 136.179 -3.43148 6.19399 0
M  V30 1423 H 136.587 -3.46956 4.45288 0
M  V30 1424 N 135.985 -1.50799 -0.457987 0
M  V30 1425 C 137.231 -1.62683 -1.21088 0
M  V30 1426 C 137.564 -0.332268 -1.91336 0
M  V30 1427 O 136.839 0.667043 -1.82704 0
M  V30 1428 C 137.122 -2.81615 -2.24422 0
M  V30 1429 C 136.975 -4.20989 -1.58392 0
M  V30 1430 C 138.294 -2.96085 -3.2561 0
M  V30 1431 H 135.413 -0.592087 -0.438864 0
M  V30 1432 H 138.055 -1.83225 -0.50286 0
M  V30 1433 H 136.205 -2.64231 -2.84806 0
M  V30 1434 H 137.877 -4.49994 -1.01504 0
M  V30 1435 H 136.12 -4.24641 -0.886704 0
M  V30 1436 H 136.791 -5.0016 -2.33547 0
M  V30 1437 H 139.267 -3.12042 -2.75262 0
M  V30 1438 H 138.143 -3.80902 -3.95228 0
M  V30 1439 H 138.404 -2.0726 -3.90507 0
M  V30 1440 N 137.463 0.71206 -1.40597 0
M  V30 1441 C 138.393 1.83889 -1.43899 0
M  V30 1442 C 139.374 1.67442 -0.299504 0
M  V30 1443 O 140.559 1.87421 -0.508624 0
M  V30 1444 C 137.689 3.21877 -1.30431 0
M  V30 1445 C 136.643 3.53002 -2.42019 0
M  V30 1446 C 135.969 4.90172 -2.13626 0
M  V30 1447 C 137.269 3.53643 -3.84362 0
M  V30 1448 H 138.963 1.81383 -2.38203 0
M  V30 1449 H 136.509 0.871237 -1.14654 0
M  V30 1450 H 138.462 4.00404 -1.31357 0
M  V30 1451 H 137.186 3.24968 -0.326049 0
M  V30 1452 H 135.845 2.76818 -2.40349 0
M  V30 1453 H 135.493 4.89869 -1.14182 0
M  V30 1454 H 135.193 5.11962 -2.88389 0
M  V30 1455 H 136.717 5.71028 -2.1624 0
M  V30 1456 H 138.131 4.22203 -3.87837 0
M  V30 1457 H 136.528 3.86961 -4.58673 0
M  V30 1458 H 137.598 2.52954 -4.13693 0
M  V30 1459 N 138.941 1.26152 0.944643 0
M  V30 1460 C 140.169 1.14259 1.72489 0
M  V30 1461 C 140.584 -0.302555 1.8636 0
M  V30 1462 O 139.941 -1.20741 1.36849 0
M  V30 1463 C 139.992 1.80266 3.13347 0
M  V30 1464 O 139.713 3.19133 3.00143 0
M  V30 1465 C 141.214 1.74283 4.07603 0
M  V30 1466 H 138.434 0.398051 0.540181 0
M  V30 1467 H 140.978 1.66706 1.18446 0
M  V30 1468 H 139.133 1.31766 3.64303 0
M  V30 1469 H 139.547 3.51744 3.89071 0
M  V30 1470 H 141.021 2.25111 5.04013 0
M  V30 1471 H 141.498 0.708631 4.33446 0
M  V30 1472 H 142.104 2.22319 3.62567 0
M  V30 1473 N 140.419 -1.14872 1.07899 0
M  V30 1474 C 141.666 -1.85789 0.805532 0
M  V30 1475 C 141.994 -1.82649 -0.668561 0
M  V30 1476 O 141.249 -1.24858 -1.50695 0
M  V30 1477 C 141.548 -3.34223 1.26609 0
M  V30 1478 C 141.214 -3.57555 2.74709 0
M  V30 1479 C 139.876 -3.63631 3.1516 0
M  V30 1480 C 142.228 -3.66803 3.70277 0
M  V30 1481 C 139.556 -3.76473 4.49983 0
M  V30 1482 C 141.908 -3.8117 5.04869 0
M  V30 1483 C 140.572 -3.85494 5.44932 0
M  V30 1484 H 139.842 -0.679849 0.294765 0
M  V30 1485 H 142.489 -1.3572 1.35101 0
M  V30 1486 H 140.794 -3.86536 0.640103 0
M  V30 1487 H 142.491 -3.87511 1.03132 0
M  V30 1488 H 139.081 -3.5347 2.42398 0
M  V30 1489 H 143.265 -3.61404 3.40149 0
M  V30 1490 H 138.521 -3.7808 4.80484 0
M  V30 1491 H 142.695 -3.87268 5.78789 0
M  V30 1492 H 140.322 -3.95197 6.49403 0
M  V30 1493 N 141.898 -0.863906 -1.31812 0
M  V30 1494 C 143.126 -0.486111 -2.01108 0
M  V30 1495 C 143.541 0.919755 -1.64882 0
M  V30 1496 O 142.898 1.60162 -0.874893 0
M  V30 1497 C 142.949 -0.626435 -3.56031 0
M  V30 1498 O 142.67 -1.97693 -3.90959 0
M  V30 1499 C 144.171 -0.248857 -4.42601 0
M  V30 1500 H 141.391 -0.190052 -0.643523 0
M  V30 1501 H 143.935 -1.1634 -1.68182 0
M  V30 1502 H 142.09 0.00322717 -3.874 0
M  V30 1503 H 142.504 -1.98034 -4.85678 0
M  V30 1504 H 143.978 -0.398016 -5.50563 0
M  V30 1505 H 144.455 0.811489 -4.31638 0
M  V30 1506 H 145.061 -0.853971 -4.16638 0
M  V30 1507 N 143.376 1.44774 -0.622745 0
M  V30 1508 C 144.601 2.06999 -0.128968 0
M  V30 1509 C 145.026 1.4617 1.1839 0
M  V30 1510 O 144.384 0.560007 1.72434 0
M  V30 1511 C 144.432 3.60595 -0.0188351 0
M  V30 1512 O 143.536 3.99398 1.02739 0
M  V30 1513 H 142.877 0.659047 -0.0809544 0
M  V30 1514 H 145.407 1.85784 -0.85705 0
M  V30 1515 H 145.417 4.07627 0.174476 0
M  V30 1516 H 144.092 4.04252 -0.977384 0
M  V30 1517 H 142.669 3.64011 0.809326 0
M  V30 1518 N 144.854 0.36279 1.53368 0
M  V30 1519 C 146.131 -0.284021 1.93527 0
M  V30 1520 C 146.511 -1.66628 1.29608 0
M  V30 1521 O 145.859 -2.23942 0.45413 0
M  V30 1522 C 146.069 -0.337028 3.47369 0
M  V30 1523 C 147.417 -0.578708 4.20638 0
M  V30 1524 O 148.441 -0.418352 3.53735 0
M  V30 1525 O 147.3 -0.89074 5.39192 0
M  V30 1526 H 144.394 -0.169743 0.809393 0
M  V30 1527 H 146.94 0.41537 1.64538 0
M  V30 1528 H 145.712 0.632217 3.86159 0
M  V30 1529 H 145.335 -1.08243 3.82582 0
M  V30 1530 N 146.332 -1.57332 0.0918853 0
M  V30 1531 C 147.748 -1.57389 -0.264766 0
M  V30 1532 C 147.948 -1.10281 -1.68643 0
M  V30 1533 O 147.004 -0.777801 -2.40222 0
M  V30 1534 C 148.317 -3.00648 -0.0561195 0
M  V30 1535 C 149.865 -3.12754 -0.124116 0
M  V30 1536 C 150.34 -4.57965 0.0564972 0
M  V30 1537 N 151.831 -4.632 0.00155611 0
M  V30 1538 C 152.566 -5.73281 0.116598 0
M  V30 1539 N 152.062 -6.92208 0.286294 0
M  V30 1540 N 153.855 -5.6207 0.0580973 0
M  V30 1541 H 146.006 -1.86262 1.02079 0
M  V30 1542 H 148.269 -0.859579 0.399786 0
M  V30 1543 H 147.975 -3.393 0.925669 0
M  V30 1544 H 147.849 -3.68623 -0.799823 0
M  V30 1545 H 150.236 -2.73976 -1.09641 0
M  V30 1546 H 150.317 -2.47377 0.651024 0
M  V30 1547 H 149.961 -4.97436 1.02564 0
M  V30 1548 H 149.891 -5.21399 -0.738297 0
M  V30 1549 H 152.382 -3.77686 -0.127192 0
M  V30 1550 H 152.695 -7.71934 0.365676 0
M  V30 1551 H 151.04 -6.94254 0.32192 0
M  V30 1552 H 154.231 -4.68043 -0.0733204 0
M  V30 1553 H 154.404 -6.47824 0.151203 0
M  V30 1554 N 147.81 0.181792 -1.56548 0
M  V30 1555 C 149.226 0.53316 -1.50431 0
M  V30 1556 C 149.426 1.85184 -0.794297 0
M  V30 1557 O 148.482 2.50058 -0.350318 0
M  V30 1558 C 149.795 0.575597 -2.9514 0
M  V30 1559 C 151.343 0.663519 -3.05886 0
M  V30 1560 C 151.818 0.736946 -4.52032 0
M  V30 1561 N 153.309 0.800118 -4.56237 0
M  V30 1562 C 154.044 0.877327 -5.66649 0
M  V30 1563 N 153.54 0.916016 -6.86718 0
M  V30 1564 N 155.333 0.915542 -5.54594 0
M  V30 1565 H 147.484 -0.683025 -2.01118 0
M  V30 1566 H 149.747 -0.244988 -0.915797 0
M  V30 1567 H 149.453 -0.324482 -3.502 0
M  V30 1568 H 149.327 1.42572 -3.49218 0
M  V30 1569 H 151.714 1.55403 -2.50867 0
M  V30 1570 H 151.795 -0.21307 -2.54911 0
M  V30 1571 H 151.439 -0.149262 -5.07681 0
M  V30 1572 H 151.369 1.62953 -5.00753 0
M  V30 1573 H 153.86 0.778926 -3.69785 0
M  V30 1574 H 154.173 0.975813 -7.66614 0
M  V30 1575 H 152.518 0.884469 -6.89349 0
M  V30 1576 H 155.709 0.882245 -4.59711 0
M  V30 1577 H 155.882 0.972253 -6.40665 0
M  V30 1578 N 149.288 1.51039 0.449983 0
M  V30 1579 C 150.236 1.71995 1.5659 0
M  V30 1580 C 151.23 0.586029 1.5894 0
M  V30 1581 O 152.436 0.76709 1.62837 0
M  V30 1582 H 148.811 0.543233 0.520001 0
M  V30 1583 H 150.782 2.65562 1.36085 0
M  V30 1584 C 149.531 1.8506 2.9436 0
M  V30 1585 H 148.854 2.71712 2.93279 0
M  V30 1586 H 150.294 2.0374 3.71842 0
M  V30 1587 C 148.753 0.607277 3.31382 0
M  V30 1588 O 149.283 -0.243903 4.00959 0
M  V30 1589 N 147.489 0.455073 2.87015 0
M  V30 1590 H 147.036 1.14879 2.30566 0
M  V30 1591 H 146.994 -0.375611 3.12148 0
M  V30 1592 N 150.766 -0.704594 1.40972 0
M  V30 1593 C 151.699 -1.82861 1.36518 0
M  V30 1594 C 152.677 -1.6091 0.23382 0
M  V30 1595 O 153.861 -1.83778 0.419271 0
M  V30 1596 C 150.988 -3.1939 1.12729 0
M  V30 1597 C 150.034 -3.60148 2.28463 0
M  V30 1598 S 150.867 -3.65994 3.90907 0
M  V30 1599 C 152.023 -5.05264 3.69403 0
M  V30 1600 H 152.256 -1.86361 2.3164 0
M  V30 1601 H 149.789 -0.872439 1.27389 0
M  V30 1602 H 151.747 -3.98211 0.996893 0
M  V30 1603 H 150.408 -3.1351 0.192427 0
M  V30 1604 H 149.601 -4.59309 2.07489 0
M  V30 1605 H 149.203 -2.88612 2.37863 0
M  V30 1606 H 151.495 -5.92504 3.28551 0
M  V30 1607 H 152.438 -5.31278 4.68134 0
M  V30 1608 H 152.846 -4.76377 3.02862 0
M  V30 1609 N 152.244 -1.26651 -0.937939 0
M  V30 1610 C 153.66 -1.03834 -1.21205 0
M  V30 1611 C 153.86 0.234502 -2.00131 0
M  V30 1612 O 152.916 0.942767 -2.3424 0
M  V30 1613 C 154.229 -2.27167 -1.97017 0
M  V30 1614 C 155.777 -2.32101 -2.09996 0
M  V30 1615 C 156.252 -3.55136 -2.8921 0
M  V30 1616 N 157.743 -3.55632 -2.96783 0
M  V30 1617 C 158.478 -4.475 -3.58512 0
M  V30 1618 N 157.974 -5.4966 -4.21717 0
M  V30 1619 N 159.767 -4.35145 -3.55816 0
M  V30 1620 H 151.918 -2.08398 -0.410391 0
M  V30 1621 H 154.181 -0.916031 -0.244114 0
M  V30 1622 H 153.887 -3.19765 -1.46434 0
M  V30 1623 H 153.761 -2.31672 -2.97671 0
M  V30 1624 H 156.148 -1.40015 -2.59769 0
M  V30 1625 H 156.229 -2.31605 -1.08594 0
M  V30 1626 H 155.873 -4.47553 -2.40123 0
M  V30 1627 H 155.803 -3.5288 -3.90875 0
M  V30 1628 H 158.294 -2.81743 -2.51852 0
M  V30 1629 H 158.607 -6.15943 -4.66727 0
M  V30 1630 H 156.952 -5.53514 -4.20294 0
M  V30 1631 H 160.143 -3.5455 -3.05634 0
M  V30 1632 H 160.316 -5.06934 -4.03636 0
M  V30 1633 N 153.722 1.14298 -1.08507 0
M  V30 1634 C 154.632 2.23027 -0.727753 0
M  V30 1635 C 155.648 1.71952 0.26619 0
M  V30 1636 O 156.824 2.011 0.109882 0
M  V30 1637 C 153.889 3.46403 -0.143541 0
M  V30 1638 C 152.95 4.12413 -1.19223 0
M  V30 1639 C 152.183 5.29899 -0.635798 0
M  V30 1640 O 152.406 5.67796 0.544393 0
M  V30 1641 O 151.34 5.85717 -1.38634 0
M  V30 1642 H 155.166 2.55945 -1.63481 0
M  V30 1643 H 152.751 1.22248 -0.858817 0
M  V30 1644 H 154.633 4.21018 0.179404 0
M  V30 1645 H 153.308 3.15206 0.736659 0
M  V30 1646 H 152.215 3.39667 -1.56772 0
M  V30 1647 H 153.548 4.47718 -2.04474 0
M  V30 1648 N 155.201 0.870884 1.31352 0
M  V30 1649 C 156.148 0.325425 2.28494 0
M  V30 1650 C 157.118 -0.576615 1.5577 0
M  V30 1651 O 158.303 -0.508059 1.83911 0
M  V30 1652 C 155.443 -0.466283 3.41935 0
M  V30 1653 C 154.556 0.463378 4.29508 0
M  V30 1654 C 153.691 -0.342544 5.30094 0
M  V30 1655 C 152.73 0.583486 6.09313 0
M  V30 1656 N 151.867 -0.186244 7.01853 0
M  V30 1657 H 156.707 1.15901 2.74538 0
M  V30 1658 H 154.244 0.58294 1.35056 0
M  V30 1659 H 156.202 -0.941085 4.06447 0
M  V30 1660 H 154.832 -1.26456 2.97 0
M  V30 1661 H 153.884 1.05663 3.65431 0
M  V30 1662 H 155.196 1.1734 4.84802 0
M  V30 1663 H 154.35 -0.879816 6.00287 0
M  V30 1664 H 153.089 -1.08585 4.75458 0
M  V30 1665 H 152.094 1.13251 5.3801 0
M  V30 1666 H 153.319 1.32566 6.66035 0
M  V30 1667 H 151.265 -0.912348 6.49625 0
M  V30 1668 H 151.182 0.464422 7.54572 0
M  V30 1669 H 152.45 -0.704716 7.76308 0
M  V30 1670 N 156.679 -1.44442 0.630414 0
M  V30 1671 C 157.909 -2.06115 0.141465 0
M  V30 1672 C 158.317 -1.47179 -1.1889 0
M  V30 1673 O 157.66 -0.588873 -1.74006 0
M  V30 1674 C 157.722 -3.59467 -0.0484355 0
M  V30 1675 C 157.386 -4.40864 1.20366 0
M  V30 1676 C 158.383 -4.74391 2.12719 0
M  V30 1677 C 156.068 -4.8125 1.43887 0
M  V30 1678 C 158.062 -5.47186 3.26904 0
M  V30 1679 C 155.749 -5.53795 2.5837 0
M  V30 1680 C 156.747 -5.86682 3.49705 0
M  V30 1681 O 156.435 -6.57749 4.62191 0
M  V30 1682 H 156.167 -0.671648 0.0765792 0
M  V30 1683 H 158.721 -1.86312 0.864695 0
M  V30 1684 H 156.951 -3.77758 -0.826803 0
M  V30 1685 H 158.64 -4.02909 -0.491849 0
M  V30 1686 H 159.406 -4.43728 1.95781 0
M  V30 1687 H 155.285 -4.55073 0.736853 0
M  V30 1688 H 158.829 -5.72773 3.98217 0
M  V30 1689 H 154.726 -5.83872 2.75251 0
M  V30 1690 H 155.494 -6.76217 4.61164 0
M  V30 1691 N 158.157 -0.370918 -1.53173 0
M  V30 1692 C 159.405 0.216673 -2.00935 0
M  V30 1693 C 159.726 1.48845 -1.25977 0
M  V30 1694 O 158.996 1.92286 -0.374551 0
M  V30 1695 H 157.576 0.0830565 -0.742368 0
M  V30 1696 H 160.238 -0.49838 -1.8842 0
M  V30 1697 H 159.334 0.439893 -3.08984 0
M  V30 1698 N 159.635 1.57281 -0.100228 0
M  V30 1699 C 160.86 1.99302 0.573881 0
M  V30 1700 C 161.285 0.979059 1.60611 0
M  V30 1701 O 160.643 -0.0517803 1.81226 0
M  V30 1702 C 160.691 3.40274 1.19358 0
M  V30 1703 O 159.795 3.41676 2.30935 0
M  V30 1704 H 159.136 0.647944 0.145138 0
M  V30 1705 H 161.666 2.03779 -0.183156 0
M  V30 1706 H 161.676 3.78078 1.53365 0
M  V30 1707 H 160.351 4.13594 0.437385 0
M  V30 1708 H 158.928 3.15672 1.98509 0
M  V30 1709 N 161.113 -0.173488 1.56642 0
M  V30 1710 C 162.023 -1.23482 1.99473 0
M  V30 1711 C 163.039 -1.48567 0.905752 0
M  V30 1712 O 164.215 -1.60758 1.21321 0
M  V30 1713 C 161.28 -2.55444 2.34413 0
M  V30 1714 C 160.341 -2.38241 3.57127 0
M  V30 1715 C 159.574 -3.63909 3.90392 0
M  V30 1716 O 159.797 -4.68996 3.24653 0
M  V30 1717 O 158.731 -3.58149 4.83749 0
M  V30 1718 H 162.557 -0.901279 2.90018 0
M  V30 1719 H 160.142 -0.380185 1.44482 0
M  V30 1720 H 162.024 -3.33292 2.57865 0
M  V30 1721 H 160.699 -2.88382 1.4703 0
M  V30 1722 H 159.606 -1.58431 3.38896 0
M  V30 1723 H 160.939 -2.10228 4.45045 0
M  V30 1724 N 162.591 -1.51276 -0.441967 0
M  V30 1725 C 163.837 -1.63958 -1.19355 0
M  V30 1726 C 164.17 -0.352543 -1.90973 0
M  V30 1727 O 163.445 0.647627 -1.83401 0
M  V30 1728 C 163.728 -2.83979 -2.21422 0
M  V30 1729 C 163.581 -4.22646 -1.53918 0
M  V30 1730 C 164.9 -2.99521 -3.22451 0
M  V30 1731 H 162.019 -0.596709 -0.432559 0
M  V30 1732 H 164.661 -1.83748 -0.483398 0
M  V30 1733 H 162.811 -2.67237 -2.81987 0
M  V30 1734 H 164.483 -4.51045 -0.967256 0
M  V30 1735 H 162.726 -4.25558 -0.841615 0
M  V30 1736 H 163.397 -5.02609 -2.28229 0
M  V30 1737 H 165.873 -3.14944 -2.71937 0
M  V30 1738 H 164.749 -3.85072 -3.91166 0
M  V30 1739 H 165.01 -2.11391 -3.88287 0
M  V30 1740 N 164.069 0.697108 -1.41344 0
M  V30 1741 C 165.346 1.45154 -1.31109 0
M  V30 1742 C 165.726 2.11009 0.0620449 0
M  V30 1743 O 165.074 2.01571 1.07618 0
M  V30 1744 C 165.284 2.47223 -2.46337 0
M  V30 1745 C 166.632 3.1252 -2.87431 0
M  V30 1746 O 167.656 2.57547 -2.46065 0
M  V30 1747 O 166.515 4.12083 -3.58957 0
M  V30 1748 H 163.609 0.646365 -0.515889 0
M  V30 1749 H 166.155 0.727716 -1.53305 0
M  V30 1750 H 164.927 1.97204 -3.37974 0
M  V30 1751 H 164.55 3.27116 -2.2601 0
M  V30 1752 N 165.547 1.27147 0.931209 0
M  V30 1753 C 166.494 1.09568 2.03134 0
M  V30 1754 C 167.464 -0.00222433 1.661 0
M  V30 1755 O 168.649 0.159439 1.90133 0
M  V30 1756 C 165.789 0.745231 3.36957 0
M  V30 1757 C 164.902 1.92041 3.86968 0
M  V30 1758 C 164.037 1.51216 5.09222 0
M  V30 1759 C 163.076 2.65504 5.5152 0
M  V30 1760 N 162.213 2.25291 6.64972 0
M  V30 1761 H 167.053 2.03708 2.17502 0
M  V30 1762 H 164.59 1.01411 1.06556 0
M  V30 1763 H 166.548 0.522878 4.1391 0
M  V30 1764 H 165.178 -0.159202 3.22407 0
M  V30 1765 H 164.23 2.25541 3.06326 0
M  V30 1766 H 165.542 2.77787 4.1429 0
M  V30 1767 H 164.696 1.25084 5.93666 0
M  V30 1768 H 163.435 0.625749 4.83669 0
M  V30 1769 H 162.44 2.92354 4.65628 0
M  V30 1770 H 163.665 3.54761 5.7907 0
M  V30 1771 H 161.611 1.39098 6.41083 0
M  V30 1772 H 161.528 3.04577 6.91931 0
M  V30 1773 H 162.796 2.02398 7.52765 0
M  V30 1774 N 167.025 -1.13721 1.09112 0
M  V30 1775 C 168.302 -1.81155 0.737706 0
M  V30 1776 C 168.682 -1.96253 -0.777683 0
M  V30 1777 O 168.03 -1.52807 -1.69889 0
M  V30 1778 C 168.24 -3.16392 1.47299 0
M  V30 1779 C 169.588 -3.91787 1.63671 0
M  V30 1780 O 170.612 -3.26005 1.43524 0
M  V30 1781 O 169.471 -5.0977 1.96969 0
M  V30 1782 H 166.565 -0.783518 0.26463 0
M  V30 1783 H 169.111 -1.20676 1.19312 0
M  V30 1784 H 167.883 -3.0061 2.50498 0
M  V30 1785 H 167.506 -3.8457 1.00953 0
M  V30 1786 N 168.503 -0.877838 -1.30888 0
M  V30 1787 C 169.451 -0.328662 -2.30266 0
M  V30 1788 C 170.445 0.560496 -1.59859 0
M  V30 1789 O 171.651 0.445722 -1.74394 0
M  V30 1790 H 168.026 -0.0876142 -0.746879 0
M  V30 1791 H 169.997 -1.18061 -2.74051 0
M  V30 1792 C 168.746 0.448071 -3.44801 0
M  V30 1793 H 168.069 -0.226859 -3.99156 0
M  V30 1794 H 169.509 0.797541 -4.16432 0
M  V30 1795 C 167.968 1.64239 -2.94155 0
M  V30 1796 O 168.498 2.74175 -2.93583 0
M  V30 1797 N 166.704 1.47716 -2.50256 0
M  V30 1798 H 166.251 0.582821 -2.5092 0
M  V30 1799 H 166.209 2.27765 -2.16727 0
M  V30 1800 N 169.982 1.44106 -0.638065 0
M  V30 1801 C 170.912 2.33448 0.0494287 0
M  V30 1802 C 171.893 1.48606 0.827672 0
M  V30 1803 O 173.078 1.77308 0.792173 0
M  V30 1804 C 170.208 3.31771 1.02691 0
M  V30 1805 C 169.162 4.26485 0.359823 0
M  V30 1806 C 168.488 5.14729 1.44769 0
M  V30 1807 C 169.788 5.17056 -0.738296 0
M  V30 1808 H 171.482 2.91183 -0.696636 0
M  V30 1809 H 169.028 1.40014 -0.336456 0
M  V30 1810 H 170.981 3.93161 1.51666 0
M  V30 1811 H 169.705 2.7226 1.80395 0
M  V30 1812 H 168.364 3.66437 -0.10934 0
M  V30 1813 H 168.012 4.51566 2.21578 0
M  V30 1814 H 167.712 5.78913 1.00668 0
M  V30 1815 H 169.236 5.78991 1.93911 0
M  V30 1816 H 170.65 5.72342 -0.331354 0
M  V30 1817 H 169.047 5.89879 -1.10286 0
M  V30 1818 H 170.117 4.57652 -1.60258 0
M  V30 1819 N 171.46 0.379036 1.52974 0
M  V30 1820 C 172.876 0.0285448 1.59574 0
M  V30 1821 C 173.076 -1.45542 1.39355 0
M  V30 1822 O 172.132 -2.2187 1.20541 0
M  V30 1823 C 173.445 0.496535 2.96572 0
M  V30 1824 C 174.993 0.451909 3.0972 0
M  V30 1825 C 175.468 0.895924 4.49152 0
M  V30 1826 N 176.959 0.851522 4.55306 0
M  V30 1827 C 177.694 1.16661 5.61407 0
M  V30 1828 N 177.19 1.55166 6.752 0
M  V30 1829 N 178.983 1.08853 5.51459 0
M  V30 1830 H 171.134 1.34525 1.64367 0
M  V30 1831 H 173.397 0.550733 0.771619 0
M  V30 1832 H 173.103 1.53258 3.16552 0
M  V30 1833 H 172.977 -0.109802 3.7704 0
M  V30 1834 H 175.364 -0.575029 2.89443 0
M  V30 1835 H 175.445 1.09392 2.3123 0
M  V30 1836 H 175.089 1.92104 4.70168 0
M  V30 1837 H 175.019 0.23103 5.26093 0
M  V30 1838 H 177.51 0.568038 3.73606 0
M  V30 1839 H 177.823 1.776 7.52116 0
M  V30 1840 H 176.168 1.59044 6.76557 0
M  V30 1841 H 179.359 0.786803 4.6144 0
M  V30 1842 H 179.532 1.33742 6.34048 0
M  V30 1843 N 172.938 -1.57226 0.108567 0
M  V30 1844 C 174.184 -1.95121 -0.552761 0
M  V30 1845 C 174.517 -0.991345 -1.66991 0
M  V30 1846 O 173.792 -0.0267211 -1.94482 0
M  V30 1847 C 174.075 -3.43039 -1.09528 0
M  V30 1848 C 173.928 -4.49797 0.0177332 0
M  V30 1849 C 175.247 -3.92567 -1.98945 0
M  V30 1850 H 172.366 -0.709496 -0.199461 0
M  V30 1851 H 175.008 -1.89126 0.182011 0
M  V30 1852 H 173.158 -3.48279 -1.72146 0
M  V30 1853 H 174.83 -4.56661 0.652584 0
M  V30 1854 H 173.073 -4.284 0.682309 0
M  V30 1855 H 173.744 -5.50528 -0.402919 0
M  V30 1856 H 176.22 -3.89565 -1.46214 0
M  V30 1857 H 175.096 -4.96605 -2.33827 0
M  V30 1858 H 175.357 -3.32648 -2.91201 0
M  V30 1859 N 174.416 0.165178 -1.56732 0
M  V30 1860 C 175.326 1.22423 -2.00125 0
M  V30 1861 C 176.342 1.48084 -0.913619 0
M  V30 1862 O 177.518 1.60112 -1.22172 0
M  V30 1863 C 174.583 2.54197 -2.35764 0
M  V30 1864 C 173.644 2.36343 -3.58386 0
M  V30 1865 C 172.877 3.61834 -3.92316 0
M  V30 1866 O 173.1 4.67267 -3.27135 0
M  V30 1867 O 172.034 3.55579 -4.85641 0
M  V30 1868 H 175.86 0.885886 -2.90492 0
M  V30 1869 H 173.445 0.372518 -1.44681 0
M  V30 1870 H 175.327 3.3192 -2.59629 0
M  V30 1871 H 174.002 2.87598 -1.48557 0
M  V30 1872 H 172.909 1.56632 -3.39731 0
M  V30 1873 H 174.242 2.07865 -4.46154 0
M  V30 1874 N 175.894 1.51508 0.433938 0
M  V30 1875 C 177.142 1.6402 1.18075 0
M  V30 1876 C 177.463 0.360328 1.91642 0
M  V30 1877 O 176.733 -0.623945 1.85698 0
M  V30 1878 H 175.313 0.6045 0.43885 0
M  V30 1879 H 177.975 1.88452 0.497178 0
M  V30 1880 H 177.071 2.46949 1.90847 0
M  V30 1881 N 177.372 -0.689602 1.41712 0
M  V30 1882 C 178.619 -1.44966 1.4139 0
M  V30 1883 C 178.947 -1.94484 0.025105 0
M  V30 1884 O 178.202 -1.70307 -0.964048 0
M  V30 1885 C 178.501 -2.67298 2.37247 0
M  V30 1886 C 178.167 -2.36405 3.83958 0
M  V30 1887 C 176.829 -2.27691 4.23923 0
M  V30 1888 C 179.181 -2.11043 4.76561 0
M  V30 1889 C 176.509 -1.91719 5.54492 0
M  V30 1890 C 178.861 -1.76578 6.07456 0
M  V30 1891 C 177.525 -1.66363 6.46436 0
M  V30 1892 H 176.795 -0.53047 0.517381 0
M  V30 1893 H 179.442 -0.787655 1.74552 0
M  V30 1894 H 177.747 -3.38461 1.9736 0
M  V30 1895 H 179.444 -3.25452 2.34269 0
M  V30 1896 H 176.034 -2.44085 3.52308 0
M  V30 1897 H 180.218 -2.16717 4.46483 0
M  V30 1898 H 175.474 -1.82367 5.83568 0
M  V30 1899 H 179.648 -1.55974 6.78708 0
M  V30 1900 H 177.275 -1.38258 7.47522 0
M  V30 1901 N 178.85 -1.27639 -0.924453 0
M  V30 1902 C 180.098 -1.13941 -1.66918 0
M  V30 1903 C 180.419 0.314589 -1.92446 0
M  V30 1904 O 179.689 1.21964 -1.53303 0
M  V30 1905 H 178.269 -0.418678 -0.618642 0
M  V30 1906 H 180.931 -1.60213 -1.10985 0
M  V30 1907 H 180.027 -1.67094 -2.63602 0
M  V30 1908 N 180.328 1.1314 -1.09713 0
M  V30 1909 C 181.258 2.20748 -0.761102 0
M  V30 1910 C 182.239 1.68061 0.262566 0
M  V30 1911 O 183.424 1.93765 0.129977 0
M  V30 1912 C 180.554 3.46812 -0.184054 0
M  V30 1913 C 179.508 4.12606 -1.13757 0
M  V30 1914 C 178.834 5.33031 -0.422083 0
M  V30 1915 C 180.134 4.59603 -2.48118 0
M  V30 1916 H 181.828 2.49113 -1.66082 0
M  V30 1917 H 179.374 1.19734 -0.799987 0
M  V30 1918 H 181.327 4.21353 0.0631215 0
M  V30 1919 H 180.051 3.17851 0.750868 0
M  V30 1920 H 178.71 3.40036 -1.37007 0
M  V30 1921 H 178.358 5.00335 0.517072 0
M  V30 1922 H 178.058 5.77999 -1.05788 0
M  V30 1923 H 179.582 6.10325 -0.183277 0
M  V30 1924 H 180.996 5.25552 -2.29059 0
M  V30 1925 H 179.393 5.15321 -3.07514 0
M  V30 1926 H 180.463 3.73971 -3.08665 0
M  V30 1927 N 181.806 0.884767 1.30421 0
M  V30 1928 C 183.217 0.553656 1.78302 0
M  V30 1929 C 183.568 -0.930153 1.7275 0
M  V30 1930 O 182.693 -1.72681 1.30423 0
M  V30 1931 C 183.288 0.998234 3.2376 0
M  V30 1932 C 181.847 0.71854 3.69478 0
M  V30 1933 C 180.994 1.18132 2.50879 0
M  V30 1934 H 183.945 1.06901 1.17294 0
M  V30 1935 H 183.966 0.327118 3.79091 0
M  V30 1936 H 183.478 2.0782 3.27769 0
M  V30 1937 H 181.579 -0.349444 3.70958 0
M  V30 1938 H 181.692 1.30595 4.60958 0
M  V30 1939 H 180.056 0.600669 2.47516 0
M  V30 1940 H 180.839 2.26902 2.57624 0
M  V30 1941 N 183.284 -1.43765 0.645699 0
M  V30 1942 C 184.531 -2.01898 0.15604 0
M  V30 1943 C 184.859 -1.50887 -1.22733 0
M  V30 1944 O 184.114 -0.689271 -1.8316 0
M  V30 1945 C 184.413 -3.57238 0.107679 0
M  V30 1946 C 184.079 -4.27564 1.43178 0
M  V30 1947 C 182.741 -4.46492 1.7944 0
M  V30 1948 C 185.093 -4.67454 2.30513 0
M  V30 1949 C 182.421 -5.02573 3.02716 0
M  V30 1950 C 184.773 -5.24901 3.53074 0
M  V30 1951 C 183.437 -5.42046 3.89541 0
M  V30 1952 H 182.707 -0.738797 0.057099 0
M  V30 1953 H 185.354 -1.72341 0.834912 0
M  V30 1954 H 183.659 -3.86293 -0.654618 0
M  V30 1955 H 185.356 -3.99965 -0.287938 0
M  V30 1956 H 181.946 -4.13171 1.13963 0
M  V30 1957 H 186.13 -4.5253 2.0379 0
M  V30 1958 H 181.386 -5.14033 3.31028 0
M  V30 1959 H 185.56 -5.54758 4.20971 0
M  V30 1960 H 183.187 -5.85268 4.85145 0
M  V30 1961 N 184.763 -0.387143 -1.52771 0
M  V30 1962 C 185.711 0.463953 -2.27926 0
M  V30 1963 C 186.705 1.06493 -1.31741 0
M  V30 1964 O 187.911 1.00565 -1.49287 0
M  V30 1965 H 184.286 0.16837 -0.732909 0
M  V30 1966 H 186.257 -0.19141 -2.97785 0
M  V30 1967 C 185.006 1.5803 -3.09713 0
M  V30 1968 H 184.329 1.12718 -3.83581 0
M  V30 1969 H 185.769 2.15008 -3.65442 0
M  V30 1970 C 184.228 2.53509 -2.2189 0
M  V30 1971 O 184.758 3.56863 -1.84422 0
M  V30 1972 N 182.964 2.23199 -1.86093 0
M  V30 1973 H 182.511 1.39185 -2.16761 0
M  V30 1974 H 182.469 2.87333 -1.27621 0
M  V30 1975 N 186.241 1.57166 -0.116904 0
M  V30 1976 C 187.171 2.18222 0.830759 0
M  V30 1977 C 188.152 1.12167 1.27877 0
M  V30 1978 O 189.337 1.40394 1.34176 0
M  V30 1979 C 186.467 2.77996 2.08172 0
M  V30 1980 C 185.421 3.89614 1.77157 0
M  V30 1981 C 184.747 4.36187 3.09265 0
M  V30 1982 C 186.047 5.1181 1.04151 0
M  V30 1983 H 187.741 2.97664 0.321992 0
M  V30 1984 H 185.287 1.4318 0.153434 0
M  V30 1985 H 187.24 3.19366 2.74924 0
M  V30 1986 H 185.964 1.9584 2.6137 0
M  V30 1987 H 184.623 3.48816 1.12796 0
M  V30 1988 H 184.271 3.50893 3.60393 0
M  V30 1989 H 183.971 5.11455 2.89288 0
M  V30 1990 H 185.495 4.80207 3.77139 0
M  V30 1991 H 186.909 5.50214 1.61052 0
M  V30 1992 H 185.306 5.92648 0.942762 0
M  V30 1993 H 186.376 4.84892 0.0279022 0
M  V30 1994 N 187.719 -0.156864 1.56817 0
M  V30 1995 C 188.652 -1.22316 1.9265 0
M  V30 1996 C 189.63 -1.42059 0.791076 0
M  V30 1997 O 190.814 -1.56831 1.04576 0
M  V30 1998 C 187.941 -2.58375 2.18998 0
M  V30 1999 C 186.987 -2.55284 3.41661 0
M  V30 2000 S 187.82 -2.02946 4.95553 0
M  V30 2001 C 188.976 -3.40753 5.25013 0
M  V30 2002 H 189.209 -0.917403 2.82791 0
M  V30 2003 H 186.742 -0.362059 1.50095 0
M  V30 2004 H 188.7 -3.36677 2.34859 0
M  V30 2005 H 187.361 -2.86145 1.29538 0
M  V30 2006 H 186.554 -3.55418 3.57343 0
M  V30 2007 H 186.156 -1.85086 3.24991 0
M  V30 2008 H 188.448 -4.36819 5.17876 0
M  V30 2009 H 189.391 -3.29933 6.26538 0
M  V30 2010 H 189.799 -3.37433 4.52548 0
M  V30 2011 N 189.197 -1.51736 -0.425897 0
M  V30 2012 C 190.127 -1.76827 -1.52494 0
M  V30 2013 C 191.108 -0.618524 -1.58456 0
M  V30 2014 O 192.293 -0.862416 -1.74 0
M  V30 2015 C 189.423 -1.90374 -2.90474 0
M  V30 2016 C 188.377 -3.0588 -2.99369 0
M  V30 2017 C 187.703 -3.04625 -4.3944 0
M  V30 2018 C 189.003 -4.45644 -2.72394 0
M  V30 2019 H 190.697 -2.68855 -1.31748 0
M  V30 2020 H 188.243 -1.29372 -0.632362 0
M  V30 2021 H 190.196 -2.0651 -3.6733 0
M  V30 2022 H 188.92 -0.95004 -3.12477 0
M  V30 2023 H 187.579 -2.89467 -2.24954 0
M  V30 2024 H 187.227 -2.0701 -4.58428 0
M  V30 2025 H 186.927 -3.82195 -4.46319 0
M  V30 2026 H 188.451 -3.22869 -5.18255 0
M  V30 2027 H 189.865 -4.62348 -3.38979 0
M  V30 2028 H 188.262 -5.25006 -2.9067 0
M  V30 2029 H 189.332 -4.54893 -1.67929 0
M  V30 2030 N 190.675 0.682077 -1.42076 0
M  V30 2031 C 191.905 1.46844 -1.45329 0
M  V30 2032 C 192.313 1.89102 -0.0609328 0
M  V30 2033 O 191.656 1.58238 0.933082 0
M  V30 2034 C 191.718 2.75375 -2.31104 0
M  V30 2035 C 191.382 2.55238 -3.79081 0
M  V30 2036 C 192.379 2.20309 -4.70914 0
M  V30 2037 C 190.064 2.70459 -4.2327 0
M  V30 2038 C 192.058 2.00859 -6.04925 0
M  V30 2039 C 189.745 2.50624 -5.57343 0
M  V30 2040 C 190.743 2.15876 -6.47986 0
M  V30 2041 O 190.431 1.96227 -7.79583 0
M  V30 2042 H 190.163 0.4586 -0.496651 0
M  V30 2043 H 192.717 0.846131 -1.87162 0
M  V30 2044 H 190.947 3.40061 -1.84107 0
M  V30 2045 H 192.636 3.37231 -2.25898 0
M  V30 2046 H 193.402 2.08153 -4.38061 0
M  V30 2047 H 189.281 2.96485 -3.53012 0
M  V30 2048 H 192.825 1.7366 -6.75639 0
M  V30 2049 H 188.722 2.62375 -5.89771 0
M  V30 2050 H 189.49 2.10883 -7.90867 0
M  V30 2051 N 192.153 1.28127 0.917671 0
M  V30 2052 C 193.43 1.05761 1.64542 0
M  V30 2053 C 193.81 -0.404344 2.07191 0
M  V30 2054 O 193.158 -1.38963 1.81388 0
M  V30 2055 C 193.368 2.02857 2.83989 0
M  V30 2056 C 194.716 2.32786 3.551 0
M  V30 2057 O 195.74 2.0091 2.94132 0
M  V30 2058 O 194.599 2.87169 4.64969 0
M  V30 2059 H 191.693 0.403916 0.721652 0
M  V30 2060 H 194.239 1.39431 0.967322 0
M  V30 2061 H 193.011 3.01407 2.49538 0
M  V30 2062 H 192.634 1.69809 3.59514 0
M  V30 2063 N 193.631 -1.12557 1.10312 0
M  V30 2064 C 194.879 -1.83675 0.843091 0
M  V30 2065 C 195.2 -1.84435 -0.633131 0
M  V30 2066 O 194.47 -1.30657 -1.45964 0
M  V30 2067 H 193.05 -0.680138 0.308904 0
M  V30 2068 H 195.712 -1.36301 1.39313 0
M  V30 2069 H 194.808 -2.87908 1.2048 0
M  V30 2070 N 195.109 -0.891671 -1.2995 0
M  V30 2071 C 196.355 -0.514261 -1.96171 0
M  V30 2072 C 196.688 0.935506 -1.70182 0
M  V30 2073 O 195.963 1.66204 -1.01028 0
M  V30 2074 C 196.246 -0.797719 -3.51153 0
M  V30 2075 C 196.099 -2.2986 -3.86632 0
M  V30 2076 C 197.418 -0.278749 -4.39216 0
M  V30 2077 H 194.537 -0.188314 -0.712535 0
M  V30 2078 H 197.179 -1.11689 -1.53706 0
M  V30 2079 H 195.329 -0.284826 -3.87455 0
M  V30 2080 H 197.001 -2.88042 -3.60319 0
M  V30 2081 H 195.244 -2.76257 -3.34462 0
M  V30 2082 H 195.915 -2.44753 -4.94773 0
M  V30 2083 H 198.391 -0.717825 -4.09862 0
M  V30 2084 H 197.267 -0.506353 -5.46559 0
M  V30 2085 H 197.528 0.820266 -4.34424 0
M  V30 2086 N 196.587 1.43421 -0.653314 0
M  V30 2087 C 197.497 2.34568 0.0388565 0
M  V30 2088 C 198.513 1.53888 0.81207 0
M  V30 2089 O 199.689 1.86539 0.759294 0
M  V30 2090 C 196.754 3.32167 0.993269 0
M  V30 2091 C 195.815 4.28751 0.216977 0
M  V30 2092 C 195.048 5.21688 1.12593 0
M  V30 2093 O 195.271 5.19052 2.36519 0
M  V30 2094 O 194.205 5.98919 0.598284 0
M  V30 2095 H 198.031 2.95251 -0.711386 0
M  V30 2096 H 195.616 1.43564 -0.413502 0
M  V30 2097 H 197.498 3.92183 1.54176 0
M  V30 2098 H 196.173 2.73987 1.72374 0
M  V30 2099 H 195.08 3.72215 -0.375101 0
M  V30 2100 H 196.413 4.89913 -0.473924 0
M  V30 2101 N 198.065 0.39524 1.52563 0
M  V30 2102 C 199.311 -0.185318 2.01952 0
M  V30 2103 C 199.644 -1.45964 1.28095 0
M  V30 2104 O 198.919 -1.90689 0.38315 0
M  V30 2105 C 199.202 -0.447193 3.57312 0
M  V30 2106 C 199.055 0.842828 4.41833 0
M  V30 2107 C 200.374 -1.23529 4.22408 0
M  V30 2108 H 197.493 -0.0658788 0.73405 0
M  V30 2109 H 200.135 0.525975 1.82575 0
M  V30 2110 H 198.285 -1.05312 3.73954 0
M  V30 2111 H 199.957 1.4795 4.36931 0
M  V30 2112 H 198.2 1.45686 4.08605 0
M  V30 2113 H 198.871 0.614165 5.48573 0
M  V30 2114 H 201.347 -0.722445 4.0978 0
M  V30 2115 H 200.223 -1.38727 5.3108 0
M  V30 2116 H 200.484 -2.25213 3.80436 0
M  V30 2117 N 199.544 -1.57102 0.125237 0
M  V30 2118 C 200.791 -1.95407 -0.531248 0
M  V30 2119 C 201.119 -1.0089 -1.66287 0
M  V30 2120 O 200.374 -0.0339431 -1.95671 0
M  V30 2121 C 200.673 -3.40096 -1.09862 0
M  V30 2122 C 200.339 -4.50815 -0.0876989 0
M  V30 2123 C 199.001 -4.80824 0.19026 0
M  V30 2124 C 201.353 -5.17724 0.600902 0
M  V30 2125 C 198.681 -5.75058 1.163 0
M  V30 2126 C 201.033 -6.13005 1.56231 0
M  V30 2127 C 199.697 -6.41403 1.8482 0
M  V30 2128 H 198.967 -0.715046 -0.194397 0
M  V30 2129 H 201.614 -1.90373 0.207463 0
M  V30 2130 H 199.919 -3.41855 -1.91422 0
M  V30 2131 H 201.616 -3.6705 -1.61478 0
M  V30 2132 H 198.206 -4.27444 -0.314528 0
M  V30 2133 H 202.39 -4.94691 0.399333 0
M  V30 2134 H 197.646 -5.95362 1.39117 0
M  V30 2135 H 201.82 -6.63934 2.10153 0
M  V30 2136 H 199.447 -7.14229 2.60349 0
M  V30 2137 N 201.022 0.148545 -1.56898 0
M  V30 2138 C 202.299 0.890019 -1.74178 0
M  V30 2139 C 202.679 1.99407 -0.692839 0
M  V30 2140 O 202.027 2.26671 0.288505 0
M  V30 2141 C 202.237 1.43389 -3.18183 0
M  V30 2142 C 203.585 1.89791 -3.79822 0
M  V30 2143 O 204.609 1.53134 -3.21603 0
M  V30 2144 O 203.468 2.57387 -4.82093 0
M  V30 2145 H 200.562 0.420496 -0.712118 0
M  V30 2146 H 203.108 0.134591 -1.69165 0
M  V30 2147 H 201.88 0.640383 -3.86024 0
M  V30 2148 H 201.503 2.25287 -3.27615 0
M  V30 2149 N 202.5 1.5196 0.417844 0
M  V30 2150 C 203.725 1.69717 1.1921 0
M  V30 2151 C 204.15 0.402148 1.83751 0
M  V30 2152 O 203.508 -0.639593 1.69643 0
M  V30 2153 C 203.556 2.82794 2.2374 0
M  V30 2154 O 202.66 2.47756 3.29683 0
M  V30 2155 H 202.001 0.565263 0.348387 0
M  V30 2156 H 204.531 1.98621 0.490985 0
M  V30 2157 H 204.541 3.07452 2.68212 0
M  V30 2158 H 203.216 3.76756 1.76146 0
M  V30 2159 H 201.793 2.33739 2.90552 0
M  V30 2160 N 203.978 -0.674533 1.42435 0
M  V30 2161 C 205.225 -1.43459 1.42919 0
M  V30 2162 C 205.553 -1.94446 0.0457312 0
M  V30 2163 O 204.808 -1.7132 -0.94593 0
M  V30 2164 C 205.107 -2.64767 2.40069 0
M  V30 2165 C 204.773 -2.3232 3.86443 0
M  V30 2166 C 203.435 -2.23182 4.26314 0
M  V30 2167 C 205.787 -2.05977 4.78773 0
M  V30 2168 C 203.115 -1.85827 5.56494 0
M  V30 2169 C 205.467 -1.70125 6.09295 0
M  V30 2170 C 204.131 -1.59498 6.48164 0
M  V30 2171 H 203.401 -0.524952 0.522978 0
M  V30 2172 H 206.048 -0.769097 1.75377 0
M  V30 2173 H 204.353 -3.36349 2.00939 0
M  V30 2174 H 206.05 -3.22949 2.37707 0
M  V30 2175 H 202.64 -2.40334 3.54877 0
M  V30 2176 H 206.824 -2.11969 4.48757 0
M  V30 2177 H 202.08 -1.76168 5.8547 0
M  V30 2178 H 206.254 -1.48767 6.80324 0
M  V30 2179 H 203.881 -1.30322 7.48946 0
M  V30 2180 N 205.456 -1.28612 -0.910864 0
M  V30 2181 C 206.366 -1.14643 -2.0468 0
M  V30 2182 C 207.382 -0.0723121 -1.7385 0
M  V30 2183 O 208.558 -0.282178 -1.99413 0
M  V30 2184 C 205.623 -0.812561 -3.37044 0
M  V30 2185 C 204.684 -1.96935 -3.81465 0
M  V30 2186 C 203.917 -1.65131 -5.07511 0
M  V30 2187 O 204.14 -0.567013 -5.67575 0
M  V30 2188 O 203.074 -2.49585 -5.47714 0
M  V30 2189 H 206.9 -2.1001 -2.19384 0
M  V30 2190 H 204.485 -1.07958 -1.03274 0
M  V30 2191 H 206.367 -0.640441 -4.16505 0
M  V30 2192 H 205.042 0.111426 -3.23508 0
M  V30 2193 H 203.949 -2.19664 -3.02818 0
M  V30 2194 H 205.282 -2.87414 -3.99567 0
M  V30 2195 N 206.934 1.1197 -1.10907 0
M  V30 2196 C 208.159 1.87942 -0.877064 0
M  V30 2197 C 208.584 1.79341 0.567314 0
M  V30 2198 O 207.942 1.15184 1.40009 0
M  V30 2199 C 207.99 3.34926 -1.33629 0
M  V30 2200 O 207.094 4.09303 -0.504447 0
M  V30 2201 H 206.435 0.583785 -0.316371 0
M  V30 2202 H 208.965 1.4157 -1.47712 0
M  V30 2203 H 208.975 3.8577 -1.32837 0
M  V30 2204 H 207.65 3.40504 -2.3881 0
M  V30 2205 H 206.227 3.68393 -0.577993 0
M  V30 2206 N 208.412 0.89855 1.29475 0
M  V30 2207 C 209.375 0.380272 2.26023 0
M  V30 2208 C 210.375 -0.484891 1.53315 0
M  V30 2209 O 211.565 -0.290108 1.71767 0
M  V30 2210 C 208.697 -0.45651 3.3783 0
M  V30 2211 H 209.89 1.23295 2.73383 0
M  V30 2212 H 207.443 0.676589 1.40897 0
M  V30 2213 H 208.178 -1.32922 2.95808 0
M  V30 2214 H 207.963 0.163393 3.91759 0
M  V30 2215 H 209.453 -0.810466 4.0966 0
M  V30 2216 N 209.89 -1.43072 0.660911 0
M  V30 2217 C 211.137 -2.01721 0.177445 0
M  V30 2218 C 211.465 -1.5218 -1.21126 0
M  V30 2219 O 210.72 -0.708659 -1.82419 0
M  V30 2220 C 211.019 -3.57103 0.145563 0
M  V30 2221 C 210.685 -4.26021 1.47705 0
M  V30 2222 C 209.347 -4.44563 1.84165 0
M  V30 2223 C 211.699 -4.64983 2.35458 0
M  V30 2224 C 209.027 -4.99334 3.0803 0
M  V30 2225 C 211.379 -5.21127 3.58622 0
M  V30 2226 C 210.043 -5.37884 3.95268 0
M  V30 2227 H 209.313 -0.73815 0.0649317 0
M  V30 2228 H 211.96 -1.71446 0.853144 0
M  V30 2229 H 210.265 -3.86965 -0.61361 0
M  V30 2230 H 211.962 -4.00248 -0.2455 0
M  V30 2231 H 208.552 -4.11939 1.18339 0
M  V30 2232 H 212.736 -4.50343 2.08579 0
M  V30 2233 H 207.992 -5.10493 3.36462 0
M  V30 2234 H 212.166 -5.50262 4.26831 0
M  V30 2235 H 209.793 -5.80089 4.91325 0
M  V30 2236 N 211.368 -0.403325 -1.52352 0
M  V30 2237 C 212.315 0.425011 -2.26853 0
M  V30 2238 C 213.285 1.04598 -1.29029 0
M  V30 2239 O 214.47 1.07135 -1.57882 0
M  V30 2240 C 211.61 1.53888 -3.08889 0
M  V30 2241 C 210.723 0.939396 -4.21663 0
M  V30 2242 C 209.858 2.02547 -4.91068 0
M  V30 2243 C 208.897 1.40263 -5.95813 0
M  V30 2244 N 208.034 2.4286 -6.58759 0
M  V30 2245 H 212.874 -0.21674 -2.97211 0
M  V30 2246 H 210.411 -0.118722 -1.4662 0
M  V30 2247 H 212.369 2.19558 -3.54753 0
M  V30 2248 H 210.999 2.15074 -2.40714 0
M  V30 2249 H 210.051 0.171898 -3.80011 0
M  V30 2250 H 211.363 0.44436 -4.96817 0
M  V30 2251 H 210.517 2.75958 -5.40308 0
M  V30 2252 H 209.256 2.55415 -4.15469 0
M  V30 2253 H 208.261 0.653833 -5.45898 0
M  V30 2254 H 209.486 0.881719 -6.73352 0
M  V30 2255 H 207.432 2.94871 -5.85992 0
M  V30 2256 H 207.349 1.98152 -7.2957 0
M  V30 2257 H 208.617 3.15858 -7.12639 0
M  V30 2258 N 212.846 1.57033 -0.133567 0
M  V30 2259 C 214.076 1.99754 0.527429 0
M  V30 2260 C 214.484 1.01245 1.59832 0
M  V30 2261 O 213.827 -0.000645496 1.837 0
M  V30 2262 C 213.889 3.38903 1.19939 0
M  V30 2263 C 213.553 4.56174 0.274709 0
M  V30 2264 C 214.55 5.17563 -0.492398 0
M  V30 2265 C 212.235 5.01972 0.18153 0
M  V30 2266 C 214.229 6.2315 -1.34027 0
M  V30 2267 C 211.916 6.07416 -0.669958 0
M  V30 2268 C 212.914 6.67874 -1.42947 0
M  V30 2269 O 212.602 7.71279 -2.2668 0
M  V30 2270 H 212.334 0.660702 0.142999 0
M  V30 2271 H 214.888 2.04207 -0.221099 0
M  V30 2272 H 213.118 3.31248 1.99528 0
M  V30 2273 H 214.807 3.65818 1.75875 0
M  V30 2274 H 215.573 4.83087 -0.430367 0
M  V30 2275 H 211.452 4.54652 0.762422 0
M  V30 2276 H 214.996 6.70268 -1.93357 0
M  V30 2277 H 210.893 6.41321 -0.73333 0
M  V30 2278 H 211.661 7.88441 -2.1978 0
M  V30 2279 N 214.325 -0.140222 1.56975 0
M  V30 2280 C 215.572 -0.851687 1.83719 0
M  V30 2281 C 215.9 -1.80862 0.715485 0
M  V30 2282 O 215.155 -1.93464 -0.294956 0
M  V30 2283 C 215.454 -1.65386 3.16832 0
M  V30 2284 C 215.12 -0.843112 4.42947 0
M  V30 2285 C 213.782 -0.619464 4.77196 0
M  V30 2286 C 216.134 -0.276582 5.20466 0
M  V30 2287 C 213.462 0.181312 5.8642 0
M  V30 2288 C 215.814 0.51127 6.30531 0
M  V30 2289 C 214.478 0.745432 6.63325 0
M  V30 2290 H 213.748 -0.311654 0.672274 0
M  V30 2291 H 216.395 -0.115006 1.91154 0
M  V30 2292 H 214.7 -2.46084 3.04877 0
M  V30 2293 H 216.397 -2.20793 3.34741 0
M  V30 2294 H 212.987 -1.0275 4.16101 0
M  V30 2295 H 217.171 -0.436632 4.94376 0
M  V30 2296 H 212.427 0.372165 6.10266 0
M  V30 2297 H 216.601 0.957354 6.89788 0
M  V30 2298 H 214.228 1.36778 7.47794 0
M  V30 2299 N 215.803 -1.52179 -0.40978 0
M  V30 2300 C 216.733 -1.78435 -1.5061 0
M  V30 2301 C 217.714 -0.635295 -1.57791 0
M  V30 2302 O 218.899 -0.880823 -1.73076 0
M  V30 2303 C 216.029 -1.93444 -2.88439 0
M  V30 2304 C 214.983 -3.09038 -2.96108 0
M  V30 2305 C 214.309 -3.09268 -4.36185 0
M  V30 2306 C 215.609 -4.48508 -2.67652 0
M  V30 2307 H 217.303 -2.70237 -1.28889 0
M  V30 2308 H 214.849 -1.30036 -0.618605 0
M  V30 2309 H 216.802 -2.10394 -3.65119 0
M  V30 2310 H 215.526 -0.983129 -3.11452 0
M  V30 2311 H 214.185 -2.91837 -2.21872 0
M  V30 2312 H 213.833 -2.11861 -4.56206 0
M  V30 2313 H 213.533 -3.86907 -4.42241 0
M  V30 2314 H 215.057 -3.28348 -5.14801 0
M  V30 2315 H 216.471 -4.65918 -3.34056 0
M  V30 2316 H 214.868 -5.28059 -2.85085 0
M  V30 2317 H 215.938 -4.56649 -1.63095 0
M  V30 2318 N 217.281 0.66697 -1.42791 0
M  V30 2319 C 218.244 1.76211 -1.46568 0
M  V30 2320 C 219.244 1.56896 -0.352196 0
M  V30 2321 O 220.434 1.63044 -0.613364 0
M  V30 2322 C 217.566 3.14935 -1.30494 0
M  V30 2323 H 218.759 1.74247 -2.44086 0
M  V30 2324 H 216.312 0.877342 -1.29354 0
M  V30 2325 H 217.047 3.2252 -0.339301 0
M  V30 2326 H 216.832 3.30359 -2.11199 0
M  V30 2327 H 218.322 3.94821 -1.36038 0
M  V30 2328 N 218.759 1.29093 0.90403 0
M  V30 2329 C 219.707 1.13727 2.02901 0
M  V30 2330 C 220.701 0.0539853 1.69314 0
M  V30 2331 O 221.907 0.213469 1.7873 0
M  V30 2332 H 218.282 0.35117 0.664969 0
M  V30 2333 H 220.253 2.08982 2.13001 0
M  V30 2334 C 219.002 0.826066 3.37745 0
M  V30 2335 H 218.325 1.65164 3.64089 0
M  V30 2336 H 219.765 0.758559 4.17159 0
M  V30 2337 C 218.224 -0.470541 3.33598 0
M  V30 2338 O 218.754 -1.49792 3.72727 0
M  V30 2339 N 216.96 -0.474812 2.86695 0
M  V30 2340 H 216.507 0.361692 2.55048 0
M  V30 2341 H 216.465 -1.34236 2.84303 0
M  V30 2342 N 220.237 -1.11381 1.11499 0
M  V30 2343 C 221.484 -1.83132 0.864231 0
M  V30 2344 C 221.812 -1.84683 -0.610114 0
M  V30 2345 O 221.067 -1.29589 -1.46646 0
M  V30 2346 C 221.366 -3.30026 1.37177 0
M  V30 2347 C 221.032 -3.48634 2.85946 0
M  V30 2348 C 219.694 -3.53421 3.26569 0
M  V30 2349 C 222.046 -3.54837 3.81759 0
M  V30 2350 C 219.374 -3.61967 4.61733 0
M  V30 2351 C 221.726 -3.64915 5.1674 0
M  V30 2352 C 220.39 -3.67962 5.5692 0
M  V30 2353 H 219.66 -0.670127 0.316245 0
M  V30 2354 H 222.307 -1.31354 1.3935 0
M  V30 2355 H 220.612 -3.84304 0.762753 0
M  V30 2356 H 222.309 -3.84034 1.15408 0
M  V30 2357 H 218.899 -3.45579 2.53521 0
M  V30 2358 H 223.083 -3.50399 3.51474 0
M  V30 2359 H 218.339 -3.62603 4.92269 0
M  V30 2360 H 222.513 -3.68658 5.90816 0
M  V30 2361 H 220.14 -3.74336 6.61647 0
M  V30 2362 N 221.715 -0.905404 -1.28997 0
M  V30 2363 C 223.126 -0.581953 -1.77398 0
M  V30 2364 C 223.477 0.902552 -1.74208 0
M  V30 2365 O 222.602 1.70584 -1.33154 0
M  V30 2366 C 223.197 -1.04961 -3.22131 0
M  V30 2367 C 221.756 -0.777229 -3.68288 0
M  V30 2368 C 220.903 -1.22109 -2.48967 0
M  V30 2369 H 223.854 -1.08754 -1.15578 0
M  V30 2370 H 223.875 -0.387387 -3.78523 0
M  V30 2371 H 223.387 -2.13008 -3.24421 0
M  V30 2372 H 221.488 0.290383 -3.71467 0
M  V30 2373 H 221.601 -1.37911 -4.58822 0
M  V30 2374 H 219.965 -0.639971 -2.46529 0
M  V30 2375 H 220.748 -2.30972 -2.53982 0
M  V30 2376 N 223.193 1.4272 -0.668489 0
M  V30 2377 C 224.418 2.06484 -0.194758 0
M  V30 2378 C 224.843 1.49862 1.13679 0
M  V30 2379 O 224.201 0.614582 1.70565 0
M  V30 2380 C 224.249 3.60353 -0.133546 0
M  V30 2381 O 223.353 4.02464 0.899806 0
M  V30 2382 H 222.694 0.656137 -0.10188 0
M  V30 2383 H 225.224 1.82964 -0.915722 0
M  V30 2384 H 225.234 4.07976 0.0447041 0
M  V30 2385 H 223.909 4.00938 -1.1055 0
M  V30 2386 H 222.486 3.66402 0.693109 0
M  V30 2387 N 224.671 0.411399 1.52136 0
M  V30 2388 C 225.618 -0.412975 2.27075 0
M  V30 2389 C 226.588 -1.03912 1.29582 0
M  V30 2390 O 227.773 -1.06296 1.58448 0
M  V30 2391 C 224.913 -1.52247 3.09701 0
M  V30 2392 C 224.026 -0.917021 4.22155 0
M  V30 2393 C 223.161 -1.9994 4.92135 0
M  V30 2394 C 222.2 -1.37101 5.96548 0
M  V30 2395 N 221.337 -2.39364 6.60038 0
M  V30 2396 H 226.177 0.232499 2.97092 0
M  V30 2397 H 223.714 0.126496 1.46555 0
M  V30 2398 H 225.672 -2.17674 3.55913 0
M  V30 2399 H 224.302 -2.13794 2.41851 0
M  V30 2400 H 223.354 -0.151742 3.80097 0
M  V30 2401 H 224.666 -0.418006 4.97045 0
M  V30 2402 H 223.82 -2.73088 5.41763 0
M  V30 2403 H 222.559 -2.53208 4.16818 0
M  V30 2404 H 221.564 -0.624873 5.46237 0
M  V30 2405 H 222.789 -0.845998 6.7381 0
M  V30 2406 H 220.735 -2.91759 5.87548 0
M  V30 2407 H 220.652 -1.9428 7.3061 0
M  V30 2408 H 221.92 -3.12074 7.14304 0
M  V30 2409 O 226.188 -1.59008 0.282609 0
M  V30 2410 H 226.879 -1.91579 -0.285831 0
M  V30 END ATOM
M  V30 BEGIN BOND
M  V30 END BOND
M  V30 END CTAB
M  END
$$$$
