drugbank_target|Q59288 Chondroitinase-AC (DB01872; DB02186; DB02305; DB02945; DB03156; DB03389; DB03569; DB03863; DB03879)
 OpenBabel12092119543D

  0  0  0     0  0            999 V3000
M  V30 BEGIN CTAB
M  V30 COUNTS 11225 11367 0 0 0
M  V30 BEGIN ATOM
M  V30 1 H -0.908 1.98254 -0.117106 0
M  V30 2 N 0 1.576 0 0
M  V30 3 C 0.933 2.03868 1.02534 0
M  V30 4 C 1.911 0.928543 1.3348 0
M  V30 5 O 3.095 1.19667 1.45644 0
M  V30 6 C 0.222 2.43627 2.35294 0
M  V30 7 C -0.732 3.65373 2.2001 0
M  V30 8 S 0.101 5.13292 1.52614 0
M  V30 9 C 1.257 5.56322 2.86805 0
M  V30 10 H 1.49 2.90518 0.631377 0
M  V30 11 H -0.977 1.52953 0.210867 0
M  V30 12 H 0.981 2.67203 3.11629 0
M  V30 13 H -0.358 1.57376 2.7183 0
M  V30 14 H -1.165 3.90944 3.18086 0
M  V30 15 H -1.563 3.418 1.51819 0
M  V30 16 H 0.729 5.58782 3.83104 0
M  V30 17 H 1.672 6.56266 2.65933 0
M  V30 18 H 2.08 4.83886 2.90714 0
M  V30 19 N 1.4781 -0.272755 1.55222 0
M  V30 20 C 2.4251 -1.33716 1.88119 0
M  V30 21 C 3.3951 -1.49066 0.73271 0
M  V30 22 O 4.5801 -1.63469 0.984002 0
M  V30 23 C 1.7201 -2.69238 2.15882 0
M  V30 24 C 0.8331 -2.62108 3.43399 0
M  V30 25 C -0.0319 -3.89811 3.60861 0
M  V30 26 C -0.9929 -3.77193 4.8207 0
M  V30 27 N -1.8559 -4.9673 4.96189 0
M  V30 28 H 2.9841 -1.04962 2.78903 0
M  V30 29 H 0.5211 -0.507088 1.38083 0
M  V30 30 H 2.4791 -3.48089 2.29978 0
M  V30 31 H 1.1091 -2.96194 1.28331 0
M  V30 32 H 0.1611 -1.74967 3.37773 0
M  V30 33 H 1.4731 -2.48685 4.32386 0
M  V30 34 H 0.6271 -4.77103 3.74777 0
M  V30 35 H -0.6339 -4.06102 2.7006 0
M  V30 36 H -1.6289 -2.88284 4.68159 0
M  V30 37 H -0.4039 -3.62421 5.74307 0
M  V30 38 H -2.4579 -5.13431 4.08319 0
M  V30 39 H -2.5409 -4.85839 5.79221 0
M  V30 40 H -1.2729 -5.85594 5.1449 0
M  V30 41 N 2.9562 -1.48159 -0.537278 0
M  V30 42 C 3.9032 -1.62138 -1.64256 0
M  V30 43 C 4.8732 -0.463668 -1.59497 0
M  V30 44 O 6.0582 -0.686241 -1.78032 0
M  V30 45 C 3.1982 -1.66028 -3.02537 0
M  V30 46 C 2.3112 -2.92855 -3.17585 0
M  V30 47 C 1.4462 -2.87952 -4.46382 0
M  V30 48 C 0.4852 -4.09516 -4.54932 0
M  V30 49 N -0.3778 -4.02733 -5.75109 0
M  V30 50 H 4.4622 -2.56529 -1.51647 0
M  V30 51 H 1.9992 -1.27224 -0.738414 0
M  V30 52 H 3.9572 -1.66265 -3.82638 0
M  V30 53 H 2.5872 -0.751331 -3.13934 0
M  V30 54 H 1.6392 -3.02395 -2.30784 0
M  V30 55 H 2.9512 -3.82822 -3.19764 0
M  V30 56 H 2.1052 -2.8655 -5.34765 0
M  V30 57 H 0.8442 -1.95702 -4.46712 0
M  V30 58 H -0.1508 -4.11201 -3.64957 0
M  V30 59 H 1.0742 -5.02917 -4.56346 0
M  V30 60 H -0.9798 -3.13299 -5.76351 0
M  V30 61 H -1.0628 -4.86397 -5.78752 0
M  V30 62 H 0.2052 -4.05379 -6.65799 0
M  V30 63 N 4.4343 0.785586 -1.36625 0
M  V30 64 C 5.3643 1.91259 -1.33949 0
M  V30 65 C 6.3453 1.68795 -0.210325 0
M  V30 66 O 7.5303 1.89854 -0.408561 0
M  V30 67 C 4.6603 3.28339 -1.13186 0
M  V30 68 C 3.6143 3.65335 -2.22967 0
M  V30 69 C 2.9403 5.00806 -1.87342 0
M  V30 70 C 4.2403 3.7352 -3.65075 0
M  V30 71 H 5.9343 1.93755 -2.28253 0
M  V30 72 H 3.4803 0.930788 -1.09874 0
M  V30 73 H 5.4333 4.06804 -1.09948 0
M  V30 74 H 4.1573 3.2624 -0.153332 0
M  V30 75 H 2.8163 2.89169 -2.25337 0
M  V30 76 H 2.4643 4.95233 -0.880545 0
M  V30 77 H 2.1643 5.26529 -2.60846 0
M  V30 78 H 3.6883 5.81687 -1.85667 0
M  V30 79 H 5.1023 4.42168 -3.64911 0
M  V30 80 H 3.4993 4.10731 -4.37516 0
M  V30 81 H 4.5693 2.74527 -3.99703 0
M  V30 82 N 5.9124 1.20967 1.01018 0
M  V30 83 C 7.1594 1.02374 1.74716 0
M  V30 84 C 7.4874 -0.443375 1.89379 0
M  V30 85 O 6.7424 -1.34535 1.42123 0
M  V30 86 C 7.0414 1.65997 3.16512 0
M  V30 87 C 6.7074 3.15831 3.2181 0
M  V30 88 C 5.3694 3.56719 3.22963 0
M  V30 89 C 7.7214 4.11816 3.19464 0
M  V30 90 C 5.0494 4.92107 3.19449 0
M  V30 91 C 7.4014 5.47158 3.17491 0
M  V30 92 C 6.0654 5.87451 3.16951 0
M  V30 93 H 5.3354 0.374614 0.639332 0
M  V30 94 H 7.9824 1.50485 1.18434 0
M  V30 95 H 6.2874 1.10166 3.75993 0
M  V30 96 H 7.9844 1.49119 3.72242 0
M  V30 97 H 4.5744 2.83263 3.21652 0
M  V30 98 H 8.7584 3.81257 3.17737 0
M  V30 99 H 4.0144 5.22579 3.17366 0
M  V30 100 H 8.1884 6.21274 3.14629 0
M  V30 101 H 5.8154 6.92329 3.13983 0
M  V30 102 N 7.3905 -1.2043 1.01659 0
M  V30 103 C 8.6365 -1.90079 0.706963 0
M  V30 104 C 8.9695 -1.78648 -0.761474 0
M  V30 105 O 8.2445 -1.17069 -1.55323 0
M  V30 106 C 8.5275 -3.41469 1.14327 0
M  V30 107 C 8.3805 -3.61833 2.67201 0
M  V30 108 C 9.6995 -4.34261 0.714529 0
M  V30 109 H 6.8185 -0.690254 0.2583 0
M  V30 110 H 9.4605 -1.41826 1.26433 0
M  V30 111 H 7.6105 -3.82696 0.669056 0
M  V30 112 H 9.2825 -3.2986 3.22475 0
M  V30 113 H 7.5255 -3.05304 3.08175 0
M  V30 114 H 8.1965 -4.67955 2.92783 0
M  V30 115 H 10.6725 -4.00682 1.12221 0
M  V30 116 H 9.5485 -5.38806 1.04784 0
M  V30 117 H 9.8095 -4.40431 -0.383799 0
M  V30 118 N 8.8686 -0.792821 -1.36206 0
M  V30 119 C 10.0966 -0.378825 -2.03402 0
M  V30 120 C 10.5116 1.00586 -1.59774 0
M  V30 121 O 9.8686 1.64574 -0.788764 0
M  V30 122 C 9.9196 -0.43683 -3.58851 0
M  V30 123 O 9.6406 -1.76691 -4.00889 0
M  V30 124 C 11.1416 -0.0138943 -4.43298 0
M  V30 125 H 8.3616 -0.155673 -0.652692 0
M  V30 126 H 10.9056 -1.07261 -1.74113 0
M  V30 127 H 9.0606 0.208575 -3.86838 0
M  V30 128 H 9.4746 -1.72011 -4.95492 0
M  V30 129 H 10.9486 -0.105615 -5.51899 0
M  V30 130 H 11.4256 1.03915 -4.2673 0
M  V30 131 H 12.0316 -0.63192 -4.20579 0
M  V30 132 N 10.3467 1.47872 -0.545128 0
M  V30 133 C 11.5867 2.04391 -0.0187854 0
M  V30 134 C 11.9507 1.41162 1.30144 0
M  V30 135 O 13.1517 1.88656 1.91474 0
M  V30 136 C 11.4227 3.57299 0.0850867 0
M  V30 137 S 12.9817 4.35221 0.559302 0
M  V30 138 H 9.7997 0.710737 -0.0193301 0
M  V30 139 H 12.4017 1.81395 -0.729125 0
M  V30 140 H 11.1057 4.00847 -0.880351 0
M  V30 141 H 10.6367 3.84773 0.819348 0
M  V30 142 H 12.6517 4.61571 1.82118 0
M  V30 143 N 11.8248 0.280983 1.55075 0
M  V30 144 C 13.0738 -0.334784 1.98902 0
M  V30 145 C 13.3868 -1.56534 1.17288 0
M  V30 146 O 14.5928 -2.25443 1.51287 0
M  V30 147 C 13.0488 -0.646994 3.54037 0
M  V30 148 C 12.6568 0.564085 4.44435 0
M  V30 149 C 14.4008 -1.22506 4.06439 0
M  V30 150 C 12.3078 0.226137 5.90967 0
M  V30 151 H 11.2378 -0.128866 0.742906 0
M  V30 152 H 13.8888 0.386556 1.79382 0
M  V30 153 H 12.2708 -1.42739 3.6938 0
M  V30 154 H 13.4448 1.34082 4.40861 0
M  V30 155 H 11.7598 1.0594 4.02698 0
M  V30 156 H 14.3568 -1.49182 5.13468 0
M  V30 157 H 14.6998 -2.16085 3.55827 0
M  V30 158 H 15.2328 -0.50682 3.94558 0
M  V30 159 H 11.9718 1.12996 6.45687 0
M  V30 160 H 11.4918 -0.513717 5.97596 0
M  V30 161 H 13.1708 -0.179539 6.46751 0
M  V30 162 N 13.3029 -1.57598 0.00835791 0
M  V30 163 C 14.5489 -1.91211 -0.675732 0
M  V30 164 C 14.8819 -0.883139 -1.72958 0
M  V30 165 O 14.1569 0.097016 -1.94258 0
M  V30 166 C 14.4399 -3.35379 -1.31123 0
M  V30 167 C 14.2929 -4.48999 -0.268356 0
M  V30 168 C 15.6119 -3.7912 -2.23508 0
M  V30 169 H 12.7309 -0.695374 -0.244179 0
M  V30 170 H 15.3729 -1.89901 0.0613655 0
M  V30 171 H 13.5229 -3.36626 -1.93946 0
M  V30 172 H 15.1949 -4.59887 0.360844 0
M  V30 173 H 13.4379 -4.31873 0.408482 0
M  V30 174 H 14.1089 -5.46851 -0.752218 0
M  V30 175 H 16.5849 -3.79477 -1.70693 0
M  V30 176 H 15.4609 -4.80729 -2.64936 0
M  V30 177 H 15.7219 -3.13455 -3.11766 0
M  V30 178 N 14.781 0.264519 -1.55364 0
M  V30 179 C 16.028 0.994986 -1.7637 0
M  V30 180 C 16.356 1.85976 -0.5695 0
M  V30 181 O 15.611 1.90509 0.44776 0
M  V30 182 C 15.91 1.9004 -3.02687 0
M  V30 183 C 15.576 1.19243 -4.34847 0
M  V30 184 C 14.238 0.996709 -4.70764 0
M  V30 185 C 16.59 0.689296 -5.16622 0
M  V30 186 C 13.918 0.285261 -5.86006 0
M  V30 187 C 16.27 -0.00860079 -6.32599 0
M  V30 188 C 14.934 -0.215963 -6.67151 0
M  V30 189 H 14.204 0.364091 -0.645383 0
M  V30 190 H 16.851 0.266543 -1.89636 0
M  V30 191 H 15.156 2.69533 -2.84357 0
M  V30 192 H 16.853 2.46695 -3.16137 0
M  V30 193 H 13.443 1.3549 -4.06621 0
M  V30 194 H 17.627 0.828108 -4.89342 0
M  V30 195 H 12.883 0.113961 -6.11294 0
M  V30 196 H 17.057 -0.406186 -6.95214 0
M  V30 197 H 14.684 -0.769217 -7.56298 0
M  V30 198 N 16.2591 1.48442 0.529413 0
M  V30 199 C 17.5061 1.56488 1.28521 0
M  V30 200 C 17.8341 0.239042 1.93025 0
M  V30 201 O 17.0891 -0.770713 1.79885 0
M  V30 202 C 17.3881 2.6523 2.39558 0
M  V30 203 C 17.0541 4.07648 1.92702 0
M  V30 204 C 15.7161 4.46411 1.79641 0
M  V30 205 C 18.0681 4.96896 1.573 0
M  V30 206 C 15.3961 5.72226 1.29514 0
M  V30 207 C 17.7481 6.23202 1.08636 0
M  V30 208 C 16.4121 6.60821 0.941919 0
M  V30 209 H 15.6821 0.572631 0.470292 0
M  V30 210 H 18.3291 1.82161 0.59072 0
M  V30 211 H 16.6341 2.33419 3.14679 0
M  V30 212 H 18.3311 2.68671 2.97686 0
M  V30 213 H 14.9211 3.77036 2.03819 0
M  V30 214 H 19.1051 4.67626 1.66251 0
M  V30 215 H 14.3611 6.00097 1.17019 0
M  V30 216 H 18.5351 6.91753 0.803136 0
M  V30 217 H 16.1621 7.58198 0.5513 0
M  V30 218 N 17.7372 -0.778329 1.37039 0
M  V30 219 C 18.9622 -1.57248 1.35233 0
M  V30 220 C 19.3872 -1.87999 -0.0615568 0
M  V30 221 O 18.7452 -1.48734 -1.03672 0
M  V30 222 C 18.7932 -2.86353 2.19167 0
M  V30 223 O 17.8972 -3.80442 1.59178 0
M  V30 224 H 17.2382 -0.476569 0.462362 0
M  V30 225 H 19.7682 -0.963853 1.80474 0
M  V30 226 H 19.7782 -3.35519 2.32145 0
M  V30 227 H 18.4532 -2.63299 3.21942 0
M  V30 228 H 17.0302 -3.39067 1.55203 0
M  V30 229 N 19.2153 -1.21501 -1.00376 0
M  V30 230 C 20.4643 -1.02718 -1.73586 0
M  V30 231 C 20.7773 0.439589 -1.90596 0
M  V30 232 O 21.9833 0.746848 -2.61026 0
M  V30 233 C 20.4393 -1.78929 -3.1227 0
M  V30 234 C 20.0473 -3.29783 -3.03228 0
M  V30 235 C 21.7913 -1.68557 -3.89601 0
M  V30 236 C 19.6983 -3.98479 -4.36999 0
M  V30 237 H 18.6283 -0.380733 -0.650814 0
M  V30 238 H 21.2793 -1.45248 -1.1214 0
M  V30 239 H 19.6613 -1.29192 -3.74333 0
M  V30 240 H 20.8353 -3.86832 -2.50395 0
M  V30 241 H 19.1503 -3.40711 -2.39385 0
M  V30 242 H 21.7473 -2.17211 -4.88593 0
M  V30 243 H 22.0903 -0.644021 -4.11288 0
M  V30 244 H 22.6233 -2.15778 -3.34193 0
M  V30 245 H 19.3623 -5.02841 -4.20513 0
M  V30 246 H 18.8823 -3.46219 -4.89788 0
M  V30 247 H 20.5613 -4.03462 -5.05794 0
M  V30 248 N 20.6934 1.19889 -1.02296 0
M  V30 249 C 21.6234 2.25141 -0.619174 0
M  V30 250 C 22.6044 1.66051 0.368915 0
M  V30 251 O 23.7894 1.92546 0.252941 0
M  V30 252 C 20.9194 3.4728 0.0368783 0
M  V30 253 C 19.8734 4.19005 -0.872865 0
M  V30 254 C 19.1994 5.34637 -0.0822402 0
M  V30 255 C 20.4994 4.74452 -2.18387 0
M  V30 256 H 22.1934 2.59171 -1.49903 0
M  V30 257 H 19.7394 1.24579 -0.722222 0
M  V30 258 H 21.6924 4.20098 0.330958 0
M  V30 259 H 20.4164 3.12433 0.95149 0
M  V30 260 H 19.0754 3.48061 -1.15105 0
M  V30 261 H 18.7234 4.96034 0.83422 0
M  V30 262 H 18.4234 5.83557 -0.688149 0
M  V30 263 H 19.9474 6.10255 0.205238 0
M  V30 264 H 21.3614 5.39055 -1.95172 0
M  V30 265 H 19.7584 5.33834 -2.74119 0
M  V30 266 H 20.8284 3.92844 -2.84257 0
M  V30 267 N 22.1715 0.800033 1.35784 0
M  V30 268 C 23.3965 0.388511 2.03729 0
M  V30 269 C 23.8215 -0.990481 1.5991 0
M  V30 270 O 23.1795 -1.64013 0.772612 0
M  V30 271 C 23.2275 0.4726 3.5749 0
M  V30 272 O 22.3315 -0.51646 4.09153 0
M  V30 273 H 21.6725 0.163271 0.643614 0
M  V30 274 H 24.2025 1.0841 1.73518 0
M  V30 275 H 24.2125 0.34003 4.06581 0
M  V30 276 H 22.8875 1.47848 3.88734 0
M  V30 277 H 21.4645 -0.344673 3.71304 0
M  V30 278 N 23.6496 -1.47581 0.552962 0
M  V30 279 C 25.0606 -1.86324 0.118463 0
M  V30 280 C 25.4116 -1.46006 -1.3106 0
M  V30 281 O 24.5366 -0.861182 -1.98526 0
M  V30 282 C 25.1316 -3.3816 0.20821 0
M  V30 283 C 23.6906 -3.7601 -0.171226 0
M  V30 284 C 22.8376 -2.71634 0.557686 0
M  V30 285 H 25.7886 -1.39159 0.762928 0
M  V30 286 H 25.8096 -3.76141 -0.574278 0
M  V30 287 H 25.3216 -3.67473 1.24841 0
M  V30 288 H 23.4226 -3.52313 -1.21269 0
M  V30 289 H 23.5356 -4.78745 0.184379 0
M  V30 290 H 21.8996 -2.547 0.00125792 0
M  V30 291 H 22.6826 -3.0379 1.59896 0
M  V30 292 N 25.1277 -0.289203 -1.54924 0
M  V30 293 C 26.0907 0.579144 -2.21762 0
M  V30 294 C 27.0907 1.07047 -1.1999 0
M  V30 295 O 28.2807 0.968384 -1.44803 0
M  V30 296 C 25.4127 1.80055 -2.8947 0
M  V30 297 H 26.6057 -0.00464908 -2.999 0
M  V30 298 H 24.1587 -0.0399306 -1.56249 0
M  V30 299 H 24.8937 2.42449 -2.15381 0
M  V30 300 H 24.6787 1.45602 -3.64064 0
M  V30 301 H 26.1687 2.41773 -3.40493 0
M  V30 302 N 26.6058 1.57591 -0.0167156 0
M  V30 303 C 27.5358 2.12496 0.967858 0
M  V30 304 C 28.5168 1.03807 1.34752 0
M  V30 305 O 29.7018 1.31577 1.42833 0
M  V30 306 C 26.8318 2.64194 2.25431 0
M  V30 307 C 25.7858 3.77559 2.01576 0
M  V30 308 C 25.1118 4.15636 3.36379 0
M  V30 309 C 26.4118 5.04151 1.36489 0
M  V30 310 H 28.1058 2.95013 0.510643 0
M  V30 311 H 25.6518 1.41915 0.244181 0
M  V30 312 H 27.6048 3.01236 2.94678 0
M  V30 313 H 26.3288 1.78821 2.73296 0
M  V30 314 H 24.9878 3.40937 1.34751 0
M  V30 315 H 24.6358 3.27263 3.81979 0
M  V30 316 H 24.3358 4.92022 3.21229 0
M  V30 317 H 25.8598 4.5525 4.06915 0
M  V30 318 H 27.2738 5.38857 1.95718 0
M  V30 319 H 25.6708 5.85453 1.31776 0
M  V30 320 H 26.7408 4.83733 0.336219 0
M  V30 321 N 28.0839 -0.256276 1.55502 0
M  V30 322 C 29.0139 -1.32102 1.92539 0
M  V30 323 C 29.9949 -1.50684 0.789194 0
M  V30 324 O 31.1799 -1.63449 1.04872 0
M  V30 325 C 28.3099 -2.67752 2.21192 0
M  V30 326 C 27.2639 -2.63878 3.36975 0
M  V30 327 C 26.5899 -4.03236 3.51147 0
M  V30 328 C 27.8899 -2.21682 4.72921 0
M  V30 329 H 29.5839 -1.01351 2.81724 0
M  V30 330 H 27.1299 -0.486105 1.35547 0
M  V30 331 H 29.0829 -3.42365 2.45691 0
M  V30 332 H 27.8069 -3.0012 1.28824 0
M  V30 333 H 26.4659 -1.91722 3.12471 0
M  V30 334 H 26.1139 -4.32854 2.56216 0
M  V30 335 H 25.8139 -4.01535 4.29003 0
M  V30 336 H 27.3379 -4.79563 3.77957 0
M  V30 337 H 28.7519 -2.86023 4.96854 0
M  V30 338 H 27.1489 -2.3111 5.53812 0
M  V30 339 H 28.2189 -1.16833 4.70615 0
M  V30 340 N 29.562 -1.4872 -0.521534 0
M  V30 341 C 30.811 -1.56419 -1.27341 0
M  V30 342 C 31.124 -0.246805 -1.94037 0
M  V30 343 O 32.33 -0.202122 -2.70747 0
M  V30 344 C 30.786 -2.75896 -2.31105 0
M  V30 345 C 30.394 -4.14311 -1.70441 0
M  V30 346 C 32.138 -2.92913 -3.07249 0
M  V30 347 C 30.045 -5.25038 -2.72194 0
M  V30 348 H 28.975 -0.582344 -0.478949 0
M  V30 349 H 31.626 -1.75071 -0.549779 0
M  V30 350 H 30.008 -2.50697 -3.06541 0
M  V30 351 H 31.182 -4.49564 -1.01136 0
M  V30 352 H 29.497 -4.02482 -1.06759 0
M  V30 353 H 32.094 -3.72805 -3.83302 0
M  V30 354 H 32.437 -2.02689 -3.63625 0
M  V30 355 H 32.97 -3.18054 -2.38928 0
M  V30 356 H 29.709 -6.17255 -2.20627 0
M  V30 357 H 29.229 -4.94263 -3.39801 0
M  V30 358 H 30.908 -5.53508 -3.35019 0
M  V30 359 N 31.0401 0.771051 -1.3745 0
M  V30 360 C 32.0031 1.86598 -1.33093 0
M  V30 361 C 33.0031 1.59076 -0.234845 0
M  V30 362 O 34.1931 1.67145 -0.490732 0
M  V30 363 C 31.3251 3.23747 -1.06773 0
M  V30 364 H 32.5181 1.91873 -2.30488 0
M  V30 365 H 30.0711 0.970876 -1.2249 0
M  V30 366 H 30.8061 3.24148 -0.099129 0
M  V30 367 H 30.5911 3.45115 -1.86112 0
M  V30 368 H 32.0811 4.03824 -1.06377 0
M  V30 369 N 32.5182 1.22032 0.997298 0
M  V30 370 C 33.4502 0.944263 2.08845 0
M  V30 371 C 34.4632 -0.0754663 1.62625 0
M  V30 372 O 35.6522 0.157994 1.77799 0
M  V30 373 C 32.7522 0.397723 3.36558 0
M  V30 374 C 31.9252 1.47362 4.11829 0
M  V30 375 C 30.9842 0.934951 5.17827 0
M  V30 376 O 30.0102 1.62016 5.45655 0
M  V30 377 N 31.2122 -0.245895 5.79979 0
M  V30 378 H 33.9772 1.88363 2.33109 0
M  V30 379 H 31.5382 1.12661 1.16272 0
M  V30 380 H 33.5302 0.0227771 4.04694 0
M  V30 381 H 32.1002 -0.446646 3.09393 0
M  V30 382 H 31.3202 2.02208 3.38386 0
M  V30 383 H 32.6082 2.19764 4.58891 0
M  V30 384 H 32.0062 -0.819475 5.59733 0
M  V30 385 H 30.5632 -0.562272 6.4937 0
M  V30 386 N 33.9963 -1.19345 1.0293 0
M  V30 387 C 34.9283 -2.22036 0.56857 0
M  V30 388 C 35.9413 -1.58865 -0.355779 0
M  V30 389 O 37.1303 -1.77851 -0.152103 0
M  V30 390 C 34.2303 -3.38363 -0.190752 0
M  V30 391 C 33.4033 -4.31118 0.738643 0
M  V30 392 C 32.4623 -5.26194 0.0246497 0
M  V30 393 O 31.4883 -5.65461 0.651354 0
M  V30 394 N 32.6903 -5.66971 -1.24594 0
M  V30 395 H 35.4553 -2.6219 1.45177 0
M  V30 396 H 33.0163 -1.34015 0.908381 0
M  V30 397 H 35.0083 -3.98981 -0.677961 0
M  V30 398 H 33.5783 -2.96994 -0.975366 0
M  V30 399 H 32.7983 -3.68276 1.40593 0
M  V30 400 H 34.0863 -4.90001 1.37029 0
M  V30 401 H 33.4843 -5.37104 -1.77583 0
M  V30 402 H 32.0413 -6.2984 -1.67764 0
M  V30 403 N 35.4744 -0.807222 -1.35358 0
M  V30 404 C 36.7024 -0.400377 -2.02989 0
M  V30 405 C 37.1174 0.988859 -1.60832 0
M  V30 406 O 36.4744 1.63729 -0.806175 0
M  V30 407 C 36.5254 -0.474867 -3.58368 0
M  V30 408 O 36.2464 -1.80933 -3.98992 0
M  V30 409 C 37.7474 -0.0609112 -4.43258 0
M  V30 410 H 34.9674 -0.162587 -0.651004 0
M  V30 411 H 37.5114 -1.09102 -1.72965 0
M  V30 412 H 35.6664 0.167534 -3.87038 0
M  V30 413 H 36.0804 -1.77256 -4.9364 0
M  V30 414 H 37.5544 -0.164145 -5.51756 0
M  V30 415 H 38.0314 0.993831 -4.27808 0
M  V30 416 H 38.6374 -0.676492 -4.19885 0
M  V30 417 N 36.9525 1.47285 -0.560781 0
M  V30 418 C 38.2005 2.02064 -0.0379868 0
M  V30 419 C 38.5215 1.43711 1.31803 0
M  V30 420 O 37.7915 0.61362 1.86042 0
M  V30 421 H 36.3715 0.746918 -0.0110531 0
M  V30 422 H 39.0335 1.80648 -0.731598 0
M  V30 423 H 38.1295 3.12064 0.0474463 0
M  V30 424 N 38.4306 0.297415 1.54768 0
M  V30 425 C 39.6586 -0.315623 2.04478 0
M  V30 426 C 40.0736 -1.47792 1.17486 0
M  V30 427 O 39.4306 -1.81404 0.19971 0
M  V30 428 C 39.4816 -0.7753 3.53088 0
M  V30 429 O 39.2026 0.340732 4.36773 0
M  V30 430 C 40.7036 -1.45386 4.18781 0
M  V30 431 H 37.9236 -0.0690887 0.667434 0
M  V30 432 H 40.4676 0.436003 1.99798 0
M  V30 433 H 38.6226 -1.47696 3.58141 0
M  V30 434 H 39.0366 -0.0165035 5.24497 0
M  V30 435 H 40.5106 -1.72669 5.24299 0
M  V30 436 H 40.9876 -2.39275 3.68299 0
M  V30 437 H 41.5936 -0.795475 4.17795 0
M  V30 438 N 39.9087 -1.5758 0.0250728 0
M  V30 439 C 40.8717 -2.08896 -0.943139 0
M  V30 440 C 41.8717 -1.00321 -1.25668 0
M  V30 441 O 43.0617 -1.26495 -1.19769 0
M  V30 442 C 40.1937 -2.55143 -2.26086 0
M  V30 443 H 41.3867 -2.95723 -0.498775 0
M  V30 444 H 38.9397 -1.54703 -0.222888 0
M  V30 445 H 39.6747 -1.71633 -2.75159 0
M  V30 446 H 39.4597 -3.34461 -2.04641 0
M  V30 447 H 40.9497 -2.95083 -2.95492 0
M  V30 448 N 41.3868 0.248026 -1.55636 0
M  V30 449 C 42.2968 1.32859 -1.93354 0
M  V30 450 C 43.3128 1.52719 -0.833838 0
M  V30 451 O 44.4888 1.66363 -1.13513 0
M  V30 452 C 41.5538 2.66337 -2.21958 0
M  V30 453 C 40.6148 2.55008 -3.45354 0
M  V30 454 C 39.8478 3.82121 -3.72584 0
M  V30 455 O 40.0708 4.83951 -3.01907 0
M  V30 456 O 39.0048 3.80822 -4.6611 0
M  V30 457 H 42.8308 1.03862 -2.85388 0
M  V30 458 H 40.4158 0.448686 -1.42503 0
M  V30 459 H 42.2978 3.45216 -2.4167 0
M  V30 460 H 40.9728 2.95068 -1.33103 0
M  V30 461 H 39.8798 1.7442 -3.30951 0
M  V30 462 H 41.2128 2.31222 -4.34508 0
M  V30 463 N 42.8649 1.48995 0.513639 0
M  V30 464 C 43.7949 1.67636 1.62544 0
M  V30 465 C 44.7759 0.525087 1.61793 0
M  V30 466 O 45.9609 0.759502 1.78732 0
M  V30 467 C 43.0909 1.73114 3.01079 0
M  V30 468 C 42.0449 2.87905 3.16693 0
M  V30 469 C 41.3709 2.78486 4.56453 0
M  V30 470 C 42.6709 4.29005 2.97913 0
M  V30 471 H 44.3649 2.60716 1.47198 0
M  V30 472 H 41.9109 1.25465 0.706714 0
M  V30 473 H 43.8639 1.84742 3.78746 0
M  V30 474 H 42.5879 0.766241 3.17484 0
M  V30 475 H 41.2469 2.75859 2.41448 0
M  V30 476 H 40.8949 1.7993 4.69717 0
M  V30 477 H 40.5949 3.55523 4.67843 0
M  V30 478 H 42.1189 2.92104 5.36197 0
M  V30 479 H 43.5329 4.41798 3.65359 0
M  V30 480 H 41.9299 5.07166 3.20785 0
M  V30 481 H 42.9999 4.44329 1.94165 0
M  V30 482 N 44.343 -0.763751 1.37857 0
M  V30 483 C 45.592 -1.51789 1.32827 0
M  V30 484 C 45.905 -1.95426 -0.0823719 0
M  V30 485 O 47.111 -2.70298 -0.255172 0
M  V30 486 C 45.567 -2.74133 2.33193 0
M  V30 487 C 45.175 -2.37562 3.79827 0
M  V30 488 C 46.919 -3.52054 2.37188 0
M  V30 489 C 44.826 -3.56456 4.71904 0
M  V30 490 H 43.756 -0.569896 0.493695 0
M  V30 491 H 46.407 -0.835822 1.63359 0
M  V30 492 H 44.789 -3.4427 1.9569 0
M  V30 493 H 45.963 -1.75157 4.26212 0
M  V30 494 H 44.278 -1.72798 3.78853 0
M  V30 495 H 46.875 -4.40437 3.03182 0
M  V30 496 H 47.218 -3.92486 1.38782 0
M  V30 497 H 47.751 -2.88921 2.7344 0
M  V30 498 H 44.49 -3.21099 5.71468 0
M  V30 499 H 44.01 -4.17938 4.30218 0
M  V30 500 H 45.689 -4.23168 4.89426 0
M  V30 501 N 45.8211 -1.22559 -0.990812 0
M  V30 502 C 46.7541 -0.940773 -2.07905 0
M  V30 503 C 47.7321 0.117082 -1.62178 0
M  V30 504 O 48.9161 -0.0149506 -1.88494 0
M  V30 505 C 46.0431 -0.415321 -3.36144 0
M  V30 506 C 45.0891 -1.45818 -4.00799 0
M  V30 507 S 45.9221 -3.03219 -4.41382 0
M  V30 508 C 47.0781 -2.52317 -5.72789 0
M  V30 509 H 47.3111 -1.8623 -2.31745 0
M  V30 510 H 44.8441 -1.05688 -1.12558 0
M  V30 511 H 46.8021 -0.118747 -4.10328 0
M  V30 512 H 45.4631 0.485121 -3.10331 0
M  V30 513 H 44.6561 -1.04044 -4.93144 0
M  V30 514 H 44.2581 -1.70356 -3.32949 0
M  V30 515 H 46.5501 -1.93688 -6.49224 0
M  V30 516 H 47.4931 -3.43161 -6.19392 0
M  V30 517 H 47.9011 -1.93529 -5.30289 0
M  V30 518 N 47.2992 1.18797 -1.03562 0
M  V30 519 C 48.2462 2.22253 -0.622259 0
M  V30 520 C 49.2162 1.61987 0.36736 0
M  V30 521 O 50.4012 1.88986 0.262492 0
M  V30 522 C 47.5412 3.45097 0.0138462 0
M  V30 523 C 46.6542 4.19722 -1.02263 0
M  V30 524 C 45.7892 5.30009 -0.355573 0
M  V30 525 C 44.8282 5.96399 -1.37749 0
M  V30 526 N 43.9652 6.98234 -0.735766 0
M  V30 527 H 48.8052 2.56968 -1.50903 0
M  V30 528 H 46.3422 1.26245 -0.755017 0
M  V30 529 H 48.3002 4.15279 0.399948 0
M  V30 530 H 46.9302 3.11018 0.864158 0
M  V30 531 H 45.9822 3.48418 -1.52673 0
M  V30 532 H 47.2942 4.65227 -1.79903 0
M  V30 533 H 46.4482 6.0664 0.0850095 0
M  V30 534 H 45.1872 4.85592 0.452967 0
M  V30 535 H 44.1922 5.18512 -1.82826 0
M  V30 536 H 45.4172 6.42899 -2.18764 0
M  V30 537 H 43.3632 6.55979 0.0525597 0
M  V30 538 H 43.2802 7.41965 -1.44995 0
M  V30 539 H 44.5482 7.78845 -0.31941 0
M  V30 540 N 48.7773 0.814389 1.34928 0
M  V30 541 C 50.1933 0.499084 1.51596 0
M  V30 542 C 50.3933 -0.978319 1.76157 0
M  V30 543 O 49.4493 -1.76309 1.80752 0
M  V30 544 C 50.7623 1.35121 2.68631 0
M  V30 545 C 52.3103 1.34746 2.82511 0
M  V30 546 C 52.7853 2.18388 4.0258 0
M  V30 547 N 54.2763 2.15966 4.09772 0
M  V30 548 C 55.0113 2.77437 5.01813 0
M  V30 549 N 54.5073 3.47866 5.99134 0
M  V30 550 N 56.3003 2.67037 4.94619 0
M  V30 551 H 48.4513 1.7711 1.17243 0
M  V30 552 H 50.7143 0.754256 0.574284 0
M  V30 553 H 50.4203 2.40001 2.57085 0
M  V30 554 H 50.2943 1.00991 3.63429 0
M  V30 555 H 52.6813 0.30648 2.93504 0
M  V30 556 H 52.7623 1.72869 1.88547 0
M  V30 557 H 52.4063 3.2253 3.92347 0
M  V30 558 H 52.3363 1.77621 4.9574 0
M  V30 559 H 54.8273 1.64729 3.40107 0
M  V30 560 H 55.1403 3.92038 6.65977 0
M  V30 561 H 53.4853 3.51972 5.99284 0
M  V30 562 H 56.6763 2.11597 4.17546 0
M  V30 563 H 56.8493 3.15232 5.66156 0
M  V30 564 N 50.2554 -1.46986 0.568584 0
M  V30 565 C 51.5014 -2.02741 0.0488709 0
M  V30 566 C 51.8344 -1.44077 -1.30214 0
M  V30 567 O 51.1094 -0.600552 -1.84996 0
M  V30 568 C 51.3924 -3.60086 -0.032047 0
M  V30 569 C 51.2454 -4.29162 1.34686 0
M  V30 570 C 52.5644 -4.33838 -0.739798 0
M  V30 571 H 49.6834 -0.736749 0.0192338 0
M  V30 572 H 52.3254 -1.75289 0.733065 0
M  V30 573 H 50.4754 -3.83606 -0.61473 0
M  V30 574 H 52.1474 -4.16948 1.97362 0
M  V30 575 H 50.3904 -3.89073 1.91846 0
M  V30 576 H 51.0614 -5.37826 1.24285 0
M  V30 577 H 53.5374 -4.15378 -0.244939 0
M  V30 578 H 52.4134 -5.43537 -0.765406 0
M  V30 579 H 52.6744 -4.03875 -1.79827 0
M  V30 580 N 51.7335 -0.305618 -1.54608 0
M  V30 581 C 52.6665 0.610536 -2.19881 0
M  V30 582 C 53.6445 1.1294 -1.16976 0
M  V30 583 O 54.8285 1.19673 -1.45638 0
M  V30 584 C 51.9555 1.83583 -2.84631 0
M  V30 585 C 51.0015 1.4498 -4.01102 0
M  V30 586 S 51.8345 0.501793 -5.33144 0
M  V30 587 C 52.9905 1.73478 -6.01379 0
M  V30 588 H 53.2235 0.0560177 -2.97247 0
M  V30 589 H 50.7565 -0.0897434 -1.54139 0
M  V30 590 H 52.7145 2.53898 -3.22562 0
M  V30 591 H 51.3755 2.36152 -2.07102 0
M  V30 592 H 50.5685 2.36236 -4.45206 0
M  V30 593 H 50.1705 0.826553 -3.64752 0
M  V30 594 H 52.4625 2.67473 -6.22467 0
M  V30 595 H 53.4055 1.33622 -6.95378 0
M  V30 596 H 53.8135 1.9136 -5.31076 0
M  V30 597 N 53.2116 1.57565 -0.0334293 0
M  V30 598 C 54.1416 2.13511 0.945265 0
M  V30 599 C 55.1226 1.05231 1.33643 0
M  V30 600 O 56.3076 1.33084 1.41429 0
M  V30 601 C 53.4376 2.6657 2.22616 0
M  V30 602 C 52.3916 3.79676 1.97561 0
M  V30 603 C 51.7176 4.1918 3.31952 0
M  V30 604 C 53.0176 5.0557 1.31135 0
M  V30 605 H 54.7116 2.95538 0.479325 0
M  V30 606 H 52.2576 1.42166 0.229115 0
M  V30 607 H 54.2106 3.04344 2.91466 0
M  V30 608 H 52.9346 1.8171 2.71384 0
M  V30 609 H 51.5936 3.42347 1.31127 0
M  V30 610 H 51.2416 3.31296 3.78487 0
M  V30 611 H 50.9416 4.95402 3.15992 0
M  V30 612 H 52.4656 4.59541 4.02063 0
M  V30 613 H 53.8796 5.40903 1.89992 0
M  V30 614 H 52.2766 5.86818 1.25559 0
M  V30 615 H 53.3466 4.84062 0.284894 0
M  V30 616 N 54.6897 -0.239769 1.55765 0
M  V30 617 C 55.9667 -0.990056 1.68693 0
M  V30 618 C 56.3467 -2.03107 0.5754 0
M  V30 619 O 55.6947 -2.24604 -0.42017 0
M  V30 620 C 55.9047 -1.61696 3.09282 0
M  V30 621 C 57.2527 -2.11613 3.6811 0
M  V30 622 O 58.2767 -1.71624 3.12127 0
M  V30 623 O 57.1357 -2.85057 4.66267 0
M  V30 624 H 54.2297 -0.461299 0.686391 0
M  V30 625 H 56.7757 -0.232991 1.68093 0
M  V30 626 H 55.5477 -0.864357 3.81634 0
M  V30 627 H 55.1707 -2.44005 3.13923 0
M  V30 628 N 56.1678 -1.49265 -0.50573 0
M  V30 629 C 57.0978 -1.68495 -1.61653 0
M  V30 630 C 58.0788 -0.53366 -1.61512 0
M  V30 631 O 59.2638 -0.76897 -1.78327 0
M  V30 632 C 56.3938 -1.74709 -3.00157 0
M  V30 633 C 55.3478 -2.89581 -3.15162 0
M  V30 634 C 54.6738 -2.80903 -4.5497 0
M  V30 635 C 55.9738 -4.30578 -2.95634 0
M  V30 636 H 57.6678 -2.61493 -1.45814 0
M  V30 637 H 55.2138 -1.25838 -0.70005 0
M  V30 638 H 57.1668 -1.86748 -3.77761 0
M  V30 639 H 55.8908 -0.783067 -3.17074 0
M  V30 640 H 54.5498 -2.77136 -2.39982 0
M  V30 641 H 54.1978 -1.82419 -4.68756 0
M  V30 642 H 53.8978 -3.57999 -4.65951 0
M  V30 643 H 55.4218 -2.94944 -5.34641 0
M  V30 644 H 56.8358 -4.4373 -3.63011 0
M  V30 645 H 55.2328 -5.0886 -3.18091 0
M  V30 646 H 56.3028 -4.45352 -1.91806 0
M  V30 647 N 57.6459 0.756429 -1.3826 0
M  V30 648 C 58.5929 1.87011 -1.35261 0
M  V30 649 C 59.5629 1.64695 -0.215616 0
M  V30 650 O 60.7479 1.864 -0.407399 0
M  V30 651 C 57.8879 3.24275 -1.18068 0
M  V30 652 C 57.0009 3.58442 -2.41129 0
M  V30 653 C 56.1359 4.84994 -2.16689 0
M  V30 654 C 55.1749 5.11939 -3.35537 0
M  V30 655 N 54.3119 6.29685 -3.10549 0
M  V30 656 H 59.1519 1.8891 -2.30472 0
M  V30 657 H 56.6889 0.923373 -1.14509 0
M  V30 658 H 58.6469 4.03479 -1.06116 0
M  V30 659 H 57.2769 3.21711 -0.264973 0
M  V30 660 H 56.3289 2.74103 -2.63764 0
M  V30 661 H 57.6409 3.74283 -3.29717 0
M  V30 662 H 56.7949 5.72135 -2.01857 0
M  V30 663 H 55.5339 4.71286 -1.25462 0
M  V30 664 H 54.5389 4.23268 -3.50891 0
M  V30 665 H 55.7639 5.27546 -4.27635 0
M  V30 666 H 53.7099 6.17306 -2.21967 0
M  V30 667 H 53.6269 6.46014 -3.92686 0
M  V30 668 H 54.8949 7.19722 -2.99367 0
M  V30 669 N 59.124 1.23083 0.984299 0
M  V30 670 C 60.071 1.00854 2.07598 0
M  V30 671 C 61.041 -0.0726709 1.65941 0
M  V30 672 O 62.226 0.0786535 1.90638 0
M  V30 673 C 59.366 0.601645 3.39815 0
M  V30 674 C 58.479 1.75456 3.94765 0
M  V30 675 C 57.614 1.29482 5.15177 0
M  V30 676 C 56.653 2.41873 5.62284 0
M  V30 677 N 55.79 1.96885 6.73929 0
M  V30 678 H 60.63 1.943 2.25946 0
M  V30 679 H 58.167 0.968001 1.10762 0
M  V30 680 H 60.125 0.346854 4.15756 0
M  V30 681 H 58.755 -0.295803 3.21442 0
M  V30 682 H 57.807 2.12346 3.15616 0
M  V30 683 H 59.119 2.59965 4.25699 0
M  V30 684 H 58.273 0.997923 5.98437 0
M  V30 685 H 57.012 0.420046 4.85888 0
M  V30 686 H 56.017 2.72342 4.77608 0
M  V30 687 H 57.242 3.29881 5.93595 0
M  V30 688 H 55.188 1.11782 6.46406 0
M  V30 689 H 55.105 2.74956 7.04227 0
M  V30 690 H 56.373 1.70289 7.60672 0
M  V30 691 N 60.6021 -1.18246 1.0419 0
M  V30 692 C 62.0131 -1.69914 0.773698 0
M  V30 693 C 62.3641 -1.83085 -0.705297 0
M  V30 694 O 61.4891 -1.51123 -1.5489 0
M  V30 695 C 62.0841 -3.08619 1.39784 0
M  V30 696 C 60.6431 -3.57494 1.17792 0
M  V30 697 C 59.7901 -2.34013 1.48773 0
M  V30 698 H 62.7411 -1.02904 1.20816 0
M  V30 699 H 62.7621 -3.71958 0.801714 0
M  V30 700 H 62.2741 -2.99001 2.47426 0
M  V30 701 H 60.3751 -3.72406 0.120295 0
M  V30 702 H 60.4881 -4.40852 1.87581 0
M  V30 703 H 58.8521 -2.37986 0.907463 0
M  V30 704 H 59.6351 -2.27013 2.57527 0
M  V30 705 N 62.0802 -0.821533 -1.34494 0
M  V30 706 C 63.0102 -0.257138 -2.3208 0
M  V30 707 C 63.9912 0.625645 -1.58176 0
M  V30 708 O 65.1762 0.552811 -1.86166 0
M  V30 709 C 62.3062 0.582958 -3.42372 0
M  V30 710 C 61.2602 -0.202571 -4.2752 0
M  V30 711 C 60.5862 0.760179 -5.29269 0
M  V30 712 C 61.8862 -1.40998 -5.02908 0
M  V30 713 H 63.5802 -1.07247 -2.79532 0
M  V30 714 H 61.1262 -0.517163 -1.34393 0
M  V30 715 H 63.0792 0.987972 -4.09655 0
M  V30 716 H 61.8032 1.43133 -2.93565 0
M  V30 717 H 60.4622 -0.588936 -3.61838 0
M  V30 718 H 60.1102 1.60447 -4.76724 0
M  V30 719 H 59.8102 0.238809 -5.87115 0
M  V30 720 H 61.3342 1.16308 -5.9942 0
M  V30 721 H 62.7482 -1.07905 -5.63054 0
M  V30 722 H 61.1452 -1.86689 -5.70322 0
M  V30 723 H 62.2152 -2.1889 -4.32684 0
M  V30 724 N 63.5583 1.46682 -0.576371 0
M  V30 725 C 64.9743 1.57822 -0.237562 0
M  V30 726 C 65.1743 1.57237 1.26011 0
M  V30 727 O 64.2303 1.48596 2.04146 0
M  V30 728 C 65.5433 2.87499 -0.881168 0
M  V30 729 C 67.0913 3.01119 -0.85417 0
M  V30 730 C 67.5663 4.33524 -1.4772 0
M  V30 731 N 69.0573 4.40207 -1.44125 0
M  V30 732 C 69.7923 5.4126 -1.89276 0
M  V30 733 N 69.2883 6.49021 -2.42371 0
M  V30 734 N 71.0813 5.32422 -1.80231 0
M  V30 735 H 63.2323 1.45306 -1.54919 0
M  V30 736 H 65.4953 0.692733 -0.647167 0
M  V30 737 H 65.2013 2.9372 -1.93447 0
M  V30 738 H 65.0753 3.75224 -0.385592 0
M  V30 739 H 67.4623 2.94485 0.190491 0
M  V30 740 H 67.5433 2.14887 -1.3877 0
M  V30 741 H 67.1873 4.40916 -2.52103 0
M  V30 742 H 67.1173 5.1852 -0.918947 0
M  V30 743 H 69.6083 3.62931 -1.05307 0
M  V30 744 H 69.9213 7.2233 -2.74698 0
M  V30 745 H 68.2663 6.49858 -2.46393 0
M  V30 746 H 71.4573 4.47137 -1.38514 0
M  V30 747 H 71.6303 6.11034 -2.15735 0
M  V30 748 N 65.0364 0.313813 1.54444 0
M  V30 749 C 65.9844 -0.572171 2.25453 0
M  V30 750 C 66.9784 -1.12657 1.2651 0
M  V30 751 O 68.1844 -1.07573 1.44319 0
M  V30 752 H 64.5594 -0.203146 0.724041 0
M  V30 753 H 66.5304 0.0491145 2.9836 0
M  V30 754 C 65.2794 -1.72626 3.0182 0
M  V30 755 H 64.6024 -1.30891 3.77767 0
M  V30 756 H 66.0424 -2.32199 3.54767 0
M  V30 757 C 64.5014 -2.63806 2.09542 0
M  V30 758 O 65.0314 -3.65256 1.67185 0
M  V30 759 N 63.2374 -2.31824 1.75232 0
M  V30 760 H 62.7844 -1.49368 2.09873 0
M  V30 761 H 62.7424 -2.93095 1.13767 0
M  V30 762 N 66.5145 -1.57545 0.0417849 0
M  V30 763 C 67.4475 -2.06514 -0.970928 0
M  V30 764 C 68.4255 -0.963607 -1.30971 0
M  V30 765 O 69.6095 -1.23486 -1.4242 0
M  V30 766 C 66.7365 -2.4978 -2.28752 0
M  V30 767 C 65.7825 -3.71078 -2.10246 0
M  V30 768 S 66.6155 -5.17158 -1.38952 0
M  V30 769 C 67.7715 -5.6373 -2.71954 0
M  V30 770 H 68.0045 -2.9209 -0.554129 0
M  V30 771 H 65.5375 -1.53459 -0.17024 0
M  V30 772 H 67.4955 -2.75371 -3.04435 0
M  V30 773 H 66.1565 -1.64527 -2.67562 0
M  V30 774 H 65.3495 -3.9924 -3.07609 0
M  V30 775 H 64.9515 -3.45705 -1.42704 0
M  V30 776 H 67.2435 -5.68743 -3.68154 0
M  V30 777 H 68.1865 -6.63086 -2.4844 0
M  V30 778 H 68.5945 -4.91424 -2.77782 0
M  V30 779 N 67.9926 0.231505 -1.5589 0
M  V30 780 C 69.2696 0.981096 -1.69215 0
M  V30 781 C 69.6496 2.02799 -0.586164 0
M  V30 782 O 68.9976 2.24823 0.408253 0
M  V30 783 C 69.2076 1.60054 -3.10135 0
M  V30 784 C 70.5556 2.09658 -3.69227 0
M  V30 785 O 71.5796 1.69967 -3.13033 0
M  V30 786 O 70.4386 2.8258 -4.67772 0
M  V30 787 H 67.5326 0.457653 -0.688827 0
M  V30 788 H 70.0786 0.224073 -1.68214 0
M  V30 789 H 68.8506 0.844105 -3.82087 0
M  V30 790 H 68.4736 2.42336 -3.15212 0
M  V30 791 N 69.4707 1.49531 0.497807 0
M  V30 792 C 70.4177 1.66436 1.59899 0
M  V30 793 C 71.3877 0.505793 1.58212 0
M  V30 794 O 72.5727 0.733202 1.7615 0
M  V30 795 C 69.7127 1.7399 2.98029 0
M  V30 796 C 68.8257 3.01172 3.09708 0
M  V30 797 C 67.9607 2.99686 4.38591 0
M  V30 798 C 66.9997 4.21434 4.43914 0
M  V30 799 N 66.1367 4.1784 5.64229 0
M  V30 800 H 70.9767 2.60459 1.44793 0
M  V30 801 H 68.5137 1.29137 0.704423 0
M  V30 802 H 70.4717 1.76352 3.78095 0
M  V30 803 H 69.1017 0.834301 3.11832 0
M  V30 804 H 68.1537 3.08408 2.22685 0
M  V30 805 H 69.4657 3.91165 3.09502 0
M  V30 806 H 68.6197 3.00628 5.2698 0
M  V30 807 H 67.3587 2.07477 4.41367 0
M  V30 808 H 66.3637 4.20733 3.53926 0
M  V30 809 H 67.5887 5.14839 4.42851 0
M  V30 810 H 65.5347 3.28469 5.67841 0
M  V30 811 H 65.4517 5.01571 5.65652 0
M  V30 812 H 66.7197 4.22889 6.54817 0
M  V30 813 N 70.9488 -0.749086 1.3866 0
M  V30 814 C 72.1948 -1.51056 1.35314 0
M  V30 815 C 72.5278 -1.94121 -0.0553751 0
M  V30 816 O 71.8028 -1.65763 -1.01749 0
M  V30 817 C 72.0858 -2.76003 2.31288 0
M  V30 818 C 71.9388 -2.39047 3.8102 0
M  V30 819 C 73.2578 -3.78046 2.2532 0
M  V30 820 H 70.3768 -0.547972 0.492844 0
M  V30 821 H 73.0188 -0.857628 1.69543 0
M  V30 822 H 71.1688 -3.31716 2.02229 0
M  V30 823 H 72.8408 -1.89074 4.20771 0
M  V30 824 H 71.0838 -1.71449 3.98482 0
M  V30 825 H 71.7548 -3.28462 4.4364 0
M  V30 826 H 74.2308 -3.31884 2.50983 0
M  V30 827 H 73.1068 -4.63159 2.94576 0
M  V30 828 H 73.3678 -4.23957 1.25352 0
M  V30 829 N 72.4269 -1.23603 -0.977757 0
M  V30 830 C 73.3899 -1.02069 -2.05218 0
M  V30 831 C 74.3899 0.0184305 -1.60789 0
M  V30 832 O 75.5799 -0.221569 -1.72785 0
M  V30 833 C 72.7119 -0.544926 -3.36517 0
M  V30 834 H 73.9049 -1.9742 -2.25755 0
M  V30 835 H 71.4579 -1.05684 -1.15155 0
M  V30 836 H 72.1929 0.412241 -3.21669 0
M  V30 837 H 71.9779 -1.2948 -3.70105 0
M  V30 838 H 73.4679 -0.414985 -4.15533 0
M  V30 839 N 73.905 1.17692 -1.04816 0
M  V30 840 C 74.815 2.25229 -0.65643 0
M  V30 841 C 75.831 1.71018 0.320761 0
M  V30 842 O 77.007 2.00649 0.173805 0
M  V30 843 C 74.072 3.46684 -0.0332629 0
M  V30 844 C 73.133 4.15997 -1.06042 0
M  V30 845 C 72.366 5.31654 -0.466893 0
M  V30 846 O 72.589 5.65777 0.724758 0
M  V30 847 O 71.523 5.89831 -1.1993 0
M  V30 848 H 75.349 2.61016 -1.55255 0
M  V30 849 H 72.934 1.24919 -0.81949 0
M  V30 850 H 74.816 4.20234 0.313256 0
M  V30 851 H 73.491 3.12703 0.836566 0
M  V30 852 H 72.398 3.44482 -1.45886 0
M  V30 853 H 73.731 4.53996 -1.90127 0
M  V30 854 N 75.3831 0.828654 1.34056 0
M  V30 855 C 76.3301 0.252567 2.29414 0
M  V30 856 C 77.3001 -0.62588 1.53857 0
M  V30 857 O 78.4851 -0.566312 1.82202 0
M  V30 858 C 75.6251 -0.574831 3.40279 0
M  V30 859 C 74.7381 0.326499 4.30764 0
M  V30 860 C 73.8731 -0.511016 5.28736 0
M  V30 861 C 72.9121 0.389342 6.1086 0
M  V30 862 N 72.0491 -0.409439 7.00905 0
M  V30 863 H 76.8891 1.07108 2.78086 0
M  V30 864 H 74.4261 0.539677 1.36843 0
M  V30 865 H 76.3841 -1.06992 4.03248 0
M  V30 866 H 75.0141 -1.35841 2.92826 0
M  V30 867 H 74.0661 0.939837 3.68607 0
M  V30 868 H 75.3781 1.01857 4.88289 0
M  V30 869 H 74.5321 -1.07035 5.97184 0
M  V30 870 H 73.2711 -1.23657 4.71763 0
M  V30 871 H 72.2761 0.960769 5.4134 0
M  V30 872 H 73.5011 1.1131 6.69916 0
M  V30 873 H 71.4471 -1.11856 6.46393 0
M  V30 874 H 71.3641 0.224126 7.55668 0
M  V30 875 H 72.6321 -0.951336 7.73673 0
M  V30 876 N 76.8612 -1.46375 0.584142 0
M  V30 877 C 77.8092 -2.32042 -0.161047 0
M  V30 878 C 78.8032 -1.44569 -0.882966 0
M  V30 879 O 80.0092 -1.61186 -0.801191 0
M  V30 880 H 76.3842 -0.748659 -0.0708033 0
M  V30 881 H 78.3552 -2.92704 0.580269 0
M  V30 882 C 77.1042 -3.27762 -1.1605 0
M  V30 883 H 76.4272 -3.95051 -0.614419 0
M  V30 884 H 77.8672 -3.90481 -1.65228 0
M  V30 885 C 76.3262 -2.53218 -2.22221 0
M  V30 886 O 76.8562 -2.29628 -3.29597 0
M  V30 887 N 75.0622 -2.13756 -1.96868 0
M  V30 888 H 74.6092 -2.33142 -1.09557 0
M  V30 889 H 74.5672 -1.642 -2.68115 0
M  V30 890 N 78.3393 -0.321999 -1.54275 0
M  V30 891 C 79.2693 0.537411 -2.27231 0
M  V30 892 C 80.2503 1.12064 -1.27968 0
M  V30 893 O 81.4353 1.14606 -1.56777 0
M  V30 894 C 78.5653 1.69919 -3.02894 0
M  V30 895 C 77.5193 1.24534 -4.09482 0
M  V30 896 C 76.8453 2.49394 -4.72977 0
M  V30 897 C 78.1453 0.361335 -5.21049 0
M  V30 898 H 79.8393 -0.0711406 -2.99315 0
M  V30 899 H 77.3853 -0.0356555 -1.43956 0
M  V30 900 H 79.3383 2.30668 -3.52662 0
M  V30 901 H 78.0623 2.33431 -2.28424 0
M  V30 902 H 76.7213 0.660782 -3.60596 0
M  V30 903 H 76.3693 3.11265 -3.95124 0
M  V30 904 H 76.0693 2.19718 -5.44975 0
M  V30 905 H 77.5933 3.10908 -5.25517 0
M  V30 906 H 79.0073 0.875072 -5.66582 0
M  V30 907 H 77.4043 0.157428 -5.99893 0
M  V30 908 H 78.4743 -0.60822 -4.8107 0
M  V30 909 N 79.8174 1.5752 -0.0501392 0
M  V30 910 C 80.7654 2.12651 0.942459 0
M  V30 911 C 81.7594 1.05807 1.32292 0
M  V30 912 O 82.9654 1.24217 1.3027 0
M  V30 913 H 79.3404 0.679673 0.321789 0
M  V30 914 H 81.3114 2.94951 0.452356 0
M  V30 915 C 80.0604 2.68565 2.20836 0
M  V30 916 H 79.3834 3.50439 1.92439 0
M  V30 917 H 80.8234 3.10761 2.8845 0
M  V30 918 C 79.2824 1.62291 2.95234 0
M  V30 919 O 79.8124 1.03508 3.88135 0
M  V30 920 N 78.0184 1.33836 2.57946 0
M  V30 921 H 77.5654 1.81826 1.82475 0
M  V30 922 H 77.5234 0.629595 3.08032 0
M  V30 923 N 81.2955 -0.223234 1.56011 0
M  V30 924 C 82.5235 -0.964812 1.83027 0
M  V30 925 C 82.9385 -1.78013 0.62904 0
M  V30 926 O 82.2955 -1.78008 -0.402414 0
M  V30 927 C 82.3465 -1.88373 3.08542 0
M  V30 928 O 82.0675 -1.10137 4.2403 0
M  V30 929 C 83.5685 -2.73934 3.48533 0
M  V30 930 H 80.7885 -0.282842 0.608475 0
M  V30 931 H 83.3325 -0.238971 2.03099 0
M  V30 932 H 81.4875 -2.56354 2.9045 0
M  V30 933 H 81.9015 -1.72501 4.95322 0
M  V30 934 H 83.3755 -3.34117 4.39397 0
M  V30 935 H 83.8525 -3.46244 2.70207 0
M  V30 936 H 84.4585 -2.11369 3.69057 0
M  V30 937 N 82.7736 -1.49793 -0.48987 0
M  V30 938 C 83.7036 -1.70201 -1.59856 0
M  V30 939 C 84.6846 -0.55076 -1.60937 0
M  V30 940 O 85.8696 -0.787841 -1.77501 0
M  V30 941 C 82.9996 -1.77882 -2.98287 0
M  V30 942 C 81.9536 -2.92907 -3.12073 0
M  V30 943 C 81.2796 -2.85712 -4.51965 0
M  V30 944 C 82.5796 -4.3369 -2.91051 0
M  V30 945 H 84.2736 -2.63025 -1.43032 0
M  V30 946 H 81.8196 -1.26574 -0.686664 0
M  V30 947 H 83.7726 -1.90744 -3.75759 0
M  V30 948 H 82.4966 -0.816653 -3.16225 0
M  V30 949 H 81.1556 -2.79665 -2.37029 0
M  V30 950 H 80.8036 -1.8738 -4.66795 0
M  V30 951 H 80.5036 -3.62921 -4.62128 0
M  V30 952 H 82.0276 -3.00598 -5.31482 0
M  V30 953 H 83.4416 -4.47555 -3.58284 0
M  V30 954 H 81.8386 -5.12205 -3.12675 0
M  V30 955 H 82.9086 -4.47362 -1.87071 0
M  V30 956 N 84.2517 0.741722 -1.39055 0
M  V30 957 C 85.1837 1.8657 -1.33133 0
M  V30 958 C 86.1967 1.61001 -0.241329 0
M  V30 959 O 87.3857 1.7136 -0.499784 0
M  V30 960 C 84.4857 3.22457 -1.04283 0
M  V30 961 C 83.6587 3.75435 -2.24427 0
M  V30 962 C 82.7177 4.89867 -1.92138 0
M  V30 963 O 81.7437 5.03879 -2.64754 0
M  V30 964 N 82.9457 5.73738 -0.88347 0
M  V30 965 H 85.7107 1.92156 -2.29991 0
M  V30 966 H 83.2717 0.922172 -1.3307 0
M  V30 967 H 85.2637 3.9657 -0.807128 0
M  V30 968 H 83.8337 3.12181 -0.161807 0
M  V30 969 H 83.0537 2.92751 -2.6399 0
M  V30 970 H 84.3417 4.07563 -3.04581 0
M  V30 971 H 83.7397 5.64999 -0.281517 0
M  V30 972 H 82.2967 6.47947 -0.707662 0
M  V30 973 N 85.7298 1.2412 0.971189 0
M  V30 974 C 87.1408 1.07236 1.52831 0
M  V30 975 C 87.4918 -0.357352 1.92918 0
M  V30 976 O 86.6168 -1.24528 1.76979 0
M  V30 977 C 87.2118 1.94043 2.77728 0
M  V30 978 C 85.7708 1.81394 3.29808 0
M  V30 979 C 84.9178 1.89189 2.02738 0
M  V30 980 H 87.8688 1.37648 0.789864 0
M  V30 981 H 87.8898 1.47066 3.5093 0
M  V30 982 H 87.4018 2.98093 2.4852 0
M  V30 983 H 85.5028 0.801634 3.63874 0
M  V30 984 H 85.6158 2.65294 3.98944 0
M  V30 985 H 83.9798 1.32877 2.17292 0
M  V30 986 H 84.7628 2.94812 1.759 0
M  V30 987 N 87.2079 -1.17134 1.05439 0
M  V30 988 C 88.4849 -1.83411 0.679699 0
M  V30 989 C 88.8649 -1.9368 -0.839726 0
M  V30 990 O 88.2129 -1.47325 -1.74664 0
M  V30 991 C 88.4229 -3.20918 1.37159 0
M  V30 992 C 89.7709 -3.96796 1.51123 0
M  V30 993 O 90.7949 -3.30406 1.3308 0
M  V30 994 O 89.6539 -5.15778 1.80651 0
M  V30 995 H 86.7479 -0.79154 0.239569 0
M  V30 996 H 89.2939 -1.24411 1.15413 0
M  V30 997 H 88.0659 -3.08428 2.40807 0
M  V30 998 H 87.6889 -3.87587 0.886674 0
M  V30 999 N 88.686 -0.835752 -1.33615 0
M  V30 1000 C 89.934 -0.429109 -1.97492 0
M  V30 1001 C 90.255 1.01433 -1.66543 0
M  V30 1002 O 89.525 1.70611 -0.962744 0
M  V30 1003 H 88.105 -0.155686 -0.730596 0
M  V30 1004 H 90.767 -1.06802 -1.63031 0
M  V30 1005 H 89.863 -0.55861 -3.0706 0
M  V30 1006 N 90.1641 1.46063 -0.591896 0
M  V30 1007 C 91.3891 2.07226 -0.0850314 0
M  V30 1008 C 91.8141 1.43625 1.21463 0
M  V30 1009 O 91.1721 0.523305 1.73583 0
M  V30 1010 C 91.2201 3.60554 0.0576567 0
M  V30 1011 O 90.3241 3.97128 1.11188 0
M  V30 1012 H 89.6651 0.660615 -0.0669568 0
M  V30 1013 H 92.1951 1.8756 -0.81745 0
M  V30 1014 H 92.2051 4.07165 0.2609 0
M  V30 1015 H 90.8801 4.06235 -0.891416 0
M  V30 1016 H 89.4571 3.62213 0.886356 0
M  V30 1017 N 91.6422 0.330177 1.54103 0
M  V30 1018 C 92.8882 -0.263542 2.01685 0
M  V30 1019 C 93.2432 -1.49258 1.21408 0
M  V30 1020 O 92.5362 -1.89395 0.289852 0
M  V30 1021 C 92.7302 -0.643134 3.51566 0
M  V30 1022 C 92.5592 0.547571 4.46354 0
M  V30 1023 C 91.3292 1.04873 4.94297 0
M  V30 1024 C 93.5272 1.40184 4.94826 0
M  V30 1025 N 91.5092 2.20316 5.73005 0
M  V30 1026 C 92.8802 2.40335 5.71524 0
M  V30 1027 C 94.9352 1.42884 4.76958 0
M  V30 1028 C 93.6382 3.42998 6.32254 0
M  V30 1029 C 95.6642 2.44421 5.38528 0
M  V30 1030 C 95.0262 3.43298 6.15082 0
M  V30 1031 H 91.1252 -0.0601026 0.779687 0
M  V30 1032 H 93.7092 0.466714 1.89023 0
M  V30 1033 H 91.8802 -1.34251 3.6446 0
M  V30 1034 H 93.6122 -1.21889 3.85908 0
M  V30 1035 H 90.3672 0.618956 4.69538 0
M  V30 1036 H 90.7912 2.78565 6.17034 0
M  V30 1037 H 95.4332 0.678049 4.17328 0
M  V30 1038 H 93.1512 4.1898 6.91 0
M  V30 1039 H 96.7372 2.4732 5.26616 0
M  V30 1040 H 95.6172 4.20579 6.61878 0
M  V30 1041 N 93.1203 -1.57491 0.0584922 0
M  V30 1042 C 94.0673 -2.11958 -0.913376 0
M  V30 1043 C 95.0373 -1.02875 -1.30407 0
M  V30 1044 O 96.2223 -1.30464 -1.39226 0
M  V30 1045 C 93.3623 -2.67497 -2.18035 0
M  V30 1046 C 92.4753 -3.90691 -1.84349 0
M  V30 1047 C 91.6103 -4.3452 -3.05559 0
M  V30 1048 C 90.6493 -5.50395 -2.67827 0
M  V30 1049 N 89.7863 -5.89244 -3.81754 0
M  V30 1050 H 94.6263 -2.94704 -0.442017 0
M  V30 1051 H 92.1633 -1.45643 -0.206545 0
M  V30 1052 H 94.1213 -2.978 -2.92183 0
M  V30 1053 H 92.7513 -1.87537 -2.62735 0
M  V30 1054 H 91.8033 -3.66934 -1.00319 0
M  V30 1055 H 93.1153 -4.7489 -1.5258 0
M  V30 1056 H 92.2693 -4.66414 -3.87998 0
M  V30 1057 H 91.0083 -3.49147 -3.40511 0
M  V30 1058 H 90.0133 -5.18165 -1.83806 0
M  V30 1059 H 91.2383 -6.3749 -2.34059 0
M  V30 1060 H 89.1843 -5.06823 -4.16493 0
M  V30 1061 H 89.1013 -6.68151 -3.53708 0
M  V30 1062 H 90.3693 -6.25756 -4.64811 0
M  V30 1063 N 94.5984 0.214957 -1.56127 0
M  V30 1064 C 95.8754 0.963093 -1.70247 0
M  V30 1065 C 96.2554 2.02166 -0.60764 0
M  V30 1066 O 95.6034 2.25244 0.384385 0
M  V30 1067 C 95.8134 1.56756 -3.11815 0
M  V30 1068 C 97.1614 2.0573 -3.7143 0
M  V30 1069 O 98.1854 1.66637 -3.14818 0
M  V30 1070 O 97.0444 2.77603 -4.70743 0
M  V30 1071 H 94.1384 0.450321 -0.693643 0
M  V30 1072 H 96.6844 0.206219 -1.68442 0
M  V30 1073 H 95.4564 0.803533 -3.82961 0
M  V30 1074 H 95.0794 2.3898 -3.17765 0
M  V30 1075 N 96.0765 1.50051 0.48192 0
M  V30 1076 C 97.3225 1.60736 1.2366 0
M  V30 1077 C 97.6555 0.301786 1.91841 0
M  V30 1078 O 96.9305 -0.696025 1.8162 0
M  V30 1079 C 97.2135 2.78009 2.28874 0
M  V30 1080 C 97.0665 4.18416 1.65069 0
M  V30 1081 C 98.3855 2.90867 3.30279 0
M  V30 1082 H 95.5045 0.585031 0.448228 0
M  V30 1083 H 98.1465 1.82402 0.531946 0
M  V30 1084 H 96.2965 2.59667 2.88973 0
M  V30 1085 H 97.9685 4.48322 1.0865 0
M  V30 1086 H 96.2115 4.23177 0.954148 0
M  V30 1087 H 96.8825 4.96381 2.41474 0
M  V30 1088 H 99.3585 3.07623 2.80191 0
M  V30 1089 H 98.2345 3.74566 4.01238 0
M  V30 1090 H 98.4955 2.01021 3.93755 0
M  V30 1091 N 97.5546 -0.734337 1.39446 0
M  V30 1092 C 98.9656 -1.31264 1.32766 0
M  V30 1093 C 99.3166 -1.96198 -0.00767497 0
M  V30 1094 O 98.4416 -1.96346 -0.909796 0
M  V30 1095 C 99.0366 -2.38682 2.4045 0
M  V30 1096 C 97.5956 -2.92184 2.37288 0
M  V30 1097 C 96.7426 -1.6576 2.22304 0
M  V30 1098 H 99.6936 -0.531799 1.49525 0
M  V30 1099 H 99.7146 -3.19087 2.07276 0
M  V30 1100 H 99.2266 -1.91392 3.37625 0
M  V30 1101 H 97.3276 -3.43752 1.43754 0
M  V30 1102 H 97.4406 -3.45253 3.3217 0
M  V30 1103 H 95.8046 -1.9012 1.69489 0
M  V30 1104 H 96.5876 -1.20521 3.21449 0
M  V30 1105 N 99.0327 -1.24633 -0.964593 0
M  V30 1106 C 100.263 -1.11339 -1.74032 0
M  V30 1107 C 100.671 0.336593 -1.86182 0
M  V30 1108 O 100.014 1.24389 -1.35178 0
M  V30 1109 C 100.076 -1.68284 -3.1768 0
M  V30 1110 C 99.7397 -3.17196 -3.28992 0
M  V30 1111 C 100.737 -4.14308 -3.14078 0
M  V30 1112 C 98.4217 -3.57215 -3.53133 0
M  V30 1113 C 100.416 -5.4942 -3.23135 0
M  V30 1114 C 98.1027 -4.92468 -3.61827 0
M  V30 1115 C 99.1007 -5.8838 -3.46841 0
M  V30 1116 O 98.7887 -7.21173 -3.55197 0
M  V30 1117 H 98.5207 -0.389551 -0.552472 0
M  V30 1118 H 101.075 -1.65282 -1.21946 0
M  V30 1119 H 99.3047 -1.08777 -3.71085 0
M  V30 1120 H 100.994 -1.50234 -3.77074 0
M  V30 1121 H 101.76 -3.84731 -2.95308 0
M  V30 1122 H 97.6387 -2.83063 -3.63863 0
M  V30 1123 H 101.183 -6.24263 -3.11355 0
M  V30 1124 H 97.0797 -5.21714 -3.80111 0
M  V30 1125 H 97.8477 -7.29135 -3.71892 0
M  V30 1126 N 100.511 1.16574 -1.06058 0
M  V30 1127 C 101.458 2.20883 -0.669263 0
M  V30 1128 C 102.428 1.62729 0.332918 0
M  V30 1129 O 103.613 1.895 0.222346 0
M  V30 1130 C 100.753 3.45049 -0.0593572 0
M  V30 1131 C 99.8658 4.17458 -1.11143 0
M  V30 1132 C 99.0008 5.29135 -0.467916 0
M  V30 1133 C 98.0398 5.93343 -1.50369 0
M  V30 1134 N 97.1768 6.96516 -0.883706 0
M  V30 1135 H 102.017 2.53709 -1.5632 0
M  V30 1136 H 99.5538 1.24616 -0.781625 0
M  V30 1137 H 101.512 4.16033 0.311771 0
M  V30 1138 H 100.142 3.12781 0.797992 0
M  V30 1139 H 99.1938 3.45101 -1.60029 0
M  V30 1140 H 100.506 4.61307 -1.89731 0
M  V30 1141 H 99.6598 6.06684 -0.0436871 0
M  V30 1142 H 98.3988 4.86443 0.349864 0
M  V30 1143 H 97.4038 5.14517 -1.93784 0
M  V30 1144 H 98.6288 6.38114 -2.32352 0
M  V30 1145 H 96.5748 6.55943 -0.086595 0
M  V30 1146 H 96.4918 7.38723 -1.607 0
M  V30 1147 H 97.7598 7.77993 -0.484543 0
M  V30 1148 N 101.989 0.842826 1.3317 0
M  V30 1149 C 103.266 0.362216 1.92217 0
M  V30 1150 C 103.646 -1.15289 1.76838 0
M  V30 1151 O 102.994 -1.96914 1.15919 0
M  V30 1152 C 103.204 0.813495 3.39387 0
M  V30 1153 C 104.552 0.823804 4.16532 0
M  V30 1154 O 105.576 0.757358 3.48055 0
M  V30 1155 O 104.435 0.915193 5.38782 0
M  V30 1156 H 101.529 0.103317 0.820521 0
M  V30 1157 H 104.075 0.928942 1.42017 0
M  V30 1158 H 102.847 1.85624 3.4447 0
M  V30 1159 H 102.47 0.223561 3.96971 0
M  V30 1160 N 103.467 -1.45747 0.599634 0
M  V30 1161 C 104.744 -1.95585 0.0240846 0
M  V30 1162 C 105.124 -1.54217 -1.44154 0
M  V30 1163 O 104.472 -0.800903 -2.14004 0
M  V30 1164 C 104.682 -3.48344 0.21385 0
M  V30 1165 C 106.03 -4.24504 0.0904902 0
M  V30 1166 O 107.054 -3.55911 0.143558 0
M  V30 1167 O 105.913 -5.46491 -0.0310766 0
M  V30 1168 H 103.007 -0.82602 -0.0402478 0
M  V30 1169 H 105.553 -1.55951 0.669139 0
M  V30 1170 H 104.325 -3.71397 1.23206 0
M  V30 1171 H 103.948 -3.9485 -0.466842 0
M  V30 1172 N 104.945 -0.338344 -1.53925 0
M  V30 1173 C 105.908 0.508299 -2.23493 0
M  V30 1174 C 106.908 1.03175 -1.23335 0
M  V30 1175 O 108.098 0.921826 -1.47811 0
M  V30 1176 C 105.23 1.70754 -2.95052 0
M  V30 1177 H 106.423 -0.100058 -2.99733 0
M  V30 1178 H 103.976 -0.0896198 -1.56043 0
M  V30 1179 H 104.711 2.35474 -2.22986 0
M  V30 1180 H 104.496 1.33946 -3.68512 0
M  V30 1181 H 105.986 2.30818 -3.48013 0
M  V30 1182 N 106.423 1.57458 -0.0668435 0
M  V30 1183 C 107.356 2.08033 0.93795 0
M  V30 1184 C 108.334 0.984321 1.29421 0
M  V30 1185 O 109.518 1.25736 1.40437 0
M  V30 1186 C 106.645 2.53388 2.24749 0
M  V30 1187 C 105.691 3.74376 2.04315 0
M  V30 1188 S 106.524 5.19303 1.30706 0
M  V30 1189 C 107.68 5.67986 2.62951 0
M  V30 1190 H 107.913 2.92935 0.50759 0
M  V30 1191 H 105.446 1.5371 0.145804 0
M  V30 1192 H 107.404 2.8018 3.00016 0
M  V30 1193 H 106.065 1.68763 2.64911 0
M  V30 1194 H 105.258 4.04083 3.01218 0
M  V30 1195 H 104.86 3.47931 1.37186 0
M  V30 1196 H 107.152 5.74528 3.5906 0
M  V30 1197 H 108.095 6.66955 2.3786 0
M  V30 1198 H 108.503 4.95781 2.69929 0
M  V30 1199 N 107.901 -0.206675 1.56239 0
M  V30 1200 C 109.129 -0.945345 1.8404 0
M  V30 1201 C 109.544 -1.77336 0.647885 0
M  V30 1202 O 108.901 -1.78425 -0.383511 0
M  V30 1203 C 108.952 -1.8509 3.10522 0
M  V30 1204 O 108.673 -1.05634 4.25174 0
M  V30 1205 C 110.174 -2.70222 3.51418 0
M  V30 1206 H 107.394 -0.276372 0.61144 0
M  V30 1207 H 109.938 -0.217417 2.03341 0
M  V30 1208 H 108.093 -2.53259 2.93153 0
M  V30 1209 H 108.507 -1.67238 4.97124 0
M  V30 1210 H 109.981 -3.29438 4.42916 0
M  V30 1211 H 110.458 -3.43358 2.73864 0
M  V30 1212 H 111.064 -2.07443 3.71278 0
M  V30 1213 N 109.379 -1.50304 -0.473955 0
M  V30 1214 C 110.327 -1.69482 -1.59307 0
M  V30 1215 C 111.321 -0.560669 -1.59853 0
M  V30 1216 O 112.527 -0.741087 -1.64036 0
M  V30 1217 H 108.902 -0.534892 -0.528578 0
M  V30 1218 H 110.873 -2.63364 -1.40293 0
M  V30 1219 C 109.622 -1.80354 -2.97267 0
M  V30 1220 H 108.945 -2.67012 -2.97564 0
M  V30 1221 H 110.385 -1.97798 -3.75036 0
M  V30 1222 C 108.844 -0.55448 -3.32306 0
M  V30 1223 O 109.374 0.307661 -4.0052 0
M  V30 1224 N 107.58 -0.409354 -2.87702 0
M  V30 1225 H 107.127 -1.11196 -2.32364 0
M  V30 1226 H 107.085 0.425223 -3.11511 0
M  V30 1227 N 110.857 0.726932 -1.39834 0
M  V30 1228 C 112.103 1.48771 -1.38704 0
M  V30 1229 C 112.458 1.92394 0.0146387 0
M  V30 1230 O 111.751 1.64474 0.982797 0
M  V30 1231 C 111.945 2.73495 -2.30077 0
M  V30 1232 C 111.774 2.42068 -3.78989 0
M  V30 1233 C 110.544 2.33966 -4.4787 0
M  V30 1234 C 112.742 2.0708 -4.70768 0
M  V30 1235 N 110.724 1.95095 -5.82075 0
M  V30 1236 C 112.095 1.78719 -5.93683 0
M  V30 1237 C 114.15 1.93618 -4.58712 0
M  V30 1238 C 112.853 1.3825 -7.05889 0
M  V30 1239 C 114.879 1.54553 -5.70848 0
M  V30 1240 C 114.241 1.27082 -6.92842 0
M  V30 1241 H 110.34 0.542919 -0.562817 0
M  V30 1242 H 112.924 0.84408 -1.75452 0
M  V30 1243 H 111.095 3.35625 -1.95474 0
M  V30 1244 H 112.827 3.39755 -2.19883 0
M  V30 1245 H 109.582 2.51331 -4.0141 0
M  V30 1246 H 110.006 1.7823 -6.53118 0
M  V30 1247 H 114.648 2.13522 -3.64922 0
M  V30 1248 H 112.366 1.17088 -7.99572 0
M  V30 1249 H 115.952 1.44731 -5.6351 0
M  V30 1250 H 114.832 0.973069 -7.78139 0
M  V30 1251 N 112.336 1.25143 0.95797 0
M  V30 1252 C 113.266 1.07711 2.07173 0
M  V30 1253 C 114.247 -0.0128462 1.70095 0
M  V30 1254 O 115.432 0.156061 1.93572 0
M  V30 1255 C 112.562 0.691503 3.40346 0
M  V30 1256 C 111.516 1.73132 3.9142 0
M  V30 1257 C 110.842 1.20049 5.21049 0
M  V30 1258 C 112.142 3.1294 4.1817 0
M  V30 1259 H 113.836 2.00873 2.22014 0
M  V30 1260 H 111.382 0.967191 1.06684 0
M  V30 1261 H 113.335 0.556505 4.17709 0
M  V30 1262 H 112.059 -0.275819 3.25433 0
M  V30 1263 H 110.718 1.8547 3.16222 0
M  V30 1264 H 110.366 0.223499 5.02503 0
M  V30 1265 H 110.066 1.89545 5.56189 0
M  V30 1266 H 111.59 1.07782 6.01012 0
M  V30 1267 H 113.004 3.03775 4.86203 0
M  V30 1268 H 111.401 3.79875 4.64559 0
M  V30 1269 H 112.471 3.6025 3.24573 0
M  V30 1270 N 113.814 -1.1601 1.06675 0
M  V30 1271 C 115.225 -1.68235 0.809565 0
M  V30 1272 C 115.576 -1.8454 -0.666303 0
M  V30 1273 O 114.701 -1.54374 -1.5165 0
M  V30 1274 C 115.296 -3.05585 1.46299 0
M  V30 1275 C 113.855 -3.54915 1.25349 0
M  V30 1276 C 113.002 -2.30804 1.53703 0
M  V30 1277 H 115.953 -1.00318 1.22971 0
M  V30 1278 H 115.974 -3.70174 0.880431 0
M  V30 1279 H 115.486 -2.93686 2.53713 0
M  V30 1280 H 113.587 -3.72067 0.199261 0
M  V30 1281 H 113.7 -4.36774 1.9689 0
M  V30 1282 H 112.064 -2.36007 0.957739 0
M  V30 1283 H 112.847 -2.21499 2.62284 0
M  V30 1284 N 115.292 -0.849877 -1.32721 0
M  V30 1285 C 116.24 -0.279745 -2.30912 0
M  V30 1286 C 117.234 0.594278 -1.58634 0
M  V30 1287 O 118.44 0.482613 -1.73409 0
M  V30 1288 H 114.815 -0.0717521 -0.748569 0
M  V30 1289 H 116.786 -1.12222 -2.76494 0
M  V30 1290 C 115.535 0.521108 -3.43773 0
M  V30 1291 H 114.858 -0.142141 -3.99547 0
M  V30 1292 H 116.298 0.885693 -4.14646 0
M  V30 1293 C 114.757 1.70442 -2.90605 0
M  V30 1294 O 115.287 2.8034 -2.87702 0
M  V30 1295 N 113.493 1.52991 -2.47067 0
M  V30 1296 H 113.04 0.635914 -2.49628 0
M  V30 1297 H 112.998 2.32311 -2.11847 0
M  V30 1298 N 116.77 1.45427 -0.607355 0
M  V30 1299 C 117.718 2.32269 0.12411 0
M  V30 1300 C 118.712 1.45955 0.859854 0
M  V30 1301 O 119.918 1.6244 0.775447 0
M  V30 1302 H 116.293 0.749691 0.0588839 0
M  V30 1303 H 118.264 2.91743 -0.626762 0
M  V30 1304 C 117.013 3.29567 1.1082 0
M  V30 1305 H 116.336 3.95978 0.551492 0
M  V30 1306 H 117.776 3.93061 1.58995 0
M  V30 1307 C 116.235 2.56722 2.18164 0
M  V30 1308 O 116.765 2.34842 3.25902 0
M  V30 1309 N 114.971 2.16861 1.93442 0
M  V30 1310 H 114.518 2.34855 1.05834 0
M  V30 1311 H 114.476 1.68444 2.65469 0
M  V30 1312 N 118.248 0.346503 1.53744 0
M  V30 1313 C 119.198 -0.524953 2.21874 0
M  V30 1314 C 120.182 -1.06376 1.20718 0
M  V30 1315 O 121.374 -0.996972 1.46251 0
M  V30 1316 C 118.503 -1.6739 2.99726 0
M  V30 1317 C 117.589 -1.14888 4.08242 0
M  V30 1318 N 117.98 -0.345329 5.0462 0
M  V30 1319 C 116.278 -1.4255 4.22606 0
M  V30 1320 C 116.979 -0.0600706 5.81669 0
M  V30 1321 N 115.955 -0.65252 5.39669 0
M  V30 1322 H 119.757 0.0960091 2.93743 0
M  V30 1323 H 117.271 0.15352 1.61673 0
M  V30 1324 H 119.268 -2.3102 3.47038 0
M  V30 1325 H 117.928 -2.29811 2.29384 0
M  V30 1326 H 118.939 0.0138439 5.17898 0
M  V30 1327 H 115.616 -2.05389 3.63486 0
M  V30 1328 H 117.006 0.588321 6.69319 0
M  V30 1329 N 119.726 -1.57421 0.075193 0
M  V30 1330 C 120.656 -2.15942 -0.888324 0
M  V30 1331 C 121.637 -1.08737 -1.30806 0
M  V30 1332 O 122.822 -1.36787 -1.37851 0
M  V30 1333 C 119.952 -2.72379 -2.1547 0
M  V30 1334 C 118.906 -3.8478 -1.87425 0
M  V30 1335 C 118.232 -4.27834 -3.20721 0
M  V30 1336 C 119.532 -5.08869 -1.17684 0
M  V30 1337 H 121.226 -2.96705 -0.400799 0
M  V30 1338 H 118.772 -1.42723 -0.191342 0
M  V30 1339 H 120.725 -3.11965 -2.83295 0
M  V30 1340 H 119.449 -1.88841 -2.6647 0
M  V30 1341 H 118.108 -3.45703 -1.22004 0
M  V30 1342 H 117.756 -3.41214 -3.6957 0
M  V30 1343 H 117.456 -5.03605 -3.02746 0
M  V30 1344 H 118.98 -4.70039 -3.89738 0
M  V30 1345 H 120.394 -5.4575 -1.75584 0
M  V30 1346 H 118.791 -5.8994 -1.09956 0
M  V30 1347 H 119.861 -4.84648 -0.156453 0
M  V30 1348 N 121.204 0.198386 -1.56346 0
M  V30 1349 C 122.134 1.24865 -1.9731 0
M  V30 1350 C 123.115 1.47651 -0.844576 0
M  V30 1351 O 124.3 1.59444 -1.10866 0
M  V30 1352 C 121.43 2.59358 -2.30977 0
M  V30 1353 C 120.384 2.5119 -3.46537 0
M  V30 1354 C 119.71 3.89926 -3.65871 0
M  V30 1355 C 121.01 2.03977 -4.80823 0
M  V30 1356 H 122.704 0.908252 -2.85291 0
M  V30 1357 H 120.25 0.435462 -1.37258 0
M  V30 1358 H 122.203 3.33011 -2.58228 0
M  V30 1359 H 120.927 2.95132 -1.39874 0
M  V30 1360 H 119.586 1.79993 -3.19371 0
M  V30 1361 H 119.234 4.23046 -2.72105 0
M  V30 1362 H 118.934 3.85336 -4.4361 0
M  V30 1363 H 120.458 4.65205 -3.95495 0
M  V30 1364 H 121.872 2.67386 -5.07127 0
M  V30 1365 H 120.269 2.10397 -5.62008 0
M  V30 1366 H 121.339 0.992861 -4.74626 0
M  V30 1367 N 122.682 1.50554 0.465978 0
M  V30 1368 C 123.614 1.65949 1.58093 0
M  V30 1369 C 124.627 0.540827 1.53554 0
M  V30 1370 O 125.816 0.814187 1.5885 0
M  V30 1371 C 122.916 1.63261 2.96983 0
M  V30 1372 C 122.089 2.91245 3.26336 0
M  V30 1373 C 121.148 2.8113 4.44806 0
M  V30 1374 O 120.174 3.55086 4.44862 0
M  V30 1375 N 121.376 1.95032 5.46756 0
M  V30 1376 H 124.141 2.62122 1.45301 0
M  V30 1377 H 121.702 1.48082 0.65448 0
M  V30 1378 H 123.694 1.54101 3.74212 0
M  V30 1379 H 122.264 0.748032 3.03518 0
M  V30 1380 H 121.484 3.14493 2.37672 0
M  V30 1381 H 122.772 3.76022 3.42761 0
M  V30 1382 H 122.17 1.3427 5.49534 0
M  V30 1383 H 120.727 1.91772 6.2295 0
M  V30 1384 N 124.16 -0.719506 1.40217 0
M  V30 1385 C 125.09 -1.8465 1.42922 0
M  V30 1386 C 126.071 -1.67599 0.29062 0
M  V30 1387 O 127.256 -1.87688 0.498677 0
M  V30 1388 C 124.386 -3.22565 1.28722 0
M  V30 1389 C 123.34 -3.54281 2.40144 0
M  V30 1390 C 122.666 -4.91298 2.11023 0
M  V30 1391 C 123.966 -3.55676 3.82481 0
M  V30 1392 H 125.66 -1.82644 2.37237 0
M  V30 1393 H 123.206 -0.877305 1.1419 0
M  V30 1394 H 125.159 -4.01095 1.29232 0
M  V30 1395 H 123.883 -3.25137 0.308811 0
M  V30 1396 H 122.542 -2.78088 2.38877 0
M  V30 1397 H 122.19 -4.90468 1.11582 0
M  V30 1398 H 121.89 -5.13485 2.8567 0
M  V30 1399 H 123.414 -5.72166 2.13209 0
M  V30 1400 H 124.828 -4.24254 3.85592 0
M  V30 1401 H 123.225 -3.89388 4.56614 0
M  V30 1402 H 124.295 -2.55144 4.12346 0
M  V30 1403 N 125.638 -1.25649 -0.95132 0
M  V30 1404 C 126.548 -1.08073 -2.08224 0
M  V30 1405 C 127.564 -0.0169666 -1.73992 0
M  V30 1406 O 128.74 -0.218593 -2.0021 0
M  V30 1407 C 125.805 -0.704922 -3.39458 0
M  V30 1408 C 124.866 -1.84699 -3.87537 0
M  V30 1409 C 124.099 -1.48902 -5.12508 0
M  V30 1410 O 124.322 -0.386156 -5.69091 0
M  V30 1411 O 123.256 -2.32033 -5.55378 0
M  V30 1412 H 127.082 -2.02924 -2.25954 0
M  V30 1413 H 124.667 -1.04618 -1.06656 0
M  V30 1414 H 126.549 -0.507609 -4.18332 0
M  V30 1415 H 125.224 0.214291 -3.2299 0
M  V30 1416 H 124.131 -2.09919 -3.09653 0
M  V30 1417 H 125.464 -2.74557 -4.08509 0
M  V30 1418 N 127.117 1.15442 -1.07289 0
M  V30 1419 C 128.345 1.90096 -0.81676 0
M  V30 1420 C 128.76 1.7798 0.629966 0
M  V30 1421 O 128.117 1.1313 1.43206 0
M  V30 1422 C 128.168 3.40466 -1.21512 0
M  V30 1423 O 127.889 3.52232 -2.60508 0
M  V30 1424 C 129.39 4.32145 -0.988198 0
M  V30 1425 H 126.61 0.602495 -0.295366 0
M  V30 1426 H 129.154 1.4627 -1.42918 0
M  V30 1427 H 127.309 3.81958 -0.647039 0
M  V30 1428 H 127.723 4.45549 -2.76742 0
M  V30 1429 H 129.197 5.36072 -1.31645 0
M  V30 1430 H 129.674 4.39135 0.0755063 0
M  V30 1431 H 130.28 3.96395 -1.54115 0
M  V30 1432 N 128.595 0.856903 1.32268 0
M  V30 1433 C 129.844 0.457599 1.96441 0
M  V30 1434 C 130.157 -0.992426 1.68553 0
M  V30 1435 O 131.363 -1.49727 2.26482 0
M  V30 1436 C 129.819 0.767358 3.51624 0
M  V30 1437 C 129.427 2.23326 3.88367 0
M  V30 1438 C 131.171 0.435887 4.22256 0
M  V30 1439 C 129.078 2.48613 5.36606 0
M  V30 1440 H 128.008 0.167387 0.735185 0
M  V30 1441 H 130.659 1.048 1.5063 0
M  V30 1442 H 129.041 0.106367 3.95857 0
M  V30 1443 H 130.215 2.93623 3.55137 0
M  V30 1444 H 128.53 2.52948 3.30766 0
M  V30 1445 H 131.127 0.602202 5.31298 0
M  V30 1446 H 131.47 -0.622672 4.11617 0
M  V30 1447 H 132.003 1.05286 3.83614 0
M  V30 1448 H 128.742 3.53101 5.52268 0
M  V30 1449 H 128.262 1.82896 5.71235 0
M  V30 1450 H 129.941 2.32676 6.03714 0
M  V30 1451 N 130.073 -1.45103 0.615059 0
M  V30 1452 C 131.322 -2.01396 0.110718 0
M  V30 1453 C 131.635 -1.48834 -1.26916 0
M  V30 1454 O 132.841 -1.97152 -1.86664 0
M  V30 1455 C 131.297 -3.59599 0.14723 0
M  V30 1456 C 130.905 -4.21158 1.52743 0
M  V30 1457 C 132.649 -4.23428 -0.30148 0
M  V30 1458 C 130.556 -5.71535 1.51992 0
M  V30 1459 H 129.486 -0.753061 0.0376241 0
M  V30 1460 H 132.137 -1.66494 0.77149 0
M  V30 1461 H 130.519 -3.91724 -0.580339 0
M  V30 1462 H 131.693 -4.00594 2.2773 0
M  V30 1463 H 130.008 -3.69552 1.91886 0
M  V30 1464 H 132.605 -5.33703 -0.326392 0
M  V30 1465 H 132.948 -3.94629 -1.32565 0
M  V30 1466 H 133.481 -3.96047 0.373065 0
M  V30 1467 H 130.22 -6.05044 2.52193 0
M  V30 1468 H 129.74 -5.94268 0.81274 0
M  V30 1469 H 131.419 -6.34873 1.24681 0
M  V30 1470 N 131.551 -0.354651 -1.53558 0
M  V30 1471 C 132.483 0.5315 -2.22952 0
M  V30 1472 C 133.496 1.05503 -1.23988 0
M  V30 1473 O 134.685 0.963279 -1.50277 0
M  V30 1474 C 131.785 1.74538 -2.90499 0
M  V30 1475 C 130.958 1.35524 -4.15875 0
M  V30 1476 C 130.017 2.42999 -4.66731 0
M  V30 1477 O 129.043 2.05844 -5.30676 0
M  V30 1478 N 130.245 3.74423 -4.43608 0
M  V30 1479 H 133.01 -0.0628615 -2.99634 0
M  V30 1480 H 130.571 -0.179302 -1.60904 0
M  V30 1481 H 132.563 2.45892 -3.21433 0
M  V30 1482 H 131.133 2.24686 -2.17336 0
M  V30 1483 H 130.353 0.471998 -3.91364 0
M  V30 1484 H 131.641 1.07071 -4.97406 0
M  V30 1485 H 131.039 4.07391 -3.92491 0
M  V30 1486 H 129.596 4.41913 -4.7912 0
M  V30 1487 N 133.029 1.57378 -0.0835403 0
M  V30 1488 C 133.992 2.12252 0.864959 0
M  V30 1489 C 134.992 1.04916 1.21858 0
M  V30 1490 O 136.182 1.30853 1.14991 0
M  V30 1491 C 133.314 2.63358 2.16461 0
M  V30 1492 H 134.507 2.97371 0.388676 0
M  V30 1493 H 132.06 1.55423 0.165317 0
M  V30 1494 H 132.795 1.81727 2.686 0
M  V30 1495 H 132.58 3.41826 1.92087 0
M  V30 1496 H 134.07 3.05847 2.84337 0
M  V30 1497 N 134.507 -0.190092 1.56449 0
M  V30 1498 C 135.737 -0.92443 1.84764 0
M  V30 1499 C 136.145 -1.77146 0.664529 0
M  V30 1500 O 135.488 -1.79812 -0.375957 0
M  V30 1501 C 135.55 -1.86651 3.07248 0
M  V30 1502 C 135.214 -1.20094 4.40938 0
M  V30 1503 C 136.211 -0.575445 5.16706 0
M  V30 1504 C 133.896 -1.2033 4.87674 0
M  V30 1505 C 135.89 0.0388111 6.37388 0
M  V30 1506 C 133.577 -0.585214 6.08291 0
M  V30 1507 C 134.575 0.0347578 6.82991 0
M  V30 1508 O 134.263 0.643147 8.01323 0
M  V30 1509 H 133.995 -0.274974 0.617548 0
M  V30 1510 H 136.549 -0.200788 2.04416 0
M  V30 1511 H 134.779 -2.62998 2.83494 0
M  V30 1512 H 136.468 -2.46907 3.22167 0
M  V30 1513 H 137.234 -0.565728 4.81689 0
M  V30 1514 H 133.113 -1.67526 4.29484 0
M  V30 1515 H 136.657 0.523329 6.95634 0
M  V30 1516 H 132.554 -0.592451 6.42775 0
M  V30 1517 H 133.322 0.540545 8.16713 0
M  V30 1518 N 135.985 -1.50799 -0.457987 0
M  V30 1519 C 137.234 -1.6168 -1.20593 0
M  V30 1520 C 137.547 -0.32888 -1.92815 0
M  V30 1521 O 138.753 -0.316773 -2.69646 0
M  V30 1522 C 137.209 -2.8545 -2.19195 0
M  V30 1523 C 136.817 -4.21168 -1.52715 0
M  V30 1524 C 138.561 -3.05681 -2.94549 0
M  V30 1525 C 136.468 -5.3611 -2.4968 0
M  V30 1526 H 135.398 -0.602134 -0.453818 0
M  V30 1527 H 138.049 -1.77245 -0.475031 0
M  V30 1528 H 136.431 -2.63472 -2.95632 0
M  V30 1529 H 137.605 -4.53449 -0.819775 0
M  V30 1530 H 135.92 -4.06648 -0.895922 0
M  V30 1531 H 138.517 -3.88727 -3.67145 0
M  V30 1532 H 138.86 -2.17929 -3.54701 0
M  V30 1533 H 139.393 -3.27901 -2.25223 0
M  V30 1534 H 136.132 -6.26057 -1.94249 0
M  V30 1535 H 135.652 -5.0823 -3.18532 0
M  V30 1536 H 137.331 -5.6722 -3.11241 0
M  V30 1537 N 137.463 0.71206 -1.40597 0
M  V30 1538 C 138.373 1.8562 -1.43466 0
M  V30 1539 C 139.389 1.70902 -0.326902 0
M  V30 1540 O 140.565 1.93105 -0.572043 0
M  V30 1541 C 137.63 3.21451 -1.29884 0
M  V30 1542 C 136.691 3.48398 -2.50833 0
M  V30 1543 C 135.924 4.77749 -2.3789 0
M  V30 1544 O 136.147 5.53089 -1.39459 0
M  V30 1545 O 135.081 5.05111 -3.27333 0
M  V30 1546 H 138.907 1.86155 -2.39958 0
M  V30 1547 H 136.492 0.86295 -1.21957 0
M  V30 1548 H 138.374 4.02579 -1.24531 0
M  V30 1549 H 137.049 3.21636 -0.364997 0
M  V30 1550 H 135.956 2.67265 -2.61763 0
M  V30 1551 H 137.289 3.53014 -3.4299 0
M  V30 1552 N 138.941 1.26152 0.944643 0
M  V30 1553 C 139.888 1.07408 2.04285 0
M  V30 1554 C 140.858 -0.0198413 1.66088 0
M  V30 1555 O 142.043 0.139264 1.90291 0
M  V30 1556 C 139.183 0.70945 3.37729 0
M  V30 1557 C 138.296 1.87926 3.88983 0
M  V30 1558 C 137.431 1.45807 5.10797 0
M  V30 1559 C 136.47 2.5964 5.54305 0
M  V30 1560 N 135.607 2.18226 6.67324 0
M  V30 1561 H 140.447 2.01389 2.1965 0
M  V30 1562 H 137.984 1.00275 1.07626 0
M  V30 1563 H 139.942 0.478948 4.14442 0
M  V30 1564 H 138.572 -0.193389 3.2222 0
M  V30 1565 H 137.624 2.22279 3.08701 0
M  V30 1566 H 138.936 2.73377 4.17213 0
M  V30 1567 H 138.09 1.18781 5.94959 0
M  V30 1568 H 136.829 0.574414 4.84305 0
M  V30 1569 H 135.834 2.87399 4.68702 0
M  V30 1570 H 137.059 3.48599 5.828 0
M  V30 1571 H 135.005 1.3229 6.42523 0
M  V30 1572 H 134.922 2.97221 6.95123 0
M  V30 1573 H 136.19 1.94403 7.54869 0
M  V30 1574 N 140.419 -1.14872 1.07899 0
M  V30 1575 C 141.696 -1.81928 0.71845 0
M  V30 1576 C 142.076 -1.95417 -0.798455 0
M  V30 1577 O 141.424 -1.50997 -1.715 0
M  V30 1578 C 141.634 -3.17937 1.43935 0
M  V30 1579 C 142.982 -3.93501 1.59506 0
M  V30 1580 O 144.006 -3.27509 1.40058 0
M  V30 1581 O 142.865 -5.1183 1.91551 0
M  V30 1582 H 139.959 -0.78628 0.256305 0
M  V30 1583 H 142.505 -1.21934 1.18026 0
M  V30 1584 H 141.277 -3.0325 2.47295 0
M  V30 1585 H 140.9 -3.85619 0.968687 0
M  V30 1586 N 141.898 -0.863906 -1.31812 0
M  V30 1587 C 143.123 -0.48527 -2.01643 0
M  V30 1588 C 143.548 0.913058 -1.64453 0
M  V30 1589 O 142.906 1.6014 -0.849985 0
M  V30 1590 C 142.954 -0.642625 -3.54828 0
M  V30 1591 O 142.058 0.320659 -4.11151 0
M  V30 1592 H 141.399 -0.193793 -0.635091 0
M  V30 1593 H 143.929 -1.16565 -1.68148 0
M  V30 1594 H 143.939 -0.533628 -4.04495 0
M  V30 1595 H 142.614 -1.66227 -3.81237 0
M  V30 1596 H 141.191 0.167126 -3.72525 0
M  V30 1597 N 143.376 1.44774 -0.622745 0
M  V30 1598 C 144.326 2.2774 0.108889 0
M  V30 1599 C 145.31 1.38189 0.824175 0
M  V30 1600 O 146.502 1.62063 0.711664 0
M  V30 1601 C 143.631 3.25353 1.09546 0
M  V30 1602 C 142.717 4.22392 0.380232 0
M  V30 1603 N 143.108 5.02388 -0.586535 0
M  V30 1604 C 141.406 4.41588 0.625792 0
M  V30 1605 C 142.107 5.72894 -1.00834 0
M  V30 1606 N 141.083 5.42479 -0.348878 0
M  V30 1607 H 144.885 2.86993 -0.63341 0
M  V30 1608 H 142.399 1.5611 -0.447589 0
M  V30 1609 H 144.396 3.83538 1.63414 0
M  V30 1610 H 143.056 2.6766 1.83815 0
M  V30 1611 H 144.067 5.0885 -0.963975 0
M  V30 1612 H 140.744 3.95003 1.352 0
M  V30 1613 H 142.134 6.47158 -1.80656 0
M  V30 1614 N 144.854 0.36279 1.53368 0
M  V30 1615 C 146.084 -0.228281 2.05335 0
M  V30 1616 C 146.492 -1.43226 1.23625 0
M  V30 1617 O 145.835 -1.81717 0.269206 0
M  V30 1618 C 145.897 -0.688549 3.52845 0
M  V30 1619 C 145.561 0.398362 4.5526 0
M  V30 1620 C 146.558 1.24732 5.04716 0
M  V30 1621 C 144.243 0.557805 4.99193 0
M  V30 1622 C 146.237 2.2411 5.96702 0
M  V30 1623 C 143.924 1.55495 5.90986 0
M  V30 1624 C 144.922 2.39503 6.39631 0
M  V30 1625 O 144.61 3.37517 7.29615 0
M  V30 1626 H 144.342 -0.044395 0.674541 0
M  V30 1627 H 146.896 0.518668 1.98744 0
M  V30 1628 H 145.126 -1.48706 3.56964 0
M  V30 1629 H 146.815 -1.20231 3.87685 0
M  V30 1630 H 147.581 1.13532 4.71525 0
M  V30 1631 H 143.46 -0.0862959 4.60919 0
M  V30 1632 H 147.004 2.89718 6.34594 0
M  V30 1633 H 142.901 1.66744 6.23592 0
M  V30 1634 H 143.669 3.33213 7.47604 0
M  V30 1635 N 146.332 -1.57332 0.0918853 0
M  V30 1636 C 147.562 -1.98286 -0.580205 0
M  V30 1637 C 147.97 -0.969713 -1.6246 0
M  V30 1638 O 147.313 0.0493501 -1.83634 0
M  V30 1639 C 147.375 -3.35603 -1.28882 0
M  V30 1640 C 147.039 -4.55285 -0.395559 0
M  V30 1641 C 148.036 -5.18687 0.355002 0
M  V30 1642 C 145.721 -5.01314 -0.314556 0
M  V30 1643 C 147.715 -6.26484 1.17458 0
M  V30 1644 C 145.402 -6.08979 0.508677 0
M  V30 1645 C 146.4 -6.71429 1.2519 0
M  V30 1646 O 146.088 -7.77018 2.06151 0
M  V30 1647 H 145.82 -0.656678 -0.160466 0
M  V30 1648 H 148.374 -2.04721 0.16688 0
M  V30 1649 H 146.604 -3.25842 -2.08241 0
M  V30 1650 H 148.293 -3.61026 -1.85512 0
M  V30 1651 H 149.059 -4.84058 0.302134 0
M  V30 1652 H 144.938 -4.5247 -0.882697 0
M  V30 1653 H 148.482 -6.75159 1.75518 0
M  V30 1654 H 144.379 -6.4304 0.563037 0
M  V30 1655 H 145.147 -7.93991 1.98799 0
M  V30 1656 N 147.81 0.181792 -1.56548 0
M  V30 1657 C 149.058 0.89832 -1.81038 0
M  V30 1658 C 149.379 1.83232 -0.667164 0
M  V30 1659 O 148.649 1.93372 0.313673 0
M  V30 1660 H 147.229 0.33471 -0.667816 0
M  V30 1661 H 149.891 0.184116 -1.94028 0
M  V30 1662 H 148.987 1.4815 -2.74696 0
M  V30 1663 N 149.288 1.51039 0.449983 0
M  V30 1664 C 150.565 1.53612 1.21089 0
M  V30 1665 C 150.945 0.292997 2.09057 0
M  V30 1666 O 150.293 -0.72259 2.16774 0
M  V30 1667 C 150.503 2.84337 2.0237 0
M  V30 1668 C 151.851 3.35807 2.59843 0
M  V30 1669 O 152.875 2.85802 2.12593 0
M  V30 1670 O 151.734 4.23029 3.45989 0
M  V30 1671 H 148.828 0.617057 0.550608 0
M  V30 1672 H 151.374 1.63344 0.460082 0
M  V30 1673 H 150.146 3.66278 1.37681 0
M  V30 1674 H 149.769 2.77708 2.84542 0
M  V30 1675 N 150.766 -0.704594 1.40972 0
M  V30 1676 C 152.043 -1.45847 1.30338 0
M  V30 1677 C 152.423 -2.10973 -0.0732344 0
M  V30 1678 O 151.771 -2.00997 -1.08685 0
M  V30 1679 C 151.981 -2.48525 2.45023 0
M  V30 1680 C 153.329 -3.1404 2.8577 0
M  V30 1681 O 154.353 -2.58848 2.44696 0
M  V30 1682 O 153.212 -4.13981 3.56766 0
M  V30 1683 H 150.306 -0.649092 0.512454 0
M  V30 1684 H 152.852 -0.735836 1.52917 0
M  V30 1685 H 151.624 -1.98994 3.36923 0
M  V30 1686 H 151.247 -3.2831 2.24272 0
M  V30 1687 N 152.244 -1.26651 -0.937939 0
M  V30 1688 C 153.191 -1.0849 -2.03712 0
M  V30 1689 C 154.161 0.011033 -1.66096 0
M  V30 1690 O 155.346 -0.149353 -1.90215 0
M  V30 1691 C 152.486 -0.72735 -3.37348 0
M  V30 1692 C 151.599 -1.89986 -3.87981 0
M  V30 1693 C 150.734 -1.48513 -5.10017 0
M  V30 1694 C 149.773 -2.62575 -5.5292 0
M  V30 1695 N 148.91 -2.21762 -6.66158 0
M  V30 1696 H 153.75 -2.02551 -2.18579 0
M  V30 1697 H 151.287 -1.00844 -1.07093 0
M  V30 1698 H 153.245 -0.50092 -4.14182 0
M  V30 1699 H 151.875 0.176298 -3.22318 0
M  V30 1700 H 150.927 -2.23913 -3.07518 0
M  V30 1701 H 152.239 -2.75586 -4.15757 0
M  V30 1702 H 151.393 -1.21934 -5.94321 0
M  V30 1703 H 150.132 -0.60009 -4.83994 0
M  V30 1704 H 149.137 -2.8988 -4.67172 0
M  V30 1705 H 150.362 -3.51685 -5.80943 0
M  V30 1706 H 148.308 -1.35696 -6.41812 0
M  V30 1707 H 148.225 -3.00903 -6.93537 0
M  V30 1708 H 149.493 -1.98403 -7.53828 0
M  V30 1709 N 153.722 1.14298 -1.08507 0
M  V30 1710 C 154.968 1.85633 -0.816581 0
M  V30 1711 C 155.301 1.82784 0.656021 0
M  V30 1712 O 154.576 1.25926 1.48233 0
M  V30 1713 C 154.859 3.34223 -1.34041 0
M  V30 1714 C 154.712 3.45639 -2.87843 0
M  V30 1715 C 156.031 4.29356 -0.9665 0
M  V30 1716 H 153.15 0.67402 -0.298104 0
M  V30 1717 H 155.792 1.34214 -1.34487 0
M  V30 1718 H 153.942 3.78144 -0.89104 0
M  V30 1719 H 155.614 3.10498 -3.41158 0
M  V30 1720 H 153.857 2.86817 -3.25451 0
M  V30 1721 H 154.528 4.50089 -3.19569 0
M  V30 1722 H 157.004 3.93457 -1.35391 0
M  V30 1723 H 155.88 5.3178 -1.3602 0
M  V30 1724 H 156.141 4.41919 0.126362 0
M  V30 1725 N 155.201 0.870884 1.31352 0
M  V30 1726 C 156.448 0.482273 1.96673 0
M  V30 1727 C 156.776 -0.965638 1.68836 0
M  V30 1728 O 156.031 -1.69514 0.977937 0
M  V30 1729 C 156.33 0.687157 3.50732 0
M  V30 1730 C 155.996 2.108 3.9859 0
M  V30 1731 C 154.658 2.49656 4.1137 0
M  V30 1732 C 157.01 3.03459 4.23748 0
M  V30 1733 C 154.338 3.80412 4.46659 0
M  V30 1734 C 156.69 4.3373 4.60501 0
M  V30 1735 C 155.354 4.725 4.71487 0
M  V30 1736 H 154.624 0.176476 0.719679 0
M  V30 1737 H 157.271 1.10405 1.56471 0
M  V30 1738 H 155.576 -0.0177476 3.91796 0
M  V30 1739 H 157.273 0.366284 3.99324 0
M  V30 1740 H 153.863 1.79633 3.8914 0
M  V30 1741 H 158.047 2.74665 4.13368 0
M  V30 1742 H 153.303 4.1021 4.53362 0
M  V30 1743 H 157.477 5.05578 4.78919 0
M  V30 1744 H 155.104 5.73859 4.98588 0
M  V30 1745 N 156.679 -1.44442 0.630414 0
M  V30 1746 C 157.956 -1.9549 0.0655657 0
M  V30 1747 C 158.336 -1.5724 -1.40851 0
M  V30 1748 O 157.684 -0.846116 -2.12257 0
M  V30 1749 C 157.894 -3.47812 0.287691 0
M  V30 1750 C 159.242 -4.24216 0.180513 0
M  V30 1751 O 160.266 -3.55526 0.219019 0
M  V30 1752 O 159.125 -5.46434 0.0848493 0
M  V30 1753 H 156.219 -0.826688 -0.0227177 0
M  V30 1754 H 158.765 -1.54496 0.702068 0
M  V30 1755 H 157.537 -3.687 1.31056 0
M  V30 1756 H 157.16 -3.95751 -0.382984 0
M  V30 1757 N 158.157 -0.370918 -1.53173 0
M  V30 1758 C 159.089 0.507823 -2.23503 0
M  V30 1759 C 160.102 1.04182 -1.251 0
M  V30 1760 O 161.291 0.947286 -1.5129 0
M  V30 1761 C 158.391 1.71447 -2.92334 0
M  V30 1762 C 157.564 1.31105 -4.17289 0
M  V30 1763 C 156.623 2.38035 -4.69282 0
M  V30 1764 O 155.649 2.00204 -5.32829 0
M  V30 1765 N 156.851 3.69697 -4.47554 0
M  V30 1766 H 159.616 -0.0946382 -2.99551 0
M  V30 1767 H 157.177 -0.196358 -1.60705 0
M  V30 1768 H 159.169 2.42469 -3.24023 0
M  V30 1769 H 157.739 2.22368 -2.19707 0
M  V30 1770 H 156.959 0.430462 -3.91843 0
M  V30 1771 H 158.247 1.0179 -4.98514 0
M  V30 1772 H 157.645 4.03205 -3.9679 0
M  V30 1773 H 156.202 4.36807 -4.8378 0
M  V30 1774 N 159.635 1.57281 -0.100228 0
M  V30 1775 C 160.884 1.93713 0.561984 0
M  V30 1776 C 161.197 0.984492 1.69018 0
M  V30 1777 O 162.403 1.24273 2.41389 0
M  V30 1778 C 160.859 3.4421 1.05106 0
M  V30 1779 C 160.467 4.47975 -0.0476628 0
M  V30 1780 C 162.211 3.89595 1.68571 0
M  V30 1781 C 160.118 5.89631 0.457055 0
M  V30 1782 H 159.048 0.723082 0.2137 0
M  V30 1783 H 161.699 1.82644 -0.177057 0
M  V30 1784 H 160.081 3.50449 1.84395 0
M  V30 1785 H 161.255 4.53385 -0.823333 0
M  V30 1786 H 159.57 4.1223 -0.587816 0
M  V30 1787 H 162.167 4.92832 2.07414 0
M  V30 1788 H 162.51 3.28526 2.55688 0
M  V30 1789 H 163.043 3.86078 0.958562 0
M  V30 1790 H 159.782 6.54411 -0.377616 0
M  V30 1791 H 159.302 5.87681 1.19962 0
M  V30 1792 H 160.981 6.40363 0.92437 0
M  V30 1793 N 161.113 -0.173488 1.56642 0
M  V30 1794 C 162.338 -0.910149 1.86363 0
M  V30 1795 C 162.763 -1.75132 0.686318 0
M  V30 1796 O 162.121 -1.77595 -0.364643 0
M  V30 1797 C 162.169 -1.76447 3.14482 0
M  V30 1798 O 161.273 -2.86584 2.96553 0
M  V30 1799 H 160.614 -0.255086 0.613047 0
M  V30 1800 H 163.144 -0.172283 2.03873 0
M  V30 1801 H 163.154 -2.16483 3.45831 0
M  V30 1802 H 161.829 -1.14658 3.99783 0
M  V30 1803 H 160.406 -2.50146 2.76553 0
M  V30 1804 N 162.591 -1.51276 -0.441967 0
M  V30 1805 C 163.538 -1.72256 -1.53612 0
M  V30 1806 C 164.508 -0.564164 -1.56225 0
M  V30 1807 O 165.693 -0.798074 -1.73307 0
M  V30 1808 C 162.833 -1.84932 -2.91366 0
M  V30 1809 C 161.946 -3.12459 -2.98317 0
M  V30 1810 C 161.081 -3.15758 -4.27166 0
M  V30 1811 C 160.12 -4.37619 -4.27967 0
M  V30 1812 N 159.257 -4.38493 -5.48333 0
M  V30 1813 H 164.097 -2.65654 -1.35026 0
M  V30 1814 H 161.634 -1.31662 -0.656009 0
M  V30 1815 H 163.592 -1.90263 -3.7129 0
M  V30 1816 H 162.222 -0.949461 -3.08521 0
M  V30 1817 H 161.274 -3.1646 -2.11086 0
M  V30 1818 H 162.586 -4.02382 -2.94771 0
M  V30 1819 H 161.74 -3.19979 -5.15459 0
M  V30 1820 H 160.479 -2.23715 -4.33362 0
M  V30 1821 H 159.484 -4.33579 -3.38067 0
M  V30 1822 H 160.709 -5.30921 -4.23438 0
M  V30 1823 H 158.655 -3.49318 -5.55259 0
M  V30 1824 H 158.572 -5.22219 -5.46647 0
M  V30 1825 H 159.84 -4.469 -6.38671 0
M  V30 1826 N 164.069 0.697108 -1.41344 0
M  V30 1827 C 165.032 1.79281 -1.42797 0
M  V30 1828 C 166.032 1.57607 -0.318837 0
M  V30 1829 O 167.222 1.64309 -0.578642 0
M  V30 1830 C 164.354 3.17632 -1.23785 0
M  V30 1831 H 165.547 1.79385 -2.40335 0
M  V30 1832 H 163.1 0.904582 -1.27464 0
M  V30 1833 H 163.835 3.23167 -0.270814 0
M  V30 1834 H 163.62 3.34765 -2.04144 0
M  V30 1835 H 165.11 3.97617 -1.27633 0
M  V30 1836 N 165.547 1.27147 0.931209 0
M  V30 1837 C 166.794 1.13278 1.67852 0
M  V30 1838 C 167.122 -0.32204 1.91815 0
M  V30 1839 O 166.377 -1.25224 1.50391 0
M  V30 1840 C 166.676 1.8579 3.05314 0
M  V30 1841 C 166.342 3.35657 3.01073 0
M  V30 1842 C 165.004 3.76536 2.99623 0
M  V30 1843 C 167.356 4.31299 2.92627 0
M  V30 1844 C 164.684 5.11426 2.87506 0
M  V30 1845 C 167.036 5.66242 2.82051 0
M  V30 1846 C 165.7 6.06418 2.7895 0
M  V30 1847 H 164.97 0.414515 0.614214 0
M  V30 1848 H 167.617 1.57712 1.08624 0
M  V30 1849 H 165.922 1.33854 3.68226 0
M  V30 1850 H 167.619 1.72491 3.62005 0
M  V30 1851 H 164.209 3.03146 3.02986 0
M  V30 1852 H 168.393 4.00692 2.92848 0
M  V30 1853 H 163.649 5.41705 2.83489 0
M  V30 1854 H 167.823 6.40026 2.74481 0
M  V30 1855 H 165.45 7.10895 2.69318 0
M  V30 1856 N 167.025 -1.13721 1.09112 0
M  V30 1857 C 167.972 -2.19031 0.727591 0
M  V30 1858 C 168.942 -1.63555 -0.289656 0
M  V30 1859 O 170.127 -1.90023 -0.172026 0
M  V30 1860 C 167.267 -3.4477 0.15082 0
M  V30 1861 C 166.38 -4.14365 1.22172 0
M  V30 1862 C 165.515 -5.27709 0.608042 0
M  V30 1863 C 164.554 -5.89147 1.66047 0
M  V30 1864 N 163.691 -6.93929 1.06806 0
M  V30 1865 H 168.531 -2.49475 1.62991 0
M  V30 1866 H 166.068 -1.22499 0.81439 0
M  V30 1867 H 168.026 -4.16714 -0.201358 0
M  V30 1868 H 166.656 -3.14787 -0.714783 0
M  V30 1869 H 165.708 -3.40737 1.69122 0
M  V30 1870 H 167.02 -4.56114 2.01895 0
M  V30 1871 H 166.174 -6.06355 0.204523 0
M  V30 1872 H 164.913 -4.872 -0.220769 0
M  V30 1873 H 163.918 -5.09198 2.07357 0
M  V30 1874 H 165.143 -6.31729 2.49189 0
M  V30 1875 H 163.089 -6.55483 0.260476 0
M  V30 1876 H 163.006 -7.34202 1.8023 0
M  V30 1877 H 164.274 -7.76434 0.690644 0
M  V30 1878 N 168.503 -0.877838 -1.30888 0
M  V30 1879 C 169.733 -0.506678 -2.00291 0
M  V30 1880 C 170.141 0.907449 -1.66018 0
M  V30 1881 O 169.484 1.60719 -0.88967 0
M  V30 1882 C 169.546 -0.59323 -3.54572 0
M  V30 1883 C 169.21 -1.97038 -4.12341 0
M  V30 1884 C 170.207 -2.93889 -4.28865 0
M  V30 1885 C 167.892 -2.27383 -4.47886 0
M  V30 1886 C 169.886 -4.19224 -4.80136 0
M  V30 1887 C 167.573 -3.52965 -4.98857 0
M  V30 1888 C 168.571 -4.48701 -5.14934 0
M  V30 1889 O 168.259 -5.72056 -5.64808 0
M  V30 1890 H 167.991 -0.1951 -0.647234 0
M  V30 1891 H 170.545 -1.18301 -1.6791 0
M  V30 1892 H 168.775 0.140057 -3.86446 0
M  V30 1893 H 170.464 -0.234372 -4.05223 0
M  V30 1894 H 171.23 -2.71756 -4.01714 0
M  V30 1895 H 167.109 -1.53639 -4.34645 0
M  V30 1896 H 170.653 -4.93956 -4.92599 0
M  V30 1897 H 166.55 -3.74939 -5.25443 0
M  V30 1898 H 167.318 -5.74337 -5.83163 0
M  V30 1899 N 169.982 1.44106 -0.638065 0
M  V30 1900 C 171.228 2.02815 -0.15409 0
M  V30 1901 C 171.583 1.49342 1.21304 0
M  V30 1902 O 170.876 0.670699 1.79478 0
M  V30 1903 C 171.07 3.5729 -0.0887327 0
M  V30 1904 C 170.899 4.2575 -1.44799 0
M  V30 1905 C 169.669 4.62443 -2.03653 0
M  V30 1906 C 171.867 4.55746 -2.38327 0
M  V30 1907 N 169.849 5.15903 -3.32741 0
M  V30 1908 C 171.22 5.10364 -3.52036 0
M  V30 1909 C 173.275 4.37703 -2.3732 0
M  V30 1910 C 171.978 5.48837 -4.64941 0
M  V30 1911 C 174.004 4.77229 -3.49294 0
M  V30 1912 C 173.366 5.31966 -4.61726 0
M  V30 1913 H 169.465 0.775519 -0.100466 0
M  V30 1914 H 172.049 1.755 -0.843071 0
M  V30 1915 H 170.22 3.84201 0.569548 0
M  V30 1916 H 171.952 4.02671 0.404711 0
M  V30 1917 H 168.707 4.46987 -1.56523 0
M  V30 1918 H 169.131 5.47102 -3.98758 0
M  V30 1919 H 173.773 3.94671 -1.51641 0
M  V30 1920 H 171.491 5.9082 -5.51323 0
M  V30 1921 H 175.077 4.64976 -3.49698 0
M  V30 1922 H 173.957 5.61986 -5.46939 0
M  V30 1923 N 171.46 0.379036 1.52974 0
M  V30 1924 C 172.69 -0.20649 2.05566 0
M  V30 1925 C 173.098 -1.41906 1.25137 0
M  V30 1926 O 172.441 -1.81421 0.288464 0
M  V30 1927 C 172.503 -0.651086 3.53555 0
M  V30 1928 C 172.167 0.446626 4.54812 0
M  V30 1929 C 173.164 1.30079 5.03364 0
M  V30 1930 C 170.849 0.610719 4.98573 0
M  V30 1931 C 172.843 2.30426 5.94292 0
M  V30 1932 C 170.53 1.61754 5.89304 0
M  V30 1933 C 171.528 2.46274 6.37054 0
M  V30 1934 O 171.216 3.45237 7.25994 0
M  V30 1935 H 170.948 -0.0372381 0.674974 0
M  V30 1936 H 173.502 0.539718 1.98182 0
M  V30 1937 H 171.732 -1.44911 3.58522 0
M  V30 1938 H 173.421 -1.16112 3.88938 0
M  V30 1939 H 174.187 1.18527 4.70294 0
M  V30 1940 H 170.066 -0.0374044 4.60985 0
M  V30 1941 H 173.61 2.96432 6.31485 0
M  V30 1942 H 169.507 1.73348 6.21788 0
M  V30 1943 H 170.275 3.41124 7.44027 0
M  V30 1944 N 172.938 -1.57226 0.108567 0
M  V30 1945 C 174.215 -1.86333 -0.594939 0
M  V30 1946 C 174.595 -1.00788 -1.85486 0
M  V30 1947 O 173.943 -0.0839293 -2.28346 0
M  V30 1948 C 174.153 -3.37265 -0.897405 0
M  V30 1949 C 175.501 -4.05629 -1.25501 0
M  V30 1950 O 176.525 -3.42224 -0.987998 0
M  V30 1951 O 175.384 -5.17531 -1.75567 0
M  V30 1952 H 172.478 -0.771018 -0.2991 0
M  V30 1953 H 175.024 -1.69102 0.142283 0
M  V30 1954 H 173.796 -3.913 -0.00413806 0
M  V30 1955 H 173.419 -3.59889 -1.69014 0
M  V30 1956 N 174.416 0.165178 -1.56732 0
M  V30 1957 C 175.641 0.900253 -1.86843 0
M  V30 1958 C 176.066 1.74766 -0.695596 0
M  V30 1959 O 175.424 1.77786 0.35522 0
M  V30 1960 C 175.472 1.74777 -3.15413 0
M  V30 1961 O 174.576 2.85007 -2.98068 0
M  V30 1962 H 173.917 0.251832 -0.614391 0
M  V30 1963 H 176.447 0.161468 -2.03962 0
M  V30 1964 H 176.457 2.14646 -3.46974 0
M  V30 1965 H 175.132 1.12537 -4.00385 0
M  V30 1966 H 173.709 2.48676 -2.77875 0
M  V30 1967 N 175.894 1.51508 0.433938 0
M  V30 1968 C 177.171 1.54888 1.19453 0
M  V30 1969 C 177.551 0.315154 2.08734 0
M  V30 1970 O 176.899 -0.699558 2.17528 0
M  V30 1971 C 177.109 2.86467 1.99342 0
M  V30 1972 C 178.457 3.38545 2.56267 0
M  V30 1973 O 179.481 2.88041 2.0955 0
M  V30 1974 O 178.34 4.26675 3.41483 0
M  V30 1975 H 175.434 0.622863 0.544032 0
M  V30 1976 H 177.98 1.63823 0.442732 0
M  V30 1977 H 176.752 3.67718 1.33788 0
M  V30 1978 H 176.375 2.8071 2.8158 0
M  V30 1979 N 177.372 -0.689602 1.41712 0
M  V30 1980 C 178.783 -1.26973 1.36875 0
M  V30 1981 C 179.134 -1.96124 0.054748 0
M  V30 1982 O 178.259 -1.99141 -0.84687 0
M  V30 1983 C 178.854 -2.30912 2.47922 0
M  V30 1984 C 177.413 -2.84486 2.46464 0
M  V30 1985 C 176.56 -1.58603 2.27465 0
M  V30 1986 H 179.511 -0.48396 1.51141 0
M  V30 1987 H 179.532 -3.12331 2.17323 0
M  V30 1988 H 179.044 -1.80554 3.43543 0
M  V30 1989 H 177.145 -3.39005 1.54617 0
M  V30 1990 H 177.258 -3.34511 3.42986 0
M  V30 1991 H 175.622 -1.84632 1.75451 0
M  V30 1992 H 176.405 -1.10233 3.25121 0
M  V30 1993 N 178.85 -1.27639 -0.924453 0
M  V30 1994 C 179.797 -1.10644 -2.0255 0
M  V30 1995 C 180.767 -0.00658438 -1.66099 0
M  V30 1996 O 181.952 -0.16952 -1.90045 0
M  V30 1997 C 179.092 -0.76309 -3.36557 0
M  V30 1998 C 178.205 -1.94091 -3.85944 0
M  V30 1999 C 177.34 -1.53914 -5.08413 0
M  V30 2000 C 176.379 -2.68425 -5.50104 0
M  V30 2001 N 175.516 -2.28815 -6.63768 0
M  V30 2002 H 180.356 -2.04858 -2.16419 0
M  V30 2003 H 177.893 -1.01974 -1.06017 0
M  V30 2004 H 179.851 -0.544822 -4.13627 0
M  V30 2005 H 178.481 0.142102 -3.22487 0
M  V30 2006 H 177.533 -2.27162 -3.05125 0
M  V30 2007 H 178.845 -2.7998 -4.12811 0
M  V30 2008 H 177.999 -1.28231 -5.92994 0
M  V30 2009 H 176.738 -0.651391 -4.8333 0
M  V30 2010 H 175.743 -2.94819 -4.64071 0
M  V30 2011 H 176.968 -3.57826 -5.7718 0
M  V30 2012 H 174.914 -1.42495 -6.40337 0
M  V30 2013 H 174.831 -3.08242 -6.90306 0
M  V30 2014 H 176.099 -2.06387 -7.51681 0
M  V30 2015 N 180.328 1.1314 -1.09713 0
M  V30 2016 C 181.553 1.88862 -0.857081 0
M  V30 2017 C 181.978 1.78729 0.586304 0
M  V30 2018 O 181.336 1.13692 1.41222 0
M  V30 2019 C 181.384 3.36325 -1.30069 0
M  V30 2020 O 180.488 4.09815 -0.461007 0
M  V30 2021 H 179.829 0.587108 -0.310162 0
M  V30 2022 H 182.359 1.43129 -1.46203 0
M  V30 2023 H 182.369 3.87157 -1.28738 0
M  V30 2024 H 181.044 3.43017 -2.35185 0
M  V30 2025 H 179.621 3.68986 -0.538888 0
M  V30 2026 N 181.806 0.884767 1.30421 0
M  V30 2027 C 183.222 0.57874 1.48737 0
M  V30 2028 C 183.422 -0.883567 1.81095 0
M  V30 2029 O 182.478 -1.6648 1.89844 0
M  V30 2030 C 183.791 1.49171 2.61091 0
M  V30 2031 C 185.339 1.49532 2.74971 0
M  V30 2032 C 185.814 2.39421 3.90438 0
M  V30 2033 N 187.305 2.37383 3.97748 0
M  V30 2034 C 188.04 3.03647 4.86401 0
M  V30 2035 N 187.536 3.79136 5.79852 0
M  V30 2036 N 189.329 2.9288 4.79768 0
M  V30 2037 H 181.48 1.83075 1.0769 0
M  V30 2038 H 183.743 0.783637 0.533495 0
M  V30 2039 H 183.449 2.53291 2.44001 0
M  V30 2040 H 183.323 1.20113 3.57565 0
M  V30 2041 H 185.71 0.46163 2.91467 0
M  V30 2042 H 185.791 1.8262 1.79119 0
M  V30 2043 H 185.435 3.42874 3.74699 0
M  V30 2044 H 185.365 2.03649 4.85628 0
M  V30 2045 H 187.856 1.82525 3.30897 0
M  V30 2046 H 188.169 4.26789 6.4426 0
M  V30 2047 H 186.514 3.83243 5.79784 0
M  V30 2048 H 189.705 2.33433 4.05742 0
M  V30 2049 H 189.878 3.448 5.4865 0
M  V30 2050 N 183.284 -1.43765 0.645699 0
M  V30 2051 C 184.232 -2.32516 -0.0624849 0
M  V30 2052 C 185.226 -1.48183 -0.820855 0
M  V30 2053 O 186.432 -1.64439 -0.732106 0
M  V30 2054 H 182.807 -0.750989 -0.0389864 0
M  V30 2055 H 184.778 -2.89979 0.703892 0
M  V30 2056 C 183.527 -3.32389 -1.02044 0
M  V30 2057 H 182.85 -3.97301 -0.446312 0
M  V30 2058 H 184.29 -3.97138 -1.48517 0
M  V30 2059 C 182.749 -2.62416 -2.11281 0
M  V30 2060 O 183.279 -2.434 -3.19561 0
M  V30 2061 N 181.485 -2.21913 -1.87624 0
M  V30 2062 H 181.032 -2.37578 -0.995703 0
M  V30 2063 H 180.99 -1.75424 -2.6091 0
M  V30 2064 N 184.763 -0.387143 -1.52771 0
M  V30 2065 C 186.009 0.188506 -2.02525 0
M  V30 2066 C 186.364 1.44649 -1.26864 0
M  V30 2067 O 185.657 1.88189 -0.359945 0
M  V30 2068 C 185.851 0.512209 -3.53711 0
M  V30 2069 C 185.68 -0.712855 -4.44014 0
M  V30 2070 C 184.45 -1.23147 -4.90064 0
M  V30 2071 C 186.648 -1.58453 -4.89282 0
M  V30 2072 N 184.63 -2.41431 -5.64433 0
M  V30 2073 C 186.001 -2.61381 -5.6221 0
M  V30 2074 C 188.056 -1.60488 -4.71326 0
M  V30 2075 C 186.759 -3.66227 -6.19088 0
M  V30 2076 C 188.785 -2.6424 -5.29085 0
M  V30 2077 C 188.147 -3.6589 -6.01917 0
M  V30 2078 H 184.246 0.0311236 -0.78138 0
M  V30 2079 H 186.83 -0.536548 -1.87161 0
M  V30 2080 H 185.001 1.20632 -3.69192 0
M  V30 2081 H 186.733 1.07482 -3.90166 0
M  V30 2082 H 183.488 -0.792795 -4.66917 0
M  V30 2083 H 183.912 -3.01274 -6.0627 0
M  V30 2084 H 188.554 -0.83247 -4.14524 0
M  V30 2085 H 186.272 -4.44337 -6.74974 0
M  V30 2086 H 189.858 -2.66695 -5.17074 0
M  V30 2087 H 188.738 -4.44855 -6.45813 0
M  V30 2088 N 186.241 1.57166 -0.116904 0
M  V30 2089 C 187.487 1.96206 0.536166 0
M  V30 2090 C 187.842 0.99915 1.64422 0
M  V30 2091 O 187.135 0.0288195 1.91578 0
M  V30 2092 C 187.329 3.39508 1.11664 0
M  V30 2093 C 187.158 4.49651 0.0663474 0
M  V30 2094 C 185.928 5.03982 -0.36474 0
M  V30 2095 C 188.126 5.09322 -0.713829 0
M  V30 2096 N 186.108 5.97699 -1.40102 0
M  V30 2097 C 187.479 5.98963 -1.60136 0
M  V30 2098 C 189.534 4.91989 -0.764948 0
M  V30 2099 C 188.237 6.73128 -2.53556 0
M  V30 2100 C 190.263 5.66833 -1.68685 0
M  V30 2101 C 189.625 6.56158 -2.56196 0
M  V30 2102 H 185.724 0.764203 0.165886 0
M  V30 2103 H 188.308 1.93623 -0.204535 0
M  V30 2104 H 186.479 3.42743 1.82707 0
M  V30 2105 H 188.211 3.65677 1.73386 0
M  V30 2106 H 184.966 4.73592 0.027252 0
M  V30 2107 H 185.39 6.49262 -1.91802 0
M  V30 2108 H 190.032 4.22676 -0.102501 0
M  V30 2109 H 187.75 7.41689 -3.20816 0
M  V30 2110 H 191.336 5.55427 -1.73181 0
M  V30 2111 H 190.216 7.13057 -3.26372 0
M  V30 2112 N 187.719 -0.156864 1.56817 0
M  V30 2113 C 188.669 -1.19891 1.93934 0
M  V30 2114 C 189.653 -1.39061 0.809372 0
M  V30 2115 O 190.845 -1.40789 1.07273 0
M  V30 2116 C 187.974 -2.53493 2.31508 0
M  V30 2117 C 187.06 -2.37957 3.51052 0
M  V30 2118 N 187.451 -1.92158 4.67877 0
M  V30 2119 C 185.749 -2.68739 3.55943 0
M  V30 2120 C 186.45 -1.8943 5.49992 0
M  V30 2121 N 185.426 -2.32375 4.91429 0
M  V30 2122 H 189.228 -0.836746 2.81737 0
M  V30 2123 H 186.742 -0.365012 1.58245 0
M  V30 2124 H 188.739 -3.28811 2.56299 0
M  V30 2125 H 187.399 -2.905 1.45051 0
M  V30 2126 H 188.41 -1.62274 4.91821 0
M  V30 2127 H 185.087 -3.09687 2.80001 0
M  V30 2128 H 186.477 -1.55596 6.53636 0
M  V30 2129 N 189.197 -1.51736 -0.425897 0
M  V30 2130 C 190.145 -1.74464 -1.53834 0
M  V30 2131 C 191.139 -0.611241 -1.57988 0
M  V30 2132 O 192.345 -0.792899 -1.61596 0
M  V30 2133 H 188.72 -0.551437 -0.511293 0
M  V30 2134 H 190.691 -2.67694 -1.31843 0
M  V30 2135 C 189.44 -1.8972 -2.91379 0
M  V30 2136 H 188.763 -2.76344 -2.88919 0
M  V30 2137 H 190.203 -2.09629 -3.68553 0
M  V30 2138 C 188.662 -0.65992 -3.30374 0
M  V30 2139 O 189.192 0.180083 -4.01296 0
M  V30 2140 N 187.398 -0.500677 -2.86254 0
M  V30 2141 H 186.945 -1.18532 -2.28709 0
M  V30 2142 H 186.903 0.325903 -3.12706 0
M  V30 2143 N 190.675 0.682077 -1.42076 0
M  V30 2144 C 191.585 1.82535 -1.47371 0
M  V30 2145 C 192.601 1.7017 -0.363079 0
M  V30 2146 O 193.777 1.91848 -0.612875 0
M  V30 2147 C 190.842 3.18624 -1.36674 0
M  V30 2148 C 189.903 3.42999 -2.58167 0
M  V30 2149 C 189.136 4.72595 -2.4797 0
M  V30 2150 O 189.359 5.50006 -1.5116 0
M  V30 2151 O 188.293 4.98054 -3.37974 0
M  V30 2152 H 192.119 1.81023 -2.43853 0
M  V30 2153 H 189.704 0.836887 -1.2376 0
M  V30 2154 H 191.586 3.99847 -1.33043 0
M  V30 2155 H 190.261 3.20789 -0.433138 0
M  V30 2156 H 189.168 2.61653 -2.67373 0
M  V30 2157 H 190.501 3.45659 -3.50401 0
M  V30 2158 N 192.153 1.28127 0.917671 0
M  V30 2159 C 193.402 1.14432 1.66097 0
M  V30 2160 C 193.715 -0.307247 1.93172 0
M  V30 2161 O 194.921 -0.565259 2.65551 0
M  V30 2162 C 193.377 2.00015 2.99202 0
M  V30 2163 C 192.985 3.49889 2.79789 0
M  V30 2164 C 194.729 1.94996 3.77064 0
M  V30 2165 C 192.636 4.27636 4.08511 0
M  V30 2166 H 191.566 0.424662 0.62304 0
M  V30 2167 H 194.217 1.52628 1.01868 0
M  V30 2168 H 192.599 1.54672 3.64544 0
M  V30 2169 H 193.773 4.03162 2.23152 0
M  V30 2170 H 192.088 3.56392 2.15345 0
M  V30 2171 H 194.685 2.50354 4.72469 0
M  V30 2172 H 195.028 0.925819 4.05875 0
M  V30 2173 H 195.561 2.38287 3.18534 0
M  V30 2174 H 192.3 5.30615 3.84874 0
M  V30 2175 H 191.82 3.79137 4.64774 0
M  V30 2176 H 193.499 4.37346 4.76799 0
M  V30 2177 N 193.631 -1.12557 1.10312 0
M  V30 2178 C 194.594 -2.16434 0.75424 0
M  V30 2179 C 195.594 -1.59278 -0.220685 0
M  V30 2180 O 196.784 -1.742 0.00230591 0
M  V30 2181 C 193.916 -3.40699 0.116987 0
M  V30 2182 H 195.109 -2.48811 1.67431 0
M  V30 2183 H 192.662 -1.27542 0.903475 0
M  V30 2184 H 193.397 -3.13921 -0.813877 0
M  V30 2185 H 193.182 -3.83459 0.818613 0
M  V30 2186 H 194.672 -4.17451 -0.111387 0
M  V30 2187 N 195.109 -0.891671 -1.2995 0
M  V30 2188 C 196.337 -0.52866 -2.00032 0
M  V30 2189 C 196.752 0.884574 -1.66795 0
M  V30 2190 O 196.109 1.5827 -0.908669 0
M  V30 2191 C 196.16 -0.701814 -3.54622 0
M  V30 2192 O 195.881 -2.05942 -3.86678 0
M  V30 2193 C 197.382 -0.342683 -4.41973 0
M  V30 2194 H 194.602 -0.203659 -0.639347 0
M  V30 2195 H 197.146 -1.19881 -1.65677 0
M  V30 2196 H 195.301 -0.0789468 -3.8732 0
M  V30 2197 H 195.715 -2.08291 -4.81368 0
M  V30 2198 H 197.189 -0.514709 -5.49595 0
M  V30 2199 H 197.666 0.71975 -4.33262 0
M  V30 2200 H 198.272 -0.942154 -4.14733 0
M  V30 2201 N 196.587 1.43421 -0.653314 0
M  V30 2202 C 197.998 1.85065 -0.246537 0
M  V30 2203 C 198.349 1.54688 1.2069 0
M  V30 2204 O 197.474 0.995896 1.92122 0
M  V30 2205 C 198.069 3.35922 -0.440666 0
M  V30 2206 C 196.628 3.76297 -0.0882064 0
M  V30 2207 C 195.775 2.67147 -0.743484 0
M  V30 2208 H 198.726 1.33572 -0.856979 0
M  V30 2209 H 198.747 3.79204 0.313798 0
M  V30 2210 H 198.259 3.58 -1.49858 0
M  V30 2211 H 196.36 3.5983 0.96711 0
M  V30 2212 H 196.473 4.76338 -0.513738 0
M  V30 2213 H 194.837 2.54086 -0.176712 0
M  V30 2214 H 195.62 2.92053 -1.80443 0
M  V30 2215 N 198.065 0.39524 1.52563 0
M  V30 2216 C 198.997 -0.472201 2.24283 0
M  V30 2217 C 200.01 -1.02178 1.26742 0
M  V30 2218 O 201.199 -0.923097 1.52778 0
M  V30 2219 C 198.299 -1.66775 2.95024 0
M  V30 2220 C 197.472 -1.2445 4.19322 0
M  V30 2221 C 196.531 -2.30539 4.7301 0
M  V30 2222 O 195.557 -1.91702 5.35947 0
M  V30 2223 N 196.759 -3.6253 4.53379 0
M  V30 2224 H 199.524 0.142282 2.99362 0
M  V30 2225 H 197.085 0.2219 1.60372 0
M  V30 2226 H 199.077 -2.37283 3.27839 0
M  V30 2227 H 197.647 -2.18845 2.23217 0
M  V30 2228 H 196.867 -0.368069 3.92478 0
M  V30 2229 H 198.155 -0.938457 5.0007 0
M  V30 2230 H 197.553 -3.96841 4.03154 0
M  V30 2231 H 196.11 -4.29055 4.90668 0
M  V30 2232 N 199.544 -1.57102 0.125237 0
M  V30 2233 C 200.507 -2.14471 -0.80838 0
M  V30 2234 C 201.507 -1.0811 -1.19033 0
M  V30 2235 O 202.697 -1.33856 -1.11482 0
M  V30 2236 C 199.829 -2.69005 -2.09402 0
M  V30 2237 H 201.022 -2.98297 -0.309696 0
M  V30 2238 H 198.575 -1.55807 -0.124051 0
M  V30 2239 H 199.31 -1.88785 -2.63687 0
M  V30 2240 H 199.095 -3.46799 -1.82957 0
M  V30 2241 H 200.585 -3.13278 -2.76128 0
M  V30 2242 N 201.022 0.148545 -1.56898 0
M  V30 2243 C 201.952 1.18524 -2.01182 0
M  V30 2244 C 202.933 1.4489 -0.891123 0
M  V30 2245 O 204.118 1.55836 -1.15882 0
M  V30 2246 C 201.248 2.51879 -2.39112 0
M  V30 2247 C 200.202 2.40038 -3.54353 0
M  V30 2248 C 199.528 3.78089 -3.78091 0
M  V30 2249 C 200.828 1.88577 -4.87069 0
M  V30 2250 H 202.522 0.817029 -2.88036 0
M  V30 2251 H 200.068 0.391575 -1.38574 0
M  V30 2252 H 202.021 3.24627 -2.68692 0
M  V30 2253 H 200.745 2.90532 -1.49193 0
M  V30 2254 H 199.404 1.69742 -3.24936 0
M  V30 2255 H 199.052 4.14175 -2.85426 0
M  V30 2256 H 198.752 3.71028 -4.55645 0
M  V30 2257 H 200.276 4.52387 -4.10095 0
M  V30 2258 H 201.69 2.51117 -5.15377 0
M  V30 2259 H 200.087 1.9241 -5.68417 0
M  V30 2260 H 201.157 0.84136 -4.77545 0
M  V30 2261 N 202.5 1.5196 0.417844 0
M  V30 2262 C 203.748 1.65263 1.16329 0
M  V30 2263 C 204.069 0.380634 1.91249 0
M  V30 2264 O 203.339 -0.604214 1.86349 0
M  V30 2265 H 201.919 0.60912 0.432414 0
M  V30 2266 H 204.581 1.88969 0.477162 0
M  V30 2267 H 203.677 2.4896 1.88217 0
M  V30 2268 N 203.978 -0.674533 1.42435 0
M  V30 2269 C 204.888 -1.81751 1.48337 0
M  V30 2270 C 205.904 -1.69975 0.372099 0
M  V30 2271 O 207.08 -1.91521 0.62304 0
M  V30 2272 C 204.145 -3.17895 1.38361 0
M  V30 2273 C 203.206 -3.41625 2.59982 0
M  V30 2274 C 202.439 -4.71274 2.50473 0
M  V30 2275 O 202.662 -5.49197 1.54075 0
M  V30 2276 O 201.596 -4.96254 3.4061 0
M  V30 2277 H 205.422 -1.79728 2.44809 0
M  V30 2278 H 203.007 -0.830312 1.24202 0
M  V30 2279 H 204.889 -3.99136 1.35161 0
M  V30 2280 H 203.564 -3.20555 0.450144 0
M  V30 2281 H 202.471 -2.60231 2.68757 0
M  V30 2282 H 203.804 -3.43796 3.52229 0
M  V30 2283 N 205.456 -1.28612 -0.910864 0
M  V30 2284 C 206.389 -1.07109 -2.01502 0
M  V30 2285 C 207.367 0.013706 -1.62594 0
M  V30 2286 O 208.551 -0.134796 -1.88017 0
M  V30 2287 C 205.678 -0.628255 -3.32822 0
M  V30 2288 C 204.724 -1.71012 -3.90714 0
M  V30 2289 S 205.557 -3.30676 -4.21205 0
M  V30 2290 C 206.713 -2.88234 -5.55583 0
M  V30 2291 H 206.946 -2.00591 -2.19432 0
M  V30 2292 H 204.479 -1.12633 -1.05609 0
M  V30 2293 H 206.437 -0.37946 -4.08742 0
M  V30 2294 H 205.098 0.28678 -3.12788 0
M  V30 2295 H 204.291 -1.35195 -4.85529 0
M  V30 2296 H 203.893 -1.91186 -3.21441 0
M  V30 2297 H 206.185 -2.34584 -6.35591 0
M  V30 2298 H 207.128 -3.81857 -5.96314 0
M  V30 2299 H 207.536 -2.26862 -5.16908 0
M  V30 2300 N 206.934 1.1197 -1.10907 0
M  V30 2301 C 207.864 2.19928 -0.784473 0
M  V30 2302 C 208.845 1.6833 0.244726 0
M  V30 2303 O 210.03 1.93892 0.109418 0
M  V30 2304 C 207.16 3.46597 -0.220827 0
M  V30 2305 C 206.114 4.11376 -1.18127 0
M  V30 2306 C 205.44 5.32554 -0.478594 0
M  V30 2307 C 206.74 4.56945 -2.52979 0
M  V30 2308 H 208.434 2.47337 -1.68715 0
M  V30 2309 H 205.98 1.18879 -0.812642 0
M  V30 2310 H 207.933 4.21396 0.0184278 0
M  V30 2311 H 206.657 3.1863 0.717113 0
M  V30 2312 H 205.316 3.38564 -1.40606 0
M  V30 2313 H 204.964 5.00856 0.463976 0
M  V30 2314 H 204.664 5.76844 -1.11912 0
M  V30 2315 H 206.188 6.10096 -0.248 0
M  V30 2316 H 207.602 5.23093 -2.3462 0
M  V30 2317 H 205.999 5.1203 -3.12962 0
M  V30 2318 H 207.069 3.70676 -3.12614 0
M  V30 2319 N 208.412 0.89855 1.29475 0
M  V30 2320 C 209.661 0.519863 1.94885 0
M  V30 2321 C 209.974 -0.9383 1.71625 0
M  V30 2322 O 211.18 -1.42445 2.31131 0
M  V30 2323 C 209.636 0.878836 3.49005 0
M  V30 2324 C 209.244 2.35569 3.81066 0
M  V30 2325 C 210.988 0.570004 4.20656 0
M  V30 2326 C 208.895 2.65558 5.28425 0
M  V30 2327 H 207.825 0.190692 0.729488 0
M  V30 2328 H 210.476 1.09539 1.47219 0
M  V30 2329 H 208.858 0.232253 3.95318 0
M  V30 2330 H 210.032 3.04773 3.45616 0
M  V30 2331 H 208.347 2.63343 3.22552 0
M  V30 2332 H 210.944 0.770925 5.29113 0
M  V30 2333 H 211.287 -0.491404 4.1339 0
M  V30 2334 H 211.82 1.17438 3.8007 0
M  V30 2335 H 208.559 3.70493 5.40754 0
M  V30 2336 H 208.079 2.00977 5.65127 0
M  V30 2337 H 209.758 2.51765 5.96006 0
M  V30 2338 N 209.89 -1.43072 0.660911 0
M  V30 2339 C 210.82 -2.33497 -0.0122829 0
M  V30 2340 C 211.801 -1.49903 -0.803925 0
M  V30 2341 O 212.986 -1.78546 -0.763864 0
M  V30 2342 C 210.116 -3.33363 -0.973994 0
M  V30 2343 C 209.07 -4.27003 -0.291928 0
M  V30 2344 C 208.396 -5.16967 -1.36562 0
M  V30 2345 C 209.696 -5.15816 0.820462 0
M  V30 2346 H 211.39 -2.90038 0.742873 0
M  V30 2347 H 208.936 -1.39461 0.358688 0
M  V30 2348 H 210.889 -3.95524 -1.45392 0
M  V30 2349 H 209.613 -2.75095 -1.7604 0
M  V30 2350 H 208.272 -3.66217 0.167623 0
M  V30 2351 H 207.92 -4.55034 -2.14366 0
M  V30 2352 H 207.62 -5.80441 -0.914454 0
M  V30 2353 H 209.144 -5.82003 -1.84675 0
M  V30 2354 H 210.558 -5.71742 0.422366 0
M  V30 2355 H 208.955 -5.8805 1.19656 0
M  V30 2356 H 210.025 -4.55045 1.67518 0
M  V30 2357 N 211.368 -0.403325 -1.52352 0
M  V30 2358 C 212.301 0.469463 -2.23319 0
M  V30 2359 C 213.279 1.05272 -1.23922 0
M  V30 2360 O 214.463 1.10169 -1.52954 0
M  V30 2361 C 211.59 1.6511 -2.9573 0
M  V30 2362 C 210.636 1.19178 -4.0951 0
M  V30 2363 S 211.469 0.161718 -5.35256 0
M  V30 2364 C 212.625 1.34882 -6.11194 0
M  V30 2365 H 212.858 -0.133134 -2.97002 0
M  V30 2366 H 210.391 -0.187588 -1.53256 0
M  V30 2367 H 212.349 2.3287 -3.38056 0
M  V30 2368 H 211.01 2.22503 -2.21701 0
M  V30 2369 H 210.203 2.07444 -4.59329 0
M  V30 2370 H 209.805 0.592911 -3.6927 0
M  V30 2371 H 212.097 2.27345 -6.38217 0
M  V30 2372 H 213.04 0.89128 -7.02468 0
M  V30 2373 H 213.448 1.57198 -5.42171 0
M  V30 2374 N 212.846 1.57033 -0.133567 0
M  V30 2375 C 214.262 1.58035 0.222944 0
M  V30 2376 C 214.462 1.14713 1.6566 0
M  V30 2377 O 213.518 0.841218 2.38075 0
M  V30 2378 C 214.831 3.00691 -0.0236116 0
M  V30 2379 C 216.379 3.12973 0.0411512 0
M  V30 2380 C 216.854 4.57654 -0.177899 0
M  V30 2381 N 218.345 4.63033 -0.124365 0
M  V30 2382 C 219.08 5.72771 -0.268553 0
M  V30 2383 N 218.576 6.91206 -0.46972 0
M  V30 2384 N 220.369 5.61718 -0.2071 0
M  V30 2385 H 212.52 1.8349 -1.06981 0
M  V30 2386 H 214.783 0.848677 -0.422436 0
M  V30 2387 H 214.489 3.36726 -1.0153 0
M  V30 2388 H 214.363 3.70614 0.701808 0
M  V30 2389 H 216.75 2.76787 1.02338 0
M  V30 2390 H 216.831 2.45564 -0.716383 0
M  V30 2391 H 216.475 4.94542 -1.15717 0
M  V30 2392 H 216.405 5.23173 0.599797 0
M  V30 2393 H 218.896 3.7789 0.027011 0
M  V30 2394 H 219.209 7.70693 -0.570212 0
M  V30 2395 H 217.554 6.93156 -0.505876 0
M  V30 2396 H 220.745 4.68072 -0.0507986 0
M  V30 2397 H 220.918 6.47195 -0.322909 0
M  V30 2398 N 214.325 -0.140222 1.56975 0
M  V30 2399 C 215.555 -0.865181 1.87612 0
M  V30 2400 C 215.963 -1.74942 0.72055 0
M  V30 2401 O 215.306 -1.80917 -0.318561 0
M  V30 2402 C 215.368 -1.76782 3.13031 0
M  V30 2403 C 215.032 -1.06005 4.44536 0
M  V30 2404 C 216.029 -0.410768 5.18275 0
M  V30 2405 C 213.714 -1.04754 4.91255 0
M  V30 2406 C 215.708 0.241572 6.36942 0
M  V30 2407 C 213.395 -0.391394 6.09845 0
M  V30 2408 C 214.393 0.252029 6.82535 0
M  V30 2409 O 214.081 0.897757 7.98871 0
M  V30 2410 H 213.813 -0.255188 0.625983 0
M  V30 2411 H 216.367 -0.135653 2.04952 0
M  V30 2412 H 214.597 -2.53846 2.91718 0
M  V30 2413 H 216.286 -2.36533 3.29859 0
M  V30 2414 H 217.052 -0.412195 4.83245 0
M  V30 2415 H 212.931 -1.53777 4.34596 0
M  V30 2416 H 216.475 0.744375 6.93617 0
M  V30 2417 H 212.372 -0.387656 6.44335 0
M  V30 2418 H 213.14 0.800102 8.1458 0
M  V30 2419 N 215.803 -1.52179 -0.40978 0
M  V30 2420 C 217.051 -1.65878 -1.15451 0
M  V30 2421 C 217.372 -0.390771 -1.91044 0
M  V30 2422 O 216.642 0.594323 -1.86667 0
M  V30 2423 H 215.222 -0.611405 -0.429177 0
M  V30 2424 H 217.884 -1.89219 -0.467134 0
M  V30 2425 H 216.98 -2.49954 -1.86894 0
M  V30 2426 N 217.281 0.66697 -1.42791 0
M  V30 2427 C 218.228 1.7803 -1.4688 0
M  V30 2428 C 219.198 1.6299 -0.319919 0
M  V30 2429 O 220.383 1.83432 -0.525118 0
M  V30 2430 C 217.523 3.1611 -1.38451 0
M  V30 2431 C 216.636 3.42381 -2.63437 0
M  V30 2432 C 215.771 4.70232 -2.47094 0
M  V30 2433 C 214.81 4.89564 -3.67415 0
M  V30 2434 N 213.947 6.08661 -3.49966 0
M  V30 2435 H 218.787 1.7387 -2.42019 0
M  V30 2436 H 216.324 0.84868 -1.20149 0
M  V30 2437 H 218.282 3.95914 -1.31561 0
M  V30 2438 H 216.912 3.19374 -0.469033 0
M  V30 2439 H 215.964 2.56774 -2.80662 0
M  V30 2440 H 217.276 3.52557 -3.52853 0
M  V30 2441 H 216.43 5.5814 -2.37834 0
M  V30 2442 H 215.169 4.62353 -1.5518 0
M  V30 2443 H 214.174 4.00096 -3.77099 0
M  V30 2444 H 215.399 4.99282 -4.6032 0
M  V30 2445 H 213.345 6.0194 -2.60776 0
M  V30 2446 H 213.262 6.19733 -4.32975 0
M  V30 2447 H 214.53 6.99226 -3.44532 0
M  V30 2448 N 218.759 1.29093 0.90403 0
M  V30 2449 C 219.706 1.13853 2.00764 0
M  V30 2450 C 220.676 0.0330084 1.66067 0
M  V30 2451 O 221.861 0.199733 1.89752 0
M  V30 2452 C 219.001 0.816537 3.35301 0
M  V30 2453 C 218.114 2.00206 3.82807 0
M  V30 2454 C 217.249 1.61983 5.059 0
M  V30 2455 C 216.288 2.77143 5.45764 0
M  V30 2456 N 215.425 2.39346 6.60044 0
M  V30 2457 H 220.265 2.08276 2.13132 0
M  V30 2458 H 217.802 1.03648 1.04381 0
M  V30 2459 H 219.76 0.610557 4.12708 0
M  V30 2460 H 218.39 -0.090779 3.22672 0
M  V30 2461 H 217.442 2.31988 3.01473 0
M  V30 2462 H 218.754 2.86512 4.08304 0
M  V30 2463 H 217.908 1.37649 5.90879 0
M  V30 2464 H 216.647 0.728202 4.82233 0
M  V30 2465 H 215.652 3.02165 4.59322 0
M  V30 2466 H 216.877 3.66964 5.71414 0
M  V30 2467 H 214.823 1.52665 6.37989 0
M  V30 2468 H 214.74 3.19185 6.85315 0
M  V30 2469 H 216.008 2.1832 7.48303 0
M  V30 2470 N 220.237 -1.11381 1.11499 0
M  V30 2471 C 221.648 -1.6465 0.880191 0
M  V30 2472 C 221.999 -1.87199 -0.587434 0
M  V30 2473 O 221.124 -1.60667 -1.44966 0
M  V30 2474 C 221.719 -2.99105 1.59128 0
M  V30 2475 C 220.278 -3.49279 1.40289 0
M  V30 2476 C 219.425 -2.24077 1.63354 0
M  V30 2477 H 222.376 -0.950123 1.27116 0
M  V30 2478 H 222.397 -3.66107 1.03664 0
M  V30 2479 H 221.909 -2.82661 2.65941 0
M  V30 2480 H 220.01 -3.70887 0.356888 0
M  V30 2481 H 220.123 -4.2803 2.15238 0
M  V30 2482 H 218.487 -2.31733 1.05698 0
M  V30 2483 H 219.27 -2.10175 2.71443 0
M  V30 2484 N 221.715 -0.905404 -1.28997 0
M  V30 2485 C 222.645 -0.404212 -2.29975 0
M  V30 2486 C 223.626 0.523784 -1.61835 0
M  V30 2487 O 224.811 0.433298 -1.89304 0
M  V30 2488 C 221.941 0.364042 -3.45387 0
M  V30 2489 C 220.895 -0.474048 -4.25367 0
M  V30 2490 C 220.221 0.422045 -5.33032 0
M  V30 2491 C 221.521 -1.72696 -4.92923 0
M  V30 2492 H 223.215 -1.24807 -2.72146 0
M  V30 2493 H 220.761 -0.601585 -1.30832 0
M  V30 2494 H 222.714 0.725447 -4.15109 0
M  V30 2495 H 221.438 1.24174 -3.02074 0
M  V30 2496 H 220.097 -0.81786 -3.57361 0
M  V30 2497 H 219.745 1.29804 -4.85963 0
M  V30 2498 H 219.445 -0.135057 -5.87445 0
M  V30 2499 H 220.969 0.779517 -6.05604 0
M  V30 2500 H 222.383 -1.43495 -5.55051 0
M  V30 2501 H 220.78 -2.22582 -5.57295 0
M  V30 2502 H 221.85 -2.45964 -4.17887 0
M  V30 2503 N 223.193 1.4272 -0.668489 0
M  V30 2504 C 224.47 1.95248 -0.117373 0
M  V30 2505 C 224.85 1.60919 1.36632 0
M  V30 2506 O 224.198 0.902095 2.09939 0
M  V30 2507 C 224.408 3.46927 -0.379806 0
M  V30 2508 C 225.756 4.23588 -0.292923 0
M  V30 2509 O 226.78 3.5482 -0.313204 0
M  V30 2510 O 225.639 5.46017 -0.229697 0
M  V30 2511 H 222.733 0.827 0.00079152 0
M  V30 2512 H 225.279 1.52581 -0.742783 0
M  V30 2513 H 224.051 3.65096 -1.40786 0
M  V30 2514 H 223.674 3.96627 0.277923 0
M  V30 2515 N 224.671 0.411399 1.52136 0
M  V30 2516 C 225.581 -0.419774 2.30814 0
M  V30 2517 C 226.597 -1.0515 1.38634 0
M  V30 2518 O 227.773 -1.05252 1.71709 0
M  V30 2519 C 224.838 -1.52019 3.11594 0
M  V30 2520 C 223.899 -0.91129 4.19516 0
M  V30 2521 C 223.132 -1.95927 4.96436 0
M  V30 2522 O 223.355 -3.17775 4.73683 0
M  V30 2523 O 222.289 -1.56423 5.81219 0
M  V30 2524 H 226.115 0.221805 3.02889 0
M  V30 2525 H 223.7 0.174547 1.48377 0
M  V30 2526 H 225.582 -2.15898 3.61892 0
M  V30 2527 H 224.257 -2.14633 2.42311 0
M  V30 2528 H 223.164 -0.235157 3.7336 0
M  V30 2529 H 224.497 -0.32904 4.91099 0
M  V30 2530 N 226.149 -1.5696 0.141893 0
M  V30 2531 C 227.112 -2.15316 -0.785587 0
M  V30 2532 C 228.112 -1.09366 -1.1788 0
M  V30 2533 O 229.302 -1.35031 -1.10056 0
M  V30 2534 C 226.434 -2.71211 -2.06537 0
M  V30 2535 H 227.627 -2.98608 -0.278041 0
M  V30 2536 H 225.18 -1.5593 -0.107519 0
M  V30 2537 H 225.915 -1.91571 -2.6167 0
M  V30 2538 H 225.7 -3.4872 -1.79268 0
M  V30 2539 H 227.19 -3.16189 -2.72789 0
M  V30 2540 N 227.627 0.131896 -1.57047 0
M  V30 2541 C 228.557 1.16384 -2.02428 0
M  V30 2542 C 229.538 1.43936 -0.90644 0
M  V30 2543 O 230.723 1.54599 -1.17528 0
M  V30 2544 C 227.853 2.49328 -2.4177 0
M  V30 2545 C 226.807 2.36266 -3.56879 0
M  V30 2546 C 226.133 3.74057 -3.8208 0
M  V30 2547 C 227.433 1.834 -4.89042 0
M  V30 2548 H 229.127 0.786433 -2.88887 0
M  V30 2549 H 226.673 0.376855 -1.38981 0
M  V30 2550 H 228.626 3.21759 -2.7212 0
M  V30 2551 H 227.35 2.88934 -1.52266 0
M  V30 2552 H 226.009 1.66286 -3.26718 0
M  V30 2553 H 225.657 4.11125 -2.89803 0
M  V30 2554 H 225.357 3.66174 -4.59554 0
M  V30 2555 H 226.881 4.48012 -4.1487 0
M  V30 2556 H 228.295 2.45636 -5.18011 0
M  V30 2557 H 226.692 1.8637 -5.70426 0
M  V30 2558 H 227.762 0.790662 -4.7841 0
M  V30 2559 N 229.106 1.52395 0.401703 0
M  V30 2560 C 230.352 1.67065 1.14966 0
M  V30 2561 C 230.685 0.403052 1.89971 0
M  V30 2562 O 229.96 -0.598774 1.85054 0
M  V30 2563 C 230.243 2.8975 2.13815 0
M  V30 2564 C 230.096 4.26578 1.42658 0
M  V30 2565 C 231.415 3.07965 3.14397 0
M  V30 2566 H 228.534 0.607968 0.416587 0
M  V30 2567 H 231.176 1.84965 0.434511 0
M  V30 2568 H 229.326 2.74619 2.74803 0
M  V30 2569 H 230.998 4.53451 0.847329 0
M  V30 2570 H 229.241 4.27639 0.72849 0
M  V30 2571 H 229.912 5.08483 2.14823 0
M  V30 2572 H 232.388 3.22043 2.63491 0
M  V30 2573 H 231.264 3.95308 3.80819 0
M  V30 2574 H 231.525 2.21611 3.82545 0
M  V30 2575 N 230.584 -0.659388 1.43143 0
M  V30 2576 C 231.534 -1.7655 1.44271 0
M  V30 2577 C 232.518 -1.57847 0.311961 0
M  V30 2578 O 233.71 -1.68064 0.555306 0
M  V30 2579 C 230.839 -3.15104 1.36251 0
M  V30 2580 C 229.925 -3.39377 2.54331 0
M  V30 2581 N 230.316 -3.34153 3.79704 0
M  V30 2582 C 228.614 -3.70072 2.48922 0
M  V30 2583 C 229.315 -3.58337 4.58225 0
M  V30 2584 N 228.291 -3.79851 3.88863 0
M  V30 2585 H 232.093 -1.70928 2.39083 0
M  V30 2586 H 229.607 -0.860823 1.37708 0
M  V30 2587 H 231.604 -3.94389 1.35141 0
M  V30 2588 H 230.264 -3.21913 0.424531 0
M  V30 2589 H 231.275 -3.13704 4.1208 0
M  V30 2590 H 227.952 -3.84034 1.63781 0
M  V30 2591 H 229.342 -3.60129 5.67236 0
M  V30 2592 N 232.062 -1.29571 -0.897171 0
M  V30 2593 C 233.009 -1.14916 -2.00158 0
M  V30 2594 C 233.979 -0.0418149 -1.66047 0
M  V30 2595 O 235.164 -0.209793 -1.89643 0
M  V30 2596 C 232.304 -0.834307 -3.34863 0
M  V30 2597 C 231.417 -2.02234 -3.8174 0
M  V30 2598 C 230.552 -1.64664 -5.05034 0
M  V30 2599 C 229.591 -2.80033 -5.44286 0
M  V30 2600 N 228.728 -2.42843 -6.58765 0
M  V30 2601 H 233.568 -2.09403 -2.12025 0
M  V30 2602 H 231.105 -1.042 -1.0383 0
M  V30 2603 H 233.063 -0.632436 -4.12379 0
M  V30 2604 H 231.693 0.0736656 -3.22716 0
M  V30 2605 H 230.745 -2.33583 -3.00238 0
M  V30 2606 H 232.057 -2.88673 -4.06779 0
M  V30 2607 H 231.211 -1.4078 -5.9014 0
M  V30 2608 H 229.95 -0.753766 -4.8184 0
M  V30 2609 H 228.955 -3.04596 -4.57713 0
M  V30 2610 H 230.18 -3.69989 -5.6946 0
M  V30 2611 H 228.126 -1.56046 -6.3717 0
M  V30 2612 H 228.043 -3.22815 -6.83613 0
M  V30 2613 H 229.311 -2.22285 -7.47134 0
M  V30 2614 N 233.54 1.10788 -1.12088 0
M  V30 2615 C 234.47 2.19083 -0.807755 0
M  V30 2616 C 235.451 1.6858 0.226859 0
M  V30 2617 O 236.636 1.93997 0.0888475 0
M  V30 2618 C 233.766 3.46344 -0.257576 0
M  V30 2619 C 232.72 4.101 -1.22483 0
M  V30 2620 C 232.046 5.32016 -0.535052 0
M  V30 2621 C 233.346 4.54236 -2.57811 0
M  V30 2622 H 235.04 2.45534 -1.71328 0
M  V30 2623 H 232.586 1.1801 -0.825205 0
M  V30 2624 H 234.539 4.21392 -0.0262679 0
M  V30 2625 H 233.263 3.19373 0.683278 0
M  V30 2626 H 231.922 3.37054 -1.44189 0
M  V30 2627 H 231.57 5.01319 0.410827 0
M  V30 2628 H 231.27 5.75625 -1.18024 0
M  V30 2629 H 232.794 6.09799 -0.312695 0
M  V30 2630 H 234.208 5.20575 -2.40155 0
M  V30 2631 H 232.605 5.08682 -3.18375 0
M  V30 2632 H 233.675 3.6734 -3.16528 0
M  V30 2633 N 235.018 0.912232 1.28515 0
M  V30 2634 C 236.246 0.560416 1.99166 0
M  V30 2635 C 236.661 -0.857927 1.68182 0
M  V30 2636 O 236.018 -1.56805 0.933733 0
M  V30 2637 C 236.069 0.758142 3.53461 0
M  V30 2638 O 235.79 2.12067 3.83352 0
M  V30 2639 C 237.291 0.412954 4.41372 0
M  V30 2640 H 234.511 0.213805 0.636026 0
M  V30 2641 H 237.055 1.22502 1.63749 0
M  V30 2642 H 235.21 0.140556 3.87145 0
M  V30 2643 H 235.624 2.15923 4.77993 0
M  V30 2644 H 237.098 0.60208 5.48707 0
M  V30 2645 H 237.575 -0.65073 4.34353 0
M  V30 2646 H 238.181 1.00802 4.13182 0
M  V30 2647 N 236.496 -1.42363 0.676048 0
M  V30 2648 C 237.406 -2.346 -0.00153389 0
M  V30 2649 C 238.422 -1.5516 -0.787485 0
M  V30 2650 O 239.598 -1.87723 -0.729521 0
M  V30 2651 C 236.663 -3.33705 -0.940298 0
M  V30 2652 C 235.724 -4.29042 -0.148739 0
M  V30 2653 C 234.957 -5.23413 -1.04279 0
M  V30 2654 O 235.18 -5.22749 -2.28232 0
M  V30 2655 O 234.114 -5.99795 -0.502925 0
M  V30 2656 H 237.94 -2.94082 0.758268 0
M  V30 2657 H 235.525 -1.42888 0.436289 0
M  V30 2658 H 237.407 -3.94586 -1.47917 0
M  V30 2659 H 236.082 -2.76695 -1.67993 0
M  V30 2660 H 234.989 -3.71571 0.43427 0
M  V30 2661 H 236.322 -4.89097 0.551805 0
M  V30 2662 N 237.974 -0.419461 -1.51915 0
M  V30 2663 C 239.39 -0.0708431 -1.59443 0
M  V30 2664 C 239.59 1.41796 -1.43164 0
M  V30 2665 O 238.646 2.18596 -1.26381 0
M  V30 2666 C 239.959 -0.574991 -2.95151 0
M  V30 2667 C 241.507 -0.533867 -3.08413 0
M  V30 2668 C 241.982 -1.01469 -4.46618 0
M  V30 2669 N 243.473 -0.971939 -4.52888 0
M  V30 2670 C 244.208 -1.31505 -5.58116 0
M  V30 2671 N 243.704 -1.73014 -6.70849 0
M  V30 2672 N 245.497 -1.23436 -5.48379 0
M  V30 2673 H 237.648 -1.38836 -1.60743 0
M  V30 2674 H 239.911 -0.570998 -0.756747 0
M  V30 2675 H 239.617 -1.61597 -3.12377 0
M  V30 2676 H 239.491 0.00979777 -3.77199 0
M  V30 2677 H 241.878 0.498086 -2.90866 0
M  V30 2678 H 241.959 -1.15484 -2.28248 0
M  V30 2679 H 241.603 -2.04502 -4.6491 0
M  V30 2680 H 241.533 -0.370433 -5.25295 0
M  V30 2681 H 244.024 -0.666893 -3.71969 0
M  V30 2682 H 244.337 -1.97479 -7.47143 0
M  V30 2683 H 242.682 -1.76926 -6.72103 0
M  V30 2684 H 245.873 -0.908869 -4.59192 0
M  V30 2685 H 246.046 -1.50506 -6.30279 0
M  V30 2686 N 239.452 1.56882 -0.150215 0
M  V30 2687 C 240.385 2.12712 0.826358 0
M  V30 2688 C 241.363 1.05154 1.24022 0
M  V30 2689 O 242.547 1.33004 1.33575 0
M  V30 2690 C 239.674 2.64945 2.11002 0
M  V30 2691 C 238.72 3.8468 1.84183 0
M  V30 2692 S 239.553 5.25502 1.02995 0
M  V30 2693 C 240.709 5.81125 2.32474 0
M  V30 2694 H 240.942 2.95214 0.351598 0
M  V30 2695 H 238.475 1.54267 0.0641211 0
M  V30 2696 H 240.433 2.95689 2.84742 0
M  V30 2697 H 239.094 1.82568 2.55593 0
M  V30 2698 H 238.287 4.19482 2.79375 0
M  V30 2699 H 237.889 3.54714 1.1855 0
M  V30 2700 H 240.181 5.92753 3.281 0
M  V30 2701 H 241.124 6.78625 2.02171 0
M  V30 2702 H 241.532 5.09392 2.43269 0
M  V30 2703 N 240.93 -0.123565 1.57115 0
M  V30 2704 C 241.877 -1.15177 2.00007 0
M  V30 2705 C 242.847 -1.41403 0.871454 0
M  V30 2706 O 244.032 -1.53346 1.13533 0
M  V30 2707 C 241.172 -2.47436 2.40561 0
M  V30 2708 C 240.285 -2.28184 3.66819 0
M  V30 2709 C 239.42 -3.53641 3.96373 0
M  V30 2710 C 238.459 -3.29528 5.15827 0
M  V30 2711 N 237.596 -4.47175 5.41275 0
M  V30 2712 H 242.436 -0.779008 2.87638 0
M  V30 2713 H 239.973 -0.373166 1.42288 0
M  V30 2714 H 241.931 -3.24584 2.62109 0
M  V30 2715 H 240.561 -2.82614 1.55978 0
M  V30 2716 H 239.613 -1.41976 3.52912 0
M  V30 2717 H 240.925 -2.0634 4.5412 0
M  V30 2718 H 240.079 -4.39209 4.18545 0
M  V30 2719 H 238.818 -3.78512 3.07538 0
M  V30 2720 H 237.823 -2.42349 4.93505 0
M  V30 2721 H 239.048 -3.06031 6.06236 0
M  V30 2722 H 236.994 -4.72175 4.55397 0
M  V30 2723 H 236.911 -4.28419 6.22891 0
M  V30 2724 H 238.179 -5.3389 5.67963 0
M  V30 2725 N 242.408 -1.52605 -0.393616 0
M  V30 2726 C 243.824 -1.41753 -0.733357 0
M  V30 2727 C 244.024 -0.534293 -1.94287 0
M  V30 2728 O 243.08 -0.0059787 -2.52499 0
M  V30 2729 C 244.393 -2.84531 -0.972772 0
M  V30 2730 C 245.941 -2.93978 -1.07453 0
M  V30 2731 C 246.416 -4.37756 -1.3466 0
M  V30 2732 N 247.907 -4.4106 -1.41492 0
M  V30 2733 C 248.642 -5.49387 -1.642 0
M  V30 2734 N 248.138 -6.67806 -1.8441 0
M  V30 2735 N 249.931 -5.36923 -1.66342 0
M  V30 2736 H 242.082 -2.08555 0.402328 0
M  V30 2737 H 244.345 -0.940654 0.117789 0
M  V30 2738 H 244.051 -3.51353 -0.156204 0
M  V30 2739 H 243.925 -3.26508 -1.88871 0
M  V30 2740 H 246.312 -2.27326 -1.88167 0
M  V30 2741 H 246.393 -2.55435 -0.136605 0
M  V30 2742 H 246.037 -5.04972 -0.544581 0
M  V30 2743 H 245.967 -4.73848 -2.2973 0
M  V30 2744 H 248.458 -3.55705 -1.27601 0
M  V30 2745 H 248.771 -7.46141 -2.01231 0
M  V30 2746 H 247.116 -6.70843 -1.81644 0
M  V30 2747 H 250.307 -4.43381 -1.50102 0
M  V30 2748 H 250.48 -6.21416 -1.837 0
M  V30 2749 N 243.887 0.651787 -1.4349 0
M  V30 2750 C 245.135 1.40888 -1.44897 0
M  V30 2751 C 245.456 1.94856 -0.0749086 0
M  V30 2752 O 244.726 1.74518 0.889956 0
M  V30 2753 H 243.306 0.522887 -0.533478 0
M  V30 2754 H 245.968 0.768609 -1.79104 0
M  V30 2755 H 245.064 2.25052 -2.16236 0
M  V30 2756 N 245.365 1.30045 0.890287 0
M  V30 2757 C 246.275 1.17885 2.02831 0
M  V30 2758 C 247.291 0.0999609 1.73713 0
M  V30 2759 O 248.467 0.313867 1.98939 0
M  V30 2760 C 245.532 0.866079 3.35708 0
M  V30 2761 C 244.593 2.02979 3.78283 0
M  V30 2762 C 243.826 1.73184 5.0482 0
M  V30 2763 O 244.049 0.657237 5.66601 0
M  V30 2764 O 242.983 2.58267 5.43674 0
M  V30 2765 H 246.809 2.13474 2.16015 0
M  V30 2766 H 244.394 1.09587 1.01543 0
M  V30 2767 H 246.276 0.706623 4.15433 0
M  V30 2768 H 244.951 -0.0599443 3.23644 0
M  V30 2769 H 243.858 2.24454 2.99285 0
M  V30 2770 H 245.191 2.93734 3.94944 0
M  V30 2771 N 246.843 -1.10192 1.12674 0
M  V30 2772 C 248.254 -1.63707 0.897604 0
M  V30 2773 C 248.605 -1.87812 -0.567546 0
M  V30 2774 O 247.73 -1.62196 -1.43253 0
M  V30 2775 C 248.325 -2.974 1.62292 0
M  V30 2776 C 246.884 -3.47772 1.43986 0
M  V30 2777 C 246.031 -2.22332 1.65722 0
M  V30 2778 H 248.982 -0.936587 1.28116 0
M  V30 2779 H 249.003 -3.64986 1.07541 0
M  V30 2780 H 248.515 -2.79824 2.68924 0
M  V30 2781 H 246.616 -3.70487 0.396206 0
M  V30 2782 H 246.729 -4.25723 2.19765 0
M  V30 2783 H 245.093 -2.30599 1.08149 0
M  V30 2784 H 245.876 -2.07285 2.73657 0
M  V30 2785 N 248.321 -0.919034 -1.28029 0
M  V30 2786 C 249.231 -0.416756 -2.30869 0
M  V30 2787 C 250.247 0.498235 -1.66714 0
M  V30 2788 O 251.423 0.383144 -1.97722 0
M  V30 2789 C 248.488 0.330274 -3.45123 0
M  V30 2790 C 247.549 -0.618578 -4.2482 0
M  V30 2791 C 246.782 0.0928959 -5.33619 0
M  V30 2792 O 247.005 1.31375 -5.55065 0
M  V30 2793 O 245.939 -0.574499 -5.99152 0
M  V30 2794 H 249.765 -1.27043 -2.75851 0
M  V30 2795 H 247.35 -0.684052 -1.3282 0
M  V30 2796 H 249.232 0.751972 -4.14636 0
M  V30 2797 H 247.907 1.1597 -3.02213 0
M  V30 2798 H 246.814 -1.08978 -3.57875 0
M  V30 2799 H 248.147 -1.41497 -4.71423 0
M  V30 2800 N 249.799 1.42003 -0.683588 0
M  V30 2801 C 250.746 2.30798 -0.0107309 0
M  V30 2802 C 251.716 1.4645 0.783688 0
M  V30 2803 O 252.901 1.75263 0.754156 0
M  V30 2804 C 250.041 3.3238 0.928306 0
M  V30 2805 C 249.154 4.31814 0.126776 0
M  V30 2806 C 248.289 5.20468 1.06236 0
M  V30 2807 C 247.328 6.11577 0.253035 0
M  V30 2808 N 246.465 6.92754 1.14179 0
M  V30 2809 H 251.305 2.8778 -0.773727 0
M  V30 2810 H 248.842 1.41745 -0.393283 0
M  V30 2811 H 250.8 3.89813 1.48666 0
M  V30 2812 H 249.43 2.76976 1.65783 0
M  V30 2813 H 248.482 3.76427 -0.54833 0
M  V30 2814 H 249.794 4.96276 -0.501192 0
M  V30 2815 H 248.948 5.82677 1.69035 0
M  V30 2816 H 247.687 4.56204 1.7242 0
M  V30 2817 H 246.692 5.48428 -0.388108 0
M  V30 2818 H 247.917 6.77892 -0.404839 0
M  V30 2819 H 245.863 6.3111 1.78987 0
M  V30 2820 H 245.78 7.53855 0.569111 0
M  V30 2821 H 247.048 7.59441 1.75697 0
M  V30 2822 N 251.277 0.427512 1.51691 0
M  V30 2823 C 252.224 -0.388867 2.275 0
M  V30 2824 C 253.194 -1.02532 1.30677 0
M  V30 2825 O 254.379 -1.0461 1.59566 0
M  V30 2826 C 251.519 -1.48954 3.11298 0
M  V30 2827 C 250.632 -0.872194 4.23104 0
M  V30 2828 C 249.767 -1.94709 4.94228 0
M  V30 2829 C 248.806 -1.30766 5.97969 0
M  V30 2830 N 247.943 -2.32349 6.62539 0
M  V30 2831 H 252.783 0.263997 2.96828 0
M  V30 2832 H 250.32 0.142033 1.46413 0
M  V30 2833 H 252.278 -2.13887 3.58201 0
M  V30 2834 H 250.908 -2.11217 2.44105 0
M  V30 2835 H 249.96 -0.111419 3.80237 0
M  V30 2836 H 251.272 -0.365264 4.97461 0
M  V30 2837 H 250.426 -2.67327 5.44629 0
M  V30 2838 H 249.165 -2.48773 4.1948 0
M  V30 2839 H 248.17 -0.566902 5.4687 0
M  V30 2840 H 249.395 -0.774483 6.74669 0
M  V30 2841 H 247.341 -2.85511 5.90609 0
M  V30 2842 H 247.258 -1.8652 7.3263 0
M  V30 2843 H 248.526 -3.04481 7.17574 0
M  V30 2844 N 252.755 -1.56801 0.158532 0
M  V30 2845 C 253.983 -2.00859 -0.496303 0
M  V30 2846 C 254.398 -1.03871 -1.57659 0
M  V30 2847 O 253.755 -0.0375165 -1.82461 0
M  V30 2848 C 253.806 -3.4479 -1.08638 0
M  V30 2849 O 253.527 -4.38072 -0.0492322 0
M  V30 2850 C 255.028 -4.04185 -1.8207 0
M  V30 2851 H 252.248 -0.65864 -0.128199 0
M  V30 2852 H 254.792 -2.02885 0.256506 0
M  V30 2853 H 252.947 -3.43579 -1.78975 0
M  V30 2854 H 253.361 -5.2227 -0.483102 0
M  V30 2855 H 254.835 -5.06857 -2.18633 0
M  V30 2856 H 255.312 -3.45549 -2.71095 0
M  V30 2857 H 255.918 -4.0906 -1.16405 0
M  V30 2858 N 254.233 0.115231 -1.57178 0
M  V30 2859 C 255.481 0.820727 -1.84685 0
M  V30 2860 C 255.802 1.80237 -0.744279 0
M  V30 2861 O 255.072 1.94529 0.231375 0
M  V30 2862 H 253.652 0.306084 -0.681411 0
M  V30 2863 H 256.314 0.101656 -1.94635 0
M  V30 2864 H 255.41 1.36366 -2.80733 0
M  V30 2865 N 255.711 1.52812 0.385517 0
M  V30 2866 C 256.674 1.77188 1.45386 0
M  V30 2867 C 257.674 0.641953 1.4743 0
M  V30 2868 O 258.864 0.910033 1.4854 0
M  V30 2869 C 255.996 1.87582 2.8465 0
M  V30 2870 H 257.189 2.72583 1.25054 0
M  V30 2871 H 254.742 1.43586 0.617467 0
M  V30 2872 H 255.477 0.941849 3.10322 0
M  V30 2873 H 255.262 2.69748 2.84567 0
M  V30 2874 H 256.752 2.08102 3.62054 0
M  V30 2875 N 257.189 -0.644168 1.43834 0
M  V30 2876 C 258.137 -1.77793 1.49974 0
M  V30 2877 C 259.131 -1.65253 0.372536 0
M  V30 2878 O 260.337 -1.7149 0.546924 0
M  V30 2879 H 256.712 -0.58675 0.47035 0
M  V30 2880 H 258.683 -1.69736 2.45423 0
M  V30 2881 C 257.432 -3.16087 1.4486 0
M  V30 2882 H 256.755 -3.26378 2.30905 0
M  V30 2883 H 258.195 -3.95349 1.53217 0
M  V30 2884 C 256.654 -3.36484 0.167463 0
M  V30 2885 O 257.184 -3.94298 -0.767609 0
M  V30 2886 N 255.39 -2.90504 0.0747556 0
M  V30 2887 H 254.937 -2.4364 0.836507 0
M  V30 2888 H 254.895 -3.04527 -0.781714 0
M  V30 2889 N 258.668 -1.30515 -0.883378 0
M  V30 2890 C 259.615 -1.17032 -1.98927 0
M  V30 2891 C 260.585 -0.0594241 -1.65994 0
M  V30 2892 O 261.77 -0.229895 -1.8941 0
M  V30 2893 C 258.91 -0.869777 -3.33959 0
M  V30 2894 C 258.023 -2.06271 -3.79574 0
M  V30 2895 C 257.158 -1.70011 -5.03259 0
M  V30 2896 C 256.197 -2.8579 -5.41286 0
M  V30 2897 N 255.334 -2.49816 -6.56153 0
M  V30 2898 H 260.174 -2.1164 -2.09792 0
M  V30 2899 H 257.711 -1.05296 -1.02719 0
M  V30 2900 H 259.669 -0.676138 -4.11685 0
M  V30 2901 H 258.299 0.0394332 -3.22776 0
M  V30 2902 H 257.351 -2.36755 -2.97744 0
M  V30 2903 H 258.663 -2.92971 -4.03694 0
M  V30 2904 H 257.817 -1.47032 -5.88614 0
M  V30 2905 H 256.556 -0.804829 -4.81013 0
M  V30 2906 H 255.561 -3.09434 -4.54456 0
M  V30 2907 H 256.786 -3.76008 -5.65504 0
M  V30 2908 H 254.732 -1.62795 -6.35479 0
M  V30 2909 H 254.649 -3.30048 -6.8015 0
M  V30 2910 H 255.917 -2.30197 -7.44735 0
M  V30 2911 N 260.146 1.09593 -1.13257 0
M  V30 2912 C 261.374 1.855 -0.916378 0
M  V30 2913 C 261.789 1.81069 0.534738 0
M  V30 2914 O 261.146 1.20562 1.37007 0
M  V30 2915 C 261.197 3.33546 -1.39388 0
M  V30 2916 O 260.918 3.37927 -2.78813 0
M  V30 2917 C 262.419 4.26299 -1.21588 0
M  V30 2918 H 259.639 0.585991 -0.326887 0
M  V30 2919 H 262.183 1.38488 -1.5047 0
M  V30 2920 H 260.338 3.77992 -0.848597 0
M  V30 2921 H 260.752 4.30254 -2.9997 0
M  V30 2922 H 262.226 5.28341 -1.59876 0
M  V30 2923 H 262.703 4.38918 -0.157376 0
M  V30 2924 H 263.309 3.87668 -1.7491 0
M  V30 2925 N 261.624 0.925811 1.2754 0
M  V30 2926 C 262.901 0.483726 1.89524 0
M  V30 2927 C 263.281 -1.03809 1.83812 0
M  V30 2928 O 262.629 -1.89143 1.28207 0
M  V30 2929 C 262.839 1.02769 3.33526 0
M  V30 2930 C 264.187 1.08703 4.10449 0
M  V30 2931 O 265.211 0.977175 3.42534 0
M  V30 2932 O 264.07 1.25599 5.31871 0
M  V30 2933 H 261.164 0.15529 0.812289 0
M  V30 2934 H 263.71 1.01738 1.35822 0
M  V30 2935 H 262.482 2.07155 3.31967 0
M  V30 2936 H 262.105 0.475567 3.94746 0
M  V30 2937 N 263.102 -1.41638 0.69111 0
M  V30 2938 C 264.351 -2.00526 0.217318 0
M  V30 2939 C 264.664 -1.55353 -1.18848 0
M  V30 2940 O 265.87 -2.06769 -1.75951 0
M  V30 2941 C 264.326 -3.58313 0.337639 0
M  V30 2942 C 263.934 -4.12469 1.74852 0
M  V30 2943 C 265.678 -4.24431 -0.0766066 0
M  V30 2944 C 263.585 -5.62675 1.82074 0
M  V30 2945 H 262.515 -0.750008 0.0774893 0
M  V30 2946 H 265.166 -1.6217 0.858661 0
M  V30 2947 H 263.548 -3.9425 -0.371879 0
M  V30 2948 H 264.722 -3.8796 2.48644 0
M  V30 2949 H 263.037 -3.58861 2.11205 0
M  V30 2950 H 265.634 -5.34683 -0.0430284 0
M  V30 2951 H 265.977 -4.01101 -1.1146 0
M  V30 2952 H 266.51 -3.93512 0.582476 0
M  V30 2953 H 263.249 -5.90826 2.83911 0
M  V30 2954 H 262.769 -5.89124 1.12661 0
M  V30 2955 H 264.448 -6.27371 1.58159 0
M  V30 2956 N 264.58 -0.43555 -1.51462 0
M  V30 2957 C 265.543 0.365137 -2.26273 0
M  V30 2958 C 266.543 0.951227 -1.29647 0
M  V30 2959 O 267.733 0.825958 -1.53374 0
M  V30 2960 C 264.865 1.51645 -3.05314 0
M  V30 2961 H 266.058 -0.290474 -2.9849 0
M  V30 2962 H 263.611 -0.188676 -1.55157 0
M  V30 2963 H 264.346 2.20816 -2.3751 0
M  V30 2964 H 264.131 1.10238 -3.76284 0
M  V30 2965 H 265.621 2.08218 -3.61987 0
M  V30 2966 N 266.058 1.56714 -0.166846 0
M  V30 2967 C 266.988 2.20754 0.760913 0
M  V30 2968 C 267.969 1.16178 1.24244 0
M  V30 2969 O 269.154 1.44592 1.29641 0
M  V30 2970 C 266.284 2.84478 1.99223 0
M  V30 2971 C 265.238 3.95053 1.64672 0
M  V30 2972 C 264.564 4.45805 2.95232 0
M  V30 2973 C 265.864 5.14865 0.878155 0
M  V30 2974 H 267.558 2.98537 0.22713 0
M  V30 2975 H 265.104 1.43596 0.107805 0
M  V30 2976 H 267.057 3.27951 2.64624 0
M  V30 2977 H 265.781 2.04056 2.55007 0
M  V30 2978 H 264.44 3.52228 1.01641 0
M  V30 2979 H 264.088 3.62181 3.49047 0
M  V30 2980 H 263.788 5.204 2.7287 0
M  V30 2981 H 265.312 4.91962 3.6167 0
M  V30 2982 H 266.726 5.55059 1.43466 0
M  V30 2983 H 265.123 5.95348 0.753738 0
M  V30 2984 H 266.193 4.84735 -0.126377 0
M  V30 2985 N 267.536 -0.106894 1.57237 0
M  V30 2986 C 268.486 -1.1366 1.9765 0
M  V30 2987 C 269.47 -1.36416 0.853203 0
M  V30 2988 O 270.662 -1.37305 1.11697 0
M  V30 2989 C 267.791 -2.46 2.39455 0
M  V30 2990 C 266.877 -2.26668 3.58445 0
M  V30 2991 N 267.268 -1.77176 4.73754 0
M  V30 2992 C 265.566 -2.57279 3.64312 0
M  V30 2993 C 266.267 -1.71836 5.5574 0
M  V30 2994 N 265.243 -2.16623 4.98573 0
M  V30 2995 H 269.045 -0.74669 2.84256 0
M  V30 2996 H 266.559 -0.314483 1.59326 0
M  V30 2997 H 268.556 -3.2049 2.6663 0
M  V30 2998 H 267.216 -2.85738 1.54219 0
M  V30 2999 H 268.227 -1.46545 4.96734 0
M  V30 3000 H 264.904 -3.00622 2.89711 0
M  V30 3001 H 266.294 -1.34723 6.58255 0
M  V30 3002 N 269.014 -1.53014 -0.377408 0
M  V30 3003 C 270.244 -1.72265 -1.14054 0
M  V30 3004 C 270.652 -0.44601 -1.83868 0
M  V30 3005 O 269.995 0.590095 -1.73964 0
M  V30 3006 C 270.057 -2.82492 -2.22348 0
M  V30 3007 C 269.721 -4.23233 -1.72402 0
M  V30 3008 C 270.718 -5.05992 -1.19448 0
M  V30 3009 C 268.403 -4.696 -1.78273 0
M  V30 3010 C 270.397 -6.33203 -0.730268 0
M  V30 3011 C 268.084 -5.96792 -1.31464 0
M  V30 3012 C 269.082 -6.78424 -0.789297 0
M  V30 3013 O 268.77 -8.0323 -0.328077 0
M  V30 3014 H 268.502 -0.579873 -0.347453 0
M  V30 3015 H 271.056 -2.00502 -0.445882 0
M  V30 3016 H 269.286 -2.49702 -2.95272 0
M  V30 3017 H 270.975 -2.90034 -2.83963 0
M  V30 3018 H 271.741 -4.71349 -1.14259 0
M  V30 3019 H 267.62 -4.06142 -2.18106 0
M  V30 3020 H 271.164 -6.96868 -0.319542 0
M  V30 3021 H 267.061 -6.30937 -1.36342 0
M  V30 3022 H 267.829 -8.1727 -0.448493 0
M  V30 3023 N 270.492 0.636531 -1.44174 0
M  V30 3024 C 271.739 1.39619 -1.46672 0
M  V30 3025 C 272.067 1.94257 -0.0972691 0
M  V30 3026 O 271.322 1.73768 0.900175 0
M  V30 3027 C 271.621 2.58309 -2.47005 0
M  V30 3028 C 271.287 2.21992 -3.92467 0
M  V30 3029 C 269.949 2.118 -4.32081 0
M  V30 3030 C 272.301 1.9321 -4.84065 0
M  V30 3031 C 269.629 1.71007 -5.61225 0
M  V30 3032 C 271.981 1.53911 -6.13591 0
M  V30 3033 C 270.645 1.42257 -6.52165 0
M  V30 3034 H 269.915 0.510902 -0.536712 0
M  V30 3035 H 272.562 0.722328 -1.77355 0
M  V30 3036 H 270.867 3.30903 -2.09786 0
M  V30 3037 H 272.564 3.16533 -2.46186 0
M  V30 3038 H 269.154 2.30841 -3.61124 0
M  V30 3039 H 273.338 1.99997 -4.54219 0
M  V30 3040 H 268.594 1.60583 -5.89935 0
M  V30 3041 H 272.768 1.30677 -6.8403 0
M  V30 3042 H 270.395 1.10419 -7.52138 0
M  V30 3043 N 271.97 1.30982 0.876444 0
M  V30 3044 C 273.2 1.23063 1.65949 0
M  V30 3045 C 273.608 -0.207537 1.88058 0
M  V30 3046 O 272.951 -1.14781 1.43426 0
M  V30 3047 C 273.013 1.89768 3.05333 0
M  V30 3048 C 272.677 3.39106 3.0636 0
M  V30 3049 C 273.674 4.3496 2.84791 0
M  V30 3050 C 271.359 3.80693 3.27686 0
M  V30 3051 C 273.353 5.70375 2.84519 0
M  V30 3052 C 271.04 5.16223 3.27043 0
M  V30 3053 C 272.038 6.10875 3.05485 0
M  V30 3054 O 271.726 7.43928 3.04674 0
M  V30 3055 H 271.458 0.426685 0.524324 0
M  V30 3056 H 274.012 1.7329 1.10271 0
M  V30 3057 H 272.242 1.34082 3.6271 0
M  V30 3058 H 273.931 1.75853 3.65829 0
M  V30 3059 H 274.697 4.0416 2.68103 0
M  V30 3060 H 270.576 3.07457 3.43499 0
M  V30 3061 H 274.12 6.44228 2.67611 0
M  V30 3062 H 270.017 5.4666 3.43269 0
M  V30 3063 H 270.785 7.53022 3.2078 0
M  V30 3064 N 273.449 -1.08991 1.13837 0
M  V30 3065 C 274.865 -1.33312 0.877506 0
M  V30 3066 C 275.065 -1.95587 -0.48456 0
M  V30 3067 O 274.121 -2.20509 -1.23013 0
M  V30 3068 C 275.434 -2.24045 2.0056 0
M  V30 3069 C 276.982 -2.37542 2.03821 0
M  V30 3070 C 277.457 -3.31614 3.15905 0
M  V30 3071 N 278.948 -3.39189 3.15445 0
M  V30 3072 C 279.683 -4.11992 3.98811 0
M  V30 3073 N 279.179 -4.87553 4.92203 0
M  V30 3074 N 280.972 -4.07762 3.86894 0
M  V30 3075 H 273.123 -0.669456 2.01574 0
M  V30 3076 H 275.386 -0.357482 0.878015 0
M  V30 3077 H 275.092 -1.85521 2.98789 0
M  V30 3078 H 274.966 -3.24466 1.92359 0
M  V30 3079 H 277.353 -2.75327 1.06202 0
M  V30 3080 H 277.434 -1.36884 2.16093 0
M  V30 3081 H 277.078 -2.94551 4.13766 0
M  V30 3082 H 277.008 -4.32186 3.0087 0
M  V30 3083 H 279.499 -2.85314 2.47799 0
M  V30 3084 H 279.812 -5.40549 5.52292 0
M  V30 3085 H 278.157 -4.86627 4.96205 0
M  V30 3086 H 281.348 -3.47833 3.13257 0
M  V30 3087 H 281.521 -4.64238 4.52092 0
M  V30 3088 N 274.927 -0.932562 -1.27047 0
M  V30 3089 C 275.89 -0.440064 -2.24936 0
M  V30 3090 C 276.89 0.444071 -1.54547 0
M  V30 3091 O 278.08 0.244465 -1.72476 0
M  V30 3092 C 275.212 0.36678 -3.38921 0
M  V30 3093 H 276.405 -1.305 -2.70018 0
M  V30 3094 H 273.958 -0.713707 -1.39054 0
M  V30 3095 H 274.693 1.25033 -2.99228 0
M  V30 3096 H 274.478 -0.267204 -3.91188 0
M  V30 3097 H 275.968 0.701567 -4.11665 0
M  V30 3098 N 276.405 1.4127 -0.698611 0
M  V30 3099 C 277.335 2.33447 -0.049629 0
M  V30 3100 C 278.316 1.51982 0.763898 0
M  V30 3101 O 279.501 1.80509 0.716257 0
M  V30 3102 C 276.631 3.35828 0.885267 0
M  V30 3103 C 275.585 4.27627 0.178613 0
M  V30 3104 C 274.911 5.20406 1.22807 0
M  V30 3105 C 276.211 5.13459 -0.956933 0
M  V30 3106 H 277.905 2.87966 -0.81951 0
M  V30 3107 H 275.451 1.38461 -0.395538 0
M  V30 3108 H 277.404 3.9924 1.34854 0
M  V30 3109 H 276.128 2.79666 1.68685 0
M  V30 3110 H 274.787 3.65643 -0.26466 0
M  V30 3111 H 274.435 4.60558 2.02226 0
M  V30 3112 H 274.135 5.82661 0.760239 0
M  V30 3113 H 275.659 5.86695 1.69179 0
M  V30 3114 H 277.073 5.70421 -0.573805 0
M  V30 3115 H 275.47 5.8467 -1.35205 0
M  V30 3116 H 276.54 4.50443 -1.79524 0
M  V30 3117 N 277.883 0.443576 1.51229 0
M  V30 3118 C 278.813 -0.355142 2.30783 0
M  V30 3119 C 279.794 -1.0154 1.36468 0
M  V30 3120 O 280.979 -1.01785 1.65389 0
M  V30 3121 C 278.109 -1.45312 3.15439 0
M  V30 3122 C 277.063 -0.916002 4.18083 0
M  V30 3123 C 276.389 -2.1102 4.91299 0
M  V30 3124 C 277.689 0.0538602 5.22272 0
M  V30 3125 H 279.383 0.308767 2.97804 0
M  V30 3126 H 276.929 0.149937 1.43217 0
M  V30 3127 H 278.882 -2.01914 3.69876 0
M  V30 3128 H 277.606 -2.14541 2.46252 0
M  V30 3129 H 276.265 -0.372145 3.64706 0
M  V30 3130 H 275.913 -2.78882 4.18609 0
M  V30 3131 H 275.613 -1.75717 5.60712 0
M  V30 3132 H 277.137 -2.68164 5.48562 0
M  V30 3133 H 278.551 -0.422069 5.71744 0
M  V30 3134 H 276.948 0.319776 5.99247 0
M  V30 3135 H 278.018 0.98858 4.74716 0
M  V30 3136 N 279.361 -1.56624 0.175154 0
M  V30 3137 C 280.589 -2.01374 -0.474971 0
M  V30 3138 C 281.004 -1.05537 -1.56548 0
M  V30 3139 O 280.361 -0.0568668 -1.82411 0
M  V30 3140 C 280.412 -3.45923 -1.04975 0
M  V30 3141 O 280.133 -4.381 -0.00276605 0
M  V30 3142 C 281.634 -4.06093 -1.77773 0
M  V30 3143 H 278.854 -0.659962 -0.121206 0
M  V30 3144 H 281.398 -2.02601 0.27801 0
M  V30 3145 H 279.553 -3.45458 -1.75321 0
M  V30 3146 H 279.967 -5.22753 -0.427681 0
M  V30 3147 H 281.441 -5.09147 -2.13245 0
M  V30 3148 H 281.918 -3.48405 -2.67414 0
M  V30 3149 H 282.524 -4.10272 -1.12059 0
M  V30 3150 N 280.839 0.0985539 -1.57292 0
M  V30 3151 C 282.064 0.820196 -1.90493 0
M  V30 3152 C 282.489 1.71658 -0.769094 0
M  V30 3153 O 281.847 1.79133 0.279495 0
M  V30 3154 C 281.895 1.61242 -3.22542 0
M  V30 3155 O 280.999 2.72108 -3.09888 0
M  V30 3156 H 280.34 0.225547 -0.62452 0
M  V30 3157 H 282.87 0.0748159 -2.04463 0
M  V30 3158 H 282.88 1.99737 -3.55766 0
M  V30 3159 H 281.555 0.954535 -4.04798 0
M  V30 3160 H 280.132 2.36667 -2.88172 0
M  V30 3161 N 282.317 1.53212 0.369288 0
M  V30 3162 C 283.594 1.59815 1.12776 0
M  V30 3163 C 283.974 0.403402 2.0721 0
M  V30 3164 O 283.322 -0.606667 2.20299 0
M  V30 3165 C 283.532 2.94664 1.87013 0
M  V30 3166 C 284.88 3.49109 2.41677 0
M  V30 3167 O 285.904 2.96669 1.97144 0
M  V30 3168 O 284.763 4.40775 3.23079 0
M  V30 3169 H 281.857 0.645376 0.517125 0
M  V30 3170 H 284.403 1.65553 0.37285 0
M  V30 3171 H 283.175 3.73061 1.18071 0
M  V30 3172 H 282.798 2.92401 2.69421 0
M  V30 3173 N 283.795 -0.628877 1.44509 0
M  V30 3174 C 284.705 -1.7694 1.54044 0
M  V30 3175 C 285.721 -1.68705 0.425987 0
M  V30 3176 O 286.897 -1.89442 0.683656 0
M  V30 3177 C 283.962 -3.13332 1.48405 0
M  V30 3178 C 283.023 -3.33181 2.70719 0
M  V30 3179 C 282.256 -4.63067 2.6534 0
M  V30 3180 O 282.479 -5.44017 1.71469 0
M  V30 3181 O 281.413 -4.85167 3.56226 0
M  V30 3182 H 285.239 -1.71848 2.50403 0
M  V30 3183 H 282.824 -0.790378 1.26781 0
M  V30 3184 H 284.706 -3.94634 1.47791 0
M  V30 3185 H 283.381 -3.1896 0.551898 0
M  V30 3186 H 282.288 -2.51549 2.769 0
M  V30 3187 H 283.621 -3.32416 3.62988 0
M  V30 3188 N 285.273 -1.31445 -0.869486 0
M  V30 3189 C 286.236 -1.19094 -1.9583 0
M  V30 3190 C 287.236 -0.117906 -1.60367 0
M  V30 3191 O 288.426 -0.367208 -1.70286 0
M  V30 3192 C 285.558 -0.828165 -3.30688 0
M  V30 3193 H 286.751 -2.15842 -2.08212 0
M  V30 3194 H 284.304 -1.15063 -1.05784 0
M  V30 3195 H 285.039 0.138142 -3.24006 0
M  V30 3196 H 284.824 -1.6038 -3.578 0
M  V30 3197 H 286.314 -0.765658 -4.10521 0
M  V30 3198 N 286.751 1.08385 -1.14413 0
M  V30 3199 C 287.681 2.17321 -0.854044 0
M  V30 3200 C 288.662 1.69024 0.191049 0
M  V30 3201 O 289.847 1.94141 0.0476779 0
M  V30 3202 C 286.977 3.45719 -0.330983 0
M  V30 3203 C 285.931 4.07409 -1.31155 0
M  V30 3204 C 285.257 5.30762 -0.64778 0
M  V30 3205 C 286.557 4.48665 -2.67388 0
M  V30 3206 H 288.251 2.41845 -1.76498 0
M  V30 3207 H 285.797 1.16233 -0.850051 0
M  V30 3208 H 287.75 4.21241 -0.115645 0
M  V30 3209 H 286.474 3.2075 0.615381 0
M  V30 3210 H 285.133 3.33919 -1.51306 0
M  V30 3211 H 284.781 5.02078 0.304398 0
M  V30 3212 H 284.481 5.72992 -1.30207 0
M  V30 3213 H 286.005 6.08998 -0.441972 0
M  V30 3214 H 287.419 5.15364 -2.51143 0
M  V30 3215 H 285.816 5.01814 -3.29093 0
M  V30 3216 H 286.886 3.60543 -3.24248 0
M  V30 3217 N 288.23 0.939286 1.26551 0
M  V30 3218 C 289.16 0.465044 2.28822 0
M  V30 3219 C 290.141 -0.480692 1.63167 0
M  V30 3220 O 291.326 -0.382955 1.90387 0
M  V30 3221 C 288.456 -0.27234 3.46231 0
M  V30 3222 C 287.41 0.58666 4.2396 0
M  V30 3223 C 286.736 -0.280573 5.33963 0
M  V30 3224 C 288.036 1.85704 4.88171 0
M  V30 3225 H 289.73 1.31979 2.68741 0
M  V30 3226 H 287.276 0.636061 1.29191 0
M  V30 3227 H 289.229 -0.615133 4.16886 0
M  V30 3228 H 287.953 -1.16121 3.0526 0
M  V30 3229 H 286.612 0.91232 3.55067 0
M  V30 3230 H 286.26 -1.16874 4.89234 0
M  V30 3231 H 285.96 0.29076 5.8688 0
M  V30 3232 H 287.484 -0.618678 6.07458 0
M  V30 3233 H 288.898 1.58161 5.51052 0
M  V30 3234 H 287.295 2.37279 5.51197 0
M  V30 3235 H 288.365 2.56957 4.11219 0
M  V30 3236 N 289.708 -1.40897 0.706093 0
M  V30 3237 C 290.933 -2.05895 0.249435 0
M  V30 3238 C 291.358 -1.52823 -1.09666 0
M  V30 3239 O 290.716 -0.659589 -1.68876 0
M  V30 3240 C 290.764 -3.59872 0.22904 0
M  V30 3241 O 289.868 -4.04708 -0.792784 0
M  V30 3242 H 289.209 -0.653206 0.119241 0
M  V30 3243 H 291.739 -1.80471 0.96391 0
M  V30 3244 H 291.749 -4.07951 0.0634791 0
M  V30 3245 H 290.424 -3.97866 1.21141 0
M  V30 3246 H 289.001 -3.68111 -0.59572 0
M  V30 3247 N 291.186 -0.45159 -1.50991 0
M  V30 3248 C 292.433 0.110074 -2.02201 0
M  V30 3249 C 292.761 1.4146 -1.33489 0
M  V30 3250 O 292.016 1.90617 -0.443125 0
M  V30 3251 C 292.315 0.361728 -3.55565 0
M  V30 3252 C 291.981 -0.858717 -4.42648 0
M  V30 3253 C 290.643 -1.19338 -4.66167 0
M  V30 3254 C 292.995 -1.67221 -4.93646 0
M  V30 3255 C 290.323 -2.34195 -5.37931 0
M  V30 3256 C 292.675 -2.8119 -5.6667 0
M  V30 3257 C 291.339 -3.15094 -5.88449 0
M  V30 3258 H 290.609 0.040279 -0.739904 0
M  V30 3259 H 293.256 -0.601696 -1.81802 0
M  V30 3260 H 291.561 1.15554 -3.74372 0
M  V30 3261 H 293.258 0.80996 -3.92735 0
M  V30 3262 H 289.848 -0.58796 -4.24548 0
M  V30 3263 H 294.032 -1.42686 -4.75347 0
M  V30 3264 H 289.288 -2.6076 -5.53005 0
M  V30 3265 H 293.462 -3.44585 -6.05173 0
M  V30 3266 H 291.089 -4.04204 -6.43835 0
M  V30 3267 N 292.664 1.56529 -0.183458 0
M  V30 3268 C 293.627 2.17324 0.728223 0
M  V30 3269 C 294.627 1.12453 1.14939 0
M  V30 3270 O 295.817 1.37902 1.06437 0
M  V30 3271 C 292.949 2.76591 1.99274 0
M  V30 3272 H 294.142 2.99241 0.198772 0
M  V30 3273 H 291.695 1.5616 0.0661391 0
M  V30 3274 H 292.43 1.98441 2.56499 0
M  V30 3275 H 292.215 3.5335 1.69959 0
M  V30 3276 H 293.705 3.23311 2.6431 0
M  V30 3277 N 294.142 -0.090211 1.57342 0
M  V30 3278 C 295.388 -0.793982 1.86611 0
M  V30 3279 C 295.721 -1.78142 0.773252 0
M  V30 3280 O 294.996 -1.93271 -0.218304 0
M  V30 3281 C 295.279 -1.51839 3.26523 0
M  V30 3282 C 295.132 -0.548609 4.46442 0
M  V30 3283 C 296.451 -2.46779 3.64401 0
M  V30 3284 H 293.57 -0.287186 0.678744 0
M  V30 3285 H 296.212 -0.0575076 1.89913 0
M  V30 3286 H 294.362 -2.14617 3.23839 0
M  V30 3287 H 296.034 0.0725513 4.61243 0
M  V30 3288 H 294.277 0.137614 4.33582 0
M  V30 3289 H 294.948 -1.09271 5.41076 0
M  V30 3290 H 297.424 -1.94089 3.68061 0
M  V30 3291 H 296.3 -2.94479 4.63221 0
M  V30 3292 H 296.561 -3.30758 2.93346 0
M  V30 3293 N 295.62 -1.53406 -0.361157 0
M  V30 3294 C 296.567 -1.80156 -1.44265 0
M  V30 3295 C 297.537 -0.646183 -1.53015 0
M  V30 3296 O 298.722 -0.888818 -1.68833 0
M  V30 3297 C 295.862 -2.00116 -2.81154 0
M  V30 3298 C 294.975 -3.27833 -2.81335 0
M  V30 3299 C 294.11 -3.37957 -4.09828 0
M  V30 3300 C 293.149 -4.59689 -4.04168 0
M  V30 3301 N 292.286 -4.66942 -5.24318 0
M  V30 3302 H 297.126 -2.72438 -1.20754 0
M  V30 3303 H 294.663 -1.34954 -0.585296 0
M  V30 3304 H 296.621 -2.09677 -3.60682 0
M  V30 3305 H 295.251 -1.11167 -3.03054 0
M  V30 3306 H 294.303 -3.27204 -1.94014 0
M  V30 3307 H 295.615 -4.17442 -2.73027 0
M  V30 3308 H 294.769 -3.46853 -4.97773 0
M  V30 3309 H 293.508 -2.46372 -4.20894 0
M  V30 3310 H 292.513 -4.50889 -3.14609 0
M  V30 3311 H 293.738 -5.5262 -3.947 0
M  V30 3312 H 291.684 -3.7826 -5.35962 0
M  V30 3313 H 291.601 -5.50462 -5.18197 0
M  V30 3314 H 292.869 -4.80127 -6.14084 0
M  V30 3315 N 297.098 0.621204 -1.44841 0
M  V30 3316 C 298.008 1.7612 -1.5498 0
M  V30 3317 C 299.024 1.68477 -0.434927 0
M  V30 3318 O 300.2 1.89076 -0.693693 0
M  V30 3319 C 297.265 3.1254 -1.50065 0
M  V30 3320 C 296.326 3.31741 -2.72482 0
M  V30 3321 C 295.559 4.61653 -2.67792 0
M  V30 3322 O 295.782 5.431 -1.74352 0
M  V30 3323 O 294.716 4.83271 -3.58794 0
M  V30 3324 H 298.542 1.70518 -2.51311 0
M  V30 3325 H 296.127 0.783643 -1.27198 0
M  V30 3326 H 298.009 3.93844 -1.49882 0
M  V30 3327 H 296.684 3.18663 -0.568806 0
M  V30 3328 H 295.591 2.50077 -2.7823 0
M  V30 3329 H 296.924 3.30486 -3.64746 0
M  V30 3330 N 298.576 1.31904 0.862503 0
M  V30 3331 C 299.506 1.22782 1.98612 0
M  V30 3332 C 300.487 0.113362 1.69722 0
M  V30 3333 O 301.672 0.299218 1.91881 0
M  V30 3334 C 298.802 0.942058 3.34279 0
M  V30 3335 C 297.756 2.0169 3.77499 0
M  V30 3336 C 297.082 1.58369 5.10709 0
M  V30 3337 C 298.382 3.43096 3.93805 0
M  V30 3338 H 300.076 2.16788 2.06502 0
M  V30 3339 H 297.622 1.04366 0.992154 0
M  V30 3340 H 299.575 0.864818 4.1243 0
M  V30 3341 H 298.299 -0.0336603 3.26583 0
M  V30 3342 H 296.958 2.08416 3.01593 0
M  V30 3343 H 296.606 0.595628 4.99461 0
M  V30 3344 H 296.306 2.30279 5.40597 0
M  V30 3345 H 297.83 1.52067 5.91361 0
M  V30 3346 H 299.244 3.39003 4.62331 0
M  V30 3347 H 297.641 4.13288 4.35101 0
M  V30 3348 H 298.711 3.83334 2.96957 0
M  V30 3349 N 300.054 -1.07777 1.14986 0
M  V30 3350 C 301.301 -1.8029 0.922056 0
M  V30 3351 C 301.629 -1.86531 -0.55105 0
M  V30 3352 O 300.884 -1.34189 -1.42449 0
M  V30 3353 C 301.183 -3.25495 1.47608 0
M  V30 3354 C 300.849 -3.39361 2.96893 0
M  V30 3355 C 299.511 -3.42852 3.37647 0
M  V30 3356 C 301.863 -3.42512 3.92854 0
M  V30 3357 C 299.191 -3.47094 4.73015 0
M  V30 3358 C 301.543 -3.4829 5.28088 0
M  V30 3359 C 300.207 -3.50058 5.68345 0
M  V30 3360 H 299.477 -0.659727 0.337404 0
M  V30 3361 H 302.124 -1.26854 1.43459 0
M  V30 3362 H 300.429 -3.81683 0.88463 0
M  V30 3363 H 302.126 -3.80168 1.27568 0
M  V30 3364 H 298.716 -3.37339 2.64387 0
M  V30 3365 H 302.9 -3.3904 3.62444 0
M  V30 3366 H 298.156 -3.46758 5.03556 0
M  V30 3367 H 302.33 -3.49675 6.02246 0
M  V30 3368 H 299.957 -3.53097 6.73221 0
M  V30 3369 N 301.532 -0.945985 -1.26051 0
M  V30 3370 C 302.762 -0.612136 -1.97323 0
M  V30 3371 C 303.17 0.818171 -1.70595 0
M  V30 3372 O 302.513 1.55777 -0.973613 0
M  V30 3373 C 302.575 -0.780347 -3.50929 0
M  V30 3374 C 302.239 -2.18619 -4.01317 0
M  V30 3375 C 303.236 -3.16209 -4.12683 0
M  V30 3376 C 300.921 -2.50805 -4.35203 0
M  V30 3377 C 302.915 -4.44085 -4.57238 0
M  V30 3378 C 300.602 -3.78912 -4.79446 0
M  V30 3379 C 301.6 -4.75365 -4.90425 0
M  V30 3380 O 301.288 -6.01191 -5.3369 0
M  V30 3381 H 301.02 -0.229134 -0.635982 0
M  V30 3382 H 303.574 -1.27036 -1.61404 0
M  V30 3383 H 301.804 -0.0649864 -3.86645 0
M  V30 3384 H 303.493 -0.448842 -4.03411 0
M  V30 3385 H 304.259 -2.92668 -3.86744 0
M  V30 3386 H 300.138 -1.76463 -4.2589 0
M  V30 3387 H 303.682 -5.19373 -4.65723 0
M  V30 3388 H 299.579 -4.02265 -5.0483 0
M  V30 3389 H 300.347 -6.04442 -5.51899 0
M  V30 3390 N 303.011 1.40521 -0.713556 0
M  V30 3391 C 304.422 1.83853 -0.324807 0
M  V30 3392 C 304.773 1.59667 1.14021 0
M  V30 3393 O 303.898 1.07649 1.87725 0
M  V30 3394 C 304.493 3.33751 -0.582746 0
M  V30 3395 C 303.052 3.75584 -0.247727 0
M  V30 3396 C 302.199 2.63753 -0.856121 0
M  V30 3397 H 305.15 1.29817 -0.91286 0
M  V30 3398 H 305.171 3.80194 0.152682 0
M  V30 3399 H 304.683 3.51322 -1.64908 0
M  V30 3400 H 302.784 3.63608 0.813624 0
M  V30 3401 H 302.897 4.7373 -0.715307 0
M  V30 3402 H 301.261 2.53108 -0.28432 0
M  V30 3403 H 302.044 2.84137 -1.92668 0
M  V30 3404 N 304.489 0.459591 1.5075 0
M  V30 3405 C 305.735 -0.0994966 2.02556 0
M  V30 3406 C 306.068 -1.40399 1.3417 0
M  V30 3407 O 305.343 -1.88892 0.463683 0
M  V30 3408 C 305.626 -0.295242 3.58888 0
M  V30 3409 C 305.479 1.02947 4.37861 0
M  V30 3410 C 306.798 -1.05502 4.27267 0
M  V30 3411 H 303.917 -0.034686 0.736183 0
M  V30 3412 H 306.559 0.602938 1.8018 0
M  V30 3413 H 304.709 -0.893563 3.78084 0
M  V30 3414 H 306.381 1.66348 4.30263 0
M  V30 3415 H 304.624 1.62885 4.02058 0
M  V30 3416 H 305.295 0.846281 5.45474 0
M  V30 3417 H 307.771 -0.547993 4.12476 0
M  V30 3418 H 306.647 -1.16077 5.36486 0
M  V30 3419 H 306.908 -2.08875 3.89645 0
M  V30 3420 N 305.967 -1.56429 0.191757 0
M  V30 3421 C 306.899 -2.16154 -0.762245 0
M  V30 3422 C 307.912 -1.12247 -1.17917 0
M  V30 3423 O 309.101 -1.39353 -1.11548 0
M  V30 3424 C 306.201 -2.70606 -2.04024 0
M  V30 3425 C 305.374 -3.99381 -1.78364 0
M  V30 3426 C 304.433 -4.38692 -2.90578 0
M  V30 3427 O 303.459 -5.06179 -2.6033 0
M  V30 3428 N 304.661 -4.01922 -4.18854 0
M  V30 3429 H 307.426 -2.98643 -0.251526 0
M  V30 3430 H 304.987 -1.61897 0.00967373 0
M  V30 3431 H 306.979 -2.93891 -2.78227 0
M  V30 3432 H 305.549 -1.9259 -2.46227 0
M  V30 3433 H 304.769 -3.84262 -0.879581 0
M  V30 3434 H 306.057 -4.83445 -1.58614 0
M  V30 3435 H 305.455 -3.47631 -4.46283 0
M  V30 3436 H 304.012 -4.30165 -4.89695 0
M  V30 3437 N 307.445 0.0818655 -1.57387 0
M  V30 3438 C 308.692 0.782914 -1.86753 0
M  V30 3439 C 309.02 1.78082 -0.782118 0
M  V30 3440 O 308.275 1.94426 0.22295 0
M  V30 3441 C 308.574 1.53513 -3.22752 0
M  V30 3442 C 308.24 0.678134 -4.45771 0
M  V30 3443 C 306.902 0.441929 -4.79166 0
M  V30 3444 C 309.254 0.0832243 -5.21134 0
M  V30 3445 C 306.582 -0.398833 -5.85343 0
M  V30 3446 C 308.934 -0.744935 -6.28199 0
M  V30 3447 C 307.598 -0.991107 -6.60101 0
M  V30 3448 H 306.868 0.286489 -0.683378 0
M  V30 3449 H 309.515 0.0439808 -1.91449 0
M  V30 3450 H 307.82 2.34599 -3.138 0
M  V30 3451 H 309.517 2.08218 -3.42705 0
M  V30 3452 H 306.107 0.872357 -4.19628 0
M  V30 3453 H 310.291 0.252847 -4.95655 0
M  V30 3454 H 305.547 -0.598405 -6.08465 0
M  V30 3455 H 309.721 -1.21271 -6.8576 0
M  V30 3456 H 307.348 -1.64437 -7.42202 0
M  V30 3457 N 308.923 1.53595 0.353017 0
M  V30 3458 C 310.169 1.70638 1.09593 0
M  V30 3459 C 310.502 0.463286 1.88593 0
M  V30 3460 O 309.777 -0.539597 1.86865 0
M  V30 3461 C 310.06 2.96406 2.04489 0
M  V30 3462 C 309.913 4.30901 1.29014 0
M  V30 3463 C 311.232 3.17812 3.0444 0
M  V30 3464 H 308.351 0.620913 0.397034 0
M  V30 3465 H 310.993 1.86254 0.375446 0
M  V30 3466 H 309.143 2.83223 2.65927 0
M  V30 3467 H 310.815 4.55917 0.702638 0
M  V30 3468 H 309.058 4.29741 0.592071 0
M  V30 3469 H 309.729 5.1506 1.98537 0
M  V30 3470 H 312.205 3.30263 2.53112 0
M  V30 3471 H 311.081 4.07223 3.6805 0
M  V30 3472 H 311.342 2.33669 3.75301 0
M  V30 3473 N 310.401 -0.613514 1.45168 0
M  V30 3474 C 311.351 -1.71871 1.49815 0
M  V30 3475 C 312.335 -1.56774 0.362021 0
M  V30 3476 O 313.527 -1.66212 0.608493 0
M  V30 3477 C 310.656 -3.1061 1.46207 0
M  V30 3478 C 309.742 -3.31114 2.64999 0
M  V30 3479 N 310.133 -3.21904 3.90143 0
M  V30 3480 C 308.431 -3.61966 2.6057 0
M  V30 3481 C 309.132 -3.43577 4.69393 0
M  V30 3482 N 308.108 -3.67287 4.00751 0
M  V30 3483 H 311.91 -1.63235 2.444 0
M  V30 3484 H 309.424 -0.816577 1.40377 0
M  V30 3485 H 311.421 -3.8989 1.4762 0
M  V30 3486 H 310.081 -3.20399 0.52673 0
M  V30 3487 H 311.092 -3.00436 4.21852 0
M  V30 3488 H 307.769 -3.78629 1.75916 0
M  V30 3489 H 309.159 -3.41901 5.78406 0
M  V30 3490 N 311.879 -1.3236 -0.855495 0
M  V30 3491 C 313.109 -1.25688 -1.6397 0
M  V30 3492 C 313.517 0.177592 -1.88365 0
M  V30 3493 O 312.86 1.12485 -1.45234 0
M  V30 3494 C 312.922 -1.94602 -3.02275 0
M  V30 3495 C 312.586 -3.43937 -3.00926 0
M  V30 3496 C 313.583 -4.39435 -2.77835 0
M  V30 3497 C 311.268 -3.85858 -3.21588 0
M  V30 3498 C 313.262 -5.74829 -2.75409 0
M  V30 3499 C 310.949 -5.21361 -3.18789 0
M  V30 3500 C 311.947 -6.15658 -2.95727 0
M  V30 3501 O 311.635 -7.48681 -2.928 0
M  V30 3502 H 311.367 -0.434972 -0.51747 0
M  V30 3503 H 313.921 -1.75023 -1.075 0
M  V30 3504 H 312.151 -1.39836 -3.60531 0
M  V30 3505 H 313.84 -1.81651 -3.62985 0
M  V30 3506 H 314.606 -4.08374 -2.6164 0
M  V30 3507 H 310.485 -3.12883 -3.38564 0
M  V30 3508 H 314.029 -6.48404 -2.57328 0
M  V30 3509 H 309.926 -5.52052 -3.34528 0
M  V30 3510 H 310.694 -7.5803 -3.0876 0
M  V30 3511 N 313.357 1.07166 -1.15556 0
M  V30 3512 C 314.267 2.17947 -0.868116 0
M  V30 3513 C 315.283 1.73297 0.156297 0
M  V30 3514 O 316.459 2.01392 -0.0182327 0
M  V30 3515 C 313.524 3.44789 -0.36355 0
M  V30 3516 C 312.585 4.03996 -1.45209 0
M  V30 3517 C 311.818 5.24783 -0.971508 0
M  V30 3518 O 312.041 5.70109 0.182194 0
M  V30 3519 O 310.975 5.75715 -1.75603 0
M  V30 3520 H 314.801 2.4503 -1.79427 0
M  V30 3521 H 312.386 1.16539 -0.934824 0
M  V30 3522 H 314.268 4.21307 -0.0887113 0
M  V30 3523 H 312.943 3.19253 0.534708 0
M  V30 3524 H 311.85 3.29009 -1.78056 0
M  V30 3525 H 313.183 4.33808 -2.32533 0
M  V30 3526 N 314.835 0.952656 1.25548 0
M  V30 3527 C 315.745 0.47782 2.29682 0
M  V30 3528 C 316.761 -0.453859 1.67977 0
M  V30 3529 O 317.937 -0.330587 1.98668 0
M  V30 3530 C 315.002 -0.238655 3.45878 0
M  V30 3531 C 314.063 0.730994 4.23031 0
M  V30 3532 C 313.296 0.0486165 5.33678 0
M  V30 3533 O 313.519 -1.16612 5.58353 0
M  V30 3534 O 312.453 0.733152 5.97418 0
M  V30 3535 H 316.279 1.34312 2.72386 0
M  V30 3536 H 313.864 0.719026 1.30959 0
M  V30 3537 H 315.746 -0.641774 4.16484 0
M  V30 3538 H 314.421 -1.07916 3.05181 0
M  V30 3539 H 313.328 1.18428 3.5486 0
M  V30 3540 H 314.661 1.53946 4.67506 0
M  V30 3541 N 316.313 -1.40141 0.720998 0
M  V30 3542 C 317.561 -2.0039 0.262323 0
M  V30 3543 C 317.882 -1.57469 -1.15015 0
M  V30 3544 O 317.152 -0.816582 -1.78069 0
M  V30 3545 H 315.732 -0.741063 0.093996 0
M  V30 3546 H 318.394 -1.71398 0.927835 0
M  V30 3547 H 317.49 -3.10658 0.299671 0
M  V30 3548 N 317.792 -0.46758 -1.50504 0
M  V30 3549 C 318.722 0.318381 -2.31319 0
M  V30 3550 C 319.703 0.993564 -1.38066 0
M  V30 3551 O 320.888 0.991411 -1.66987 0
M  V30 3552 C 318.018 1.40275 -3.17711 0
M  V30 3553 C 316.972 0.849373 -4.19487 0
M  V30 3554 C 316.298 2.03177 -4.94594 0
M  V30 3555 C 317.598 -0.136942 -5.2212 0
M  V30 3556 H 319.292 -0.356106 -2.97275 0
M  V30 3557 H 316.838 -0.172703 -1.42961 0
M  V30 3558 H 318.791 1.96004 -3.73042 0
M  V30 3559 H 317.515 2.10596 -2.49634 0
M  V30 3560 H 316.174 0.314076 -3.65252 0
M  V30 3561 H 315.822 2.72187 -4.22993 0
M  V30 3562 H 315.522 1.66774 -5.63436 0
M  V30 3563 H 317.046 2.59403 -5.52759 0
M  V30 3564 H 318.46 0.331056 -5.72343 0
M  V30 3565 H 316.857 -0.41507 -5.98663 0
M  V30 3566 H 317.927 -1.06398 -4.73083 0
M  V30 3567 N 319.27 1.56325 -0.20005 0
M  V30 3568 C 320.202 2.16555 0.750771 0
M  V30 3569 C 321.215 1.12871 1.1732 0
M  V30 3570 O 322.404 1.39943 1.10807 0
M  V30 3571 C 319.504 2.71684 2.02586 0
M  V30 3572 C 318.677 4.00321 1.76244 0
M  V30 3573 C 317.736 4.40227 2.88248 0
M  V30 3574 O 316.762 5.07552 2.57642 0
M  V30 3575 N 317.964 4.04138 4.16717 0
M  V30 3576 H 320.729 2.98772 0.235685 0
M  V30 3577 H 318.29 1.6189 -0.0182594 0
M  V30 3578 H 320.282 2.95363 2.76664 0
M  V30 3579 H 318.852 1.93893 2.45202 0
M  V30 3580 H 318.072 3.84723 0.85919 0
M  V30 3581 H 319.36 4.84279 1.56048 0
M  V30 3582 H 318.758 3.49993 4.44434 0
M  V30 3583 H 317.315 4.32756 4.87407 0
M  V30 3584 N 320.748 -0.0735177 1.57428 0
M  V30 3585 C 321.978 -0.78483 1.91112 0
M  V30 3586 C 322.386 -1.71729 0.7941 0
M  V30 3587 O 321.729 -1.82105 -0.241542 0
M  V30 3588 C 321.791 -1.63346 3.20247 0
M  V30 3589 C 321.455 -0.870557 4.48632 0
M  V30 3590 C 322.452 -0.19058 5.19551 0
M  V30 3591 C 320.137 -0.838242 4.95256 0
M  V30 3592 C 322.131 0.511503 6.35344 0
M  V30 3593 C 319.818 -0.132386 6.10957 0
M  V30 3594 C 320.816 0.541288 6.80852 0
M  V30 3595 O 320.504 1.23578 7.94345 0
M  V30 3596 H 320.236 -0.228408 0.636244 0
M  V30 3597 H 322.79 -0.0486039 2.05342 0
M  V30 3598 H 321.02 -2.41245 3.02222 0
M  V30 3599 H 322.709 -2.22329 3.39595 0
M  V30 3600 H 323.475 -0.206864 4.84559 0
M  V30 3601 H 319.354 -1.35206 4.40727 0
M  V30 3602 H 322.898 1.03789 6.89836 0
M  V30 3603 H 318.795 -0.114023 6.45399 0
M  V30 3604 H 319.563 1.14487 8.10454 0
M  V30 3605 N 322.226 -1.5378 -0.344866 0
M  V30 3606 C 323.503 -1.61589 -1.10219 0
M  V30 3607 C 323.883 -0.436316 -2.06542 0
M  V30 3608 O 323.231 0.571543 -2.21237 0
M  V30 3609 C 323.441 -2.97602 -1.82301 0
M  V30 3610 C 324.789 -3.5291 -2.36093 0
M  V30 3611 O 325.813 -2.99768 -1.924 0
M  V30 3612 O 324.672 -4.45859 -3.16026 0
M  V30 3613 H 321.766 -0.653522 -0.506792 0
M  V30 3614 H 324.312 -1.66126 -0.346465 0
M  V30 3615 H 323.084 -3.74893 -1.12121 0
M  V30 3616 H 322.707 -2.9665 -2.64735 0
M  V30 3617 N 323.704 0.605807 -1.45491 0
M  V30 3618 C 324.934 1.38934 -1.52908 0
M  V30 3619 C 325.342 1.88513 -0.161086 0
M  V30 3620 O 324.685 1.62962 0.847891 0
M  V30 3621 C 324.747 2.62737 -2.45376 0
M  V30 3622 C 324.411 2.34785 -3.92078 0
M  V30 3623 C 325.408 1.95038 -4.8193 0
M  V30 3624 C 323.093 2.47642 -4.37011 0
M  V30 3625 C 325.087 1.68511 -6.14722 0
M  V30 3626 C 322.774 2.20728 -5.69844 0
M  V30 3627 C 323.772 1.81225 -6.58519 0
M  V30 3628 O 323.46 1.54627 -7.88889 0
M  V30 3629 H 323.192 0.431629 -0.520262 0
M  V30 3630 H 325.746 0.74573 -1.91384 0
M  V30 3631 H 323.976 3.29824 -2.01874 0
M  V30 3632 H 325.665 3.24783 -2.43456 0
M  V30 3633 H 326.431 1.84639 -4.48479 0
M  V30 3634 H 322.31 2.77356 -3.68232 0
M  V30 3635 H 325.854 1.37602 -6.83894 0
M  V30 3636 H 321.751 2.30744 -6.02849 0
M  V30 3637 H 322.519 1.68665 -8.00933 0
M  V30 3638 N 325.182 1.32811 0.848464 0
M  V30 3639 C 326.407 1.26882 1.6406 0
M  V30 3640 C 326.832 -0.15913 1.87426 0
M  V30 3641 O 326.19 -1.11258 1.43148 0
M  V30 3642 C 326.238 2.03997 2.97351 0
M  V30 3643 O 325.342 1.39201 3.88197 0
M  V30 3644 H 324.683 0.436982 0.499943 0
M  V30 3645 H 327.213 1.75224 1.0563 0
M  V30 3646 H 327.223 2.14403 3.47124 0
M  V30 3647 H 325.898 3.0783 2.79666 0
M  V30 3648 H 324.475 1.37381 3.46671 0
M  V30 3649 N 326.66 -1.06551 1.16123 0
M  V30 3650 C 327.89 -1.8274 0.963838 0
M  V30 3651 C 328.298 -1.82712 -0.491228 0
M  V30 3652 O 327.641 -1.24294 -1.35265 0
M  V30 3653 C 327.703 -3.3065 1.41106 0
M  V30 3654 C 327.367 -3.54384 2.88549 0
M  V30 3655 C 328.364 -3.4765 3.86569 0
M  V30 3656 C 326.049 -3.81789 3.26408 0
M  V30 3657 C 328.043 -3.67982 5.2045 0
M  V30 3658 C 325.73 -4.01772 4.60459 0
M  V30 3659 C 326.728 -3.94866 5.57288 0
M  V30 3660 O 326.416 -4.14306 6.88916 0
M  V30 3661 H 326.148 -0.583136 0.341948 0
M  V30 3662 H 328.702 -1.35351 1.54497 0
M  V30 3663 H 326.932 -3.78887 0.773394 0
M  V30 3664 H 328.621 -3.88324 1.1815 0
M  V30 3665 H 329.387 -3.2647 3.58667 0
M  V30 3666 H 325.266 -3.86276 2.51619 0
M  V30 3667 H 328.81 -3.62507 5.96015 0
M  V30 3668 H 324.707 -4.2244 4.88072 0
M  V30 3669 H 325.475 -4.31609 6.95454 0
M  V30 3670 N 328.138 -0.959301 -1.25041 0
M  V30 3671 C 329.068 -0.501388 -2.28053 0
M  V30 3672 C 330.049 0.454673 -1.63911 0
M  V30 3673 O 331.234 0.352618 -1.90972 0
M  V30 3674 C 328.364 0.217224 -3.4662 0
M  V30 3675 C 327.318 -0.654034 -4.22973 0
M  V30 3676 C 326.644 0.195589 -5.34342 0
M  V30 3677 C 327.944 -1.93447 -4.85155 0
M  V30 3678 H 329.638 -1.36238 -2.66608 0
M  V30 3679 H 327.184 -0.656534 -1.28163 0
M  V30 3680 H 329.137 0.548732 -4.17812 0
M  V30 3681 H 327.861 1.1125 -3.07068 0
M  V30 3682 H 326.52 -0.968693 -3.5357 0
M  V30 3683 H 326.168 1.09076 -4.91031 0
M  V30 3684 H 325.868 -0.384091 -5.86343 0
M  V30 3685 H 327.392 0.521958 -6.08365 0
M  V30 3686 H 328.806 -1.66908 -5.48466 0
M  V30 3687 H 327.203 -2.46018 -5.47353 0
M  V30 3688 H 328.273 -2.63466 -4.07079 0
M  V30 3689 N 329.616 1.39756 -0.72842 0
M  V30 3690 C 330.548 2.29157 -0.0446202 0
M  V30 3691 C 331.561 1.46484 0.710367 0
M  V30 3692 O 332.75 1.69632 0.55562 0
M  V30 3693 C 329.85 3.24987 0.961071 0
M  V30 3694 C 329.023 4.36572 0.268967 0
M  V30 3695 C 328.082 5.12756 1.18184 0
M  V30 3696 O 327.108 5.6534 0.661794 0
M  V30 3697 N 328.31 5.23331 2.51206 0
M  V30 3698 H 331.075 2.88482 -0.812295 0
M  V30 3699 H 328.636 1.51265 -0.577098 0
M  V30 3700 H 330.628 3.72827 1.57423 0
M  V30 3701 H 329.198 2.66739 1.63 0
M  V30 3702 H 328.418 3.90694 -0.524574 0
M  V30 3703 H 329.706 5.08363 -0.210934 0
M  V30 3704 H 329.104 4.82116 2.9594 0
M  V30 3705 H 327.661 5.74634 3.07634 0
M  V30 3706 N 331.094 0.475555 1.50254 0
M  V30 3707 C 332.044 -0.335025 2.25525 0
M  V30 3708 C 333.028 -0.957625 1.29299 0
M  V30 3709 O 334.22 -0.869436 1.54175 0
M  V30 3710 C 331.349 -1.41385 3.12834 0
M  V30 3711 C 330.435 -0.798762 4.1651 0
M  V30 3712 N 330.826 0.0835815 5.05731 0
M  V30 3713 C 329.124 -1.06221 4.33166 0
M  V30 3714 C 329.825 0.433113 5.80085 0
M  V30 3715 N 328.801 -0.1928 5.43258 0
M  V30 3716 H 332.603 0.344612 2.91873 0
M  V30 3717 H 330.117 0.289986 1.5979 0
M  V30 3718 H 332.114 -2.00777 3.65368 0
M  V30 3719 H 330.774 -2.09543 2.48036 0
M  V30 3720 H 331.785 0.452715 5.15918 0
M  V30 3721 H 328.462 -1.73844 3.79585 0
M  V30 3722 H 329.852 1.15346 6.61925 0
M  V30 3723 N 332.573 -1.56217 0.208337 0
M  V30 3724 C 333.821 -1.97558 -0.426076 0
M  V30 3725 C 334.142 -1.09683 -1.61229 0
M  V30 3726 O 333.412 -0.170956 -1.95153 0
M  V30 3727 H 331.992 -0.729575 -0.160405 0
M  V30 3728 H 334.654 -1.92606 0.298155 0
M  V30 3729 H 333.75 -3.02672 -0.761312 0
M  V30 3730 N 334.051 0.0651679 -1.57465 0
M  V30 3731 C 335.462 0.616213 -1.76238 0
M  V30 3732 C 335.813 1.7756 -0.834689 0
M  V30 3733 O 334.938 2.1639 -0.0204156 0
M  V30 3734 C 335.533 1.12462 -3.1959 0
M  V30 3735 C 334.092 1.62147 -3.39684 0
M  V30 3736 C 333.239 0.543739 -2.71917 0
M  V30 3737 H 336.19 -0.161022 -1.57881 0
M  V30 3738 H 336.211 1.99324 -3.24114 0
M  V30 3739 H 335.723 0.280592 -3.87084 0
M  V30 3740 H 333.824 2.48854 -2.77313 0
M  V30 3741 H 333.937 1.69385 -4.48158 0
M  V30 3742 H 332.301 0.990352 -2.34657 0
M  V30 3743 H 333.084 -0.290216 -3.42071 0
M  V30 3744 N 335.529 1.53961 0.336706 0
M  V30 3745 C 336.461 1.78751 1.4346 0
M  V30 3746 C 337.474 0.669019 1.48418 0
M  V30 3747 O 338.663 0.945884 1.51378 0
M  V30 3748 C 335.763 1.87844 2.82078 0
M  V30 3749 C 334.936 3.17854 3.00479 0
M  V30 3750 C 333.995 3.17816 4.19379 0
M  V30 3751 O 333.021 3.91511 4.13168 0
M  V30 3752 N 334.223 2.40669 5.2826 0
M  V30 3753 H 336.988 2.73493 1.22563 0
M  V30 3754 H 334.549 1.53096 0.526625 0
M  V30 3755 H 336.541 1.85261 3.59806 0
M  V30 3756 H 335.111 1.00257 2.96086 0
M  V30 3757 H 334.331 3.33504 2.10163 0
M  V30 3758 H 335.619 4.03718 3.0966 0
M  V30 3759 H 335.017 1.8036 5.36178 0
M  V30 3760 H 333.574 2.43877 6.04456 0
M  V30 3761 N 337.007 -0.598083 1.45811 0
M  V30 3762 C 337.937 -1.71873 1.58057 0
M  V30 3763 C 338.918 -1.64533 0.431615 0
M  V30 3764 O 340.103 -1.82787 0.65595 0
M  V30 3765 C 337.233 -3.10495 1.55597 0
M  V30 3766 C 336.187 -3.32654 2.69305 0
M  V30 3767 C 335.513 -4.71646 2.51902 0
M  V30 3768 C 336.813 -3.21981 4.11248 0
M  V30 3769 H 338.507 -1.61881 2.51863 0
M  V30 3770 H 336.053 -0.777372 1.21214 0
M  V30 3771 H 338.006 -3.88699 1.6276 0
M  V30 3772 H 336.73 -3.2135 0.583255 0
M  V30 3773 H 335.389 -2.56843 2.61586 0
M  V30 3774 H 335.037 -4.79246 1.52748 0
M  V30 3775 H 334.737 -4.87426 3.2816 0
M  V30 3776 H 336.261 -5.52038 2.60933 0
M  V30 3777 H 337.675 -3.90049 4.20161 0
M  V30 3778 H 336.072 -3.49289 4.87972 0
M  V30 3779 H 337.142 -2.1928 4.32486 0
M  V30 3780 N 338.485 -1.33259 -0.841409 0
M  V30 3781 C 339.417 -1.19136 -1.95804 0
M  V30 3782 C 340.43 -0.122965 -1.62335 0
M  V30 3783 O 341.619 -0.373154 -1.74556 0
M  V30 3784 C 338.719 -0.804268 -3.29218 0
M  V30 3785 C 337.892 -1.96376 -3.90839 0
M  V30 3786 C 336.951 -1.55806 -5.02604 0
M  V30 3787 O 335.977 -2.27203 -5.21888 0
M  V30 3788 N 337.179 -0.461609 -5.78662 0
M  V30 3789 H 339.944 -2.15326 -2.08458 0
M  V30 3790 H 337.505 -1.25971 -1.017 0
M  V30 3791 H 339.497 -0.51501 -4.0141 0
M  V30 3792 H 338.067 0.0668809 -3.12528 0
M  V30 3793 H 337.287 -2.41879 -3.11269 0
M  V30 3794 H 338.575 -2.73966 -4.28742 0
M  V30 3795 H 337.973 0.132343 -5.65545 0
M  V30 3796 H 336.53 -0.232013 -6.51387 0
M  V30 3797 N 339.963 1.05934 -1.16686 0
M  V30 3798 C 341.212 1.78188 -0.945085 0
M  V30 3799 C 341.525 1.88338 0.528021 0
M  V30 3800 O 342.731 2.57258 0.867799 0
M  V30 3801 C 341.187 3.20277 -1.64167 0
M  V30 3802 C 340.795 3.18281 -3.15279 0
M  V30 3803 C 342.539 3.97039 -1.502 0
M  V30 3804 C 340.446 4.55112 -3.7766 0
M  V30 3805 H 339.376 0.667866 -0.349959 0
M  V30 3806 H 342.027 1.18794 -1.39858 0
M  V30 3807 H 340.409 3.79952 -1.11589 0
M  V30 3808 H 341.583 2.68167 -3.74731 0
M  V30 3809 H 339.898 2.55018 -3.29173 0
M  V30 3810 H 342.495 4.98194 -1.94183 0
M  V30 3811 H 342.838 4.13845 -0.451461 0
M  V30 3812 H 343.371 3.43894 -1.99954 0
M  V30 3813 H 340.11 4.43512 -4.82677 0
M  V30 3814 H 339.63 5.05406 -3.22994 0
M  V30 3815 H 341.309 5.24064 -3.79428 0
M  V30 3816 N 341.441 0.965919 1.2453 0
M  V30 3817 C 342.666 0.643971 1.97149 0
M  V30 3818 C 343.091 -0.779487 1.71189 0
M  V30 3819 O 342.449 -1.5288 0.974553 0
M  V30 3820 C 342.497 0.922557 3.48599 0
M  V30 3821 O 341.601 0.00707672 4.12399 0
M  V30 3822 H 340.942 0.243647 0.617683 0
M  V30 3823 H 343.472 1.29558 1.58353 0
M  V30 3824 H 343.482 0.853373 3.98976 0
M  V30 3825 H 342.157 1.95996 3.66822 0
M  V30 3826 H 340.734 0.12943 3.72675 0
M  V30 3827 N 342.919 -1.39368 0.735821 0
M  V30 3828 C 344.144 -2.05319 0.293052 0
M  V30 3829 C 344.569 -1.55115 -1.064 0
M  V30 3830 O 343.927 -0.695261 -1.67439 0
M  V30 3831 C 343.975 -3.59305 0.305323 0
M  V30 3832 O 343.079 -4.06299 -0.706761 0
M  V30 3833 H 342.42 -0.650529 0.13307 0
M  V30 3834 H 344.95 -1.78386 1.00197 0
M  V30 3835 H 344.96 -4.07724 0.149997 0
M  V30 3836 H 343.635 -3.95207 1.29553 0
M  V30 3837 H 342.212 -3.69292 -0.517504 0
M  V30 3838 N 344.397 -0.483516 -1.5 0
M  V30 3839 C 345.627 0.0643896 -2.065 0
M  V30 3840 C 346.035 1.32949 -1.34615 0
M  V30 3841 O 345.378 1.79003 -0.412756 0
M  V30 3842 C 345.44 0.405983 -3.572 0
M  V30 3843 C 345.104 -0.758875 -4.50655 0
M  V30 3844 C 346.101 -1.64445 -4.93208 0
M  V30 3845 C 343.786 -0.952725 -4.93182 0
M  V30 3846 C 345.78 -2.70818 -5.77006 0
M  V30 3847 C 343.467 -2.01966 -5.76761 0
M  V30 3848 C 344.465 -2.89574 -6.18576 0
M  V30 3849 O 344.153 -3.94429 -7.00486 0
M  V30 3850 H 343.885 -0.00934786 -0.675935 0
M  V30 3851 H 346.439 -0.674959 -1.93993 0
M  V30 3852 H 344.669 1.19869 -3.67652 0
M  V30 3853 H 346.358 0.890433 -3.96013 0
M  V30 3854 H 347.124 -1.50643 -4.61012 0
M  V30 3855 H 343.003 -0.280247 -4.60147 0
M  V30 3856 H 346.547 -3.3923 -6.09565 0
M  V30 3857 H 342.444 -2.1577 -6.0837 0
M  V30 3858 H 343.212 -3.91568 -7.1876 0
M  V30 3859 N 345.875 1.56104 -0.216619 0
M  V30 3860 C 347.123 1.97781 0.415593 0
M  V30 3861 C 347.444 1.10536 1.60645 0
M  V30 3862 O 346.714 0.181303 1.95059 0
M  V30 3863 H 345.294 0.730415 0.156534 0
M  V30 3864 H 347.956 1.92445 -0.308366 0
M  V30 3865 H 347.052 3.03072 0.74525 0
M  V30 3866 N 347.353 -0.0568162 1.57498 0
M  V30 3867 C 348.316 -1.05038 2.03715 0
M  V30 3868 C 349.316 -1.30709 0.936577 0
M  V30 3869 O 350.506 -1.26178 1.20103 0
M  V30 3870 C 347.638 -2.39034 2.43055 0
M  V30 3871 H 348.831 -0.651715 2.92733 0
M  V30 3872 H 346.384 -0.302947 1.53336 0
M  V30 3873 H 347.119 -2.83703 1.57108 0
M  V30 3874 H 346.904 -2.21739 3.2338 0
M  V30 3875 H 348.394 -3.10421 2.79336 0
M  V30 3876 N 348.832 -1.54138 -0.328536 0
M  V30 3877 C 350.078 -1.7236 -1.06865 0
M  V30 3878 C 350.411 -0.493231 -1.87832 0
M  V30 3879 O 349.686 0.5098 -1.877 0
M  V30 3880 C 349.969 -2.99621 -1.99747 0
M  V30 3881 C 349.822 -4.32899 -1.22143 0
M  V30 3882 C 351.141 -3.22615 -2.99345 0
M  V30 3883 H 348.26 -0.627151 -0.387105 0
M  V30 3884 H 350.902 -1.86827 -0.345767 0
M  V30 3885 H 349.052 -2.87418 -2.61387 0
M  V30 3886 H 350.724 -4.56978 -0.630017 0
M  V30 3887 H 348.967 -4.30628 -0.523628 0
M  V30 3888 H 349.638 -5.18154 -1.90318 0
M  V30 3889 H 352.114 -3.34248 -2.47826 0
M  V30 3890 H 350.99 -4.13027 -3.61524 0
M  V30 3891 H 351.251 -2.3961 -3.71536 0
M  V30 3892 N 350.31 0.590341 -1.46126 0
M  V30 3893 C 351.557 1.34882 -1.5104 0
M  V30 3894 C 351.885 1.93849 -0.159021 0
M  V30 3895 O 351.14 1.76544 0.844436 0
M  V30 3896 C 351.439 2.5032 -2.55097 0
M  V30 3897 C 351.105 2.09394 -3.99331 0
M  V30 3898 C 349.767 1.97947 -4.38601 0
M  V30 3899 C 352.119 1.77712 -4.89967 0
M  V30 3900 C 349.447 1.53065 -5.66381 0
M  V30 3901 C 351.799 1.34312 -6.18177 0
M  V30 3902 C 350.463 1.21436 -6.56361 0
M  V30 3903 H 349.733 0.493568 -0.552695 0
M  V30 3904 H 352.38 0.665539 -1.79563 0
M  V30 3905 H 350.685 3.24062 -2.20207 0
M  V30 3906 H 352.382 3.08541 -2.56132 0
M  V30 3907 H 348.972 2.19235 -3.68285 0
M  V30 3908 H 353.156 1.85445 -4.60352 0
M  V30 3909 H 348.412 1.41733 -5.94745 0
M  V30 3910 H 352.586 1.08849 -6.87841 0
M  V30 3911 H 350.213 0.864345 -7.5527 0
M  V30 3912 N 351.788 1.33704 0.83433 0
M  V30 3913 C 353.037 1.24763 1.58484 0
M  V30 3914 C 353.35 -0.183775 1.94735 0
M  V30 3915 O 354.556 -0.395234 2.68608 0
M  V30 3916 C 353.012 2.18638 2.85876 0
M  V30 3917 C 352.62 3.66974 2.56971 0
M  V30 3918 C 354.364 2.18581 3.63899 0
M  V30 3919 C 352.271 4.5275 3.80488 0
M  V30 3920 H 351.201 0.463425 0.594772 0
M  V30 3921 H 353.852 1.58797 0.919551 0
M  V30 3922 H 352.234 1.77542 3.5397 0
M  V30 3923 H 353.408 4.16538 1.9706 0
M  V30 3924 H 351.723 3.69366 1.92244 0
M  V30 3925 H 354.32 2.79894 4.55591 0
M  V30 3926 H 354.663 1.18207 3.99165 0
M  V30 3927 H 355.196 2.58062 3.02735 0
M  V30 3928 H 351.935 5.54017 3.5035 0
M  V30 3929 H 351.455 4.07927 4.39722 0
M  V30 3930 H 353.134 4.66784 4.4802 0
M  V30 3931 N 353.266 -1.05314 1.17247 0
M  V30 3932 C 354.494 -1.81971 0.984593 0
M  V30 3933 C 354.909 -1.82929 -0.467166 0
M  V30 3934 O 354.266 -1.25564 -1.32438 0
M  V30 3935 C 354.317 -3.28143 1.51672 0
M  V30 3936 O 354.038 -3.27347 2.91163 0
M  V30 3937 C 355.539 -4.21493 1.37326 0
M  V30 3938 H 352.759 -0.573455 0.348411 0
M  V30 3939 H 355.303 -1.32808 1.55506 0
M  V30 3940 H 353.458 -3.74582 0.988302 0
M  V30 3941 H 353.872 -4.18824 3.15732 0
M  V30 3942 H 355.346 -5.22043 1.79375 0
M  V30 3943 H 355.823 -4.38031 0.320169 0
M  V30 3944 H 356.429 -3.80909 1.89178 0
M  V30 3945 N 354.744 -0.972509 -1.24016 0
M  V30 3946 C 355.992 -0.635776 -1.91839 0
M  V30 3947 C 356.313 0.832312 -1.76345 0
M  V30 3948 O 355.583 1.5946 -1.13795 0
M  V30 3949 H 354.163 -0.232157 -0.710009 0
M  V30 3950 H 356.825 -1.23462 -1.50809 0
M  V30 3951 H 355.921 -0.880545 -2.99421 0
M  V30 3952 N 356.222 1.38976 -0.743202 0
M  V30 3953 C 357.468 2.0064 -0.295189 0
M  V30 3954 C 357.801 1.5885 1.11716 0
M  V30 3955 O 357.076 0.821181 1.76315 0
M  V30 3956 C 357.359 3.578 -0.406318 0
M  V30 3957 C 357.212 4.09586 -1.85903 0
M  V30 3958 C 358.531 4.39616 0.206439 0
M  V30 3959 H 355.65 0.728935 -0.108733 0
M  V30 3960 H 358.292 1.65067 -0.940897 0
M  V30 3961 H 356.442 3.88235 0.143419 0
M  V30 3962 H 358.114 3.89837 -2.46627 0
M  V30 3963 H 356.357 3.6284 -2.3776 0
M  V30 3964 H 357.028 5.18708 -1.888 0
M  V30 3965 H 359.504 4.15273 -0.262283 0
M  V30 3966 H 358.38 5.48812 0.0983819 0
M  V30 3967 H 358.641 4.22754 1.2935 0
M  V30 3968 N 357.7 0.491464 1.49741 0
M  V30 3969 C 358.63 -0.28154 2.31796 0
M  V30 3970 C 359.611 -0.971473 1.3963 0
M  V30 3971 O 360.796 -0.964719 1.68543 0
M  V30 3972 C 357.926 -1.35203 3.19902 0
M  V30 3973 C 356.88 -0.782529 4.20786 0
M  V30 3974 C 356.206 -1.95283 4.97764 0
M  V30 3975 C 357.506 0.21999 5.21837 0
M  V30 3976 H 359.2 0.403355 2.96671 0
M  V30 3977 H 356.746 0.195425 1.42668 0
M  V30 3978 H 358.699 -1.90045 3.76113 0
M  V30 3979 H 357.423 -2.06598 2.52953 0
M  V30 3980 H 356.082 -0.255928 3.65706 0
M  V30 3981 H 355.73 -2.65423 4.2727 0
M  V30 3982 H 355.43 -1.57789 5.66018 0
M  V30 3983 H 356.954 -2.50577 5.56816 0
M  V30 3984 H 358.368 -0.23996 5.72798 0
M  V30 3985 H 356.765 0.51026 5.97927 0
M  V30 3986 H 357.835 1.13911 4.7133 0
M  V30 3987 N 359.178 -1.55987 0.224894 0
M  V30 3988 C 360.125 -2.20436 -0.68385 0
M  V30 3989 C 361.095 -1.16102 -1.18783 0
M  V30 3990 O 362.28 -1.4447 -1.24632 0
M  V30 3991 C 359.42 -2.89076 -1.88491 0
M  V30 3992 C 358.533 -4.08012 -1.41951 0
M  V30 3993 C 357.668 -4.64426 -2.5784 0
M  V30 3994 C 356.707 -5.75656 -2.08053 0
M  V30 3995 N 355.844 -6.26347 -3.17227 0
M  V30 3996 H 360.684 -2.97727 -0.12754 0
M  V30 3997 H 358.221 -1.47011 -0.0511978 0
M  V30 3998 H 360.179 -3.27059 -2.59014 0
M  V30 3999 H 358.809 -2.14298 -2.41405 0
M  V30 4000 H 357.861 -3.75492 -0.609095 0
M  V30 4001 H 359.173 -4.88375 -1.01447 0
M  V30 4002 H 358.327 -5.04869 -3.3644 0
M  V30 4003 H 357.066 -3.83233 -3.01635 0
M  V30 4004 H 356.071 -5.34712 -1.27916 0
M  V30 4005 H 357.296 -6.58686 -1.65255 0
M  V30 4006 H 355.242 -5.48067 -3.60497 0
M  V30 4007 H 355.159 -7.01843 -2.80986 0
M  V30 4008 H 356.427 -6.71447 -3.95953 0
M  V30 4009 N 360.656 0.0484629 -1.57525 0
M  V30 4010 C 361.586 1.0549 -2.08313 0
M  V30 4011 C 362.567 1.38929 -0.981463 0
M  V30 4012 O 363.752 1.48151 -1.25558 0
M  V30 4013 C 360.882 2.36162 -2.54646 0
M  V30 4014 C 359.836 2.17016 -3.68901 0
M  V30 4015 C 359.162 3.53278 -4.01371 0
M  V30 4016 C 360.462 1.57219 -4.98076 0
M  V30 4017 H 362.156 0.632195 -2.92649 0
M  V30 4018 H 359.702 0.302654 -1.40784 0
M  V30 4019 H 361.655 3.06882 -2.88793 0
M  V30 4020 H 360.379 2.80456 -1.67368 0
M  V30 4021 H 359.038 1.48733 -3.35073 0
M  V30 4022 H 358.686 3.95185 -3.11188 0
M  V30 4023 H 358.386 3.41299 -4.78318 0
M  V30 4024 H 359.91 4.25391 -4.38035 0
M  V30 4025 H 361.324 2.17832 -5.30304 0
M  V30 4026 H 359.721 1.55871 -5.79503 0
M  V30 4027 H 360.791 0.535956 -4.81929 0
M  V30 4028 N 362.134 1.5431 0.320358 0
M  V30 4029 C 363.097 1.83195 1.3774 0
M  V30 4030 C 364.097 0.703906 1.44575 0
M  V30 4031 O 365.287 0.972214 1.44546 0
M  V30 4032 C 362.419 1.99487 2.76438 0
M  V30 4033 H 363.612 2.77642 1.1338 0
M  V30 4034 H 361.165 1.46076 0.556012 0
M  V30 4035 H 361.9 1.07262 3.06048 0
M  V30 4036 H 361.685 2.81575 2.7287 0
M  V30 4037 H 363.175 2.23271 3.52902 0
M  V30 4038 N 363.613 -0.582584 1.46437 0
M  V30 4039 C 364.561 -1.71272 1.5738 0
M  V30 4040 C 365.555 -1.63524 0.44229 0
M  V30 4041 O 366.761 -1.69016 0.619166 0
M  V30 4042 H 363.136 -0.566273 0.494813 0
M  V30 4043 H 365.107 -1.59174 2.52401 0
M  V30 4044 C 363.856 -3.09658 1.58136 0
M  V30 4045 H 363.179 -3.16291 2.44541 0
M  V30 4046 H 364.619 -3.88494 1.69847 0
M  V30 4047 C 363.078 -3.3547 0.310026 0
M  V30 4048 O 363.608 -3.97199 -0.599683 0
M  V30 4049 N 361.814 -2.89925 0.197901 0
M  V30 4050 H 361.361 -2.39873 0.93909 0
M  V30 4051 H 361.319 -3.07568 -0.65185 0
M  V30 4052 N 365.091 -1.34144 -0.827227 0
M  V30 4053 C 366.321 -1.29138 -1.61267 0
M  V30 4054 C 366.729 0.137597 -1.88699 0
M  V30 4055 O 366.072 1.09379 -1.47587 0
M  V30 4056 C 366.134 -2.0097 -2.9808 0
M  V30 4057 C 365.798 -3.50242 -2.93563 0
M  V30 4058 C 366.795 -4.4523 -2.68452 0
M  V30 4059 C 364.48 -3.92592 -3.13331 0
M  V30 4060 C 366.474 -5.80542 -2.63154 0
M  V30 4061 C 364.161 -5.28005 -3.07658 0
M  V30 4062 C 365.159 -6.21792 -2.82602 0
M  V30 4063 O 364.847 -7.54723 -2.76853 0
M  V30 4064 H 364.579 -0.445851 -0.508127 0
M  V30 4065 H 367.133 -1.77263 -1.03763 0
M  V30 4066 H 365.363 -1.47451 -3.57484 0
M  V30 4067 H 367.052 -1.89309 -3.5905 0
M  V30 4068 H 367.818 -4.13832 -2.52919 0
M  V30 4069 H 363.697 -3.19994 -3.31851 0
M  V30 4070 H 367.241 -6.53717 -2.43516 0
M  V30 4071 H 363.138 -5.59023 -3.22743 0
M  V30 4072 H 363.906 -7.64409 -2.92611 0
M  V30 4073 N 366.569 1.04691 -1.17803 0
M  V30 4074 C 367.815 1.78045 -0.970969 0
M  V30 4075 C 368.148 1.87686 0.498751 0
M  V30 4076 O 367.423 1.38035 1.37027 0
M  V30 4077 C 367.706 3.2166 -1.61884 0
M  V30 4078 C 367.559 3.20001 -3.161 0
M  V30 4079 C 368.878 4.1962 -1.3269 0
M  V30 4080 H 365.997 0.64633 -0.354155 0
M  V30 4081 H 368.639 1.22333 -1.45378 0
M  V30 4082 H 366.789 3.69232 -1.20831 0
M  V30 4083 H 368.461 2.80467 -3.66246 0
M  V30 4084 H 366.704 2.58203 -3.48588 0
M  V30 4085 H 367.375 4.21386 -3.56564 0
M  V30 4086 H 369.851 3.80567 -1.68249 0
M  V30 4087 H 368.727 5.18339 -1.80599 0
M  V30 4088 H 368.988 4.414 -0.248622 0
M  V30 4089 N 368.047 0.979072 1.23499 0
M  V30 4090 C 369.463 0.687475 1.44034 0
M  V30 4091 C 369.663 -0.746801 1.8715 0
M  V30 4092 O 368.719 -1.51939 2.0167 0
M  V30 4093 C 370.032 1.68127 2.49307 0
M  V30 4094 C 371.58 1.69516 2.63122 0
M  V30 4095 C 372.055 2.67723 3.71603 0
M  V30 4096 N 373.546 2.66233 3.79044 0
M  V30 4097 C 374.281 3.38891 4.62537 0
M  V30 4098 N 373.777 4.21103 5.50131 0
M  V30 4099 N 375.57 3.27661 4.56721 0
M  V30 4100 H 367.721 1.90559 0.938135 0
M  V30 4101 H 369.984 0.821051 0.473897 0
M  V30 4102 H 369.69 2.70693 2.2454 0
M  V30 4103 H 369.564 1.46306 3.4767 0
M  V30 4104 H 371.951 0.676561 2.8724 0
M  V30 4105 H 372.032 1.95404 1.65079 0
M  V30 4106 H 371.676 3.69724 3.48233 0
M  V30 4107 H 371.606 2.39111 4.69184 0
M  V30 4108 H 374.097 2.06568 3.16446 0
M  V30 4109 H 374.41 4.73403 6.10827 0
M  V30 4110 H 372.755 4.25195 5.49759 0
M  V30 4111 H 375.946 2.62887 3.87309 0
M  V30 4112 H 376.119 3.84547 5.21562 0
M  V30 4113 N 369.525 -1.3858 0.750561 0
M  V30 4114 C 370.802 -1.94231 0.231009 0
M  V30 4115 C 371.182 -1.68611 -1.27018 0
M  V30 4116 O 370.53 -1.02296 -2.04323 0
M  V30 4117 C 370.74 -3.44123 0.581428 0
M  V30 4118 C 372.088 -4.2116 0.539389 0
M  V30 4119 O 373.112 -3.52391 0.519541 0
M  V30 4120 O 371.971 -5.43749 0.54765 0
M  V30 4121 H 369.065 -0.825639 0.0474263 0
M  V30 4122 H 371.611 -1.4799 0.830478 0
M  V30 4123 H 370.383 -3.56267 1.61833 0
M  V30 4124 H 370.006 -3.97573 -0.0462047 0
M  V30 4125 N 371.003 -0.499398 -1.49478 0
M  V30 4126 C 372.231 0.0425456 -2.06856 0
M  V30 4127 C 372.646 1.30964 -1.35992 0
M  V30 4128 O 372.003 1.77172 -0.437762 0
M  V30 4129 C 372.054 0.301735 -3.60239 0
M  V30 4130 O 371.775 -0.915127 -4.28436 0
M  V30 4131 C 373.276 0.887499 -4.34325 0
M  V30 4132 H 370.496 -0.0197482 -0.670709 0
M  V30 4133 H 373.04 -0.696297 -1.92281 0
M  V30 4134 H 371.195 0.990556 -3.74522 0
M  V30 4135 H 371.609 -0.676993 -5.20113 0
M  V30 4136 H 373.083 1.01845 -5.42523 0
M  V30 4137 H 373.56 1.88488 -3.96698 0
M  V30 4138 H 374.166 0.236196 -4.24644 0
M  V30 4139 N 372.481 1.55866 -0.233164 0
M  V30 4140 C 373.892 1.847 0.272554 0
M  V30 4141 C 374.243 1.15477 1.58617 0
M  V30 4142 O 373.368 0.42841 2.12117 0
M  V30 4143 C 373.963 3.35071 0.501299 0
M  V30 4144 C 372.522 3.6418 0.951304 0
M  V30 4145 C 371.669 2.77292 0.0208209 0
M  V30 4146 H 374.62 1.52005 -0.456074 0
M  V30 4147 H 374.641 3.55906 1.34577 0
M  V30 4148 H 374.153 3.85424 -0.454936 0
M  V30 4149 H 372.254 3.19293 1.92049 0
M  V30 4150 H 372.367 4.72071 0.817675 0
M  V30 4151 H 370.731 2.49131 0.529723 0
M  V30 4152 H 371.514 3.30448 -0.93054 0
M  V30 4153 N 373.959 -0.0401083 1.57549 0
M  V30 4154 C 375.189 -0.744115 1.92734 0
M  V30 4155 C 375.597 -1.70005 0.830348 0
M  V30 4156 O 374.94 -1.82576 -0.20286 0
M  V30 4157 C 375.002 -1.56516 3.2364 0
M  V30 4158 C 374.666 -0.7752 4.50377 0
M  V30 4159 C 375.663 -0.0803326 5.19838 0
M  V30 4160 C 373.348 -0.733002 4.96923 0
M  V30 4161 C 375.342 0.646154 6.34116 0
M  V30 4162 C 373.029 -0.00276321 6.111 0
M  V30 4163 C 374.027 0.685585 6.7955 0
M  V30 4164 O 373.715 1.40399 7.91545 0
M  V30 4165 H 373.447 -0.214861 0.640945 0
M  V30 4166 H 376.001 -0.00503675 2.05399 0
M  V30 4167 H 374.231 -2.3478 3.07271 0
M  V30 4168 H 375.92 -2.15076 3.44234 0
M  V30 4169 H 376.686 -0.104035 4.84888 0
M  V30 4170 H 372.565 -1.25827 4.43496 0
M  V30 4171 H 376.109 1.18398 6.87479 0
M  V30 4172 H 372.006 0.0229012 6.45496 0
M  V30 4173 H 372.774 1.31653 8.07843 0
M  V30 4174 N 375.437 -1.54477 -0.31217 0
M  V30 4175 C 376.4 -1.83923 -1.36766 0
M  V30 4176 C 377.4 -0.711563 -1.44199 0
M  V30 4177 O 378.59 -0.979866 -1.44029 0
M  V30 4178 C 375.722 -2.0095 -2.75376 0
M  V30 4179 H 376.915 -2.78239 -1.11906 0
M  V30 4180 H 374.468 -1.46369 -0.548257 0
M  V30 4181 H 375.203 -1.08883 -3.05475 0
M  V30 4182 H 374.988 -2.83018 -2.71373 0
M  V30 4183 H 376.478 -2.2514 -3.51713 0
M  V30 4184 N 376.915 0.57481 -1.46744 0
M  V30 4185 C 377.845 1.69337 -1.60771 0
M  V30 4186 C 378.826 1.63825 -0.457736 0
M  V30 4187 O 380.011 1.8172 -0.684947 0
M  V30 4188 C 377.141 3.0798 -1.60517 0
M  V30 4189 C 376.095 3.28327 -2.74564 0
M  V30 4190 C 375.421 4.67578 -2.59373 0
M  V30 4191 C 376.721 3.15398 -4.16319 0
M  V30 4192 H 378.415 1.57853 -2.54407 0
M  V30 4193 H 375.961 0.75799 -1.22436 0
M  V30 4194 H 377.914 3.86061 -1.68923 0
M  V30 4195 H 376.638 3.20381 -0.634305 0
M  V30 4196 H 375.297 2.52649 -2.65639 0
M  V30 4197 H 374.945 4.76755 -1.60353 0
M  V30 4198 H 374.645 4.82144 -3.35873 0
M  V30 4199 H 376.169 5.47817 -2.69682 0
M  V30 4200 H 377.583 3.83315 -4.26313 0
M  V30 4201 H 375.98 3.41482 -4.93468 0
M  V30 4202 H 377.05 2.12372 -4.3592 0
M  V30 4203 N 378.394 1.34581 0.820102 0
M  V30 4204 C 379.619 1.30333 1.61332 0
M  V30 4205 C 380.044 -0.119339 1.87721 0
M  V30 4206 O 379.402 -1.08197 1.45475 0
M  V30 4207 C 379.45 2.10258 2.92957 0
M  V30 4208 O 378.554 1.47404 3.85157 0
M  V30 4209 H 377.895 0.447488 0.490561 0
M  V30 4210 H 380.425 1.77425 1.01889 0
M  V30 4211 H 380.435 2.21718 3.42498 0
M  V30 4212 H 379.11 3.13693 2.73074 0
M  V30 4213 H 377.687 1.44703 3.43679 0
M  V30 4214 N 379.872 -1.04064 1.18357 0
M  V30 4215 C 381.1 -1.80916 1.00384 0
M  V30 4216 C 381.515 -1.83414 -0.447738 0
M  V30 4217 O 380.872 -1.26962 -1.31099 0
M  V30 4218 C 380.923 -3.26516 1.55144 0
M  V30 4219 O 380.644 -3.2424 2.94618 0
M  V30 4220 C 382.145 -4.20013 1.41789 0
M  V30 4221 H 379.365 -0.569728 0.354474 0
M  V30 4222 H 381.909 -1.31151 1.56906 0
M  V30 4223 H 380.064 -3.73512 1.02798 0
M  V30 4224 H 380.478 -4.15452 3.20156 0
M  V30 4225 H 381.952 -5.20111 1.84901 0
M  V30 4226 H 382.429 -4.37667 0.36661 0
M  V30 4227 H 383.035 -3.78881 1.93207 0
M  V30 4228 N 381.35 -0.985608 -1.22978 0
M  V30 4229 C 382.26 -0.538548 -2.28335 0
M  V30 4230 C 383.276 0.409163 -1.69121 0
M  V30 4231 O 384.452 0.277797 -1.99475 0
M  V30 4232 C 381.517 0.146867 -3.46389 0
M  V30 4233 C 380.578 -0.842896 -4.20944 0
M  V30 4234 C 379.811 -0.190095 -5.33361 0
M  V30 4235 O 380.034 1.01767 -5.61248 0
M  V30 4236 O 378.968 -0.891289 -5.95264 0
M  V30 4237 H 382.794 -1.41487 -2.68729 0
M  V30 4238 H 380.379 -0.753495 -1.29007 0
M  V30 4239 H 382.261 0.531125 -4.1804 0
M  V30 4240 H 380.936 0.997871 -3.07935 0
M  V30 4241 H 379.843 -1.27795 -3.51595 0
M  V30 4242 H 381.176 -1.66287 -4.6326 0
M  V30 4243 N 382.828 1.3818 -0.7579 0
M  V30 4244 C 383.775 2.30416 -0.133057 0
M  V30 4245 C 384.745 1.50398 0.704957 0
M  V30 4246 O 385.93 1.79014 0.660192 0
M  V30 4247 C 383.07 3.36834 0.750813 0
M  V30 4248 C 382.183 4.31879 -0.102297 0
M  V30 4249 C 381.318 5.25368 0.784979 0
M  V30 4250 C 380.357 6.12058 -0.0715046 0
M  V30 4251 N 379.494 6.97832 0.772972 0
M  V30 4252 H 384.334 2.83274 -0.925186 0
M  V30 4253 H 381.871 1.39461 -0.467866 0
M  V30 4254 H 383.829 3.97145 1.27794 0
M  V30 4255 H 382.459 2.85374 1.50868 0
M  V30 4256 H 381.511 3.72991 -0.747095 0
M  V30 4257 H 382.823 4.92921 -0.763552 0
M  V30 4258 H 381.977 5.90818 1.37911 0
M  V30 4259 H 380.716 4.64703 1.47996 0
M  V30 4260 H 379.721 5.456 -0.678272 0
M  V30 4261 H 380.946 6.74793 -0.763606 0
M  V30 4262 H 378.892 6.3971 1.45282 0
M  V30 4263 H 378.809 7.55812 0.168709 0
M  V30 4264 H 380.077 7.67687 1.35194 0
M  V30 4265 N 384.306 0.507319 1.49211 0
M  V30 4266 C 385.236 -0.256939 2.32082 0
M  V30 4267 C 386.217 -0.956609 1.40652 0
M  V30 4268 O 387.402 -0.946788 1.69557 0
M  V30 4269 C 384.532 -1.31802 3.21318 0
M  V30 4270 C 383.486 -0.737855 4.21592 0
M  V30 4271 C 382.812 -1.89992 4.99807 0
M  V30 4272 C 384.112 0.275325 5.21574 0
M  V30 4273 H 385.806 0.434798 2.96226 0
M  V30 4274 H 383.352 0.210546 1.42452 0
M  V30 4275 H 385.305 -1.86045 3.78107 0
M  V30 4276 H 384.029 -2.03903 2.5513 0
M  V30 4277 H 382.688 -0.217126 3.65956 0
M  V30 4278 H 382.336 -2.60877 4.30061 0
M  V30 4279 H 382.036 -1.51777 5.6766 0
M  V30 4280 H 383.56 -2.44657 5.59442 0
M  V30 4281 H 384.974 -0.179193 5.7302 0
M  V30 4282 H 383.371 0.573649 5.97352 0
M  V30 4283 H 384.441 1.18903 4.70096 0
M  V30 4284 N 385.784 -1.5574 0.241426 0
M  V30 4285 C 386.747 -2.19877 -0.647063 0
M  V30 4286 C 387.747 -1.16642 -1.10686 0
M  V30 4287 O 388.937 -1.41757 -1.01245 0
M  V30 4288 C 386.069 -2.83797 -1.88871 0
M  V30 4289 H 387.262 -2.99772 -0.087574 0
M  V30 4290 H 384.815 -1.56298 -0.00813574 0
M  V30 4291 H 385.55 -2.07824 -2.48957 0
M  V30 4292 H 385.335 -3.59414 -1.56728 0
M  V30 4293 H 386.825 -3.32898 -2.52129 0
M  V30 4294 N 387.262 0.0317525 -1.57568 0
M  V30 4295 C 388.511 0.722131 -1.8833 0
M  V30 4296 C 388.824 1.76664 -0.839587 0
M  V30 4297 O 390.03 2.50942 -1.03635 0
M  V30 4298 C 388.486 1.33544 -3.34207 0
M  V30 4299 C 388.094 0.327415 -4.46802 0
M  V30 4300 C 389.838 2.00585 -3.7412 0
M  V30 4301 C 387.745 0.948915 -5.83738 0
M  V30 4302 H 386.675 0.273466 -0.702661 0
M  V30 4303 H 389.326 -0.0235811 -1.83485 0
M  V30 4304 H 387.708 2.13077 -3.33788 0
M  V30 4305 H 388.882 -0.441006 -4.58685 0
M  V30 4306 H 387.197 -0.240758 -4.15703 0
M  V30 4307 H 389.794 2.47932 -4.73744 0
M  V30 4308 H 390.137 2.82285 -3.05975 0
M  V30 4309 H 390.67 1.27831 -3.76702 0
M  V30 4310 H 387.409 0.171387 -6.55276 0
M  V30 4311 H 386.929 1.68724 -5.7558 0
M  V30 4312 H 388.608 1.45705 -6.3038 0
M  V30 4313 N 388.74 1.54641 0.303973 0
M  V30 4314 C 389.987 1.7378 1.03955 0
M  V30 4315 C 390.315 0.521986 1.87365 0
M  V30 4316 O 389.57 -0.496099 1.89308 0
M  V30 4317 C 389.869 2.97753 1.97681 0
M  V30 4318 C 389.535 4.31671 1.30271 0
M  V30 4319 C 388.197 4.68075 1.11619 0
M  V30 4320 C 390.549 5.147 0.82055 0
M  V30 4321 C 387.877 5.8509 0.434304 0
M  V30 4322 C 390.229 6.32416 0.152395 0
M  V30 4323 C 388.893 6.67484 -0.0461067 0
M  V30 4324 H 388.163 0.635908 0.380398 0
M  V30 4325 H 390.81 1.88896 0.314718 0
M  V30 4326 H 389.115 2.77406 2.76682 0
M  V30 4327 H 390.812 3.09756 2.54661 0
M  V30 4328 H 387.402 4.03041 1.45795 0
M  V30 4329 H 391.586 4.87077 0.952374 0
M  V30 4330 H 386.842 6.10806 0.269495 0
M  V30 4331 H 391.016 6.96023 -0.229126 0
M  V30 4332 H 388.643 7.58011 -0.576494 0
M  V30 4333 N 390.218 -0.567019 1.47046 0
M  V30 4334 C 391.443 -1.3551 1.57009 0
M  V30 4335 C 391.868 -1.86841 0.217259 0
M  V30 4336 O 391.226 -1.62435 -0.805268 0
M  V30 4337 C 391.274 -2.50777 2.5912 0
M  V30 4338 O 390.378 -3.52706 2.13711 0
M  V30 4339 H 389.719 -0.402919 0.52778 0
M  V30 4340 H 392.249 -0.686241 1.92748 0
M  V30 4341 H 392.259 -2.97481 2.79229 0
M  V30 4342 H 390.934 -2.12771 3.57353 0
M  V30 4343 H 389.511 -3.12374 2.03659 0
M  V30 4344 N 391.696 -1.35014 -0.812953 0
M  V30 4345 C 392.643 -1.27412 -1.92444 0
M  V30 4346 C 393.613 -0.14733 -1.65445 0
M  V30 4347 O 394.798 -0.329974 -1.87925 0
M  V30 4348 C 391.938 -1.04558 -3.28879 0
M  V30 4349 C 391.051 -2.26101 -3.68106 0
M  V30 4350 C 390.186 -1.96449 -4.9354 0
M  V30 4351 C 389.225 -3.14081 -5.25376 0
M  V30 4352 N 388.362 -2.84246 -6.41988 0
M  V30 4353 H 393.202 -2.22463 -1.98278 0
M  V30 4354 H 390.739 -1.10593 -0.969933 0
M  V30 4355 H 392.697 -0.893413 -4.07522 0
M  V30 4356 H 391.327 -0.131719 -3.22531 0
M  V30 4357 H 390.379 -2.52204 -2.84775 0
M  V30 4358 H 391.691 -3.13959 -3.87597 0
M  V30 4359 H 390.845 -1.78026 -5.79993 0
M  V30 4360 H 389.584 -1.05867 -4.76071 0
M  V30 4361 H 388.589 -3.33089 -4.37415 0
M  V30 4362 H 389.814 -4.05455 -5.44778 0
M  V30 4363 H 387.76 -1.96252 -6.25956 0
M  V30 4364 H 387.677 -3.65637 -6.61699 0
M  V30 4365 H 388.945 -2.6935 -7.31485 0
M  V30 4366 N 393.175 1.03435 -1.18907 0
M  V30 4367 C 394.405 1.8012 -1.01195 0
M  V30 4368 C 394.813 1.8395 0.442613 0
M  V30 4369 O 394.156 1.27836 1.31923 0
M  V30 4370 C 394.218 3.26792 -1.49823 0
M  V30 4371 C 393.882 3.46609 -2.97844 0
M  V30 4372 C 394.879 3.37278 -3.95651 0
M  V30 4373 C 392.564 3.73001 -3.36416 0
M  V30 4374 C 394.558 3.54054 -5.30023 0
M  V30 4375 C 392.245 3.89423 -4.70949 0
M  V30 4376 C 393.243 3.79951 -5.67562 0
M  V30 4377 O 392.931 3.95895 -6.99659 0
M  V30 4378 H 392.663 0.573865 -0.357289 0
M  V30 4379 H 395.217 1.31207 -1.58031 0
M  V30 4380 H 393.447 3.76703 -0.873578 0
M  V30 4381 H 395.136 3.85055 -1.28404 0
M  V30 4382 H 395.902 3.16846 -3.67197 0
M  V30 4383 H 391.781 3.79469 -2.61772 0
M  V30 4384 H 395.325 3.46577 -6.05417 0
M  V30 4385 H 391.222 4.09351 -4.99101 0
M  V30 4386 H 391.99 4.13019 -7.06653 0
M  V30 4387 N 394.653 0.992116 1.22453 0
M  V30 4388 C 395.883 0.684949 1.94915 0
M  V30 4389 C 396.291 -0.754292 1.73514 0
M  V30 4390 O 395.634 -1.52056 1.03076 0
M  V30 4391 C 395.696 0.910054 3.47791 0
M  V30 4392 C 395.36 2.33363 3.92926 0
M  V30 4393 C 396.357 3.31308 4.00663 0
M  V30 4394 C 394.042 2.66785 4.25595 0
M  V30 4395 C 396.036 4.6075 4.40441 0
M  V30 4396 C 393.723 3.96446 4.65053 0
M  V30 4397 C 394.721 4.9324 4.72444 0
M  V30 4398 O 394.409 6.20584 5.1101 0
M  V30 4399 H 394.141 0.25258 0.62704 0
M  V30 4400 H 396.695 1.32939 1.56577 0
M  V30 4401 H 394.925 0.208443 3.86138 0
M  V30 4402 H 396.614 0.598257 4.01467 0
M  V30 4403 H 397.38 3.0682 3.75615 0
M  V30 4404 H 393.259 1.92148 4.19047 0
M  V30 4405 H 396.803 5.363 4.46126 0
M  V30 4406 H 392.7 4.20724 4.89552 0
M  V30 4407 H 393.468 6.24509 5.29085 0
M  V30 4408 N 396.131 -1.37776 0.765217 0
M  V30 4409 C 397.547 -1.53297 0.444108 0
M  V30 4410 C 397.747 -1.72515 -1.04119 0
M  V30 4411 O 396.803 -1.74278 -1.82711 0
M  V30 4412 C 398.116 -2.73328 1.25349 0
M  V30 4413 C 399.664 -2.87185 1.24473 0
M  V30 4414 C 400.139 -4.10191 2.03733 0
M  V30 4415 N 401.63 -4.17291 2.01053 0
M  V30 4416 C 402.365 -5.11488 2.59166 0
M  V30 4417 N 401.861 -6.11285 3.26041 0
M  V30 4418 N 403.654 -5.03924 2.49032 0
M  V30 4419 H 395.805 -1.23552 1.72768 0
M  V30 4420 H 398.068 -0.601103 0.733062 0
M  V30 4421 H 397.774 -2.6557 2.30577 0
M  V30 4422 H 397.648 -3.66834 0.87823 0
M  V30 4423 H 400.035 -2.94418 0.20047 0
M  V30 4424 H 400.116 -1.94657 1.65959 0
M  V30 4425 H 399.76 -4.0372 3.08176 0
M  V30 4426 H 399.69 -5.01821 1.59633 0
M  V30 4427 H 402.181 -3.45825 1.5236 0
M  V30 4428 H 402.494 -6.79678 3.67774 0
M  V30 4429 H 400.839 -6.11583 3.30138 0
M  V30 4430 H 404.03 -4.24902 1.96407 0
M  V30 4431 H 404.203 -5.77152 2.94617 0
M  V30 4432 N 397.609 -0.515225 -1.4894 0
M  V30 4433 C 398.886 0.0879088 -1.95402 0
M  V30 4434 C 399.266 1.52745 -1.45712 0
M  V30 4435 O 398.614 2.18238 -0.677093 0
M  V30 4436 C 398.824 -0.0141055 -3.48997 0
M  V30 4437 C 400.172 0.152646 -4.24326 0
M  V30 4438 O 401.196 0.0604025 -3.56149 0
M  V30 4439 O 400.055 0.34384 -5.45417 0
M  V30 4440 H 397.149 0.0874636 -0.822362 0
M  V30 4441 H 399.695 -0.578775 -1.59525 0
M  V30 4442 H 398.467 -1.01745 -3.77841 0
M  V30 4443 H 398.09 0.692091 -3.9153 0
M  V30 4444 N 399.087 1.5561 -0.249682 0
M  V30 4445 C 400.312 2.03865 0.381305 0
M  V30 4446 C 400.737 1.12769 1.50548 0
M  V30 4447 O 400.095 0.121189 1.80895 0
M  V30 4448 C 400.143 3.50101 0.863816 0
M  V30 4449 O 399.247 3.62132 1.97318 0
M  V30 4450 H 398.588 0.658827 0.0827194 0
M  V30 4451 H 401.118 2.01105 -0.376552 0
M  V30 4452 H 401.128 3.90975 1.1663 0
M  V30 4453 H 399.803 4.1588 0.0411816 0
M  V30 4454 H 398.38 3.33155 1.67517 0
M  V30 4455 N 400.565 -0.0233959 1.57583 0
M  V30 4456 C 401.795 -0.723631 1.93513 0
M  V30 4457 C 402.203 -1.69115 0.848333 0
M  V30 4458 O 401.546 -1.82781 -0.183484 0
M  V30 4459 C 401.608 -1.53075 3.25282 0
M  V30 4460 C 401.272 -0.727388 4.51174 0
M  V30 4461 C 402.269 -0.0251924 5.19894 0
M  V30 4462 C 399.954 -0.680256 4.97672 0
M  V30 4463 C 401.948 0.713374 6.33395 0
M  V30 4464 C 399.635 0.0620523 6.11068 0
M  V30 4465 C 400.633 0.757622 6.78785 0
M  V30 4466 O 400.321 1.48787 7.90011 0
M  V30 4467 H 400.053 -0.208051 0.643188 0
M  V30 4468 H 402.607 0.0167489 2.05393 0
M  V30 4469 H 400.837 -2.31508 3.09744 0
M  V30 4470 H 402.526 -2.11413 3.46496 0
M  V30 4471 H 403.292 -0.0526003 4.84971 0
M  V30 4472 H 399.171 -1.21116 4.44805 0
M  V30 4473 H 402.715 1.25683 6.86185 0
M  V30 4474 H 398.612 0.0913634 6.45435 0
M  V30 4475 H 399.38 1.40213 8.06401 0
M  V30 4476 N 402.043 -1.548 -0.295768 0
M  V30 4477 C 402.973 -1.89115 -1.36959 0
M  V30 4478 C 403.954 -0.75059 -1.52644 0
M  V30 4479 O 405.139 -1.00678 -1.66065 0
M  V30 4480 C 402.269 -2.14307 -2.73295 0
M  V30 4481 C 401.223 -3.30151 -2.72368 0
M  V30 4482 C 400.549 -3.40772 -4.12042 0
M  V30 4483 C 401.849 -4.67126 -2.33646 0
M  V30 4484 H 403.543 -2.79053 -1.08488 0
M  V30 4485 H 401.089 -1.34266 -0.520443 0
M  V30 4486 H 403.042 -2.36898 -3.48507 0
M  V30 4487 H 401.766 -1.21145 -3.03301 0
M  V30 4488 H 400.425 -3.0749 -1.99613 0
M  V30 4489 H 400.073 -2.45117 -4.39234 0
M  V30 4490 H 399.773 -4.18645 -4.12322 0
M  V30 4491 H 401.297 -3.6563 -4.89027 0
M  V30 4492 H 402.711 -4.89414 -2.98575 0
M  V30 4493 H 401.108 -5.47751 -2.45129 0
M  V30 4494 H 402.178 -4.67489 -1.28772 0
M  V30 4495 N 403.521 0.559213 -1.47345 0
M  V30 4496 C 404.468 1.66645 -1.59682 0
M  V30 4497 C 405.438 1.60168 -0.43994 0
M  V30 4498 O 406.623 1.79031 -0.659736 0
M  V30 4499 C 403.763 3.04969 -1.61518 0
M  V30 4500 C 402.876 3.21897 -2.88108 0
M  V30 4501 C 402.011 4.50608 -2.81294 0
M  V30 4502 C 401.05 4.60961 -4.02717 0
M  V30 4503 N 400.187 5.81024 -3.94151 0
M  V30 4504 H 405.027 1.55439 -2.54249 0
M  V30 4505 H 402.564 0.757219 -1.26113 0
M  V30 4506 H 404.522 3.85064 -1.60566 0
M  V30 4507 H 403.152 3.15015 -0.704645 0
M  V30 4508 H 402.204 2.35248 -2.98936 0
M  V30 4509 H 403.516 3.25412 -3.78032 0
M  V30 4510 H 402.67 5.3896 -2.7858 0
M  V30 4511 H 401.409 4.49568 -1.89049 0
M  V30 4512 H 400.414 3.71021 -4.05738 0
M  V30 4513 H 401.639 4.63761 -4.96087 0
M  V30 4514 H 399.585 5.80938 -3.04708 0
M  V30 4515 H 399.502 5.85909 -4.77752 0
M  V30 4516 H 400.77 6.71744 -3.9545 0
M  V30 4517 N 404.999 1.35443 0.805782 0
M  V30 4518 C 405.962 1.28301 1.89925 0
M  V30 4519 C 406.962 0.194285 1.59622 0
M  V30 4520 O 408.152 0.448036 1.6834 0
M  V30 4521 C 405.284 0.984997 3.2636 0
M  V30 4522 H 406.477 2.2553 1.97677 0
M  V30 4523 H 404.03 1.19979 1.00173 0
M  V30 4524 H 404.765 0.016603 3.24296 0
M  V30 4525 H 404.55 1.77269 3.4974 0
M  V30 4526 H 406.04 0.960651 4.064 0
M  V30 4527 N 406.477 -1.02803 1.19454 0
M  V30 4528 C 407.726 -1.7562 0.991996 0
M  V30 4529 C 408.039 -1.89672 -0.477901 0
M  V30 4530 O 409.245 -2.59468 -0.799287 0
M  V30 4531 C 407.701 -3.15812 1.72601 0
M  V30 4532 C 407.309 -3.0981 3.23607 0
M  V30 4533 C 409.053 -3.92918 1.60674 0
M  V30 4534 C 406.96 -4.44939 3.89594 0
M  V30 4535 H 405.89 -0.658352 0.367543 0
M  V30 4536 H 408.541 -1.15044 1.42959 0
M  V30 4537 H 406.923 -3.7686 1.21624 0
M  V30 4538 H 408.097 -2.58138 3.81709 0
M  V30 4539 H 406.412 -2.46201 3.35819 0
M  V30 4540 H 409.009 -4.9287 2.07323 0
M  V30 4541 H 409.352 -4.12502 0.561025 0
M  V30 4542 H 409.885 -3.38472 2.09001 0
M  V30 4543 H 406.624 -4.30559 4.94267 0
M  V30 4544 H 406.144 -4.96664 3.36281 0
M  V30 4545 H 407.823 -5.1382 3.93189 0
M  V30 4546 N 407.956 -0.998596 -1.21925 0
M  V30 4547 C 409.372 -0.710303 -1.42923 0
M  V30 4548 C 409.572 0.716933 -1.88314 0
M  V30 4549 O 408.628 1.48712 -2.04062 0
M  V30 4550 C 409.941 -1.72072 -2.466 0
M  V30 4551 C 411.489 -1.73681 -2.60392 0
M  V30 4552 C 411.964 -2.73601 -3.67296 0
M  V30 4553 N 413.455 -2.7223 -3.7476 0
M  V30 4554 C 414.19 -3.46206 -4.57087 0
M  V30 4555 N 413.686 -4.29802 -5.43362 0
M  V30 4556 N 415.479 -3.34886 -4.51451 0
M  V30 4557 H 407.63 -1.92028 -0.9077 0
M  V30 4558 H 409.893 -0.828487 -0.460775 0
M  V30 4559 H 409.599 -2.74231 -2.20206 0
M  V30 4560 H 409.473 -1.51818 -3.45299 0
M  V30 4561 H 411.86 -0.722173 -2.86127 0
M  V30 4562 H 411.941 -1.98005 -1.61949 0
M  V30 4563 H 411.585 -3.75217 -3.42307 0
M  V30 4564 H 411.515 -2.46545 -4.65321 0
M  V30 4565 H 414.006 -2.11576 -3.1312 0
M  V30 4566 H 414.319 -4.83061 -6.03218 0
M  V30 4567 H 412.664 -4.33887 -5.42925 0
M  V30 4568 H 415.855 -2.69015 -3.83078 0
M  V30 4569 H 416.028 -3.92796 -5.15379 0
M  V30 4570 N 409.434 1.37368 -0.772513 0
M  V30 4571 C 410.682 1.99279 -0.336516 0
M  V30 4572 C 411.003 1.6163 1.09091 0
M  V30 4573 O 410.273 0.882109 1.74916 0
M  V30 4574 H 408.853 0.737063 -0.121435 0
M  V30 4575 H 411.515 1.67836 -0.990809 0
M  V30 4576 H 410.611 3.09332 -0.414763 0
M  V30 4577 N 410.912 0.523116 1.48665 0
M  V30 4578 C 412.137 -0.0117284 2.07397 0
M  V30 4579 C 412.562 -1.28031 1.37803 0
M  V30 4580 O 411.92 -1.75836 0.441762 0
M  V30 4581 C 411.968 -0.225786 3.59892 0
M  V30 4582 O 411.072 -1.29592 3.91509 0
M  V30 4583 H 410.413 0.0360673 0.66302 0
M  V30 4584 H 412.943 0.729066 1.9117 0
M  V30 4585 H 412.953 -0.450552 4.05505 0
M  V30 4586 H 411.628 0.700944 4.09951 0
M  V30 4587 H 410.205 -1.05436 3.57684 0
M  V30 4588 N 412.39 -1.55475 0.257931 0
M  V30 4589 C 413.62 -2.03314 -0.367026 0
M  V30 4590 C 414.028 -1.13625 -1.51281 0
M  V30 4591 O 413.371 -0.145334 -1.83124 0
M  V30 4592 C 413.433 -3.47362 -0.926284 0
M  V30 4593 C 413.097 -4.56914 0.0886584 0
M  V30 4594 C 414.094 -5.12013 0.902123 0
M  V30 4595 C 411.779 -5.01827 0.217936 0
M  V30 4596 C 413.773 -6.10529 1.83122 0
M  V30 4597 C 411.46 -6.00172 1.15052 0
M  V30 4598 C 412.458 -6.54402 1.95568 0
M  V30 4599 O 412.146 -7.50827 2.87253 0
M  V30 4600 H 411.878 -0.669976 -0.0900443 0
M  V30 4601 H 414.432 -2.01804 0.382673 0
M  V30 4602 H 412.662 -3.46056 -1.72575 0
M  V30 4603 H 414.351 -3.78637 -1.46249 0
M  V30 4604 H 415.117 -4.78139 0.812891 0
M  V30 4605 H 410.996 -4.59272 -0.398721 0
M  V30 4606 H 414.54 -6.52783 2.46008 0
M  V30 4607 H 410.437 -6.33465 1.24064 0
M  V30 4608 H 411.205 -7.68483 2.81739 0
M  V30 4609 N 413.868 0.0150385 -1.57593 0
M  V30 4610 C 414.801 1.04475 -2.0288 0
M  V30 4611 C 415.779 1.3436 -0.915764 0
M  V30 4612 O 416.963 1.46779 -1.18271 0
M  V30 4613 C 414.09 2.37608 -2.41371 0
M  V30 4614 C 413.136 2.23487 -3.63257 0
M  V30 4615 S 413.969 1.57505 -5.11813 0
M  V30 4616 C 415.125 2.921 -5.5356 0
M  V30 4617 H 415.358 0.65907 -2.89903 0
M  V30 4618 H 412.891 0.225452 -1.52745 0
M  V30 4619 H 414.849 3.14165 -2.64217 0
M  V30 4620 H 413.51 2.7332 -1.54775 0
M  V30 4621 H 412.703 3.21802 -3.87891 0
M  V30 4622 H 412.305 1.55074 -3.40335 0
M  V30 4623 H 414.597 3.88419 -5.55101 0
M  V30 4624 H 415.54 2.72184 -6.53698 0
M  V30 4625 H 415.948 2.95318 -4.8109 0
M  V30 4626 N 415.346 1.54954 0.287554 0
M  V30 4627 C 416.623 1.65569 1.04146 0
M  V30 4628 C 417.003 0.512672 2.0478 0
M  V30 4629 O 416.351 -0.489038 2.23205 0
M  V30 4630 C 416.561 3.04163 1.71131 0
M  V30 4631 C 417.909 3.61429 2.22832 0
M  V30 4632 O 418.933 3.06702 1.81141 0
M  V30 4633 O 417.792 4.57281 2.9926 0
M  V30 4634 H 414.886 0.671881 0.482188 0
M  V30 4635 H 417.432 1.67297 0.28457 0
M  V30 4636 H 416.204 3.78796 0.981303 0
M  V30 4637 H 415.827 3.06271 2.53543 0
M  V30 4638 N 416.824 -0.551391 1.4764 0
M  V30 4639 C 418.071 -1.3083 1.54563 0
M  V30 4640 C 418.399 -1.93359 0.210361 0
M  V30 4641 O 417.654 -1.78721 -0.797332 0
M  V30 4642 C 417.953 -2.43469 2.61644 0
M  V30 4643 C 417.619 -1.98732 4.04742 0
M  V30 4644 C 416.281 -1.86248 4.43695 0
M  V30 4645 C 418.633 -1.64659 4.94507 0
M  V30 4646 C 415.961 -1.37995 5.70241 0
M  V30 4647 C 418.313 -1.17875 6.21521 0
M  V30 4648 C 416.977 -1.03992 6.5935 0
M  V30 4649 H 416.247 -0.478741 0.565587 0
M  V30 4650 H 418.894 -0.617697 1.81264 0
M  V30 4651 H 417.199 -3.18109 2.28722 0
M  V30 4652 H 418.896 -3.01642 2.64222 0
M  V30 4653 H 415.486 -2.09393 3.73968 0
M  V30 4654 H 419.67 -1.73174 4.65107 0
M  V30 4655 H 414.926 -1.25915 5.98294 0
M  V30 4656 H 419.1 -0.905739 6.90485 0
M  V30 4657 H 416.727 -0.663794 7.57296 0
M  V30 4658 N 418.302 -1.35869 -0.798587 0
M  V30 4659 C 419.25 -1.29491 -1.93222 0
M  V30 4660 C 420.244 -0.18836 -1.6835 0
M  V30 4661 O 421.45 -0.354822 -1.76468 0
M  V30 4662 H 417.825 -0.402901 -0.63496 0
M  V30 4663 H 419.796 -2.25247 -1.9572 0
M  V30 4664 C 418.545 -1.09184 -3.30112 0
M  V30 4665 H 417.868 -1.93574 -3.49813 0
M  V30 4666 H 419.308 -1.08766 -4.09812 0
M  V30 4667 C 417.767 0.203959 -3.36282 0
M  V30 4668 O 418.297 1.19699 -3.83451 0
M  V30 4669 N 416.503 0.245488 -2.89561 0
M  V30 4670 H 416.05 -0.563223 -2.51367 0
M  V30 4671 H 416.008 1.11219 -2.94071 0
M  V30 4672 N 419.78 1.02168 -1.19998 0
M  V30 4673 C 421.026 1.75945 -1.00852 0
M  V30 4674 C 421.359 1.88702 0.458828 0
M  V30 4675 O 420.634 1.40911 1.34069 0
M  V30 4676 C 420.917 3.18154 -1.68671 0
M  V30 4677 C 420.77 3.13224 -3.22817 0
M  V30 4678 C 422.089 4.16711 -1.41561 0
M  V30 4679 H 419.208 0.638673 -0.367785 0
M  V30 4680 H 421.85 1.19222 -1.4794 0
M  V30 4681 H 420 3.66586 -1.28636 0
M  V30 4682 H 421.672 2.72635 -3.72112 0
M  V30 4683 H 419.915 2.50751 -3.53986 0
M  V30 4684 H 420.586 4.13728 -3.65422 0
M  V30 4685 H 423.062 3.76913 -1.76284 0
M  V30 4686 H 421.938 5.14391 -1.91553 0
M  V30 4687 H 422.199 4.40774 -0.342193 0
M  V30 4688 N 421.258 1.00505 1.21394 0
M  V30 4689 C 422.168 0.574806 2.27449 0
M  V30 4690 C 423.184 -0.382206 1.6975 0
M  V30 4691 O 424.36 -0.246027 1.99892 0
M  V30 4692 C 421.425 -0.0917414 3.46579 0
M  V30 4693 C 420.486 0.909758 4.1955 0
M  V30 4694 C 419.719 0.274924 5.32991 0
M  V30 4695 O 419.942 -0.928254 5.62796 0
M  V30 4696 O 418.876 0.985877 5.93771 0
M  V30 4697 H 422.702 1.45744 2.66444 0
M  V30 4698 H 420.287 0.773923 1.27792 0
M  V30 4699 H 422.169 -0.464551 4.18832 0
M  V30 4700 H 420.844 -0.948755 3.09484 0
M  V30 4701 H 419.751 1.33372 3.49518 0
M  V30 4702 H 421.084 1.73636 4.60555 0
M  V30 4703 N 422.737 -1.36956 0.779787 0
M  V30 4704 C 423.985 -1.99097 0.347079 0
M  V30 4705 C 424.306 -1.62206 -1.08232 0
M  V30 4706 O 423.576 -0.891373 -1.74446 0
M  V30 4707 H 422.156 -0.736409 0.125342 0
M  V30 4708 H 424.818 -1.67308 0.999696 0
M  V30 4709 H 423.914 -3.09107 0.431162 0
M  V30 4710 N 424.215 -0.530993 -1.48385 0
M  V30 4711 C 425.631 -0.188919 -1.58478 0
M  V30 4712 C 425.831 1.30786 -1.53288 0
M  V30 4713 O 424.887 2.08619 -1.42248 0
M  V30 4714 C 426.2 -0.792343 -2.90073 0
M  V30 4715 C 427.748 -0.76117 -3.03604 0
M  V30 4716 C 428.223 -1.34319 -4.37861 0
M  V30 4717 N 429.714 -1.3052 -4.44431 0
M  V30 4718 C 430.449 -1.72543 -5.46824 0
M  V30 4719 N 429.945 -2.22299 -6.56167 0
M  V30 4720 N 431.738 -1.63773 -5.37712 0
M  V30 4721 H 423.889 -1.50377 -1.50002 0
M  V30 4722 H 426.152 -0.625559 -0.712306 0
M  V30 4723 H 425.858 -1.84323 -2.99529 0
M  V30 4724 H 425.732 -0.270026 -3.76232 0
M  V30 4725 H 428.119 0.280957 -2.93759 0
M  V30 4726 H 428.2 -1.32097 -2.19053 0
M  V30 4727 H 427.844 -2.38425 -4.4846 0
M  V30 4728 H 427.774 -0.759064 -5.21101 0
M  V30 4729 H 430.265 -0.940973 -3.65997 0
M  V30 4730 H 430.578 -2.52356 -7.30436 0
M  V30 4731 H 428.923 -2.26293 -6.57127 0
M  V30 4732 H 432.114 -1.24698 -4.51185 0
M  V30 4733 H 432.287 -1.96844 -6.17379 0
M  V30 4734 N 425.693 1.55336 -0.266172 0
M  V30 4735 C 426.941 1.99003 0.35246 0
M  V30 4736 C 427.262 1.15591 1.57047 0
M  V30 4737 O 426.532 0.243268 1.94384 0
M  V30 4738 H 425.112 0.735025 0.133217 0
M  V30 4739 H 427.774 1.91367 -0.369434 0
M  V30 4740 H 426.87 3.05289 0.648453 0
M  V30 4741 N 427.171 -0.0066808 1.57599 0
M  V30 4742 C 428.417 -0.693947 1.90558 0
M  V30 4743 C 428.75 -1.73792 0.866594 0
M  V30 4744 O 428.025 -1.94156 -0.115548 0
M  V30 4745 C 428.308 -1.34317 3.34112 0
M  V30 4746 C 428.161 -0.311189 4.48722 0
M  V30 4747 C 429.48 -2.27116 3.7697 0
M  V30 4748 H 426.599 -0.250803 0.693013 0
M  V30 4749 H 429.241 0.043242 1.89951 0
M  V30 4750 H 427.391 -1.9715 3.3476 0
M  V30 4751 H 429.063 0.316944 4.6021 0
M  V30 4752 H 427.306 0.367253 4.32243 0
M  V30 4753 H 427.977 -0.804366 5.46108 0
M  V30 4754 H 430.453 -1.74306 3.77831 0
M  V30 4755 H 429.329 -2.69511 4.78179 0
M  V30 4756 H 429.59 -3.14743 3.10466 0
M  V30 4757 N 428.649 -1.55105 -0.279332 0
M  V30 4758 C 429.874 -1.7976 -1.03446 0
M  V30 4759 C 430.299 -0.565952 -1.79384 0
M  V30 4760 O 429.657 0.484259 -1.74713 0
M  V30 4761 C 429.705 -3.0179 -1.97371 0
M  V30 4762 O 428.809 -2.76432 -3.06038 0
M  V30 4763 H 428.15 -0.594334 -0.29608 0
M  V30 4764 H 430.68 -2.02235 -0.310165 0
M  V30 4765 H 430.69 -3.30351 -2.39441 0
M  V30 4766 H 429.365 -3.91085 -1.4151 0
M  V30 4767 H 427.942 -2.58949 -2.68328 0
M  V30 4768 N 430.127 0.543554 -1.4793 0
M  V30 4769 C 431.543 0.870806 -1.3375 0
M  V30 4770 C 431.743 1.9864 -0.338261 0
M  V30 4771 O 430.799 2.51305 0.245371 0
M  V30 4772 C 432.112 1.25114 -2.73435 0
M  V30 4773 C 433.66 1.3618 -2.81823 0
M  V30 4774 C 434.135 1.77563 -4.22179 0
M  V30 4775 N 435.626 1.8469 -4.24787 0
M  V30 4776 C 436.361 2.18067 -5.30315 0
M  V30 4777 N 435.857 2.49963 -6.46135 0
M  V30 4778 N 437.65 2.18958 -5.17701 0
M  V30 4779 H 429.801 -0.19275 -2.11524 0
M  V30 4780 H 432.064 -0.0235777 -0.947707 0
M  V30 4781 H 431.77 0.50514 -3.48053 0
M  V30 4782 H 431.644 2.20431 -3.06088 0
M  V30 4783 H 434.031 2.09859 -2.07468 0
M  V30 4784 H 434.112 0.390169 -2.52807 0
M  V30 4785 H 433.756 1.04449 -4.97044 0
M  V30 4786 H 433.686 2.75753 -4.48629 0
M  V30 4787 H 436.177 1.62372 -3.41239 0
M  V30 4788 H 436.49 2.74497 -7.22406 0
M  V30 4789 H 434.835 2.47513 -6.49432 0
M  V30 4790 H 438.026 1.93488 -4.2624 0
M  V30 4791 H 438.199 2.44639 -6.00047 0
M  V30 4792 N 431.605 1.3629 0.791371 0
M  V30 4793 C 433.016 1.27225 1.36641 0
M  V30 4794 C 433.367 -0.0887968 1.95999 0
M  V30 4795 O 432.492 -0.990207 1.92416 0
M  V30 4796 C 433.087 2.30375 2.48421 0
M  V30 4797 C 431.646 2.25004 3.01746 0
M  V30 4798 C 430.793 2.15259 1.7481 0
M  V30 4799 H 433.744 1.47198 0.593173 0
M  V30 4800 H 433.765 1.93905 3.27385 0
M  V30 4801 H 433.277 3.29422 2.05189 0
M  V30 4802 H 431.378 1.29417 3.49403 0
M  V30 4803 H 431.491 3.1761 3.58693 0
M  V30 4804 H 429.855 1.61482 1.96966 0
M  V30 4805 H 430.638 3.16191 1.33709 0
M  V30 4806 N 433.083 -1.0153 1.20538 0
M  V30 4807 C 434.36 -1.72327 0.925343 0
M  V30 4808 C 434.74 -2.03383 -0.565547 0
M  V30 4809 O 434.088 -1.69934 -1.52757 0
M  V30 4810 C 434.298 -2.9902 1.79967 0
M  V30 4811 C 435.646 -3.72258 2.04228 0
M  V30 4812 O 436.67 -3.08979 1.77231 0
M  V30 4813 O 435.529 -4.86053 2.4983 0
M  V30 4814 H 432.623 -0.751099 0.346092 0
M  V30 4815 H 435.169 -1.07366 1.31417 0
M  V30 4816 H 433.941 -2.72402 2.80915 0
M  V30 4817 H 433.564 -3.71721 1.41099 0
M  V30 4818 N 434.561 -1.01147 -1.20859 0
M  V30 4819 C 435.81 -0.693214 -1.89413 0
M  V30 4820 C 436.123 0.779969 -1.79376 0
M  V30 4821 O 437.329 1.21057 -2.43017 0
M  V30 4822 C 435.785 -1.18949 -3.39675 0
M  V30 4823 C 435.393 -2.68921 -3.58309 0
M  V30 4824 C 437.137 -0.94642 -4.13815 0
M  V30 4825 C 435.044 -3.12056 -5.0237 0
M  V30 4826 H 433.974 -0.255595 -0.709357 0
M  V30 4827 H 436.625 -1.22349 -1.36759 0
M  V30 4828 H 435.007 -0.587228 -3.91622 0
M  V30 4829 H 436.181 -3.34652 -3.16772 0
M  V30 4830 H 434.496 -2.91314 -2.97532 0
M  V30 4831 H 437.093 -1.24417 -5.20023 0
M  V30 4832 H 437.436 0.117219 -4.16135 0
M  V30 4833 H 437.969 -1.5118 -3.67953 0
M  V30 4834 H 434.708 -4.17674 -5.05202 0
M  V30 4835 H 434.228 -2.51041 -5.44737 0
M  V30 4836 H 435.907 -3.04403 -5.70918 0
M  V30 4837 N 436.039 1.36541 -0.78704 0
M  V30 4838 C 436.969 2.32659 -0.197992 0
M  V30 4839 C 437.95 1.56533 0.665697 0
M  V30 4840 O 439.135 1.84698 0.60001 0
M  V30 4841 C 436.265 3.40778 0.669901 0
M  V30 4842 C 435.219 4.27897 -0.0937039 0
M  V30 4843 C 434.545 5.27163 0.894629 0
M  V30 4844 C 435.845 5.06334 -1.28154 0
M  V30 4845 H 437.539 2.82171 -1.00099 0
M  V30 4846 H 435.085 1.35665 -0.482793 0
M  V30 4847 H 437.038 4.07008 1.09191 0
M  V30 4848 H 435.762 2.89827 1.50558 0
M  V30 4849 H 434.421 3.6322 -0.49666 0
M  V30 4850 H 434.069 4.72486 1.72527 0
M  V30 4851 H 433.769 5.86317 0.388149 0
M  V30 4852 H 435.293 5.96266 1.31525 0
M  V30 4853 H 436.707 5.65617 -0.93541 0
M  V30 4854 H 435.104 5.74888 -1.72115 0
M  V30 4855 H 436.174 4.38114 -2.07807 0
M  V30 4856 N 437.518 0.538854 1.48102 0
M  V30 4857 C 438.466 -0.232325 2.31437 0
M  V30 4858 C 439.46 -0.927004 1.41785 0
M  V30 4859 O 440.666 -0.850378 1.58646 0
M  V30 4860 H 437.041 -0.0937916 0.746128 0
M  V30 4861 H 439.012 0.489986 2.9435 0
M  V30 4862 C 437.761 -1.26074 3.24038 0
M  V30 4863 H 437.084 -0.735609 3.92974 0
M  V30 4864 H 438.524 -1.77157 3.85216 0
M  V30 4865 C 436.983 -2.29902 2.46265 0
M  V30 4866 O 437.513 -3.36502 2.19384 0
M  V30 4867 N 435.719 -2.03348 2.07601 0
M  V30 4868 H 435.266 -1.16675 2.29662 0
M  V30 4869 H 435.224 -2.73038 1.55877 0
M  V30 4870 N 438.996 -1.55193 0.274407 0
M  V30 4871 C 439.943 -2.225 -0.613374 0
M  V30 4872 C 440.913 -1.19823 -1.15029 0
M  V30 4873 O 442.098 -1.48362 -1.19973 0
M  V30 4874 C 439.238 -2.94927 -1.79199 0
M  V30 4875 C 438.351 -4.12322 -1.28899 0
M  V30 4876 C 437.486 -4.72394 -2.42934 0
M  V30 4877 C 436.525 -5.81984 -1.89634 0
M  V30 4878 N 435.662 -6.36123 -2.9714 0
M  V30 4879 H 440.502 -2.97982 -0.032756 0
M  V30 4880 H 438.039 -1.47099 -0.00440146 0
M  V30 4881 H 439.997 -3.35134 -2.48478 0
M  V30 4882 H 438.627 -2.2187 -2.34465 0
M  V30 4883 H 437.679 -3.7724 -0.489327 0
M  V30 4884 H 438.991 -4.91355 -0.858587 0
M  V30 4885 H 438.145 -5.15317 -3.20208 0
M  V30 4886 H 436.884 -3.92636 -2.8929 0
M  V30 4887 H 435.889 -5.38511 -1.1084 0
M  V30 4888 H 437.114 -6.6361 -1.44215 0
M  V30 4889 H 435.06 -5.59259 -3.42878 0
M  V30 4890 H 434.977 -7.10427 -2.58515 0
M  V30 4891 H 436.245 -6.83704 -3.74391 0
M  V30 4892 N 440.474 -0.00167713 -1.576 0
M  V30 4893 C 441.421 0.989195 -2.08527 0
M  V30 4894 C 442.391 1.34031 -0.981065 0
M  V30 4895 O 443.576 1.43839 -1.2536 0
M  V30 4896 C 440.716 2.27537 -2.59463 0
M  V30 4897 C 439.829 1.98314 -3.83791 0
M  V30 4898 C 438.964 3.21025 -4.23222 0
M  V30 4899 C 438.003 2.87495 -5.40382 0
M  V30 4900 N 437.14 4.02749 -5.75098 0
M  V30 4901 H 441.98 0.547973 -2.92919 0
M  V30 4902 H 439.517 0.258917 -1.44803 0
M  V30 4903 H 441.475 3.02729 -2.87073 0
M  V30 4904 H 440.105 2.69325 -1.77943 0
M  V30 4905 H 439.157 1.13482 -3.63078 0
M  V30 4906 H 440.469 1.69601 -4.69081 0
M  V30 4907 H 439.623 4.04561 -4.52123 0
M  V30 4908 H 438.362 3.52877 -3.36644 0
M  V30 4909 H 437.367 2.02367 -5.11202 0
M  V30 4910 H 438.592 2.56889 -6.28637 0
M  V30 4911 H 436.538 4.34494 -4.91478 0
M  V30 4912 H 436.455 3.77566 -6.54966 0
M  V30 4913 H 437.723 4.87068 -6.08592 0
M  V30 4914 N 441.952 1.55251 0.271103 0
M  V30 4915 C 442.915 1.87484 1.31842 0
M  V30 4916 C 443.915 0.749545 1.42262 0
M  V30 4917 O 445.105 1.01771 1.4138 0
M  V30 4918 C 442.237 2.0818 2.69951 0
M  V30 4919 H 443.43 2.81108 1.0449 0
M  V30 4920 H 440.983 1.47771 0.509258 0
M  V30 4921 H 441.718 1.16944 3.02481 0
M  V30 4922 H 441.503 2.90114 2.63774 0
M  V30 4923 H 442.993 2.34385 3.4562 0
M  V30 4924 N 443.43 -0.535701 1.48216 0
M  V30 4925 C 444.34 -1.66785 1.64985 0
M  V30 4926 C 445.356 -1.65654 0.532414 0
M  V30 4927 O 446.532 -1.8471 0.80275 0
M  V30 4928 C 443.597 -3.0326 1.68031 0
M  V30 4929 C 442.658 -3.1529 2.9136 0
M  V30 4930 C 441.891 -4.45255 2.94252 0
M  V30 4931 O 442.114 -5.32011 2.05719 0
M  V30 4932 O 441.048 -4.6153 3.86359 0
M  V30 4933 H 444.874 -1.55576 2.60825 0
M  V30 4934 H 442.459 -0.70815 1.31551 0
M  V30 4935 H 444.341 -3.84436 1.72589 0
M  V30 4936 H 443.016 -3.14805 0.753628 0
M  V30 4937 H 441.923 -2.3343 2.92337 0
M  V30 4938 H 443.256 -3.08658 3.83394 0
M  V30 4939 N 444.908 -1.36708 -0.784132 0
M  V30 4940 C 445.855 -1.31466 -1.89698 0
M  V30 4941 C 446.825 -0.18239 -1.65096 0
M  V30 4942 O 448.01 -0.369762 -1.87183 0
M  V30 4943 C 445.15 -1.1151 -3.26588 0
M  V30 4944 C 444.263 -2.33859 -3.63227 0
M  V30 4945 C 443.398 -2.06873 -4.89262 0
M  V30 4946 C 442.437 -3.25154 -5.18595 0
M  V30 4947 N 441.574 -2.978 -6.35814 0
M  V30 4948 H 446.414 -2.26619 -1.93515 0
M  V30 4949 H 443.951 -1.12625 -0.946256 0
M  V30 4950 H 445.909 -0.979653 -4.05535 0
M  V30 4951 H 444.539 -0.200103 -3.22179 0
M  V30 4952 H 443.591 -2.58188 -2.79362 0
M  V30 4953 H 444.903 -3.22109 -3.8085 0
M  V30 4954 H 444.057 -1.90289 -5.76086 0
M  V30 4955 H 442.796 -1.15942 -4.73718 0
M  V30 4956 H 441.801 -3.42292 -4.30251 0
M  V30 4957 H 443.026 -4.1692 -5.36055 0
M  V30 4958 H 440.972 -2.09485 -6.21653 0
M  V30 4959 H 440.889 -3.7959 -6.53794 0
M  V30 4960 H 442.157 -2.84805 -7.25607 0
M  V30 4961 N 446.386 1.0089 -1.21074 0
M  V30 4962 C 447.333 2.09588 -0.966512 0
M  V30 4963 C 448.303 1.65761 0.106089 0
M  V30 4964 O 449.488 1.90758 -0.0402287 0
M  V30 4965 C 446.628 3.40958 -0.533058 0
M  V30 4966 C 445.741 3.9822 -1.67467 0
M  V30 4967 C 444.876 5.17682 -1.19076 0
M  V30 4968 C 443.915 5.67043 -2.30496 0
M  V30 4969 N 443.052 6.77759 -1.83267 0
M  V30 4970 H 447.892 2.29815 -1.89708 0
M  V30 4971 H 445.429 1.12689 -0.945489 0
M  V30 4972 H 447.387 4.1637 -0.263019 0
M  V30 4973 H 446.017 3.20781 0.360505 0
M  V30 4974 H 445.069 3.1983 -2.05944 0
M  V30 4975 H 446.381 4.3085 -2.51336 0
M  V30 4976 H 445.535 6.00326 -0.877151 0
M  V30 4977 H 444.274 4.86635 -0.322066 0
M  V30 4978 H 443.279 4.82999 -2.62664 0
M  V30 4979 H 444.504 6.00121 -3.17855 0
M  V30 4980 H 442.45 6.48527 -0.987356 0
M  V30 4981 H 442.367 7.09624 -2.60711 0
M  V30 4982 H 443.635 7.63949 -1.54928 0
M  V30 4983 N 447.864 1.01787 1.20321 0
M  V30 4984 C 449.28 0.732951 1.41774 0
M  V30 4985 C 449.48 -0.686883 1.89431 0
M  V30 4986 O 448.536 -1.45446 2.06402 0
M  V30 4987 C 449.849 1.75973 2.43832 0
M  V30 4988 C 451.397 1.77802 2.57596 0
M  V30 4989 C 451.872 2.7941 3.62897 0
M  V30 4990 N 453.363 2.78157 3.70382 0
M  V30 4991 C 454.098 3.53434 4.51521 0
M  V30 4992 N 453.594 4.38392 5.36455 0
M  V30 4993 N 455.387 3.42026 4.46066 0
M  V30 4994 H 447.538 1.93447 0.877035 0
M  V30 4995 H 449.801 0.835712 0.447536 0
M  V30 4996 H 449.507 2.77699 2.15815 0
M  V30 4997 H 449.381 1.57292 3.4284 0
M  V30 4998 H 451.768 0.767602 2.84942 0
M  V30 4999 H 451.849 2.00557 1.58779 0
M  V30 5000 H 451.493 3.80616 3.36295 0
M  V30 5001 H 451.423 2.53916 4.61339 0
M  V30 5002 H 453.914 2.16531 3.09714 0
M  V30 5003 H 454.227 4.92596 5.95457 0
M  V30 5004 H 452.572 4.4247 5.35953 0
M  V30 5005 H 455.763 2.75075 3.78749 0
M  V30 5006 H 455.936 4.00946 5.09064 0
M  V30 5007 N 449.342 -1.36122 0.79427 0
M  V30 5008 C 450.272 -2.32551 0.210328 0
M  V30 5009 C 451.253 -1.56884 -0.657386 0
M  V30 5010 O 452.438 -1.85014 -0.590207 0
M  V30 5011 C 449.568 -3.41128 -0.651819 0
M  V30 5012 C 448.522 -4.27842 0.116395 0
M  V30 5013 C 447.848 -5.2763 -0.86666 0
M  V30 5014 C 449.148 -5.05647 1.30837 0
M  V30 5015 H 450.842 -2.81636 1.01594 0
M  V30 5016 H 448.388 -1.35407 0.489981 0
M  V30 5017 H 450.341 -4.07581 -1.07031 0
M  V30 5018 H 449.065 -2.90622 -1.49019 0
M  V30 5019 H 447.724 -3.62952 0.515915 0
M  V30 5020 H 447.372 -4.73395 -1.70019 0
M  V30 5021 H 447.072 -5.86514 -0.35705 0
M  V30 5022 H 448.596 -5.96955 -1.28361 0
M  V30 5023 H 450.01 -5.65113 0.965393 0
M  V30 5024 H 448.407 -5.73967 1.75161 0
M  V30 5025 H 449.477 -4.37006 2.10128 0
M  V30 5026 N 450.82 -0.546701 -1.47814 0
M  V30 5027 C 451.75 0.195317 -2.32682 0
M  V30 5028 C 452.731 0.918981 -1.43139 0
M  V30 5029 O 453.916 0.901501 -1.72008 0
M  V30 5030 C 451.046 1.23237 -3.247 0
M  V30 5031 C 450 0.625818 -4.234 0
M  V30 5032 C 449.326 1.76674 -5.04669 0
M  V30 5033 C 450.626 -0.413515 -5.2066 0
M  V30 5034 H 452.32 -0.513184 -2.94969 0
M  V30 5035 H 449.866 -0.248241 -1.41844 0
M  V30 5036 H 451.819 1.75955 -3.82907 0
M  V30 5037 H 450.543 1.97067 -2.60446 0
M  V30 5038 H 449.202 0.120023 -3.66403 0
M  V30 5039 H 448.85 2.49383 -4.36826 0
M  V30 5040 H 448.55 1.36673 -5.71484 0
M  V30 5041 H 450.074 2.29738 -5.65732 0
M  V30 5042 H 451.488 0.0272042 -5.73294 0
M  V30 5043 H 449.885 -0.731825 -5.95621 0
M  V30 5044 H 450.955 -1.31325 -4.66778 0
M  V30 5045 N 452.299 1.55045 -0.282633 0
M  V30 5046 C 453.545 2.00056 0.332481 0
M  V30 5047 C 453.878 1.1708 1.54939 0
M  V30 5048 O 453.153 0.2427 1.9298 0
M  V30 5049 C 453.436 3.53086 0.70725 0
M  V30 5050 C 453.289 4.46813 -0.517521 0
M  V30 5051 C 454.608 4.12245 1.54084 0
M  V30 5052 H 451.727 0.727268 0.119373 0
M  V30 5053 H 454.369 1.85932 -0.391076 0
M  V30 5054 H 452.519 3.65253 1.32372 0
M  V30 5055 H 454.191 4.46579 -1.15607 0
M  V30 5056 H 452.434 4.18163 -1.1542 0
M  V30 5057 H 453.105 5.51595 -0.211426 0
M  V30 5058 H 455.581 4.03401 1.02013 0
M  V30 5059 H 454.457 5.19515 1.77186 0
M  V30 5060 H 454.718 3.62951 2.52427 0
M  V30 5061 N 453.777 0.010035 1.57597 0
M  V30 5062 C 454.74 -0.963029 2.07986 0
M  V30 5063 C 455.74 -1.26619 0.991173 0
M  V30 5064 O 456.93 -1.2097 1.25347 0
M  V30 5065 C 454.062 -2.2851 2.52974 0
M  V30 5066 H 455.255 -0.526971 2.95234 0
M  V30 5067 H 452.808 -0.237639 1.54483 0
M  V30 5068 H 453.543 -2.76784 1.69 0
M  V30 5069 H 453.328 -2.07824 3.32493 0
M  V30 5070 H 454.818 -2.98294 2.9225 0
M  V30 5071 N 455.255 -1.55392 -0.262866 0
M  V30 5072 C 456.202 -1.88966 -1.32516 0
M  V30 5073 C 457.172 -0.742187 -1.48596 0
M  V30 5074 O 458.357 -0.99439 -1.62839 0
M  V30 5075 C 455.497 -2.17592 -2.67858 0
M  V30 5076 C 454.61 -3.45061 -2.59917 0
M  V30 5077 C 453.745 -3.63336 -3.87505 0
M  V30 5078 C 452.784 -4.84462 -3.74116 0
M  V30 5079 N 451.921 -4.99342 -4.93561 0
M  V30 5080 H 456.761 -2.79566 -1.03184 0
M  V30 5081 H 454.298 -1.38404 -0.498285 0
M  V30 5082 H 456.256 -2.3219 -3.46617 0
M  V30 5083 H 454.886 -1.30215 -2.95371 0
M  V30 5084 H 453.938 -3.38881 -1.72812 0
M  V30 5085 H 455.25 -4.3396 -2.45926 0
M  V30 5086 H 454.404 -3.77807 -4.74707 0
M  V30 5087 H 453.143 -2.72641 -4.04374 0
M  V30 5088 H 452.148 -4.69985 -2.85297 0
M  V30 5089 H 453.373 -5.76603 -3.58757 0
M  V30 5090 H 451.319 -4.1158 -5.10821 0
M  V30 5091 H 451.236 -5.82303 -4.82141 0
M  V30 5092 H 452.504 -5.18208 -5.82306 0
M  V30 5093 N 456.733 0.527833 -1.48498 0
M  V30 5094 C 457.666 1.64892 -1.57753 0
M  V30 5095 C 458.644 1.5687 -0.427867 0
M  V30 5096 O 459.828 1.77311 -0.639764 0
M  V30 5097 C 456.955 3.03301 -1.50752 0
M  V30 5098 C 456.001 3.29675 -2.70586 0
M  V30 5099 S 456.834 3.15712 -4.32535 0
M  V30 5100 C 457.99 4.56564 -4.28136 0
M  V30 5101 H 458.223 1.56792 -2.52594 0
M  V30 5102 H 455.756 0.710959 -1.37057 0
M  V30 5103 H 457.714 3.83123 -1.474 0
M  V30 5104 H 456.375 3.08839 -0.572454 0
M  V30 5105 H 455.568 4.3065 -2.61833 0
M  V30 5106 H 455.17 2.57526 -2.71212 0
M  V30 5107 H 457.462 5.48126 -3.98201 0
M  V30 5108 H 458.405 4.70371 -5.29298 0
M  V30 5109 H 458.813 4.35987 -3.58574 0
M  V30 5110 N 458.211 1.37122 0.776871 0
M  V30 5111 C 459.46 1.31373 1.53049 0
M  V30 5112 C 459.773 -0.101016 1.95339 0
M  V30 5113 O 460.979 -0.280953 2.70042 0
M  V30 5114 C 459.435 2.30567 2.76346 0
M  V30 5115 C 459.043 3.77543 2.41175 0
M  V30 5116 C 460.787 2.33818 3.54301 0
M  V30 5117 C 458.694 4.68481 3.60943 0
M  V30 5118 H 457.624 0.488234 0.574581 0
M  V30 5119 H 460.275 1.62554 0.851372 0
M  V30 5120 H 458.657 1.92396 3.46121 0
M  V30 5121 H 459.831 4.24521 1.79216 0
M  V30 5122 H 458.146 3.77187 1.76405 0
M  V30 5123 H 460.743 2.98965 4.4331 0
M  V30 5124 H 461.086 1.3503 3.93793 0
M  V30 5125 H 461.619 2.7067 2.91518 0
M  V30 5126 H 458.358 5.68378 3.26537 0
M  V30 5127 H 457.878 4.2621 4.22025 0
M  V30 5128 H 459.557 4.85366 4.27819 0
M  V30 5129 N 459.689 -1.00246 1.21608 0
M  V30 5130 C 460.966 -1.71336 0.943568 0
M  V30 5131 C 461.346 -2.03972 -0.543943 0
M  V30 5132 O 460.694 -1.71545 -1.50946 0
M  V30 5133 C 460.904 -2.97094 1.83128 0
M  V30 5134 C 462.252 -3.70071 2.08165 0
M  V30 5135 O 463.276 -3.07081 1.80498 0
M  V30 5136 O 462.135 -4.83376 2.54971 0
M  V30 5137 H 459.229 -0.747386 0.354039 0
M  V30 5138 H 461.775 -1.05967 1.32549 0
M  V30 5139 H 460.547 -2.69407 2.83788 0
M  V30 5140 H 460.17 -3.70204 1.45034 0
M  V30 5141 N 461.167 -1.02423 -1.1978 0
M  V30 5142 C 462.097 -0.62157 -2.25075 0
M  V30 5143 C 463.078 0.367148 -1.6609 0
M  V30 5144 O 464.263 0.250892 -1.92573 0
M  V30 5145 C 461.393 0.0331826 -3.47284 0
M  V30 5146 C 460.347 -0.877323 -4.18912 0
M  V30 5147 C 459.673 -0.0879296 -5.34628 0
M  V30 5148 C 460.973 -2.18892 -4.74219 0
M  V30 5149 H 462.667 -1.50179 -2.59011 0
M  V30 5150 H 460.213 -0.723547 -1.24502 0
M  V30 5151 H 462.166 0.326488 -4.20133 0
M  V30 5152 H 460.89 0.948164 -3.12534 0
M  V30 5153 H 459.549 -1.15475 -3.47938 0
M  V30 5154 H 459.197 0.828941 -4.96123 0
M  V30 5155 H 458.897 -0.694359 -5.83483 0
M  V30 5156 H 460.421 0.198743 -6.10276 0
M  V30 5157 H 461.835 -1.95746 -5.38847 0
M  V30 5158 H 460.232 -2.74686 -5.33542 0
M  V30 5159 H 461.302 -2.84674 -3.92541 0
M  V30 5160 N 462.645 1.35699 -0.801477 0
M  V30 5161 C 463.592 2.29876 -0.206294 0
M  V30 5162 C 464.562 1.52565 0.656752 0
M  V30 5163 O 465.747 1.81024 0.602906 0
M  V30 5164 C 462.887 3.39052 0.643272 0
M  V30 5165 C 462 4.31335 -0.239644 0
M  V30 5166 C 461.135 5.27599 0.61744 0
M  V30 5167 C 460.174 6.11521 -0.26619 0
M  V30 5168 N 459.311 6.99938 0.550571 0
M  V30 5169 H 464.151 2.80187 -1.01484 0
M  V30 5170 H 461.688 1.37902 -0.511997 0
M  V30 5171 H 463.646 4.0101 1.15094 0
M  V30 5172 H 462.276 2.9003 1.41713 0
M  V30 5173 H 461.328 3.70426 -0.865381 0
M  V30 5174 H 462.64 4.90243 -0.919985 0
M  V30 5175 H 461.794 5.94906 1.19045 0
M  V30 5176 H 460.533 4.69176 1.33137 0
M  V30 5177 H 459.538 5.43166 -0.851507 0
M  V30 5178 H 460.763 6.72022 -0.9779 0
M  V30 5179 H 458.709 6.44008 1.24856 0
M  V30 5180 H 458.626 7.55966 -0.071832 0
M  V30 5181 H 459.894 7.71599 1.10702 0
M  V30 5182 N 464.123 0.554532 1.47522 0
M  V30 5183 C 465.073 -0.215008 2.26984 0
M  V30 5184 C 466.057 -0.88774 1.34194 0
M  V30 5185 O 467.249 -0.786489 1.58567 0
M  V30 5186 C 464.378 -1.24604 3.19889 0
M  V30 5187 C 463.464 -0.576857 4.20159 0
M  V30 5188 N 463.855 0.351541 5.04577 0
M  V30 5189 C 462.153 -0.831104 4.38188 0
M  V30 5190 C 462.854 0.739995 5.76974 0
M  V30 5191 N 461.83 0.0954407 5.43516 0
M  V30 5192 H 465.632 0.498843 2.89636 0
M  V30 5193 H 463.146 0.374279 1.58028 0
M  V30 5194 H 465.143 -1.81128 3.75498 0
M  V30 5195 H 463.803 -1.96101 2.58794 0
M  V30 5196 H 464.814 0.725556 5.12792 0
M  V30 5197 H 461.491 -1.53479 3.88266 0
M  V30 5198 H 462.881 1.50271 6.5488 0
M  V30 5199 N 465.601 -1.54893 0.290851 0
M  V30 5200 C 466.829 -2.04343 -0.324288 0
M  V30 5201 C 467.244 -1.16859 -1.48289 0
M  V30 5202 O 466.601 -0.192018 -1.81487 0
M  V30 5203 C 466.652 -3.52756 -0.79026 0
M  V30 5204 O 466.373 -4.36913 0.322213 0
M  V30 5205 C 467.874 -4.18161 -1.4716 0
M  V30 5206 H 465.094 -0.667135 -0.0719173 0
M  V30 5207 H 467.638 -1.99981 0.427529 0
M  V30 5208 H 465.793 -3.57511 -1.49213 0
M  V30 5209 H 466.207 -5.24486 -0.0387372 0
M  V30 5210 H 467.681 -5.23562 -1.7489 0
M  V30 5211 H 468.158 -3.67282 -2.40834 0
M  V30 5212 H 468.764 -4.17454 -0.813178 0
M  V30 5213 N 467.08 -0.0183926 -1.57589 0
M  V30 5214 C 467.99 0.982943 -2.13015 0
M  V30 5215 C 469.006 1.36443 -1.07979 0
M  V30 5216 O 470.182 1.44802 -1.3998 0
M  V30 5217 C 467.247 2.25024 -2.63752 0
M  V30 5218 C 466.308 1.93018 -3.83461 0
M  V30 5219 C 465.541 3.13706 -4.31769 0
M  V30 5220 O 465.764 4.2601 -3.79305 0
M  V30 5221 O 464.698 2.96629 -5.23732 0
M  V30 5222 H 468.524 0.541709 -2.9883 0
M  V30 5223 H 466.109 0.201565 -1.48034 0
M  V30 5224 H 467.991 2.99441 -2.96502 0
M  V30 5225 H 466.666 2.68349 -1.81026 0
M  V30 5226 H 465.573 1.16019 -3.55655 0
M  V30 5227 H 466.906 1.54516 -4.67317 0
M  V30 5228 N 468.558 1.5553 0.254621 0
M  V30 5229 C 469.468 1.92789 1.33677 0
M  V30 5230 C 470.484 0.827356 1.53071 0
M  V30 5231 O 471.66 1.12807 1.66843 0
M  V30 5232 C 468.725 2.20827 2.67275 0
M  V30 5233 C 467.786 3.4427 2.5647 0
M  V30 5234 C 467.019 3.70961 3.83697 0
M  V30 5235 O 467.242 2.99852 4.85227 0
M  V30 5236 O 466.176 4.64491 3.82794 0
M  V30 5237 H 470.002 2.84945 1.05071 0
M  V30 5238 H 467.587 1.42312 0.454723 0
M  V30 5239 H 469.469 2.40204 3.46237 0
M  V30 5240 H 468.144 1.31851 2.9563 0
M  V30 5241 H 467.051 3.30209 1.75821 0
M  V30 5242 H 468.384 4.33524 2.33062 0
M  V30 5243 N 470.036 -0.519951 1.48776 0
M  V30 5244 C 471.282 -1.27456 1.58514 0
M  V30 5245 C 471.637 -1.90634 0.260057 0
M  V30 5246 O 470.93 -1.76815 -0.738036 0
M  V30 5247 C 471.124 -2.37864 2.6675 0
M  V30 5248 C 470.953 -1.85509 4.09654 0
M  V30 5249 C 469.723 -1.67661 4.76674 0
M  V30 5250 C 471.921 -1.37783 4.955 0
M  V30 5251 N 469.903 -1.10037 6.03958 0
M  V30 5252 C 471.274 -0.921714 6.1311 0
M  V30 5253 C 473.329 -1.26179 4.81646 0
M  V30 5254 C 472.032 -0.361057 7.18393 0
M  V30 5255 C 474.058 -0.715121 5.8706 0
M  V30 5256 C 473.42 -0.269132 7.03886 0
M  V30 5257 H 469.519 -0.457049 0.634531 0
M  V30 5258 H 472.103 -0.585073 1.85701 0
M  V30 5259 H 470.274 -3.04296 2.41367 0
M  V30 5260 H 472.006 -3.04901 2.66116 0
M  V30 5261 H 468.761 -1.91478 4.33166 0
M  V30 5262 H 469.185 -0.832067 6.71867 0
M  V30 5263 H 473.827 -1.59263 3.91657 0
M  V30 5264 H 471.545 -0.0179127 8.08098 0
M  V30 5265 H 475.131 -0.628376 5.78397 0
M  V30 5266 H 474.011 0.14729 7.84062 0
M  V30 5267 N 471.514 -1.37532 -0.769588 0
M  V30 5268 C 472.477 -1.33292 -1.86456 0
M  V30 5269 C 473.477 -0.236537 -1.59051 0
M  V30 5270 O 474.667 -0.492511 -1.67093 0
M  V30 5271 C 471.799 -1.07118 -3.23633 0
M  V30 5272 H 472.992 -2.30692 -1.91628 0
M  V30 5273 H 470.545 -1.22593 -0.969572 0
M  V30 5274 H 471.28 -0.102578 -3.24138 0
M  V30 5275 H 471.065 -1.86479 -3.44917 0
M  V30 5276 H 472.555 -1.06806 -4.03711 0
M  V30 5277 N 472.992 0.995999 -1.22138 0
M  V30 5278 C 474.269 1.70834 -0.952642 0
M  V30 5279 C 474.649 2.04257 0.533119 0
M  V30 5280 O 473.997 1.72343 1.50034 0
M  V30 5281 C 474.207 2.96119 -1.84701 0
M  V30 5282 C 475.555 3.68962 -2.10124 0
M  V30 5283 O 476.579 3.0612 -1.82124 0
M  V30 5284 O 475.438 4.82017 -2.57531 0
M  V30 5285 H 472.532 0.745498 -0.357997 0
M  V30 5286 H 475.078 1.05262 -1.33109 0
M  V30 5287 H 473.85 2.67898 -2.85213 0
M  V30 5288 H 473.473 3.6943 -1.46995 0
M  V30 5289 N 474.47 1.03057 1.19235 0
M  V30 5290 C 475.433 0.617418 2.20727 0
M  V30 5291 C 476.433 -0.319856 1.57587 0
M  V30 5292 O 477.623 -0.106633 1.73873 0
M  V30 5293 C 474.755 -0.096296 3.40764 0
M  V30 5294 H 475.948 1.51544 2.58794 0
M  V30 5295 H 473.501 0.821949 1.32942 0
M  V30 5296 H 474.236 -1.00859 3.08217 0
M  V30 5297 H 474.021 0.577217 3.87828 0
M  V30 5298 H 475.511 -0.372219 4.15938 0
M  V30 5299 N 475.948 -1.35272 0.808662 0
M  V30 5300 C 477.197 -1.97963 0.386483 0
M  V30 5301 C 477.51 -1.64866 -1.05255 0
M  V30 5302 O 478.716 -2.20937 -1.57794 0
M  V30 5303 C 477.172 -3.54162 0.640096 0
M  V30 5304 C 476.78 -3.96166 2.0918 0
M  V30 5305 C 478.524 -4.23553 0.283376 0
M  V30 5306 C 476.431 -5.4522 2.29106 0
M  V30 5307 H 475.361 -0.740742 0.140774 0
M  V30 5308 H 478.012 -1.5431 0.993012 0
M  V30 5309 H 476.394 -3.95983 -0.0364117 0
M  V30 5310 H 477.568 -3.65491 2.80629 0
M  V30 5311 H 475.883 -3.3967 2.40859 0
M  V30 5312 H 478.48 -5.33124 0.410273 0
M  V30 5313 H 478.823 -4.09105 -0.770659 0
M  V30 5314 H 479.356 -3.8716 0.913884 0
M  V30 5315 H 476.095 -5.64638 3.32962 0
M  V30 5316 H 475.615 -5.77457 1.62184 0
M  V30 5317 H 477.294 -6.1171 2.1076 0
M  V30 5318 N 477.426 -0.562348 -1.47226 0
M  V30 5319 C 478.389 0.172056 -2.28553 0
M  V30 5320 C 479.389 0.837928 -1.37242 0
M  V30 5321 O 480.579 0.693001 -1.59822 0
M  V30 5322 C 477.711 1.25223 -3.17068 0
M  V30 5323 H 478.904 -0.542401 -2.94954 0
M  V30 5324 H 476.457 -0.319493 -1.53 0
M  V30 5325 H 477.192 1.99892 -2.55369 0
M  V30 5326 H 476.977 0.779515 -3.84273 0
M  V30 5327 H 478.467 1.76791 -3.78332 0
M  V30 5328 N 478.904 1.54736 -0.299062 0
M  V30 5329 C 480.32 1.59507 0.0543849 0
M  V30 5330 C 480.52 1.31606 1.52585 0
M  V30 5331 O 479.576 1.08853 2.27832 0
M  V30 5332 C 480.889 2.98751 -0.34181 0
M  V30 5333 C 482.437 3.1165 -0.290414 0
M  V30 5334 C 482.912 4.53199 -0.661402 0
M  V30 5335 N 484.403 4.59114 -0.613863 0
M  V30 5336 C 485.138 5.66709 -0.873417 0
M  V30 5337 N 484.634 6.82349 -1.19884 0
M  V30 5338 N 486.427 5.56369 -0.800608 0
M  V30 5339 H 478.578 1.71133 -1.25806 0
M  V30 5340 H 480.841 0.799186 -0.509908 0
M  V30 5341 H 480.547 3.24085 -1.36608 0
M  V30 5342 H 480.421 3.75961 0.305508 0
M  V30 5343 H 482.808 2.86066 0.724605 0
M  V30 5344 H 482.889 2.366 -0.972327 0
M  V30 5345 H 482.533 4.79513 -1.67422 0
M  V30 5346 H 482.463 5.26583 0.0425612 0
M  V30 5347 H 484.954 3.76053 -0.3732 0
M  V30 5348 H 485.267 7.60326 -1.38291 0
M  V30 5349 H 483.612 6.83906 -1.23685 0
M  V30 5350 H 486.803 4.64904 -0.546045 0
M  V30 5351 H 486.976 6.40139 -1.00626 0
M  V30 5352 N 480.382 0.0267497 1.57577 0
M  V30 5353 C 481.61 -0.662661 1.96001 0
M  V30 5354 C 482.025 -1.65799 0.903117 0
M  V30 5355 O 481.382 -1.82135 -0.115317 0
M  V30 5356 C 481.433 -1.37112 3.34488 0
M  V30 5357 O 481.154 -0.415683 4.36123 0
M  V30 5358 C 482.655 -2.15257 3.8753 0
M  V30 5359 H 479.875 -0.18287 0.6456 0
M  V30 5360 H 482.419 0.0858116 2.0432 0
M  V30 5361 H 480.574 -2.07101 3.27395 0
M  V30 5362 H 480.988 -0.918496 5.16395 0
M  V30 5363 H 482.462 -2.60285 4.86781 0
M  V30 5364 H 482.939 -2.99063 3.21649 0
M  V30 5365 H 483.545 -1.50231 3.97883 0
M  V30 5366 N 481.861 -1.55662 -0.24637 0
M  V30 5367 C 483.138 -1.68272 -0.997198 0
M  V30 5368 C 483.518 -0.566785 -2.03349 0
M  V30 5369 O 482.866 0.429688 -2.24424 0
M  V30 5370 C 483.076 -3.08594 -1.63006 0
M  V30 5371 C 484.424 -3.6721 -2.13171 0
M  V30 5372 O 485.448 -3.11397 -1.72946 0
M  V30 5373 O 484.307 -4.65054 -2.87031 0
M  V30 5374 H 481.401 -0.684429 -0.464205 0
M  V30 5375 H 483.947 -1.67993 -0.240114 0
M  V30 5376 H 482.719 -3.81264 -0.880527 0
M  V30 5377 H 482.342 -3.12886 -2.45333 0
M  V30 5378 N 483.339 0.512053 -1.4905 0
M  V30 5379 C 484.564 1.2959 -1.6193 0
M  V30 5380 C 484.989 1.85906 -0.286454 0
M  V30 5381 O 484.347 1.65312 0.744426 0
M  V30 5382 C 484.395 2.40987 -2.68249 0
M  V30 5383 O 483.499 3.44531 -2.26654 0
M  V30 5384 H 482.84 0.383053 -0.542371 0
M  V30 5385 H 485.37 0.614231 -1.95162 0
M  V30 5386 H 485.38 2.86913 -2.90078 0
M  V30 5387 H 484.055 1.99361 -3.65004 0
M  V30 5388 H 482.632 3.046 -2.15112 0
M  V30 5389 N 484.817 1.37938 0.762283 0
M  V30 5390 C 486.045 1.36883 1.55147 0
M  V30 5391 C 486.46 -0.0435348 1.8875 0
M  V30 5392 O 485.817 -1.00786 1.52146 0
M  V30 5393 C 485.868 2.21624 2.85596 0
M  V30 5394 O 485.589 3.57358 2.5343 0
M  V30 5395 C 487.09 2.28653 3.7978 0
M  V30 5396 H 484.31 0.468521 0.480343 0
M  V30 5397 H 486.854 1.81404 0.944079 0
M  V30 5398 H 485.009 1.80588 3.42734 0
M  V30 5399 H 485.423 4.01883 3.37032 0
M  V30 5400 H 486.897 2.9225 4.68288 0
M  V30 5401 H 487.374 1.29767 4.19592 0
M  V30 5402 H 487.98 2.70043 3.28568 0
M  V30 5403 N 486.295 -0.989507 1.22664 0
M  V30 5404 C 487.541 -1.7321 1.05481 0
M  V30 5405 C 487.874 -1.89852 -0.408635 0
M  V30 5406 O 487.149 -1.44416 -1.30285 0
M  V30 5407 C 487.432 -3.1357 1.77047 0
M  V30 5408 C 487.285 -3.04555 3.31008 0
M  V30 5409 C 488.604 -4.12812 1.5256 0
M  V30 5410 H 485.723 -0.628697 0.384589 0
M  V30 5411 H 488.365 -1.15258 1.51049 0
M  V30 5412 H 486.515 -3.63046 1.3831 0
M  V30 5413 H 488.187 -2.62674 3.7921 0
M  V30 5414 H 486.43 -2.41278 3.6051 0
M  V30 5415 H 487.101 -4.03894 3.76263 0
M  V30 5416 H 489.577 -3.72106 1.86215 0
M  V30 5417 H 488.453 -5.09132 2.05124 0
M  V30 5418 H 488.714 -4.39711 0.458936 0
M  V30 5419 N 487.773 -1.03688 -1.18687 0
M  V30 5420 C 488.736 -0.629115 -2.20397 0
M  V30 5421 C 489.736 0.311495 -1.57754 0
M  V30 5422 O 490.926 0.0974107 -1.73927 0
M  V30 5423 C 488.058 0.0782231 -3.4081 0
M  V30 5424 H 489.251 -1.52915 -2.57987 0
M  V30 5425 H 486.804 -0.828988 -1.32505 0
M  V30 5426 H 487.539 0.992233 -3.08748 0
M  V30 5427 H 487.324 -0.597776 -3.87517 0
M  V30 5428 H 488.814 0.350156 -4.16129 0
M  V30 5429 N 489.251 1.34841 -0.815825 0
M  V30 5430 C 490.214 2.27959 -0.238185 0
M  V30 5431 C 491.214 1.49983 0.579816 0
M  V30 5432 O 492.404 1.69617 0.396953 0
M  V30 5433 C 489.536 3.34314 0.666876 0
M  V30 5434 H 490.729 2.80558 -1.05958 0
M  V30 5435 H 488.282 1.44852 -0.587156 0
M  V30 5436 H 489.017 2.86916 1.5116 0
M  V30 5437 H 488.802 3.92014 0.0819106 0
M  V30 5438 H 490.292 4.0379 1.06506 0
M  V30 5439 N 490.729 0.570148 1.46925 0
M  V30 5440 C 491.977 0.0508523 2.02036 0
M  V30 5441 C 492.298 -1.30885 1.44548 0
M  V30 5442 O 491.568 -1.85647 0.625453 0
M  V30 5443 H 490.148 0.0158088 0.746833 0
M  V30 5444 H 492.81 0.743086 1.80178 0
M  V30 5445 H 491.906 -0.027575 3.12088 0
M  V30 5446 N 492.207 -1.54576 0.307264 0
M  V30 5447 C 493.437 -2.04378 -0.302158 0
M  V30 5448 C 493.845 -1.18381 -1.47589 0
M  V30 5449 O 493.188 -0.20352 -1.82569 0
M  V30 5450 C 493.25 -3.50133 -0.815305 0
M  V30 5451 C 492.914 -4.56401 0.233977 0
M  V30 5452 C 493.911 -5.08884 1.06456 0
M  V30 5453 C 491.596 -5.0088 0.377478 0
M  V30 5454 C 493.59 -6.04394 2.02452 0
M  V30 5455 C 491.277 -5.96208 1.34088 0
M  V30 5456 C 492.275 -6.47849 2.16288 0
M  V30 5457 O 491.963 -7.41308 3.10994 0
M  V30 5458 H 491.695 -0.672502 -0.0686839 0
M  V30 5459 H 494.249 -2.00484 0.446682 0
M  V30 5460 H 492.479 -3.51371 -1.61478 0
M  V30 5461 H 494.168 -3.83098 -1.34129 0
M  V30 5462 H 494.934 -4.75311 0.964596 0
M  V30 5463 H 490.813 -4.60309 -0.252405 0
M  V30 5464 H 494.357 -6.44626 2.66652 0
M  V30 5465 H 490.254 -6.29198 1.44154 0
M  V30 5466 H 491.022 -7.5913 3.06045 0
M  V30 5467 N 493.685 -0.035106 -1.57561 0
M  V30 5468 C 494.632 0.94474 -2.10578 0
M  V30 5469 C 495.602 1.3192 -1.00927 0
M  V30 5470 O 496.787 1.41147 -1.28382 0
M  V30 5471 C 493.927 2.21982 -2.64231 0
M  V30 5472 C 493.04 1.90128 -3.87911 0
M  V30 5473 C 492.175 3.11975 -4.29936 0
M  V30 5474 C 491.214 2.75968 -5.46359 0
M  V30 5475 N 490.351 3.90459 -5.83512 0
M  V30 5476 H 495.191 0.485717 -2.94015 0
M  V30 5477 H 492.728 0.228143 -1.4532 0
M  V30 5478 H 494.686 2.96572 -2.9343 0
M  V30 5479 H 493.316 2.6549 -1.83616 0
M  V30 5480 H 492.368 1.05755 -3.65404 0
M  V30 5481 H 493.68 1.59613 -4.72573 0
M  V30 5482 H 492.834 3.9488 -4.60603 0
M  V30 5483 H 491.573 3.45657 -3.44053 0
M  V30 5484 H 490.578 1.91478 -5.1538 0
M  V30 5485 H 491.803 2.43497 -6.33945 0
M  V30 5486 H 489.749 4.23971 -5.00584 0
M  V30 5487 H 489.666 3.63588 -6.62827 0
M  V30 5488 H 490.934 4.7405 -6.18787 0
M  V30 5489 N 495.163 1.55791 0.238111 0
M  V30 5490 C 496.412 1.77234 0.962868 0
M  V30 5491 C 496.725 0.600661 1.86149 0
M  V30 5492 O 497.931 0.698315 2.62366 0
M  V30 5493 C 496.387 3.13808 1.76218 0
M  V30 5494 C 495.995 4.3865 0.910518 0
M  V30 5495 C 497.739 3.44585 2.47914 0
M  V30 5496 C 495.646 5.66252 1.70623 0
M  V30 5497 H 494.576 0.660731 0.36325 0
M  V30 5498 H 497.227 1.8221 0.217242 0
M  V30 5499 H 495.609 3.02963 2.55009 0
M  V30 5500 H 496.783 4.60507 0.164316 0
M  V30 5501 H 495.098 4.15271 0.30647 0
M  V30 5502 H 497.695 4.3714 3.07917 0
M  V30 5503 H 498.038 2.66314 3.19973 0
M  V30 5504 H 498.571 3.56685 1.76127 0
M  V30 5505 H 495.31 6.47369 1.02923 0
M  V30 5506 H 494.83 5.48483 2.42748 0
M  V30 5507 H 496.509 6.05829 2.27114 0
M  V30 5508 N 496.642 -0.504142 1.49319 0
M  V30 5509 C 497.552 -1.63248 1.68486 0
M  V30 5510 C 498.568 -1.64488 0.567432 0
M  V30 5511 O 499.744 -1.82966 0.841749 0
M  V30 5512 C 496.809 -2.99627 1.74426 0
M  V30 5513 C 495.87 -3.09039 2.97982 0
M  V30 5514 C 495.103 -4.38913 3.0363 0
M  V30 5515 O 495.326 -5.27528 2.16958 0
M  V30 5516 O 494.26 -4.53231 3.96062 0
M  V30 5517 H 498.086 -1.50008 2.64067 0
M  V30 5518 H 495.671 -0.680086 1.33023 0
M  V30 5519 H 497.553 -3.80689 1.80705 0
M  V30 5520 H 496.228 -3.13136 0.820233 0
M  V30 5521 H 495.135 -2.27177 2.97223 0
M  V30 5522 H 496.468 -3.00456 3.89855 0
M  V30 5523 N 498.12 -1.38341 -0.754957 0
M  V30 5524 C 499.531 -1.30803 -1.3322 0
M  V30 5525 C 499.882 0.0368 -1.96165 0
M  V30 5526 O 499.007 0.938844 -1.94974 0
M  V30 5527 C 499.602 -2.3688 -2.42225 0
M  V30 5528 C 498.161 -2.32925 -2.95674 0
M  V30 5529 C 497.308 -2.19819 -1.69042 0
M  V30 5530 H 500.259 -1.48719 -0.553937 0
M  V30 5531 H 500.28 -2.02517 -3.22129 0
M  V30 5532 H 499.792 -3.34747 -1.96383 0
M  V30 5533 H 497.893 -1.38635 -3.45848 0
M  V30 5534 H 498.006 -3.27008 -3.50146 0
M  V30 5535 H 496.37 -1.66648 -1.92615 0
M  V30 5536 H 497.153 -3.19625 -1.25279 0
M  V30 5537 N 499.598 0.982988 -1.23187 0
M  V30 5538 C 500.828 1.75666 -1.08743 0
M  V30 5539 C 501.236 1.85662 0.364195 0
M  V30 5540 O 500.579 1.33317 1.26382 0
M  V30 5541 C 500.641 3.20144 -1.63549 0
M  V30 5542 C 500.305 3.33665 -3.12277 0
M  V30 5543 C 501.302 3.20194 -4.096 0
M  V30 5544 C 498.987 3.58397 -3.51933 0
M  V30 5545 C 500.981 3.31256 -5.44563 0
M  V30 5546 C 498.668 3.69098 -4.87042 0
M  V30 5547 C 499.666 3.55537 -5.83166 0
M  V30 5548 O 499.354 3.65864 -7.1582 0
M  V30 5549 H 499.086 0.558194 -0.381307 0
M  V30 5550 H 501.64 1.24387 -1.63454 0
M  V30 5551 H 499.87 3.72659 -1.03256 0
M  V30 5552 H 501.559 3.79262 -1.4462 0
M  V30 5553 H 502.325 3.00987 -3.80305 0
M  V30 5554 H 498.204 3.68025 -2.77631 0
M  V30 5555 H 501.748 3.20588 -6.19572 0
M  V30 5556 H 497.645 3.87814 -5.16014 0
M  V30 5557 H 498.413 3.82675 -7.23534 0
M  V30 5558 N 501.076 1.04316 1.18135 0
M  V30 5559 C 502.026 0.606731 2.19779 0
M  V30 5560 C 503.01 -0.352144 1.56999 0
M  V30 5561 O 504.202 -0.170795 1.76174 0
M  V30 5562 C 501.331 -0.0262443 3.4329 0
M  V30 5563 C 500.417 0.955928 4.13186 0
M  V30 5564 N 500.808 2.12395 4.59045 0
M  V30 5565 C 499.106 0.782473 4.39082 0
M  V30 5566 C 499.807 2.74458 5.12882 0
M  V30 5567 N 498.783 2.02316 5.04548 0
M  V30 5568 H 502.585 1.49679 2.5293 0
M  V30 5569 H 500.099 0.912088 1.34368 0
M  V30 5570 H 502.096 -0.356617 4.15372 0
M  V30 5571 H 500.756 -0.911811 3.11635 0
M  V30 5572 H 501.767 2.50272 4.53414 0
M  V30 5573 H 498.444 -0.0527906 4.17467 0
M  V30 5574 H 499.834 3.73459 5.5855 0
M  V30 5575 N 502.554 -1.34406 0.822964 0
M  V30 5576 C 503.504 -2.26963 0.217208 0
M  V30 5577 C 504.488 -1.48536 -0.618545 0
M  V30 5578 O 505.68 -1.7056 -0.473118 0
M  V30 5579 C 502.809 -3.37655 -0.619973 0
M  V30 5580 C 501.895 -4.23495 0.226411 0
M  V30 5581 N 502.286 -4.88876 1.29744 0
M  V30 5582 C 500.584 -4.45999 0.0107554 0
M  V30 5583 C 501.285 -5.52642 1.81553 0
M  V30 5584 N 500.261 -5.31949 1.11942 0
M  V30 5585 H 504.063 -2.75017 1.03647 0
M  V30 5586 H 501.577 -1.48126 0.665777 0
M  V30 5587 H 503.574 -4.02932 -1.07011 0
M  V30 5588 H 502.234 -2.91151 -1.43739 0
M  V30 5589 H 503.245 -4.89886 1.68024 0
M  V30 5590 H 499.922 -4.10253 -0.774495 0
M  V30 5591 H 501.312 -6.14755 2.71156 0
M  V30 5592 N 504.032 -0.577932 -1.46621 0
M  V30 5593 C 504.964 0.195801 -2.28362 0
M  V30 5594 C 505.977 0.859983 -1.38232 0
M  V30 5595 O 507.166 0.730349 -1.62875 0
M  V30 5596 C 504.266 1.29639 -3.13124 0
M  V30 5597 C 503.439 0.725049 -4.31349 0
M  V30 5598 C 502.498 1.71274 -4.97546 0
M  V30 5599 O 501.524 1.25067 -5.5529 0
M  V30 5600 N 502.726 3.04672 -4.94121 0
M  V30 5601 H 505.491 -0.505468 -2.95407 0
M  V30 5602 H 503.052 -0.415381 -1.56481 0
M  V30 5603 H 505.044 1.95631 -3.54275 0
M  V30 5604 H 503.614 1.90059 -2.48186 0
M  V30 5605 H 502.834 -0.112205 -3.9404 0
M  V30 5606 H 504.122 0.323034 -5.07774 0
M  V30 5607 H 503.52 3.4484 -4.48444 0
M  V30 5608 H 502.077 3.66166 -5.39227 0
M  V30 5609 N 505.51 1.54411 -0.315457 0
M  V30 5610 C 506.757 2.00419 0.289543 0
M  V30 5611 C 507.085 1.20373 1.52776 0
M  V30 5612 O 506.34 0.271769 1.93804 0
M  V30 5613 C 506.639 3.50936 0.676652 0
M  V30 5614 C 506.305 4.48532 -0.461472 0
M  V30 5615 C 504.967 4.74936 -0.773879 0
M  V30 5616 C 507.319 5.06567 -1.22637 0
M  V30 5617 C 504.647 5.56634 -1.85405 0
M  V30 5618 C 506.999 5.89441 -2.29657 0
M  V30 5619 C 505.663 6.1415 -2.61488 0
M  V30 5620 H 504.933 0.733386 0.105951 0
M  V30 5621 H 507.58 1.86434 -0.437554 0
M  V30 5622 H 505.885 3.62606 1.48405 0
M  V30 5623 H 507.582 3.83971 1.15618 0
M  V30 5624 H 504.172 4.28096 -0.207893 0
M  V30 5625 H 508.356 4.86157 -0.998271 0
M  V30 5626 H 503.612 5.74012 -2.10523 0
M  V30 5627 H 507.786 6.33432 -2.89374 0
M  V30 5628 H 505.413 6.77245 -3.45317 0
M  V30 5629 N 506.988 0.0434614 1.5754 0
M  V30 5630 C 508.234 -0.627109 1.93491 0
M  V30 5631 C 508.589 -1.68904 0.921362 0
M  V30 5632 O 507.882 -1.91504 -0.0605799 0
M  V30 5633 C 508.076 -1.2738 3.3393 0
M  V30 5634 C 507.905 -0.27603 4.48852 0
M  V30 5635 C 506.675 0.129244 5.05135 0
M  V30 5636 C 508.873 0.475462 5.12098 0
M  V30 5637 N 506.855 1.12068 6.03584 0
M  V30 5638 C 508.226 1.32021 6.05781 0
M  V30 5639 C 510.281 0.534611 4.95022 0
M  V30 5640 C 508.984 2.2188 6.84223 0
M  V30 5641 C 511.01 1.42059 5.74085 0
M  V30 5642 C 510.372 2.25309 6.67394 0
M  V30 5643 H 506.471 -0.201354 0.755633 0
M  V30 5644 H 509.055 0.113991 1.94366 0
M  V30 5645 H 507.226 -1.98496 3.33847 0
M  V30 5646 H 508.958 -1.90255 3.57191 0
M  V30 5647 H 505.713 -0.248145 4.72949 0
M  V30 5648 H 506.137 1.61306 6.57502 0
M  V30 5649 H 510.779 -0.0947817 4.22694 0
M  V30 5650 H 508.497 2.85868 7.55847 0
M  V30 5651 H 512.083 1.47083 5.62901 0
M  V30 5652 H 510.963 2.92754 7.27506 0
M  V30 5653 N 508.466 -1.55915 -0.229846 0
M  V30 5654 C 509.414 -1.9258 -1.30444 0
M  V30 5655 C 510.408 -0.806839 -1.48951 0
M  V30 5656 O 511.614 -0.991606 -1.50224 0
M  V30 5657 H 507.989 -0.611878 -0.437161 0
M  V30 5658 H 509.96 -2.82264 -0.96797 0
M  V30 5659 C 508.709 -2.25171 -2.6494 0
M  V30 5660 H 508.032 -3.10782 -2.51504 0
M  V30 5661 H 509.472 -2.54716 -3.38963 0
M  V30 5662 C 507.931 -1.07394 -3.19324 0
M  V30 5663 O 508.461 -0.330759 -4.00336 0
M  V30 5664 N 506.667 -0.859984 -2.77584 0
M  V30 5665 H 506.214 -1.46605 -2.11813 0
M  V30 5666 H 506.172 -0.0736671 -3.14314 0
M  V30 5667 N 509.944 0.496216 -1.49584 0
M  V30 5668 C 511.192 1.24756 -1.58998 0
M  V30 5669 C 511.513 1.92968 -0.280775 0
M  V30 5670 O 510.783 1.82959 0.700198 0
M  V30 5671 H 509.363 0.463471 -0.585836 0
M  V30 5672 H 512.025 0.574678 -1.86235 0
M  V30 5673 H 511.121 2.00895 -2.38847 0
M  V30 5674 N 511.423 1.38739 0.74761 0
M  V30 5675 C 512.7 1.25791 1.49786 0
M  V30 5676 C 513.08 -0.138075 2.10648 0
M  V30 5677 O 512.428 -1.14815 1.9756 0
M  V30 5678 C 512.638 2.37265 2.55942 0
M  V30 5679 C 513.986 2.75978 3.22679 0
M  V30 5680 O 515.01 2.36621 2.6625 0
M  V30 5681 O 513.869 3.43867 4.24756 0
M  V30 5682 H 510.963 0.492251 0.664543 0
M  V30 5683 H 513.509 1.50582 0.782511 0
M  V30 5684 H 512.281 3.30644 2.0926 0
M  V30 5685 H 511.904 2.14071 3.35051 0
M  V30 5686 N 512.901 -0.976442 1.23707 0
M  V30 5687 C 514.131 -1.75087 1.09673 0
M  V30 5688 C 514.539 -1.85852 -0.354344 0
M  V30 5689 O 513.882 -1.33985 -1.25673 0
M  V30 5690 C 513.944 -3.19272 1.65245 0
M  V30 5691 C 513.608 -3.32004 3.14042 0
M  V30 5692 C 514.605 -3.18017 4.11292 0
M  V30 5693 C 512.29 -3.56525 3.53829 0
M  V30 5694 C 514.284 -3.28363 5.46312 0
M  V30 5695 C 511.971 -3.6651 4.88993 0
M  V30 5696 C 512.969 -3.52439 5.85043 0
M  V30 5697 O 512.657 -3.62063 7.1775 0
M  V30 5698 H 512.389 -0.556164 0.384262 0
M  V30 5699 H 514.943 -1.23518 1.64111 0
M  V30 5700 H 513.173 -3.72107 1.05231 0
M  V30 5701 H 514.862 -3.7849 1.46629 0
M  V30 5702 H 515.628 -2.98966 3.81896 0
M  V30 5703 H 511.507 -3.66547 2.79579 0
M  V30 5704 H 515.051 -3.17297 6.21263 0
M  V30 5705 H 510.948 -3.85072 5.18063 0
M  V30 5706 H 511.716 -3.78833 7.25553 0
M  V30 5707 N 514.379 -1.04941 -1.1758 0
M  V30 5708 C 515.625 -0.759112 -1.88057 0
M  V30 5709 C 515.958 0.711918 -1.8068 0
M  V30 5710 O 515.233 1.52035 -1.21308 0
M  V30 5711 C 515.516 -1.237 -3.38187 0
M  V30 5712 C 515.369 -2.77078 -3.54327 0
M  V30 5713 C 516.688 -0.834014 -4.32125 0
M  V30 5714 H 513.807 -0.277237 -0.682868 0
M  V30 5715 H 516.449 -1.30296 -1.38286 0
M  V30 5716 H 514.599 -0.774337 -3.80705 0
M  V30 5717 H 516.271 -3.31449 -3.20842 0
M  V30 5718 H 514.514 -3.16477 -2.96689 0
M  V30 5719 H 515.185 -3.05577 -4.59703 0
M  V30 5720 H 517.661 -1.23228 -3.97434 0
M  V30 5721 H 516.537 -1.19603 -5.35711 0
M  V30 5722 H 516.798 0.262195 -4.41322 0
M  V30 5723 N 515.857 1.33968 -0.830081 0
M  V30 5724 C 516.789 2.28194 -0.21448 0
M  V30 5725 C 517.802 1.5135 0.599752 0
M  V30 5726 O 518.991 1.73286 0.42826 0
M  V30 5727 C 516.091 3.31221 0.717356 0
M  V30 5728 C 515.264 4.37365 -0.055613 0
M  V30 5729 C 514.323 5.2011 0.798231 0
M  V30 5730 O 513.349 5.68691 0.240616 0
M  V30 5731 N 514.551 5.40523 2.11695 0
M  V30 5732 H 517.316 2.81662 -1.02405 0
M  V30 5733 H 514.877 1.46568 -0.687713 0
M  V30 5734 H 516.869 3.83477 1.29334 0
M  V30 5735 H 515.439 2.78095 1.42765 0
M  V30 5736 H 514.659 3.85727 -0.812936 0
M  V30 5737 H 515.947 5.05397 -0.587444 0
M  V30 5738 H 515.345 5.0274 2.59363 0
M  V30 5739 H 513.902 5.95871 2.64162 0
M  V30 5740 N 517.335 0.585699 1.46312 0
M  V30 5741 C 518.285 -0.166813 2.27389 0
M  V30 5742 C 519.269 -0.859076 1.36047 0
M  V30 5743 O 520.461 -0.752678 1.60199 0
M  V30 5744 C 517.59 -1.17791 3.2246 0
M  V30 5745 C 516.676 -0.487605 4.21288 0
M  V30 5746 N 517.067 0.45849 5.03718 0
M  V30 5747 C 515.365 -0.737971 4.39852 0
M  V30 5748 C 516.066 0.862213 5.75275 0
M  V30 5749 N 515.042 0.210707 5.43191 0
M  V30 5750 H 518.844 0.560167 2.88512 0
M  V30 5751 H 516.358 0.407715 1.57199 0
M  V30 5752 H 518.355 -1.73122 3.79255 0
M  V30 5753 H 517.015 -1.90568 2.62896 0
M  V30 5754 H 518.026 0.834163 5.11138 0
M  V30 5755 H 514.703 -1.45209 3.91434 0
M  V30 5756 H 516.093 1.64128 6.51546 0
M  V30 5757 N 518.813 -1.54241 0.323641 0
M  V30 5758 C 519.743 -2.27289 -0.534993 0
M  V30 5759 C 520.724 -1.28087 -1.11927 0
M  V30 5760 O 521.909 -1.56899 -1.14439 0
M  V30 5761 C 519.039 -3.03075 -1.69596 0
M  V30 5762 C 517.993 -4.09614 -1.24098 0
M  V30 5763 C 517.319 -4.73242 -2.4889 0
M  V30 5764 C 518.619 -5.21087 -0.355789 0
M  V30 5765 H 520.313 -2.99308 0.0743257 0
M  V30 5766 H 517.859 -1.43952 0.0371874 0
M  V30 5767 H 519.812 -3.52907 -2.30293 0
M  V30 5768 H 518.536 -2.28673 -2.33187 0
M  V30 5769 H 517.195 -3.60666 -0.656945 0
M  V30 5770 H 516.843 -3.95455 -3.10845 0
M  V30 5771 H 516.543 -5.45209 -2.19138 0
M  V30 5772 H 518.067 -5.25848 -3.10348 0
M  V30 5773 H 519.481 -5.66675 -0.869042 0
M  V30 5774 H 517.878 -5.9991 -0.151045 0
M  V30 5775 H 518.948 -4.81005 0.613339 0
M  V30 5776 N 520.291 -0.0518155 -1.57515 0
M  V30 5777 C 521.707 0.304735 -1.56664 0
M  V30 5778 C 521.907 1.71395 -1.05953 0
M  V30 5779 O 520.963 2.42123 -0.716414 0
M  V30 5780 C 522.276 0.132614 -3.00407 0
M  V30 5781 C 523.824 0.20367 -3.12337 0
M  V30 5782 C 524.299 0.0600706 -4.57961 0
M  V30 5783 N 525.79 0.116326 -4.63054 0
M  V30 5784 C 526.525 0.0293363 -5.73392 0
M  V30 5785 N 526.021 -0.110038 -6.92713 0
M  V30 5786 N 527.814 0.0849651 -5.62036 0
M  V30 5787 H 519.965 -0.973056 -1.888 0
M  V30 5788 H 522.228 -0.377781 -0.869474 0
M  V30 5789 H 521.934 -0.839019 -3.41546 0
M  V30 5790 H 521.808 0.893376 -3.66468 0
M  V30 5791 H 524.195 1.16578 -2.71097 0
M  V30 5792 H 524.276 -0.587857 -2.48954 0
M  V30 5793 H 523.92 -0.898715 -4.99886 0
M  V30 5794 H 523.85 0.87075 -5.19351 0
M  V30 5795 H 526.341 0.22327 -3.7724 0
M  V30 5796 H 526.654 -0.169104 -7.72615 0
M  V30 5797 H 524.999 -0.145132 -6.94848 0
M  V30 5798 H 528.19 0.192411 -4.67704 0
M  V30 5799 H 528.363 0.0137131 -6.47999 0
M  V30 5800 N 521.769 1.56035 0.221574 0
M  V30 5801 C 523.18 1.69229 0.788567 0
M  V30 5802 C 523.531 0.653814 1.84986 0
M  V30 5803 O 522.656 -0.195065 2.15519 0
M  V30 5804 C 523.251 3.06809 1.43713 0
M  V30 5805 C 521.81 3.21858 1.95152 0
M  V30 5806 C 520.957 2.65155 0.811685 0
M  V30 5807 H 523.908 1.587 -0.00307894 0
M  V30 5808 H 523.929 3.02666 2.30594 0
M  V30 5809 H 523.441 3.82369 0.664475 0
M  V30 5810 H 521.542 2.51167 2.7522 0
M  V30 5811 H 521.655 4.29073 2.1315 0
M  V30 5812 H 520.019 2.23635 1.21899 0
M  V30 5813 H 520.802 3.43261 0.0516987 0
M  V30 5814 N 523.247 -0.488276 1.49845 0
M  V30 5815 C 524.21 -1.57069 1.66919 0
M  V30 5816 C 525.21 -1.51445 0.540479 0
M  V30 5817 O 526.4 -1.5437 0.807188 0
M  V30 5818 C 523.532 -2.96718 1.67844 0
M  V30 5819 H 524.725 -1.43254 2.63474 0
M  V30 5820 H 522.278 -0.713435 1.39068 0
M  V30 5821 H 523.013 -3.15996 0.7292 0
M  V30 5822 H 522.798 -3.02208 2.49826 0
M  V30 5823 H 524.288 -3.75335 1.83066 0
M  V30 5824 N 524.725 -1.39134 -0.740242 0
M  V30 5825 C 525.955 -1.39132 -1.52728 0
M  V30 5826 C 526.363 0.0173133 -1.89192 0
M  V30 5827 O 525.706 0.997715 -1.54244 0
M  V30 5828 C 525.768 -2.1952 -2.84695 0
M  V30 5829 C 525.432 -3.68203 -2.70695 0
M  V30 5830 C 526.429 -4.61401 -2.39593 0
M  V30 5831 C 524.114 -4.11724 -2.8773 0
M  V30 5832 C 526.108 -5.96102 -2.25701 0
M  V30 5833 C 523.795 -5.46503 -2.73456 0
M  V30 5834 C 524.793 -6.38506 -2.42486 0
M  V30 5835 O 524.481 -7.70803 -2.28295 0
M  V30 5836 H 524.213 -0.477263 -0.478744 0
M  V30 5837 H 526.767 -1.83504 -0.922799 0
M  V30 5838 H 524.997 -1.69888 -3.47383 0
M  V30 5839 H 526.686 -2.1176 -3.46284 0
M  V30 5840 H 527.452 -4.29079 -2.26088 0
M  V30 5841 H 523.331 -3.4045 -3.10829 0
M  V30 5842 H 526.875 -6.6788 -2.0145 0
M  V30 5843 H 522.772 -5.78417 -2.86538 0
M  V30 5844 H 523.54 -7.8147 -2.43405 0
M  V30 5845 N 526.204 0.969867 -1.24223 0
M  V30 5846 C 527.429 1.75289 -1.10853 0
M  V30 5847 C 527.854 1.85091 0.335079 0
M  V30 5848 O 527.212 1.32024 1.24255 0
M  V30 5849 C 527.26 3.15255 -1.75062 0
M  V30 5850 O 526.364 3.99589 -1.01992 0
M  V30 5851 H 525.705 0.538904 -0.387915 0
M  V30 5852 H 528.235 1.21675 -1.64488 0
M  V30 5853 H 528.245 3.65787 -1.80731 0
M  V30 5854 H 526.92 3.07436 -2.801 0
M  V30 5855 H 525.497 3.58077 -1.04094 0
M  V30 5856 N 527.682 1.05563 1.17022 0
M  V30 5857 C 528.929 0.767937 1.87374 0
M  V30 5858 C 529.257 -0.705224 1.81265 0
M  V30 5859 O 528.512 -1.5318 1.21796 0
M  V30 5860 C 528.811 1.19849 3.36706 0
M  V30 5861 C 528.477 2.6745 3.63017 0
M  V30 5862 C 527.139 3.0777 3.69907 0
M  V30 5863 C 529.491 3.62811 3.74189 0
M  V30 5864 C 526.819 4.42307 3.85463 0
M  V30 5865 C 529.171 4.97087 3.91264 0
M  V30 5866 C 527.835 5.37055 3.96394 0
M  V30 5867 H 527.105 0.281008 0.68565 0
M  V30 5868 H 529.752 1.32339 1.38415 0
M  V30 5869 H 528.057 0.562096 3.87747 0
M  V30 5870 H 529.754 0.953038 3.8951 0
M  V30 5871 H 526.344 2.35228 3.58282 0
M  V30 5872 H 530.528 3.32798 3.68183 0
M  V30 5873 H 525.784 4.72769 3.87684 0
M  V30 5874 H 529.958 5.70869 3.9885 0
M  V30 5875 H 527.585 6.41308 4.082 0
M  V30 5876 N 529.16 -1.33526 0.837174 0
M  V30 5877 C 530.108 -2.31168 0.257698 0
M  V30 5878 C 531.102 -1.5806 -0.609388 0
M  V30 5879 O 532.308 -1.72941 -0.499139 0
M  V30 5880 H 528.683 -0.74922 0.0646058 0
M  V30 5881 H 530.654 -2.77552 1.09578 0
M  V30 5882 C 529.403 -3.4326 -0.553887 0
M  V30 5883 H 528.726 -3.99665 0.104008 0
M  V30 5884 H 530.166 -4.13782 -0.925219 0
M  V30 5885 C 528.625 -2.88965 -1.73207 0
M  V30 5886 O 529.155 -2.85013 -2.83073 0
M  V30 5887 N 527.361 -2.45596 -1.55342 0
M  V30 5888 H 526.908 -2.49009 -0.659705 0
M  V30 5889 H 526.866 -2.0962 -2.34322 0
M  V30 5890 N 530.638 -0.59345 -1.46 0
M  V30 5891 C 531.884 -0.0832754 -2.02629 0
M  V30 5892 C 532.217 1.27749 -1.46266 0
M  V30 5893 O 531.492 1.8395 -0.631866 0
M  V30 5894 C 531.775 -0.0290756 -3.60088 0
M  V30 5895 C 531.628 -1.41951 -4.26814 0
M  V30 5896 C 532.947 0.666055 -4.35031 0
M  V30 5897 H 530.066 -0.031736 -0.736316 0
M  V30 5898 H 532.708 -0.762711 -1.74019 0
M  V30 5899 H 530.858 0.549532 -3.84594 0
M  V30 5900 H 532.53 -2.04411 -4.13538 0
M  V30 5901 H 530.773 -1.98422 -3.8576 0
M  V30 5902 H 531.444 -1.33395 -5.3564 0
M  V30 5903 H 533.92 0.174401 -4.15734 0
M  V30 5904 H 532.796 0.673041 -5.44758 0
M  V30 5905 H 533.057 1.72946 -4.06869 0
M  V30 5906 N 532.116 1.54067 -0.331816 0
M  V30 5907 C 533.532 1.59587 0.0205388 0
M  V30 5908 C 533.732 1.34813 1.49759 0
M  V30 5909 O 532.788 1.13661 2.25471 0
M  V30 5910 C 534.101 2.97959 -0.405103 0
M  V30 5911 C 535.649 3.10964 -0.356454 0
M  V30 5912 C 536.124 4.51694 -0.757384 0
M  V30 5913 N 537.615 4.57709 -0.71111 0
M  V30 5914 C 538.35 5.64729 -0.993427 0
M  V30 5915 N 537.846 6.79652 -1.3433 0
M  V30 5916 N 539.639 5.54546 -0.918442 0
M  V30 5917 H 531.79 1.68426 -1.29407 0
M  V30 5918 H 534.053 0.78819 -0.526745 0
M  V30 5919 H 533.759 3.21115 -1.43451 0
M  V30 5920 H 533.633 3.76524 0.225692 0
M  V30 5921 H 536.02 2.87538 0.663763 0
M  V30 5922 H 536.101 2.34484 -1.02229 0
M  V30 5923 H 535.745 4.75853 -1.77555 0
M  V30 5924 H 535.675 5.26555 -0.0691444 0
M  V30 5925 H 538.166 3.75176 -0.452883 0
M  V30 5926 H 538.479 7.57221 -1.54388 0
M  V30 5927 H 536.824 6.81128 -1.38164 0
M  V30 5928 H 540.015 4.63641 -0.644536 0
M  V30 5929 H 540.188 6.37861 -1.14181 0
M  V30 5930 N 533.594 0.0601682 1.57485 0
M  V30 5931 C 534.527 -0.94676 2.07634 0
M  V30 5932 C 535.505 -1.29837 0.978826 0
M  V30 5933 O 536.689 -1.40969 1.2514 0
M  V30 5934 C 533.816 -2.25822 2.52433 0
M  V30 5935 C 532.862 -2.05901 3.73507 0
M  V30 5936 S 533.695 -1.32907 5.18745 0
M  V30 5937 C 534.851 -2.65356 5.66866 0
M  V30 5938 H 535.084 -0.520003 2.92717 0
M  V30 5939 H 532.617 -0.152319 1.53647 0
M  V30 5940 H 534.575 -3.01201 2.78905 0
M  V30 5941 H 533.236 -2.65624 1.67639 0
M  V30 5942 H 532.429 -3.02929 4.02803 0
M  V30 5943 H 532.031 -1.38659 3.47347 0
M  V30 5944 H 534.323 -3.61492 5.73001 0
M  V30 5945 H 535.266 -2.40685 6.6594 0
M  V30 5946 H 535.674 -2.72028 4.94632 0
M  V30 5947 N 535.072 -1.5615 -0.213296 0
M  V30 5948 C 536.318 -1.79812 -0.937849 0
M  V30 5949 C 536.651 -0.631201 -1.83656 0
M  V30 5950 O 535.926 0.369165 -1.90964 0
M  V30 5951 C 536.209 -3.13613 -1.76972 0
M  V30 5952 C 536.062 -4.40766 -0.89695 0
M  V30 5953 C 537.381 -3.43931 -2.7459 0
M  V30 5954 H 534.5 -0.654138 -0.339518 0
M  V30 5955 H 537.142 -1.88877 -0.20623 0
M  V30 5956 H 535.292 -3.06015 -2.39347 0
M  V30 5957 H 536.964 -4.60392 -0.289306 0
M  V30 5958 H 535.207 -4.33326 -0.202756 0
M  V30 5959 H 535.878 -5.30843 -1.51358 0
M  V30 5960 H 538.354 -3.5171 -2.22349 0
M  V30 5961 H 537.23 -4.38706 -3.29891 0
M  V30 5962 H 537.491 -2.6651 -3.52739 0
M  V30 5963 N 536.55 0.480323 -1.50102 0
M  V30 5964 C 537.775 1.26126 -1.64642 0
M  V30 5965 C 538.2 1.85257 -0.325823 0
M  V30 5966 O 537.558 1.66854 0.709194 0
M  V30 5967 C 537.606 2.35243 -2.73301 0
M  V30 5968 O 536.71 3.39646 -2.33911 0
M  V30 5969 H 536.051 0.371463 -0.550374 0
M  V30 5970 H 538.581 0.572696 -1.96421 0
M  V30 5971 H 538.591 2.80695 -2.96098 0
M  V30 5972 H 537.266 1.91574 -3.6915 0
M  V30 5973 H 535.843 2.99969 -2.21525 0
M  V30 5974 N 538.028 1.39524 0.732853 0
M  V30 5975 C 538.975 1.38416 1.84688 0
M  V30 5976 C 539.945 0.243539 1.64305 0
M  V30 5977 O 541.13 0.438979 1.85681 0
M  V30 5978 C 538.27 1.23555 3.22224 0
M  V30 5979 C 537.383 2.47179 3.54298 0
M  V30 5980 C 536.518 2.2489 4.81246 0
M  V30 5981 C 535.557 3.44178 5.0617 0
M  V30 5982 N 534.694 3.21192 6.24323 0
M  V30 5983 H 539.534 2.33645 1.84971 0
M  V30 5984 H 537.071 1.16059 0.903804 0
M  V30 5985 H 539.029 1.12949 4.0162 0
M  V30 5986 H 537.659 0.31954 3.21215 0
M  V30 5987 H 536.711 2.68379 2.69587 0
M  V30 5988 H 538.023 3.36022 3.68633 0
M  V30 5989 H 537.177 2.11538 5.68627 0
M  V30 5990 H 535.916 1.33443 4.69089 0
M  V30 5991 H 534.921 3.58025 4.17251 0
M  V30 5992 H 536.146 4.36528 5.20212 0
M  V30 5993 H 534.092 2.32413 6.1345 0
M  V30 5994 H 534.009 4.03594 6.39256 0
M  V30 5995 H 535.277 3.1154 7.14537 0
M  V30 5996 N 539.506 -0.963266 1.24736 0
M  V30 5997 C 540.922 -1.23273 1.01371 0
M  V30 5998 C 541.122 -1.99618 -0.274776 0
M  V30 5999 O 540.178 -2.32293 -0.989769 0
M  V30 6000 C 541.491 -2.01554 2.23152 0
M  V30 6001 C 543.039 -2.14629 2.27823 0
M  V30 6002 C 543.514 -2.96307 3.49237 0
M  V30 6003 N 545.005 -3.03887 3.49581 0
M  V30 6004 C 545.74 -3.67456 4.40186 0
M  V30 6005 N 545.236 -4.32706 5.41052 0
M  V30 6006 N 547.029 -3.64511 4.27888 0
M  V30 6007 H 539.18 -0.452294 2.07528 0
M  V30 6008 H 541.443 -0.262521 0.910926 0
M  V30 6009 H 541.149 -1.52847 3.1675 0
M  V30 6010 H 541.023 -3.02278 2.25628 0
M  V30 6011 H 543.41 -2.62537 1.34753 0
M  V30 6012 H 543.491 -1.13238 2.2937 0
M  V30 6013 H 543.135 -2.49091 4.42624 0
M  V30 6014 H 543.065 -3.97905 3.44933 0
M  V30 6015 H 545.556 -2.57477 2.76611 0
M  V30 6016 H 545.869 -4.79042 6.06415 0
M  V30 6017 H 544.214 -4.31361 5.44934 0
M  V30 6018 H 547.405 -3.12715 3.4832 0
M  V30 6019 H 547.578 -4.13768 4.98698 0
M  V30 6020 N 540.985 -1.06182 -1.16461 0
M  V30 6021 C 542.213 -0.798583 -1.90867 0
M  V30 6022 C 542.628 0.646921 -1.77371 0
M  V30 6023 O 541.985 1.44279 -1.11758 0
M  V30 6024 C 542.036 -1.18258 -3.4161 0
M  V30 6025 O 541.757 -2.57135 -3.54701 0
M  V30 6026 C 543.258 -0.946917 -4.33069 0
M  V30 6027 H 540.478 -0.289603 -0.605286 0
M  V30 6028 H 543.022 -1.41515 -1.47627 0
M  V30 6029 H 541.177 -0.610562 -3.82558 0
M  V30 6030 H 541.591 -2.72477 -4.4817 0
M  V30 6031 H 543.065 -1.26523 -5.37304 0
M  V30 6032 H 543.542 0.117406 -4.39043 0
M  V30 6033 H 544.148 -1.50326 -3.97847 0
M  V30 6034 N 542.463 1.3308 -0.844243 0
M  V30 6035 C 543.879 1.50447 -0.532729 0
M  V30 6036 C 544.079 1.78292 0.938837 0
M  V30 6037 O 543.135 1.84635 1.72239 0
M  V30 6038 C 544.448 2.65555 -1.41072 0
M  V30 6039 C 545.996 2.7944 -1.41005 0
M  V30 6040 C 546.471 3.97616 -2.27301 0
M  V30 6041 N 547.962 4.0486 -2.2504 0
M  V30 6042 C 548.697 4.95508 -2.88547 0
M  V30 6043 N 548.193 5.91236 -3.61126 0
M  V30 6044 N 549.986 4.88548 -2.77989 0
M  V30 6045 H 542.137 1.13269 -1.79677 0
M  V30 6046 H 544.4 0.55734 -0.766861 0
M  V30 6047 H 544.106 2.51675 -2.45668 0
M  V30 6048 H 543.98 3.61089 -1.09061 0
M  V30 6049 H 546.367 2.92749 -0.371784 0
M  V30 6050 H 546.448 1.8465 -1.77026 0
M  V30 6051 H 546.092 3.85066 -3.3119 0
M  V30 6052 H 546.022 4.91661 -1.88619 0
M  V30 6053 H 548.513 3.36353 -1.72264 0
M  V30 6054 H 548.826 6.57079 -4.06776 0
M  V30 6055 H 547.171 5.91295 -3.65234 0
M  V30 6056 H 550.362 4.12729 -2.20846 0
M  V30 6057 H 550.535 5.58994 -3.27765 0
M  V30 6058 N 543.941 0.601185 1.45683 0
M  V30 6059 C 545.357 0.264315 1.57396 0
M  V30 6060 C 545.557 -1.23324 1.59353 0
M  V30 6061 O 544.613 -2.01594 1.52039 0
M  V30 6062 C 545.926 0.929839 2.85962 0
M  V30 6063 C 547.474 0.905156 2.99626 0
M  V30 6064 C 547.949 1.55057 4.30954 0
M  V30 6065 N 549.44 1.51576 4.37697 0
M  V30 6066 C 550.175 1.98436 5.37969 0
M  V30 6067 N 549.671 2.53352 6.44813 0
M  V30 6068 N 551.464 1.89242 5.29286 0
M  V30 6069 H 543.615 1.57363 1.42656 0
M  V30 6070 H 545.878 0.658831 0.681649 0
M  V30 6071 H 545.584 1.98404 2.90394 0
M  V30 6072 H 545.458 0.449224 3.74515 0
M  V30 6073 H 547.845 -0.14048 2.94765 0
M  V30 6074 H 547.926 1.42397 2.12501 0
M  V30 6075 H 547.57 2.5955 4.36573 0
M  V30 6076 H 547.5 1.00682 5.16886 0
M  V30 6077 H 549.991 1.11452 3.61091 0
M  V30 6078 H 550.304 2.86918 7.17564 0
M  V30 6079 H 548.649 2.57388 6.45582 0
M  V30 6080 H 551.84 1.46083 4.44722 0
M  V30 6081 H 552.013 2.26075 6.07284 0
M  V30 6082 N 545.419 -1.53889 0.339982 0
M  V30 6083 C 546.644 -2.05741 -0.261798 0
M  V30 6084 C 547.069 -1.21354 -1.43718 0
M  V30 6085 O 546.427 -0.22645 -1.7988 0
M  V30 6086 C 546.475 -3.54542 -0.658228 0
M  V30 6087 O 545.579 -3.7302 -1.75869 0
M  V30 6088 H 544.92 -0.662529 -0.0441672 0
M  V30 6089 H 547.45 -1.98568 0.493161 0
M  V30 6090 H 547.46 -3.9711 -0.936368 0
M  V30 6091 H 546.135 -4.15412 0.201358 0
M  V30 6092 H 544.712 -3.42355 -1.47809 0
M  V30 6093 N 546.897 -0.0685191 -1.57451 0
M  V30 6094 C 547.807 0.914677 -2.16034 0
M  V30 6095 C 548.823 1.32938 -1.12265 0
M  V30 6096 O 549.999 1.40275 -1.44516 0
M  V30 6097 C 547.064 2.16519 -2.70777 0
M  V30 6098 C 546.125 1.80721 -3.89408 0
M  V30 6099 C 545.358 2.9981 -4.41531 0
M  V30 6100 O 545.581 4.13727 -3.92666 0
M  V30 6101 O 544.515 2.79817 -5.32903 0
M  V30 6102 H 548.341 0.446364 -3.00402 0
M  V30 6103 H 545.926 0.154367 -1.486 0
M  V30 6104 H 547.808 2.89856 -3.05878 0
M  V30 6105 H 546.483 2.62454 -1.89471 0
M  V30 6106 H 545.39 1.04646 -3.59166 0
M  V30 6107 H 546.723 1.39571 -4.71997 0
M  V30 6108 N 548.375 1.56261 0.205012 0
M  V30 6109 C 549.6 1.84491 0.947512 0
M  V30 6110 C 550.025 0.650894 1.76479 0
M  V30 6111 O 549.383 -0.40035 1.76824 0
M  V30 6112 C 549.431 3.10863 1.82747 0
M  V30 6113 O 548.535 2.90719 2.925 0
M  V30 6114 H 547.876 0.607783 0.267386 0
M  V30 6115 H 550.406 2.03485 0.213323 0
M  V30 6116 H 550.416 3.41399 2.23407 0
M  V30 6117 H 549.091 3.97392 1.2269 0
M  V30 6118 H 547.668 2.71457 2.55667 0
M  V30 6119 N 549.853 -0.472356 1.50355 0
M  V30 6120 C 551.101 -1.22211 1.60962 0
M  V30 6121 C 551.422 -1.92497 0.311439 0
M  V30 6122 O 550.692 -1.8405 -0.671002 0
M  V30 6123 H 549.272 -0.454092 0.593135 0
M  V30 6124 H 551.934 -0.544977 1.87126 0
M  V30 6125 H 551.03 -1.9707 2.42012 0
M  V30 6126 N 551.331 -1.39911 -0.725443 0
M  V30 6127 C 552.279 -1.39552 -1.86086 0
M  V30 6128 C 553.273 -0.277334 -1.67114 0
M  V30 6129 O 554.479 -0.447865 -1.74339 0
M  V30 6130 H 550.854 -0.435993 -0.612711 0
M  V30 6131 H 552.825 -2.35305 -1.83505 0
M  V30 6132 C 551.574 -1.26529 -3.2386 0
M  V30 6133 H 550.897 -2.11845 -3.3906 0
M  V30 6134 H 552.337 -1.30336 -4.03471 0
M  V30 6135 C 550.796 0.0254168 -3.3689 0
M  V30 6136 O 551.326 0.992048 -3.89257 0
M  V30 6137 N 549.532 0.0916528 -2.90455 0
M  V30 6138 H 549.079 -0.695675 -2.48028 0
M  V30 6139 H 549.037 0.954745 -2.99553 0
M  V30 6140 N 552.809 0.956637 -1.25245 0
M  V30 6141 C 553.756 2.053 -1.05454 0
M  V30 6142 C 554.726 1.66062 0.0356889 0
M  V30 6143 O 555.911 1.90415 -0.121099 0
M  V30 6144 C 553.051 3.38391 -0.677191 0
M  V30 6145 C 552.164 3.90758 -1.84206 0
M  V30 6146 C 551.299 5.12165 -1.40926 0
M  V30 6147 C 550.338 5.56757 -2.54338 0
M  V30 6148 N 549.475 6.69376 -2.11848 0
M  V30 6149 H 554.315 2.21562 -1.99284 0
M  V30 6150 H 551.852 1.08578 -0.992434 0
M  V30 6151 H 553.81 4.1488 -0.43938 0
M  V30 6152 H 552.44 3.22021 0.224127 0
M  V30 6153 H 551.492 3.10808 -2.19323 0
M  V30 6154 H 552.804 4.19802 -2.69383 0
M  V30 6155 H 551.958 5.96065 -1.13098 0
M  V30 6156 H 550.697 4.84832 -0.528175 0
M  V30 6157 H 549.702 4.71423 -2.82913 0
M  V30 6158 H 550.927 5.861 -3.43022 0
M  V30 6159 H 548.873 6.43756 -1.26153 0
M  V30 6160 H 548.79 6.97927 -2.90574 0
M  V30 6161 H 550.058 7.5669 -1.87191 0
M  V30 6162 N 554.287 1.06798 1.15896 0
M  V30 6163 C 555.197 0.694564 2.24083 0
M  V30 6164 C 556.213 -0.291687 1.71538 0
M  V30 6165 O 557.389 -0.139723 2.00915 0
M  V30 6166 C 554.454 0.0921014 3.46578 0
M  V30 6167 C 553.515 1.13087 4.14137 0
M  V30 6168 C 552.748 0.557064 5.30785 0
M  V30 6169 O 552.971 -0.628623 5.66925 0
M  V30 6170 O 551.905 1.29924 5.8771 0
M  V30 6171 H 555.731 1.59663 2.58344 0
M  V30 6172 H 553.316 0.840575 1.2351 0
M  V30 6173 H 555.198 -0.241884 4.20705 0
M  V30 6174 H 553.873 -0.78337 3.14078 0
M  V30 6175 H 552.78 1.51712 3.41957 0
M  V30 6176 H 554.113 1.97805 4.50704 0
M  V30 6177 N 555.766 -1.3263 0.851289 0
M  V30 6178 C 556.714 -2.30882 0.282202 0
M  V30 6179 C 557.708 -1.58697 -0.592589 0
M  V30 6180 O 558.914 -1.73461 -0.480768 0
M  V30 6181 H 555.289 -0.748492 0.0725487 0
M  V30 6182 H 557.26 -2.76374 1.12516 0
M  V30 6183 C 556.009 -3.43828 -0.517449 0
M  V30 6184 H 555.332 -3.99532 0.146392 0
M  V30 6185 H 556.772 -4.1474 -0.88128 0
M  V30 6186 C 555.231 -2.90786 -1.70133 0
M  V30 6187 O 555.761 -2.88 -2.80034 0
M  V30 6188 N 553.967 -2.4723 -1.52728 0
M  V30 6189 H 553.514 -2.49695 -0.633257 0
M  V30 6190 H 553.472 -2.12094 -2.32085 0
M  V30 6191 N 557.244 -0.608902 -1.45362 0
M  V30 6192 C 558.174 0.0964526 -2.33301 0
M  V30 6193 C 559.155 0.857444 -1.46908 0
M  V30 6194 O 560.34 0.827735 -1.75676 0
M  V30 6195 C 557.47 1.09354 -3.29635 0
M  V30 6196 C 556.424 0.445676 -4.25673 0
M  V30 6197 C 555.75 1.5511 -5.11708 0
M  V30 6198 C 557.05 -0.633972 -5.18438 0
M  V30 6199 H 558.744 -0.637829 -2.92527 0
M  V30 6200 H 556.29 -0.308178 -1.40664 0
M  V30 6201 H 558.243 1.59556 -3.90025 0
M  V30 6202 H 556.967 1.85843 -2.6857 0
M  V30 6203 H 555.626 -0.0354897 -3.66583 0
M  V30 6204 H 555.274 2.30631 -4.4701 0
M  V30 6205 H 554.974 1.12311 -5.76767 0
M  V30 6206 H 556.498 2.05537 -5.74967 0
M  V30 6207 H 557.912 -0.215974 -5.72893 0
M  V30 6208 H 556.309 -0.983789 -5.91981 0
M  V30 6209 H 557.379 -1.51005 -4.60788 0
M  V30 6210 N 558.722 1.53707 -0.348139 0
M  V30 6211 C 559.652 2.28111 0.498766 0
M  V30 6212 C 560.633 1.29851 1.09876 0
M  V30 6213 O 561.818 1.587 1.11928 0
M  V30 6214 C 558.948 3.05735 1.64753 0
M  V30 6215 C 557.902 4.11537 1.17565 0
M  V30 6216 C 557.228 4.77142 2.4133 0
M  V30 6217 C 558.528 5.21587 0.272844 0
M  V30 6218 H 560.222 2.99152 -0.121934 0
M  V30 6219 H 557.768 1.43875 -0.0600842 0
M  V30 6220 H 559.721 3.56526 2.24649 0
M  V30 6221 H 558.445 2.32354 2.2952 0
M  V30 6222 H 557.104 3.61665 0.599483 0
M  V30 6223 H 556.752 4.0035 3.04514 0
M  V30 6224 H 556.452 5.48626 2.10436 0
M  V30 6225 H 557.976 5.30719 3.01943 0
M  V30 6226 H 559.39 5.67986 0.778779 0
M  V30 6227 H 557.787 6.00074 0.0555849 0
M  V30 6228 H 558.857 4.79969 -0.689785 0
M  V30 6229 N 560.2 0.0768682 1.57412 0
M  V30 6230 C 561.448 -0.589918 1.93299 0
M  V30 6231 C 561.769 -1.69842 0.958049 0
M  V30 6232 O 561.039 -1.95899 0.00703261 0
M  V30 6233 H 559.619 -0.220901 0.713591 0
M  V30 6234 H 562.281 0.135917 1.94425 0
M  V30 6235 H 561.377 -1.01195 2.95239 0
M  V30 6236 N 561.678 -1.56367 -0.196722 0
M  V30 6237 C 563.094 -1.49916 -0.54749 0
M  V30 6238 C 563.294 -0.77659 -1.85934 0
M  V30 6239 O 562.35 -0.32644 -2.50381 0
M  V30 6240 C 563.663 -2.94577 -0.603734 0
M  V30 6241 C 565.211 -3.05239 -0.692677 0
M  V30 6242 C 565.686 -4.51308 -0.780046 0
M  V30 6243 N 567.177 -4.55453 -0.843616 0
M  V30 6244 C 567.912 -5.65786 -0.931358 0
M  V30 6245 N 567.408 -6.85812 -0.981503 0
M  V30 6246 N 569.201 -5.53695 -0.968421 0
M  V30 6247 H 561.352 -2.01761 0.663803 0
M  V30 6248 H 563.615 -0.918094 0.236238 0
M  V30 6249 H 563.321 -3.50494 0.29105 0
M  V30 6250 H 563.195 -3.47841 -1.45898 0
M  V30 6251 H 565.582 -2.49372 -1.57789 0
M  V30 6252 H 565.663 -2.55103 0.188736 0
M  V30 6253 H 565.307 -5.078 0.100811 0
M  V30 6254 H 565.237 -4.99176 -1.67724 0
M  V30 6255 H 567.728 -3.69025 -0.814176 0
M  V30 6256 H 568.041 -7.65648 -1.04892 0
M  V30 6257 H 566.386 -6.88474 -0.950208 0
M  V30 6258 H 569.577 -4.58848 -0.926072 0
M  V30 6259 H 569.75 -6.39708 -1.03334 0
M  V30 6260 N 563.156 0.464375 -1.50603 0
M  V30 6261 C 564.386 1.23727 -1.65454 0
M  V30 6262 C 564.794 1.86119 -0.340032 0
M  V30 6263 O 564.137 1.70301 0.688706 0
M  V30 6264 C 564.199 2.38153 -2.69301 0
M  V30 6265 C 563.863 1.96345 -4.12671 0
M  V30 6266 C 564.86 1.48215 -4.98326 0
M  V30 6267 C 562.545 2.04861 -4.58625 0
M  V30 6268 C 564.539 1.09152 -6.27985 0
M  V30 6269 C 562.226 1.65409 -5.88288 0
M  V30 6270 C 563.224 1.17634 -6.72794 0
M  V30 6271 O 562.912 0.787312 -8.00035 0
M  V30 6272 H 562.644 0.380075 -0.559034 0
M  V30 6273 H 565.198 0.559919 -1.97621 0
M  V30 6274 H 563.428 3.09081 -2.32392 0
M  V30 6275 H 565.117 3.00099 -2.73304 0
M  V30 6276 H 565.883 1.41052 -4.64036 0
M  V30 6277 H 561.762 2.40996 -3.92991 0
M  V30 6278 H 565.306 0.717909 -6.93896 0
M  V30 6279 H 561.203 1.72233 -6.22098 0
M  V30 6280 H 561.971 0.915567 -8.13363 0
M  V30 6281 N 564.634 1.40294 0.718013 0
M  V30 6282 C 565.564 1.43118 1.84498 0
M  V30 6283 C 566.545 0.292403 1.67568 0
M  V30 6284 O 567.73 0.500675 1.87635 0
M  V30 6285 C 564.86 1.29065 3.22427 0
M  V30 6286 C 563.814 2.40521 3.54025 0
M  V30 6287 C 563.14 2.11546 4.91073 0
M  V30 6288 C 564.44 3.82859 3.55269 0
M  V30 6289 H 566.134 2.37432 1.82391 0
M  V30 6290 H 563.68 1.14283 0.87609 0
M  V30 6291 H 565.633 1.29658 4.00957 0
M  V30 6292 H 564.357 0.312271 3.25104 0
M  V30 6293 H 563.016 2.39173 2.77834 0
M  V30 6294 H 562.664 1.12104 4.90348 0
M  V30 6295 H 562.364 2.86216 5.1318 0
M  V30 6296 H 563.888 2.13817 5.71939 0
M  V30 6297 H 565.302 3.86044 4.23843 0
M  V30 6298 H 563.699 4.57029 3.88902 0
M  V30 6299 H 564.769 4.12617 2.54706 0
M  V30 6300 N 566.112 -0.949982 1.2575 0
M  V30 6301 C 567.337 -1.73503 1.13628 0
M  V30 6302 C 567.762 -1.85601 -0.30559 0
M  V30 6303 O 567.12 -1.33984 -1.22139 0
M  V30 6304 C 567.168 -3.1243 1.80055 0
M  V30 6305 O 566.272 -3.97916 1.08336 0
M  V30 6306 H 565.613 -0.532665 0.396439 0
M  V30 6307 H 568.143 -1.19043 1.66403 0
M  V30 6308 H 568.153 -3.62866 1.86527 0
M  V30 6309 H 566.828 -3.02941 2.84956 0
M  V30 6310 H 565.405 -3.56375 1.09777 0
M  V30 6311 N 567.59 -1.07411 -1.15328 0
M  V30 6312 C 568.867 -0.710732 -1.82231 0
M  V30 6313 C 569.247 0.806732 -1.95077 0
M  V30 6314 O 568.595 1.72139 -1.50268 0
M  V30 6315 C 568.805 -1.42586 -3.18544 0
M  V30 6316 C 570.153 -1.57836 -3.94174 0
M  V30 6317 O 571.177 -1.38669 -3.281 0
M  V30 6318 O 570.036 -1.8938 -5.12638 0
M  V30 6319 H 567.13 -0.25297 -0.78736 0
M  V30 6320 H 569.676 -1.17508 -1.22434 0
M  V30 6321 H 568.448 -2.46008 -3.04296 0
M  V30 6322 H 568.071 -0.952332 -3.86026 0
M  V30 6323 N 569.068 1.32177 -0.85831 0
M  V30 6324 C 570.316 1.96735 -0.462568 0
M  V30 6325 C 570.637 1.6824 0.985911 0
M  V30 6326 O 569.907 0.991564 1.68952 0
M  V30 6327 H 568.487 0.727849 -0.168064 0
M  V30 6328 H 571.149 1.61195 -1.09554 0
M  V30 6329 H 570.245 3.06068 -0.610647 0
M  V30 6330 N 570.547 0.616602 1.45037 0
M  V30 6331 C 571.51 -0.0871112 2.29034 0
M  V30 6332 C 572.51 -0.786414 1.40258 0
M  V30 6333 O 573.7 -0.633207 1.62284 0
M  V30 6334 C 570.832 -1.13369 3.21497 0
M  V30 6335 H 572.025 0.651497 2.92738 0
M  V30 6336 H 569.578 0.376058 1.51709 0
M  V30 6337 H 570.313 -1.90277 2.62612 0
M  V30 6338 H 570.098 -0.636358 3.86902 0
M  V30 6339 H 571.588 -1.62627 3.84633 0
M  V30 6340 N 572.025 -1.5352 0.356285 0
M  V30 6341 C 573.253 -2.05534 -0.237328 0
M  V30 6342 C 573.668 -1.23043 -1.43199 0
M  V30 6343 O 573.025 -0.268821 -1.80509 0
M  V30 6344 C 573.076 -3.55791 -0.639933 0
M  V30 6345 O 572.797 -4.35154 0.507233 0
M  V30 6346 C 574.298 -4.24027 -1.29292 0
M  V30 6347 H 571.518 -0.669585 -0.0435572 0
M  V30 6348 H 574.062 -1.97988 0.511963 0
M  V30 6349 H 572.217 -3.63518 -1.33915 0
M  V30 6350 H 572.631 -5.24178 0.18375 0
M  V30 6351 H 574.105 -5.30509 -1.52527 0
M  V30 6352 H 574.582 -3.77166 -2.25039 0
M  V30 6353 H 575.188 -4.20527 -0.63539 0
M  V30 6354 N 573.503 -0.0852151 -1.57369 0
M  V30 6355 C 574.451 0.894856 -2.14698 0
M  V30 6356 C 575.445 1.29903 -1.08727 0
M  V30 6357 O 576.651 1.27471 -1.27088 0
M  V30 6358 H 573.026 0.306569 -0.686673 0
M  V30 6359 H 574.997 0.386542 -2.95886 0
M  V30 6360 C 573.746 2.14798 -2.73417 0
M  V30 6361 H 573.069 1.84585 -3.54638 0
M  V30 6362 H 574.509 2.81456 -3.1711 0
M  V30 6363 C 572.968 2.91546 -1.68828 0
M  V30 6364 O 573.498 3.85733 -1.12129 0
M  V30 6365 N 571.704 2.54901 -1.39549 0
M  V30 6366 H 571.251 1.7838 -1.85845 0
M  V30 6367 H 571.209 3.06553 -0.698054 0
M  V30 6368 N 574.981 1.5647 0.188427 0
M  V30 6369 C 576.23 1.80207 0.905995 0
M  V30 6370 C 576.543 0.659579 1.84144 0
M  V30 6371 O 577.749 0.781431 2.60011 0
M  V30 6372 C 576.205 3.19255 1.66145 0
M  V30 6373 C 575.813 4.41324 0.770504 0
M  V30 6374 C 577.557 3.52298 2.36826 0
M  V30 6375 C 575.464 5.71394 1.52521 0
M  V30 6376 H 574.394 0.671953 0.342045 0
M  V30 6377 H 577.045 1.82808 0.159164 0
M  V30 6378 H 575.427 3.10922 2.45242 0
M  V30 6379 H 576.601 4.60797 0.0177261 0
M  V30 6380 H 574.916 4.16035 0.174199 0
M  V30 6381 H 577.513 4.46715 2.93854 0
M  V30 6382 H 577.856 2.76359 3.11338 0
M  V30 6383 H 578.389 3.62108 1.6469 0
M  V30 6384 H 575.128 6.50316 0.82275 0
M  V30 6385 H 574.648 5.55928 2.25175 0
M  V30 6386 H 576.327 6.12747 2.07725 0
M  V30 6387 N 576.459 -0.456382 1.50847 0
M  V30 6388 C 577.391 -1.57033 1.66953 0
M  V30 6389 C 578.404 -1.53207 0.550593 0
M  V30 6390 O 579.593 -1.58328 0.824285 0
M  V30 6391 C 576.693 -2.95937 1.65149 0
M  V30 6392 C 575.866 -3.24475 2.93317 0
M  V30 6393 C 574.925 -4.43007 2.83957 0
M  V30 6394 O 573.951 -4.42592 3.57912 0
M  V30 6395 N 575.153 -5.45503 1.9851 0
M  V30 6396 H 577.918 -1.43629 2.63042 0
M  V30 6397 H 575.479 -0.645037 1.48495 0
M  V30 6398 H 577.471 -3.73224 1.56481 0
M  V30 6399 H 576.041 -3.03036 0.767343 0
M  V30 6400 H 575.261 -2.35664 3.16 0
M  V30 6401 H 576.549 -3.4036 3.78196 0
M  V30 6402 H 575.947 -5.48668 1.37766 0
M  V30 6403 H 574.504 -6.21716 1.95735 0
M  V30 6404 N 577.937 -1.40673 -0.710563 0
M  V30 6405 C 578.867 -1.44095 -1.83736 0
M  V30 6406 C 579.848 -0.301286 -1.67411 0
M  V30 6407 O 581.033 -0.510618 -1.87367 0
M  V30 6408 C 578.163 -1.30773 -3.21738 0
M  V30 6409 C 577.117 -2.42395 -3.52745 0
M  V30 6410 C 576.443 -2.14147 -4.89944 0
M  V30 6411 C 577.743 -3.84738 -3.53234 0
M  V30 6412 H 579.437 -2.38396 -1.81129 0
M  V30 6413 H 576.983 -1.14746 -0.870017 0
M  V30 6414 H 578.936 -1.31783 -4.00264 0
M  V30 6415 H 577.66 -0.329507 -3.24934 0
M  V30 6416 H 576.319 -2.40643 -2.76562 0
M  V30 6417 H 575.967 -1.14703 -4.89747 0
M  V30 6418 H 575.667 -2.88934 -5.11655 0
M  V30 6419 H 577.191 -2.16848 -5.70797 0
M  V30 6420 H 578.605 -3.88286 -4.2179 0
M  V30 6421 H 577.002 -4.59085 -3.86473 0
M  V30 6422 H 578.072 -4.13962 -2.52514 0
M  V30 6423 N 579.415 0.9433 -1.26252 0
M  V30 6424 C 580.831 1.21644 -1.03319 0
M  V30 6425 C 581.031 2.0003 0.242983 0
M  V30 6426 O 580.087 2.33838 0.952688 0
M  V30 6427 C 581.4 1.97978 -2.2633 0
M  V30 6428 C 582.948 2.10978 -2.31209 0
M  V30 6429 C 583.423 2.90713 -3.53907 0
M  V30 6430 N 584.914 2.98287 -3.54371 0
M  V30 6431 C 585.649 3.60406 -4.45976 0
M  V30 6432 N 585.145 4.24043 -5.47868 0
M  V30 6433 N 586.938 3.57658 -4.33633 0
M  V30 6434 H 579.089 0.419221 -2.08222 0
M  V30 6435 H 581.352 0.247995 -0.914988 0
M  V30 6436 H 581.058 1.47788 -3.19142 0
M  V30 6437 H 580.932 2.9865 -2.30408 0
M  V30 6438 H 583.319 2.6036 -1.38913 0
M  V30 6439 H 583.4 1.09575 -2.31143 0
M  V30 6440 H 583.044 2.42018 -4.46531 0
M  V30 6441 H 582.974 3.92367 -3.5122 0
M  V30 6442 H 585.465 2.53044 -2.80673 0
M  V30 6443 H 585.778 4.69334 -6.13959 0
M  V30 6444 H 584.123 4.22637 -5.51728 0
M  V30 6445 H 587.314 3.07134 -3.53251 0
M  V30 6446 H 587.487 4.05782 -5.05218 0
M  V30 6447 N 580.893 1.08022 1.14757 0
M  V30 6448 C 582.141 0.805913 1.85336 0
M  V30 6449 C 582.462 -0.670162 1.83122 0
M  V30 6450 O 581.732 -1.48567 1.2769 0
M  V30 6451 H 580.312 0.295138 0.686223 0
M  V30 6452 H 582.974 1.36538 1.3908 0
M  V30 6453 H 582.07 1.14655 2.90277 0
M  V30 6454 N 582.371 -1.3172 0.865308 0
M  V30 6455 C 583.782 -1.79104 0.527126 0
M  V30 6456 C 584.133 -1.7135 -0.955695 0
M  V30 6457 O 583.258 -1.27845 -1.74598 0
M  V30 6458 C 583.853 -3.25207 0.950061 0
M  V30 6459 C 582.412 -3.70504 0.663611 0
M  V30 6460 C 581.559 -2.52605 1.14395 0
M  V30 6461 H 584.51 -1.18868 1.05148 0
M  V30 6462 H 584.531 -3.79535 0.270805 0
M  V30 6463 H 584.043 -3.30818 2.02931 0
M  V30 6464 H 582.144 -3.70398 -0.404474 0
M  V30 6465 H 582.257 -4.62845 1.23737 0
M  V30 6466 H 580.621 -2.4838 0.563859 0
M  V30 6467 H 581.404 -2.60964 2.23053 0
M  V30 6468 N 583.85 -0.624285 -1.44708 0
M  V30 6469 C 584.76 0.0861083 -2.34442 0
M  V30 6470 C 585.776 0.84291 -1.5222 0
M  V30 6471 O 586.952 0.796723 -1.84971 0
M  V30 6472 C 584.017 1.05999 -3.30099 0
M  V30 6473 C 583.077 0.303316 -4.28227 0
M  V30 6474 C 582.311 1.23081 -5.19314 0
M  V30 6475 O 582.534 2.46929 -5.14181 0
M  V30 6476 O 581.468 0.71883 -5.97592 0
M  V30 6477 H 585.293 -0.651756 -2.96624 0
M  V30 6478 H 582.879 -0.384493 -1.44368 0
M  V30 6479 H 584.76 1.62046 -3.88997 0
M  V30 6480 H 583.436 1.77859 -2.70459 0
M  V30 6481 H 582.343 -0.300033 -3.72895 0
M  V30 6482 H 583.676 -0.375123 -4.90768 0
M  V30 6483 N 585.328 1.53329 -0.364422 0
M  V30 6484 C 586.558 2.05359 0.226096 0
M  V30 6485 C 586.966 1.23777 1.43094 0
M  V30 6486 O 586.309 0.271139 1.81688 0
M  V30 6487 C 586.371 3.52918 0.684794 0
M  V30 6488 C 586.035 4.55218 -0.403206 0
M  V30 6489 C 587.032 5.04583 -1.2527 0
M  V30 6490 C 584.717 4.99134 -0.563117 0
M  V30 6491 C 586.711 5.96463 -2.24745 0
M  V30 6492 C 584.398 5.9082 -1.56124 0
M  V30 6493 C 585.396 6.39375 -2.40184 0
M  V30 6494 O 585.084 7.29255 -3.38293 0
M  V30 6495 H 584.816 0.674588 0.0436772 0
M  V30 6496 H 587.37 1.98688 -0.520782 0
M  V30 6497 H 585.6 3.57122 1.48326 0
M  V30 6498 H 587.289 3.87812 1.19818 0
M  V30 6499 H 588.055 4.71403 -1.14034 0
M  V30 6500 H 583.934 4.60928 0.0813909 0
M  V30 6501 H 587.478 6.34285 -2.90393 0
M  V30 6502 H 583.375 6.23414 -1.67407 0
M  V30 6503 H 584.143 7.47249 -3.34009 0
M  V30 6504 N 586.806 0.0935595 1.57322 0
M  V30 6505 C 588.036 -0.578095 1.98347 0
M  V30 6506 C 588.444 -1.62357 0.971441 0
M  V30 6507 O 587.787 -1.83639 -0.0473959 0
M  V30 6508 C 587.849 -1.28525 3.3574 0
M  V30 6509 C 587.513 -0.390714 4.55327 0
M  V30 6510 C 588.51 0.360522 5.18648 0
M  V30 6511 C 586.195 -0.309221 5.01347 0
M  V30 6512 C 588.189 1.18125 6.26359 0
M  V30 6513 C 585.876 0.515157 6.08925 0
M  V30 6514 C 586.874 1.25904 6.71295 0
M  V30 6515 O 586.562 2.06978 7.76798 0
M  V30 6516 H 586.294 -0.159767 0.656849 0
M  V30 6517 H 588.848 0.169058 2.04703 0
M  V30 6518 H 587.078 -2.07894 3.26063 0
M  V30 6519 H 588.767 -1.85128 3.61223 0
M  V30 6520 H 589.533 0.307285 4.84026 0
M  V30 6521 H 585.412 -0.877881 4.52564 0
M  V30 6522 H 588.956 1.76236 6.74971 0
M  V30 6523 H 584.853 0.56988 6.42979 0
M  V30 6524 H 585.621 1.99644 7.93779 0
M  V30 6525 N 588.284 -1.56567 -0.180126 0
M  V30 6526 C 589.232 -1.96632 -1.24251 0
M  V30 6527 C 590.226 -0.853818 -1.46309 0
M  V30 6528 O 591.432 -1.0389 -1.46993 0
M  V30 6529 H 587.807 -0.625476 -0.417473 0
M  V30 6530 H 589.778 -2.85201 -0.877679 0
M  V30 6531 C 588.527 -2.33486 -2.57642 0
M  V30 6532 H 587.85 -3.18626 -2.4149 0
M  V30 6533 H 589.29 -2.65371 -3.30688 0
M  V30 6534 C 587.749 -1.17499 -3.15746 0
M  V30 6535 O 588.279 -0.457956 -3.99081 0
M  V30 6536 N 586.485 -0.94786 -2.74707 0
M  V30 6537 H 586.032 -1.53269 -2.07042 0
M  V30 6538 H 585.99 -0.173626 -3.1392 0
M  V30 6539 N 589.762 0.448376 -1.51087 0
M  V30 6540 C 591.011 1.19561 -1.62444 0
M  V30 6541 C 591.324 1.92602 -0.341151 0
M  V30 6542 O 592.53 2.69439 -0.333936 0
M  V30 6543 C 590.986 2.17373 -2.8684 0
M  V30 6544 C 590.594 1.5003 -4.22131 0
M  V30 6545 C 592.338 2.92597 -3.0755 0
M  V30 6546 C 590.245 2.46262 -5.37689 0
M  V30 6547 H 589.175 0.449975 -0.605011 0
M  V30 6548 H 591.826 0.463735 -1.77544 0
M  V30 6549 H 590.208 2.93948 -2.65349 0
M  V30 6550 H 591.382 0.790886 -4.53962 0
M  V30 6551 H 589.697 0.870011 -4.0721 0
M  V30 6552 H 592.294 3.64663 -3.91056 0
M  V30 6553 H 592.637 3.53306 -2.20183 0
M  V30 6554 H 593.17 2.23131 -3.29329 0
M  V30 6555 H 589.909 1.90258 -6.27281 0
M  V30 6556 H 589.429 3.15289 -5.10248 0
M  V30 6557 H 591.108 3.07623 -5.6919 0
M  V30 6558 N 591.24 1.41047 0.703093 0
M  V30 6559 C 592.173 1.36713 1.82715 0
M  V30 6560 C 593.151 0.235533 1.60885 0
M  V30 6561 O 594.335 0.421227 1.83733 0
M  V30 6562 C 591.462 1.13069 3.1927 0
M  V30 6563 C 590.508 2.28846 3.59905 0
M  V30 6564 S 591.341 3.91297 3.65578 0
M  V30 6565 C 592.497 3.69941 5.04871 0
M  V30 6566 H 592.73 2.31838 1.86114 0
M  V30 6567 H 590.263 1.27481 0.871083 0
M  V30 6568 H 592.221 1.00113 3.98105 0
M  V30 6569 H 590.882 0.195763 3.13489 0
M  V30 6570 H 590.075 2.07977 4.59088 0
M  V30 6571 H 589.677 2.3817 2.88359 0
M  V30 6572 H 591.969 3.29181 5.92154 0
M  V30 6573 H 592.912 4.68699 5.30779 0
M  V30 6574 H 593.32 3.03369 4.76054 0
M  V30 6575 N 592.718 -0.936591 1.26751 0
M  V30 6576 C 594.129 -1.49816 1.1141 0
M  V30 6577 C 594.48 -1.9383 -0.304015 0
M  V30 6578 O 593.605 -1.80346 -1.196 0
M  V30 6579 C 594.2 -2.72271 2.01629 0
M  V30 6580 C 592.759 -3.2468 1.9042 0
M  V30 6581 C 591.906 -1.97444 1.94708 0
M  V30 6582 H 594.857 -0.751604 1.39773 0
M  V30 6583 H 594.878 -3.46741 1.56688 0
M  V30 6584 H 594.39 -2.40205 3.04833 0
M  V30 6585 H 592.491 -3.61525 0.901674 0
M  V30 6586 H 592.604 -3.91476 2.76195 0
M  V30 6587 H 590.968 -2.13545 1.38818 0
M  V30 6588 H 591.751 -1.67703 2.9955 0
M  V30 6589 N 594.196 -1.08629 -1.14182 0
M  V30 6590 C 595.442 -0.818556 -1.85546 0
M  V30 6591 C 595.775 0.654076 -1.82854 0
M  V30 6592 O 595.05 1.48099 -1.26083 0
M  V30 6593 C 595.333 -1.34397 -3.3408 0
M  V30 6594 C 595.186 -2.8821 -3.45333 0
M  V30 6595 C 596.505 -0.971069 -4.29253 0
M  V30 6596 H 593.624 -0.298821 -0.673702 0
M  V30 6597 H 596.266 -1.34629 -1.34071 0
M  V30 6598 H 594.416 -0.895064 -3.78049 0
M  V30 6599 H 596.088 -3.41488 -3.10134 0
M  V30 6600 H 594.331 -3.25756 -2.86471 0
M  V30 6601 H 595.002 -3.20047 -4.49749 0
M  V30 6602 H 597.478 -1.35809 -3.93313 0
M  V30 6603 H 596.354 -1.36586 -5.31635 0
M  V30 6604 H 596.615 0.121659 -4.41933 0
M  V30 6605 N 595.674 1.31259 -0.872281 0
M  V30 6606 C 596.92 1.973 -0.494414 0
M  V30 6607 C 597.275 1.67684 0.94339 0
M  V30 6608 O 596.568 0.964186 1.65572 0
M  V30 6609 C 596.762 3.50659 -0.690889 0
M  V30 6610 C 596.591 3.95179 -2.14624 0
M  V30 6611 C 595.361 4.21405 -2.7883 0
M  V30 6612 C 597.559 4.08948 -3.11875 0
M  V30 6613 N 595.541 4.52295 -4.15093 0
M  V30 6614 C 596.912 4.43576 -4.33174 0
M  V30 6615 C 598.967 3.91334 -3.07835 0
M  V30 6616 C 597.67 4.62429 -5.50956 0
M  V30 6617 C 599.696 4.11381 -4.24876 0
M  V30 6618 C 599.058 4.46343 -5.44938 0
M  V30 6619 H 595.157 0.747411 -0.230002 0
M  V30 6620 H 597.741 1.58741 -1.12736 0
M  V30 6621 H 595.912 3.88301 -0.0875162 0
M  V30 6622 H 597.644 4.03722 -0.281179 0
M  V30 6623 H 594.399 4.14131 -2.29767 0
M  V30 6624 H 594.823 4.71897 -4.8543 0
M  V30 6625 H 599.465 3.6339 -2.16119 0
M  V30 6626 H 597.183 4.8922 -6.43187 0
M  V30 6627 H 600.769 3.99235 -4.23205 0
M  V30 6628 H 599.649 4.6154 -6.33996 0
M  V30 6629 N 597.152 0.631951 1.44375 0
M  V30 6630 C 598.062 -0.073674 2.34484 0
M  V30 6631 C 599.078 -0.834825 1.52665 0
M  V30 6632 O 600.254 -0.786902 1.85391 0
M  V30 6633 C 597.319 -1.04247 3.30656 0
M  V30 6634 C 596.38 -0.280602 4.28382 0
M  V30 6635 C 595.613 -1.20325 5.19959 0
M  V30 6636 O 595.836 -2.44199 5.15484 0
M  V30 6637 O 594.77 -0.687128 5.97965 0
M  V30 6638 H 598.596 0.667477 2.96274 0
M  V30 6639 H 596.181 0.392144 1.44162 0
M  V30 6640 H 598.063 -1.59981 3.89851 0
M  V30 6641 H 596.738 -1.76422 2.71398 0
M  V30 6642 H 595.645 0.319804 3.72731 0
M  V30 6643 H 596.978 0.401144 4.90563 0
M  V30 6644 N 598.631 -1.53133 0.372548 0
M  V30 6645 C 599.877 -2.02336 -0.207823 0
M  V30 6646 C 600.232 -1.25477 -1.45853 0
M  V30 6647 O 599.525 -0.341971 -1.88524 0
M  V30 6648 C 599.719 -3.53206 -0.545938 0
M  V30 6649 C 599.548 -4.44674 0.670454 0
M  V30 6650 C 598.318 -4.91217 1.18465 0
M  V30 6651 C 600.516 -4.90772 1.53777 0
M  V30 6652 N 598.498 -5.66711 2.36034 0
M  V30 6653 C 599.869 -5.64678 2.56004 0
M  V30 6654 C 601.924 -4.72836 1.55983 0
M  V30 6655 C 600.627 -6.22555 3.60303 0
M  V30 6656 C 602.653 -5.31583 2.59179 0
M  V30 6657 C 602.015 -6.05381 3.6013 0
M  V30 6658 H 598.114 -0.781048 -0.0385783 0
M  V30 6659 H 600.698 -1.87665 0.518664 0
M  V30 6660 H 598.869 -3.68024 -1.24149 0
M  V30 6661 H 600.601 -3.89123 -1.112 0
M  V30 6662 H 597.356 -4.67652 0.748205 0
M  V30 6663 H 597.78 -6.09117 2.95475 0
M  V30 6664 H 602.422 -4.15299 0.792877 0
M  V30 6665 H 600.14 -6.79183 4.37876 0
M  V30 6666 H 603.726 -5.19595 2.61749 0
M  V30 6667 H 602.606 -6.50028 4.38672 0
M  V30 6668 N 600.109 -0.101901 -1.5727 0
M  V30 6669 C 601.386 0.602832 -1.86079 0
M  V30 6670 C 601.766 1.85912 -1 0
M  V30 6671 O 601.114 2.28379 -0.0742488 0
M  V30 6672 C 601.324 0.911694 -3.36881 0
M  V30 6673 C 602.672 1.2722 -4.05093 0
M  V30 6674 O 603.696 1.0025 -3.41802 0
M  V30 6675 O 602.555 1.7776 -5.16782 0
M  V30 6676 H 599.649 0.302366 -0.769743 0
M  V30 6677 H 602.195 -0.135113 -1.69161 0
M  V30 6678 H 600.967 0.0207256 -3.91295 0
M  V30 6679 H 600.59 1.70538 -3.59169 0
M  V30 6680 N 601.587 1.56661 0.17182 0
M  V30 6681 C 602.534 1.96371 1.21273 0
M  V30 6682 C 603.504 0.82756 1.44016 0
M  V30 6683 O 604.689 1.08764 1.56764 0
M  V30 6684 C 601.829 2.32838 2.54716 0
M  V30 6685 C 600.942 3.59628 2.39356 0
M  V30 6686 C 600.077 3.85311 3.65662 0
M  V30 6687 C 599.116 5.0545 3.45234 0
M  V30 6688 N 598.253 5.27268 4.63608 0
M  V30 6689 H 603.093 2.85106 0.86709 0
M  V30 6690 H 600.63 1.41073 0.416744 0
M  V30 6691 H 602.588 2.52004 3.3249 0
M  V30 6692 H 601.218 1.47214 2.87277 0
M  V30 6693 H 600.27 3.4838 1.52761 0
M  V30 6694 H 601.582 4.4756 2.20207 0
M  V30 6695 H 600.736 4.04841 4.51872 0
M  V30 6696 H 599.475 2.95753 3.8779 0
M  V30 6697 H 598.48 4.85819 2.5741 0
M  V30 6698 H 599.705 5.96538 3.24529 0
M  V30 6699 H 597.651 4.40662 4.85956 0
M  V30 6700 H 597.568 6.09422 4.4737 0
M  V30 6701 H 598.836 5.51277 5.51103 0
M  V30 6702 N 603.065 -0.440357 1.51323 0
M  V30 6703 C 604.314 -1.18697 1.63076 0
M  V30 6704 C 604.627 -1.92418 0.35136 0
M  V30 6705 O 605.833 -2.69258 0.348221 0
M  V30 6706 C 604.289 -2.15849 2.87988 0
M  V30 6707 C 603.897 -1.47789 4.22921 0
M  V30 6708 C 605.641 -2.90962 3.09098 0
M  V30 6709 C 603.548 -2.43407 5.38987 0
M  V30 6710 H 602.478 -0.44676 0.607389 0
M  V30 6711 H 605.129 -0.454313 1.77787 0
M  V30 6712 H 603.511 -2.92537 2.66905 0
M  V30 6713 H 604.685 -0.7668 4.54375 0
M  V30 6714 H 603 -0.848404 4.07665 0
M  V30 6715 H 605.597 -3.62584 3.92985 0
M  V30 6716 H 605.94 -3.52133 2.22053 0
M  V30 6717 H 606.473 -2.21381 3.30507 0
M  V30 6718 H 603.212 -1.86929 6.28282 0
M  V30 6719 H 602.732 -3.12579 5.11913 0
M  V30 6720 H 604.411 -3.046 5.70813 0
M  V30 6721 N 604.543 -1.41418 -0.695603 0
M  V30 6722 C 605.954 -1.36335 -1.27552 0
M  V30 6723 C 606.305 -0.0464336 -1.96145 0
M  V30 6724 O 605.43 0.855304 -1.9878 0
M  V30 6725 C 606.025 -2.46941 -2.3196 0
M  V30 6726 C 604.584 -2.45256 -2.85529 0
M  V30 6727 C 603.731 -2.2679 -1.59566 0
M  V30 6728 H 606.682 -1.50934 -0.490362 0
M  V30 6729 H 606.703 -2.15997 -3.1325 0
M  V30 6730 H 606.215 -3.42775 -1.82008 0
M  V30 6731 H 604.316 -1.53179 -3.39657 0
M  V30 6732 H 604.429 -3.41565 -3.35961 0
M  V30 6733 H 602.793 -1.74667 -1.85374 0
M  V30 6734 H 603.576 -3.24651 -1.1161 0
M  V30 6735 N 606.021 0.929856 -1.27246 0
M  V30 6736 C 607.269 1.674 -1.13233 0
M  V30 6737 C 607.59 1.92311 0.322744 0
M  V30 6738 O 606.86 1.52784 1.22612 0
M  V30 6739 H 605.44 0.620411 -0.416052 0
M  V30 6740 H 608.102 1.11663 -1.59741 0
M  V30 6741 H 607.198 2.64308 -1.65975 0
M  V30 6742 N 607.499 1.09233 1.13605 0
M  V30 6743 C 608.748 0.82205 1.84188 0
M  V30 6744 C 609.061 -0.654548 1.84323 0
M  V30 6745 O 610.267 -1.04029 2.50779 0
M  V30 6746 C 608.723 1.42066 3.30674 0
M  V30 6747 C 608.331 2.92965 3.38933 0
M  V30 6748 C 610.075 1.22924 4.06313 0
M  V30 6749 C 607.982 3.45922 4.79679 0
M  V30 6750 H 606.912 0.303854 0.690064 0
M  V30 6751 H 609.563 1.31479 1.28006 0
M  V30 6752 H 607.945 0.855613 3.86646 0
M  V30 6753 H 609.119 3.55679 2.92966 0
M  V30 6754 H 607.434 3.11118 2.76757 0
M  V30 6755 H 610.031 1.59945 5.10217 0
M  V30 6756 H 610.374 0.169726 4.15954 0
M  V30 6757 H 610.907 1.76168 3.56665 0
M  V30 6758 H 607.646 4.51484 4.75229 0
M  V30 6759 H 607.166 2.87971 5.26149 0
M  V30 6760 H 608.845 3.43009 5.48592 0
M  V30 6761 N 608.977 -1.30795 0.87923 0
M  V30 6762 C 610.205 -2.00527 0.509548 0
M  V30 6763 C 610.62 -1.65944 -0.90045 0
M  V30 6764 O 609.977 -0.893525 -1.5913 0
M  V30 6765 C 610.028 -3.55276 0.667943 0
M  V30 6766 O 609.749 -3.88625 2.02242 0
M  V30 6767 C 611.25 -4.4228 0.300494 0
M  V30 6768 H 608.47 -0.641261 0.197549 0
M  V30 6769 H 611.014 -1.66813 1.18295 0
M  V30 6770 H 609.169 -3.87377 0.0419843 0
M  V30 6771 H 609.583 -4.83334 2.03688 0
M  V30 6772 H 611.057 -5.50061 0.462242 0
M  V30 6773 H 611.534 -4.32556 -0.76106 0
M  V30 6774 H 612.14 -4.15613 0.902536 0
M  V30 6775 N 610.455 -0.639598 -1.44038 0
M  V30 6776 C 611.68 -0.153117 -2.06834 0
M  V30 6777 C 612.105 1.16676 -1.47541 0
M  V30 6778 O 611.463 1.71769 -0.580093 0
M  V30 6779 C 611.511 -0.0609169 -3.60549 0
M  V30 6780 O 610.615 0.98071 -4.00569 0
M  V30 6781 H 609.956 -0.0886402 -0.658057 0
M  V30 6782 H 612.486 -0.878674 -1.84771 0
M  V30 6783 H 612.496 0.126892 -4.07803 0
M  V30 6784 H 611.171 -1.0245 -4.03084 0
M  V30 6785 H 609.748 0.766789 -3.64931 0
M  V30 6786 N 611.933 1.52934 -0.380664 0
M  V30 6787 C 613.349 1.59571 -0.0302429 0
M  V30 6788 C 613.549 1.39509 1.45394 0
M  V30 6789 O 612.605 1.20777 2.21741 0
M  V30 6790 C 613.918 2.96519 -0.499691 0
M  V30 6791 C 615.466 3.09672 -0.455204 0
M  V30 6792 C 615.941 4.49056 -0.900703 0
M  V30 6793 N 617.432 4.55215 -0.856367 0
M  V30 6794 C 618.167 5.61282 -1.17259 0
M  V30 6795 N 617.663 6.75035 -1.55885 0
M  V30 6796 N 619.456 5.51343 -1.0944 0
M  V30 6797 H 611.607 1.64224 -1.347 0
M  V30 6798 H 613.87 0.771033 -0.551554 0
M  V30 6799 H 613.576 3.16388 -1.53595 0
M  V30 6800 H 613.45 3.77052 0.105789 0
M  V30 6801 H 615.837 2.89504 0.571949 0
M  V30 6802 H 615.918 2.31113 -1.09638 0
M  V30 6803 H 615.562 4.69964 -1.92604 0
M  V30 6804 H 615.492 5.26068 -0.236629 0
M  V30 6805 H 617.983 3.73546 -0.572013 0
M  V30 6806 H 618.296 7.51926 -1.784 0
M  V30 6807 H 616.641 6.76388 -1.59764 0
M  V30 6808 H 619.832 4.61356 -0.791713 0
M  V30 6809 H 620.005 6.33905 -1.34417 0
M  V30 6810 N 613.412 0.11024 1.57214 0
M  V30 6811 C 614.689 -0.592956 1.86396 0
M  V30 6812 C 615.069 -1.85379 1.00985 0
M  V30 6813 O 614.417 -2.28337 0.0863592 0
M  V30 6814 C 614.627 -0.893816 3.3736 0
M  V30 6815 C 615.975 -1.25069 4.05762 0
M  V30 6816 O 616.999 -0.984356 3.42329 0
M  V30 6817 O 615.858 -1.75017 5.17718 0
M  V30 6818 H 612.952 -0.29828 0.771335 0
M  V30 6819 H 615.498 0.144083 1.69087 0
M  V30 6820 H 614.27 2.6031e-05 3.913 0
M  V30 6821 H 613.893 -1.68631 3.60068 0
M  V30 6822 N 614.89 -1.56749 -0.16351 0
M  V30 6823 C 616.12 -1.86307 -0.892936 0
M  V30 6824 C 616.528 -0.6945 -1.75992 0
M  V30 6825 O 615.871 0.345384 -1.80424 0
M  V30 6826 C 615.933 -3.10372 -1.81409 0
M  V30 6827 C 615.597 -4.42913 -1.12593 0
M  V30 6828 C 616.594 -5.17608 -0.487661 0
M  V30 6829 C 614.279 -4.89646 -1.12035 0
M  V30 6830 C 616.273 -6.3723 0.14699 0
M  V30 6831 C 613.96 -6.09197 -0.481883 0
M  V30 6832 C 614.958 -6.82834 0.150678 0
M  V30 6833 O 614.646 -8.00116 0.779065 0
M  V30 6834 H 614.378 -0.622126 -0.264452 0
M  V30 6835 H 616.932 -2.04728 -0.166063 0
M  V30 6836 H 615.162 -2.87917 -2.58148 0
M  V30 6837 H 616.851 -3.26312 -2.41403 0
M  V30 6838 H 617.617 -4.8258 -0.483888 0
M  V30 6839 H 613.496 -4.32265 -1.60212 0
M  V30 6840 H 617.04 -6.94646 0.641325 0
M  V30 6841 H 612.937 -6.43688 -0.483266 0
M  V30 6842 H 613.705 -8.15678 0.679089 0
M  V30 6843 N 616.368 0.432326 -1.51554 0
M  V30 6844 C 617.298 1.53242 -1.76179 0
M  V30 6845 C 618.279 1.58717 -0.611801 0
M  V30 6846 O 619.464 1.74364 -0.855033 0
M  V30 6847 C 616.594 2.91278 -1.89141 0
M  V30 6848 C 615.548 3.00663 -3.04608 0
M  V30 6849 C 614.874 4.40728 -3.02759 0
M  V30 6850 C 616.174 2.74281 -4.44485 0
M  V30 6851 H 617.868 1.32886 -2.68294 0
M  V30 6852 H 615.414 0.637841 -1.29103 0
M  V30 6853 H 617.367 3.68203 -2.04951 0
M  V30 6854 H 616.091 3.12877 -0.936785 0
M  V30 6855 H 614.75 2.26179 -2.88511 0
M  V30 6856 H 614.398 4.59301 -2.05065 0
M  V30 6857 H 614.098 4.47936 -3.80299 0
M  V30 6858 H 615.622 5.19619 -3.20669 0
M  V30 6859 H 617.036 3.40936 -4.60907 0
M  V30 6860 H 615.433 2.92893 -5.23769 0
M  V30 6861 H 616.503 1.69856 -4.54177 0
M  V30 6862 N 617.846 1.41785 0.688094 0
M  V30 6863 C 619.074 1.44915 1.47673 0
M  V30 6864 C 619.489 0.0565786 1.88715 0
M  V30 6865 O 618.846 -0.92579 1.57275 0
M  V30 6866 C 618.897 2.36452 2.73446 0
M  V30 6867 O 618.618 3.7029 2.34131 0
M  V30 6868 C 620.119 2.48463 3.67125 0
M  V30 6869 H 617.339 0.493324 0.454832 0
M  V30 6870 H 619.883 1.86153 0.846594 0
M  V30 6871 H 618.038 1.98502 3.3268 0
M  V30 6872 H 618.452 4.19183 3.15255 0
M  V30 6873 H 619.926 3.16662 4.52138 0
M  V30 6874 H 620.403 1.51826 4.12123 0
M  V30 6875 H 621.009 2.8708 3.13792 0
M  V30 6876 N 619.324 -0.923095 1.27737 0
M  V30 6877 C 620.601 -1.64989 1.05062 0
M  V30 6878 C 620.981 -2.07018 -0.413124 0
M  V30 6879 O 620.329 -1.80797 -1.39731 0
M  V30 6880 C 620.539 -2.84847 2.01652 0
M  V30 6881 C 621.887 -3.56083 2.31279 0
M  V30 6882 O 622.911 -2.94981 1.99662 0
M  V30 6883 O 621.77 -4.66182 2.85196 0
M  V30 6884 H 618.864 -0.723357 0.400853 0
M  V30 6885 H 621.41 -0.973224 1.3902 0
M  V30 6886 H 620.182 -2.50814 3.00347 0
M  V30 6887 H 619.805 -3.60231 1.68284 0
M  V30 6888 N 620.802 -1.09834 -1.13024 0
M  V30 6889 C 622.218 -0.828875 -1.36388 0
M  V30 6890 C 622.418 0.554756 -1.93713 0
M  V30 6891 O 621.474 1.30882 -2.15931 0
M  V30 6892 C 622.787 -1.92352 -2.3113 0
M  V30 6893 C 624.335 -1.95124 -2.44735 0
M  V30 6894 C 624.81 -3.03745 -3.42787 0
M  V30 6895 N 626.301 -3.03012 -3.5034 0
M  V30 6896 C 627.036 -3.83699 -4.26101 0
M  V30 6897 N 626.532 -4.74306 -5.04981 0
M  V30 6898 N 628.325 -3.71942 -4.21445 0
M  V30 6899 H 620.476 -1.99029 -0.74169 0
M  V30 6900 H 622.739 -0.864557 -0.388903 0
M  V30 6901 H 622.445 -2.91906 -1.96172 0
M  V30 6902 H 622.319 -1.80536 -3.3119 0
M  V30 6903 H 624.706 -0.962069 -2.78977 0
M  V30 6904 H 624.787 -2.11018 -1.44586 0
M  V30 6905 H 624.431 -4.02878 -3.09276 0
M  V30 6906 H 624.361 -2.85094 -4.42752 0
M  V30 6907 H 626.852 -2.37352 -2.94062 0
M  V30 6908 H 627.165 -5.32446 -5.60108 0
M  V30 6909 H 625.51 -4.78339 -5.04199 0
M  V30 6910 H 628.701 -3.00513 -3.589 0
M  V30 6911 H 628.874 -4.35062 -4.80235 0
M  V30 6912 N 622.28 1.30327 -0.886154 0
M  V30 6913 C 623.691 1.78243 -0.555554 0
M  V30 6914 C 624.042 1.72849 0.928314 0
M  V30 6915 O 623.167 1.30607 1.72542 0
M  V30 6916 C 623.762 3.23654 -1.00168 0
M  V30 6917 C 622.321 3.69401 -0.722471 0
M  V30 6918 C 621.468 2.50753 -1.18399 0
M  V30 6919 H 624.419 1.1718 -1.07026 0
M  V30 6920 H 624.44 3.79056 -0.331152 0
M  V30 6921 H 623.952 3.27548 -2.08169 0
M  V30 6922 H 622.053 3.70995 0.345496 0
M  V30 6923 H 622.166 4.60818 -1.31085 0
M  V30 6924 H 620.53 2.47452 -0.603303 0
M  V30 6925 H 621.313 2.57383 -2.27176 0
M  V30 6926 N 623.758 0.647228 1.43697 0
M  V30 6927 C 624.688 -0.0345631 2.33474 0
M  V30 6928 C 625.669 -0.818193 1.4913 0
M  V30 6929 O 626.854 -0.780867 1.77809 0
M  V30 6930 C 623.984 -1.00576 3.32418 0
M  V30 6931 C 622.938 -0.33266 4.26705 0
M  V30 6932 C 622.264 -1.41489 5.1564 0
M  V30 6933 C 623.564 0.771204 5.16575 0
M  V30 6934 H 625.258 0.715163 2.90733 0
M  V30 6935 H 622.804 0.345364 1.39797 0
M  V30 6936 H 624.757 -1.49159 3.94119 0
M  V30 6937 H 623.481 -1.78657 2.73403 0
M  V30 6938 H 622.14 0.13267 3.6636 0
M  V30 6939 H 621.788 -2.18698 4.52968 0
M  V30 6940 H 621.488 -0.969799 5.79542 0
M  V30 6941 H 623.012 -1.9022 5.80214 0
M  V30 6942 H 624.426 0.36779 5.72119 0
M  V30 6943 H 622.823 1.1404 5.89165 0
M  V30 6944 H 623.893 1.63169 4.56622 0
M  V30 6945 N 625.236 -1.5273 0.388769 0
M  V30 6946 C 626.464 -2.05992 -0.193677 0
M  V30 6947 C 626.879 -1.26053 -1.40557 0
M  V30 6948 O 626.236 -0.307049 -1.79898 0
M  V30 6949 C 626.287 -3.57068 -0.564321 0
M  V30 6950 O 626.008 -4.3398 0.599422 0
M  V30 6951 C 627.509 -4.26674 -1.20269 0
M  V30 6952 H 624.729 -0.670358 -0.0293445 0
M  V30 6953 H 627.273 -1.96857 0.553844 0
M  V30 6954 H 625.428 -3.66277 -1.26174 0
M  V30 6955 H 625.842 -5.2367 0.294895 0
M  V30 6956 H 627.316 -5.33625 -1.4124 0
M  V30 6957 H 627.793 -3.81854 -2.16989 0
M  V30 6958 H 628.399 -4.2178 -0.546047 0
M  V30 6959 N 626.714 -0.118576 -1.57153 0
M  V30 6960 C 627.661 0.831789 -2.1529 0
M  V30 6961 C 628.631 1.26385 -1.07778 0
M  V30 6962 O 629.816 1.34144 -1.35684 0
M  V30 6963 C 626.956 2.07664 -2.75626 0
M  V30 6964 C 626.069 1.69298 -3.97444 0
M  V30 6965 C 625.204 2.88747 -4.45868 0
M  V30 6966 C 624.243 2.46619 -5.60219 0
M  V30 6967 N 623.38 3.5898 -6.03389 0
M  V30 6968 H 628.22 0.329183 -2.96176 0
M  V30 6969 H 625.757 0.150792 -1.46325 0
M  V30 6970 H 627.715 2.80601 -3.08738 0
M  V30 6971 H 626.345 2.55384 -1.97431 0
M  V30 6972 H 625.397 0.862374 -3.70496 0
M  V30 6973 H 626.709 1.34338 -4.80369 0
M  V30 6974 H 625.863 3.69909 -4.80887 0
M  V30 6975 H 624.602 3.26933 -3.61892 0
M  V30 6976 H 623.607 1.63889 -5.24805 0
M  V30 6977 H 624.832 2.0955 -6.45961 0
M  V30 6978 H 622.778 3.9684 -5.22354 0
M  V30 6979 H 622.695 3.27942 -6.81168 0
M  V30 6980 H 623.963 4.40583 -6.43045 0
M  V30 6981 N 628.193 1.56834 0.155195 0
M  V30 6982 C 629.123 2.00678 1.19376 0
M  V30 6983 C 630.104 0.884973 1.45266 0
M  V30 6984 O 631.289 1.1522 1.56326 0
M  V30 6985 C 628.419 2.38042 2.5289 0
M  V30 6986 C 627.373 3.53332 2.41538 0
M  V30 6987 C 626.699 3.76485 3.79688 0
M  V30 6988 C 627.999 4.86265 1.9064 0
M  V30 6989 H 629.693 2.87688 0.829232 0
M  V30 6990 H 627.239 1.38407 0.397445 0
M  V30 6991 H 629.192 2.67314 3.25763 0
M  V30 6992 H 627.916 1.4796 2.91162 0
M  V30 6993 H 626.575 3.24213 1.71117 0
M  V30 6994 H 626.223 2.83667 4.15382 0
M  V30 6995 H 625.923 4.54068 3.72956 0
M  V30 6996 H 627.447 4.08174 4.54122 0
M  V30 6997 H 628.861 5.14308 2.53299 0
M  V30 6998 H 627.258 5.67597 1.94818 0
M  V30 6999 H 628.328 4.77184 0.861596 0
M  V30 7000 N 629.671 -0.424282 1.51781 0
M  V30 7001 C 630.917 -1.17117 1.66298 0
M  V30 7002 C 631.272 -1.88595 0.380767 0
M  V30 7003 O 630.565 -1.81151 -0.624094 0
M  V30 7004 C 630.759 -2.20418 2.81337 0
M  V30 7005 C 630.588 -1.59081 4.20622 0
M  V30 7006 C 629.358 -1.37007 4.86371 0
M  V30 7007 C 631.556 -1.05992 5.0326 0
M  V30 7008 N 629.538 -0.714049 6.09733 0
M  V30 7009 C 630.909 -0.529933 6.17731 0
M  V30 7010 C 632.964 -0.952927 4.88696 0
M  V30 7011 C 631.667 0.0965457 7.19235 0
M  V30 7012 C 633.693 -0.340325 5.9042 0
M  V30 7013 C 633.055 0.179057 7.04172 0
M  V30 7014 H 629.154 -0.41577 0.662314 0
M  V30 7015 H 631.738 -0.46579 1.89046 0
M  V30 7016 H 629.909 -2.8833 2.60231 0
M  V30 7017 H 631.641 -2.8736 2.84968 0
M  V30 7018 H 628.396 -1.63543 4.44467 0
M  V30 7019 H 628.82 -0.403101 6.75799 0
M  V30 7020 H 633.462 -1.34033 4.00993 0
M  V30 7021 H 631.18 0.496044 8.06576 0
M  V30 7022 H 634.766 -0.259266 5.81222 0
M  V30 7023 H 633.646 0.645626 7.81538 0
M  V30 7024 N 631.149 -1.42148 -0.680565 0
M  V30 7025 C 632.397 -1.42029 -1.43779 0
M  V30 7026 C 632.718 -0.0356347 -1.94967 0
M  V30 7027 O 631.988 0.924936 -1.7269 0
M  V30 7028 H 630.568 -0.522835 -0.533529 0
M  V30 7029 H 633.23 -1.7752 -0.804538 0
M  V30 7030 H 632.326 -2.11658 -2.29363 0
M  V30 7031 N 632.627 0.916307 -1.28225 0
M  V30 7032 C 633.537 2.05165 -1.13775 0
M  V30 7033 C 634.553 1.73879 -0.0649418 0
M  V30 7034 O 635.729 1.99531 -0.273722 0
M  V30 7035 C 632.794 3.37385 -0.798267 0
M  V30 7036 C 631.855 3.82296 -1.95316 0
M  V30 7037 C 631.088 5.08206 -1.62978 0
M  V30 7038 O 631.311 5.6781 -0.542948 0
M  V30 7039 O 630.245 5.48768 -2.47261 0
M  V30 7040 H 634.071 2.20273 -2.09078 0
M  V30 7041 H 631.656 1.0373 -1.07519 0
M  V30 7042 H 633.538 4.16773 -0.62278 0
M  V30 7043 H 632.213 3.23458 0.125139 0
M  V30 7044 H 631.12 3.03746 -2.18378 0
M  V30 7045 H 632.453 4.00782 -2.85718 0
M  V30 7046 N 634.105 1.10431 1.1244 0
M  V30 7047 C 635.037 0.710945 2.17895 0
M  V30 7048 C 636.05 -0.252315 1.60833 0
M  V30 7049 O 637.239 -0.03679 1.78462 0
M  V30 7050 C 634.339 0.0284262 3.38888 0
M  V30 7051 C 633.512 1.01585 4.2544 0
M  V30 7052 C 632.571 0.364826 5.24934 0
M  V30 7053 O 631.597 1.01561 5.60066 0
M  V30 7054 N 632.799 -0.87674 5.73841 0
M  V30 7055 H 635.564 1.61826 2.52255 0
M  V30 7056 H 633.125 0.993132 1.27861 0
M  V30 7057 H 635.117 -0.418568 4.0253 0
M  V30 7058 H 633.687 -0.781294 3.02679 0
M  V30 7059 H 632.907 1.64111 3.58415 0
M  V30 7060 H 634.195 1.68425 4.80115 0
M  V30 7061 H 633.593 -1.42483 5.47462 0
M  V30 7062 H 632.15 -1.26688 6.39369 0
M  V30 7063 N 635.583 -1.29855 0.893053 0
M  V30 7064 C 636.831 -1.9544 0.514566 0
M  V30 7065 C 637.152 -1.70795 -0.940959 0
M  V30 7066 O 636.422 -1.03601 -1.66264 0
M  V30 7067 H 635.002 -0.723137 0.187302 0
M  V30 7068 H 637.664 -1.58234 1.13789 0
M  V30 7069 H 636.76 -3.04341 0.691581 0
M  V30 7070 N 637.061 -0.65484 -1.43351 0
M  V30 7071 C 638.286 -0.175046 -2.0666 0
M  V30 7072 C 638.711 1.15104 -1.4877 0
M  V30 7073 O 638.069 1.71144 -0.598279 0
M  V30 7074 C 638.117 -0.0991544 -3.60464 0
M  V30 7075 O 637.221 0.938169 -4.01587 0
M  V30 7076 H 636.562 -0.0956148 -0.65708 0
M  V30 7077 H 639.092 -0.898222 -1.83829 0
M  V30 7078 H 639.102 0.083632 -4.07914 0
M  V30 7079 H 637.777 -1.06719 -4.01975 0
M  V30 7080 H 636.354 0.72804 -3.65724 0
M  V30 7081 N 638.539 1.52521 -0.396863 0
M  V30 7082 C 639.487 2.28217 0.44943 0
M  V30 7083 C 640.481 1.32416 1.05652 0
M  V30 7084 O 641.687 1.49925 0.996124 0
M  V30 7085 H 638.062 0.733966 0.1637 0
M  V30 7086 H 640.033 2.97658 -0.210367 0
M  V30 7087 C 638.782 3.10713 1.56054 0
M  V30 7088 H 638.105 3.84291 1.10273 0
M  V30 7089 H 639.545 3.66803 2.12677 0
M  V30 7090 C 638.004 2.23499 2.52091 0
M  V30 7091 O 638.534 1.8669 3.55682 0
M  V30 7092 N 636.74 1.8751 2.2201 0
M  V30 7093 H 636.287 2.17643 1.37802 0
M  V30 7094 H 636.245 1.29448 2.86514 0
M  V30 7095 N 640.017 0.126909 1.57088 0
M  V30 7096 C 641.294 -0.573152 1.87014 0
M  V30 7097 C 641.674 -1.84297 1.02945 0
M  V30 7098 O 641.022 -2.28232 0.110573 0
M  V30 7099 C 641.232 -0.857984 3.38289 0
M  V30 7100 C 642.58 -1.20759 4.07066 0
M  V30 7101 O 643.604 -0.947992 3.43353 0
M  V30 7102 O 642.463 -1.69516 5.19545 0
M  V30 7103 H 639.557 -0.290082 0.774456 0
M  V30 7104 H 642.103 0.162008 1.68925 0
M  V30 7105 H 640.875 0.0415286 3.91278 0
M  V30 7106 H 640.498 -1.64803 3.61837 0
M  V30 7107 N 641.495 -1.56914 -0.146875 0
M  V30 7108 C 642.742 -1.83356 -0.859467 0
M  V30 7109 C 643.07 -0.707811 -1.81164 0
M  V30 7110 O 642.325 0.303155 -1.93338 0
M  V30 7111 C 642.624 -3.16128 -1.66727 0
M  V30 7112 C 642.29 -4.42586 -0.861881 0
M  V30 7113 C 640.952 -4.76929 -0.639687 0
M  V30 7114 C 643.304 -5.20344 -0.298643 0
M  V30 7115 C 640.632 -5.86491 0.156451 0
M  V30 7116 C 642.984 -6.30742 0.484536 0
M  V30 7117 C 641.648 -6.63635 0.717306 0
M  V30 7118 H 640.918 -0.670947 -0.314501 0
M  V30 7119 H 643.565 -1.91104 -0.123108 0
M  V30 7120 H 641.87 -3.03831 -2.47374 0
M  V30 7121 H 643.567 -3.33802 -2.2221 0
M  V30 7122 H 640.157 -4.15662 -1.04513 0
M  V30 7123 H 644.341 -4.94186 -0.457585 0
M  V30 7124 H 639.597 -6.10419 0.346292 0
M  V30 7125 H 643.771 -6.90188 0.928105 0
M  V30 7126 H 641.398 -7.48367 1.33607 0
M  V30 7127 N 642.974 0.416227 -1.52004 0
M  V30 7128 C 643.937 1.48926 -1.74223 0
M  V30 7129 C 644.937 1.48693 -0.612119 0
M  V30 7130 O 646.127 1.50343 -0.879921 0
M  V30 7131 C 643.259 2.88372 -1.81809 0
M  V30 7132 H 644.452 1.3052 -2.70008 0
M  V30 7133 H 642.005 0.646271 -1.42313 0
M  V30 7134 H 642.74 3.12157 -0.879135 0
M  V30 7135 H 642.525 2.89944 -2.6396 0
M  V30 7136 H 644.015 3.66173 -2.00766 0
M  V30 7137 N 644.452 1.42507 0.673017 0
M  V30 7138 C 645.7 1.42789 1.43023 0
M  V30 7139 C 646.021 0.0459738 1.94946 0
M  V30 7140 O 645.291 -0.915765 1.73178 0
M  V30 7141 H 643.871 0.525657 0.530748 0
M  V30 7142 H 646.533 1.77944 0.795113 0
M  V30 7143 H 645.629 2.12872 2.28237 0
M  V30 7144 N 645.93 -0.909495 1.28709 0
M  V30 7145 C 647.178 -1.65577 1.15882 0
M  V30 7146 C 647.499 -1.928 -0.292108 0
M  V30 7147 O 646.769 -1.54716 -1.20166 0
M  V30 7148 H 645.349 -0.613714 0.425869 0
M  V30 7149 H 648.011 -1.09108 1.61498 0
M  V30 7150 H 647.107 -2.61634 1.70159 0
M  V30 7151 N 647.408 -1.11026 -1.11852 0
M  V30 7152 C 648.654 -0.857729 -1.83768 0
M  V30 7153 C 648.987 0.615143 -1.842 0
M  V30 7154 O 648.262 1.45391 -1.29196 0
M  V30 7155 C 648.545 -1.41453 -3.31154 0
M  V30 7156 C 648.398 -2.95471 -3.39142 0
M  V30 7157 C 649.717 -1.0619 -4.27097 0
M  V30 7158 H 646.836 -0.313044 -0.667212 0
M  V30 7159 H 649.478 -1.37443 -1.31185 0
M  V30 7160 H 647.628 -0.975052 -3.76065 0
M  V30 7161 H 649.3 -3.4799 -3.02821 0
M  V30 7162 H 647.543 -3.31759 -2.79497 0
M  V30 7163 H 648.214 -3.29515 -4.42859 0
M  V30 7164 H 650.69 -1.44122 -3.90344 0
M  V30 7165 H 649.566 -1.47832 -5.28618 0
M  V30 7166 H 649.827 0.0278912 -4.42091 0
M  V30 7167 N 648.886 1.2938 -0.899927 0
M  V30 7168 C 650.111 2.00228 -0.540692 0
M  V30 7169 C 650.536 1.66909 0.867359 0
M  V30 7170 O 649.894 0.893824 1.57735 0
M  V30 7171 C 649.942 3.52921 -0.740232 0
M  V30 7172 O 649.046 4.11879 0.207154 0
M  V30 7173 H 648.387 0.629505 -0.211233 0
M  V30 7174 H 650.917 1.6487 -1.21158 0
M  V30 7175 H 650.927 4.0287 -0.644973 0
M  V30 7176 H 649.602 3.76508 -1.76677 0
M  V30 7177 H 648.179 3.72845 0.0643315 0
M  V30 7178 N 650.364 0.662433 1.43002 0
M  V30 7179 C 651.641 0.109096 1.95296 0
M  V30 7180 C 652.021 -1.37313 1.60338 0
M  V30 7181 O 651.369 -2.1032 0.893187 0
M  V30 7182 C 651.579 0.365096 3.47085 0
M  V30 7183 C 652.927 0.274964 4.23709 0
M  V30 7184 O 653.951 0.29816 3.5495 0
M  V30 7185 O 652.81 0.206549 5.4611 0
M  V30 7186 H 649.904 -0.00429724 0.826989 0
M  V30 7187 H 652.45 0.736308 1.52894 0
M  V30 7188 H 651.222 1.39237 3.65689 0
M  V30 7189 H 650.845 -0.294733 3.96506 0
M  V30 7190 N 651.842 -1.52309 0.404946 0
M  V30 7191 C 653.09 -2.01368 -0.17186 0
M  V30 7192 C 653.411 -1.29261 -1.46002 0
M  V30 7193 O 652.681 -0.41729 -1.91404 0
M  V30 7194 H 651.261 -0.744034 -0.0664993 0
M  V30 7195 H 653.923 -1.87263 0.540228 0
M  V30 7196 H 653.019 -3.09888 -0.370957 0
M  V30 7197 N 653.32 -0.135238 -1.57019 0
M  V30 7198 C 654.566 0.519563 -1.96032 0
M  V30 7199 C 654.899 1.65284 -1.01955 0
M  V30 7200 O 654.174 1.94408 -0.059727 0
M  V30 7201 C 654.457 1.0369 -3.44848 0
M  V30 7202 C 654.31 -0.0940754 -4.49702 0
M  V30 7203 C 655.629 1.92254 -3.95887 0
M  V30 7204 H 652.748 0.18739 -0.712779 0
M  V30 7205 H 655.39 -0.214086 -1.8879 0
M  V30 7206 H 653.54 1.66209 -3.5115 0
M  V30 7207 H 655.212 -0.73 -4.55487 0
M  V30 7208 H 653.455 -0.754924 -4.27181 0
M  V30 7209 H 654.126 0.309419 -5.51132 0
M  V30 7210 H 656.602 1.39581 -3.9199 0
M  V30 7211 H 655.478 2.25364 -5.00502 0
M  V30 7212 H 655.739 2.85513 -3.37543 0
M  V30 7213 N 654.798 1.5699 0.138552 0
M  V30 7214 C 656.028 1.87704 0.863184 0
M  V30 7215 C 656.436 0.722411 1.74865 0
M  V30 7216 O 655.779 -0.316636 1.80951 0
M  V30 7217 C 655.841 3.13219 1.76449 0
M  V30 7218 C 655.505 4.44648 1.05532 0
M  V30 7219 C 656.502 5.18318 0.405252 0
M  V30 7220 C 654.187 4.91367 1.04231 0
M  V30 7221 C 656.181 6.36916 -0.24835 0
M  V30 7222 C 653.868 6.09887 0.384904 0
M  V30 7223 C 654.866 6.82508 -0.259292 0
M  V30 7224 O 654.554 7.98775 -0.906258 0
M  V30 7225 H 654.286 0.626255 0.254521 0
M  V30 7226 H 656.84 2.04966 0.133472 0
M  V30 7227 H 655.07 2.91988 2.53535 0
M  V30 7228 H 656.759 3.30111 2.36181 0
M  V30 7229 H 657.525 4.83289 0.407053 0
M  V30 7230 H 653.404 4.34759 1.53315 0
M  V30 7231 H 656.948 6.93538 -0.751755 0
M  V30 7232 H 652.845 6.44376 0.380799 0
M  V30 7233 H 653.613 8.14494 -0.80877 0
M  V30 7234 N 656.276 -0.40816 1.52223 0
M  V30 7235 C 657.524 -1.15274 1.66001 0
M  V30 7236 C 657.845 -1.91003 0.392803 0
M  V30 7237 O 657.115 -1.8673 -0.592336 0
M  V30 7238 H 655.695 -0.428526 0.611861 0
M  V30 7239 H 658.357 -0.46512 1.89269 0
M  V30 7240 H 657.453 -1.86628 2.50153 0
M  V30 7241 N 657.755 -1.42862 -0.66545 0
M  V30 7242 C 658.718 -1.46756 -1.76055 0
M  V30 7243 C 659.718 -0.353866 -1.56858 0
M  V30 7244 O 660.908 -0.615099 -1.62979 0
M  V30 7245 C 658.04 -1.30829 -3.14796 0
M  V30 7246 H 659.233 -2.44271 -1.73987 0
M  V30 7247 H 656.786 -1.29447 -0.875965 0
M  V30 7248 H 657.521 -0.342733 -3.22484 0
M  V30 7249 H 657.306 -2.11551 -3.30134 0
M  V30 7250 H 658.796 -1.36458 -3.94676 0
M  V30 7251 N 659.233 0.902656 -1.29189 0
M  V30 7252 C 660.458 1.69167 -1.19989 0
M  V30 7253 C 660.883 1.86607 0.236495 0
M  V30 7254 O 660.241 1.38425 1.17082 0
M  V30 7255 C 660.289 3.05532 -1.91527 0
M  V30 7256 O 659.393 3.93621 -1.2303 0
M  V30 7257 H 658.734 0.517584 -0.415936 0
M  V30 7258 H 661.264 1.12785 -1.70706 0
M  V30 7259 H 661.274 3.55693 -1.99866 0
M  V30 7260 H 659.949 2.92156 -2.96003 0
M  V30 7261 H 658.526 3.52055 -1.22928 0
M  V30 7262 N 660.711 1.11618 1.11262 0
M  V30 7263 C 661.674 0.779447 2.15539 0
M  V30 7264 C 662.674 -0.202081 1.59525 0
M  V30 7265 O 663.864 0.0226356 1.74185 0
M  V30 7266 C 660.996 0.15674 3.40539 0
M  V30 7267 H 662.189 1.70324 2.4684 0
M  V30 7268 H 659.742 0.918298 1.26479 0
M  V30 7269 H 660.477 -0.777186 3.1485 0
M  V30 7270 H 660.262 0.863308 3.82478 0
M  V30 7271 H 661.752 -0.062661 4.17553 0
M  V30 7272 N 662.189 -1.289 0.906776 0
M  V30 7273 C 663.419 -1.99112 0.551168 0
M  V30 7274 C 663.827 -1.67998 -0.870243 0
M  V30 7275 O 663.17 -0.92525 -1.58697 0
M  V30 7276 C 663.232 -3.53162 0.672065 0
M  V30 7277 C 662.896 -4.07849 2.06174 0
M  V30 7278 C 663.893 -4.22212 3.0337 0
M  V30 7279 C 661.578 -4.4271 2.37304 0
M  V30 7280 C 663.572 -4.70678 4.29815 0
M  V30 7281 C 661.259 -4.90871 3.6399 0
M  V30 7282 C 662.257 -5.04811 4.6006 0
M  V30 7283 O 661.945 -5.51925 5.84495 0
M  V30 7284 H 661.677 -0.642728 0.209469 0
M  V30 7285 H 664.231 -1.65234 1.22012 0
M  V30 7286 H 662.461 -3.86662 -0.05394 0
M  V30 7287 H 664.15 -4.046 0.324579 0
M  V30 7288 H 664.916 -3.9556 2.80637 0
M  V30 7289 H 660.795 -4.31114 1.63283 0
M  V30 7290 H 664.339 -4.81474 5.04806 0
M  V30 7291 H 660.236 -5.16961 3.86551 0
M  V30 7292 H 661.004 -5.70225 5.87185 0
M  V30 7293 N 663.667 -0.670007 -1.42649 0
M  V30 7294 C 664.63 0.00204659 -2.292 0
M  V30 7295 C 665.63 0.733817 -1.4308 0
M  V30 7296 O 666.82 0.57254 -1.64522 0
M  V30 7297 C 663.952 1.01359 -3.25483 0
M  V30 7298 H 665.145 -0.759696 -2.90118 0
M  V30 7299 H 662.698 -0.432105 -1.50208 0
M  V30 7300 H 663.433 1.80399 -2.69493 0
M  V30 7301 H 663.218 0.492323 -3.88997 0
M  V30 7302 H 664.708 1.4824 -3.90403 0
M  V30 7303 N 665.145 1.52092 -0.413018 0
M  V30 7304 C 666.075 2.30021 0.401567 0
M  V30 7305 C 667.056 1.34395 1.04269 0
M  V30 7306 O 668.241 1.63304 1.05097 0
M  V30 7307 C 665.371 3.12447 1.51638 0
M  V30 7308 C 664.325 4.16153 1.00005 0
M  V30 7309 C 663.651 4.86948 2.20875 0
M  V30 7310 C 664.951 5.22275 0.0513757 0
M  V30 7311 H 666.645 2.98365 -0.248704 0
M  V30 7312 H 664.191 1.4349 -0.121052 0
M  V30 7313 H 666.144 3.65733 2.09326 0
M  V30 7314 H 664.868 2.41879 2.19458 0
M  V30 7315 H 663.527 3.63882 0.445549 0
M  V30 7316 H 663.175 4.12905 2.8726 0
M  V30 7317 H 662.875 5.57057 1.86978 0
M  V30 7318 H 664.399 5.43048 2.79162 0
M  V30 7319 H 665.813 5.70778 0.537176 0
M  V30 7320 H 664.21 5.9977 -0.198977 0
M  V30 7321 H 665.28 4.76611 -0.892736 0
M  V30 7322 N 666.623 0.143563 1.56945 0
M  V30 7323 C 667.9 -0.553285 1.87612 0
M  V30 7324 C 668.28 -1.83195 1.04894 0
M  V30 7325 O 667.628 -2.28102 0.134773 0
M  V30 7326 C 667.838 -0.822055 3.3918 0
M  V30 7327 C 669.186 -1.16435 4.08324 0
M  V30 7328 O 670.21 -0.911522 3.4434 0
M  V30 7329 O 669.069 -1.63996 5.21313 0
M  V30 7330 H 666.163 -0.281851 0.777489 0
M  V30 7331 H 668.709 0.179916 1.68744 0
M  V30 7332 H 667.481 0.0830265 3.91212 0
M  V30 7333 H 667.104 -1.60956 3.63564 0
M  V30 7334 N 668.101 -1.57061 -0.130224 0
M  V30 7335 C 669.331 -1.88159 -0.853217 0
M  V30 7336 C 669.739 -0.731675 -1.7448 0
M  V30 7337 O 669.082 0.307035 -1.81116 0
M  V30 7338 C 669.144 -3.1415 -1.74785 0
M  V30 7339 C 668.808 -4.45202 -1.03173 0
M  V30 7340 C 669.805 -5.18526 -0.377759 0
M  V30 7341 C 667.49 -4.91912 -1.01624 0
M  V30 7342 C 669.484 -6.36775 0.282123 0
M  V30 7343 C 667.171 -6.10082 -0.352555 0
M  V30 7344 C 668.169 -6.82361 0.295483 0
M  V30 7345 O 667.857 -7.98284 0.948606 0
M  V30 7346 H 667.589 -0.627596 -0.251197 0
M  V30 7347 H 670.143 -2.05034 -0.1226 0
M  V30 7348 H 668.373 -2.93328 -2.51983 0
M  V30 7349 H 670.062 -3.31359 -2.34427 0
M  V30 7350 H 670.828 -4.83498 -0.381417 0
M  V30 7351 H 666.707 -4.35566 -1.51007 0
M  V30 7352 H 670.251 -6.93129 0.788525 0
M  V30 7353 H 666.148 -6.44569 -0.346621 0
M  V30 7354 H 666.916 -8.14054 0.851954 0
M  V30 7355 N 669.579 0.400081 -1.52437 0
M  V30 7356 C 670.856 1.15973 -1.57511 0
M  V30 7357 C 671.236 2.0798 -0.361572 0
M  V30 7358 O 670.584 2.19032 0.650929 0
M  V30 7359 C 670.794 1.92912 -2.90837 0
M  V30 7360 C 672.142 2.48662 -3.44169 0
M  V30 7361 O 673.166 2.03081 -2.92637 0
M  V30 7362 O 672.025 3.31894 -4.34176 0
M  V30 7363 H 669.119 0.530023 -0.634827 0
M  V30 7364 H 671.665 0.40613 -1.64769 0
M  V30 7365 H 670.437 1.25564 -3.70607 0
M  V30 7366 H 670.06 2.75257 -2.86913 0
M  V30 7367 N 671.057 1.43213 0.657864 0
M  V30 7368 C 672.282 1.48227 1.45064 0
M  V30 7369 C 672.707 0.0999939 1.87834 0
M  V30 7370 O 672.065 -0.905269 1.57081 0
M  V30 7371 C 672.113 2.42931 2.6649 0
M  V30 7372 O 671.217 1.91237 3.6538 0
M  V30 7373 H 670.558 0.501551 0.435135 0
M  V30 7374 H 673.088 1.8808 0.805431 0
M  V30 7375 H 673.098 2.6008 3.1436 0
M  V30 7376 H 671.773 3.43348 2.34701 0
M  V30 7377 H 670.35 1.83726 3.24498 0
M  V30 7378 N 672.536 -0.895792 1.29666 0
M  V30 7379 C 673.466 -2.01673 1.17688 0
M  V30 7380 C 674.447 -1.69955 0.0701317 0
M  V30 7381 O 675.632 -1.9258 0.250289 0
M  V30 7382 C 672.762 -3.36568 0.856681 0
M  V30 7383 C 671.716 -3.82509 1.92017 0
M  V30 7384 C 671.042 -5.14574 1.4532 0
M  V30 7385 C 672.342 -4.02409 3.32963 0
M  V30 7386 H 674.036 -2.11953 2.11463 0
M  V30 7387 H 671.582 -1.01839 1.01807 0
M  V30 7388 H 673.535 -4.14498 0.759577 0
M  V30 7389 H 672.259 -3.26391 -0.116763 0
M  V30 7390 H 670.918 -3.068 2.00673 0
M  V30 7391 H 670.566 -5.00815 0.468325 0
M  V30 7392 H 670.266 -5.46283 2.16447 0
M  V30 7393 H 671.79 -5.9504 1.36968 0
M  V30 7394 H 673.204 -4.70808 3.27127 0
M  V30 7395 H 671.601 -4.45478 4.02082 0
M  V30 7396 H 672.671 -3.06616 3.75652 0
M  V30 7397 N 674.014 -1.12206 -1.10668 0
M  V30 7398 C 674.946 -0.74552 -2.16736 0
M  V30 7399 C 675.959 0.226696 -1.61214 0
M  V30 7400 O 677.148 0.0083936 -1.78498 0
M  V30 7401 C 674.248 -0.0823368 -3.388 0
M  V30 7402 C 673.421 -1.08341 -4.2377 0
M  V30 7403 C 672.48 -0.448292 -5.24287 0
M  V30 7404 O 671.506 -1.10458 -5.58379 0
M  V30 7405 N 672.708 0.785336 -5.75163 0
M  V30 7406 H 675.473 -1.65818 -2.49649 0
M  V30 7407 H 673.034 -1.01335 -1.26265 0
M  V30 7408 H 675.026 0.354476 -4.03145 0
M  V30 7409 H 673.596 0.733041 -3.03884 0
M  V30 7410 H 672.816 -1.69792 -3.55759 0
M  V30 7411 H 674.104 -1.76042 -4.77375 0
M  V30 7412 H 673.502 1.33755 -5.4966 0
M  V30 7413 H 672.059 1.16501 -6.41304 0
M  V30 7414 N 675.492 1.28418 -0.913599 0
M  V30 7415 C 676.455 2.25564 -0.406624 0
M  V30 7416 C 677.455 1.5387 0.466965 0
M  V30 7417 O 678.645 1.72094 0.270042 0
M  V30 7418 C 675.777 3.38339 0.417053 0
M  V30 7419 H 676.97 2.71926 -1.26477 0
M  V30 7420 H 674.523 1.40098 -0.692986 0
M  V30 7421 H 675.258 2.97339 1.29461 0
M  V30 7422 H 675.043 3.91542 -0.209102 0
M  V30 7423 H 676.533 4.10578 0.762602 0
M  V30 7424 N 676.97 0.677563 1.42291 0
M  V30 7425 C 677.917 0.000947061 2.308 0
M  V30 7426 C 678.887 -0.789889 1.46116 0
M  V30 7427 O 680.072 -0.761578 1.74942 0
M  V30 7428 C 677.212 -0.942387 3.31984 0
M  V30 7429 C 676.325 -0.14508 4.31756 0
M  V30 7430 C 675.46 -1.08442 5.20013 0
M  V30 7431 C 674.499 -0.278958 6.11464 0
M  V30 7432 N 673.636 -1.17115 6.92263 0
M  V30 7433 H 678.476 0.761521 2.88106 0
M  V30 7434 H 676.013 0.38727 1.41911 0
M  V30 7435 H 677.971 -1.50317 3.89179 0
M  V30 7436 H 676.601 -1.66956 2.76271 0
M  V30 7437 H 675.653 0.532368 3.76656 0
M  V30 7438 H 676.965 0.48015 4.96484 0
M  V30 7439 H 676.119 -1.71504 5.81955 0
M  V30 7440 H 674.858 -1.74353 4.55469 0
M  V30 7441 H 673.863 0.364856 5.48588 0
M  V30 7442 H 675.088 0.376099 6.78058 0
M  V30 7443 H 673.034 -1.81661 6.30345 0
M  V30 7444 H 672.951 -0.601063 7.53607 0
M  V30 7445 H 674.219 -1.78915 7.58689 0
M  V30 7446 N 678.448 -1.51871 0.421078 0
M  V30 7447 C 679.395 -2.27334 -0.398508 0
M  V30 7448 C 680.365 -1.30241 -1.03085 0
M  V30 7449 O 681.55 -1.59121 -1.05285 0
M  V30 7450 C 678.69 -3.10664 -1.50272 0
M  V30 7451 C 677.803 -4.2273 -0.890122 0
M  V30 7452 C 676.938 -4.93399 -1.96803 0
M  V30 7453 C 675.977 -5.97409 -1.333 0
M  V30 7454 N 675.114 -6.61548 -2.35156 0
M  V30 7455 H 679.954 -2.96938 0.251411 0
M  V30 7456 H 677.491 -1.46472 0.135825 0
M  V30 7457 H 679.449 -3.57292 -2.15403 0
M  V30 7458 H 678.079 -2.43207 -2.1225 0
M  V30 7459 H 677.131 -3.80186 -0.127537 0
M  V30 7460 H 678.443 -4.97302 -0.386349 0
M  V30 7461 H 677.597 -5.43491 -2.69633 0
M  V30 7462 H 676.336 -4.18421 -2.50549 0
M  V30 7463 H 675.341 -5.46624 -0.59008 0
M  V30 7464 H 676.566 -6.74335 -0.803076 0
M  V30 7465 H 674.512 -5.89394 -2.88012 0
M  V30 7466 H 674.429 -7.31832 -1.89624 0
M  V30 7467 H 675.697 -7.16276 -3.0752 0
M  V30 7468 N 679.926 -0.151884 -1.56866 0
M  V30 7469 C 680.889 0.771861 -2.15812 0
M  V30 7470 C 681.889 1.17181 -1.10115 0
M  V30 7471 O 683.079 1.09194 -1.35729 0
M  V30 7472 C 680.211 2.04806 -2.7252 0
M  V30 7473 H 681.404 0.259021 -2.98779 0
M  V30 7474 H 678.957 0.097588 -1.55995 0
M  V30 7475 H 679.692 2.60445 -1.93233 0
M  V30 7476 H 679.477 1.77044 -3.49854 0
M  V30 7477 H 680.967 2.70771 -3.1792 0
M  V30 7478 N 681.404 1.57128 0.121893 0
M  V30 7479 C 682.65 1.85853 0.826451 0
M  V30 7480 C 683.005 0.739262 1.77631 0
M  V30 7481 O 682.298 -0.260959 1.89815 0
M  V30 7482 C 682.492 3.1874 1.61677 0
M  V30 7483 C 682.321 4.43487 0.744944 0
M  V30 7484 C 681.091 5.03707 0.400891 0
M  V30 7485 C 683.289 5.1426 0.0638779 0
M  V30 7486 N 681.271 6.12006 -0.481902 0
M  V30 7487 C 682.642 6.16281 -0.678033 0
M  V30 7488 C 684.697 4.97898 -0.0128424 0
M  V30 7489 C 683.4 7.0371 -1.48946 0
M  V30 7490 C 685.426 5.85812 -0.81108 0
M  V30 7491 C 684.788 6.87333 -1.54119 0
M  V30 7492 H 680.887 0.730367 0.279442 0
M  V30 7493 H 683.471 1.9449 0.0903486 0
M  V30 7494 H 681.642 3.11204 2.32393 0
M  V30 7495 H 683.374 3.35283 2.26644 0
M  V30 7496 H 680.129 4.67744 0.742469 0
M  V30 7497 H 680.553 6.70787 -0.915063 0
M  V30 7498 H 685.195 4.19372 0.537278 0
M  V30 7499 H 682.913 7.81646 -2.05074 0
M  V30 7500 H 686.499 5.75217 -0.872764 0
M  V30 7501 H 685.379 7.54182 -2.14893 0
M  V30 7502 N 682.882 -0.391992 1.52647 0
M  V30 7503 C 684.129 -1.13732 1.67545 0
M  V30 7504 C 684.457 -1.90045 0.413881 0
M  V30 7505 O 683.712 -1.86157 -0.603646 0
M  V30 7506 C 684.011 -2.14401 2.85949 0
M  V30 7507 C 683.677 -1.54767 4.23507 0
M  V30 7508 C 682.339 -1.38229 4.60919 0
M  V30 7509 C 684.691 -1.11382 5.0916 0
M  V30 7510 C 682.019 -0.7685 5.81645 0
M  V30 7511 C 684.371 -0.514143 6.30507 0
M  V30 7512 C 683.035 -0.33604 6.66654 0
M  V30 7513 H 682.305 -0.416174 0.613091 0
M  V30 7514 H 684.952 -0.422327 1.86785 0
M  V30 7515 H 683.257 -2.92108 2.61114 0
M  V30 7516 H 684.954 -2.71974 2.94671 0
M  V30 7517 H 681.544 -1.68626 3.94035 0
M  V30 7518 H 685.728 -1.22962 4.80826 0
M  V30 7519 H 680.984 -0.618681 6.08262 0
M  V30 7520 H 685.158 -0.169657 6.96193 0
M  V30 7521 H 682.785 0.14166 7.60068 0
M  V30 7522 N 684.36 -1.4356 -0.65026 0
M  V30 7523 C 685.607 -1.45333 -1.41012 0
M  V30 7524 C 685.935 -0.0787282 -1.94341 0
M  V30 7525 O 685.19 0.916715 -1.72901 0
M  V30 7526 C 685.489 -2.44528 -2.60654 0
M  V30 7527 C 685.155 -3.90331 -2.25727 0
M  V30 7528 C 683.817 -4.3004 -2.15914 0
M  V30 7529 C 686.169 -4.822 -1.97821 0
M  V30 7530 C 683.497 -5.59568 -1.76354 0
M  V30 7531 C 685.849 -6.12095 -1.59759 0
M  V30 7532 C 684.513 -6.50778 -1.48473 0
M  V30 7533 H 683.783 -0.531813 -0.516 0
M  V30 7534 H 686.43 -1.76657 -0.739219 0
M  V30 7535 H 684.735 -2.06619 -3.3289 0
M  V30 7536 H 686.432 -2.43155 -3.18868 0
M  V30 7537 H 683.022 -3.58905 -2.34276 0
M  V30 7538 H 687.206 -4.5229 -2.04322 0
M  V30 7539 H 682.462 -5.88376 -1.66205 0
M  V30 7540 H 686.636 -6.82751 -1.37198 0
M  V30 7541 H 684.263 -7.5105 -1.17591 0
M  V30 7542 N 685.838 0.888903 -1.30139 0
M  V30 7543 C 687.085 1.64037 -1.18736 0
M  V30 7544 C 687.413 1.92771 0.258801 0
M  V30 7545 O 686.668 1.54427 1.20212 0
M  V30 7546 C 686.967 2.99041 -1.95728 0
M  V30 7547 C 686.633 2.89874 -3.45375 0
M  V30 7548 C 685.295 2.87082 -3.86183 0
M  V30 7549 C 687.647 2.78289 -4.40687 0
M  V30 7550 C 684.975 2.70536 -5.20603 0
M  V30 7551 C 687.327 2.63282 -5.75209 0
M  V30 7552 C 685.991 2.58861 -6.15262 0
M  V30 7553 H 685.261 0.600253 -0.434485 0
M  V30 7554 H 687.908 1.0338 -1.61198 0
M  V30 7555 H 686.213 3.63626 -1.45888 0
M  V30 7556 H 687.91 3.56139 -1.843 0
M  V30 7557 H 684.5 2.92856 -3.12943 0
M  V30 7558 H 688.684 2.79516 -4.10103 0
M  V30 7559 H 683.94 2.65526 -5.50732 0
M  V30 7560 H 688.114 2.5329 -6.48704 0
M  V30 7561 H 685.741 2.45799 -7.19366 0
M  V30 7562 N 687.317 1.12792 1.10072 0
M  V30 7563 C 688.594 0.796867 1.78632 0
M  V30 7564 C 688.974 -0.712739 1.98704 0
M  V30 7565 O 688.322 -1.64773 1.5831 0
M  V30 7566 C 688.532 1.57622 3.11378 0
M  V30 7567 C 689.88 1.76463 3.86194 0
M  V30 7568 O 690.904 1.54165 3.2111 0
M  V30 7569 O 689.763 2.13623 5.03018 0
M  V30 7570 H 686.857 0.290248 0.774394 0
M  V30 7571 H 689.403 1.23215 1.16688 0
M  V30 7572 H 688.175 2.60246 2.92212 0
M  V30 7573 H 687.798 1.13543 3.81043 0
M  V30 7574 N 688.795 -1.27931 0.920396 0
M  V30 7575 C 689.742 -2.27085 0.412422 0
M  V30 7576 C 690.712 -1.57858 -0.516725 0
M  V30 7577 O 691.897 -1.85717 -0.437475 0
M  V30 7578 C 689.037 -3.43466 -0.335399 0
M  V30 7579 C 688.15 -4.27425 0.627017 0
M  V30 7580 C 687.285 -5.31016 -0.139916 0
M  V30 7581 C 686.324 -6.06641 0.815683 0
M  V30 7582 N 685.461 -7.02052 0.0818439 0
M  V30 7583 H 690.301 -2.69913 1.26298 0
M  V30 7584 H 687.838 -1.32732 0.634076 0
M  V30 7585 H 689.796 -4.09744 -0.785226 0
M  V30 7586 H 688.426 -3.01611 -1.15025 0
M  V30 7587 H 687.478 -3.6113 1.19537 0
M  V30 7588 H 688.79 -4.79969 1.35763 0
M  V30 7589 H 687.944 -6.03208 -0.649998 0
M  V30 7590 H 686.683 -4.79257 -0.903543 0
M  V30 7591 H 685.688 -5.33294 1.33708 0
M  V30 7592 H 686.913 -6.60489 1.57897 0
M  V30 7593 H 684.859 -6.52634 -0.663671 0
M  V30 7594 H 684.776 -7.52249 0.752163 0
M  V30 7595 H 686.044 -7.78432 -0.407825 0
M  V30 7596 N 690.273 -0.685099 -1.4193 0
M  V30 7597 C 691.183 -0.013404 -2.34596 0
M  V30 7598 C 692.199 0.777589 -1.55658 0
M  V30 7599 O 693.375 0.717553 -1.88184 0
M  V30 7600 C 690.44 0.919031 -3.34297 0
M  V30 7601 C 689.501 0.121417 -4.29128 0
M  V30 7602 C 688.734 1.00944 -5.24067 0
M  V30 7603 O 688.957 2.24898 -5.24192 0
M  V30 7604 O 687.891 0.464724 -6.00103 0
M  V30 7605 H 691.717 -0.776978 -2.93593 0
M  V30 7606 H 689.302 -0.445379 -1.42607 0
M  V30 7607 H 691.184 1.45402 -3.9552 0
M  V30 7608 H 689.859 1.66228 -2.77759 0
M  V30 7609 H 688.766 -0.45792 -3.71287 0
M  V30 7610 H 690.099 -0.582937 -4.88736 0
M  V30 7611 N 691.751 1.51645 -0.429126 0
M  V30 7612 C 693 2.01203 0.141538 0
M  V30 7613 C 693.313 1.31828 1.44502 0
M  V30 7614 O 694.519 1.7231 2.09813 0
M  V30 7615 C 692.975 3.58624 0.302786 0
M  V30 7616 C 692.583 4.3693 -0.989775 0
M  V30 7617 C 694.327 4.16353 0.827661 0
M  V30 7618 C 692.234 5.86037 -0.794619 0
M  V30 7619 H 691.164 0.751867 0.05667 0
M  V30 7620 H 693.815 1.74822 -0.557633 0
M  V30 7621 H 692.197 3.81417 1.06476 0
M  V30 7622 H 693.371 4.25887 -1.75945 0
M  V30 7623 H 691.686 3.90614 -1.44256 0
M  V30 7624 H 694.283 5.25455 0.990026 0
M  V30 7625 H 694.626 3.74995 1.80787 0
M  V30 7626 H 695.159 3.97606 0.124213 0
M  V30 7627 H 691.898 6.31792 -1.74697 0
M  V30 7628 H 691.418 5.99765 -0.0645968 0
M  V30 7629 H 693.097 6.45471 -0.444591 0
M  V30 7630 N 693.229 0.160201 1.56784 0
M  V30 7631 C 694.475 -0.48831 1.96833 0
M  V30 7632 C 694.808 -1.63641 1.04571 0
M  V30 7633 O 694.083 -1.94289 0.0906481 0
M  V30 7634 C 694.366 -0.981908 3.46454 0
M  V30 7635 C 694.219 0.165607 4.49495 0
M  V30 7636 C 695.538 -1.85931 3.98896 0
M  V30 7637 H 692.657 -0.176027 0.71567 0
M  V30 7638 H 695.299 0.244093 1.88426 0
M  V30 7639 H 693.449 -1.60602 3.5375 0
M  V30 7640 H 695.121 0.802372 4.54268 0
M  V30 7641 H 693.364 0.822789 4.25926 0
M  V30 7642 H 694.035 -0.221699 5.51555 0
M  V30 7643 H 696.511 -1.33327 3.94161 0
M  V30 7644 H 695.387 -2.17373 5.04024 0
M  V30 7645 H 695.648 -2.80106 3.42042 0
M  V30 7646 N 694.707 -1.5719 -0.113559 0
M  V30 7647 C 695.947 -1.86958 -0.82621 0
M  V30 7648 C 696.311 -0.748884 -1.76793 0
M  V30 7649 O 697.512 -0.92847 -2.52256 0
M  V30 7650 C 695.783 -3.21957 -1.55173 0
M  V30 7651 S 697.342 -3.73371 -2.3052 0
M  V30 7652 H 694.16 -0.655394 -0.275643 0
M  V30 7653 H 696.762 -1.95318 -0.0842684 0
M  V30 7654 H 695.466 -4.01459 -0.851977 0
M  V30 7655 H 694.997 -3.16688 -2.33393 0
M  V30 7656 H 697.012 -3.45308 -3.56338 0
M  V30 7657 N 696.185 0.383891 -1.52853 0
M  V30 7658 C 697.115 1.47559 -1.80965 0
M  V30 7659 C 698.096 1.5669 -0.661986 0
M  V30 7660 O 699.281 1.71556 -0.910072 0
M  V30 7661 C 696.411 2.85114 -1.98312 0
M  V30 7662 C 695.365 2.9082 -3.14019 0
M  V30 7663 C 694.691 4.30873 -3.16627 0
M  V30 7664 C 695.991 2.60001 -4.52986 0
M  V30 7665 H 697.685 1.24283 -2.72386 0
M  V30 7666 H 695.231 0.596445 -1.31067 0
M  V30 7667 H 697.184 3.61496 -2.16561 0
M  V30 7668 H 695.908 3.09738 -1.03585 0
M  V30 7669 H 694.567 2.16886 -2.9556 0
M  V30 7670 H 694.215 4.52545 -2.19573 0
M  V30 7671 H 693.915 4.3561 -3.94357 0
M  V30 7672 H 695.439 5.09154 -3.37038 0
M  V30 7673 H 696.853 3.261 -4.71521 0
M  V30 7674 H 695.25 2.76081 -5.32822 0
M  V30 7675 H 696.32 1.5532 -4.59351 0
M  V30 7676 N 697.663 1.43903 0.642637 0
M  V30 7677 C 698.911 1.45791 1.39962 0
M  V30 7678 C 699.232 0.0873144 1.94804 0
M  V30 7679 O 698.502 -0.878825 1.75081 0
M  V30 7680 H 697.082 0.536797 0.519479 0
M  V30 7681 H 699.744 1.7959 0.757189 0
M  V30 7682 H 698.84 2.17665 2.2367 0
M  V30 7683 N 699.141 -0.881989 1.30609 0
M  V30 7684 C 700.104 -1.96957 1.1722 0
M  V30 7685 C 701.104 -1.60472 0.102598 0
M  V30 7686 O 702.294 -1.70628 0.350943 0
M  V30 7687 C 699.426 -3.31463 0.796572 0
M  V30 7688 H 700.619 -2.10262 2.13846 0
M  V30 7689 H 698.172 -1.06877 1.14048 0
M  V30 7690 H 698.907 -3.23859 -0.169053 0
M  V30 7691 H 698.692 -3.59314 1.56959 0
M  V30 7692 H 700.182 -4.11233 0.72645 0
M  V30 7693 N 700.619 -1.13374 -1.09472 0
M  V30 7694 C 701.867 -0.893422 -1.8128 0
M  V30 7695 C 702.188 0.582029 -1.86111 0
M  V30 7696 O 701.458 1.42305 -1.34633 0
M  V30 7697 H 700.038 -0.327543 -0.67136 0
M  V30 7698 H 702.7 -1.43018 -1.32408 0
M  V30 7699 H 701.796 -1.28374 -2.84476 0
M  V30 7700 N 702.098 1.27442 -0.927168 0
M  V30 7701 C 703.347 1.93679 -0.563146 0
M  V30 7702 C 703.66 1.73673 0.899837 0
M  V30 7703 O 704.866 2.34247 1.37262 0
M  V30 7704 C 703.322 3.46961 -0.95636 0
M  V30 7705 C 702.93 3.75724 -2.43999 0
M  V30 7706 C 704.674 4.19282 -0.663565 0
M  V30 7707 C 702.581 5.22378 -2.77263 0
M  V30 7708 H 701.511 0.725059 -0.206894 0
M  V30 7709 H 704.162 1.44743 -1.12791 0
M  V30 7710 H 702.544 3.94703 -0.320254 0
M  V30 7711 H 703.718 3.38741 -3.12396 0
M  V30 7712 H 702.033 3.16605 -2.70463 0
M  V30 7713 H 704.63 5.27265 -0.888596 0
M  V30 7714 H 704.973 4.14382 0.399198 0
M  V30 7715 H 705.506 3.7736 -1.25875 0
M  V30 7716 H 702.245 5.32367 -3.82446 0
M  V30 7717 H 701.765 5.6051 -2.13516 0
M  V30 7718 H 703.444 5.9025 -2.64979 0
M  V30 7719 N 703.576 0.692616 1.41565 0
M  V30 7720 C 704.524 0.0139952 2.32596 0
M  V30 7721 C 705.518 -0.771691 1.50802 0
M  V30 7722 O 706.724 -0.677646 1.66757 0
M  V30 7723 H 703.099 -0.0142745 0.751865 0
M  V30 7724 H 705.07 0.798851 2.87508 0
M  V30 7725 C 703.819 -0.910602 3.35564 0
M  V30 7726 H 703.142 -0.315446 3.98554 0
M  V30 7727 H 704.582 -1.3538 4.01806 0
M  V30 7728 C 703.041 -2.02539 2.6922 0
M  V30 7729 O 703.571 -3.11386 2.53775 0
M  V30 7730 N 701.777 -1.80227 2.27962 0
M  V30 7731 H 701.324 -0.917054 2.40724 0
M  V30 7732 H 701.282 -2.55001 1.83907 0
M  V30 7733 N 705.054 -1.51416 0.437162 0
M  V30 7734 C 706.279 -2.0699 -0.130424 0
M  V30 7735 C 706.704 -1.30249 -1.35709 0
M  V30 7736 O 706.062 -0.340388 -1.78076 0
M  V30 7737 C 706.11 -3.5801 -0.43142 0
M  V30 7738 O 705.214 -3.8345 -1.5179 0
M  V30 7739 H 704.555 -0.663997 -0.00194339 0
M  V30 7740 H 707.085 -1.95029 0.618445 0
M  V30 7741 H 707.095 -4.02261 -0.681926 0
M  V30 7742 H 705.77 -4.13291 0.465137 0
M  V30 7743 H 704.347 -3.51062 -1.25737 0
M  V30 7744 N 706.532 -0.168513 -1.56696 0
M  V30 7745 C 707.48 0.779791 -2.19139 0
M  V30 7746 C 708.474 1.23957 -1.1546 0
M  V30 7747 O 709.68 1.20555 -1.33666 0
M  V30 7748 H 706.055 0.269739 -0.701958 0
M  V30 7749 H 708.026 0.229156 -2.97519 0
M  V30 7750 C 706.775 2.00003 -2.84419 0
M  V30 7751 H 706.098 1.65527 -3.63924 0
M  V30 7752 H 707.538 2.64251 -3.31583 0
M  V30 7753 C 705.997 2.82187 -1.84044 0
M  V30 7754 O 706.527 3.79247 -1.32418 0
M  V30 7755 N 704.733 2.47145 -1.52864 0
M  V30 7756 H 704.28 1.68277 -1.9504 0
M  V30 7757 H 704.238 3.02422 -0.859569 0
M  V30 7758 N 708.01 1.57248 0.105221 0
M  V30 7759 C 708.973 2.00388 1.11252 0
M  V30 7760 C 709.973 0.89594 1.33527 0
M  V30 7761 O 711.163 1.16166 1.29811 0
M  V30 7762 C 708.295 2.35589 2.46395 0
M  V30 7763 H 709.488 2.90591 0.741424 0
M  V30 7764 H 707.041 1.52332 0.349956 0
M  V30 7765 H 707.776 1.4831 2.884 0
M  V30 7766 H 707.561 3.16408 2.31578 0
M  V30 7767 H 709.051 2.69658 3.18864 0
M  V30 7768 N 709.488 -0.375779 1.53054 0
M  V30 7769 C 710.899 -0.95309 1.6054 0
M  V30 7770 C 711.25 -1.90575 0.466446 0
M  V30 7771 O 710.375 -2.12507 -0.408609 0
M  V30 7772 C 710.97 -1.73537 2.90982 0
M  V30 7773 C 709.529 -2.26218 3.00836 0
M  V30 7774 C 708.676 -1.07157 2.55759 0
M  V30 7775 H 711.627 -0.154895 1.57942 0
M  V30 7776 H 711.648 -2.59574 2.78211 0
M  V30 7777 H 711.16 -1.04176 3.73857 0
M  V30 7778 H 709.261 -2.98852 2.22527 0
M  V30 7779 H 709.374 -2.54799 4.05727 0
M  V30 7780 H 707.738 -1.43553 2.10391 0
M  V30 7781 H 708.521 -0.393099 3.41042 0
M  V30 7782 N 710.966 -1.44241 -0.634997 0
M  V30 7783 C 711.876 -1.53293 -1.77591 0
M  V30 7784 C 712.892 -0.418831 -1.68884 0
M  V30 7785 O 714.068 -0.675619 -1.8973 0
M  V30 7786 C 711.133 -1.47075 -3.13958 0
M  V30 7787 C 710.194 -2.69304 -3.34326 0
M  V30 7788 C 709.427 -2.63374 -4.64187 0
M  V30 7789 O 709.65 -1.69161 -5.44739 0
M  V30 7790 O 708.584 -3.54166 -4.86673 0
M  V30 7791 H 712.41 -2.49673 -1.72908 0
M  V30 7792 H 709.995 -1.26445 -0.795745 0
M  V30 7793 H 711.877 -1.46117 -3.95257 0
M  V30 7794 H 710.552 -0.538373 -3.19192 0
M  V30 7795 H 709.459 -2.75831 -2.52721 0
M  V30 7796 H 710.792 -3.61576 -3.33951 0
M  V30 7797 N 712.444 0.87505 -1.31075 0
M  V30 7798 C 713.392 2.00317 -1.18219 0
M  V30 7799 C 714.386 1.69152 -0.0916872 0
M  V30 7800 O 715.592 1.7821 -0.253229 0
M  V30 7801 H 711.967 0.656981 -0.365895 0
M  V30 7802 H 713.938 2.08293 -2.13674 0
M  V30 7803 C 712.687 3.35821 -0.901095 0
M  V30 7804 H 712.01 3.6032 -1.73233 0
M  V30 7805 H 713.45 4.15366 -0.851295 0
M  V30 7806 C 711.909 3.34563 0.396114 0
M  V30 7807 O 712.439 3.75971 1.41452 0
M  V30 7808 N 710.645 2.87681 0.410832 0
M  V30 7809 H 710.192 2.54179 -0.418415 0
M  V30 7810 H 710.15 2.87223 1.27869 0
M  V30 7811 N 713.922 1.13953 1.08869 0
M  V30 7812 C 715.171 0.899431 1.80536 0
M  V30 7813 C 715.484 -0.575781 1.86933 0
M  V30 7814 O 716.69 -0.932988 2.54966 0
M  V30 7815 C 715.146 1.55963 3.24351 0
M  V30 7816 C 714.754 3.07077 3.26202 0
M  V30 7817 C 716.498 1.40046 4.00733 0
M  V30 7818 C 714.405 3.65955 4.64576 0
M  V30 7819 H 713.335 0.332849 0.676556 0
M  V30 7820 H 715.986 1.3679 1.22314 0
M  V30 7821 H 714.368 1.01883 3.82669 0
M  V30 7822 H 715.542 3.67785 2.77617 0
M  V30 7823 H 713.857 3.22576 2.63312 0
M  V30 7824 H 716.454 1.81441 5.02974 0
M  V30 7825 H 716.797 0.345993 4.1486 0
M  V30 7826 H 717.33 1.91137 3.48872 0
M  V30 7827 H 714.069 4.71234 4.55652 0
M  V30 7828 H 713.589 3.10027 5.13462 0
M  V30 7829 H 715.268 3.65968 5.33551 0
M  V30 7830 N 715.4 -1.26948 0.933913 0
M  V30 7831 C 716.628 -1.98186 0.59414 0
M  V30 7832 C 717.043 -1.69614 -0.829257 0
M  V30 7833 O 716.4 -0.960213 -1.55197 0
M  V30 7834 C 716.451 -3.52123 0.818026 0
M  V30 7835 O 716.172 -3.79698 2.18543 0
M  V30 7836 C 717.673 -4.40608 0.48781 0
M  V30 7837 H 714.893 -0.632305 0.224569 0
M  V30 7838 H 717.437 -1.61646 1.25263 0
M  V30 7839 H 715.592 -3.86851 0.206246 0
M  V30 7840 H 716.006 -4.7426 2.24005 0
M  V30 7841 H 717.48 -5.47606 0.695126 0
M  V30 7842 H 717.957 -4.35394 -0.576913 0
M  V30 7843 H 718.563 -4.11411 1.078 0
M  V30 7844 N 716.879 -0.700114 -1.41195 0
M  V30 7845 C 718.107 -0.242179 -2.05478 0
M  V30 7846 C 718.522 1.11029 -1.52702 0
M  V30 7847 O 717.879 1.69473 -0.677127 0
M  V30 7848 C 717.93 -0.196271 -3.60967 0
M  V30 7849 O 717.651 -1.49532 -4.11791 0
M  V30 7850 C 719.152 0.282102 -4.42401 0
M  V30 7851 H 716.372 -0.111749 -0.661629 0
M  V30 7852 H 718.916 -0.953975 -1.80885 0
M  V30 7853 H 717.071 0.46638 -3.84582 0
M  V30 7854 H 717.485 -1.38545 -5.05871 0
M  V30 7855 H 718.959 0.263093 -5.51373 0
M  V30 7856 H 719.436 1.32174 -4.1884 0
M  V30 7857 H 720.042 -0.349712 -4.2386 0
M  V30 7858 N 718.357 1.51182 -0.445186 0
M  V30 7859 C 719.585 2.06568 0.117091 0
M  V30 7860 C 720 1.31182 1.35781 0
M  V30 7861 O 719.357 0.373605 1.78635 0
M  V30 7862 C 719.408 3.58917 0.431408 0
M  V30 7863 O 719.129 4.31456 -0.760078 0
M  V30 7864 C 720.63 4.30843 1.0435 0
M  V30 7865 H 717.85 0.670985 0.00444436 0
M  V30 7866 H 720.394 1.94666 -0.626525 0
M  V30 7867 H 718.549 3.70708 1.12493 0
M  V30 7868 H 718.963 5.22215 -0.489048 0
M  V30 7869 H 720.437 5.38499 1.21337 0
M  V30 7870 H 720.914 3.89644 2.02667 0
M  V30 7871 H 721.52 4.23516 0.38913 0
M  V30 7872 N 719.835 0.176821 1.56605 0
M  V30 7873 C 720.765 -0.746841 2.21234 0
M  V30 7874 C 721.746 -1.23502 1.16967 0
M  V30 7875 O 722.931 -1.28718 1.45414 0
M  V30 7876 C 720.061 -1.97407 2.8574 0
M  V30 7877 C 719.015 -1.62153 3.96094 0
M  V30 7878 C 718.341 -2.92387 4.47676 0
M  V30 7879 C 719.641 -0.845353 5.15413 0
M  V30 7880 H 721.335 -0.208116 2.98676 0
M  V30 7881 H 718.881 -0.0986594 1.43662 0
M  V30 7882 H 720.834 -2.62531 3.2963 0
M  V30 7883 H 719.558 -2.53703 2.05676 0
M  V30 7884 H 718.217 -0.993964 3.52868 0
M  V30 7885 H 717.865 -3.46734 3.64396 0
M  V30 7886 H 717.565 -2.69551 5.22127 0
M  V30 7887 H 719.089 -3.5853 4.94255 0
M  V30 7888 H 720.503 -1.39929 5.55961 0
M  V30 7889 H 718.9 -0.715814 5.95815 0
M  V30 7890 H 719.97 0.157239 4.84645 0
M  V30 7891 N 721.313 -1.57302 -0.09688 0
M  V30 7892 C 722.261 -2.02942 -1.13654 0
M  V30 7893 C 723.255 -0.930173 -1.41577 0
M  V30 7894 O 724.461 -1.11535 -1.41279 0
M  V30 7895 H 720.836 -0.646726 -0.383731 0
M  V30 7896 H 722.807 -2.89452 -0.725267 0
M  V30 7897 C 721.556 -2.46815 -2.44903 0
M  V30 7898 H 720.879 -3.30979 -2.24261 0
M  V30 7899 H 722.319 -2.82527 -3.16156 0
M  V30 7900 C 720.778 -1.34071 -3.09074 0
M  V30 7901 O 721.308 -0.668856 -3.96092 0
M  V30 7902 N 719.514 -1.09214 -2.69296 0
M  V30 7903 H 719.061 -1.64029 -1.98626 0
M  V30 7904 H 719.019 -0.339785 -3.12559 0
M  V30 7905 N 722.791 0.367657 -1.53252 0
M  V30 7906 C 723.723 1.47032 -1.75824 0
M  V30 7907 C 724.736 1.49736 -0.63898 0
M  V30 7908 O 725.925 1.53253 -0.915193 0
M  V30 7909 C 723.025 2.85805 -1.82122 0
M  V30 7910 C 722.198 3.06822 -3.11736 0
M  V30 7911 C 721.257 4.25698 -3.09302 0
M  V30 7912 O 720.283 4.20972 -3.83107 0
M  V30 7913 N 721.485 5.33002 -2.29977 0
M  V30 7914 H 724.25 1.28048 -2.70968 0
M  V30 7915 H 721.811 0.557363 -1.52004 0
M  V30 7916 H 723.803 3.63465 -1.77975 0
M  V30 7917 H 722.373 2.98046 -0.942716 0
M  V30 7918 H 721.593 2.1684 -3.29202 0
M  V30 7919 H 722.881 3.17731 -3.97397 0
M  V30 7920 H 722.279 5.39703 -1.69521 0
M  V30 7921 H 720.836 6.09247 -2.3165 0
M  V30 7922 N 724.269 1.44576 0.627338 0
M  V30 7923 C 725.494 1.51271 1.41887 0
M  V30 7924 C 725.919 0.139814 1.8758 0
M  V30 7925 O 725.277 -0.871746 1.58966 0
M  V30 7926 C 725.325 2.48529 2.61277 0
M  V30 7927 O 724.429 1.98944 3.61241 0
M  V30 7928 H 723.77 0.510668 0.424399 0
M  V30 7929 H 726.3 1.89746 0.765356 0
M  V30 7930 H 726.31 2.66689 3.08773 0
M  V30 7931 H 724.985 3.48249 2.27366 0
M  V30 7932 H 723.562 1.90568 3.20528 0
M  V30 7933 N 725.747 -0.868086 1.31537 0
M  V30 7934 C 726.993 -1.62359 1.2252 0
M  V30 7935 C 727.348 -1.91204 -0.214169 0
M  V30 7936 O 726.641 -1.5339 -1.14813 0
M  V30 7937 C 726.835 -2.95889 2.0046 0
M  V30 7938 C 726.664 -2.80082 3.5183 0
M  V30 7939 C 725.434 -2.7917 4.21179 0
M  V30 7940 C 727.632 -2.54805 4.46743 0
M  V30 7941 N 725.614 -2.54433 5.58692 0
M  V30 7942 C 726.985 -2.39349 5.71937 0
M  V30 7943 C 729.04 -2.40165 4.36148 0
M  V30 7944 C 727.743 -2.1074 6.87736 0
M  V30 7945 C 729.769 -2.12945 5.51732 0
M  V30 7946 C 729.131 -1.98278 6.75918 0
M  V30 7947 H 725.23 -0.598381 0.503452 0
M  V30 7948 H 727.814 -1.02156 1.65748 0
M  V30 7949 H 725.985 -3.54095 1.59598 0
M  V30 7950 H 727.717 -3.60734 1.83447 0
M  V30 7951 H 724.472 -2.91621 3.73168 0
M  V30 7952 H 724.896 -2.45029 6.31102 0
M  V30 7953 H 729.538 -2.50231 3.408 0
M  V30 7954 H 727.256 -1.99412 7.8311 0
M  V30 7955 H 730.842 -2.02415 5.45454 0
M  V30 7956 H 729.722 -1.77514 7.63845 0
M  V30 7957 N 727.225 -1.14528 -1.08264 0
M  V30 7958 C 728.155 -0.856356 -2.1723 0
M  V30 7959 C 729.136 0.189251 -1.69044 0
M  V30 7960 O 730.321 0.0456119 -1.94146 0
M  V30 7961 C 727.451 -0.334662 -3.45684 0
M  V30 7962 C 726.405 -1.31588 -4.0727 0
M  V30 7963 C 725.731 -0.653428 -5.30692 0
M  V30 7964 C 727.031 -2.67866 -4.48381 0
M  V30 7965 H 728.725 -1.76755 -2.41657 0
M  V30 7966 H 726.271 -0.851287 -1.16143 0
M  V30 7967 H 728.224 -0.120128 -4.21229 0
M  V30 7968 H 726.948 0.611967 -3.20815 0
M  V30 7969 H 725.607 -1.51661 -3.33758 0
M  V30 7970 H 725.255 0.299054 -5.0211 0
M  V30 7971 H 724.955 -1.30817 -5.72853 0
M  V30 7972 H 726.479 -0.448453 -6.08951 0
M  V30 7973 H 727.893 -2.51692 -5.15096 0
M  V30 7974 H 726.29 -3.29627 -5.01464 0
M  V30 7975 H 727.36 -3.24632 -3.60198 0
M  V30 7976 N 728.703 1.26451 -0.940633 0
M  V30 7977 C 729.651 2.28389 -0.440581 0
M  V30 7978 C 730.645 1.62402 0.481859 0
M  V30 7979 O 731.851 1.76361 0.360132 0
M  V30 7980 H 728.226 0.741716 -0.123938 0
M  V30 7981 H 730.197 2.67967 -1.31288 0
M  V30 7982 C 728.946 3.46576 0.279364 0
M  V30 7983 H 728.269 3.97574 -0.421274 0
M  V30 7984 H 729.709 4.19826 0.59348 0
M  V30 7985 C 728.168 3.01815 1.49697 0
M  V30 7986 O 728.698 3.06607 2.59529 0
M  V30 7987 N 726.904 2.57163 1.35334 0
M  V30 7988 H 726.451 2.53464 0.459743 0
M  V30 7989 H 726.409 2.27578 2.16923 0
M  V30 7990 N 730.181 0.707592 1.40822 0
M  V30 7991 C 731.429 0.243189 2.00632 0
M  V30 7992 C 731.75 -1.16512 1.56365 0
M  V30 7993 O 731.02 -1.78841 0.799553 0
M  V30 7994 H 729.6 0.0869203 0.741926 0
M  V30 7995 H 732.262 0.911438 1.72275 0
M  V30 7996 H 731.358 0.270014 3.1093 0
M  V30 7997 N 731.66 -1.50943 0.453197 0
M  V30 7998 C 733.071 -1.86699 -0.00619892 0
M  V30 7999 C 733.422 -1.3693 -1.40515 0
M  V30 8000 O 732.547 -0.726715 -2.03833 0
M  V30 8001 C 733.142 -3.38795 -0.018025 0
M  V30 8002 C 731.701 -3.74028 -0.421885 0
M  V30 8003 C 730.848 -2.74752 0.375087 0
M  V30 8004 H 733.799 -1.43942 0.668317 0
M  V30 8005 H 733.82 -3.71468 -0.824125 0
M  V30 8006 H 733.332 -3.74988 1.00028 0
M  V30 8007 H 731.433 -3.43431 -1.44521 0
M  V30 8008 H 731.546 -4.78908 -0.135664 0
M  V30 8009 H 729.91 -2.5414 -0.168794 0
M  V30 8010 H 730.693 -3.13787 1.39256 0
M  V30 8011 N 733.138 -0.185124 -1.56509 0
M  V30 8012 C 734.384 0.456934 -1.97585 0
M  V30 8013 C 734.717 1.61957 -1.07161 0
M  V30 8014 O 733.992 1.9412 -0.121546 0
M  V30 8015 C 734.275 0.926666 -3.47973 0
M  V30 8016 C 734.128 -0.237097 -4.49175 0
M  V30 8017 C 735.447 1.79561 -4.01803 0
M  V30 8018 H 732.566 0.164619 -0.71838 0
M  V30 8019 H 735.208 -0.274039 -1.88013 0
M  V30 8020 H 733.358 1.54954 -3.56261 0
M  V30 8021 H 735.03 -0.87454 -4.52934 0
M  V30 8022 H 733.273 -0.890446 -4.24563 0
M  V30 8023 H 733.944 0.133924 -5.51838 0
M  V30 8024 H 736.42 1.27039 -3.96232 0
M  V30 8025 H 735.296 2.09327 -5.07418 0
M  V30 8026 H 735.557 2.74629 -3.46455 0
M  V30 8027 N 734.616 1.57351 0.0885366 0
M  V30 8028 C 735.865 1.85604 0.789556 0
M  V30 8029 C 736.178 0.775352 1.79576 0
M  V30 8030 O 737.384 0.945206 2.54515 0
M  V30 8031 C 735.84 3.29175 1.45506 0
M  V30 8032 C 735.448 4.45331 0.488278 0
M  V30 8033 C 737.192 3.66646 2.13942 0
M  V30 8034 C 735.099 5.79937 1.15874 0
M  V30 8035 H 734.029 0.692346 0.298619 0
M  V30 8036 H 736.68 1.83451 0.0425821 0
M  V30 8037 H 735.062 3.25889 2.24972 0
M  V30 8038 H 736.236 4.59977 -0.275359 0
M  V30 8039 H 734.551 4.16301 -0.0907363 0
M  V30 8040 H 737.148 4.64498 2.6485 0
M  V30 8041 H 737.491 2.956 2.93132 0
M  V30 8042 H 738.024 3.71848 1.41328 0
M  V30 8043 H 734.763 6.54232 0.407508 0
M  V30 8044 H 734.283 5.69123 1.89364 0
M  V30 8045 H 735.962 6.24718 1.68336 0
M  V30 8046 N 736.094 -0.359525 1.53444 0
M  V30 8047 C 737.319 -1.12644 1.74144 0
M  V30 8048 C 737.744 -1.82082 0.472007 0
M  V30 8049 O 737.102 -1.71962 -0.57436 0
M  V30 8050 C 737.15 -2.12781 2.9113 0
M  V30 8051 O 736.254 -3.19984 2.60162 0
M  V30 8052 H 735.595 -0.326553 0.578152 0
M  V30 8053 H 738.125 -0.414798 2.00351 0
M  V30 8054 H 738.135 -2.56278 3.17467 0
M  V30 8055 H 736.81 -1.61634 3.83207 0
M  V30 8056 H 735.387 -2.81417 2.44661 0
M  V30 8057 N 737.572 -1.44907 -0.619662 0
M  V30 8058 C 738.8 -1.51795 -1.40591 0
M  V30 8059 C 739.215 -0.146553 -1.8823 0
M  V30 8060 O 738.572 0.849698 -1.61513 0
M  V30 8061 C 738.623 -2.49229 -2.61853 0
M  V30 8062 O 738.344 -3.81039 -2.16197 0
M  V30 8063 C 739.845 -2.65696 -3.54853 0
M  V30 8064 H 737.065 -0.514463 -0.430777 0
M  V30 8065 H 739.609 -1.8998 -0.756813 0
M  V30 8066 H 737.764 -2.14149 -3.2283 0
M  V30 8067 H 738.178 -4.33747 -2.94896 0
M  V30 8068 H 739.652 -3.37874 -4.36515 0
M  V30 8069 H 740.129 -1.71316 -4.0441 0
M  V30 8070 H 740.735 -3.01724 -2.99737 0
M  V30 8071 N 739.05 0.861098 -1.31996 0
M  V30 8072 C 740.013 1.95068 -1.20338 0
M  V30 8073 C 741.013 1.60289 -0.128114 0
M  V30 8074 O 742.203 1.70048 -0.378044 0
M  V30 8075 C 739.335 3.30153 -0.849205 0
M  V30 8076 H 740.528 2.06833 -2.17164 0
M  V30 8077 H 738.081 1.05049 -1.15734 0
M  V30 8078 H 738.816 3.24087 0.117508 0
M  V30 8079 H 738.601 3.56771 -1.62655 0
M  V30 8080 H 740.091 4.10025 -0.791782 0
M  V30 8081 N 740.528 1.15101 1.07655 0
M  V30 8082 C 741.776 0.922149 1.79836 0
M  V30 8083 C 742.097 -0.552346 1.87014 0
M  V30 8084 O 741.367 -1.40145 1.3688 0
M  V30 8085 H 739.947 0.338182 0.666064 0
M  V30 8086 H 742.609 1.45107 1.30115 0
M  V30 8087 H 741.705 1.32883 2.82398 0
M  V30 8088 N 742.006 -1.2595 0.947325 0
M  V30 8089 C 742.953 -2.26159 0.460497 0
M  V30 8090 C 743.923 -1.58919 -0.483125 0
M  V30 8091 O 745.108 -1.86603 -0.397983 0
M  V30 8092 C 742.248 -3.441 -0.26247 0
M  V30 8093 C 741.361 -4.25999 0.717539 0
M  V30 8094 C 740.496 -5.31193 -0.0272486 0
M  V30 8095 C 739.535 -6.04774 0.944177 0
M  V30 8096 N 738.672 -7.01721 0.230741 0
M  V30 8097 H 743.512 -2.67173 1.31995 0
M  V30 8098 H 741.049 -1.31358 0.662088 0
M  V30 8099 H 743.007 -4.11317 -0.698137 0
M  V30 8100 H 741.637 -3.03983 -1.08602 0
M  V30 8101 H 740.689 -3.58513 1.27171 0
M  V30 8102 H 742.001 -4.76981 1.45913 0
M  V30 8103 H 741.155 -6.04451 -0.521903 0
M  V30 8104 H 739.894 -4.81066 -0.801682 0
M  V30 8105 H 738.899 -5.30338 1.4499 0
M  V30 8106 H 740.124 -6.56991 1.71872 0
M  V30 8107 H 738.07 -6.53895 -0.525088 0
M  V30 8108 H 737.987 -7.50484 0.911556 0
M  V30 8109 H 739.255 -7.79122 -0.242616 0
M  V30 8110 N 743.484 -0.715051 -1.40445 0
M  V30 8111 C 744.712 -0.263959 -2.05209 0
M  V30 8112 C 745.127 1.09403 -1.53871 0
M  V30 8113 O 744.484 1.68746 -0.695064 0
M  V30 8114 C 744.535 -0.234545 -3.60738 0
M  V30 8115 O 744.256 -1.53891 -4.10182 0
M  V30 8116 C 745.757 0.235164 -4.42676 0
M  V30 8117 H 742.977 -0.11876 -0.660407 0
M  V30 8118 H 745.521 -0.973107 -1.79864 0
M  V30 8119 H 743.676 0.425563 -3.85055 0
M  V30 8120 H 744.09 -1.43903 -5.04373 0
M  V30 8121 H 745.564 0.204598 -5.51621 0
M  V30 8122 H 746.041 1.27724 -4.20218 0
M  V30 8123 H 746.647 -0.394649 -4.23465 0
M  V30 8124 N 744.962 1.50701 -0.461195 0
M  V30 8125 C 746.21 2.01867 0.0970051 0
M  V30 8126 C 746.531 1.34591 1.41104 0
M  V30 8127 O 745.801 0.488041 1.89723 0
M  V30 8128 H 744.381 0.74599 0.0388392 0
M  V30 8129 H 747.043 1.85129 -0.609357 0
M  V30 8130 H 746.139 3.11051 0.255688 0
M  V30 8131 N 746.441 0.193421 1.56409 0
M  V30 8132 C 747.857 -0.162447 1.58771 0
M  V30 8133 C 748.057 -1.6116 1.20954 0
M  V30 8134 O 747.113 -2.3469 0.931497 0
M  V30 8135 C 748.426 0.138391 3.00381 0
M  V30 8136 C 749.974 0.0783649 3.12902 0
M  V30 8137 C 750.449 0.352491 4.56642 0
M  V30 8138 N 751.94 0.30105 4.62221 0
M  V30 8139 C 752.675 0.487028 5.71328 0
M  V30 8140 N 752.171 0.733265 6.88909 0
M  V30 8141 N 753.964 0.4214 5.60518 0
M  V30 8142 H 746.115 1.13909 1.79272 0
M  V30 8143 H 748.378 0.454528 0.83193 0
M  V30 8144 H 748.084 1.14312 3.32604 0
M  V30 8145 H 747.958 -0.559804 3.73023 0
M  V30 8146 H 750.345 -0.916963 2.80492 0
M  V30 8147 H 750.426 0.809611 2.4265 0
M  V30 8148 H 750.07 1.34513 4.89764 0
M  V30 8149 H 750 -0.399624 5.25081 0
M  V30 8150 H 752.491 0.117279 3.77718 0
M  V30 8151 H 752.804 0.86403 7.67955 0
M  V30 8152 H 751.149 0.770138 6.9072 0
M  V30 8153 H 754.34 0.229461 4.67537 0
M  V30 8154 H 754.513 0.569758 6.4549 0
M  V30 8155 N 747.919 -1.57396 -0.0801906 0
M  V30 8156 C 749.167 -1.86467 -0.779384 0
M  V30 8157 C 749.488 -0.784243 -1.78535 0
M  V30 8158 O 748.758 0.187986 -1.94996 0
M  V30 8159 H 747.338 -0.68806 -0.29083 0
M  V30 8160 H 750 -1.94813 -0.0582749 0
M  V30 8161 H 749.096 -2.83701 -1.30078 0
M  V30 8162 N 749.397 0.351382 -1.53633 0
M  V30 8163 C 750.344 1.43115 -1.81071 0
M  V30 8164 C 751.314 1.52601 -0.655913 0
M  V30 8165 O 752.499 1.68264 -0.89955 0
M  V30 8166 C 749.639 2.79874 -2.01903 0
M  V30 8167 C 748.752 2.79242 -3.29618 0
M  V30 8168 C 747.887 4.07667 -3.40559 0
M  V30 8169 C 746.926 4.01233 -4.62254 0
M  V30 8170 N 746.063 5.21334 -4.70271 0
M  V30 8171 H 750.903 1.19017 -2.73201 0
M  V30 8172 H 748.44 0.576691 -1.35324 0
M  V30 8173 H 750.398 3.5934 -2.11969 0
M  V30 8174 H 749.028 3.0234 -1.13094 0
M  V30 8175 H 748.08 1.91927 -3.28433 0
M  V30 8176 H 749.392 2.70363 -4.19172 0
M  V30 8177 H 748.546 4.95555 -3.50015 0
M  V30 8178 H 747.285 4.19317 -2.49047 0
M  V30 8179 H 746.29 3.11732 -4.52884 0
M  V30 8180 H 747.515 3.91173 -5.55122 0
M  V30 8181 H 745.461 5.33543 -3.81665 0
M  V30 8182 H 745.378 5.14681 -5.5375 0
M  V30 8183 H 746.646 6.11014 -4.84027 0
M  V30 8184 N 750.875 1.45233 0.611969 0
M  V30 8185 C 752.124 1.48296 1.36716 0
M  V30 8186 C 752.437 0.12706 1.95187 0
M  V30 8187 O 753.643 0.0353066 2.71477 0
M  V30 8188 C 752.099 2.61168 2.47627 0
M  V30 8189 C 751.707 4.03051 1.95587 0
M  V30 8190 C 753.451 2.73472 3.24674 0
M  V30 8191 C 751.358 5.07312 3.03954 0
M  V30 8192 H 750.288 0.5518 0.513841 0
M  V30 8193 H 752.939 1.7136 0.656359 0
M  V30 8194 H 751.321 2.31379 3.21372 0
M  V30 8195 H 752.495 4.42497 1.2858 0
M  V30 8196 H 750.81 3.95158 1.31298 0
M  V30 8197 H 753.407 3.48537 4.05494 0
M  V30 8198 H 753.75 1.79953 3.75397 0
M  V30 8199 H 754.283 3.02765 2.58028 0
M  V30 8200 H 751.022 6.02525 2.58154 0
M  V30 8201 H 750.542 4.7244 3.69541 0
M  V30 8202 H 752.221 5.31867 3.6841 0
M  V30 8203 N 752.353 -0.854086 1.3245 0
M  V30 8204 C 753.581 -1.64074 1.26045 0
M  V30 8205 C 753.996 -1.8802 -0.171456 0
M  V30 8206 O 753.353 -1.4496 -1.10873 0
M  V30 8207 C 753.404 -2.9997 2.01743 0
M  V30 8208 O 753.125 -2.77084 3.39346 0
M  V30 8209 C 754.626 -3.94414 2.02368 0
M  V30 8210 H 751.846 -0.511015 0.434862 0
M  V30 8211 H 754.39 -1.06494 1.74583 0
M  V30 8212 H 752.545 -3.54193 1.56926 0
M  V30 8213 H 752.959 -3.63514 3.78098 0
M  V30 8214 H 754.433 -4.87032 2.59815 0
M  V30 8215 H 754.91 -4.27427 1.01009 0
M  V30 8216 H 755.516 -3.46127 2.47135 0
M  V30 8217 N 753.831 -1.1567 -1.07043 0
M  V30 8218 C 755.059 -0.957471 -1.83412 0
M  V30 8219 C 755.474 0.494271 -1.82215 0
M  V30 8220 O 754.831 1.34288 -1.23584 0
M  V30 8221 C 754.882 -1.46784 -3.30359 0
M  V30 8222 O 754.603 -2.86271 -3.31633 0
M  V30 8223 C 756.104 -1.31054 -4.23485 0
M  V30 8224 H 753.324 -0.33986 -0.578564 0
M  V30 8225 H 755.868 -1.53518 -1.35102 0
M  V30 8226 H 754.023 -0.932586 -3.76007 0
M  V30 8227 H 754.437 -3.0948 -4.23465 0
M  V30 8228 H 755.911 -1.71605 -5.24648 0
M  V30 8229 H 756.388 -0.255107 -4.38458 0
M  V30 8230 H 756.994 -1.83503 -3.83676 0
M  V30 8231 N 755.309 1.25446 -0.953992 0
M  V30 8232 C 756.556 1.93143 -0.608429 0
M  V30 8233 C 756.884 1.74727 0.854451 0
M  V30 8234 O 756.139 1.0855 1.62836 0
M  V30 8235 C 756.438 3.45555 -0.912496 0
M  V30 8236 C 756.104 3.84126 -2.36131 0
M  V30 8237 C 754.766 3.94367 -2.75732 0
M  V30 8238 C 757.118 4.0324 -3.30223 0
M  V30 8239 C 754.446 4.21127 -4.08496 0
M  V30 8240 C 756.798 4.31493 -4.62598 0
M  V30 8241 C 755.462 4.3995 -5.01996 0
M  V30 8242 H 754.732 0.706762 -0.22264 0
M  V30 8243 H 757.379 1.49005 -1.20291 0
M  V30 8244 H 755.684 3.91091 -0.235618 0
M  V30 8245 H 757.381 3.9612 -0.623714 0
M  V30 8246 H 753.971 3.76711 -2.04418 0
M  V30 8247 H 758.155 3.94744 -3.00817 0
M  V30 8248 H 753.411 4.2589 -4.38665 0
M  V30 8249 H 757.585 4.45227 -5.35486 0
M  V30 8250 H 755.212 4.60439 -6.04896 0
M  V30 8251 N 756.787 0.722489 1.40064 0
M  V30 8252 C 757.734 0.0743738 2.3068 0
M  V30 8253 C 758.704 -0.743004 1.48555 0
M  V30 8254 O 759.889 -0.705536 1.77276 0
M  V30 8255 C 757.029 -0.836292 3.34814 0
M  V30 8256 C 756.142 -0.00764663 4.31999 0
M  V30 8257 C 755.277 -0.918428 5.232 0
M  V30 8258 C 754.316 -0.0842838 6.12042 0
M  V30 8259 N 753.453 -0.950316 6.95639 0
M  V30 8260 H 758.293 0.852794 2.85537 0
M  V30 8261 H 755.83 0.432222 1.40607 0
M  V30 8262 H 757.788 -1.3786 3.93765 0
M  V30 8263 H 756.418 -1.58082 2.81443 0
M  V30 8264 H 755.47 0.651928 3.74772 0
M  V30 8265 H 756.782 0.63786 4.94705 0
M  V30 8266 H 755.936 -1.52902 5.87116 0
M  V30 8267 H 754.675 -1.59774 4.60786 0
M  V30 8268 H 753.68 0.5392 5.4715 0
M  V30 8269 H 754.905 0.591628 6.76518 0
M  V30 8270 H 752.851 -1.61515 6.35806 0
M  V30 8271 H 752.768 -0.361004 7.55138 0
M  V30 8272 H 754.036 -1.54687 7.63997 0
M  V30 8273 N 758.265 -1.50454 0.469181 0
M  V30 8274 C 759.228 -2.2703 -0.314643 0
M  V30 8275 C 760.228 -1.31734 -0.922111 0
M  V30 8276 O 761.418 -1.55176 -0.791588 0
M  V30 8277 C 758.55 -3.08616 -1.44806 0
M  V30 8278 H 759.743 -2.97769 0.356892 0
M  V30 8279 H 757.296 -1.54698 0.223191 0
M  V30 8280 H 758.031 -2.42369 -2.1547 0
M  V30 8281 H 757.816 -3.78647 -1.01829 0
M  V30 8282 H 759.306 -3.66536 -2.00103 0
M  V30 8283 N 759.743 -0.201713 -1.56304 0
M  V30 8284 C 760.675 0.748466 -2.16635 0
M  V30 8285 C 761.688 1.172 -1.12996 0
M  V30 8286 O 762.877 1.10658 -1.40061 0
M  V30 8287 C 759.977 2.02296 -2.719 0
M  V30 8288 C 759.15 1.75818 -4.00508 0
M  V30 8289 C 758.209 2.87779 -4.40533 0
M  V30 8290 O 757.235 2.57101 -5.07826 0
M  V30 8291 N 758.437 4.16287 -4.04581 0
M  V30 8292 H 761.202 0.232505 -2.98797 0
M  V30 8293 H 758.763 -0.0199822 -1.61888 0
M  V30 8294 H 760.755 2.7635 -2.95657 0
M  V30 8295 H 759.325 2.44996 -1.94154 0
M  V30 8296 H 758.545 0.855095 -3.84814 0
M  V30 8297 H 759.833 1.55532 -4.84445 0
M  V30 8298 H 759.231 4.44061 -3.50466 0
M  V30 8299 H 757.788 4.86946 -4.33274 0
M  V30 8300 N 761.222 1.57436 0.0718424 0
M  V30 8301 C 762.47 1.86878 0.769484 0
M  V30 8302 C 762.791 0.7937 1.78116 0
M  V30 8303 O 762.061 -0.177642 1.95093 0
M  V30 8304 H 760.641 0.689593 0.287177 0
M  V30 8305 H 763.303 1.94841 0.0479427 0
M  V30 8306 H 762.399 2.84387 1.28572 0
M  V30 8307 N 762.7 -0.34323 1.53817 0
M  V30 8308 C 763.632 -1.44216 1.78141 0
M  V30 8309 C 764.645 -1.48701 0.662721 0
M  V30 8310 O 765.834 -1.51778 0.939458 0
M  V30 8311 C 762.934 -2.82872 1.86646 0
M  V30 8312 C 762.107 -3.01824 3.16577 0
M  V30 8313 C 761.166 -4.20723 3.16036 0
M  V30 8314 O 760.192 -4.14824 3.89756 0
M  V30 8315 N 761.394 -5.29276 2.38427 0
M  V30 8316 H 764.159 -1.23721 2.72971 0
M  V30 8317 H 761.72 -0.53311 1.52871 0
M  V30 8318 H 763.712 -3.60588 1.83735 0
M  V30 8319 H 762.282 -2.96509 0.990014 0
M  V30 8320 H 761.502 -2.11575 3.3261 0
M  V30 8321 H 762.79 -3.11369 4.02402 0
M  V30 8322 H 762.188 -5.36938 1.78085 0
M  V30 8323 H 760.745 -6.05484 2.41313 0
M  V30 8324 N 764.178 -1.45556 -0.604258 0
M  V30 8325 C 765.425 -1.49746 -1.36317 0
M  V30 8326 C 765.753 -0.140516 -1.93992 0
M  V30 8327 O 765.008 0.861244 -1.7573 0
M  V30 8328 C 765.307 -2.52697 -2.52743 0
M  V30 8329 C 764.973 -3.97315 -2.13195 0
M  V30 8330 C 763.635 -4.36692 -2.02123 0
M  V30 8331 C 765.987 -4.88249 -1.8238 0
M  V30 8332 C 763.315 -5.64895 -1.58463 0
M  V30 8333 C 765.667 -6.16867 -1.40205 0
M  V30 8334 C 764.331 -6.55172 -1.27694 0
M  V30 8335 H 763.601 -0.54796 -0.49882 0
M  V30 8336 H 766.248 -1.7892 -0.682643 0
M  V30 8337 H 764.553 -2.17105 -3.26148 0
M  V30 8338 H 766.25 -2.53176 -3.10971 0
M  V30 8339 H 762.84 -3.66176 -2.22739 0
M  V30 8340 H 767.024 -4.58561 -1.89829 0
M  V30 8341 H 762.28 -5.93365 -1.47402 0
M  V30 8342 H 766.454 -6.86771 -1.15408 0
M  V30 8343 H 764.081 -7.54411 -0.936375 0
M  V30 8344 N 765.656 0.84705 -1.32902 0
M  V30 8345 C 766.902 1.60389 -1.25088 0
M  V30 8346 C 767.257 1.91521 0.183723 0
M  V30 8347 O 766.55 1.55197 1.12359 0
M  V30 8348 C 766.744 2.92663 -2.05142 0
M  V30 8349 C 766.573 2.74449 -3.56241 0
M  V30 8350 C 765.343 2.72434 -4.25567 0
M  V30 8351 C 767.541 2.47666 -4.5074 0
M  V30 8352 N 765.523 2.45512 -5.62669 0
M  V30 8353 C 766.894 2.30219 -5.75673 0
M  V30 8354 C 768.949 2.33196 -4.39914 0
M  V30 8355 C 767.652 1.99772 -6.91002 0
M  V30 8356 C 769.678 2.0414 -5.5505 0
M  V30 8357 C 769.04 1.875 -6.78987 0
M  V30 8358 H 765.139 0.590296 -0.512908 0
M  V30 8359 H 767.723 0.995058 -1.67352 0
M  V30 8360 H 765.894 3.51511 -1.65211 0
M  V30 8361 H 767.626 3.5777 -1.89163 0
M  V30 8362 H 764.381 2.85647 -3.7776 0
M  V30 8363 H 764.805 2.34958 -6.3492 0
M  V30 8364 H 769.447 2.44777 -3.44738 0
M  V30 8365 H 767.165 1.86928 -7.86183 0
M  V30 8366 H 770.751 1.93711 -5.48605 0
M  V30 8367 H 769.631 1.65339 -7.66572 0
M  V30 8368 N 767.134 1.16236 1.06428 0
M  V30 8369 C 768.064 0.890807 2.1584 0
M  V30 8370 C 769.045 -0.162333 1.69324 0
M  V30 8371 O 770.23 -0.0147191 1.94194 0
M  V30 8372 C 767.36 0.389615 3.45108 0
M  V30 8373 C 766.314 1.38051 4.05125 0
M  V30 8374 C 765.64 0.737773 5.29586 0
M  V30 8375 C 766.94 2.74965 4.44062 0
M  V30 8376 H 768.634 1.80577 2.38814 0
M  V30 8377 H 766.18 0.869657 1.14774 0
M  V30 8378 H 768.133 0.187127 4.20984 0
M  V30 8379 H 766.857 -0.560851 3.21748 0
M  V30 8380 H 765.516 1.56952 3.31303 0
M  V30 8381 H 765.164 -0.219135 5.02522 0
M  V30 8382 H 764.864 1.39914 5.70699 0
M  V30 8383 H 766.388 0.545275 6.0816 0
M  V30 8384 H 767.802 2.59855 5.11027 0
M  V30 8385 H 766.199 3.37563 4.96156 0
M  V30 8386 H 767.269 3.30321 3.54987 0
M  V30 8387 N 768.612 -1.24939 0.960631 0
M  V30 8388 C 769.542 -2.28 0.503815 0
M  V30 8389 C 770.523 -1.63959 -0.452928 0
M  V30 8390 O 771.708 -1.91009 -0.350585 0
M  V30 8391 C 768.838 -3.46643 -0.213535 0
M  V30 8392 C 767.792 -4.22903 0.658535 0
M  V30 8393 C 767.118 -5.34363 -0.189902 0
M  V30 8394 C 768.418 -4.84949 1.93963 0
M  V30 8395 H 770.112 -2.66462 1.36521 0
M  V30 8396 H 767.658 -1.28093 0.657897 0
M  V30 8397 H 769.611 -4.1787 -0.544286 0
M  V30 8398 H 768.335 -3.07187 -1.10923 0
M  V30 8399 H 766.994 -3.53467 0.972455 0
M  V30 8400 H 766.642 -4.91147 -1.08553 0
M  V30 8401 H 766.342 -5.86302 0.390331 0
M  V30 8402 H 767.866 -6.0842 -0.515484 0
M  V30 8403 H 769.28 -5.48288 1.67491 0
M  V30 8404 H 767.677 -5.47091 2.46601 0
M  V30 8405 H 768.747 -4.06799 2.639 0
M  V30 8406 N 770.09 -0.729906 -1.39679 0
M  V30 8407 C 771.04 -0.0627678 -2.27914 0
M  V30 8408 C 772.024 0.717867 -1.43998 0
M  V30 8409 O 773.216 0.587713 -1.66958 0
M  V30 8410 C 770.345 0.847564 -3.32673 0
M  V30 8411 C 769.431 0.0613515 -4.24056 0
M  V30 8412 N 769.822 -0.962863 -4.96551 0
M  V30 8413 C 768.12 0.291773 -4.45045 0
M  V30 8414 C 768.821 -1.43652 -5.63683 0
M  V30 8415 N 767.797 -0.756044 -5.38317 0
M  V30 8416 H 771.599 -0.847545 -2.81414 0
M  V30 8417 H 769.113 -0.563776 -1.523 0
M  V30 8418 H 771.11 1.34094 -3.94746 0
M  V30 8419 H 769.77 1.63156 -2.80732 0
M  V30 8420 H 770.781 -1.34409 -5.00154 0
M  V30 8421 H 767.458 1.05097 -4.04056 0
M  V30 8422 H 768.848 -2.28835 -6.31731 0
M  V30 8423 N 771.568 1.50203 -0.477153 0
M  V30 8424 C 772.845 1.95115 0.137609 0
M  V30 8425 C 773.225 1.41778 1.56404 0
M  V30 8426 O 772.573 0.621333 2.1989 0
M  V30 8427 C 772.783 3.4892 0.0747168 0
M  V30 8428 C 774.131 4.238 0.260585 0
M  V30 8429 O 775.155 3.5588 0.151021 0
M  V30 8430 O 774.014 5.44366 0.482534 0
M  V30 8431 H 771.108 0.81987 0.108364 0
M  V30 8432 H 773.654 1.60946 -0.537989 0
M  V30 8433 H 772.426 3.80308 -0.920966 0
M  V30 8434 H 772.049 3.89642 0.791509 0
M  V30 8435 N 773.046 0.209999 1.56195 0
M  V30 8436 C 774.009 -0.691232 2.18528 0
M  V30 8437 C 775.009 -1.13013 1.14388 0
M  V30 8438 O 776.199 -1.04081 1.39688 0
M  V30 8439 C 773.331 -1.94551 2.79934 0
M  V30 8440 H 774.524 -0.147953 2.99535 0
M  V30 8441 H 772.077 -0.0396243 1.5625 0
M  V30 8442 H 772.812 -2.53094 2.02766 0
M  V30 8443 H 772.597 -1.63938 3.56184 0
M  V30 8444 H 774.087 -2.58785 3.2775 0
M  V30 8445 N 774.524 -1.57472 -0.0634922 0
M  V30 8446 C 775.773 -1.86837 -0.759928 0
M  V30 8447 C 776.086 -0.803823 -1.7832 0
M  V30 8448 O 777.292 -0.985578 -2.52979 0
M  V30 8449 C 775.748 -3.31448 -1.4025 0
M  V30 8450 C 775.356 -4.46052 -0.417368 0
M  V30 8451 C 777.1 -3.70003 -2.08082 0
M  V30 8452 C 775.007 -5.81707 -1.06633 0
M  V30 8453 H 773.937 -0.697009 -0.287567 0
M  V30 8454 H 776.588 -1.83495 -0.0133914 0
M  V30 8455 H 774.97 -3.29427 -2.19759 0
M  V30 8456 H 776.144 -4.5948 0.348503 0
M  V30 8457 H 774.459 -4.16104 0.156955 0
M  V30 8458 H 777.056 -4.68653 -2.57426 0
M  V30 8459 H 777.399 -3.00226 -2.88393 0
M  V30 8460 H 777.932 -3.7405 -1.35394 0
M  V30 8461 H 774.671 -6.54798 -0.303374 0
M  V30 8462 H 774.191 -5.72064 -1.80286 0
M  V30 8463 H 775.87 -6.27317 -1.58376 0
M  V30 8464 N 776.003 0.335068 -1.53997 0
M  V30 8465 C 777.251 1.07223 -1.71312 0
M  V30 8466 C 777.572 1.88911 -0.483486 0
M  V30 8467 O 776.842 1.89344 0.50257 0
M  V30 8468 H 775.422 0.398846 -0.63161 0
M  V30 8469 H 778.084 0.374288 -1.91272 0
M  V30 8470 H 777.18 1.7448 -2.58772 0
M  V30 8471 N 777.481 1.45874 0.596531 0
M  V30 8472 C 778.711 1.5379 1.37958 0
M  V30 8473 C 779.119 0.173086 1.88407 0
M  V30 8474 O 778.462 -0.837498 1.63498 0
M  V30 8475 C 778.524 2.47044 2.61169 0
M  V30 8476 C 778.188 3.93565 2.32283 0
M  V30 8477 C 779.185 4.83162 1.91965 0
M  V30 8478 C 776.87 4.38579 2.44854 0
M  V30 8479 C 778.864 6.15782 1.64593 0
M  V30 8480 C 776.551 5.71238 2.17095 0
M  V30 8481 C 777.549 6.59659 1.77028 0
M  V30 8482 O 777.237 7.89857 1.49601 0
M  V30 8483 H 776.969 0.523 0.428307 0
M  V30 8484 H 779.523 1.91855 0.733529 0
M  V30 8485 H 777.753 2.0397 3.28532 0
M  V30 8486 H 779.442 2.4552 3.23226 0
M  V30 8487 H 780.208 4.49646 1.8178 0
M  V30 8488 H 776.087 3.6999 2.75006 0
M  V30 8489 H 779.631 6.84757 1.33245 0
M  V30 8490 H 775.528 6.04306 2.26901 0
M  V30 8491 H 776.296 8.01991 1.63561 0
M  V30 8492 N 778.959 -0.83999 1.33349 0
M  V30 8493 C 780.189 -1.62492 1.27593 0
M  V30 8494 C 780.597 -1.88559 -0.155597 0
M  V30 8495 O 779.94 -1.46537 -1.10782 0
M  V30 8496 C 780.002 -2.99984 1.98116 0
M  V30 8497 C 779.666 -2.96892 3.47425 0
M  V30 8498 C 780.663 -2.72688 4.42648 0
M  V30 8499 C 778.348 -3.17063 3.89585 0
M  V30 8500 C 780.342 -2.68681 5.78004 0
M  V30 8501 C 778.029 -3.12682 5.25046 0
M  V30 8502 C 779.027 -2.88522 6.19067 0
M  V30 8503 O 778.715 -2.84042 7.52047 0
M  V30 8504 H 778.447 -0.512358 0.440982 0
M  V30 8505 H 781.001 -1.0545 1.76265 0
M  V30 8506 H 779.231 -3.58875 1.44034 0
M  V30 8507 H 780.92 -3.6084 1.85875 0
M  V30 8508 H 781.686 -2.56856 4.114 0
M  V30 8509 H 777.565 -3.34889 3.16813 0
M  V30 8510 H 781.109 -2.49743 6.51363 0
M  V30 8511 H 777.006 -3.28063 5.55918 0
M  V30 8512 H 777.774 -2.99892 7.61582 0
M  V30 8513 N 780.437 -1.16799 -1.0581 0
M  V30 8514 C 781.684 -0.952524 -1.78699 0
M  V30 8515 C 782.012 0.51931 -1.87439 0
M  V30 8516 O 781.267 1.40151 -1.36587 0
M  V30 8517 C 781.566 -1.53111 -3.22942 0
M  V30 8518 C 781.232 -3.0261 -3.34273 0
M  V30 8519 C 779.894 -3.43418 -3.37072 0
M  V30 8520 C 782.246 -3.98611 -3.35795 0
M  V30 8521 C 779.574 -4.78838 -3.39015 0
M  V30 8522 C 781.926 -5.33923 -3.39277 0
M  V30 8523 C 780.59 -5.74205 -3.40361 0
M  V30 8524 H 779.86 -0.348553 -0.653905 0
M  V30 8525 H 782.507 -1.45591 -1.244 0
M  V30 8526 H 780.812 -0.949286 -3.80126 0
M  V30 8527 H 782.509 -1.34002 -3.77948 0
M  V30 8528 H 779.099 -2.70075 -3.32803 0
M  V30 8529 H 783.283 -3.68146 -3.32839 0
M  V30 8530 H 778.539 -5.09369 -3.38161 0
M  V30 8531 H 782.713 -6.08094 -3.39403 0
M  V30 8532 H 780.34 -6.79117 -3.4162 0
M  V30 8533 N 781.915 1.24427 -0.967243 0
M  V30 8534 C 783.326 1.74349 -0.667785 0
M  V30 8535 C 783.677 1.78403 0.816509 0
M  V30 8536 O 782.802 1.41315 1.63887 0
M  V30 8537 C 783.397 3.16628 -1.20548 0
M  V30 8538 C 781.956 3.64059 -0.955934 0
M  V30 8539 C 781.103 2.42715 -1.34106 0
M  V30 8540 H 784.054 1.10136 -1.14262 0
M  V30 8541 H 784.075 3.76183 -0.571547 0
M  V30 8542 H 783.587 3.13646 -2.28578 0
M  V30 8543 H 781.688 3.72441 0.108858 0
M  V30 8544 H 781.801 4.51549 -1.60126 0
M  V30 8545 H 780.165 2.43114 -0.759452 0
M  V30 8546 H 780.948 2.42414 -2.43085 0
M  V30 8547 N 783.393 0.737304 1.3929 0
M  V30 8548 C 784.303 0.100464 2.34385 0
M  V30 8549 C 785.319 -0.719282 1.58437 0
M  V30 8550 O 786.495 -0.647216 1.90717 0
M  V30 8551 C 783.56 -0.794325 3.37478 0
M  V30 8552 C 782.621 0.0379345 4.29283 0
M  V30 8553 C 781.854 -0.814241 5.27452 0
M  V30 8554 O 782.077 -2.05288 5.32177 0
M  V30 8555 O 781.011 -0.241679 6.01415 0
M  V30 8556 H 784.837 0.885407 2.90507 0
M  V30 8557 H 782.422 0.497999 1.40856 0
M  V30 8558 H 784.304 -1.30622 4.00644 0
M  V30 8559 H 782.979 -1.55804 2.83737 0
M  V30 8560 H 781.886 0.595405 3.69331 0
M  V30 8561 H 783.219 0.763926 4.86236 0
M  V30 8562 N 784.871 -1.49948 0.485112 0
M  V30 8563 C 786.119 -2.01996 -0.0648775 0
M  V30 8564 C 786.44 -1.36819 -1.38945 0
M  V30 8565 O 785.71 -0.518163 -1.88923 0
M  V30 8566 H 784.29 -0.746513 -0.0269662 0
M  V30 8567 H 786.952 -1.84136 0.638733 0
M  V30 8568 H 786.048 -3.11418 -0.20617 0
M  V30 8569 N 786.349 -0.21828 -1.56081 0
M  V30 8570 C 787.312 0.679633 -2.18892 0
M  V30 8571 C 788.312 1.12405 -1.14986 0
M  V30 8572 O 789.502 1.03339 -1.40238 0
M  V30 8573 C 786.634 1.93063 -2.80962 0
M  V30 8574 H 787.827 0.132066 -2.99609 0
M  V30 8575 H 785.38 0.0313374 -1.56269 0
M  V30 8576 H 786.115 2.52015 -2.04106 0
M  V30 8577 H 785.9 1.62046 -3.57048 0
M  V30 8578 H 787.39 2.57043 -3.29118 0
M  V30 8579 N 787.827 1.57504 0.0551401 0
M  V30 8580 C 788.775 2.05884 1.08233 0
M  V30 8581 C 789.769 0.967383 1.39061 0
M  V30 8582 O 790.975 1.15242 1.38273 0
M  V30 8583 H 787.35 0.656673 0.366449 0
M  V30 8584 H 789.321 2.91273 0.648269 0
M  V30 8585 C 788.07 2.53221 2.38273 0
M  V30 8586 H 787.393 3.36809 2.15406 0
M  V30 8587 H 788.833 2.9081 3.08554 0
M  V30 8588 C 787.292 1.42218 3.05411 0
M  V30 8589 O 787.822 0.773638 3.9418 0
M  V30 8590 N 786.028 1.16316 2.66306 0
M  V30 8591 H 785.575 1.69237 1.94207 0
M  V30 8592 H 785.533 0.422534 3.11548 0
M  V30 8593 N 789.305 -0.326896 1.54172 0
M  V30 8594 C 790.235 -1.40741 1.86317 0
M  V30 8595 C 791.216 -1.54125 0.719684 0
M  V30 8596 O 792.401 -1.6806 0.973117 0
M  V30 8597 C 789.531 -2.77557 2.08757 0
M  V30 8598 C 788.485 -2.78965 3.24596 0
M  V30 8599 C 787.811 -4.18824 3.32401 0
M  V30 8600 C 789.111 -2.4301 4.62324 0
M  V30 8601 H 790.805 -1.14088 2.76811 0
M  V30 8602 H 788.351 -0.547389 1.3319 0
M  V30 8603 H 790.304 -3.53209 2.29829 0
M  V30 8604 H 789.028 -3.0568 1.15009 0
M  V30 8605 H 787.687 -2.05767 3.03406 0
M  V30 8606 H 787.335 -4.44083 2.36218 0
M  V30 8607 H 787.035 -4.20673 4.10253 0
M  V30 8608 H 788.559 -4.96294 3.55703 0
M  V30 8609 H 789.973 -3.08375 4.83299 0
M  V30 8610 H 788.37 -2.56116 5.42701 0
M  V30 8611 H 789.44 -1.38165 4.64799 0
M  V30 8612 N 790.784 -1.46188 -0.588786 0
M  V30 8613 C 792.009 -1.5498 -1.37826 0
M  V30 8614 C 792.434 -0.189498 -1.87143 0
M  V30 8615 O 791.792 0.829293 -1.61222 0
M  V30 8616 C 791.84 -2.55369 -2.54596 0
M  V30 8617 O 790.944 -2.08452 -3.55839 0
M  V30 8618 H 790.285 -0.521741 -0.41071 0
M  V30 8619 H 792.815 -1.91708 -0.714779 0
M  V30 8620 H 792.825 -2.74782 -3.01594 0
M  V30 8621 H 791.5 -3.54155 -2.18052 0
M  V30 8622 H 790.077 -1.98999 -3.15363 0
M  V30 8623 N 792.262 0.832906 -1.33792 0
M  V30 8624 C 793.192 1.95828 -1.27176 0
M  V30 8625 C 794.173 1.69427 -0.15114 0
M  V30 8626 O 795.358 1.91167 -0.341886 0
M  V30 8627 C 792.488 3.32098 -1.01629 0
M  V30 8628 C 791.442 3.72912 -2.10049 0
M  V30 8629 C 790.768 5.07054 -1.69706 0
M  V30 8630 C 792.068 3.86064 -3.51783 0
M  V30 8631 H 793.762 2.01622 -2.21334 0
M  V30 8632 H 791.308 0.96866 -1.0655 0
M  V30 8633 H 793.261 4.10402 -0.956474 0
M  V30 8634 H 791.985 3.26577 -0.0390956 0
M  V30 8635 H 790.644 2.96876 -2.15082 0
M  V30 8636 H 790.292 4.9801 -0.706737 0
M  V30 8637 H 789.992 5.35333 -2.42264 0
M  V30 8638 H 791.516 5.87827 -1.65202 0
M  V30 8639 H 792.93 4.54665 -3.49218 0
M  V30 8640 H 791.327 4.25787 -4.22878 0
M  V30 8641 H 792.397 2.88344 -3.89854 0
M  V30 8642 N 793.74 1.17359 1.05189 0
M  V30 8643 C 794.965 0.98709 1.82404 0
M  V30 8644 C 795.39 -0.459848 1.82392 0
M  V30 8645 O 794.748 -1.32924 1.23292 0
M  V30 8646 C 794.796 1.53276 3.26403 0
M  V30 8647 O 793.9 0.746541 4.05587 0
M  V30 8648 H 793.241 0.35047 0.563974 0
M  V30 8649 H 795.771 1.55856 1.32552 0
M  V30 8650 H 795.781 1.55504 3.77203 0
M  V30 8651 H 794.456 2.58603 3.25726 0
M  V30 8652 H 793.033 0.795671 3.64312 0
M  V30 8653 N 795.218 -1.23913 0.973828 0
M  V30 8654 C 796.446 -1.96195 0.656891 0
M  V30 8655 C 796.861 -1.72166 -0.774876 0
M  V30 8656 O 796.218 -1.0091 -1.52064 0
M  V30 8657 C 796.269 -3.49342 0.929638 0
M  V30 8658 O 795.99 -3.72553 2.30512 0
M  V30 8659 C 797.491 -4.38833 0.627739 0
M  V30 8660 H 794.711 -0.624841 0.244572 0
M  V30 8661 H 797.255 -1.57579 1.30343 0
M  V30 8662 H 795.41 -3.85999 0.329216 0
M  V30 8663 H 795.824 -4.66893 2.3898 0
M  V30 8664 H 797.298 -5.45117 0.868991 0
M  V30 8665 H 797.775 -4.37009 -0.438104 0
M  V30 8666 H 798.381 -4.07773 1.20834 0
M  V30 8667 N 796.696 -0.74468 -1.38897 0
M  V30 8668 C 797.628 -0.0713608 -2.29089 0
M  V30 8669 C 798.641 0.693224 -1.47303 0
M  V30 8670 O 799.83 0.535785 -1.70269 0
M  V30 8671 C 796.93 0.923078 -3.26087 0
M  V30 8672 C 796.103 0.217998 -4.36856 0
M  V30 8673 C 795.162 1.12192 -5.14101 0
M  V30 8674 O 794.188 0.595771 -5.66073 0
M  V30 8675 N 795.39 2.45082 -5.26227 0
M  V30 8676 H 798.155 -0.845906 -2.87514 0
M  V30 8677 H 795.716 -0.594712 -1.50581 0
M  V30 8678 H 797.708 1.53061 -3.74639 0
M  V30 8679 H 796.278 1.59876 -2.68623 0
M  V30 8680 H 795.498 -0.570134 -3.90055 0
M  V30 8681 H 796.786 -0.270248 -5.08082 0
M  V30 8682 H 796.184 2.90294 -4.85537 0
M  V30 8683 H 794.741 3.00907 -5.78185 0
M  V30 8684 N 798.174 1.49689 -0.493057 0
M  V30 8685 C 799.399 2.07331 0.0535114 0
M  V30 8686 C 799.824 1.35196 1.30781 0
M  V30 8687 O 799.182 0.406246 1.7669 0
M  V30 8688 C 799.23 3.59364 0.29825 0
M  V30 8689 O 798.334 3.88819 1.37454 0
M  V30 8690 H 797.675 0.663612 -0.0227018 0
M  V30 8691 H 800.205 1.926 -0.690402 0
M  V30 8692 H 800.215 4.04515 0.532159 0
M  V30 8693 H 798.89 4.1128 -0.618207 0
M  V30 8694 H 797.467 3.55487 1.12621 0
M  V30 8695 N 799.652 0.226554 1.55963 0
M  V30 8696 C 800.584 -0.713907 2.17798 0
M  V30 8697 C 801.597 -1.15387 1.14846 0
M  V30 8698 O 802.786 -1.08416 1.41804 0
M  V30 8699 C 799.886 -1.97945 2.75084 0
M  V30 8700 C 799.059 -1.69424 4.03255 0
M  V30 8701 C 798.118 -2.80734 4.45056 0
M  V30 8702 O 797.144 -2.4899 5.11852 0
M  V30 8703 N 798.346 -4.09797 4.11152 0
M  V30 8704 H 801.111 -0.18494 2.99129 0
M  V30 8705 H 798.672 0.0457346 1.61835 0
M  V30 8706 H 800.664 -2.71611 3.00016 0
M  V30 8707 H 799.234 -2.41876 1.98027 0
M  V30 8708 H 798.454 -0.793767 3.86126 0
M  V30 8709 H 799.742 -1.47806 4.86858 0
M  V30 8710 H 799.14 -4.38429 3.57486 0
M  V30 8711 H 797.697 -4.79992 4.40966 0
M  V30 8712 N 801.13 -1.57531 -0.0467866 0
M  V30 8713 C 802.077 -2.05387 -1.05285 0
M  V30 8714 C 803.047 -0.939385 -1.36985 0
M  V30 8715 O 804.232 -1.20877 -1.47626 0
M  V30 8716 C 801.372 -2.52343 -2.35408 0
M  V30 8717 C 800.485 -3.77512 -2.10022 0
M  V30 8718 C 799.62 -4.1315 -3.33887 0
M  V30 8719 C 798.659 -5.31286 -3.03976 0
M  V30 8720 N 797.796 -5.62441 -4.20243 0
M  V30 8721 H 802.636 -2.91095 -0.637788 0
M  V30 8722 H 800.173 -1.43939 -0.303322 0
M  V30 8723 H 802.131 -2.77628 -3.11413 0
M  V30 8724 H 800.761 -1.69577 -2.7467 0
M  V30 8725 H 799.813 -3.59417 -1.24594 0
M  V30 8726 H 801.125 -4.63644 -1.83945 0
M  V30 8727 H 800.279 -4.39469 -4.18273 0
M  V30 8728 H 799.018 -3.25634 -3.63062 0
M  V30 8729 H 798.023 -5.04738 -2.17991 0
M  V30 8730 H 799.248 -6.20441 -2.76098 0
M  V30 8731 H 797.194 -4.77885 -4.49402 0
M  V30 8732 H 797.111 -6.43046 -3.97528 0
M  V30 8733 H 798.379 -5.93327 -5.05553 0
M  V30 8734 N 802.608 0.318715 -1.54344 0
M  V30 8735 C 803.856 1.054 -1.72439 0
M  V30 8736 C 804.177 1.88388 -0.503495 0
M  V30 8737 O 803.447 1.89866 0.48246 0
M  V30 8738 H 802.027 0.392124 -0.635805 0
M  V30 8739 H 804.689 0.35398 -1.91659 0
M  V30 8740 H 803.785 1.71726 -2.60608 0
M  V30 8741 N 804.086 1.46499 0.581025 0
M  V30 8742 C 805.034 1.57562 1.71105 0
M  V30 8743 C 806.028 0.44403 1.63477 0
M  V30 8744 O 807.234 0.620964 1.6895 0
M  V30 8745 H 803.609 0.495415 0.565746 0
M  V30 8746 H 805.58 2.5257 1.58905 0
M  V30 8747 C 804.329 1.58465 3.0949 0
M  V30 8748 H 803.652 2.44877 3.16031 0
M  V30 8749 H 805.092 1.70261 3.88313 0
M  V30 8750 C 803.551 0.313596 3.35437 0
M  V30 8751 O 804.081 -0.595456 3.97262 0
M  V30 8752 N 802.287 0.200986 2.89904 0
M  V30 8753 H 801.834 0.941643 2.39773 0
M  V30 8754 H 801.792 -0.648577 3.07638 0
M  V30 8755 N 805.565 -0.825799 1.34232 0
M  V30 8756 C 806.811 -1.58379 1.27623 0
M  V30 8757 C 807.166 -1.91789 -0.15323 0
M  V30 8758 O 806.459 -1.56965 -1.09875 0
M  V30 8759 C 806.653 -2.89362 2.09772 0
M  V30 8760 C 806.482 -2.68747 3.60562 0
M  V30 8761 C 805.252 -2.6563 4.29848 0
M  V30 8762 C 807.45 -2.40463 4.54623 0
M  V30 8763 N 805.432 -2.3653 5.66504 0
M  V30 8764 C 806.803 -2.21032 5.79262 0
M  V30 8765 C 808.858 -2.26168 4.43568 0
M  V30 8766 C 807.561 -1.88754 6.94093 0
M  V30 8767 C 809.587 -1.95284 5.58228 0
M  V30 8768 C 808.949 -1.76674 6.81884 0
M  V30 8769 H 805.048 -0.582062 0.522234 0
M  V30 8770 H 807.632 -0.968308 1.68914 0
M  V30 8771 H 805.803 -3.48838 1.70783 0
M  V30 8772 H 807.535 -3.54716 1.94831 0
M  V30 8773 H 804.29 -2.79601 3.82257 0
M  V30 8774 H 804.714 -2.24827 6.38578 0
M  V30 8775 H 809.356 -2.39262 3.48588 0
M  V30 8776 H 807.074 -1.74397 7.89057 0
M  V30 8777 H 810.66 -1.84959 5.51617 0
M  V30 8778 H 809.54 -1.53123 7.69105 0
M  V30 8779 N 807.043 -1.17915 -1.04565 0
M  V30 8780 C 808.29 -0.971424 -1.77678 0
M  V30 8781 C 808.618 0.499401 -1.87979 0
M  V30 8782 O 807.873 1.38695 -1.38066 0
M  V30 8783 C 808.172 -1.56528 -3.213 0
M  V30 8784 C 807.838 -3.06138 -3.31044 0
M  V30 8785 C 806.5 -3.46974 -3.33411 0
M  V30 8786 C 808.852 -4.02151 -3.31548 0
M  V30 8787 C 806.18 -4.82406 -3.33918 0
M  V30 8788 C 808.532 -5.37492 -3.33595 0
M  V30 8789 C 807.196 -5.77782 -3.34251 0
M  V30 8790 H 806.466 -0.355469 -0.650171 0
M  V30 8791 H 809.113 -1.46902 -1.22849 0
M  V30 8792 H 807.418 -0.98955 -3.79098 0
M  V30 8793 H 809.115 -1.38003 -3.76505 0
M  V30 8794 H 805.705 -2.73589 -3.29919 0
M  V30 8795 H 809.889 -3.71656 -3.28916 0
M  V30 8796 H 805.145 -5.12927 -3.3274 0
M  V30 8797 H 809.319 -6.1166 -3.32934 0
M  V30 8798 H 806.946 -6.82702 -3.34397 0
M  V30 8799 N 808.521 1.23394 -0.980386 0
M  V30 8800 C 809.471 2.22634 -0.491747 0
M  V30 8801 C 810.455 1.54958 0.433222 0
M  V30 8802 O 811.647 1.75049 0.262078 0
M  V30 8803 C 808.776 3.4269 0.204531 0
M  V30 8804 C 807.862 4.17594 -0.740007 0
M  V30 8805 N 808.253 4.69458 -1.88263 0
M  V30 8806 C 806.551 4.42554 -0.553335 0
M  V30 8807 C 807.252 5.26446 -2.47446 0
M  V30 8808 N 806.228 5.14377 -1.75834 0
M  V30 8809 H 810.03 2.60363 -1.36339 0
M  V30 8810 H 807.544 1.38924 -0.841059 0
M  V30 8811 H 809.541 4.12959 0.571901 0
M  V30 8812 H 808.201 3.06477 1.07246 0
M  V30 8813 H 809.212 4.65803 -2.26381 0
M  V30 8814 H 805.889 4.16629 0.269573 0
M  V30 8815 H 807.279 5.77195 -3.43941 0
M  V30 8816 N 809.999 0.752036 1.385 0
M  V30 8817 C 811.248 0.304294 1.99391 0
M  V30 8818 C 811.561 -1.11982 1.60373 0
M  V30 8819 O 812.767 -1.66795 2.14223 0
M  V30 8820 C 811.223 0.493101 3.56506 0
M  V30 8821 C 810.831 1.9262 4.04477 0
M  V30 8822 C 812.575 0.107994 4.24363 0
M  V30 8823 C 810.482 2.06365 5.54227 0
M  V30 8824 H 809.412 0.110024 0.745929 0
M  V30 8825 H 812.063 0.928355 1.58284 0
M  V30 8826 H 810.445 -0.20012 3.95494 0
M  V30 8827 H 811.619 2.65276 3.76783 0
M  V30 8828 H 809.934 2.26608 3.49339 0
M  V30 8829 H 812.531 0.189474 5.34364 0
M  V30 8830 H 812.874 -0.939165 4.05568 0
M  V30 8831 H 813.407 0.753011 3.90608 0
M  V30 8832 H 810.146 3.0933 5.77923 0
M  V30 8833 H 809.666 1.38167 5.83669 0
M  V30 8834 H 811.345 1.85286 6.19902 0
M  V30 8835 N 811.477 -1.49425 0.500989 0
M  V30 8836 C 812.425 -2.30771 -0.291149 0
M  V30 8837 C 813.419 -1.3938 -0.962787 0
M  V30 8838 O 814.625 -1.56431 -0.890477 0
M  V30 8839 H 811 -0.743499 -0.11275 0
M  V30 8840 H 812.971 -2.95501 0.414917 0
M  V30 8841 C 811.72 -3.20725 -1.34279 0
M  V30 8842 H 811.043 -3.90975 -0.83538 0
M  V30 8843 H 812.483 -3.80583 -1.86903 0
M  V30 8844 C 810.942 -2.40334 -2.36095 0
M  V30 8845 O 811.472 -2.10749 -3.41976 0
M  V30 8846 N 809.678 -2.02359 -2.08565 0
M  V30 8847 H 809.225 -2.26619 -1.22482 0
M  V30 8848 H 809.183 -1.48878 -2.76916 0
M  V30 8849 N 812.955 -0.234822 -1.55841 0
M  V30 8850 C 813.903 0.686145 -2.22249 0
M  V30 8851 C 814.897 1.18948 -1.20614 0
M  V30 8852 O 816.103 1.14777 -1.38659 0
M  V30 8853 H 812.478 0.239724 -0.712767 0
M  V30 8854 H 814.449 0.102762 -2.98223 0
M  V30 8855 C 813.198 1.8776 -2.92646 0
M  V30 8856 H 812.521 1.49943 -3.70617 0
M  V30 8857 H 813.961 2.4995 -3.42493 0
M  V30 8858 C 812.42 2.74127 -1.95847 0
M  V30 8859 O 812.95 3.7329 -1.48384 0
M  V30 8860 N 811.156 2.4044 -1.63209 0
M  V30 8861 H 810.703 1.59854 -2.02001 0
M  V30 8862 H 810.661 2.98504 -0.987063 0
M  V30 8863 N 814.433 1.57553 0.0384317 0
M  V30 8864 C 815.658 1.93485 0.746872 0
M  V30 8865 C 816.083 0.834069 1.68597 0
M  V30 8866 O 815.441 -0.210902 1.80069 0
M  V30 8867 C 815.489 3.28463 1.4881 0
M  V30 8868 O 814.593 3.20051 2.60079 0
M  V30 8869 H 813.934 0.632675 0.201539 0
M  V30 8870 H 816.464 2.046 -0.00329815 0
M  V30 8871 H 816.474 3.63132 1.86009 0
M  V30 8872 H 815.149 4.08147 0.799297 0
M  V30 8873 H 813.726 2.96998 2.25492 0
M  V30 8874 N 815.911 -0.310526 1.54511 0
M  V30 8875 C 816.861 -1.38405 1.81185 0
M  V30 8876 C 817.845 -1.46355 0.668499 0
M  V30 8877 O 819.037 -1.50668 0.928873 0
M  V30 8878 C 816.166 -2.75059 2.0542 0
M  V30 8879 C 815.252 -2.7137 3.25913 0
M  V30 8880 N 815.643 -2.37298 4.4668 0
M  V30 8881 C 813.941 -3.02484 3.27749 0
M  V30 8882 C 814.642 -2.42669 5.28665 0
M  V30 8883 N 813.618 -2.79639 4.66158 0
M  V30 8884 H 817.42 -1.11012 2.72128 0
M  V30 8885 H 814.934 -0.519068 1.53881 0
M  V30 8886 H 816.931 -3.52451 2.22674 0
M  V30 8887 H 815.591 -3.03372 1.15739 0
M  V30 8888 H 816.602 -2.09917 4.73451 0
M  V30 8889 H 813.279 -3.35754 2.48144 0
M  V30 8890 H 814.669 -2.19206 6.35136 0
M  V30 8891 N 817.389 -1.46805 -0.573248 0
M  V30 8892 C 818.614 -1.56433 -1.36175 0
M  V30 8893 C 819.039 -0.209336 -1.86932 0
M  V30 8894 O 818.397 0.812146 -1.62092 0
M  V30 8895 C 818.445 -2.58055 -2.51873 0
M  V30 8896 O 817.549 -2.12214 -3.53609 0
M  V30 8897 H 816.89 -0.526068 -0.405153 0
M  V30 8898 H 819.42 -1.92456 -0.694405 0
M  V30 8899 H 819.43 -2.77966 -2.98662 0
M  V30 8900 H 818.105 -3.56448 -2.14284 0
M  V30 8901 H 816.682 -2.02333 -3.13234 0
M  V30 8902 N 818.867 0.818669 -1.34668 0
M  V30 8903 C 819.814 1.92983 -1.26595 0
M  V30 8904 C 820.784 1.65506 -0.140315 0
M  V30 8905 O 821.969 1.88063 -0.322005 0
M  V30 8906 C 819.109 3.2932 -1.03163 0
M  V30 8907 C 818.222 3.69061 -2.24539 0
M  V30 8908 C 817.357 4.94368 -1.94355 0
M  V30 8909 C 816.396 5.26702 -3.11851 0
M  V30 8910 N 815.533 6.43187 -2.81522 0
M  V30 8911 H 820.373 1.99219 -2.2162 0
M  V30 8912 H 817.91 0.974612 -1.1018 0
M  V30 8913 H 819.868 4.07897 -0.87613 0
M  V30 8914 H 818.498 3.22584 -0.118045 0
M  V30 8915 H 817.55 2.85842 -2.50995 0
M  V30 8916 H 818.862 3.88924 -3.12313 0
M  V30 8917 H 818.016 5.80742 -1.75566 0
M  V30 8918 H 816.755 4.76515 -1.03848 0
M  V30 8919 H 815.76 4.38823 -3.31231 0
M  V30 8920 H 816.985 5.46492 -4.03142 0
M  V30 8921 H 814.931 6.26783 -1.93596 0
M  V30 8922 H 814.848 6.63243 -3.62829 0
M  V30 8923 H 816.116 7.32621 -2.66247 0
M  V30 8924 N 820.346 1.18468 1.03938 0
M  V30 8925 C 821.623 0.890435 1.74157 0
M  V30 8926 C 822.003 -0.606409 2.02203 0
M  V30 8927 O 821.351 -1.5615 1.66822 0
M  V30 8928 C 821.561 1.73906 3.02585 0
M  V30 8929 C 822.909 1.96686 3.76297 0
M  V30 8930 O 823.933 1.70969 3.12487 0
M  V30 8931 O 822.792 2.39986 4.90988 0
M  V30 8932 H 819.886 0.330889 0.757919 0
M  V30 8933 H 822.432 1.29228 1.09992 0
M  V30 8934 H 821.204 2.75369 2.78006 0
M  V30 8935 H 820.827 1.33581 3.74489 0
M  V30 8936 N 821.824 -1.22873 0.986916 0
M  V30 8937 C 822.734 -2.28277 0.540978 0
M  V30 8938 C 823.75 -1.69164 -0.407363 0
M  V30 8939 O 824.926 -1.99504 -0.275674 0
M  V30 8940 C 821.991 -3.46404 -0.143181 0
M  V30 8941 C 821.052 -4.20854 0.847375 0
M  V30 8942 C 820.285 -5.33341 0.19577 0
M  V30 8943 O 820.508 -5.61356 -1.0117 0
M  V30 8944 O 819.442 -5.95169 0.897623 0
M  V30 8945 H 823.268 -2.68578 1.41773 0
M  V30 8946 H 820.853 -1.28927 0.754867 0
M  V30 8947 H 822.735 -4.18096 -0.526676 0
M  V30 8948 H 821.41 -3.08041 -0.994593 0
M  V30 8949 H 820.317 -3.51459 1.28169 0
M  V30 8950 H 821.65 -4.63082 1.6678 0
M  V30 8951 N 823.302 -0.75937 -1.38099 0
M  V30 8952 C 824.548 -0.318584 -2.00282 0
M  V30 8953 C 824.881 1.09854 -1.60143 0
M  V30 8954 O 824.156 1.75344 -0.841702 0
M  V30 8955 C 824.439 -0.448047 -3.57302 0
M  V30 8956 C 824.292 -1.9067 -4.07388 0
M  V30 8957 C 825.611 0.155119 -4.39827 0
M  V30 8958 H 822.73 -0.117233 -0.727616 0
M  V30 8959 H 825.372 -0.960097 -1.63958 0
M  V30 8960 H 823.522 0.0981003 -3.88376 0
M  V30 8961 H 825.194 -2.5116 -3.86932 0
M  V30 8962 H 823.437 -2.41979 -3.6004 0
M  V30 8963 H 824.108 -1.94841 -5.1647 0
M  V30 8964 H 826.584 -0.31073 -4.14938 0
M  V30 8965 H 825.46 0.0343264 -5.48889 0
M  V30 8966 H 825.721 1.24407 -4.24235 0
M  V30 8967 N 824.78 1.49157 -0.508906 0
M  V30 8968 C 826.005 2.07376 0.0315182 0
M  V30 8969 C 826.43 1.36575 1.2934 0
M  V30 8970 O 825.788 0.424963 1.76249 0
M  V30 8971 C 825.836 3.59661 0.260118 0
M  V30 8972 O 824.94 3.90255 1.33322 0
M  V30 8973 H 824.281 0.663334 -0.029739 0
M  V30 8974 H 826.811 1.91857 -0.710791 0
M  V30 8975 H 826.821 4.05056 0.489225 0
M  V30 8976 H 825.496 4.10601 -0.661794 0
M  V30 8977 H 824.073 3.56661 1.08844 0
M  V30 8978 N 826.258 0.243083 1.55714 0
M  V30 8979 C 827.506 -0.381964 1.98458 0
M  V30 8980 C 827.827 -1.58745 1.13247 0
M  V30 8981 O 827.097 -1.94723 0.214384 0
M  V30 8982 H 825.677 -0.144114 0.732967 0
M  V30 8983 H 828.339 0.340985 1.91894 0
M  V30 8984 H 827.435 -0.693702 3.04293 0
M  V30 8985 N 827.736 -1.57571 -0.0300757 0
M  V30 8986 C 829.013 -1.80381 -0.756447 0
M  V30 8987 C 829.393 -0.840906 -1.93628 0
M  V30 8988 O 828.741 0.117143 -2.282 0
M  V30 8989 C 828.951 -3.2807 -1.19043 0
M  V30 8990 C 830.299 -3.93025 -1.60676 0
M  V30 8991 O 831.323 -3.32213 -1.28503 0
M  V30 8992 O 830.182 -5.00092 -2.20386 0
M  V30 8993 H 827.276 -0.741737 -0.365725 0
M  V30 8994 H 829.822 -1.69699 -0.00693177 0
M  V30 8995 H 828.594 -3.89748 -0.348128 0
M  V30 8996 H 828.217 -3.43637 -1.99999 0
M  V30 8997 N 829.214 0.302327 -1.54673 0
M  V30 8998 C 830.46 1.03924 -1.74149 0
M  V30 8999 C 830.793 1.86968 -0.525041 0
M  V30 9000 O 830.068 1.88538 0.477868 0
M  V30 9001 C 830.351 1.94633 -3.02969 0
M  V30 9002 C 830.204 1.14778 -4.34909 0
M  V30 9003 C 831.523 2.93826 -3.27649 0
M  V30 9004 H 828.642 0.376405 -0.633631 0
M  V30 9005 H 831.284 0.314007 -1.87387 0
M  V30 9006 H 829.434 2.56471 -2.91813 0
M  V30 9007 H 831.106 0.552363 -4.57981 0
M  V30 9008 H 829.349 0.450462 -4.31455 0
M  V30 9009 H 830.02 1.81495 -5.21309 0
M  V30 9010 H 832.496 2.42117 -3.38406 0
M  V30 9011 H 831.372 3.54462 -4.19104 0
M  V30 9012 H 831.633 3.67416 -2.45882 0
M  V30 9013 N 830.692 1.47107 0.565454 0
M  V30 9014 C 831.939 1.53308 1.32299 0
M  V30 9015 C 832.267 0.1919 1.93551 0
M  V30 9016 O 831.522 -0.81435 1.77952 0
M  V30 9017 C 831.821 2.59309 2.45954 0
M  V30 9018 C 831.487 4.02827 2.02586 0
M  V30 9019 C 830.149 4.41897 1.90474 0
M  V30 9020 C 832.501 4.92913 1.6937 0
M  V30 9021 C 829.829 5.68898 1.4343 0
M  V30 9022 C 832.181 6.20368 1.238 0
M  V30 9023 C 830.845 6.58327 1.10278 0
M  V30 9024 H 830.115 0.560993 0.484116 0
M  V30 9025 H 832.762 1.80667 0.634965 0
M  V30 9026 H 831.067 2.25676 3.20277 0
M  V30 9027 H 832.764 2.61332 3.04149 0
M  V30 9028 H 829.354 3.71953 2.12952 0
M  V30 9029 H 833.538 4.63433 1.77605 0
M  V30 9030 H 828.794 5.97065 1.31618 0
M  V30 9031 H 832.968 6.89589 0.971586 0
M  V30 9032 H 830.595 7.56628 0.736027 0
M  V30 9033 N 832.17 -0.811516 1.35101 0
M  V30 9034 C 833.117 -1.92308 1.27617 0
M  V30 9035 C 834.087 -1.6543 0.149091 0
M  V30 9036 O 835.272 -1.8789 0.331974 0
M  V30 9037 C 832.412 -3.28768 1.04908 0
M  V30 9038 C 831.525 -3.67865 2.26493 0
M  V30 9039 C 830.66 -4.9333 1.96974 0
M  V30 9040 C 829.699 -5.25041 3.1464 0
M  V30 9041 N 828.836 -6.41685 2.84929 0
M  V30 9042 H 833.676 -1.98041 2.22674 0
M  V30 9043 H 831.213 -0.968755 1.10696 0
M  V30 9044 H 833.171 -4.07426 0.897749 0
M  V30 9045 H 831.801 -3.22517 0.135151 0
M  V30 9046 H 830.853 -2.84507 2.52507 0
M  V30 9047 H 832.165 -3.87263 3.14371 0
M  V30 9048 H 831.319 -5.79803 1.78643 0
M  V30 9049 H 830.058 -4.75958 1.06374 0
M  V30 9050 H 829.063 -4.3706 3.33554 0
M  V30 9051 H 830.288 -5.44346 4.06035 0
M  V30 9052 H 828.234 -6.25747 1.96918 0
M  V30 9053 H 828.151 -6.6131 3.66341 0
M  V30 9054 H 829.419 -7.31198 2.70128 0
M  V30 9055 N 833.648 -1.19017 -1.03309 0
M  V30 9056 C 834.578 -0.94772 -2.13402 0
M  V30 9057 C 835.559 0.117383 -1.69694 0
M  V30 9058 O 836.744 -0.0367733 -1.94165 0
M  V30 9059 C 833.874 -0.480977 -3.43953 0
M  V30 9060 C 832.828 -1.48743 -4.01322 0
M  V30 9061 C 832.154 -0.877924 -5.27443 0
M  V30 9062 C 833.454 -2.86642 -4.36616 0
M  V30 9063 H 835.148 -1.86846 -2.33942 0
M  V30 9064 H 832.694 -0.899781 -1.12427 0
M  V30 9065 H 834.647 -0.298677 -4.2034 0
M  V30 9066 H 833.371 0.475348 -3.23122 0
M  V30 9067 H 832.03 -1.65681 -3.27025 0
M  V30 9068 H 831.678 0.0858232 -5.02927 0
M  V30 9069 H 831.378 -1.54996 -5.66789 0
M  V30 9070 H 832.902 -0.706326 -6.06501 0
M  V30 9071 H 834.316 -2.73312 -5.03958 0
M  V30 9072 H 832.713 -3.50599 -4.87032 0
M  V30 9073 H 833.783 -3.39617 -3.46105 0
M  V30 9074 N 835.127 1.22348 -0.993418 0
M  V30 9075 C 836.373 1.91689 -0.680217 0
M  V30 9076 C 836.728 1.75912 0.779269 0
M  V30 9077 O 836.021 1.11761 1.55628 0
M  V30 9078 C 836.215 3.42477 -1.02197 0
M  V30 9079 C 836.044 3.72923 -2.51313 0
M  V30 9080 C 834.814 3.9291 -3.17726 0
M  V30 9081 C 837.012 3.7736 -3.49434 0
M  V30 9082 N 834.994 4.10672 -4.56313 0
M  V30 9083 C 836.365 4.00269 -4.73481 0
M  V30 9084 C 838.42 3.60211 -3.43733 0
M  V30 9085 C 837.123 4.0781 -5.92523 0
M  V30 9086 C 839.149 3.69011 -4.62152 0
M  V30 9087 C 838.511 3.92371 -5.85 0
M  V30 9088 H 834.61 0.722086 -0.300193 0
M  V30 9089 H 837.194 1.47273 -1.27353 0
M  V30 9090 H 835.365 3.85699 -0.457223 0
M  V30 9091 H 837.097 3.99204 -0.664702 0
M  V30 9092 H 833.852 3.90345 -2.68193 0
M  V30 9093 H 834.276 4.2348 -5.28199 0
M  V30 9094 H 838.918 3.41137 -2.49771 0
M  V30 9095 H 836.636 4.25688 -6.86888 0
M  V30 9096 H 840.222 3.5708 -4.59331 0
M  V30 9097 H 839.102 3.9901 -6.75101 0
M  V30 9098 N 836.605 0.766683 1.37694 0
M  V30 9099 C 837.854 0.325425 1.99057 0
M  V30 9100 C 838.167 -1.10275 1.61551 0
M  V30 9101 O 839.373 -1.64513 2.1598 0
M  V30 9102 C 837.829 0.530886 3.55963 0
M  V30 9103 C 837.437 1.96899 4.02411 0
M  V30 9104 C 839.181 0.152997 4.24224 0
M  V30 9105 C 837.088 2.12232 5.52007 0
M  V30 9106 H 836.018 0.117929 0.744721 0
M  V30 9107 H 838.669 0.945091 1.5729 0
M  V30 9108 H 837.051 -0.158162 3.95684 0
M  V30 9109 H 838.225 2.69258 3.73948 0
M  V30 9110 H 836.54 2.303 3.46916 0
M  V30 9111 H 839.137 0.24614 5.34133 0
M  V30 9112 H 839.48 -0.896096 4.06541 0
M  V30 9113 H 840.013 0.794398 3.89787 0
M  V30 9114 H 836.752 3.15442 5.7461 0
M  V30 9115 H 836.272 1.4435 5.82171 0
M  V30 9116 H 837.951 1.9185 6.17902 0
M  V30 9117 N 838.083 -1.48885 0.516809 0
M  V30 9118 C 839.031 -2.31066 -0.266656 0
M  V30 9119 C 840.025 -1.40393 -0.94795 0
M  V30 9120 O 841.231 -1.57366 -0.873836 0
M  V30 9121 H 837.606 -0.744654 -0.104858 0
M  V30 9122 H 839.577 -2.95045 0.446236 0
M  V30 9123 C 838.326 -3.22131 -1.3087 0
M  V30 9124 H 837.649 -3.91839 -0.793865 0
M  V30 9125 H 839.089 -3.82544 -1.82856 0
M  V30 9126 C 837.548 -2.42825 -2.33533 0
M  V30 9127 O 838.078 -2.14364 -3.39722 0
M  V30 9128 N 836.284 -2.04559 -2.06407 0
M  V30 9129 H 835.831 -2.27905 -1.20071 0
M  V30 9130 H 835.789 -1.51807 -2.75322 0
M  V30 9131 N 839.561 -0.251338 -1.55583 0
M  V30 9132 C 840.511 0.660351 -2.18228 0
M  V30 9133 C 841.495 1.13596 -1.13951 0
M  V30 9134 O 842.687 1.08499 -1.39846 0
M  V30 9135 C 839.816 1.85498 -2.88869 0
M  V30 9136 C 838.902 1.39767 -4.00407 0
M  V30 9137 N 839.293 0.654876 -5.01543 0
M  V30 9138 C 837.591 1.68259 -4.13044 0
M  V30 9139 C 838.292 0.417521 -5.802 0
M  V30 9140 N 837.268 0.983032 -5.34638 0
M  V30 9141 H 841.07 0.0847425 -2.93778 0
M  V30 9142 H 838.584 -0.0538456 -1.62311 0
M  V30 9143 H 840.581 2.51916 -3.3218 0
M  V30 9144 H 839.241 2.43477 -2.14823 0
M  V30 9145 H 840.252 0.304545 -5.17004 0
M  V30 9146 H 836.929 2.27344 -3.50172 0
M  V30 9147 H 838.319 -0.175764 -6.7167 0
M  V30 9148 N 841.039 1.57585 0.0217189 0
M  V30 9149 C 842.287 1.89231 0.709641 0
M  V30 9150 C 842.608 0.849964 1.75501 0
M  V30 9151 O 841.878 -0.115485 1.95559 0
M  V30 9152 H 840.458 0.69838 0.265092 0
M  V30 9153 H 843.12 1.94895 -0.0140688 0
M  V30 9154 H 842.216 2.88333 1.19459 0
M  V30 9155 N 842.517 -0.29412 1.54831 0
M  V30 9156 C 843.48 -1.3461 1.85507 0
M  V30 9157 C 844.48 -1.43359 0.728343 0
M  V30 9158 O 845.67 -1.42875 0.996609 0
M  V30 9159 C 842.802 -2.73012 2.0415 0
M  V30 9160 H 843.995 -1.08651 2.79526 0
M  V30 9161 H 841.548 -0.531138 1.46999 0
M  V30 9162 H 842.283 -3.04183 1.12441 0
M  V30 9163 H 842.068 -2.68051 2.86166 0
M  V30 9164 H 843.558 -3.49061 2.29229 0
M  V30 9165 N 843.995 -1.47404 -0.557645 0
M  V30 9166 C 845.411 -1.32913 -0.88353 0
M  V30 9167 C 845.611 -0.31929 -1.98954 0
M  V30 9168 O 844.667 0.26934 -2.51059 0
M  V30 9169 C 845.98 -2.72229 -1.27718 0
M  V30 9170 C 847.528 -2.8051 -1.38863 0
M  V30 9171 C 848.003 -4.20466 -1.81583 0
M  V30 9172 N 849.494 -4.23005 -1.88735 0
M  V30 9173 C 850.229 -5.2821 -2.23118 0
M  V30 9174 N 849.725 -6.4372 -2.56117 0
M  V30 9175 N 851.518 -5.15588 -2.23888 0
M  V30 9176 H 843.669 -2.11698 0.172557 0
M  V30 9177 H 845.932 -0.947889 0.0145334 0
M  V30 9178 H 845.638 -3.47556 -0.538329 0
M  V30 9179 H 845.512 -3.03971 -2.23342 0
M  V30 9180 H 847.899 -2.05457 -2.11829 0
M  V30 9181 H 847.98 -2.52423 -0.414274 0
M  V30 9182 H 847.624 -4.96025 -1.09187 0
M  V30 9183 H 847.554 -4.45977 -2.80021 0
M  V30 9184 H 850.045 -3.39674 -1.65621 0
M  V30 9185 H 850.358 -7.19754 -2.81378 0
M  V30 9186 H 848.703 -6.47041 -2.53698 0
M  V30 9187 H 851.894 -4.24374 -1.97546 0
M  V30 9188 H 852.067 -5.97685 -2.50353 0
M  V30 9189 N 845.473 0.80434 -1.35529 0
M  V30 9190 C 846.884 1.37849 -1.25915 0
M  V30 9191 C 847.235 1.95905 0.107495 0
M  V30 9192 O 846.36 1.91462 1.00852 0
M  V30 9193 C 846.955 2.50608 -2.27994 0
M  V30 9194 C 845.514 3.03879 -2.22114 0
M  V30 9195 C 844.661 1.76856 -2.13582 0
M  V30 9196 H 847.612 0.607192 -1.46625 0
M  V30 9197 H 847.633 3.29221 -1.90772 0
M  V30 9198 H 847.145 2.08323 -3.27449 0
M  V30 9199 H 845.246 3.50622 -1.26077 0
M  V30 9200 H 845.359 3.61707 -3.14173 0
M  V30 9201 H 843.723 1.98498 -1.59595 0
M  V30 9202 H 844.506 1.36721 -3.14901 0
M  V30 9203 N 846.951 1.19563 1.02676 0
M  V30 9204 C 847.861 0.950691 2.14474 0
M  V30 9205 C 848.877 -0.0900219 1.73767 0
M  V30 9206 O 850.053 0.0951063 2.01175 0
M  V30 9207 C 847.118 0.494917 3.43149 0
M  V30 9208 C 846.179 1.60527 3.98158 0
M  V30 9209 C 845.412 1.17115 5.20692 0
M  V30 9210 O 845.635 0.0355937 5.70389 0
M  V30 9211 O 844.569 1.97454 5.68591 0
M  V30 9212 H 848.395 1.88651 2.38001 0
M  V30 9213 H 845.98 0.978635 1.12885 0
M  V30 9214 H 847.862 0.249492 4.20661 0
M  V30 9215 H 846.537 -0.412434 3.21062 0
M  V30 9216 H 845.444 1.90487 3.21971 0
M  V30 9217 H 846.777 2.48925 4.24614 0
M  V30 9218 N 848.429 -1.21819 0.999893 0
M  V30 9219 C 849.377 -2.26027 0.549047 0
M  V30 9220 C 850.371 -1.64516 -0.403826 0
M  V30 9221 O 851.577 -1.77878 -0.275578 0
M  V30 9222 H 847.952 -0.734958 0.159185 0
M  V30 9223 H 849.923 -2.61398 1.43923 0
M  V30 9224 C 848.672 -3.47514 -0.11369 0
M  V30 9225 H 847.995 -3.95112 0.610482 0
M  V30 9226 H 849.435 -4.22179 -0.3925 0
M  V30 9227 C 847.894 -3.08614 -1.35126 0
M  V30 9228 O 848.424 -3.1864 -2.44605 0
M  V30 9229 N 846.63 -2.63327 -1.22911 0
M  V30 9230 H 846.177 -2.55369 -0.338288 0
M  V30 9231 H 846.135 -2.37668 -2.05818 0
M  V30 9232 N 849.908 -0.773975 -1.37286 0
M  V30 9233 C 850.871 -0.167974 -2.28584 0
M  V30 9234 C 851.871 0.625662 -1.48129 0
M  V30 9235 O 853.061 0.448924 -1.68316 0
M  V30 9236 C 850.193 0.769364 -3.32105 0
M  V30 9237 H 851.386 -0.972806 -2.83684 0
M  V30 9238 H 848.939 -0.542335 -1.46589 0
M  V30 9239 H 849.674 1.59912 -2.82132 0
M  V30 9240 H 849.459 0.202419 -3.91577 0
M  V30 9241 H 850.949 1.18872 -4.00324 0
M  V30 9242 N 851.386 1.48609 -0.524698 0
M  V30 9243 C 852.318 2.27508 0.278 0
M  V30 9244 C 853.331 1.35042 0.909258 0
M  V30 9245 O 854.52 1.60136 0.788592 0
M  V30 9246 C 851.62 3.08247 1.40843 0
M  V30 9247 C 850.793 4.28455 0.880083 0
M  V30 9248 C 849.852 4.91048 1.891 0
M  V30 9249 O 848.878 5.5042 1.45005 0
M  V30 9250 N 850.08 4.82816 3.22288 0
M  V30 9251 H 852.845 2.97037 -0.398642 0
M  V30 9252 H 850.406 1.57876 -0.358698 0
M  V30 9253 H 852.398 3.46992 2.08276 0
M  V30 9254 H 850.968 2.41173 1.98883 0
M  V30 9255 H 850.188 3.94189 0.0299228 0
M  V30 9256 H 851.476 5.06279 0.505881 0
M  V30 9257 H 850.874 4.3572 3.60783 0
M  V30 9258 H 849.431 5.25676 3.85368 0
M  V30 9259 N 852.864 0.259585 1.55447 0
M  V30 9260 C 854.094 -0.364863 2.03353 0
M  V30 9261 C 854.502 -1.5116 1.13786 0
M  V30 9262 O 853.845 -1.83109 0.147283 0
M  V30 9263 C 853.907 -0.922587 3.4746 0
M  V30 9264 C 853.571 0.0935207 4.56904 0
M  V30 9265 C 854.568 0.907571 5.11917 0
M  V30 9266 C 852.253 0.223276 5.01804 0
M  V30 9267 C 854.247 1.83771 6.10333 0
M  V30 9268 C 851.934 1.15691 6.00049 0
M  V30 9269 C 852.932 1.96264 6.54194 0
M  V30 9270 O 852.62 2.88052 7.50521 0
M  V30 9271 H 852.352 -0.0893313 0.670072 0
M  V30 9272 H 854.906 0.384821 2.01763 0
M  V30 9273 H 853.136 -1.72206 3.4624 0
M  V30 9274 H 854.825 -1.45846 3.78792 0
M  V30 9275 H 855.591 0.817979 4.78052 0
M  V30 9276 H 851.47 -0.393834 4.59315 0
M  V30 9277 H 855.014 2.46703 6.52521 0
M  V30 9278 H 850.911 1.24738 6.33333 0
M  V30 9279 H 851.679 2.82557 7.68182 0
M  V30 9280 N 854.342 -1.57594 -0.0133615 0
M  V30 9281 C 855.305 -2.06534 -0.993799 0
M  V30 9282 C 856.305 -0.972267 -1.28077 0
M  V30 9283 O 857.495 -1.23537 -1.22818 0
M  V30 9284 C 854.627 -2.49554 -2.3224 0
M  V30 9285 H 855.82 -2.94419 -0.570741 0
M  V30 9286 H 853.373 -1.54113 -0.260546 0
M  V30 9287 H 854.108 -1.64872 -2.79263 0
M  V30 9288 H 853.893 -3.29371 -2.12737 0
M  V30 9289 H 855.383 -2.8779 -3.026 0
M  V30 9290 N 855.82 0.285905 -1.54985 0
M  V30 9291 C 857.05 1.03626 -1.78732 0
M  V30 9292 C 857.458 1.80896 -0.554377 0
M  V30 9293 O 856.801 1.77161 0.48578 0
M  V30 9294 C 856.863 2.05185 -2.95193 0
M  V30 9295 C 856.527 1.46973 -4.32722 0
M  V30 9296 C 857.524 0.891986 -5.12191 0
M  V30 9297 C 855.209 1.50081 -4.79355 0
M  V30 9298 C 857.203 0.353078 -6.36421 0
M  V30 9299 C 854.89 0.958037 -6.03544 0
M  V30 9300 C 855.888 0.385157 -6.81913 0
M  V30 9301 O 855.576 -0.149341 -8.03761 0
M  V30 9302 H 855.308 0.312416 -0.599477 0
M  V30 9303 H 857.862 0.326067 -2.02795 0
M  V30 9304 H 856.092 2.79928 -2.66791 0
M  V30 9305 H 857.781 2.66244 -3.0638 0
M  V30 9306 H 858.547 0.860762 -4.77301 0
M  V30 9307 H 854.426 1.9361 -4.18373 0
M  V30 9308 H 857.97 -0.0947181 -6.97536 0
M  V30 9309 H 853.867 0.986458 -6.37918 0
M  V30 9310 H 854.635 -0.0374719 -8.18491 0
M  V30 9311 N 857.298 1.47698 0.54982 0
M  V30 9312 C 858.547 1.53961 1.30303 0
M  V30 9313 C 858.86 0.209731 1.94472 0
M  V30 9314 O 860.066 0.150418 2.71083 0
M  V30 9315 C 858.522 2.71436 2.36328 0
M  V30 9316 C 858.13 4.10983 1.78316 0
M  V30 9317 C 859.874 2.86996 3.12783 0
M  V30 9318 C 857.781 5.19747 2.82164 0
M  V30 9319 H 856.711 0.573098 0.489975 0
M  V30 9320 H 859.362 1.73989 0.583089 0
M  V30 9321 H 857.744 2.44801 3.11269 0
M  V30 9322 H 858.918 4.47552 1.09697 0
M  V30 9323 H 857.233 4.00371 1.1442 0
M  V30 9324 H 859.83 3.65422 3.90347 0
M  V30 9325 H 860.173 1.95712 3.67427 0
M  V30 9326 H 860.706 3.13436 2.44954 0
M  V30 9327 H 857.445 6.12932 2.32366 0
M  V30 9328 H 856.965 4.87688 3.49171 0
M  V30 9329 H 858.644 5.47014 3.4552 0
M  V30 9330 N 858.776 -0.797141 1.35954 0
M  V30 9331 C 860.022 -1.55698 1.29946 0
M  V30 9332 C 860.355 -1.93808 -0.123259 0
M  V30 9333 O 859.63 -1.62102 -1.07486 0
M  V30 9334 C 859.913 -2.83926 2.2149 0
M  V30 9335 C 859.766 -2.52232 3.72423 0
M  V30 9336 C 861.085 -3.85698 2.11955 0
M  V30 9337 H 858.204 -0.56488 0.47337 0
M  V30 9338 H 860.846 -0.916421 1.66438 0
M  V30 9339 H 858.996 -3.38588 1.905 0
M  V30 9340 H 860.668 -2.0368 4.13899 0
M  V30 9341 H 858.911 -1.85286 3.92239 0
M  V30 9342 H 859.582 -3.43782 4.31877 0
M  V30 9343 H 862.058 -3.40462 2.39218 0
M  V30 9344 H 860.934 -4.73182 2.78191 0
M  V30 9345 H 861.195 -4.28083 1.10442 0
M  V30 9346 N 860.254 -1.20106 -1.0204 0
M  V30 9347 C 861.184 -0.970301 -2.12385 0
M  V30 9348 C 862.165 0.099378 -1.69809 0
M  V30 9349 O 863.35 -0.057365 -1.94115 0
M  V30 9350 C 860.48 -0.517431 -3.43424 0
M  V30 9351 C 859.434 -1.52992 -3.99722 0
M  V30 9352 C 858.76 -0.933817 -5.26483 0
M  V30 9353 C 860.06 -2.91257 -4.33551 0
M  V30 9354 H 861.754 -1.89316 -2.31948 0
M  V30 9355 H 859.3 -0.911655 -1.11467 0
M  V30 9356 H 861.253 -0.343243 -4.2 0
M  V30 9357 H 859.977 0.441049 -3.23608 0
M  V30 9358 H 858.636 -1.6914 -3.2525 0
M  V30 9359 H 858.284 0.0324763 -5.0299 0
M  V30 9360 H 857.984 -1.60999 -5.65113 0
M  V30 9361 H 859.508 -0.770614 -6.05718 0
M  V30 9362 H 860.922 -2.78642 -5.0103 0
M  V30 9363 H 859.319 -3.55745 -4.83286 0
M  V30 9364 H 860.389 -3.43269 -3.42483 0
M  V30 9365 N 861.732 1.21287 -1.00634 0
M  V30 9366 C 863.143 1.72136 -0.722914 0
M  V30 9367 C 863.494 1.8091 0.759338 0
M  V30 9368 O 862.619 1.46458 1.59308 0
M  V30 9369 C 863.214 3.12633 -1.30561 0
M  V30 9370 C 861.773 3.60833 -1.07127 0
M  V30 9371 C 860.92 2.38326 -1.4176 0
M  V30 9372 H 863.871 1.06445 -1.17708 0
M  V30 9373 H 863.892 3.74174 -0.690937 0
M  V30 9374 H 863.404 3.06215 -2.38441 0
M  V30 9375 H 861.505 3.72599 -0.00968671 0
M  V30 9376 H 861.618 4.46226 -1.74411 0
M  V30 9377 H 859.982 2.40575 -0.836412 0
M  V30 9378 H 860.765 2.34558 -2.50674 0
M  V30 9379 N 863.21 0.781244 1.36873 0
M  V30 9380 C 864.458 0.349198 1.9906 0
M  V30 9381 C 864.779 -1.0806 1.62321 0
M  V30 9382 O 864.049 -1.74351 0.893229 0
M  V30 9383 H 862.629 0.126126 0.736275 0
M  V30 9384 H 865.291 1.00148 1.67202 0
M  V30 9385 H 864.387 0.434451 3.09061 0
M  V30 9386 N 864.689 -1.48329 0.532571 0
M  V30 9387 C 865.938 -2.017 -0.00259705 0
M  V30 9388 C 866.251 -1.41469 -1.35077 0
M  V30 9389 O 867.457 -1.86354 -1.97445 0
M  V30 9390 C 865.913 -3.59858 -0.0550179 0
M  V30 9391 C 865.521 -4.29073 1.28842 0
M  V30 9392 C 867.265 -4.21066 -0.538878 0
M  V30 9393 C 865.172 -5.79171 1.19644 0
M  V30 9394 H 864.102 -0.753985 -0.00474081 0
M  V30 9395 H 866.753 -1.70565 0.676739 0
M  V30 9396 H 865.135 -3.87846 -0.799486 0
M  V30 9397 H 866.309 -4.12755 2.04865 0
M  V30 9398 H 864.624 -3.79748 1.70822 0
M  V30 9399 H 867.221 -5.31026 -0.6257 0
M  V30 9400 H 867.564 -3.86559 -1.54525 0
M  V30 9401 H 868.097 -3.97517 0.149984 0
M  V30 9402 H 864.836 -6.18257 2.17805 0
M  V30 9403 H 864.356 -5.97895 0.477609 0
M  V30 9404 H 866.035 -6.40875 0.888186 0
M  V30 9405 N 866.167 -0.267825 -1.55308 0
M  V30 9406 C 867.115 0.638848 -2.23655 0
M  V30 9407 C 868.109 1.16363 -1.2311 0
M  V30 9408 O 869.315 1.1181 -1.41062 0
M  V30 9409 H 865.69 0.224551 -0.717691 0
M  V30 9410 H 867.661 0.0394809 -2.98374 0
M  V30 9411 C 866.41 1.8151 -2.96562 0
M  V30 9412 H 865.733 1.42048 -3.73715 0
M  V30 9413 H 867.173 2.42629 -3.47717 0
M  V30 9414 C 865.632 2.69911 -2.01618 0
M  V30 9415 O 866.162 3.70058 -1.56268 0
M  V30 9416 N 864.368 2.36924 -1.68272 0
M  V30 9417 H 863.915 1.55533 -2.05347 0
M  V30 9418 H 863.873 2.96343 -1.05016 0
M  V30 9419 N 867.645 1.57599 0.00500368 0
M  V30 9420 C 868.592 2.08106 0.998025 0
M  V30 9421 C 869.562 0.975374 1.34446 0
M  V30 9422 O 870.747 1.24749 1.44369 0
M  V30 9423 C 867.887 2.58496 2.28635 0
M  V30 9424 C 867 3.82947 1.99939 0
M  V30 9425 C 866.135 4.21857 3.22816 0
M  V30 9426 C 865.174 5.39159 2.89783 0
M  V30 9427 N 864.311 5.73386 4.05183 0
M  V30 9428 H 869.151 2.92684 0.560385 0
M  V30 9429 H 866.688 1.44692 0.265053 0
M  V30 9430 H 868.646 2.85787 3.03943 0
M  V30 9431 H 867.276 1.768 2.70077 0
M  V30 9432 H 866.328 3.62594 1.1502 0
M  V30 9433 H 867.64 4.68358 1.71588 0
M  V30 9434 H 866.794 4.50404 4.06474 0
M  V30 9435 H 865.533 3.35145 3.54301 0
M  V30 9436 H 864.538 5.1034 2.04532 0
M  V30 9437 H 865.763 6.27543 2.59551 0
M  V30 9438 H 863.709 4.89632 4.36574 0
M  V30 9439 H 863.626 6.53359 3.80339 0
M  V30 9440 H 864.894 6.06522 4.89644 0
M  V30 9441 N 869.123 -0.277682 1.55134 0
M  V30 9442 C 870.534 -0.849063 1.66276 0
M  V30 9443 C 870.885 -1.87223 0.5867 0
M  V30 9444 O 870.01 -2.14676 -0.272635 0
M  V30 9445 C 870.605 -1.54681 3.01429 0
M  V30 9446 C 869.164 -2.06628 3.14614 0
M  V30 9447 C 868.311 -0.906748 2.62056 0
M  V30 9448 H 871.262 -0.0541357 1.58608 0
M  V30 9449 H 871.283 -2.41356 2.94156 0
M  V30 9450 H 870.795 -0.80189 3.79725 0
M  V30 9451 H 868.896 -2.84095 2.41082 0
M  V30 9452 H 869.009 -2.2848 4.2111 0
M  V30 9453 H 867.373 -1.29882 2.19095 0
M  V30 9454 H 868.156 -0.175414 3.42852 0
M  V30 9455 N 870.601 -1.47988 -0.541979 0
M  V30 9456 C 871.511 -1.64276 -1.67483 0
M  V30 9457 C 872.527 -0.525387 -1.65879 0
M  V30 9458 O 873.703 -0.794912 -1.85049 0
M  V30 9459 C 870.768 -1.66744 -3.03969 0
M  V30 9460 C 869.829 -2.90021 -3.16522 0
M  V30 9461 C 869.062 -2.92362 -4.46498 0
M  V30 9462 O 869.285 -2.03462 -5.32878 0
M  V30 9463 O 868.219 -3.84399 -4.63164 0
M  V30 9464 H 872.045 -2.60164 -1.5668 0
M  V30 9465 H 869.63 -1.31249 -0.71372 0
M  V30 9466 H 871.512 -1.70958 -3.85164 0
M  V30 9467 H 870.187 -0.740277 -3.15122 0
M  V30 9468 H 869.094 -2.91345 -2.34667 0
M  V30 9469 H 870.427 -3.82082 -3.10281 0
M  V30 9470 N 872.079 0.78992 -1.36375 0
M  V30 9471 C 872.989 1.93386 -1.32812 0
M  V30 9472 C 874.005 1.72468 -0.230377 0
M  V30 9473 O 875.181 1.96014 -0.462657 0
M  V30 9474 C 872.246 3.2824 -1.11621 0
M  V30 9475 C 871.307 3.61939 -2.30865 0
M  V30 9476 C 870.54 4.90359 -2.10675 0
M  V30 9477 O 870.763 5.6005 -1.08168 0
M  V30 9478 O 869.697 5.22702 -2.9844 0
M  V30 9479 H 873.523 1.99342 -2.29121 0
M  V30 9480 H 871.108 0.9301 -1.16917 0
M  V30 9481 H 872.99 4.08939 -1.01719 0
M  V30 9482 H 871.665 3.23178 -0.183732 0
M  V30 9483 H 870.572 2.81549 -2.46335 0
M  V30 9484 H 871.905 3.71725 -3.22617 0
M  V30 9485 N 873.557 1.20646 1.01402 0
M  V30 9486 C 874.806 1.01242 1.7445 0
M  V30 9487 C 875.119 -0.455732 1.90217 0
M  V30 9488 O 876.325 -0.768951 2.60383 0
M  V30 9489 C 874.781 1.76275 3.13776 0
M  V30 9490 C 874.389 3.27201 3.06013 0
M  V30 9491 C 876.133 1.65248 3.91016 0
M  V30 9492 C 874.04 3.9476 4.40362 0
M  V30 9493 H 872.97 0.375202 0.654018 0
M  V30 9494 H 875.621 1.44292 1.13367 0
M  V30 9495 H 874.003 1.26013 3.75415 0
M  V30 9496 H 875.177 3.84695 2.53665 0
M  V30 9497 H 873.492 3.38669 2.42265 0
M  V30 9498 H 876.089 2.13061 4.90417 0
M  V30 9499 H 876.432 0.609128 4.1182 0
M  V30 9500 H 876.965 2.12937 3.3601 0
M  V30 9501 H 873.704 4.99258 4.24761 0
M  V30 9502 H 873.224 3.42054 4.92706 0
M  V30 9503 H 874.903 3.99159 5.09196 0
M  V30 9504 N 875.035 -1.20752 1.01276 0
M  V30 9505 C 875.982 -2.234 0.579732 0
M  V30 9506 C 876.952 -1.61256 -0.398206 0
M  V30 9507 O 878.137 -1.8845 -0.29851 0
M  V30 9508 C 875.277 -3.45008 -0.0797006 0
M  V30 9509 C 874.39 -4.21597 0.942343 0
M  V30 9510 C 873.525 -5.30591 0.254364 0
M  V30 9511 C 872.564 -5.98919 1.26343 0
M  V30 9512 N 871.701 -6.99511 0.602384 0
M  V30 9513 H 876.541 -2.59801 1.45971 0
M  V30 9514 H 874.078 -1.27663 0.730787 0
M  V30 9515 H 876.036 -4.1444 -0.479125 0
M  V30 9516 H 874.666 -3.09312 -0.923354 0
M  V30 9517 H 873.718 -3.51268 1.45996 0
M  V30 9518 H 875.03 -4.68576 1.70992 0
M  V30 9519 H 874.184 -6.06368 -0.200763 0
M  V30 9520 H 872.923 -4.84639 -0.545553 0
M  V30 9521 H 871.928 -5.21906 1.72898 0
M  V30 9522 H 873.153 -6.46957 2.06456 0
M  V30 9523 H 871.099 -6.55759 -0.177734 0
M  V30 9524 H 871.016 -7.44597 1.30809 0
M  V30 9525 H 872.284 -7.79313 0.17072 0
M  V30 9526 N 876.513 -0.788492 -1.36457 0
M  V30 9527 C 877.46 -0.18435 -2.30063 0
M  V30 9528 C 878.43 0.67128 -1.51931 0
M  V30 9529 O 879.615 0.620152 -1.8044 0
M  V30 9530 C 876.755 0.675596 -3.38422 0
M  V30 9531 C 875.868 -0.198475 -4.31544 0
M  V30 9532 C 875.003 0.667757 -5.26986 0
M  V30 9533 C 874.042 -0.207825 -6.11747 0
M  V30 9534 N 873.179 0.617335 -6.99381 0
M  V30 9535 H 878.019 -0.988056 -2.81143 0
M  V30 9536 H 875.556 -0.498815 -1.38384 0
M  V30 9537 H 877.514 1.18916 -3.99894 0
M  V30 9538 H 876.144 1.44474 -2.88664 0
M  V30 9539 H 875.196 -0.829995 -3.71235 0
M  V30 9540 H 876.508 -0.873163 -4.91098 0
M  V30 9541 H 875.662 1.24716 -5.93743 0
M  V30 9542 H 874.401 1.37607 -4.67884 0
M  V30 9543 H 873.406 -0.799638 -5.43954 0
M  V30 9544 H 874.631 -0.913729 -6.72925 0
M  V30 9545 H 872.577 1.30996 -6.42788 0
M  V30 9546 H 872.494 0.000307255 -7.56 0
M  V30 9547 H 873.762 1.1806 -7.70508 0
M  V30 9548 N 877.991 1.48044 -0.54043 0
M  V30 9549 C 879.221 2.06595 -0.0144943 0
M  V30 9550 C 879.629 1.39593 1.27713 0
M  V30 9551 O 878.972 0.480794 1.77297 0
M  V30 9552 C 879.034 3.5849 0.269316 0
M  V30 9553 C 878.698 4.47429 -0.930372 0
M  V30 9554 C 879.695 4.8657 -1.83155 0
M  V30 9555 C 877.38 4.89185 -1.14032 0
M  V30 9556 C 879.374 5.66246 -2.92649 0
M  V30 9557 C 877.061 5.6863 -2.23838 0
M  V30 9558 C 878.059 6.07069 -3.12979 0
M  V30 9559 O 877.747 6.84917 -4.20884 0
M  V30 9560 H 877.479 0.675086 -0.0351467 0
M  V30 9561 H 880.033 1.91275 -0.74853 0
M  V30 9562 H 878.263 3.71961 1.05745 0
M  V30 9563 H 879.952 3.99124 0.738595 0
M  V30 9564 H 880.718 4.54924 -1.68134 0
M  V30 9565 H 876.597 4.58742 -0.455717 0
M  V30 9566 H 880.141 5.96169 -3.62254 0
M  V30 9567 H 876.038 5.99688 -2.38839 0
M  V30 9568 H 876.806 7.03287 -4.18723 0
M  V30 9569 N 879.47 0.276058 1.55163 0
M  V30 9570 C 880.418 -0.626978 2.2399 0
M  V30 9571 C 881.412 -1.15708 1.23725 0
M  V30 9572 O 882.618 -1.1106 1.41653 0
M  V30 9573 H 878.993 -0.220742 0.718872 0
M  V30 9574 H 880.964 -0.0236569 2.98391 0
M  V30 9575 C 879.713 -1.79935 2.97521 0
M  V30 9576 H 879.036 -1.40064 3.74463 0
M  V30 9577 H 880.476 -2.40781 3.48999 0
M  V30 9578 C 878.935 -2.68838 2.03046 0
M  V30 9579 O 879.465 -3.69224 1.58229 0
M  V30 9580 N 877.671 -2.36028 1.69527 0
M  V30 9581 H 877.218 -1.54442 2.06169 0
M  V30 9582 H 877.176 -2.95782 1.06586 0
M  V30 9583 N 880.948 -1.576 0.00335426 0
M  V30 9584 C 882.196 -1.90336 -0.679446 0
M  V30 9585 C 882.517 -0.877777 -1.74127 0
M  V30 9586 O 881.787 0.0843585 -1.95718 0
M  V30 9587 H 880.367 -0.702509 -0.253948 0
M  V30 9588 H 883.029 -1.94848 0.0450731 0
M  V30 9589 H 882.125 -2.90197 -1.14857 0
M  V30 9590 N 882.426 0.269451 -1.5528 0
M  V30 9591 C 883.654 1.01872 -1.80082 0
M  V30 9592 C 884.069 1.79802 -0.575917 0
M  V30 9593 O 883.426 1.76735 0.455081 0
M  V30 9594 C 883.477 1.9745 -3.02813 0
M  V30 9595 O 883.198 1.22677 -4.20573 0
M  V30 9596 C 884.699 2.8416 -3.40247 0
M  V30 9597 H 881.919 0.300781 -0.59981 0
M  V30 9598 H 884.463 0.29916 -2.023 0
M  V30 9599 H 882.618 2.64864 -2.82712 0
M  V30 9600 H 883.032 1.87129 -4.89982 0
M  V30 9601 H 884.506 3.47014 -4.29284 0
M  V30 9602 H 884.983 3.54113 -2.59809 0
M  V30 9603 H 885.589 2.22232 -3.6262 0
M  V30 9604 N 883.904 1.48273 0.534124 0
M  V30 9605 C 884.867 1.6201 1.62127 0
M  V30 9606 C 885.867 0.493653 1.53035 0
M  V30 9607 O 887.057 0.759337 1.56779 0
M  V30 9608 C 884.189 1.5864 3.01739 0
M  V30 9609 H 885.382 2.58944 1.51288 0
M  V30 9610 H 882.935 1.36808 0.755861 0
M  V30 9611 H 883.67 0.631685 3.18088 0
M  V30 9612 H 883.455 2.40415 3.09747 0
M  V30 9613 H 884.945 1.71438 3.80787 0
M  V30 9614 N 885.382 -0.782676 1.36792 0
M  V30 9615 C 886.793 -1.35828 1.28092 0
M  V30 9616 C 887.144 -1.96052 -0.076315 0
M  V30 9617 O 886.269 -1.93042 -0.977935 0
M  V30 9618 C 886.864 -2.46949 2.31952 0
M  V30 9619 C 885.423 -3.00307 2.2692 0
M  V30 9620 C 884.57 -1.73436 2.16368 0
M  V30 9621 H 887.521 -0.583788 1.47572 0
M  V30 9622 H 887.542 -3.26144 1.95986 0
M  V30 9623 H 887.054 -2.03087 3.30722 0
M  V30 9624 H 885.155 -3.48571 1.31639 0
M  V30 9625 H 885.268 -3.56663 3.19887 0
M  V30 9626 H 883.632 -1.95934 1.62733 0
M  V30 9627 H 884.415 -1.31693 3.17036 0
M  V30 9628 N 886.86 -1.21182 -1.00761 0
M  V30 9629 C 887.807 -0.968741 -2.09485 0
M  V30 9630 C 888.777 0.104325 -1.65772 0
M  V30 9631 O 889.962 -0.0422587 -1.90753 0
M  V30 9632 C 887.102 -0.536686 -3.40901 0
M  V30 9633 C 886.215 -1.6789 -3.98041 0
M  V30 9634 C 885.35 -1.19627 -5.17555 0
M  V30 9635 C 884.389 -2.31099 -5.66798 0
M  V30 9636 N 883.526 -1.83988 -6.77564 0
M  V30 9637 H 888.366 -1.89952 -2.29613 0
M  V30 9638 H 885.903 -0.946688 -1.12589 0
M  V30 9639 H 887.861 -0.26745 -4.16342 0
M  V30 9640 H 886.491 0.357092 -3.20819 0
M  V30 9641 H 885.543 -2.06284 -3.19611 0
M  V30 9642 H 886.855 -2.51794 -4.30582 0
M  V30 9643 H 886.009 -0.883539 -6.00232 0
M  V30 9644 H 884.748 -0.327244 -4.86601 0
M  V30 9645 H 883.753 -2.63178 -4.82719 0
M  V30 9646 H 884.978 -3.18493 -5.99782 0
M  V30 9647 H 882.924 -0.994257 -6.48422 0
M  V30 9648 H 882.841 -2.61466 -7.09346 0
M  V30 9649 H 884.109 -1.55741 -7.63783 0
M  V30 9650 N 888.338 1.20213 -1.01915 0
M  V30 9651 C 889.584 1.89928 -0.711007 0
M  V30 9652 C 889.917 1.7881 0.75767 0
M  V30 9653 O 889.192 1.17399 1.55073 0
M  V30 9654 C 889.475 3.41225 -1.15053 0
M  V30 9655 C 889.328 3.61264 -2.67971 0
M  V30 9656 C 890.647 4.34108 -0.72377 0
M  V30 9657 H 887.766 0.689702 -0.259768 0
M  V30 9658 H 890.408 1.41557 -1.26734 0
M  V30 9659 H 888.558 3.82552 -0.677199 0
M  V30 9660 H 890.23 3.29173 -3.23176 0
M  V30 9661 H 888.473 3.04647 -3.08824 0
M  V30 9662 H 889.144 4.67331 -2.93779 0
M  V30 9663 H 891.62 4.00442 -1.13073 0
M  V30 9664 H 890.496 5.38581 -1.05931 0
M  V30 9665 H 890.757 4.40512 0.374424 0
M  V30 9666 N 889.816 0.795718 1.36037 0
M  V30 9667 C 890.746 0.212803 2.32528 0
M  V30 9668 C 891.727 -0.655716 1.56953 0
M  V30 9669 O 892.912 -0.588238 1.85077 0
M  V30 9670 C 890.042 -0.648189 3.41198 0
M  V30 9671 C 888.996 0.120948 4.27829 0
M  V30 9672 C 888.322 -0.861044 5.27722 0
M  V30 9673 C 889.622 1.31375 5.05508 0
M  V30 9674 H 891.316 1.01893 2.81528 0
M  V30 9675 H 888.862 0.491422 1.35355 0
M  V30 9676 H 890.815 -1.06597 4.07695 0
M  V30 9677 H 889.539 -1.48709 2.9078 0
M  V30 9678 H 888.198 0.519777 3.62897 0
M  V30 9679 H 887.846 -1.69515 4.73575 0
M  V30 9680 H 887.546 -0.350808 5.86552 0
M  V30 9681 H 889.07 -1.27726 5.97092 0
M  V30 9682 H 890.484 0.971406 5.6501 0
M  V30 9683 H 888.881 1.75772 5.73781 0
M  V30 9684 H 889.951 2.10593 4.36782 0
M  V30 9685 N 891.294 -1.47756 0.548274 0
M  V30 9686 C 892.257 -2.28379 -0.193857 0
M  V30 9687 C 893.257 -1.36436 -0.850986 0
M  V30 9688 O 894.447 -1.59154 -0.70822 0
M  V30 9689 C 891.579 -3.15858 -1.28243 0
M  V30 9690 H 892.772 -2.95458 0.514231 0
M  V30 9691 H 890.325 -1.53298 0.304879 0
M  V30 9692 H 891.06 -2.5345 -2.0232 0
M  V30 9693 H 890.845 -3.83512 -0.816148 0
M  V30 9694 H 892.335 -3.76627 -1.80393 0
M  V30 9695 N 892.772 -0.284283 -1.55015 0
M  V30 9696 C 893.72 0.615091 -2.2432 0
M  V30 9697 C 894.714 1.15051 -1.24337 0
M  V30 9698 O 895.92 1.10308 -1.4224 0
M  V30 9699 H 892.295 0.216927 -0.720033 0
M  V30 9700 H 894.266 0.00783216 -2.98399 0
M  V30 9701 C 893.015 1.78355 -2.98471 0
M  V30 9702 H 892.338 1.38076 -3.752 0
M  V30 9703 H 893.778 2.38927 -3.50271 0
M  V30 9704 C 892.237 2.67757 -2.04469 0
M  V30 9705 O 892.767 3.6838 -1.60185 0
M  V30 9706 N 890.973 2.35125 -1.70776 0
M  V30 9707 H 890.52 1.53346 -2.06985 0
M  V30 9708 H 890.478 2.95212 -1.08153 0
M  V30 9709 N 894.251 1.57596 -0.0117121 0
M  V30 9710 C 895.479 1.9536 0.681334 0
M  V30 9711 C 895.894 0.887255 1.66653 0
M  V30 9712 O 895.251 -0.132692 1.82017 0
M  V30 9713 C 895.302 3.33165 1.40298 0
M  V30 9714 O 895.023 4.35707 0.45728 0
M  V30 9715 C 896.524 3.85458 2.18946 0
M  V30 9716 H 893.744 0.643826 0.189023 0
M  V30 9717 H 896.288 2.04392 -0.066311 0
M  V30 9718 H 894.443 3.25404 2.10216 0
M  V30 9719 H 894.857 5.15495 0.96773 0
M  V30 9720 H 896.331 4.84275 2.64918 0
M  V30 9721 H 896.808 3.18781 3.02118 0
M  V30 9722 H 897.414 3.96431 1.5402 0
M  V30 9723 N 895.729 -0.261212 1.5542 0
M  V30 9724 C 896.677 -1.34298 1.89913 0
M  V30 9725 C 897.671 -1.50547 0.776665 0
M  V30 9726 O 898.877 -1.52191 0.961139 0
M  V30 9727 H 895.252 -0.4494 0.602946 0
M  V30 9728 H 897.223 -1.02464 2.80256 0
M  V30 9729 C 895.972 -2.69423 2.19788 0
M  V30 9730 H 895.295 -2.57715 3.05652 0
M  V30 9731 H 896.735 -3.44026 2.47835 0
M  V30 9732 C 895.194 -3.21423 1.00939 0
M  V30 9733 O 895.724 -4.00921 0.250034 0
M  V30 9734 N 893.93 -2.7926 0.803883 0
M  V30 9735 H 893.477 -2.14724 1.42308 0
M  V30 9736 H 893.435 -3.14398 0.0103257 0
M  V30 9737 N 897.207 -1.48554 -0.526253 0
M  V30 9738 C 898.139 -1.59446 -1.6465 0
M  V30 9739 C 899.152 -0.478525 -1.55608 0
M  V30 9740 O 900.341 -0.74953 -1.62001 0
M  V30 9741 C 897.441 -1.51164 -3.03319 0
M  V30 9742 C 896.614 -2.77861 -3.37805 0
M  V30 9743 C 895.673 -2.62982 -4.5577 0
M  V30 9744 O 894.699 -3.36876 -4.58806 0
M  V30 9745 N 895.901 -1.72847 -5.5417 0
M  V30 9746 H 898.666 -2.56055 -1.55743 0
M  V30 9747 H 896.227 -1.45325 -0.713606 0
M  V30 9748 H 898.219 -1.389 -3.80117 0
M  V30 9749 H 896.789 -0.625147 -3.06285 0
M  V30 9750 H 896.009 -3.04663 -2.50149 0
M  V30 9751 H 897.297 -3.61908 -3.57632 0
M  V30 9752 H 896.695 -1.12022 -5.54498 0
M  V30 9753 H 895.252 -1.6652 -6.3017 0
M  V30 9754 N 898.685 0.775411 -1.37205 0
M  V30 9755 C 899.615 1.90258 -1.35367 0
M  V30 9756 C 900.596 1.68634 -0.222864 0
M  V30 9757 O 901.781 1.89545 -0.422659 0
M  V30 9758 C 898.911 3.27488 -1.15623 0
M  V30 9759 C 897.865 3.63668 -2.25676 0
M  V30 9760 C 897.191 4.994 -1.91059 0
M  V30 9761 C 898.491 3.70797 -3.67841 0
M  V30 9762 H 900.185 1.92053 -2.29687 0
M  V30 9763 H 897.731 0.922597 -1.10563 0
M  V30 9764 H 899.684 4.05976 -1.12968 0
M  V30 9765 H 898.408 3.26117 -0.177573 0
M  V30 9766 H 897.067 2.87486 -2.2748 0
M  V30 9767 H 896.715 4.94565 -0.917324 0
M  V30 9768 H 896.415 5.24576 -2.64751 0
M  V30 9769 H 897.939 5.80291 -1.89985 0
M  V30 9770 H 899.353 4.39444 -3.68187 0
M  V30 9771 H 897.75 4.07468 -4.40556 0
M  V30 9772 H 898.82 2.71549 -4.01732 0
M  V30 9773 N 900.163 1.21714 1.00117 0
M  V30 9774 C 901.095 0.937627 2.09144 0
M  V30 9775 C 902.108 -0.0806291 1.626 0
M  V30 9776 O 903.297 0.152348 1.77849 0
M  V30 9777 C 900.397 0.387036 3.36683 0
M  V30 9778 C 899.57 1.46054 4.12295 0
M  V30 9779 C 898.629 0.918505 5.18122 0
M  V30 9780 O 897.655 1.60282 5.46167 0
M  V30 9781 N 898.857 -0.264308 5.79898 0
M  V30 9782 H 901.622 1.87622 2.33705 0
M  V30 9783 H 899.183 1.12291 1.16629 0
M  V30 9784 H 901.175 0.00992825 4.04699 0
M  V30 9785 H 899.745 -0.456467 3.09249 0
M  V30 9786 H 898.965 2.01133 3.39027 0
M  V30 9787 H 900.253 2.18306 4.59587 0
M  V30 9788 H 899.651 -0.837242 5.5947 0
M  V30 9789 H 898.208 -0.582886 6.49188 0
M  V30 9790 N 901.641 -1.19671 1.02551 0
M  V30 9791 C 902.604 -2.20987 0.608055 0
M  V30 9792 C 903.604 -1.5745 -0.326534 0
M  V30 9793 O 904.794 -1.73827 -0.114003 0
M  V30 9794 C 901.926 -3.4072 -0.11074 0
M  V30 9795 H 903.119 -2.59434 1.50446 0
M  V30 9796 H 900.672 -1.3329 0.816307 0
M  V30 9797 H 901.407 -3.07787 -1.02165 0
M  V30 9798 H 901.192 -3.88069 0.560772 0
M  V30 9799 H 902.682 -4.15776 -0.389848 0
M  V30 9800 N 903.119 -0.802921 -1.35613 0
M  V30 9801 C 904.365 -0.382141 -1.99167 0
M  V30 9802 C 904.698 1.04704 -1.63556 0
M  V30 9803 O 903.973 1.72578 -0.89706 0
M  V30 9804 C 904.256 -0.561493 -3.55695 0
M  V30 9805 C 904.109 -2.03534 -4.01116 0
M  V30 9806 C 905.428 0.0151135 -4.40097 0
M  V30 9807 H 902.547 -0.140322 -0.723518 0
M  V30 9808 H 905.189 -1.01177 -1.6082 0
M  V30 9809 H 903.339 -0.0255083 -3.88492 0
M  V30 9810 H 905.011 -2.63343 -3.78746 0
M  V30 9811 H 903.254 -2.5331 -3.52159 0
M  V30 9812 H 903.925 -2.11173 -5.1001 0
M  V30 9813 H 906.401 -0.442582 -4.1374 0
M  V30 9814 H 905.277 -0.140316 -5.48721 0
M  V30 9815 H 905.538 1.10848 -4.27978 0
M  V30 9816 N 904.597 1.47463 -0.556102 0
M  V30 9817 C 905.827 2.06568 -0.0364056 0
M  V30 9818 C 906.235 1.40939 1.26225 0
M  V30 9819 O 905.578 0.499572 1.76777 0
M  V30 9820 C 905.64 3.58755 0.231278 0
M  V30 9821 C 905.304 4.46417 -0.977776 0
M  V30 9822 C 906.301 4.846 -1.88305 0
M  V30 9823 C 903.986 4.87948 -1.19214 0
M  V30 9824 C 905.98 5.63111 -2.98639 0
M  V30 9825 C 903.667 5.66224 -2.29857 0
M  V30 9826 C 904.665 6.03716 -3.194 0
M  V30 9827 O 904.353 6.80415 -4.28125 0
M  V30 9828 H 904.085 0.674675 -0.042305 0
M  V30 9829 H 906.639 1.9047 -0.768775 0
M  V30 9830 H 904.869 3.73061 1.01794 0
M  V30 9831 H 906.558 3.99884 0.696221 0
M  V30 9832 H 907.324 4.53115 -1.72949 0
M  V30 9833 H 903.203 4.58233 -0.504347 0
M  V30 9834 H 906.747 5.92293 -3.68557 0
M  V30 9835 H 902.644 5.97121 -2.45186 0
M  V30 9836 H 903.412 6.98807 -4.26159 0
M  V30 9837 N 906.075 0.2925 1.54862 0
M  V30 9838 C 907.025 -0.60226 2.19902 0
M  V30 9839 C 908.009 -1.10535 1.16923 0
M  V30 9840 O 909.201 -1.04753 1.42674 0
M  V30 9841 C 906.33 -1.77774 2.93686 0
M  V30 9842 C 905.416 -1.29101 4.03972 0
M  V30 9843 N 905.807 -0.521671 5.03103 0
M  V30 9844 C 904.105 -1.57248 4.17359 0
M  V30 9845 C 904.806 -0.263545 5.81103 0
M  V30 9846 N 903.782 -0.840937 5.37056 0
M  V30 9847 H 907.584 -0.00682274 2.93899 0
M  V30 9848 H 905.098 0.0968604 1.62111 0
M  V30 9849 H 907.095 -2.43021 3.38743 0
M  V30 9850 H 905.755 -2.37696 2.21203 0
M  V30 9851 H 906.766 -0.167364 5.1763 0
M  V30 9852 H 903.443 -2.1798 3.56077 0
M  V30 9853 H 904.833 0.353783 6.70968 0
M  V30 9854 N 907.553 -1.57587 0.0200696 0
M  V30 9855 C 908.485 -2.06555 -0.993359 0
M  V30 9856 C 909.498 -0.987227 -1.29451 0
M  V30 9857 O 910.687 -1.26361 -1.26075 0
M  V30 9858 C 907.787 -2.4675 -2.3231 0
M  V30 9859 C 906.96 -3.77554 -2.20843 0
M  V30 9860 C 906.019 -4.04397 -3.36674 0
M  V30 9861 O 905.045 -4.7478 -3.13963 0
M  V30 9862 N 906.247 -3.53861 -4.60176 0
M  V30 9863 H 909.012 -2.9412 -0.575617 0
M  V30 9864 H 906.573 -1.61038 -0.166889 0
M  V30 9865 H 908.565 -2.61806 -3.08609 0
M  V30 9866 H 907.135 -1.64598 -2.65756 0
M  V30 9867 H 906.355 -3.72382 -1.29327 0
M  V30 9868 H 907.643 -4.63271 -2.10375 0
M  V30 9869 H 907.041 -2.96904 -4.81523 0
M  V30 9870 H 905.598 -3.74213 -5.33674 0
M  V30 9871 N 909.032 0.252966 -1.55557 0
M  V30 9872 C 909.964 1.33585 -1.86246 0
M  V30 9873 C 910.977 1.44584 -0.748291 0
M  V30 9874 O 912.166 1.46042 -1.02635 0
M  V30 9875 C 909.266 2.71509 -2.02821 0
M  V30 9876 C 908.439 2.82853 -3.33636 0
M  V30 9877 C 907.498 4.01581 -3.40028 0
M  V30 9878 O 906.524 3.91394 -4.13278 0
M  V30 9879 N 907.726 5.14474 -2.6888 0
M  V30 9880 H 910.491 1.07596 -2.7972 0
M  V30 9881 H 908.052 0.443075 -1.55719 0
M  V30 9882 H 910.044 3.49262 -2.04445 0
M  V30 9883 H 908.614 2.90232 -1.1612 0
M  V30 9884 H 907.834 1.91823 -3.4438 0
M  V30 9885 H 909.122 2.87378 -4.19871 0
M  V30 9886 H 908.52 5.25641 -2.09087 0
M  V30 9887 H 907.077 5.90385 -2.76204 0
M  V30 9888 N 910.51 1.48831 0.518367 0
M  V30 9889 C 911.44 1.67119 1.63075 0
M  V30 9890 C 912.421 0.519948 1.61958 0
M  V30 9891 O 913.606 0.753824 1.78972 0
M  V30 9892 C 910.736 1.72158 3.01627 0
M  V30 9893 C 909.69 2.86898 3.17606 0
M  V30 9894 C 909.016 2.77035 4.57335 0
M  V30 9895 C 910.316 4.28057 2.99274 0
M  V30 9896 H 912.01 2.60248 1.48025 0
M  V30 9897 H 909.556 1.2524 0.710694 0
M  V30 9898 H 911.509 1.83539 3.7933 0
M  V30 9899 H 910.233 0.756157 3.17726 0
M  V30 9900 H 908.892 2.75091 2.42323 0
M  V30 9901 H 908.54 1.78438 4.70286 0
M  V30 9902 H 908.24 3.54036 4.6897 0
M  V30 9903 H 909.764 2.904 5.37122 0
M  V30 9904 H 911.178 4.40636 3.6676 0
M  V30 9905 H 909.575 5.06145 3.22393 0
M  V30 9906 H 910.645 4.4371 1.95574 0
M  V30 9907 N 911.988 -0.768124 1.37614 0
M  V30 9908 C 913.265 -1.51637 1.23554 0
M  V30 9909 C 913.645 -2.1042 -0.169331 0
M  V30 9910 O 912.993 -1.95834 -1.17735 0
M  V30 9911 C 913.203 -2.59436 2.33439 0
M  V30 9912 C 914.551 -3.2674 2.71157 0
M  V30 9913 O 915.575 -2.69733 2.32642 0
M  V30 9914 O 914.434 -4.29814 3.37524 0
M  V30 9915 H 911.528 -0.671778 0.482332 0
M  V30 9916 H 914.074 -0.804779 1.49403 0
M  V30 9917 H 912.846 -2.14146 3.27502 0
M  V30 9918 H 912.469 -3.38192 2.09073 0
M  V30 9919 N 913.466 -1.22244 -0.994698 0
M  V30 9920 C 914.399 -0.934168 -2.08203 0
M  V30 9921 C 915.377 0.122231 -1.6214 0
M  V30 9922 O 916.561 -0.00896598 -1.88498 0
M  V30 9923 C 913.688 -0.404646 -3.36274 0
M  V30 9924 C 912.734 -1.44544 -4.01259 0
M  V30 9925 S 913.567 -3.01816 -4.42343 0
M  V30 9926 C 914.723 -2.50497 -5.73587 0
M  V30 9927 H 914.956 -1.85493 -2.32335 0
M  V30 9928 H 912.489 -1.0533 -1.12893 0
M  V30 9929 H 914.447 -0.105719 -4.10364 0
M  V30 9930 H 913.108 0.494971 -3.10176 0
M  V30 9931 H 912.301 -1.02478 -4.93472 0
M  V30 9932 H 911.903 -1.69298 -3.33488 0
M  V30 9933 H 914.195 -1.91626 -6.49835 0
M  V30 9934 H 915.138 -3.41193 -6.20478 0
M  V30 9935 H 915.546 -1.91845 -5.30901 0
M  V30 9936 N 914.944 1.19125 -1.03184 0
M  V30 9937 C 916.19 1.89163 -0.731111 0
M  V30 9938 C 916.523 1.79604 0.738662 0
M  V30 9939 O 915.798 1.19037 1.53819 0
M  V30 9940 C 916.081 3.39986 -1.18666 0
M  V30 9941 C 915.934 3.58401 -2.71788 0
M  V30 9942 C 917.253 4.33316 -0.769772 0
M  V30 9943 H 914.372 0.686908 -0.267069 0
M  V30 9944 H 917.014 1.40205 -1.28229 0
M  V30 9945 H 915.164 3.81813 -0.717736 0
M  V30 9946 H 916.836 3.25727 -3.26649 0
M  V30 9947 H 915.079 3.01355 -3.12038 0
M  V30 9948 H 915.75 4.64189 -2.98719 0
M  V30 9949 H 918.226 3.9922 -1.17314 0
M  V30 9950 H 917.102 5.37427 -1.11637 0
M  V30 9951 H 917.363 4.40884 0.327681 0
M  V30 9952 N 916.422 0.810101 1.35185 0
M  V30 9953 C 917.354 0.180581 2.28488 0
M  V30 9954 C 918.367 -0.622154 1.50443 0
M  V30 9955 O 919.556 -0.453938 1.72632 0
M  V30 9956 C 916.656 -0.766447 3.30119 0
M  V30 9957 C 915.829 -0.00932028 4.37399 0
M  V30 9958 C 914.888 -0.875354 5.18868 0
M  V30 9959 O 913.914 -0.325012 5.68271 0
M  V30 9960 N 915.116 -2.19695 5.37321 0
M  V30 9961 H 917.881 0.98212 2.83151 0
M  V30 9962 H 915.442 0.665879 1.47573 0
M  V30 9963 H 917.434 -1.35012 3.81515 0
M  V30 9964 H 916.004 -1.46878 2.75945 0
M  V30 9965 H 915.224 0.755585 3.86891 0
M  V30 9966 H 916.512 0.512352 5.06214 0
M  V30 9967 H 915.91 -2.66797 4.98834 0
M  V30 9968 H 914.467 -2.72978 5.91884 0
M  V30 9969 N 917.9 -1.47166 0.563914 0
M  V30 9970 C 918.863 -2.28571 -0.169624 0
M  V30 9971 C 919.863 -1.37331 -0.836467 0
M  V30 9972 O 921.053 -1.59896 -0.6913 0
M  V30 9973 C 918.185 -3.17201 -1.24886 0
M  V30 9974 H 919.378 -2.94896 0.545539 0
M  V30 9975 H 916.931 -1.52966 0.321121 0
M  V30 9976 H 917.666 -2.55582 -1.99621 0
M  V30 9977 H 917.451 -3.84356 -0.775426 0
M  V30 9978 H 918.941 -3.7852 -1.76388 0
M  V30 9979 N 919.378 -0.300708 -1.54705 0
M  V30 9980 C 920.627 0.309428 -1.99312 0
M  V30 9981 C 920.94 1.55027 -1.19272 0
M  V30 9982 O 922.146 2.23498 -1.54146 0
M  V30 9983 C 920.602 0.601856 -3.54832 0
M  V30 9984 C 920.21 -0.620636 -4.4368 0
M  V30 9985 C 921.954 1.1732 -4.07966 0
M  V30 9986 C 919.861 -0.301376 -5.90632 0
M  V30 9987 H 918.791 0.119395 -0.744487 0
M  V30 9988 H 921.442 -0.409368 -1.78875 0
M  V30 9989 H 919.824 1.38024 -3.71168 0
M  V30 9990 H 920.998 -1.39685 -4.39118 0
M  V30 9991 H 919.313 -1.1106 -4.01316 0
M  V30 9992 H 921.91 1.42631 -5.15326 0
M  V30 9993 H 922.253 2.11537 -3.5855 0
M  V30 9994 H 922.786 0.456534 -3.95172 0
M  V30 9995 H 919.525 -1.21209 -6.44196 0
M  V30 9996 H 919.045 0.437574 -5.98202 0
M  V30 9997 H 920.724 0.097164 -6.46927 0
M  V30 9998 N 920.856 1.57574 -0.0284266 0
M  V30 9999 C 922.103 1.91772 0.650364 0
M  V30 10000 C 922.431 0.904769 1.72175 0
M  V30 10001 O 921.686 -0.0864038 1.95509 0
M  V30 10002 C 921.985 3.32699 1.3056 0
M  V30 10003 C 921.651 4.49423 0.364658 0
M  V30 10004 C 920.313 4.81084 0.105672 0
M  V30 10005 C 922.665 5.20439 -0.28151 0
M  V30 10006 C 919.993 5.81119 -0.8073 0
M  V30 10007 C 922.345 6.21449 -1.18253 0
M  V30 10008 C 921.009 6.51551 -1.45042 0
M  V30 10009 H 920.279 0.701744 0.237985 0
M  V30 10010 H 922.926 1.91288 -0.0900448 0
M  V30 10011 H 921.231 3.29441 2.12075 0
M  V30 10012 H 922.928 3.5643 1.83736 0
M  V30 10013 H 919.518 4.24703 0.576692 0
M  V30 10014 H 923.702 4.9621 -0.0944806 0
M  V30 10015 H 918.958 6.02788 -1.02256 0
M  V30 10016 H 923.132 6.75597 -1.68942 0
M  V30 10017 H 920.759 7.28882 -2.15951 0
M  V30 10018 N 922.334 -0.244713 1.55689 0
M  V30 10019 C 923.564 -0.988508 1.81417 0
M  V30 10020 C 923.972 -1.79362 0.602143 0
M  V30 10021 O 923.315 -1.78386 -0.438639 0
M  V30 10022 C 923.377 -1.97287 3.0053 0
M  V30 10023 C 923.041 -1.35448 4.36466 0
M  V30 10024 C 924.038 -0.755874 5.14376 0
M  V30 10025 C 921.723 -1.37319 4.83165 0
M  V30 10026 C 923.717 -0.184218 6.37134 0
M  V30 10027 C 921.404 -0.797681 6.05871 0
M  V30 10028 C 922.402 -0.204224 6.82695 0
M  V30 10029 O 922.09 0.362392 8.03083 0
M  V30 10030 H 921.822 -0.296412 0.607549 0
M  V30 10031 H 924.376 -0.272185 2.03589 0
M  V30 10032 H 922.606 -2.72756 2.74119 0
M  V30 10033 H 924.295 -2.58028 3.13331 0
M  V30 10034 H 925.061 -0.733912 4.79415 0
M  V30 10035 H 920.94 -1.8245 4.23359 0
M  V30 10036 H 924.484 0.279624 6.97039 0
M  V30 10037 H 920.381 -0.816978 6.40309 0
M  V30 10038 H 921.149 0.254467 8.18104 0
M  V30 10039 N 923.813 -1.49104 -0.510467 0
M  V30 10040 C 925.041 -1.61806 -1.28944 0
M  V30 10041 C 925.456 -0.285774 -1.86625 0
M  V30 10042 O 924.813 0.727551 -1.67371 0
M  V30 10043 C 924.864 -2.67966 -2.42645 0
M  V30 10044 O 924.585 -3.96026 -1.87337 0
M  V30 10045 C 926.086 -2.91286 -3.34166 0
M  V30 10046 H 923.306 -0.544999 -0.391429 0
M  V30 10047 H 925.85 -1.95071 -0.613805 0
M  V30 10048 H 924.005 -2.37505 -3.06056 0
M  V30 10049 H 924.419 -4.54427 -2.61909 0
M  V30 10050 H 925.893 -3.69323 -4.1025 0
M  V30 10051 H 926.37 -2.00842 -3.90588 0
M  V30 10052 H 926.976 -3.23127 -2.76531 0
M  V30 10053 N 925.291 0.760815 -1.38019 0
M  V30 10054 C 926.254 1.85604 -1.34476 0
M  V30 10055 C 927.254 1.58897 -0.24666 0
M  V30 10056 O 928.444 1.66776 -0.50314 0
M  V30 10057 C 925.576 3.22945 -1.09176 0
M  V30 10058 H 926.769 1.90155 -2.31908 0
M  V30 10059 H 924.322 0.961746 -1.23208 0
M  V30 10060 H 925.057 3.24066 -0.123216 0
M  V30 10061 H 924.842 3.43723 -1.88672 0
M  V30 10062 H 926.332 4.03022 -1.09375 0
M  V30 10063 N 926.769 1.22769 0.988202 0
M  V30 10064 C 928.017 1.05301 1.725 0
M  V30 10065 C 928.338 -0.412103 1.90596 0
M  V30 10066 O 927.608 -1.29606 1.46898 0
M  V30 10067 H 926.188 0.386658 0.639144 0
M  V30 10068 H 928.85 1.54359 1.18993 0
M  V30 10069 H 927.946 1.53465 2.71763 0
M  V30 10070 N 928.247 -1.18576 1.03814 0
M  V30 10071 C 929.194 -2.2212 0.626988 0
M  V30 10072 C 930.164 -1.62064 -0.363912 0
M  V30 10073 O 931.349 -1.89041 -0.258469 0
M  V30 10074 C 928.489 -3.45099 -0.00650133 0
M  V30 10075 C 927.602 -4.19503 1.03156 0
M  V30 10076 C 926.737 -5.29932 0.366852 0
M  V30 10077 C 925.776 -5.96104 1.39018 0
M  V30 10078 N 924.913 -6.98076 0.750625 0
M  V30 10079 H 929.753 -2.56646 1.51449 0
M  V30 10080 H 927.29 -1.26084 0.757702 0
M  V30 10081 H 929.248 -4.15363 -0.391108 0
M  V30 10082 H 927.878 -3.11201 -0.857536 0
M  V30 10083 H 926.93 -3.48092 1.53414 0
M  V30 10084 H 928.242 -4.64843 1.80893 0
M  V30 10085 H 927.396 -6.06657 -0.0720979 0
M  V30 10086 H 926.135 -4.85687 -0.442631 0
M  V30 10087 H 925.14 -5.18122 1.8393 0
M  V30 10088 H 926.365 -6.42432 2.20132 0
M  V30 10089 H 924.311 -6.55989 -0.0385981 0
M  V30 10090 H 924.228 -7.41655 1.46574 0
M  V30 10091 H 925.496 -7.78776 0.335986 0
M  V30 10092 N 929.725 -0.817259 -1.34754 0
M  V30 10093 C 930.655 -0.249769 -2.3216 0
M  V30 10094 C 931.636 0.630663 -1.57977 0
M  V30 10095 O 932.821 0.558719 -1.85989 0
M  V30 10096 C 929.951 0.593825 -3.42186 0
M  V30 10097 C 928.905 -0.188997 -4.27583 0
M  V30 10098 C 928.231 0.776979 -5.29025 0
M  V30 10099 C 929.531 -1.39401 -5.03354 0
M  V30 10100 H 931.225 -1.06359 -2.79872 0
M  V30 10101 H 928.771 -0.512894 -1.34556 0
M  V30 10102 H 930.724 1.00097 -4.09339 0
M  V30 10103 H 929.448 1.44064 -2.93109 0
M  V30 10104 H 928.107 -0.577445 -3.62024 0
M  V30 10105 H 927.755 1.61959 -4.76212 0
M  V30 10106 H 927.455 0.257448 -5.87036 0
M  V30 10107 H 928.979 1.18211 -5.99048 0
M  V30 10108 H 930.393 -1.06117 -5.63393 0
M  V30 10109 H 928.79 -1.84878 -5.70912 0
M  V30 10110 H 929.86 -2.17515 -4.33377 0
M  V30 10111 N 931.203 1.46865 -0.571711 0
M  V30 10112 C 932.428 2.07323 -0.0564655 0
M  V30 10113 C 932.853 1.41938 1.23431 0
M  V30 10114 O 932.211 0.499334 1.74288 0
M  V30 10115 C 932.259 3.6044 0.107339 0
M  V30 10116 O 931.363 3.95558 1.1665 0
M  V30 10117 H 930.704 0.661475 -0.0578465 0
M  V30 10118 H 933.234 1.88669 -0.791524 0
M  V30 10119 H 933.244 4.06767 0.316987 0
M  V30 10120 H 931.919 4.07425 -0.835348 0
M  V30 10121 H 930.496 3.60957 0.936189 0
M  V30 10122 N 932.681 0.308908 1.54543 0
M  V30 10123 C 933.927 -0.298478 2.00592 0
M  V30 10124 C 934.26 -1.52929 1.19692 0
M  V30 10125 O 933.535 -1.9254 0.27542 0
M  V30 10126 C 933.818 -0.647218 3.54236 0
M  V30 10127 C 933.671 0.593284 4.4587 0
M  V30 10128 C 934.99 -1.47064 4.14801 0
M  V30 10129 H 932.109 -0.107012 0.72919 0
M  V30 10130 H 934.751 0.422578 1.85241 0
M  V30 10131 H 932.901 -1.26153 3.67447 0
M  V30 10132 H 934.573 1.2317 4.44552 0
M  V30 10133 H 932.816 1.22501 4.16144 0
M  V30 10134 H 933.487 0.305018 5.51157 0
M  V30 10135 H 935.963 -0.951511 4.05075 0
M  V30 10136 H 934.839 -1.68343 5.22448 0
M  V30 10137 H 935.1 -2.4623 3.67183 0
M  V30 10138 N 934.159 -1.57557 0.0367827 0
M  V30 10139 C 935.122 -2.09591 -0.927589 0
M  V30 10140 C 936.122 -1.01252 -1.24919 0
M  V30 10141 O 937.312 -1.27382 -1.18825 0
M  V30 10142 C 934.444 -2.56816 -2.24184 0
M  V30 10143 H 935.637 -2.96086 -0.476784 0
M  V30 10144 H 933.19 -1.54864 -0.211385 0
M  V30 10145 H 933.925 -1.73673 -2.73876 0
M  V30 10146 H 933.71 -3.35973 -2.0215 0
M  V30 10147 H 935.2 -2.97271 -2.93291 0
M  V30 10148 N 935.637 0.236453 -1.55816 0
M  V30 10149 C 936.885 0.96111 -1.77784 0
M  V30 10150 C 937.206 1.85454 -0.602648 0
M  V30 10151 O 936.476 1.92157 0.381137 0
M  V30 10152 H 935.056 0.35787 -0.655697 0
M  V30 10153 H 937.718 0.251888 -1.93265 0
M  V30 10154 H 936.814 1.5767 -2.69345 0
M  V30 10155 N 937.115 1.49373 0.502552 0
M  V30 10156 C 938.364 1.58028 1.25339 0
M  V30 10157 C 938.677 0.271494 1.93707 0
M  V30 10158 O 939.883 0.236584 2.70467 0
M  V30 10159 C 938.339 2.78817 2.27572 0
M  V30 10160 C 937.947 4.16448 1.65151 0
M  V30 10161 C 939.691 2.96802 3.03494 0
M  V30 10162 C 937.598 5.28461 2.65486 0
M  V30 10163 H 936.528 0.588396 0.471494 0
M  V30 10164 H 939.179 1.75756 0.52744 0
M  V30 10165 H 937.561 2.5458 3.03323 0
M  V30 10166 H 938.735 4.50816 0.954029 0
M  V30 10167 H 937.05 4.03809 1.01625 0
M  V30 10168 H 939.647 3.77656 3.78524 0
M  V30 10169 H 939.99 2.07303 3.61014 0
M  V30 10170 H 940.523 3.21071 2.34858 0
M  V30 10171 H 937.262 6.20015 2.12749 0
M  V30 10172 H 936.782 4.9855 3.33479 0
M  V30 10173 H 938.461 5.5773 3.27943 0
M  V30 10174 N 938.594 -0.753485 1.38421 0
M  V30 10175 C 939.504 -1.89797 1.37892 0
M  V30 10176 C 940.52 -1.71797 0.276023 0
M  V30 10177 O 941.696 -1.94718 0.514464 0
M  V30 10178 C 938.761 -3.25166 1.20284 0
M  V30 10179 C 937.822 -3.55691 2.4038 0
M  V30 10180 C 937.055 -4.84601 2.23602 0
M  V30 10181 O 937.278 -5.56985 1.22979 0
M  V30 10182 O 936.212 -5.14605 3.12194 0
M  V30 10183 H 940.038 -1.93197 2.34326 0
M  V30 10184 H 937.623 -0.898775 1.19342 0
M  V30 10185 H 939.505 -4.06099 1.12525 0
M  V30 10186 H 938.18 -3.22577 0.269352 0
M  V30 10187 H 937.087 -2.74919 2.53714 0
M  V30 10188 H 938.42 -3.6304 3.32359 0
M  V30 10189 N 940.072 -1.23292 -0.981677 0
M  V30 10190 C 941.321 -1.05832 -1.71705 0
M  V30 10191 C 941.634 0.40514 -1.91358 0
M  V30 10192 O 942.84 0.699645 -2.6233 0
M  V30 10193 C 941.296 -1.84532 -3.08992 0
M  V30 10194 C 940.904 -3.35199 -2.9723 0
M  V30 10195 C 942.648 -1.75557 -3.86497 0
M  V30 10196 C 940.555 -4.06296 -4.29741 0
M  V30 10197 H 939.485 -0.39241 -0.64384 0
M  V30 10198 H 942.136 -1.47247 -1.09502 0
M  V30 10199 H 940.518 -1.35923 -3.71942 0
M  V30 10200 H 941.692 -3.91286 -2.43377 0
M  V30 10201 H 940.007 -3.44973 -2.332 0
M  V30 10202 H 942.604 -2.25989 -4.84596 0
M  V30 10203 H 942.947 -0.718101 -4.1006 0
M  V30 10204 H 943.48 -2.21771 -3.30246 0
M  V30 10205 H 940.219 -5.10344 -4.11375 0
M  V30 10206 H 939.739 -3.54997 -4.83464 0
M  V30 10207 H 941.418 -4.12519 -4.98434 0
M  V30 10208 N 941.55 1.18024 -1.04442 0
M  V30 10209 C 942.46 2.25436 -0.649276 0
M  V30 10210 C 943.476 1.70915 0.326189 0
M  V30 10211 O 944.652 2.00592 0.180174 0
M  V30 10212 C 941.717 3.46693 -0.0222558 0
M  V30 10213 C 940.778 4.16332 -1.0472 0
M  V30 10214 C 940.011 5.31799 -0.450011 0
M  V30 10215 O 940.234 5.65544 0.742717 0
M  V30 10216 O 939.168 5.90209 -1.18056 0
M  V30 10217 H 942.994 2.61508 -1.54426 0
M  V30 10218 H 940.579 1.25178 -0.81552 0
M  V30 10219 H 942.461 4.20132 0.326597 0
M  V30 10220 H 941.136 3.12436 0.84649 0
M  V30 10221 H 940.043 3.44944 -1.44792 0
M  V30 10222 H 941.376 4.54598 -1.88684 0
M  V30 10223 N 943.028 0.824394 1.34319 0
M  V30 10224 C 944.256 0.426194 2.02463 0
M  V30 10225 C 944.671 -0.968298 1.62078 0
M  V30 10226 O 944.028 -1.62689 0.82696 0
M  V30 10227 C 944.079 0.520465 3.57734 0
M  V30 10228 O 943.8 1.86 3.96656 0
M  V30 10229 C 945.301 0.117353 4.43145 0
M  V30 10230 H 942.521 0.170864 0.648881 0
M  V30 10231 H 945.065 1.11296 1.71562 0
M  V30 10232 H 943.22 -0.118233 3.8722 0
M  V30 10233 H 943.634 1.83528 4.91343 0
M  V30 10234 H 945.108 0.234395 5.51502 0
M  V30 10235 H 945.585 -0.939271 4.29039 0
M  V30 10236 H 946.191 0.729908 4.1899 0
M  V30 10237 N 944.506 -1.46559 0.579492 0
M  V30 10238 C 945.783 -1.956 -0.00287136 0
M  V30 10239 C 946.163 -1.52215 -1.46266 0
M  V30 10240 O 945.511 -0.771335 -2.15088 0
M  V30 10241 C 945.721 -3.48606 0.165824 0
M  V30 10242 C 947.069 -4.24588 0.0319807 0
M  V30 10243 O 948.093 -3.56075 0.094496 0
M  V30 10244 O 946.952 -5.46396 -0.106386 0
M  V30 10245 H 944.046 -0.825387 -0.0516274 0
M  V30 10246 H 946.592 -1.56858 0.647584 0
M  V30 10247 H 945.364 -3.7306 1.18076 0
M  V30 10248 H 944.987 -3.94169 -0.521212 0
M  V30 10249 N 945.984 -0.3171 -1.54377 0
M  V30 10250 C 946.931 0.551782 -2.24107 0
M  V30 10251 C 947.901 1.11681 -1.22949 0
M  V30 10252 O 949.086 1.15836 -1.51614 0
M  V30 10253 C 946.226 1.70997 -2.99756 0
M  V30 10254 C 945.339 1.17479 -4.15719 0
M  V30 10255 C 944.474 2.29815 -4.78914 0
M  V30 10256 C 943.513 1.73513 -5.86992 0
M  V30 10257 N 942.65 2.79485 -6.44075 0
M  V30 10258 H 947.49 -0.049431 -2.97959 0
M  V30 10259 H 945.027 -0.0361658 -1.47056 0
M  V30 10260 H 946.985 2.39141 -3.41859 0
M  V30 10261 H 945.615 2.28257 -2.28251 0
M  V30 10262 H 944.667 0.385109 -3.78446 0
M  V30 10263 H 945.979 0.72276 -4.93536 0
M  V30 10264 H 945.133 3.05875 -5.23952 0
M  V30 10265 H 943.872 2.78352 -4.00464 0
M  V30 10266 H 942.877 0.959475 -5.41363 0
M  V30 10267 H 944.102 1.2586 -6.67335 0
M  V30 10268 H 942.048 3.27325 -5.68502 0
M  V30 10269 H 941.965 2.38825 -7.17286 0
M  V30 10270 H 943.233 3.55394 -6.93769 0
M  V30 10271 N 947.462 1.57535 -0.0451378 0
M  V30 10272 C 948.873 1.80116 0.491426 0
M  V30 10273 C 949.224 0.956846 1.71286 0
M  V30 10274 O 948.349 0.17173 2.15718 0
M  V30 10275 C 948.944 3.26674 0.898315 0
M  V30 10276 C 947.503 3.50194 1.37989 0
M  V30 10277 C 946.65 2.75054 0.352202 0
M  V30 10278 H 949.601 1.56368 -0.271065 0
M  V30 10279 H 949.622 3.37263 1.76164 0
M  V30 10280 H 949.134 3.88099 0.009141 0
M  V30 10281 H 947.235 2.94041 2.28846 0
M  V30 10282 H 947.348 4.58909 1.37622 0
M  V30 10283 H 945.712 2.4101 0.823784 0
M  V30 10284 H 946.495 3.39203 -0.528782 0
M  V30 10285 N 948.94 -0.228186 1.55939 0
M  V30 10286 C 950.18 -0.960695 1.80416 0
M  V30 10287 C 950.544 -1.81795 0.617615 0
M  V30 10288 O 951.745 -2.58369 0.741545 0
M  V30 10289 C 950.016 -1.78298 3.09749 0
M  V30 10290 S 951.575 -2.57203 3.55517 0
M  V30 10291 H 948.393 -0.322825 0.633486 0
M  V30 10292 H 950.995 -0.226852 1.94179 0
M  V30 10293 H 949.699 -1.14323 3.94155 0
M  V30 10294 H 949.23 -2.55924 2.98775 0
M  V30 10295 H 951.245 -3.80632 3.1833 0
M  V30 10296 N 950.418 -1.49637 -0.494624 0
M  V30 10297 C 951.381 -1.66252 -1.57775 0
M  V30 10298 C 952.381 -0.534054 -1.51672 0
M  V30 10299 O 953.571 -0.800637 -1.54711 0
M  V30 10300 C 950.703 -1.66584 -2.97426 0
M  V30 10301 H 951.896 -2.62864 -1.4437 0
M  V30 10302 H 949.449 -1.38764 -0.719323 0
M  V30 10303 H 950.184 -0.715798 -3.16302 0
M  V30 10304 H 949.969 -2.48543 -3.03264 0
M  V30 10305 H 951.459 -1.81474 -3.76108 0
M  V30 10306 N 951.896 0.746133 -1.38819 0
M  V30 10307 C 953.142 1.50768 -1.35635 0
M  V30 10308 C 953.475 1.94132 0.0512435 0
M  V30 10309 O 952.75 1.65979 1.01396 0
M  V30 10310 C 953.033 2.7551 -2.31875 0
M  V30 10311 C 952.886 2.38236 -3.81528 0
M  V30 10312 C 954.205 3.77566 -2.26124 0
M  V30 10313 H 951.324 0.546922 -0.494009 0
M  V30 10314 H 953.966 0.854017 -1.69725 0
M  V30 10315 H 952.116 3.31285 -2.02935 0
M  V30 10316 H 953.788 1.88178 -4.21173 0
M  V30 10317 H 952.031 1.70601 -3.98846 0
M  V30 10318 H 952.702 3.27517 -4.44339 0
M  V30 10319 H 955.178 3.31349 -2.51689 0
M  V30 10320 H 954.054 4.62531 -2.95561 0
M  V30 10321 H 954.315 4.23689 -1.26254 0
M  V30 10322 N 953.375 1.23811 0.975125 0
M  V30 10323 C 954.305 1.04846 2.08638 0
M  V30 10324 C 955.286 -0.0362859 1.70061 0
M  V30 10325 O 956.471 0.12937 1.93769 0
M  V30 10326 C 953.601 0.644534 3.41267 0
M  V30 10327 C 952.555 1.67722 3.93768 0
M  V30 10328 C 951.881 1.12857 5.22654 0
M  V30 10329 C 953.181 3.07147 4.22443 0
M  V30 10330 H 954.875 1.97795 2.24761 0
M  V30 10331 H 952.421 0.952397 1.08006 0
M  V30 10332 H 954.374 0.498887 4.18436 0
M  V30 10333 H 953.098 -0.320641 3.25022 0
M  V30 10334 H 951.757 1.81095 3.18748 0
M  V30 10335 H 951.405 0.154227 5.02764 0
M  V30 10336 H 951.105 1.81862 5.58749 0
M  V30 10337 H 952.629 0.994891 6.0244 0
M  V30 10338 H 954.043 2.97045 4.90344 0
M  V30 10339 H 952.44 3.73437 4.6975 0
M  V30 10340 H 953.51 3.55743 3.29507 0
M  V30 10341 N 954.853 -1.17469 1.05066 0
M  V30 10342 C 956.102 -1.87032 0.755114 0
M  V30 10343 C 956.415 -1.81844 -0.720572 0
M  V30 10344 O 957.621 -2.46866 -1.13002 0
M  V30 10345 C 956.077 -3.35581 1.30052 0
M  V30 10346 C 955.685 -3.49274 2.80556 0
M  V30 10347 C 957.429 -4.1048 1.08196 0
M  V30 10348 C 955.336 -4.91838 3.28404 0
M  V30 10349 H 954.266 -0.70057 0.278779 0
M  V30 10350 H 956.917 -1.32663 1.26779 0
M  V30 10351 H 955.299 -3.89479 0.715667 0
M  V30 10352 H 956.473 -3.05598 3.44886 0
M  V30 10353 H 954.788 -2.87793 3.00939 0
M  V30 10354 H 957.385 -5.15652 1.41447 0
M  V30 10355 H 957.728 -4.16295 0.0196603 0
M  V30 10356 H 958.261 -3.62784 1.63195 0
M  V30 10357 H 955 -4.91196 4.34058 0
M  V30 10358 H 954.52 -5.36189 2.68815 0
M  V30 10359 H 956.199 -5.60602 3.23009 0
M  V30 10360 N 956.331 -0.831506 -1.3388 0
M  V30 10361 C 957.278 -0.257449 -2.2936 0
M  V30 10362 C 958.248 0.622604 -1.5399 0
M  V30 10363 O 959.433 0.562432 -1.82322 0
M  V30 10364 C 956.573 0.567587 -3.404 0
M  V30 10365 C 955.686 -0.335666 -4.30694 0
M  V30 10366 C 954.821 0.499762 -5.28844 0
M  V30 10367 C 953.86 -0.402343 -6.10776 0
M  V30 10368 N 952.997 0.39452 -7.00991 0
M  V30 10369 H 957.837 -1.077 -2.77857 0
M  V30 10370 H 955.374 -0.542589 -1.36727 0
M  V30 10371 H 957.332 1.06133 -4.03474 0
M  V30 10372 H 955.962 1.35217 -2.93115 0
M  V30 10373 H 955.014 -0.94768 -3.68406 0
M  V30 10374 H 956.326 -1.02896 -4.88072 0
M  V30 10375 H 955.48 1.05763 -5.9741 0
M  V30 10376 H 954.219 1.22652 -4.72025 0
M  V30 10377 H 953.224 -0.972288 -5.41135 0
M  V30 10378 H 954.449 -1.12735 -6.69677 0
M  V30 10379 H 952.395 1.1048 -6.4663 0
M  V30 10380 H 952.312 -0.240209 -7.55618 0
M  V30 10381 H 953.58 0.934867 -7.73874 0
M  V30 10382 N 957.809 1.4625 -0.587256 0
M  V30 10383 C 958.759 2.27407 0.164393 0
M  V30 10384 C 959.743 1.36138 0.857628 0
M  V30 10385 O 960.935 1.60279 0.750973 0
M  V30 10386 C 958.064 3.22585 1.17447 0
M  V30 10387 C 957.15 4.21339 0.483121 0
M  V30 10388 N 957.541 5.03669 -0.46385 0
M  V30 10389 C 955.839 4.39931 0.73329 0
M  V30 10390 C 956.54 5.75182 -0.868334 0
M  V30 10391 N 955.516 5.43169 -0.216487 0
M  V30 10392 H 959.318 2.88453 -0.563237 0
M  V30 10393 H 956.832 1.57155 -0.409388 0
M  V30 10394 H 958.829 3.79439 1.72718 0
M  V30 10395 H 957.489 2.63098 1.90288 0
M  V30 10396 H 958.5 5.11049 -0.839602 0
M  V30 10397 H 955.177 3.91588 1.44792 0
M  V30 10398 H 956.567 6.51371 -1.64821 0
M  V30 10399 N 959.287 0.325282 1.54207 0
M  V30 10400 C 960.536 -0.27768 1.99779 0
M  V30 10401 C 960.849 -1.5311 1.21723 0
M  V30 10402 O 962.055 -2.21017 1.57682 0
M  V30 10403 C 960.511 -0.545329 3.55745 0
M  V30 10404 C 960.119 0.691143 4.42637 0
M  V30 10405 C 961.863 -1.10815 4.09781 0
M  V30 10406 C 959.77 0.395302 5.90077 0
M  V30 10407 H 958.7 -0.107536 0.746292 0
M  V30 10408 H 961.351 0.437773 1.78202 0
M  V30 10409 H 959.733 -1.32101 3.73317 0
M  V30 10410 H 960.907 1.46653 4.3684 0
M  V30 10411 H 959.222 1.1743 3.99499 0
M  V30 10412 H 961.819 -1.34414 5.1753 0
M  V30 10413 H 962.162 -2.05806 3.6187 0
M  V30 10414 H 962.695 -0.393608 3.95848 0
M  V30 10415 H 959.434 1.31443 6.42186 0
M  V30 10416 H 958.954 -0.34235 5.98822 0
M  V30 10417 H 960.633 0.00576877 6.47 0
M  V30 10418 N 960.765 -1.57509 0.0534917 0
M  V30 10419 C 961.713 -2.12851 -0.937931 0
M  V30 10420 C 962.707 -1.06088 -1.32067 0
M  V30 10421 O 963.913 -1.24494 -1.30005 0
M  V30 10422 H 960.288 -0.680357 -0.320342 0
M  V30 10423 H 962.259 -2.95047 -0.446077 0
M  V30 10424 C 961.008 -2.69034 -2.20264 0
M  V30 10425 H 960.331 -3.50848 -1.91693 0
M  V30 10426 H 961.771 -3.11375 -2.87788 0
M  V30 10427 C 960.23 -1.62919 -2.94888 0
M  V30 10428 O 960.76 -1.04334 -3.87914 0
M  V30 10429 N 958.966 -1.34385 -2.57661 0
M  V30 10430 H 958.513 -1.82214 -1.82088 0
M  V30 10431 H 958.471 -0.636149 -3.07897 0
M  V30 10432 N 962.243 0.219913 -1.56058 0
M  V30 10433 C 963.491 0.942199 -1.78793 0
M  V30 10434 C 963.812 1.84804 -0.622284 0
M  V30 10435 O 963.082 1.9255 0.360735 0
M  V30 10436 H 961.662 0.350895 -0.659455 0
M  V30 10437 H 964.324 0.231376 -1.93522 0
M  V30 10438 H 963.42 1.54804 -2.71002 0
M  V30 10439 N 963.721 1.49897 0.486681 0
M  V30 10440 C 964.668 1.67619 1.58658 0
M  V30 10441 C 965.638 0.517537 1.57831 0
M  V30 10442 O 966.823 0.746272 1.756 0
M  V30 10443 C 963.963 1.762 2.96728 0
M  V30 10444 C 963.076 3.03465 3.07462 0
M  V30 10445 C 962.211 3.02937 4.36351 0
M  V30 10446 C 961.25 4.24721 4.4077 0
M  V30 10447 N 960.387 4.22021 5.61108 0
M  V30 10448 H 965.227 2.61528 1.42853 0
M  V30 10449 H 962.764 1.29657 0.694807 0
M  V30 10450 H 964.722 1.79156 3.76774 0
M  V30 10451 H 963.352 0.857452 3.11203 0
M  V30 10452 H 962.404 3.10054 2.20387 0
M  V30 10453 H 963.716 3.93454 3.06586 0
M  V30 10454 H 962.87 3.04536 5.24731 0
M  V30 10455 H 961.609 2.10751 4.39813 0
M  V30 10456 H 960.614 4.23352 3.5079 0
M  V30 10457 H 961.839 5.18116 4.39013 0
M  V30 10458 H 959.785 3.3268 5.65385 0
M  V30 10459 H 959.702 5.05761 5.61909 0
M  V30 10460 H 960.97 4.27743 6.51656 0
M  V30 10461 N 965.199 -0.738761 1.39212 0
M  V30 10462 C 966.131 -1.86286 1.3353 0
M  V30 10463 C 967.144 -1.6095 0.244755 0
M  V30 10464 O 968.333 -1.71254 0.50343 0
M  V30 10465 C 965.433 -3.22234 1.04969 0
M  V30 10466 C 964.606 -3.74956 2.25226 0
M  V30 10467 C 963.665 -4.89457 1.9318 0
M  V30 10468 O 962.691 -5.03314 2.65826 0
M  V30 10469 N 963.893 -5.73548 0.895679 0
M  V30 10470 H 966.658 -1.91666 2.304 0
M  V30 10471 H 964.219 -0.919338 1.33266 0
M  V30 10472 H 966.211 -3.96397 0.815566 0
M  V30 10473 H 964.781 -3.12146 0.168451 0
M  V30 10474 H 964.001 -2.92188 2.64612 0
M  V30 10475 H 965.289 -4.06914 3.05448 0
M  V30 10476 H 964.687 -5.64938 0.293541 0
M  V30 10477 H 963.244 -6.47795 0.721451 0
M  V30 10478 N 966.677 -1.24326 -0.968545 0
M  V30 10479 C 967.923 -1.08406 -1.71394 0
M  V30 10480 C 968.256 0.376353 -1.90518 0
M  V30 10481 O 967.531 1.27816 -1.46606 0
M  V30 10482 C 967.814 -1.82344 -3.1052 0
M  V30 10483 C 967.667 -3.3613 -2.98893 0
M  V30 10484 C 968.986 -1.59545 -4.10163 0
M  V30 10485 H 966.105 -0.395205 -0.622079 0
M  V30 10486 H 968.747 -1.52983 -1.12677 0
M  V30 10487 H 966.897 -1.44452 -3.60646 0
M  V30 10488 H 968.569 -3.83614 -2.56199 0
M  V30 10489 H 966.812 -3.64553 -2.35124 0
M  V30 10490 H 967.483 -3.83064 -3.97449 0
M  V30 10491 H 969.959 -1.92504 -3.68892 0
M  V30 10492 H 968.835 -2.13736 -5.05577 0
M  V30 10493 H 969.096 -0.533503 -4.38869 0
M  V30 10494 N 968.156 1.1691 -1.05688 0
M  V30 10495 C 969.405 1.86629 -0.765022 0
M  V30 10496 C 969.718 1.82223 0.710918 0
M  V30 10497 O 970.924 2.47462 1.11691 0
M  V30 10498 C 969.38 3.34886 -1.3183 0
M  V30 10499 C 968.988 3.47781 -2.82404 0
M  V30 10500 C 970.732 4.099 -1.10372 0
M  V30 10501 C 968.639 4.9009 -3.31008 0
M  V30 10502 H 967.569 0.699082 -0.282491 0
M  V30 10503 H 970.22 1.31989 -1.27481 0
M  V30 10504 H 968.602 3.89094 -0.736312 0
M  V30 10505 H 969.776 3.03765 -3.46502 0
M  V30 10506 H 968.091 2.86193 -3.02461 0
M  V30 10507 H 970.688 5.14894 -1.4418 0
M  V30 10508 H 971.031 4.16279 -0.0417372 0
M  V30 10509 H 971.564 3.61913 -1.65117 0
M  V30 10510 H 968.303 4.88887 -4.36657 0
M  V30 10511 H 967.823 5.34756 -2.71655 0
M  V30 10512 H 969.502 5.58881 -3.25977 0
M  V30 10513 N 969.634 0.838594 1.33437 0
M  V30 10514 C 970.88 0.444042 1.98494 0
M  V30 10515 C 971.235 -0.985759 1.65229 0
M  V30 10516 O 970.528 -1.67972 0.921736 0
M  V30 10517 C 970.722 0.601425 3.52303 0
M  V30 10518 C 970.551 2.04497 4.00513 0
M  V30 10519 C 969.321 2.68015 4.28364 0
M  V30 10520 C 971.519 3.01367 4.16752 0
M  V30 10521 N 969.501 4.03448 4.62713 0
M  V30 10522 C 970.872 4.21745 4.54457 0
M  V30 10523 C 972.927 2.97776 3.99041 0
M  V30 10524 C 971.63 5.39009 4.76301 0
M  V30 10525 C 973.656 4.14269 4.22061 0
M  V30 10526 C 973.018 5.33402 4.60067 0
M  V30 10527 H 969.117 0.210906 0.753022 0
M  V30 10528 H 971.701 1.0866 1.61558 0
M  V30 10529 H 969.872 -0.0113326 3.88398 0
M  V30 10530 H 971.604 0.178343 4.04307 0
M  V30 10531 H 968.359 2.19153 4.19844 0
M  V30 10532 H 968.783 4.73264 4.84098 0
M  V30 10533 H 973.425 2.06801 3.68773 0
M  V30 10534 H 971.143 6.30529 5.0543 0
M  V30 10535 H 974.729 4.12908 4.09876 0
M  V30 10536 H 973.609 6.22045 4.77525 0
M  V30 10537 N 971.112 -1.45937 0.595003 0
M  V30 10538 C 972.075 -2.2888 -0.121102 0
M  V30 10539 C 973.075 -1.39075 -0.807149 0
M  V30 10540 O 974.265 -1.61326 -0.657228 0
M  V30 10541 C 971.397 -3.19778 -1.1813 0
M  V30 10542 H 972.59 -2.93673 0.607968 0
M  V30 10543 H 970.143 -1.5225 0.353495 0
M  V30 10544 H 970.878 -2.59759 -1.94154 0
M  V30 10545 H 970.663 -3.85914 -0.693724 0
M  V30 10546 H 972.153 -3.82176 -1.68319 0
M  V30 10547 N 972.59 -0.333456 -1.54032 0
M  V30 10548 C 973.553 0.515392 -2.2333 0
M  V30 10549 C 974.553 1.03566 -1.23007 0
M  V30 10550 O 975.743 0.926514 -1.47517 0
M  V30 10551 C 972.875 1.7169 -2.94508 0
M  V30 10552 H 974.068 -0.0905407 -2.99763 0
M  V30 10553 H 971.621 -0.0846651 -1.56071 0
M  V30 10554 H 972.356 2.3618 -2.22237 0
M  V30 10555 H 972.141 1.35115 -3.68085 0
M  V30 10556 H 973.631 2.31922 -3.47278 0
M  V30 10557 N 974.068 1.57479 -0.061844 0
M  V30 10558 C 975.345 1.84484 0.649993 0
M  V30 10559 C 975.725 0.952366 1.88396 0
M  V30 10560 O 975.073 0.0161035 2.28494 0
M  V30 10561 C 975.283 3.34452 0.997133 0
M  V30 10562 C 976.631 4.01724 1.37488 0
M  V30 10563 O 977.655 3.3914 1.08916 0
M  V30 10564 O 976.514 5.12091 1.90854 0
M  V30 10565 H 973.608 0.761798 0.321858 0
M  V30 10566 H 976.154 1.6945 -0.0920192 0
M  V30 10567 H 974.926 3.91115 0.120301 0
M  V30 10568 H 974.549 3.54713 1.79624 0
M  V30 10569 N 975.546 -0.211634 1.56173 0
M  V30 10570 C 976.957 -0.777776 1.69728 0
M  V30 10571 C 977.308 -1.84566 0.66558 0
M  V30 10572 O 976.433 -2.15639 -0.181338 0
M  V30 10573 C 977.028 -1.41757 3.07718 0
M  V30 10574 C 975.587 -1.93098 3.23094 0
M  V30 10575 C 974.734 -0.794785 2.65666 0
M  V30 10576 H 977.685 0.0131839 1.58695 0
M  V30 10577 H 977.706 -2.28662 3.04128 0
M  V30 10578 H 977.218 -0.640114 3.82785 0
M  V30 10579 H 975.319 -2.73615 2.52914 0
M  V30 10580 H 975.432 -2.10414 4.30422 0
M  V30 10581 H 973.796 -1.20473 2.24407 0
M  V30 10582 H 974.579 -0.0298408 3.43287 0
M  V30 10583 N 977.024 -1.50153 -0.478725 0
M  V30 10584 C 977.954 -1.71384 -1.58587 0
M  V30 10585 C 978.935 -0.562705 -1.60523 0
M  V30 10586 O 980.12 -0.80101 -1.76911 0
M  V30 10587 C 977.25 -1.80094 -2.96957 0
M  V30 10588 C 976.204 -2.95218 -3.09888 0
M  V30 10589 C 975.53 -2.89063 -4.49829 0
M  V30 10590 C 976.83 -4.35841 -2.8782 0
M  V30 10591 H 978.524 -2.64081 -1.41073 0
M  V30 10592 H 976.07 -1.27081 -0.677239 0
M  V30 10593 H 978.023 -1.93531 -3.74331 0
M  V30 10594 H 976.747 -0.840131 -3.1561 0
M  V30 10595 H 975.406 -2.81419 -2.34944 0
M  V30 10596 H 975.054 -1.90844 -4.6539 0
M  V30 10597 H 974.754 -3.66345 -4.59418 0
M  V30 10598 H 976.278 -3.04539 -5.29234 0
M  V30 10599 H 977.692 -4.50205 -3.54948 0
M  V30 10600 H 976.089 -5.14515 -3.0886 0
M  V30 10601 H 977.159 -4.48739 -1.83742 0
M  V30 10602 N 978.502 0.731368 -1.39602 0
M  V30 10603 C 979.434 1.85575 -1.34516 0
M  V30 10604 C 980.447 1.60818 -0.253287 0
M  V30 10605 O 981.636 1.70984 -0.512505 0
M  V30 10606 C 978.736 3.21673 -1.06676 0
M  V30 10607 C 977.909 3.73757 -2.27211 0
M  V30 10608 C 976.968 4.88426 -1.95773 0
M  V30 10609 O 975.994 5.01898 -2.68491 0
M  V30 10610 N 977.196 5.73065 -0.926083 0
M  V30 10611 H 979.961 1.90442 -2.31413 0
M  V30 10612 H 977.522 0.912258 -1.33752 0
M  V30 10613 H 979.514 3.95959 -0.836577 0
M  V30 10614 H 978.084 3.12052 -0.185003 0
M  V30 10615 H 977.304 2.90781 -2.66158 0
M  V30 10616 H 978.592 4.05289 -3.07601 0
M  V30 10617 H 977.99 5.64774 -0.323497 0
M  V30 10618 H 976.547 6.47403 -0.755795 0
M  V30 10619 N 979.98 1.24838 0.961938 0
M  V30 10620 C 980.927 1.04582 2.05745 0
M  V30 10621 C 981.897 -0.0427281 1.66045 0
M  V30 10622 O 983.082 0.113026 1.90465 0
M  V30 10623 C 980.222 0.66284 3.38675 0
M  V30 10624 C 979.335 1.82548 3.91536 0
M  V30 10625 C 978.47 1.38753 5.12758 0
M  V30 10626 C 977.509 2.51976 5.5783 0
M  V30 10627 N 976.646 2.09009 6.70268 0
M  V30 10628 H 981.486 1.98343 2.22405 0
M  V30 10629 H 979.023 0.987822 1.08998 0
M  V30 10630 H 980.981 0.421788 4.15062 0
M  V30 10631 H 979.611 -0.237776 3.21923 0
M  V30 10632 H 978.663 2.18004 3.11735 0
M  V30 10633 H 979.975 2.67601 4.20941 0
M  V30 10634 H 979.129 1.1057 5.96539 0
M  V30 10635 H 977.868 0.507618 4.85051 0
M  V30 10636 H 976.873 2.80912 4.72619 0
M  V30 10637 H 978.098 3.40534 5.87549 0
M  V30 10638 H 976.044 1.23423 6.44285 0
M  V30 10639 H 975.961 2.87613 6.99153 0
M  V30 10640 H 977.229 1.83981 7.57477 0
M  V30 10641 N 981.458 -1.16348 1.06306 0
M  V30 10642 C 982.368 -2.24375 0.685059 0
M  V30 10643 C 983.384 -1.71413 -0.298956 0
M  V30 10644 O 984.56 -2.00854 -0.148239 0
M  V30 10645 C 981.625 -3.46614 0.0774088 0
M  V30 10646 C 980.686 -4.14613 1.11331 0
M  V30 10647 C 979.919 -5.31016 0.534559 0
M  V30 10648 O 980.142 -5.66654 -0.65265 0
M  V30 10649 O 979.076 -5.88256 1.27431 0
M  V30 10650 H 982.902 -2.59018 1.58566 0
M  V30 10651 H 980.487 -1.23865 0.835332 0
M  V30 10652 H 982.369 -4.20599 -0.259716 0
M  V30 10653 H 981.044 -3.13743 -0.796677 0
M  V30 10654 H 979.951 -3.42597 1.50261 0
M  V30 10655 H 981.284 -4.51538 1.95893 0
M  V30 10656 N 982.937 -0.845659 -1.3299 0
M  V30 10657 C 983.884 -0.281761 -2.29074 0
M  V30 10658 C 984.854 0.606237 -1.54641 0
M  V30 10659 O 986.039 0.543063 -1.82908 0
M  V30 10660 C 983.179 0.531451 -3.40983 0
M  V30 10661 C 982.292 -0.381328 -4.30314 0
M  V30 10662 C 981.427 0.443643 -5.29344 0
M  V30 10663 C 980.466 -0.467101 -6.10315 0
M  V30 10664 N 979.603 0.320148 -7.0137 0
M  V30 10665 H 984.443 -1.10641 -2.76699 0
M  V30 10666 H 981.98 -0.55706 -1.36144 0
M  V30 10667 H 983.938 1.01848 -4.04577 0
M  V30 10668 H 982.568 1.32101 -2.94532 0
M  V30 10669 H 981.62 -0.986701 -3.6738 0
M  V30 10670 H 982.932 -1.08067 -4.86953 0
M  V30 10671 H 982.086 0.994212 -5.98498 0
M  V30 10672 H 980.825 1.17639 -4.73299 0
M  V30 10673 H 979.83 -1.02963 -5.40073 0
M  V30 10674 H 981.055 -1.19832 -6.68444 0
M  V30 10675 H 979.001 1.03615 -6.47765 0
M  V30 10676 H 978.918 -0.320338 -7.55321 0
M  V30 10677 H 980.186 0.852735 -7.74822 0
M  V30 10678 N 984.415 1.45619 -0.602734 0
M  V30 10679 C 985.643 2.06647 -0.102253 0
M  V30 10680 C 986.058 1.4482 1.21131 0
M  V30 10681 O 985.415 0.560621 1.73676 0
M  V30 10682 C 985.466 3.61467 0.0490113 0
M  V30 10683 O 985.187 4.20985 -1.21257 0
M  V30 10684 C 986.688 4.39469 0.581517 0
M  V30 10685 H 983.908 0.667685 -0.0666155 0
M  V30 10686 H 986.452 1.86939 -0.829091 0
M  V30 10687 H 984.607 3.80534 0.726153 0
M  V30 10688 H 985.021 5.14103 -1.03915 0
M  V30 10689 H 986.495 5.48318 0.636462 0
M  V30 10690 H 986.972 4.0891 1.60277 0
M  V30 10691 H 987.578 4.25256 -0.061419 0
M  V30 10692 N 985.893 0.34162 1.53853 0
M  V30 10693 C 986.856 -0.503541 2.236 0
M  V30 10694 C 987.856 -1.02912 1.23554 0
M  V30 10695 O 989.046 -0.918678 1.48007 0
M  V30 10696 C 986.178 -1.70126 2.95415 0
M  V30 10697 H 987.371 0.106437 2.99711 0
M  V30 10698 H 984.924 0.0929408 1.56023 0
M  V30 10699 H 985.659 -2.34999 2.23486 0
M  V30 10700 H 985.444 -1.33161 3.68796 0
M  V30 10701 H 986.934 -2.30077 3.48503 0
M  V30 10702 N 987.371 -1.57444 0.0701946 0
M  V30 10703 C 988.617 -1.93716 -0.600178 0
M  V30 10704 C 988.95 -0.950329 -1.69359 0
M  V30 10705 O 988.225 0.0207123 -1.94489 0
M  V30 10706 C 988.508 -3.40266 -1.17861 0
M  V30 10707 C 988.361 -4.49706 -0.0919575 0
M  V30 10708 C 989.68 -3.87599 -2.08459 0
M  V30 10709 H 986.799 -0.704421 -0.216704 0
M  V30 10710 H 989.441 -1.89514 0.135838 0
M  V30 10711 H 987.591 -3.43977 -1.80587 0
M  V30 10712 H 989.263 -4.58116 0.541031 0
M  V30 10713 H 987.506 -4.29937 0.577639 0
M  V30 10714 H 988.177 -5.49381 -0.537048 0
M  V30 10715 H 990.653 -3.85883 -1.5567 0
M  V30 10716 H 989.529 -4.90755 -2.45867 0
M  V30 10717 H 989.79 -3.25448 -2.99226 0
M  V30 10718 N 988.849 0.203349 -1.56283 0
M  V30 10719 C 989.779 1.2549 -1.96912 0
M  V30 10720 C 990.76 1.47919 -0.839884 0
M  V30 10721 O 991.945 1.59795 -1.10359 0
M  V30 10722 C 989.075 2.6009 -2.30153 0
M  V30 10723 C 988.029 2.52289 -3.45738 0
M  V30 10724 C 987.355 3.91086 -3.64632 0
M  V30 10725 C 988.655 2.05503 -4.80173 0
M  V30 10726 H 990.349 0.917306 -2.85002 0
M  V30 10727 H 987.895 0.439818 -1.37119 0
M  V30 10728 H 989.848 3.33829 -2.5717 0
M  V30 10729 H 988.572 2.95574 -1.38937 0
M  V30 10730 H 987.231 1.81006 -3.18798 0
M  V30 10731 H 986.879 4.23908 -2.7076 0
M  V30 10732 H 986.579 3.86742 -4.42385 0
M  V30 10733 H 988.103 4.66459 -3.94016 0
M  V30 10734 H 989.517 2.68995 -5.06275 0
M  V30 10735 H 987.914 2.1218 -5.61337 0
M  V30 10736 H 988.984 1.00793 -4.74309 0
M  V30 10737 N 990.327 1.50405 0.470755 0
M  V30 10738 C 991.552 1.65442 1.25075 0
M  V30 10739 C 991.977 0.337612 1.85045 0
M  V30 10740 O 991.335 -0.698555 1.67302 0
M  V30 10741 C 991.383 2.74793 2.33498 0
M  V30 10742 O 990.487 2.36069 3.3815 0
M  V30 10743 H 989.828 0.552728 0.367951 0
M  V30 10744 H 992.358 1.96782 0.560177 0
M  V30 10745 H 992.368 2.97879 2.78804 0
M  V30 10746 H 991.043 3.70363 1.8922 0
M  V30 10747 H 989.62 2.2343 2.98552 0
M  V30 10748 N 991.805 -0.723954 1.39988 0
M  V30 10749 C 993.054 -1.47922 1.3712 0
M  V30 10750 C 993.367 -1.95582 -0.0263665 0
M  V30 10751 O 994.573 -2.70918 -0.177652 0
M  V30 10752 C 993.029 -2.67342 2.40949 0
M  V30 10753 C 992.637 -2.26586 3.86475 0
M  V30 10754 C 994.381 -3.45116 2.47174 0
M  V30 10755 C 992.288 -3.42794 4.81919 0
M  V30 10756 H 991.218 -0.555522 0.509815 0
M  V30 10757 H 993.869 -0.788692 1.65686 0
M  V30 10758 H 992.251 -3.38524 2.0547 0
M  V30 10759 H 993.425 -1.62878 4.31054 0
M  V30 10760 H 991.74 -1.61876 3.83647 0
M  V30 10761 H 994.337 -4.31573 3.15672 0
M  V30 10762 H 994.68 -3.8835 1.49966 0
M  V30 10763 H 995.213 -2.80971 2.81602 0
M  V30 10764 H 991.952 -3.046 5.8043 0
M  V30 10765 H 991.472 -4.05445 4.42012 0
M  V30 10766 H 993.151 -4.08977 5.01345 0
M  V30 10767 N 993.283 -1.25346 -0.955304 0
M  V30 10768 C 994.699 -1.02154 -1.22625 0
M  V30 10769 C 994.899 0.26206 -1.99789 0
M  V30 10770 O 993.955 0.974958 -2.32918 0
M  V30 10771 C 995.268 -2.2443 -2.00129 0
M  V30 10772 C 996.816 -2.29185 -2.13174 0
M  V30 10773 C 997.291 -3.51117 -2.94077 0
M  V30 10774 N 998.782 -3.51509 -3.01655 0
M  V30 10775 C 999.517 -4.42517 -3.64645 0
M  V30 10776 N 999.013 -5.43796 -4.29252 0
M  V30 10777 N 1000.81 -4.302 -3.61779 0
M  V30 10778 H 992.957 -2.07812 -0.439071 0
M  V30 10779 H 995.22 -0.91258 -0.256715 0
M  V30 10780 H 994.926 -3.17717 -1.50827 0
M  V30 10781 H 994.8 -2.27548 -3.00835 0
M  V30 10782 H 997.187 -1.36422 -2.61674 0
M  V30 10783 H 997.268 -2.30087 -1.11775 0
M  V30 10784 H 996.912 -4.44201 -2.46268 0
M  V30 10785 H 996.842 -3.4746 -3.95701 0
M  V30 10786 H 999.333 -2.78245 -2.55711 0
M  V30 10787 H 999.646 -6.09453 -4.75171 0
M  V30 10788 H 997.991 -5.4767 -4.27882 0
M  V30 10789 H 1001.18 -3.50304 -3.10491 0
M  V30 10790 H 1001.36 -5.01323 -4.10584 0
M  V30 10791 N 994.761 1.15782 -1.06922 0
M  V30 10792 C 996.038 1.8253 -0.703 0
M  V30 10793 C 996.418 1.94733 0.814994 0
M  V30 10794 O 995.766 1.49537 1.72774 0
M  V30 10795 C 995.976 3.19145 -1.41234 0
M  V30 10796 C 997.324 3.94839 -1.56164 0
M  V30 10797 O 998.348 3.28685 -1.37277 0
M  V30 10798 O 997.207 5.13436 -1.87205 0
M  V30 10799 H 994.301 0.788425 -0.24963 0
M  V30 10800 H 996.847 1.22931 -1.16988 0
M  V30 10801 H 995.619 3.05336 -2.44715 0
M  V30 10802 H 995.242 3.86427 -0.935959 0
M  V30 10803 N 996.239 0.8527 1.3254 0
M  V30 10804 C 997.169 0.311234 2.31416 0
M  V30 10805 C 998.15 -0.588557 1.59593 0
M  V30 10806 O 999.335 -0.509211 1.87405 0
M  V30 10807 C 996.465 -0.502892 3.4364 0
M  V30 10808 C 995.419 0.302296 4.26931 0
M  V30 10809 C 994.745 -0.636445 5.30899 0
M  V30 10810 C 996.045 1.52697 4.99481 0
M  V30 10811 H 997.739 1.13742 2.76953 0
M  V30 10812 H 995.285 0.548389 1.33149 0
M  V30 10813 H 997.238 -0.892092 4.11849 0
M  V30 10814 H 995.962 -1.36242 2.96826 0
M  V30 10815 H 994.621 0.673226 3.60365 0
M  V30 10816 H 994.269 -1.49277 4.80339 0
M  V30 10817 H 993.969 -0.101716 5.87512 0
M  V30 10818 H 995.493 -1.02286 6.01972 0
M  V30 10819 H 996.907 1.21017 5.60382 0
M  V30 10820 H 995.304 1.9995 5.65809 0
M  V30 10821 H 996.374 2.28929 4.27457 0
M  V30 10822 N 997.718 -1.45297 0.610449 0
M  V30 10823 C 998.665 -2.30553 -0.106718 0
M  V30 10824 C 999.635 -1.42272 -0.85719 0
M  V30 10825 O 1000.82 -1.71199 -0.842357 0
M  V30 10826 C 997.96 -3.27226 -1.09623 0
M  V30 10827 C 997.073 -4.3061 -0.346329 0
M  V30 10828 C 996.208 -5.14389 -1.32581 0
M  V30 10829 C 995.247 -6.09497 -0.563892 0
M  V30 10830 N 994.384 -6.86047 -1.4928 0
M  V30 10831 H 999.224 -2.91344 0.626296 0
M  V30 10832 H 996.761 -1.43563 0.32065 0
M  V30 10833 H 998.719 -3.81744 -1.68308 0
M  V30 10834 H 997.349 -2.68182 -1.79662 0
M  V30 10835 H 996.401 -3.7873 0.356084 0
M  V30 10836 H 997.713 -4.98183 0.248026 0
M  V30 10837 H 996.867 -5.73321 -1.98464 0
M  V30 10838 H 995.606 -4.4684 -1.9541 0
M  V30 10839 H 994.611 -5.49693 0.108551 0
M  V30 10840 H 995.836 -6.79074 0.0593872 0
M  V30 10841 H 993.782 -6.21185 -2.10868 0
M  V30 10842 H 993.699 -7.49983 -0.951953 0
M  V30 10843 H 994.967 -7.49518 -2.14112 0
M  V30 10844 N 999.196 -0.349774 -1.5367 0
M  V30 10845 C 1000.42 0.246038 -2.05432 0
M  V30 10846 C 1000.84 1.43719 -1.22435 0
M  V30 10847 O 1000.2 1.80622 -0.261166 0
M  V30 10848 C 1000.25 0.65501 -3.55516 0
M  V30 10849 O 999.968 -0.488782 -4.35365 0
M  V30 10850 C 1001.47 1.31088 -4.23475 0
M  V30 10851 H 998.689 0.0463952 -0.669394 0
M  V30 10852 H 1001.23 -0.503566 -1.98203 0
M  V30 10853 H 999.388 1.35455 -3.62947 0
M  V30 10854 H 999.802 -0.161528 -5.24251 0
M  V30 10855 H 1001.28 1.54774 -5.29857 0
M  V30 10856 H 1001.75 2.26636 -3.76208 0
M  V30 10857 H 1002.36 0.653211 -4.20254 0
M  V30 10858 N 1000.67 1.57404 -0.0785433 0
M  V30 10859 C 1001.92 1.93361 0.58786 0
M  V30 10860 C 1002.24 0.959856 1.6974 0
M  V30 10861 O 1001.51 0.0091173 1.95898 0
M  V30 10862 H 1000.09 0.713825 0.220141 0
M  V30 10863 H 1002.75 1.94411 -0.137986 0
M  V30 10864 H 1001.85 2.95346 1.00881 0
M  V30 10865 N 1002.15 -0.195058 1.56388 0
M  V30 10866 C 1003.1 -1.24175 1.94549 0
M  V30 10867 C 1004.07 -1.45229 0.806089 0
M  V30 10868 O 1005.25 -1.58362 1.06425 0
M  V30 10869 C 1002.39 -2.58145 2.29031 0
M  V30 10870 C 1001.51 -2.44669 3.56035 0
M  V30 10871 C 1000.64 -3.71342 3.7984 0
M  V30 10872 C 999.681 -3.52699 5.0027 0
M  V30 10873 N 998.818 -4.71385 5.20328 0
M  V30 10874 H 1003.66 -0.909319 2.83788 0
M  V30 10875 H 1001.19 -0.437641 1.40439 0
M  V30 10876 H 1003.15 -3.36195 2.4704 0
M  V30 10877 H 1001.78 -2.8943 1.42933 0
M  V30 10878 H 1000.83 -1.57916 3.46073 0
M  V30 10879 H 1002.15 -2.26827 4.44242 0
M  V30 10880 H 1001.3 -4.57832 3.98088 0
M  V30 10881 H 1000.04 -3.92138 2.89964 0
M  V30 10882 H 999.045 -2.64594 4.81944 0
M  V30 10883 H 1000.27 -3.33349 5.91655 0
M  V30 10884 H 998.216 -4.92444 4.33399 0
M  V30 10885 H 998.133 -4.56368 6.02714 0
M  V30 10886 H 999.401 -5.59226 5.43035 0
M  V30 10887 N 1003.63 -1.50653 -0.462772 0
M  V30 10888 C 1004.86 -1.65826 -1.23731 0
M  V30 10889 C 1005.27 -0.345002 -1.85621 0
M  V30 10890 O 1004.63 0.673935 -1.69601 0
M  V30 10891 C 1004.68 -2.7555 -2.33997 0
M  V30 10892 O 1004.4 -4.01785 -1.74643 0
M  V30 10893 C 1005.9 -3.0177 -3.2473 0
M  V30 10894 H 1003.12 -0.557177 -0.373892 0
M  V30 10895 H 1005.67 -1.96925 -0.551434 0
M  V30 10896 H 1003.82 -2.47122 -2.98345 0
M  V30 10897 H 1004.24 -4.62529 -2.4732 0
M  V30 10898 H 1005.71 -3.82188 -3.98292 0
M  V30 10899 H 1006.19 -2.13167 -3.84001 0
M  V30 10900 H 1006.79 -3.31761 -2.66111 0
M  V30 10901 N 1005.11 0.71652 -1.4037 0
M  V30 10902 C 1006.06 1.85194 -1.40734 0
M  V30 10903 C 1007.05 1.66934 -0.287969 0
M  V30 10904 O 1008.26 1.74051 -0.458957 0
M  V30 10905 H 1004.63 0.609922 -0.439885 0
M  V30 10906 H 1006.6 1.82003 -2.36468 0
M  V30 10907 C 1005.35 3.23048 -1.28589 0
M  V30 10908 H 1004.67 3.37704 -2.13999 0
M  V30 10909 H 1006.11 4.02633 -1.32902 0
M  V30 10910 C 1004.57 3.369 0.00396512 0
M  V30 10911 O 1005.1 3.89881 0.967243 0
M  V30 10912 N 1003.31 2.90508 0.0731565 0
M  V30 10913 H 1002.86 2.4758 -0.711454 0
M  V30 10914 H 1002.81 3.00155 0.935652 0
M  V30 10915 N 1006.59 1.25851 0.948643 0
M  V30 10916 C 1008 1.02802 1.22081 0
M  V30 10917 C 1008.2 -0.251461 1.99925 0
M  V30 10918 O 1007.26 -0.962592 2.33432 0
M  V30 10919 C 1008.57 2.25489 1.98936 0
M  V30 10920 C 1010.12 2.30312 2.11956 0
M  V30 10921 C 1010.59 3.52671 2.92211 0
M  V30 10922 N 1012.09 3.53103 2.99787 0
M  V30 10923 C 1012.82 4.44445 3.62294 0
M  V30 10924 N 1012.32 5.46065 4.26362 0
M  V30 10925 N 1014.11 4.32113 3.59493 0
M  V30 10926 H 1006.26 2.08042 0.428044 0
M  V30 10927 H 1008.52 0.913928 0.251872 0
M  V30 10928 H 1008.23 3.18513 1.4914 0
M  V30 10929 H 1008.1 2.2914 2.99624 0
M  V30 10930 H 1010.49 1.37808 2.60946 0
M  V30 10931 H 1010.57 2.30676 1.10554 0
M  V30 10932 H 1010.22 4.45501 2.43909 0
M  V30 10933 H 1010.15 3.49554 3.93853 0
M  V30 10934 H 1012.64 2.79597 2.54232 0
M  V30 10935 H 1012.95 6.11964 4.71932 0
M  V30 10936 H 1011.29 5.49931 4.24972 0
M  V30 10937 H 1014.49 3.51946 3.08629 0
M  V30 10938 H 1014.66 5.03493 4.0792 0
M  V30 10939 N 1008.06 -1.15214 1.07534 0
M  V30 10940 C 1009.31 -1.86319 0.800814 0
M  V30 10941 C 1009.64 -1.82221 -0.671494 0
M  V30 10942 O 1008.92 -1.24664 -1.49295 0
M  V30 10943 C 1009.2 -3.35347 1.31203 0
M  V30 10944 C 1009.05 -3.48067 2.84902 0
M  V30 10945 C 1010.37 -4.3016 0.930064 0
M  V30 10946 H 1007.49 -0.676523 0.292379 0
M  V30 10947 H 1010.13 -1.35349 1.33344 0
M  V30 10948 H 1008.28 -3.78886 0.858949 0
M  V30 10949 H 1009.96 -3.13379 3.38514 0
M  V30 10950 H 1008.2 -2.89566 3.23008 0
M  V30 10951 H 1008.87 -4.52782 3.15741 0
M  V30 10952 H 1011.35 -3.94591 1.3205 0
M  V30 10953 H 1010.22 -5.32914 1.31507 0
M  V30 10954 H 1010.48 -4.41796 -0.163824 0
M  V30 10955 N 1009.54 -0.859717 -1.32086 0
M  V30 10956 C 1010.49 -0.306042 -2.28762 0
M  V30 10957 C 1011.46 0.589801 -1.55276 0
M  V30 10958 O 1012.64 0.523633 -1.83474 0
M  V30 10959 C 1009.78 0.495256 -3.41528 0
M  V30 10960 C 1008.9 -0.426947 -4.29885 0
M  V30 10961 C 1008.03 0.387474 -5.29785 0
M  V30 10962 C 1007.07 -0.531807 -6.09785 0
M  V30 10963 N 1006.21 0.245741 -7.0167 0
M  V30 10964 H 1011.05 -1.1357 -2.7551 0
M  V30 10965 H 1008.59 -0.571468 -1.35546 0
M  V30 10966 H 1010.54 0.97551 -4.05635 0
M  V30 10967 H 1009.17 1.28969 -2.95917 0
M  V30 10968 H 1008.23 -1.02561 -3.66313 0
M  V30 10969 H 1009.54 -1.13226 -4.85779 0
M  V30 10970 H 1008.69 0.930677 -5.99519 0
M  V30 10971 H 1007.43 1.12612 -4.74521 0
M  V30 10972 H 1006.44 -1.08685 -5.3895 0
M  V30 10973 H 1007.66 -1.26915 -6.67135 0
M  V30 10974 H 1005.61 0.967391 -6.48828 0
M  V30 10975 H 1005.52 -0.400432 -7.54939 0
M  V30 10976 H 1006.79 0.770507 -7.75683 0
M  V30 10977 N 1011.02 1.44971 -0.618145 0
M  V30 10978 C 1012.27 2.01372 -0.115004 0
M  V30 10979 C 1012.58 1.49104 1.26599 0
M  V30 10980 O 1013.79 1.97549 1.86244 0
M  V30 10981 C 1012.24 3.59567 -0.154883 0
M  V30 10982 C 1011.85 4.20832 -1.53639 0
M  V30 10983 C 1013.6 4.23491 0.292468 0
M  V30 10984 C 1011.5 5.7121 -1.53208 0
M  V30 10985 H 1010.43 0.752979 -0.0392267 0
M  V30 10986 H 1013.08 1.66329 -0.775032 0
M  V30 10987 H 1011.47 3.91847 0.572001 0
M  V30 10988 H 1012.64 4.00109 -2.28582 0
M  V30 10989 H 1010.96 3.69143 -1.92672 0
M  V30 10990 H 1013.55 5.33771 0.315032 0
M  V30 10991 H 1013.9 3.9491 1.31725 0
M  V30 10992 H 1014.43 3.95967 -0.381493 0
M  V30 10993 H 1011.17 6.04506 -2.53481 0
M  V30 10994 H 1010.69 5.94094 -0.825387 0
M  V30 10995 H 1012.37 6.34606 -1.26032 0
M  V30 10996 N 1012.5 0.357919 1.53482 0
M  V30 10997 C 1013.78 -0.290164 1.93436 0
M  V30 10998 C 1014.16 -1.67039 1.29079 0
M  V30 10999 O 1013.5 -2.24085 0.447017 0
M  V30 11000 C 1013.71 -0.348055 3.4726 0
M  V30 11001 C 1015.06 -0.59206 4.20452 0
M  V30 11002 O 1016.09 -0.429581 3.536 0
M  V30 11003 O 1014.94 -0.907855 5.38907 0
M  V30 11004 H 1012.04 -0.172312 0.80885 0
M  V30 11005 H 1014.58 0.410144 1.64669 0
M  V30 11006 H 1013.36 0.619953 3.86358 0
M  V30 11007 H 1012.98 -1.09457 3.82237 0
M  V30 11008 N 1013.98 -1.5736 0.0868897 0
M  V30 11009 C 1015.22 -1.94054 -0.578741 0
M  V30 11010 C 1015.55 -0.968047 -1.68698 0
M  V30 11011 O 1014.81 0.0137824 -1.95695 0
M  V30 11012 C 1015.11 -3.37316 -1.18123 0
M  V30 11013 C 1014.77 -4.50467 -0.197607 0
M  V30 11014 C 1013.43 -4.81145 0.072952 0
M  V30 11015 C 1015.79 -5.19036 0.474473 0
M  V30 11016 C 1013.11 -5.77723 1.02242 0
M  V30 11017 C 1015.47 -6.16632 1.41236 0
M  V30 11018 C 1014.13 -6.45719 1.69124 0
M  V30 11019 H 1013.4 -0.710093 -0.211776 0
M  V30 11020 H 1016.05 -1.90822 0.160978 0
M  V30 11021 H 1014.35 -3.37085 -1.99701 0
M  V30 11022 H 1016.05 -3.63003 -1.7038 0
M  V30 11023 H 1012.64 -4.2655 -0.418669 0
M  V30 11024 H 1016.82 -4.95518 0.278581 0
M  V30 11025 H 1012.08 -5.98578 1.24557 0
M  V30 11026 H 1016.25 -6.68862 1.939 0
M  V30 11027 H 1013.88 -7.20365 2.42855 0
M  V30 11028 N 1015.45 0.186762 -1.56489 0
M  V30 11029 C 1016.87 0.750675 -1.70944 0
M  V30 11030 C 1017.22 1.83483 -0.694858 0
M  V30 11031 O 1016.34 2.159 0.147009 0
M  V30 11032 C 1016.94 1.36843 -3.09934 0
M  V30 11033 C 1015.5 1.87934 -3.26125 0
M  V30 11034 C 1014.64 0.75242 -2.66897 0
M  V30 11035 H 1017.59 -0.0384292 -1.58653 0
M  V30 11036 H 1017.61 2.23795 -3.07727 0
M  V30 11037 H 1017.13 0.579135 -3.83755 0
M  V30 11038 H 1015.23 2.69556 -2.57235 0
M  V30 11039 H 1015.34 2.0354 -4.33715 0
M  V30 11040 H 1013.7 1.16888 -2.26295 0
M  V30 11041 H 1014.49 -0.0247769 -3.43291 0
M  V30 11042 N 1016.93 1.50896 0.454776 0
M  V30 11043 C 1017.86 1.6712 1.56855 0
M  V30 11044 C 1018.88 0.552223 1.53148 0
M  V30 11045 O 1020.07 0.825969 1.5824 0
M  V30 11046 C 1017.17 1.65464 2.95762 0
M  V30 11047 C 1016.34 2.93662 3.24163 0
M  V30 11048 C 1015.4 2.84428 4.42704 0
M  V30 11049 O 1014.42 3.58382 4.42211 0
M  V30 11050 N 1015.63 1.9909 5.45292 0
M  V30 11051 H 1018.39 2.63194 1.43349 0
M  V30 11052 H 1015.95 1.48564 0.643457 0
M  V30 11053 H 1017.94 1.56878 3.73057 0
M  V30 11054 H 1016.51 0.770568 3.02954 0
M  V30 11055 H 1015.73 3.16251 2.35328 0
M  V30 11056 H 1017.02 3.78558 3.39957 0
M  V30 11057 H 1016.42 1.3835 5.48521 0
M  V30 11058 H 1014.98 1.96396 6.21508 0
M  V30 11059 N 1018.41 -0.709066 1.40748 0
M  V30 11060 C 1019.34 -1.83412 1.37451 0
M  V30 11061 C 1020.36 -1.60394 0.27884 0
M  V30 11062 O 1021.54 -1.70147 0.539642 0
M  V30 11063 C 1018.64 -3.19935 1.1178 0
M  V30 11064 C 1017.82 -3.70095 2.33128 0
M  V30 11065 C 1016.88 -4.85249 2.03518 0
M  V30 11066 O 1015.9 -4.97563 2.76442 0
M  V30 11067 N 1017.1 -5.7152 1.01714 0
M  V30 11068 H 1019.87 -1.86736 2.34414 0
M  V30 11069 H 1017.43 -0.890863 1.35186 0
M  V30 11070 H 1019.42 -3.94578 0.899464 0
M  V30 11071 H 1017.99 -3.11718 0.234624 0
M  V30 11072 H 1017.21 -2.8651 2.70751 0
M  V30 11073 H 1018.5 -4.00344 3.1401 0
M  V30 11074 H 1017.9 -5.64188 0.413307 0
M  V30 11075 H 1016.46 -6.46119 0.858696 0
M  V30 11076 N 1019.89 -1.26353 -0.941956 0
M  V30 11077 C 1020.8 -1.09618 -2.07415 0
M  V30 11078 C 1021.82 -0.0298963 -1.73974 0
M  V30 11079 O 1022.99 -0.233466 -2.00042 0
M  V30 11080 C 1020.06 -0.73013 -3.38925 0
M  V30 11081 C 1019.12 -1.87574 -3.86153 0
M  V30 11082 C 1018.35 -1.52706 -5.11387 0
M  V30 11083 O 1018.57 -0.428438 -5.68789 0
M  V30 11084 O 1017.51 -2.36154 -5.53638 0
M  V30 11085 H 1021.33 -2.04598 -2.2444 0
M  V30 11086 H 1018.92 -1.05407 -1.05876 0
M  V30 11087 H 1020.8 -0.538684 -4.17943 0
M  V30 11088 H 1019.48 0.190282 -3.2314 0
M  V30 11089 H 1018.38 -2.12214 -3.08084 0
M  V30 11090 H 1019.72 -2.77585 -4.06457 0
M  V30 11091 N 1021.37 1.14642 -1.08144 0
M  V30 11092 C 1022.61 1.85617 -0.809484 0
M  V30 11093 C 1022.94 1.8279 0.664672 0
M  V30 11094 O 1022.2 1.25178 1.50429 0
M  V30 11095 C 1022.5 3.33953 -1.2732 0
M  V30 11096 C 1022.16 3.56969 -2.7547 0
M  V30 11097 C 1020.82 3.6296 -3.15933 0
M  V30 11098 C 1023.18 3.66014 -3.71057 0
M  V30 11099 C 1020.5 3.75515 -4.50783 0
M  V30 11100 C 1022.86 3.80094 -5.05679 0
M  V30 11101 C 1021.52 3.84333 -5.45751 0
M  V30 11102 H 1020.79 0.67922 -0.296211 0
M  V30 11103 H 1023.44 1.35433 -1.35389 0
M  V30 11104 H 1021.74 3.86399 -0.648329 0
M  V30 11105 H 1023.44 3.87291 -1.03957 0
M  V30 11106 H 1020.03 3.52953 -2.4315 0
M  V30 11107 H 1024.21 3.60679 -3.40917 0
M  V30 11108 H 1019.47 3.77057 -4.81288 0
M  V30 11109 H 1023.64 3.86035 -5.79612 0
M  V30 11110 H 1021.27 3.93814 -6.50242 0
M  V30 11111 N 1022.85 0.866709 1.31628 0
M  V30 11112 C 1023.81 0.325041 2.26883 0
M  V30 11113 C 1024.81 -0.522133 1.52087 0
M  V30 11114 O 1026 -0.331908 1.71009 0
M  V30 11115 C 1023.13 -0.538756 3.36616 0
M  V30 11116 H 1024.32 1.16592 2.76308 0
M  V30 11117 H 1021.88 0.642029 1.42505 0
M  V30 11118 H 1022.61 -1.40096 2.92478 0
M  V30 11119 H 1022.4 0.0678115 3.92041 0
M  V30 11120 H 1023.89 -0.910123 4.07562 0
M  V30 11121 N 1024.32 -1.44642 0.625825 0
M  V30 11122 C 1025.57 -2.01695 0.127948 0
M  V30 11123 C 1025.89 -1.49439 -1.25271 0
M  V30 11124 O 1025.16 -0.695873 -1.83124 0
M  V30 11125 H 1023.74 -0.745685 0.0443096 0
M  V30 11126 H 1026.4 -1.7721 0.811332 0
M  V30 11127 H 1025.5 -3.11966 0.0915933 0
M  V30 11128 N 1025.8 -0.366053 -1.5329 0
M  V30 11129 C 1026.76 0.467904 -2.24373 0
M  V30 11130 C 1027.76 1.00934 -1.25176 0
M  V30 11131 O 1028.95 0.895015 -1.49449 0
M  V30 11132 C 1026.09 1.65405 -2.98084 0
M  V30 11133 H 1027.28 -0.154105 -2.99504 0
M  V30 11134 H 1024.83 -0.117751 -1.55856 0
M  V30 11135 H 1025.57 2.31413 -2.27197 0
M  V30 11136 H 1025.35 1.27277 -3.70868 0
M  V30 11137 H 1026.84 2.24503 -3.52119 0
M  V30 11138 N 1027.28 1.57312 -0.0952337 0
M  V30 11139 C 1028.51 1.98697 0.57682 0
M  V30 11140 C 1028.92 0.974347 1.61716 0
M  V30 11141 O 1028.28 -0.036022 1.82464 0
M  V30 11142 C 1028.33 3.40133 1.2244 0
M  V30 11143 O 1028.05 4.37518 0.225678 0
M  V30 11144 C 1029.55 3.96522 1.98205 0
M  V30 11145 H 1026.77 0.65294 0.154629 0
M  V30 11146 H 1029.32 2.03754 -0.174562 0
M  V30 11147 H 1027.47 3.3609 1.92671 0
M  V30 11148 H 1027.89 5.199 0.693116 0
M  V30 11149 H 1029.36 4.97637 2.38875 0
M  V30 11150 H 1029.84 3.34347 2.84796 0
M  V30 11151 H 1030.44 4.04038 1.3279 0
M  V30 11152 N 1028.76 -0.17846 1.56586 0
M  V30 11153 C 1030 -0.897562 1.81856 0
M  V30 11154 C 1030.34 -1.82204 0.671955 0
M  V30 11155 O 1029.61 -1.91739 -0.326535 0
M  V30 11156 C 1029.89 -1.69942 3.17477 0
M  V30 11157 C 1029.75 -0.798545 4.42655 0
M  V30 11158 C 1031.07 -2.66861 3.49962 0
M  V30 11159 H 1028.19 -0.324863 0.661539 0
M  V30 11160 H 1030.83 -0.164106 1.8929 0
M  V30 11161 H 1028.98 -2.32471 3.11271 0
M  V30 11162 H 1030.65 -0.18668 4.60922 0
M  V30 11163 H 1028.89 -0.106181 4.3367 0
M  V30 11164 H 1029.56 -1.39496 5.34083 0
M  V30 11165 H 1032.04 -2.1446 3.56576 0
M  V30 11166 H 1030.92 -3.20037 4.45946 0
M  V30 11167 H 1031.18 -3.46715 2.74301 0
M  V30 11168 N 1030.24 -1.51135 -0.446768 0
M  V30 11169 C 1031.15 -1.74595 -1.56696 0
M  V30 11170 C 1032.16 -0.629816 -1.62201 0
M  V30 11171 O 1033.34 -0.910987 -1.79619 0
M  V30 11172 C 1030.4 -1.85738 -2.9275 0
M  V30 11173 C 1029.46 -3.09564 -2.97437 0
M  V30 11174 C 1028.7 -3.20165 -4.27001 0
M  V30 11175 O 1028.92 -2.36939 -5.1886 0
M  V30 11176 O 1027.85 -4.13077 -4.3778 0
M  V30 11177 H 1031.68 -2.69601 -1.39817 0
M  V30 11178 H 1029.26 -1.35523 -0.628805 0
M  V30 11179 H 1031.15 -1.95107 -3.73512 0
M  V30 11180 H 1029.82 -0.939184 -3.09776 0
M  V30 11181 H 1028.73 -3.05679 -2.15664 0
M  V30 11182 H 1030.06 -4.01041 -2.85353 0
M  V30 11183 N 1031.71 0.701592 -1.41122 0
M  V30 11184 C 1032.64 1.82815 -1.45262 0
M  V30 11185 C 1033.62 1.67215 -0.311939 0
M  V30 11186 O 1034.81 1.87038 -0.522538 0
M  V30 11187 C 1031.94 3.20899 -1.32819 0
M  V30 11188 C 1030.89 3.51194 -2.44636 0
M  V30 11189 C 1030.22 4.8857 -2.17263 0
M  V30 11190 C 1031.52 3.50777 -3.86979 0
M  V30 11191 H 1033.21 1.79608 -2.39544 0
M  V30 11192 H 1030.76 0.862693 -1.15298 0
M  V30 11193 H 1032.71 3.99417 -1.34329 0
M  V30 11194 H 1031.44 3.24717 -0.350191 0
M  V30 11195 H 1030.1 2.75024 -2.42399 0
M  V30 11196 H 1029.74 4.89007 -1.17819 0
M  V30 11197 H 1029.44 5.09805 -2.92186 0
M  V30 11198 H 1030.97 5.69405 -2.20478 0
M  V30 11199 H 1032.38 4.19309 -3.90964 0
M  V30 11200 H 1030.78 3.83542 -4.61536 0
M  V30 11201 H 1031.85 2.49873 -4.15562 0
M  V30 11202 N 1033.19 1.2685 0.935242 0
M  V30 11203 C 1034.14 1.08923 2.03481 0
M  V30 11204 C 1035.11 -0.00749786 1.66098 0
M  V30 11205 O 1036.29 0.153401 1.90182 0
M  V30 11206 C 1033.43 0.734529 3.37192 0
M  V30 11207 C 1032.55 1.90812 3.87576 0
M  V30 11208 C 1031.68 1.49599 5.097 0
M  V30 11209 C 1030.72 2.63752 5.5236 0
M  V30 11210 N 1029.86 2.23179 6.65684 0
M  V30 11211 H 1034.7 2.03016 2.18148 0
M  V30 11212 H 1032.23 1.01072 1.06878 0
M  V30 11213 H 1034.19 0.509734 4.14074 0
M  V30 11214 H 1032.82 -0.169438 3.22355 0
M  V30 11215 H 1031.87 2.24567 3.0704 0
M  V30 11216 H 1033.19 2.7647 4.1517 0
M  V30 11217 H 1032.34 1.23199 5.9406 0
M  V30 11218 H 1031.08 0.61039 4.83865 0
M  V30 11219 H 1030.08 2.90874 4.66554 0
M  V30 11220 H 1031.31 3.5292 5.80193 0
M  V30 11221 H 1029.26 1.37061 6.41522 0
M  V30 11222 H 1029.17 3.02379 6.92895 0
M  V30 11223 H 1030.44 2.00007 7.53404 0
M  V30 11224 O 1034.71 -1.06917 1.21042 0
M  V30 11225 H 1035.4 -1.6778 0.967969 0
M  V30 END ATOM
M  V30 BEGIN BOND
M  V30 END BOND
M  V30 END CTAB
M  END
$$$$
