drugbank_target|Q59325 Glucanase (DB02717)
 OpenBabel12092120253D

  0  0  0     0  0            999 V3000
M  V30 BEGIN CTAB
M  V30 COUNTS 19063 19333 0 0 0
M  V30 BEGIN ATOM
M  V30 1 H -0.908 1.98254 -0.117106 0
M  V30 2 N 0 1.576 0 0
M  V30 3 C 0.933 2.03868 1.02534 0
M  V30 4 C 1.911 0.928543 1.3348 0
M  V30 5 O 3.095 1.19667 1.45644 0
M  V30 6 C 0.222 2.43627 2.35294 0
M  V30 7 C -0.732 3.65373 2.2001 0
M  V30 8 S 0.101 5.13292 1.52614 0
M  V30 9 C 1.257 5.56322 2.86805 0
M  V30 10 H 1.49 2.90518 0.631377 0
M  V30 11 H -0.977 1.52953 0.210867 0
M  V30 12 H 0.981 2.67203 3.11629 0
M  V30 13 H -0.358 1.57376 2.7183 0
M  V30 14 H -1.165 3.90944 3.18086 0
M  V30 15 H -1.563 3.418 1.51819 0
M  V30 16 H 0.729 5.58782 3.83104 0
M  V30 17 H 1.672 6.56266 2.65933 0
M  V30 18 H 2.08 4.83886 2.90714 0
M  V30 19 N 1.4781 -0.272755 1.55222 0
M  V30 20 C 2.4251 -1.33716 1.88119 0
M  V30 21 C 3.3951 -1.49066 0.73271 0
M  V30 22 O 4.5801 -1.63469 0.984002 0
M  V30 23 C 1.7201 -2.69238 2.15882 0
M  V30 24 C 0.8331 -2.62108 3.43399 0
M  V30 25 C -0.0319 -3.89811 3.60861 0
M  V30 26 C -0.9929 -3.77193 4.8207 0
M  V30 27 N -1.8559 -4.9673 4.96189 0
M  V30 28 H 2.9841 -1.04962 2.78903 0
M  V30 29 H 0.5211 -0.507088 1.38083 0
M  V30 30 H 2.4791 -3.48089 2.29978 0
M  V30 31 H 1.1091 -2.96194 1.28331 0
M  V30 32 H 0.1611 -1.74967 3.37773 0
M  V30 33 H 1.4731 -2.48685 4.32386 0
M  V30 34 H 0.6271 -4.77103 3.74777 0
M  V30 35 H -0.6339 -4.06102 2.7006 0
M  V30 36 H -1.6289 -2.88284 4.68159 0
M  V30 37 H -0.4039 -3.62421 5.74307 0
M  V30 38 H -2.4579 -5.13431 4.08319 0
M  V30 39 H -2.5409 -4.85839 5.79221 0
M  V30 40 H -1.2729 -5.85594 5.1449 0
M  V30 41 N 2.9562 -1.48159 -0.537278 0
M  V30 42 C 4.2032 -1.55804 -1.29349 0
M  V30 43 C 4.5312 -0.228802 -1.9315 0
M  V30 44 O 3.7862 0.780242 -1.79473 0
M  V30 45 C 4.0852 -2.63956 -2.40961 0
M  V30 46 C 3.7512 -4.0662 -1.94861 0
M  V30 47 C 2.4132 -4.45452 -1.82006 0
M  V30 48 C 4.7652 -4.96055 -1.59933 0
M  V30 49 C 2.0932 -5.71531 -1.32547 0
M  V30 50 C 4.4452 -6.22617 -1.11939 0
M  V30 51 C 3.1092 -6.60312 -0.976951 0
M  V30 52 H 2.3792 -0.570129 -0.473322 0
M  V30 53 H 5.0262 -1.81845 -0.600372 0
M  V30 54 H 3.3312 -2.31747 -3.15912 0
M  V30 55 H 5.0282 -2.67089 -2.99107 0
M  V30 56 H 1.6182 -3.75949 -2.05815 0
M  V30 57 H 5.8022 -4.66738 -1.68728 0
M  V30 58 H 1.0582 -5.99468 -1.202 0
M  V30 59 H 5.2322 -6.91318 -0.839811 0
M  V30 60 H 2.8592 -7.57895 -0.591501 0
M  V30 61 N 4.4343 0.785586 -1.36625 0
M  V30 62 C 5.8503 1.08419 -1.17122 0
M  V30 63 C 6.0503 2.015 0.00208491 0
M  V30 64 O 5.1063 2.43551 0.666278 0
M  V30 65 C 6.4193 1.69498 -2.48377 0
M  V30 66 C 7.9673 1.81821 -2.54775 0
M  V30 67 C 8.4423 2.46315 -3.86126 0
M  V30 68 N 9.9333 2.53779 -3.87492 0
M  V30 69 C 10.6683 3.045 -4.85868 0
M  V30 70 N 10.1643 3.55499 -5.94637 0
M  V30 71 N 11.9573 3.03247 -4.73284 0
M  V30 72 H 4.1083 0.167264 -2.1174 0
M  V30 73 H 6.3713 0.13682 -0.938075 0
M  V30 74 H 6.0773 1.08571 -3.34522 0
M  V30 75 H 5.9513 2.6896 -2.64462 0
M  V30 76 H 8.3383 2.41884 -1.69045 0
M  V30 77 H 8.4193 0.811532 -2.42586 0
M  V30 78 H 8.0633 1.86895 -4.72263 0
M  V30 79 H 7.9933 3.47561 -3.95612 0
M  V30 80 H 10.4843 2.17672 -3.08913 0
M  V30 81 H 10.7973 3.92562 -6.65669 0
M  V30 82 H 9.1423 3.5364 -5.98301 0
M  V30 83 H 12.3333 2.62696 -3.87438 0
M  V30 84 H 12.5063 3.42467 -5.50109 0
M  V30 85 N 5.9124 1.20967 1.01018 0
M  V30 86 C 7.3284 0.965905 1.27053 0
M  V30 87 C 7.5284 -0.350785 1.98423 0
M  V30 88 O 6.5844 -1.07773 2.28344 0
M  V30 89 C 7.8974 2.15294 2.09926 0
M  V30 90 C 9.4454 2.19463 2.23171 0
M  V30 91 C 9.9204 3.3767 3.09424 0
M  V30 92 N 11.4114 3.37724 3.17012 0
M  V30 93 C 12.1464 4.25837 3.83993 0
M  V30 94 N 11.6424 5.24138 4.53047 0
M  V30 95 N 13.4354 4.1366 3.80581 0
M  V30 96 H 5.5864 2.0565 0.531194 0
M  V30 97 H 7.8494 0.90024 0.297106 0
M  V30 98 H 7.5554 3.10684 1.64828 0
M  V30 99 H 7.4294 2.13923 3.10672 0
M  V30 100 H 9.8164 1.24632 2.6749 0
M  V30 101 H 9.8974 2.2488 1.21912 0
M  V30 102 H 9.5414 4.32791 2.65808 0
M  V30 103 H 9.4714 3.29491 4.10784 0
M  V30 104 H 11.9624 2.6658 2.6785 0
M  V30 105 H 12.2754 5.87684 5.01844 0
M  V30 106 H 10.6204 5.28068 4.5185 0
M  V30 107 H 13.8114 3.36127 3.25785 0
M  V30 108 H 13.9844 4.82538 4.32505 0
M  V30 109 N 7.3905 -1.2043 1.01659 0
M  V30 110 C 8.6155 -1.94318 0.724942 0
M  V30 111 C 9.0405 -1.74266 -0.708034 0
M  V30 112 O 8.3985 -1.03694 -1.48719 0
M  V30 113 C 8.4465 -3.44486 1.06591 0
M  V30 114 O 7.5505 -4.12017 0.177599 0
M  V30 115 H 6.8915 -0.60708 0.26898 0
M  V30 116 H 9.4215 -1.52861 1.35995 0
M  V30 117 H 9.4315 -3.95106 1.01762 0
M  V30 118 H 8.1065 -3.58404 2.10997 0
M  V30 119 H 6.6835 -3.71821 0.283421 0
M  V30 120 N 8.8686 -0.792821 -1.36206 0
M  V30 121 C 10.1176 -0.363353 -1.984 0
M  V30 122 C 10.4306 1.07172 -1.63626 0
M  V30 123 O 11.6366 1.60362 -2.19081 0
M  V30 124 C 10.0926 -0.59872 -3.54885 0
M  V30 125 C 9.7006 -2.04543 -3.9858 0
M  V30 126 C 11.4446 -0.233926 -4.23855 0
M  V30 127 C 9.3516 -2.22727 -5.47856 0
M  V30 128 H 8.2816 -0.13212 -0.742334 0
M  V30 129 H 10.9326 -0.974935 -1.55458 0
M  V30 130 H 9.3146 0.0826222 -3.95914 0
M  V30 131 H 10.4886 -2.76345 -3.68741 0
M  V30 132 H 8.8036 -2.36879 -3.42458 0
M  V30 133 H 11.4006 -0.348027 -5.33566 0
M  V30 134 H 11.7436 0.818351 -4.08177 0
M  V30 135 H 12.2766 -0.868639 -3.882 0
M  V30 136 H 9.0156 -3.2635 -5.68486 0
M  V30 137 H 8.5356 -1.55434 -5.7931 0
M  V30 138 H 10.2146 -2.03607 -6.14128 0
M  V30 139 N 10.3467 1.47872 -0.545128 0
M  V30 140 C 11.5867 2.04391 -0.0187854 0
M  V30 141 C 11.9507 1.41162 1.30144 0
M  V30 142 O 13.1517 1.88656 1.91474 0
M  V30 143 C 11.4227 3.57299 0.0850867 0
M  V30 144 S 12.9817 4.35221 0.559302 0
M  V30 145 H 9.7997 0.710737 -0.0193301 0
M  V30 146 H 12.4017 1.81395 -0.729125 0
M  V30 147 H 11.1057 4.00847 -0.880351 0
M  V30 148 H 10.6367 3.84773 0.819348 0
M  V30 149 H 12.6517 4.61571 1.82118 0
M  V30 150 N 11.8248 0.280983 1.55075 0
M  V30 151 C 13.0528 -0.337293 2.04132 0
M  V30 152 C 13.4678 -1.4903 1.15912 0
M  V30 153 O 12.8248 -1.81606 0.180459 0
M  V30 154 C 12.8758 -0.812706 3.52246 0
M  V30 155 O 12.5968 0.294387 4.3711 0
M  V30 156 C 14.0978 -1.4982 4.17216 0
M  V30 157 H 11.3178 -0.0761638 0.666663 0
M  V30 158 H 13.8618 0.414787 2.00249 0
M  V30 159 H 12.0168 -1.51486 3.56554 0
M  V30 160 H 12.4308 -0.0721325 5.2445 0
M  V30 161 H 13.9048 -1.7822 5.22438 0
M  V30 162 H 14.3818 -2.43168 3.65741 0
M  V30 163 H 14.9878 -0.839742 4.16927 0
M  V30 164 N 13.3029 -1.57598 0.00835791 0
M  V30 165 C 14.2659 -2.07884 -0.965242 0
M  V30 166 C 15.2659 -0.989825 -1.26725 0
M  V30 167 O 16.4559 -1.25218 -1.21104 0
M  V30 168 C 13.5879 -2.52731 -2.28779 0
M  V30 169 H 14.7809 -2.95178 -0.530112 0
M  V30 170 H 12.3339 -1.54458 -0.239283 0
M  V30 171 H 13.0689 -1.68705 -2.76964 0
M  V30 172 H 12.8539 -3.32272 -2.08177 0
M  V30 173 H 14.3439 -2.91933 -2.98605 0
M  V30 174 N 14.781 0.264519 -1.55364 0
M  V30 175 C 16.027 0.99646 -1.76631 0
M  V30 176 C 16.36 1.85632 -0.570478 0
M  V30 177 O 15.635 1.89647 0.43175 0
M  V30 178 C 15.918 1.87187 -3.07625 0
M  V30 179 C 15.771 1.04138 -4.37579 0
M  V30 180 C 17.09 2.85749 -3.34717 0
M  V30 181 H 14.209 0.360841 -0.642622 0
M  V30 182 H 16.851 0.268218 -1.88097 0
M  V30 183 H 15.001 2.49279 -2.9798 0
M  V30 184 H 16.673 0.440517 -4.59192 0
M  V30 185 H 14.916 0.345115 -4.32425 0
M  V30 186 H 15.587 1.68729 -5.2558 0
M  V30 187 H 18.063 2.33793 -3.4421 0
M  V30 188 H 16.939 3.44136 -4.27623 0
M  V30 189 H 17.2 3.61311 -2.54768 0
M  V30 190 N 16.2591 1.48442 0.529413 0
M  V30 191 C 17.1891 1.65902 1.64313 0
M  V30 192 C 18.1701 0.507897 1.6234 0
M  V30 193 O 19.3551 0.740503 1.79528 0
M  V30 194 C 16.4851 1.69911 3.02898 0
M  V30 195 C 15.4391 2.8453 3.19729 0
M  V30 196 C 14.7651 2.73629 4.59381 0
M  V30 197 C 16.0651 4.25821 3.02447 0
M  V30 198 H 17.7591 2.5914 1.49955 0
M  V30 199 H 15.3051 1.24709 0.719982 0
M  V30 200 H 17.2581 1.80715 3.80684 0
M  V30 201 H 15.9821 0.732524 3.18279 0
M  V30 202 H 14.6411 2.73283 2.44361 0
M  V30 203 H 14.2891 1.74938 4.71599 0
M  V30 204 H 13.9891 3.50541 4.71588 0
M  V30 205 H 15.5131 2.86401 5.39265 0
M  V30 206 H 16.9271 4.37898 3.70024 0
M  V30 207 H 15.3241 5.03735 3.26146 0
M  V30 208 H 16.3941 4.42244 1.98867 0
M  V30 209 N 17.7372 -0.778329 1.37039 0
M  V30 210 C 18.6672 -1.90546 1.34962 0
M  V30 211 C 19.6482 -1.68681 0.219274 0
M  V30 212 O 20.8332 -1.89634 0.418624 0
M  V30 213 C 17.9632 -3.27734 1.14925 0
M  V30 214 C 16.9172 -3.64147 2.24902 0
M  V30 215 C 16.2432 -4.99806 1.89996 0
M  V30 216 C 17.5432 -3.71579 3.67051 0
M  V30 217 H 19.2372 -1.92541 2.29277 0
M  V30 218 H 16.7832 -0.924948 1.10366 0
M  V30 219 H 18.7362 -4.06215 1.12104 0
M  V30 220 H 17.4602 -3.26154 0.170631 0
M  V30 221 H 16.1192 -2.8797 2.26868 0
M  V30 222 H 15.7672 -4.94759 0.906796 0
M  V30 223 H 15.4672 -5.25139 2.63634 0
M  V30 224 H 16.9912 -5.80694 1.88749 0
M  V30 225 H 18.4052 -4.40227 3.67251 0
M  V30 226 H 16.8022 -4.08405 4.39688 0
M  V30 227 H 17.8722 -2.72404 4.01154 0
M  V30 228 N 19.2153 -1.21501 -1.00376 0
M  V30 229 C 20.1783 -0.976927 -2.07337 0
M  V30 230 C 21.1783 0.0525322 -1.60714 0
M  V30 231 O 22.3683 -0.184869 -1.73216 0
M  V30 232 C 19.5003 -0.473423 -3.37597 0
M  V30 233 H 20.6933 -1.92587 -2.29892 0
M  V30 234 H 18.2463 -1.03217 -1.17371 0
M  V30 235 H 18.9813 0.480379 -3.20722 0
M  V30 236 H 18.7663 -1.216 -3.72768 0
M  V30 237 H 20.2563 -0.32675 -4.1632 0
M  V30 238 N 20.6934 1.19889 -1.02296 0
M  V30 239 C 21.9394 1.89701 -0.717033 0
M  V30 240 C 22.2724 1.7905 0.751989 0
M  V30 241 O 21.5474 1.17891 1.547 0
M  V30 242 C 21.8304 3.40858 -1.16136 0
M  V30 243 C 21.6834 3.60411 -2.69117 0
M  V30 244 C 23.0024 4.33876 -0.737549 0
M  V30 245 H 20.1214 0.688874 -0.261957 0
M  V30 246 H 22.7634 1.41154 -1.27183 0
M  V30 247 H 20.9134 3.82335 -0.689342 0
M  V30 248 H 22.5854 3.28145 -3.2422 0
M  V30 249 H 20.8284 3.03665 -3.0979 0
M  V30 250 H 21.4994 4.66396 -2.95261 0
M  V30 251 H 23.9754 4.00081 -1.14344 0
M  V30 252 H 22.8514 5.38242 -1.0764 0
M  V30 253 H 23.1124 4.40628 0.360436 0
M  V30 254 N 22.1715 0.800033 1.35784 0
M  V30 255 C 23.1015 0.220184 2.3246 0
M  V30 256 C 24.0825 -0.65073 1.57161 0
M  V30 257 O 25.2675 -0.582359 1.85263 0
M  V30 258 C 22.3975 -0.637353 3.41402 0
M  V30 259 C 21.3515 0.134531 4.27789 0
M  V30 260 C 20.6775 -0.844285 5.27992 0
M  V30 261 C 21.9775 1.32979 5.05088 0
M  V30 262 H 23.6715 1.02787 2.81203 0
M  V30 263 H 21.2175 0.495717 1.35199 0
M  V30 264 H 23.1705 -1.05302 4.08031 0
M  V30 265 H 21.8945 -1.47785 2.91251 0
M  V30 266 H 20.5535 0.531296 3.6273 0
M  V30 267 H 20.2015 -1.68011 4.74111 0
M  V30 268 H 19.9015 -0.332184 5.8666 0
M  V30 269 H 21.4255 -1.2583 5.97494 0
M  V30 270 H 22.8395 0.98934 5.64699 0
M  V30 271 H 21.2365 1.77593 5.7322 0
M  V30 272 H 22.3065 2.11978 4.36111 0
M  V30 273 N 23.6496 -1.47581 0.552962 0
M  V30 274 C 24.5796 -2.32762 -0.185451 0
M  V30 275 C 25.5606 -1.43527 -0.912905 0
M  V30 276 O 26.7456 -1.72388 -0.894201 0
M  V30 277 C 23.8756 -3.25219 -1.21859 0
M  V30 278 C 22.8296 -4.23661 -0.607864 0
M  V30 279 C 22.1556 -5.05413 -1.74533 0
M  V30 280 C 23.4556 -5.20481 0.435582 0
M  V30 281 H 25.1496 -2.94749 0.525684 0
M  V30 282 H 22.6956 -1.41738 0.254251 0
M  V30 283 H 24.6486 -3.8365 -1.7433 0
M  V30 284 H 23.3726 -2.61279 -1.95961 0
M  V30 285 H 22.0316 -3.66451 -0.104489 0
M  V30 286 H 21.6796 -4.3788 -2.47529 0
M  V30 287 H 21.3796 -5.72059 -1.34249 0
M  V30 288 H 22.9036 -5.66701 -2.27338 0
M  V30 289 H 24.3176 -5.733 -0.00290157 0
M  V30 290 H 22.7146 -5.95305 0.757067 0
M  V30 291 H 23.7846 -4.66217 1.33303 0
M  V30 292 N 25.1277 -0.289203 -1.54924 0
M  V30 293 C 26.3557 0.326463 -2.04308 0
M  V30 294 C 26.7707 1.48413 -1.16701 0
M  V30 295 O 26.1277 1.81507 -0.190087 0
M  V30 296 C 26.1787 0.794014 -3.52672 0
M  V30 297 O 25.8997 -0.317564 -4.36948 0
M  V30 298 C 27.4007 1.47605 -4.18004 0
M  V30 299 H 24.6207 0.0726272 -0.667058 0
M  V30 300 H 27.1647 -0.425401 -2.00026 0
M  V30 301 H 25.3197 1.49593 -3.57352 0
M  V30 302 H 25.7337 0.0443186 -5.24481 0
M  V30 303 H 27.2077 1.75447 -5.23376 0
M  V30 304 H 27.6847 2.41224 -3.67025 0
M  V30 305 H 28.2907 0.81762 -4.17367 0
M  V30 306 N 26.6058 1.57591 -0.0167156 0
M  V30 307 C 27.5358 2.12496 0.967858 0
M  V30 308 C 28.5168 1.03807 1.34752 0
M  V30 309 O 29.7018 1.31577 1.42833 0
M  V30 310 C 26.8318 2.64194 2.25431 0
M  V30 311 C 25.7858 3.77559 2.01576 0
M  V30 312 C 25.1118 4.15636 3.36379 0
M  V30 313 C 26.4118 5.04151 1.36489 0
M  V30 314 H 28.1058 2.95013 0.510643 0
M  V30 315 H 25.6518 1.41915 0.244181 0
M  V30 316 H 27.6048 3.01236 2.94678 0
M  V30 317 H 26.3288 1.78821 2.73296 0
M  V30 318 H 24.9878 3.40937 1.34751 0
M  V30 319 H 24.6358 3.27263 3.81979 0
M  V30 320 H 24.3358 4.92022 3.21229 0
M  V30 321 H 25.8598 4.5525 4.06915 0
M  V30 322 H 27.2738 5.38857 1.95718 0
M  V30 323 H 25.6708 5.85453 1.31776 0
M  V30 324 H 26.7408 4.83733 0.336219 0
M  V30 325 N 28.0839 -0.256276 1.55502 0
M  V30 326 C 29.0139 -1.32102 1.92539 0
M  V30 327 C 29.9949 -1.50684 0.789194 0
M  V30 328 O 31.1799 -1.63449 1.04872 0
M  V30 329 C 28.3099 -2.67752 2.21192 0
M  V30 330 C 27.2639 -2.63878 3.36975 0
M  V30 331 C 26.5899 -4.03236 3.51147 0
M  V30 332 C 27.8899 -2.21682 4.72921 0
M  V30 333 H 29.5839 -1.01351 2.81724 0
M  V30 334 H 27.1299 -0.486105 1.35547 0
M  V30 335 H 29.0829 -3.42365 2.45691 0
M  V30 336 H 27.8069 -3.0012 1.28824 0
M  V30 337 H 26.4659 -1.91722 3.12471 0
M  V30 338 H 26.1139 -4.32854 2.56216 0
M  V30 339 H 25.8139 -4.01535 4.29003 0
M  V30 340 H 27.3379 -4.79563 3.77957 0
M  V30 341 H 28.7519 -2.86023 4.96854 0
M  V30 342 H 27.1489 -2.3111 5.53812 0
M  V30 343 H 28.2189 -1.16833 4.70615 0
M  V30 344 N 29.562 -1.4872 -0.521534 0
M  V30 345 C 30.808 -1.574 -1.27879 0
M  V30 346 C 31.141 -0.250817 -1.92573 0
M  V30 347 O 30.416 0.743934 -1.79711 0
M  V30 348 C 30.699 -2.71843 -2.36164 0
M  V30 349 C 30.552 -4.13893 -1.76105 0
M  V30 350 C 31.871 -2.82008 -3.37875 0
M  V30 351 H 28.99 -0.572941 -0.463581 0
M  V30 352 H 31.632 -1.80927 -0.580119 0
M  V30 353 H 29.782 -2.51914 -2.95756 0
M  V30 354 H 31.454 -4.45284 -1.20499 0
M  V30 355 H 29.697 -4.20498 -1.06601 0
M  V30 356 H 30.368 -4.89804 -2.5455 0
M  V30 357 H 32.844 -3.00086 -2.88249 0
M  V30 358 H 31.72 -3.63796 -4.11028 0
M  V30 359 H 31.981 -1.90511 -3.98946 0
M  V30 360 N 31.0401 0.771051 -1.3745 0
M  V30 361 C 32.4511 1.34737 -1.29239 0
M  V30 362 C 32.8021 1.96109 0.0596908 0
M  V30 363 O 31.9271 1.93865 0.961534 0
M  V30 364 C 32.5221 2.44973 -2.34037 0
M  V30 365 C 31.0811 2.98372 -2.29458 0
M  V30 366 C 30.2281 1.71595 -2.17831 0
M  V30 367 H 33.1791 0.571256 -1.48062 0
M  V30 368 H 33.2001 3.24471 -1.98744 0
M  V30 369 H 32.7121 2.00276 -3.32432 0
M  V30 370 H 30.8131 3.47443 -1.34589 0
M  V30 371 H 30.9261 3.53939 -3.229 0
M  V30 372 H 29.2901 1.94547 -1.64388 0
M  V30 373 H 30.0731 1.29001 -3.18141 0
M  V30 374 N 32.5182 1.22032 0.997298 0
M  V30 375 C 33.7462 1.06841 1.7718 0
M  V30 376 C 34.1612 -0.381325 1.84909 0
M  V30 377 O 33.5182 -1.26437 1.31605 0
M  V30 378 C 33.5692 1.66814 3.20711 0
M  V30 379 O 33.2902 3.06116 3.13408 0
M  V30 380 C 34.7912 1.56838 4.14628 0
M  V30 381 H 32.0112 0.374782 0.556578 0
M  V30 382 H 34.5552 1.61532 1.2541 0
M  V30 383 H 32.7102 1.16196 3.69564 0
M  V30 384 H 33.1242 3.34926 4.0364 0
M  V30 385 H 34.5982 2.03532 5.13107 0
M  V30 386 H 35.0752 0.524155 4.36061 0
M  V30 387 H 35.6812 2.06741 3.7167 0
M  V30 388 N 33.9963 -1.19345 1.0293 0
M  V30 389 C 35.2213 -1.93538 0.745511 0
M  V30 390 C 35.6463 -1.75007 -0.689511 0
M  V30 391 O 35.0043 -1.05265 -1.47611 0
M  V30 392 C 35.0523 -3.43336 1.10239 0
M  V30 393 O 34.1563 -4.11806 0.221289 0
M  V30 394 H 33.4973 -0.604193 0.275404 0
M  V30 395 H 36.0273 -1.5141 1.37609 0
M  V30 396 H 36.0373 -3.94004 1.05947 0
M  V30 397 H 34.7123 -3.56146 2.14786 0
M  V30 398 H 33.2893 -3.715 0.322842 0
M  V30 399 N 35.4744 -0.807222 -1.35358 0
M  V30 400 C 36.7204 -0.388463 -1.99045 0
M  V30 401 C 37.0534 1.04184 -1.63888 0
M  V30 402 O 36.3284 1.72292 -0.902535 0
M  V30 403 C 36.6114 -0.572783 -3.55515 0
M  V30 404 C 36.4644 -2.04807 -4.00468 0
M  V30 405 C 37.7834 0.00114064 -4.401 0
M  V30 406 H 34.9024 -0.142619 -0.723069 0
M  V30 407 H 37.5444 -1.01687 -1.60498 0
M  V30 408 H 35.6944 -0.0378425 -3.88482 0
M  V30 409 H 37.3664 -2.64544 -3.77908 0
M  V30 410 H 35.6094 -2.54427 -3.51353 0
M  V30 411 H 36.2804 -2.12792 -5.09337 0
M  V30 412 H 38.7564 -0.455716 -4.13597 0
M  V30 413 H 37.6324 -0.157737 -5.48673 0
M  V30 414 H 37.8934 1.09488 -4.28328 0
M  V30 415 N 36.9525 1.47285 -0.560781 0
M  V30 416 C 38.1995 2.02464 -0.038062 0
M  V30 417 C 38.5275 1.43474 1.31322 0
M  V30 418 O 37.7825 0.581311 1.86867 0
M  V30 419 C 38.0815 3.57258 0.100784 0
M  V30 420 C 37.7475 4.35184 -1.18007 0
M  V30 421 C 36.4095 4.56194 -1.53103 0
M  V30 422 C 38.7615 4.80098 -2.02867 0
M  V30 423 C 36.0895 5.19367 -2.729 0
M  V30 424 C 38.4415 5.44593 -3.21871 0
M  V30 425 C 37.1055 5.63835 -3.57276 0
M  V30 426 H 36.3755 0.740869 -0.0139279 0
M  V30 427 H 39.0225 1.76916 -0.733012 0
M  V30 428 H 37.3275 3.81819 0.878724 0
M  V30 429 H 39.0245 3.97606 0.520639 0
M  V30 430 H 35.6145 4.19113 -0.8968 0
M  V30 431 H 39.7985 4.63642 -1.7706 0
M  V30 432 H 35.0545 5.32459 -3.00496 0
M  V30 433 H 39.2285 5.78358 -3.87911 0
M  V30 434 H 36.8555 6.12557 -4.50197 0
M  V30 435 N 38.4306 0.297415 1.54768 0
M  V30 436 C 39.3936 -0.567375 2.22066 0
M  V30 437 C 40.3936 -1.06409 1.20556 0
M  V30 438 O 41.5836 -0.960691 1.45315 0
M  V30 439 C 38.7156 -1.78517 2.90421 0
M  V30 440 H 39.9086 0.0205534 2.99893 0
M  V30 441 H 37.4616 0.0482163 1.56226 0
M  V30 442 H 38.1966 -2.41303 2.16664 0
M  V30 443 H 37.9816 -1.43669 3.64831 0
M  V30 444 H 39.4716 -2.39964 3.41771 0
M  V30 445 N 39.9087 -1.5758 0.0250728 0
M  V30 446 C 40.8387 -2.13007 -0.956575 0
M  V30 447 C 41.8197 -1.0452 -1.342 0
M  V30 448 O 43.0047 -1.32332 -1.42133 0
M  V30 449 C 40.1347 -2.65386 -2.24026 0
M  V30 450 C 39.0887 -3.78623 -1.99571 0
M  V30 451 C 38.4147 -4.17414 -3.3417 0
M  V30 452 C 39.7147 -5.04867 -1.33814 0
M  V30 453 H 41.4087 -2.9528 -0.494991 0
M  V30 454 H 38.9547 -1.42042 -0.236651 0
M  V30 455 H 40.9077 -3.02794 -2.93076 0
M  V30 456 H 39.6317 -1.80268 -2.72343 0
M  V30 457 H 38.2907 -3.41646 -1.32941 0
M  V30 458 H 37.9387 -3.29284 -3.80238 0
M  V30 459 H 37.6387 -4.93719 -3.18615 0
M  V30 460 H 39.1627 -4.57402 -4.04495 0
M  V30 461 H 40.5767 -5.39888 -1.92857 0
M  V30 462 H 38.9737 -5.86144 -1.28669 0
M  V30 463 H 40.0437 -4.83904 -0.310561 0
M  V30 464 N 41.3868 0.248026 -1.55636 0
M  V30 465 C 42.2968 1.32859 -1.93354 0
M  V30 466 C 43.3128 1.52719 -0.833838 0
M  V30 467 O 44.4888 1.66363 -1.13513 0
M  V30 468 C 41.5538 2.66337 -2.21958 0
M  V30 469 C 40.6148 2.55008 -3.45354 0
M  V30 470 C 39.8478 3.82121 -3.72584 0
M  V30 471 O 40.0708 4.83951 -3.01907 0
M  V30 472 O 39.0048 3.80822 -4.6611 0
M  V30 473 H 42.8308 1.03862 -2.85388 0
M  V30 474 H 40.4158 0.448686 -1.42503 0
M  V30 475 H 42.2978 3.45216 -2.4167 0
M  V30 476 H 40.9728 2.95068 -1.33103 0
M  V30 477 H 39.8798 1.7442 -3.30951 0
M  V30 478 H 41.2128 2.31222 -4.34508 0
M  V30 479 N 42.8649 1.48995 0.513639 0
M  V30 480 C 44.1419 1.48338 1.27495 0
M  V30 481 C 44.5219 0.204065 2.10111 0
M  V30 482 O 43.8699 -0.813881 2.13514 0
M  V30 483 C 44.0799 2.75498 2.14247 0
M  V30 484 C 45.4279 3.24484 2.73852 0
M  V30 485 O 46.4519 2.76528 2.24523 0
M  V30 486 O 45.3109 4.07974 3.6362 0
M  V30 487 H 42.4049 0.593149 0.576284 0
M  V30 488 H 44.9509 1.61246 0.528948 0
M  V30 489 H 43.7229 3.60109 1.53092 0
M  V30 490 H 43.3459 2.6539 2.96064 0
M  V30 491 N 44.343 -0.763751 1.37857 0
M  V30 492 C 45.291 -1.89864 1.34367 0
M  V30 493 C 46.285 -1.67816 0.231143 0
M  V30 494 O 47.491 -1.75508 0.399617 0
M  V30 495 H 43.866 -0.624501 0.41893 0
M  V30 496 H 45.837 -1.89925 2.30155 0
M  V30 497 C 44.586 -3.27227 1.1755 0
M  V30 498 H 43.909 -3.44773 2.02414 0
M  V30 499 H 45.349 -4.06911 1.1916 0
M  V30 500 C 43.808 -3.36692 -0.118311 0
M  V30 501 O 44.338 -3.86374 -1.09902 0
M  V30 502 N 42.544 -2.90092 -0.171717 0
M  V30 503 H 42.091 -2.49853 0.627012 0
M  V30 504 H 42.049 -2.96806 -1.03699 0
M  V30 505 N 45.8211 -1.22559 -0.990812 0
M  V30 506 C 47.0461 -1.07862 -1.77145 0
M  V30 507 C 47.4711 0.366447 -1.84496 0
M  V30 508 O 46.8291 1.26478 -1.29896 0
M  V30 509 C 46.8771 -1.69686 -3.18181 0
M  V30 510 O 45.9811 -0.951946 -4.01263 0
M  V30 511 H 45.3221 -0.378712 -0.545411 0
M  V30 512 H 47.8521 -1.62399 -1.2445 0
M  V30 513 H 47.8621 -1.74496 -3.68802 0
M  V30 514 H 46.5371 -2.74841 -3.12146 0
M  V30 515 H 45.1141 -0.980011 -3.59792 0
M  V30 516 N 47.2992 1.18797 -1.03562 0
M  V30 517 C 48.5242 1.9314 -0.755764 0
M  V30 518 C 48.9492 1.7537 0.68022 0
M  V30 519 O 48.3072 1.06046 1.47051 0
M  V30 520 C 48.3552 3.42747 -1.12058 0
M  V30 521 O 47.4592 4.11683 -0.243124 0
M  V30 522 H 46.8002 0.602724 -0.278604 0
M  V30 523 H 49.3302 1.50678 -1.3841 0
M  V30 524 H 49.3402 3.93437 -1.08035 0
M  V30 525 H 48.0152 3.55002 -2.16672 0
M  V30 526 H 46.5922 3.71323 -0.342539 0
M  V30 527 N 48.7773 0.814389 1.34928 0
M  V30 528 C 50.0053 0.411136 2.02774 0
M  V30 529 C 50.4203 -0.980316 1.61354 0
M  V30 530 O 49.7773 -1.63299 0.814847 0
M  V30 531 C 49.8283 0.493865 3.58111 0
M  V30 532 O 49.5493 1.83047 3.98027 0
M  V30 533 C 51.0503 0.0844174 4.4322 0
M  V30 534 H 48.2703 0.166037 0.650133 0
M  V30 535 H 50.8143 1.10018 1.72384 0
M  V30 536 H 48.9693 -0.147006 3.87121 0
M  V30 537 H 49.3833 1.79872 4.92693 0
M  V30 538 H 50.8573 0.193404 5.51661 0
M  V30 539 H 51.3343 -0.97113 4.28329 0
M  V30 540 H 51.9403 0.69875 4.19521 0
M  V30 541 N 50.2554 -1.46986 0.568584 0
M  V30 542 C 51.1854 -2.32946 -0.160753 0
M  V30 543 C 52.1664 -1.44487 -0.897631 0
M  V30 544 O 53.3514 -1.73327 -0.875867 0
M  V30 545 C 50.4814 -3.26494 -1.18403 0
M  V30 546 C 49.4354 -4.24282 -0.562895 0
M  V30 547 C 48.7614 -5.07236 -1.69163 0
M  V30 548 C 50.0614 -5.19989 0.490761 0
M  V30 549 H 51.7554 -2.94175 0.556916 0
M  V30 550 H 49.3014 -1.4146 0.26927 0
M  V30 551 H 51.2544 -3.85477 -1.70251 0
M  V30 552 H 49.9784 -2.63343 -1.93179 0
M  V30 553 H 48.6374 -3.66541 -0.0656164 0
M  V30 554 H 48.2854 -4.4048 -2.42871 0
M  V30 555 H 47.9854 -5.7345 -1.28174 0
M  V30 556 H 49.5094 -5.6908 -2.21314 0
M  V30 557 H 50.9234 -5.73271 0.0579047 0
M  V30 558 H 49.3204 -5.94469 0.820165 0
M  V30 559 H 50.3904 -4.64777 1.3824 0
M  V30 560 N 51.7335 -0.305618 -1.54608 0
M  V30 561 C 53.1445 0.186098 -1.8577 0
M  V30 562 C 53.4955 1.53058 -1.22751 0
M  V30 563 O 52.6205 2.09888 -0.526893 0
M  V30 564 C 53.2155 0.344449 -3.37044 0
M  V30 565 C 51.7745 0.780384 -3.68221 0
M  V30 566 C 50.9215 -0.108554 -2.77087 0
M  V30 567 H 53.8725 -0.526485 -1.49712 0
M  V30 568 H 53.8935 1.17828 -3.61796 0
M  V30 569 H 53.4055 -0.634235 -3.82883 0
M  V30 570 H 51.5065 1.76945 -3.27904 0
M  V30 571 H 51.6195 0.596572 -4.75371 0
M  V30 572 H 49.9835 0.412931 -2.5133 0
M  V30 573 H 50.7665 -1.08368 -3.25747 0
M  V30 574 N 53.2116 1.57565 -0.0334293 0
M  V30 575 C 54.6226 1.79746 0.504798 0
M  V30 576 C 54.9736 0.944091 1.71992 0
M  V30 577 O 54.0986 0.155694 2.15839 0
M  V30 578 C 54.6936 3.25997 0.922567 0
M  V30 579 C 53.2526 3.49159 1.40588 0
M  V30 580 C 52.3996 2.74785 0.372633 0
M  V30 581 H 55.3506 1.56565 -0.259436 0
M  V30 582 H 55.3716 3.35945 1.78666 0
M  V30 583 H 54.8836 3.88081 0.0379825 0
M  V30 584 H 52.9846 2.92332 2.31025 0
M  V30 585 H 53.0976 4.57873 1.41028 0
M  V30 586 H 51.4616 2.40391 0.841672 0
M  V30 587 H 52.2446 3.39587 -0.503559 0
M  V30 588 N 54.6897 -0.239769 1.55765 0
M  V30 589 C 55.9197 -0.982743 1.8173 0
M  V30 590 C 56.3277 -1.7917 0.607835 0
M  V30 591 O 55.6707 -1.78525 -0.432973 0
M  V30 592 C 55.7327 -1.96332 3.01155 0
M  V30 593 C 55.3967 -1.34062 4.36894 0
M  V30 594 C 56.3937 -0.739539 5.14613 0
M  V30 595 C 54.0787 -1.35784 4.83599 0
M  V30 596 C 56.0727 -0.163989 6.37189 0
M  V30 597 C 53.7597 -0.778441 6.06122 0
M  V30 598 C 54.7577 -0.182548 6.82756 0
M  V30 599 O 54.4457 0.387887 8.02964 0
M  V30 600 H 54.1777 -0.294481 0.608487 0
M  V30 601 H 56.7317 -0.26572 2.03674 0
M  V30 602 H 54.9617 -2.71884 2.74984 0
M  V30 603 H 56.6507 -2.57032 3.14149 0
M  V30 604 H 57.4167 -0.718687 4.79646 0
M  V30 605 H 53.2957 -1.81105 4.23936 0
M  V30 606 H 56.8397 0.301753 6.96947 0
M  V30 607 H 52.7367 -0.796645 6.40565 0
M  V30 608 H 53.5047 0.28044 8.18019 0
M  V30 609 N 56.1678 -1.49265 -0.50573 0
M  V30 610 C 57.1148 -1.65585 -1.6078 0
M  V30 611 C 58.0848 -0.497396 -1.58478 0
M  V30 612 O 59.2698 -0.72385 -1.76536 0
M  V30 613 C 56.4098 -1.72408 -2.98948 0
M  V30 614 C 55.5228 -2.99525 -3.11301 0
M  V30 615 C 54.6578 -2.97356 -4.40174 0
M  V30 616 C 53.6968 -4.19074 -4.46143 0
M  V30 617 N 52.8338 -4.14841 -5.66437 0
M  V30 618 H 57.6738 -2.59688 -1.46172 0
M  V30 619 H 55.2108 -1.28761 -0.711261 0
M  V30 620 H 57.1688 -1.74344 -3.79025 0
M  V30 621 H 55.7988 -0.817753 -3.1227 0
M  V30 622 H 54.8508 -3.07222 -2.24318 0
M  V30 623 H 56.1628 -3.89518 -3.11572 0
M  V30 624 H 55.3168 -2.97829 -5.28567 0
M  V30 625 H 54.0558 -2.05133 -4.42461 0
M  V30 626 H 53.0608 -4.1885 -3.56153 0
M  V30 627 H 54.2858 -5.12483 -4.45575 0
M  V30 628 H 52.2318 -3.25453 -5.69575 0
M  V30 629 H 52.1488 -4.98564 -5.68304 0
M  V30 630 H 53.4168 -4.1941 -6.57051 0
M  V30 631 N 57.6459 0.756429 -1.3826 0
M  V30 632 C 58.5939 1.89149 -1.35372 0
M  V30 633 C 59.5879 1.67691 -0.24004 0
M  V30 634 O 60.7939 1.75294 -0.408919 0
M  V30 635 H 57.1689 0.622271 -0.422236 0
M  V30 636 H 59.1399 1.88701 -2.31159 0
M  V30 637 C 57.8889 3.26599 -1.19284 0
M  V30 638 H 57.2119 3.43695 -2.0424 0
M  V30 639 H 58.6519 4.06274 -1.21316 0
M  V30 640 C 57.1109 3.3675 0.100454 0
M  V30 641 O 57.6409 3.86951 1.07851 0
M  V30 642 N 55.8469 2.90179 0.15633 0
M  V30 643 H 55.3939 2.49517 -0.640253 0
M  V30 644 H 55.3519 2.97352 1.02123 0
M  V30 645 N 59.124 1.23083 0.984299 0
M  V30 646 C 60.401 0.9689 1.69917 0
M  V30 647 C 60.781 -0.513604 2.04757 0
M  V30 648 O 60.129 -1.48383 1.73767 0
M  V30 649 C 60.339 1.87518 2.94343 0
M  V30 650 C 61.687 2.13636 3.6694 0
M  V30 651 O 62.711 1.85036 3.04368 0
M  V30 652 O 61.57 2.62119 4.79537 0
M  V30 653 H 58.664 0.365095 0.742048 0
M  V30 654 H 61.21 1.34107 1.03987 0
M  V30 655 H 59.982 2.87756 2.65164 0
M  V30 656 H 59.605 1.50514 3.6801 0
M  V30 657 N 60.6021 -1.18246 1.0419 0
M  V30 658 C 61.5321 -2.24127 0.654914 0
M  V30 659 C 62.5131 -1.66617 -0.342451 0
M  V30 660 O 63.6981 -1.92924 -0.222277 0
M  V30 661 C 60.8281 -3.47295 0.0183757 0
M  V30 662 C 59.7821 -4.17563 0.939414 0
M  V30 663 C 59.1081 -5.34438 0.167286 0
M  V30 664 C 60.4081 -4.70917 2.25908 0
M  V30 665 H 62.1021 -2.56753 1.54007 0
M  V30 666 H 59.6481 -1.23414 0.74195 0
M  V30 667 H 61.6011 -4.20572 -0.264082 0
M  V30 668 H 60.3251 -3.13907 -0.901664 0
M  V30 669 H 58.9841 -3.46186 1.20628 0
M  V30 670 H 58.6321 -4.97298 -0.7552 0
M  V30 671 H 58.3321 -5.82388 0.780901 0
M  V30 672 H 59.8561 -6.10504 -0.108125 0
M  V30 673 H 61.2701 -5.35882 2.03724 0
M  V30 674 H 59.6671 -5.29406 2.82577 0
M  V30 675 H 60.7371 -3.88272 2.9047 0
M  V30 676 N 62.0802 -0.821533 -1.34494 0
M  V30 677 C 63.0102 -0.257138 -2.3208 0
M  V30 678 C 63.9912 0.625645 -1.58176 0
M  V30 679 O 65.1762 0.552811 -1.86166 0
M  V30 680 C 62.3062 0.582958 -3.42372 0
M  V30 681 C 61.2602 -0.202571 -4.2752 0
M  V30 682 C 60.5862 0.760179 -5.29269 0
M  V30 683 C 61.8862 -1.40998 -5.02908 0
M  V30 684 H 63.5802 -1.07247 -2.79532 0
M  V30 685 H 61.1262 -0.517163 -1.34393 0
M  V30 686 H 63.0792 0.987972 -4.09655 0
M  V30 687 H 61.8032 1.43133 -2.93565 0
M  V30 688 H 60.4622 -0.588936 -3.61838 0
M  V30 689 H 60.1102 1.60447 -4.76724 0
M  V30 690 H 59.8102 0.238809 -5.87115 0
M  V30 691 H 61.3342 1.16308 -5.9942 0
M  V30 692 H 62.7482 -1.07905 -5.63054 0
M  V30 693 H 61.1452 -1.86689 -5.70322 0
M  V30 694 H 62.2152 -2.1889 -4.32684 0
M  V30 695 N 63.5583 1.46682 -0.576371 0
M  V30 696 C 64.7883 2.06498 -0.0648694 0
M  V30 697 C 65.1963 1.42665 1.24271 0
M  V30 698 O 64.5393 0.523886 1.76071 0
M  V30 699 C 64.6013 3.5904 0.181816 0
M  V30 700 C 64.2653 4.45028 -1.0392 0
M  V30 701 C 65.2623 4.81959 -1.94966 0
M  V30 702 C 62.9473 4.86259 -1.25927 0
M  V30 703 C 64.9413 5.58942 -3.06371 0
M  V30 704 C 62.6283 5.63002 -2.37638 0
M  V30 705 C 63.6263 5.99257 -3.2769 0
M  V30 706 O 63.3143 6.7445 -4.37461 0
M  V30 707 H 63.0463 0.674028 -0.0515987 0
M  V30 708 H 65.6003 1.89393 -0.794951 0
M  V30 709 H 63.8303 3.74429 0.966436 0
M  V30 710 H 65.5193 4.00806 0.641047 0
M  V30 711 H 66.2853 4.50689 -1.79177 0
M  V30 712 H 62.1643 4.57494 -0.567448 0
M  V30 713 H 65.7083 5.87158 -3.76684 0
M  V30 714 H 61.6053 5.93686 -2.53392 0
M  V30 715 H 62.3733 6.92867 -4.35749 0
M  V30 716 N 65.0364 0.313813 1.54444 0
M  V30 717 C 65.9464 -0.565714 2.27677 0
M  V30 718 C 66.9624 -1.13754 1.31666 0
M  V30 719 O 68.1384 -1.15959 1.64668 0
M  V30 720 C 65.2034 -1.71528 3.01296 0
M  V30 721 C 64.2644 -1.17624 4.12872 0
M  V30 722 C 63.4974 -2.27102 4.8297 0
M  V30 723 O 63.7204 -3.47256 4.52514 0
M  V30 724 O 62.6544 -1.9307 5.70094 0
M  V30 725 H 66.4804 0.0287296 3.03686 0
M  V30 726 H 64.0654 0.0798312 1.49187 0
M  V30 727 H 65.9474 -2.38476 3.4743 0
M  V30 728 H 64.6224 -2.29608 2.2817 0
M  V30 729 H 63.5294 -0.472124 3.71109 0
M  V30 730 H 64.8624 -0.640695 4.88012 0
M  V30 731 N 66.5145 -1.57545 0.0417849 0
M  V30 732 C 67.9305 -1.56467 -0.314704 0
M  V30 733 C 68.1305 -1.04859 -1.72066 0
M  V30 734 O 67.1865 -0.700983 -2.42575 0
M  V30 735 C 68.4995 -3.00317 -0.15174 0
M  V30 736 C 70.0475 -3.12201 -0.223553 0
M  V30 737 C 70.5225 -4.57913 -0.0892295 0
M  V30 738 N 72.0135 -4.6297 -0.145808 0
M  V30 739 C 72.7485 -5.73362 -0.0658459 0
M  V30 740 N 72.2445 -6.92769 0.0659282 0
M  V30 741 N 74.0375 -5.6197 -0.12075 0
M  V30 742 H 66.1885 -1.89416 0.961014 0
M  V30 743 H 68.4515 -0.871862 0.372237 0
M  V30 744 H 68.1575 -3.42073 0.817254 0
M  V30 745 H 68.0315 -3.65892 -0.916692 0
M  V30 746 H 70.4185 -2.70349 -1.18301 0
M  V30 747 H 70.4995 -2.49323 0.571994 0
M  V30 748 H 70.1435 -5.00448 0.866867 0
M  V30 749 H 70.0735 -5.18786 -0.903802 0
M  V30 750 H 72.5645 -3.7709 -0.247286 0
M  V30 751 H 72.8775 -7.72707 0.119905 0
M  V30 752 H 71.2225 -6.94927 0.100885 0
M  V30 753 H 74.4135 -4.67572 -0.222187 0
M  V30 754 H 74.5865 -6.47977 -0.0549735 0
M  V30 755 N 67.9926 0.231505 -1.5589 0
M  V30 756 C 69.2206 0.974505 -1.82513 0
M  V30 757 C 69.6356 1.78344 -0.619591 0
M  V30 758 O 68.9926 1.77792 0.411848 0
M  V30 759 C 69.0436 1.90007 -3.07538 0
M  V30 760 O 68.7646 1.12385 -4.2344 0
M  V30 761 C 70.2656 2.75779 -3.47075 0
M  V30 762 H 67.4856 0.286065 -0.606966 0
M  V30 763 H 70.0296 0.249739 -2.02969 0
M  V30 764 H 68.1846 2.57891 -2.89086 0
M  V30 765 H 68.5986 1.75125 -4.944 0
M  V30 766 H 70.0726 3.36443 -4.37619 0
M  V30 767 H 70.5496 3.47672 -2.68367 0
M  V30 768 H 71.1556 2.13323 -3.67931 0
M  V30 769 N 69.4707 1.49531 0.497807 0
M  V30 770 C 70.7177 1.59179 1.25173 0
M  V30 771 C 71.0457 0.279932 1.92475 0
M  V30 772 O 70.3007 -0.732383 1.81479 0
M  V30 773 C 70.5997 2.70252 2.33878 0
M  V30 774 C 70.2657 4.11644 1.84012 0
M  V30 775 C 68.9277 4.50121 1.70132 0
M  V30 776 C 71.2797 5.00121 1.46725 0
M  V30 777 C 68.6077 5.74845 1.17348 0
M  V30 778 C 70.9597 6.25366 0.95392 0
M  V30 779 C 69.6237 6.6267 0.801538 0
M  V30 780 H 68.8937 0.582478 0.45804 0
M  V30 781 H 71.5407 1.83373 0.551948 0
M  V30 782 H 69.8457 2.40041 3.09657 0
M  V30 783 H 71.5427 2.74925 2.9192 0
M  V30 784 H 68.1327 3.81274 1.95775 0
M  V30 785 H 72.3167 4.71048 1.56294 0
M  V30 786 H 67.5727 6.02444 1.04264 0
M  V30 787 H 71.7467 6.93301 0.656225 0
M  V30 788 H 69.3737 7.59197 0.390351 0
M  V30 789 N 70.9488 -0.749086 1.3866 0
M  V30 790 C 72.2258 -1.4992 1.25632 0
M  V30 791 C 72.6058 -2.10633 -0.140317 0
M  V30 792 O 71.9538 -1.97437 -1.15025 0
M  V30 793 C 72.1638 -2.56195 2.36992 0
M  V30 794 C 73.5118 -3.22972 2.75634 0
M  V30 795 O 74.5358 -2.66502 2.36337 0
M  V30 796 O 73.3948 -4.25122 3.43415 0
M  V30 797 H 70.4888 -0.665067 0.491544 0
M  V30 798 H 73.0348 -0.784113 1.50498 0
M  V30 799 H 71.8068 -2.09612 3.30422 0
M  V30 800 H 71.4298 -3.35279 2.13714 0
M  V30 801 N 72.4269 -1.23603 -0.977757 0
M  V30 802 C 73.3369 -1.03632 -2.1047 0
M  V30 803 C 74.3529 0.0199435 -1.73989 0
M  V30 804 O 75.5289 -0.176076 -2.00629 0
M  V30 805 C 72.5939 -0.63276 -3.40877 0
M  V30 806 C 71.6549 -1.76437 -3.91367 0
M  V30 807 C 70.8879 -1.37997 -5.15551 0
M  V30 808 O 71.1109 -0.265357 -5.69782 0
M  V30 809 O 70.0449 -2.20201 -5.60174 0
M  V30 810 H 73.8709 -1.98086 -2.30208 0
M  V30 811 H 71.4559 -1.02332 -1.08851 0
M  V30 812 H 73.3379 -0.418761 -4.19314 0
M  V30 813 H 72.0129 0.282754 -3.22463 0
M  V30 814 H 70.9199 -2.03304 -3.14036 0
M  V30 815 H 72.2529 -2.6583 -4.14241 0
M  V30 816 N 73.905 1.17692 -1.04816 0
M  V30 817 C 75.153 1.87488 -0.754497 0
M  V30 818 C 75.474 1.81205 0.720407 0
M  V30 819 O 74.744 1.23544 1.52032 0
M  V30 820 H 73.324 0.694101 -0.276102 0
M  V30 821 H 75.986 1.42793 -1.32651 0
M  V30 822 H 75.082 2.93328 -1.06606 0
M  V30 823 N 75.3831 0.828654 1.34056 0
M  V30 824 C 76.3131 0.269443 2.3194 0
M  V30 825 C 77.2941 -0.617247 1.58506 0
M  V30 826 O 78.4791 -0.542931 1.86456 0
M  V30 827 C 75.6091 -0.564793 3.42677 0
M  V30 828 C 74.5631 0.225241 4.27407 0
M  V30 829 C 73.8891 -0.7321 5.29664 0
M  V30 830 C 75.1891 1.43663 5.02154 0
M  V30 831 H 76.8831 1.08728 2.7896 0
M  V30 832 H 74.4291 0.524283 1.34117 0
M  V30 833 H 76.3821 -0.966233 4.10173 0
M  V30 834 H 75.1061 -1.41574 2.9432 0
M  V30 835 H 73.7651 0.608117 3.61521 0
M  V30 836 H 73.4131 -1.57916 4.77568 0
M  V30 837 H 73.1131 -0.20767 5.87233 0
M  V30 838 H 74.6371 -1.13128 6.00029 0
M  V30 839 H 76.0511 1.1089 5.62473 0
M  V30 840 H 74.4481 1.89711 5.69324 0
M  V30 841 H 75.5181 2.21181 4.31517 0
M  V30 842 N 76.8612 -1.46375 0.584142 0
M  V30 843 C 78.1012 -2.0427 0.0729695 0
M  V30 844 C 78.4652 -1.44563 -1.26355 0
M  V30 845 O 79.6662 -1.93667 -1.86405 0
M  V30 846 C 77.9372 -3.57399 0.00967464 0
M  V30 847 S 79.4962 -4.36551 -0.443714 0
M  V30 848 H 76.3142 -0.709975 0.0381673 0
M  V30 849 H 78.9162 -1.79398 0.776962 0
M  V30 850 H 77.6202 -3.98372 0.986319 0
M  V30 851 H 77.1512 -3.8681 -0.717044 0
M  V30 852 H 79.1662 -4.66237 -1.69816 0
M  V30 853 N 78.3393 -0.321999 -1.54275 0
M  V30 854 C 79.5693 0.282642 -2.04658 0
M  V30 855 C 79.9773 1.46453 -1.19784 0
M  V30 856 O 79.3203 1.82367 -0.220932 0
M  V30 857 C 79.3823 0.781857 -3.50895 0
M  V30 858 C 79.0463 -0.277517 -4.56157 0
M  V30 859 C 80.0433 -1.11307 -5.07845 0
M  V30 860 C 77.7283 -0.425256 -5.00497 0
M  V30 861 C 79.7223 -2.08211 -6.02434 0
M  V30 862 C 77.4093 -1.39771 -5.94901 0
M  V30 863 C 78.4073 -2.2246 -6.45756 0
M  V30 864 O 78.0953 -3.18054 -7.38307 0
M  V30 865 H 77.8273 0.0622636 -0.673126 0
M  V30 866 H 80.3813 -0.465792 -2.00049 0
M  V30 867 H 78.6113 1.58118 -3.52896 0
M  V30 868 H 80.3003 1.30467 -3.84361 0
M  V30 869 H 81.0663 -1.00991 -4.74369 0
M  V30 870 H 76.9453 0.20847 -4.60528 0
M  V30 871 H 80.4893 -2.72791 -6.42052 0
M  V30 872 H 76.3863 -1.50152 -6.27794 0
M  V30 873 H 77.1543 -3.13275 -7.56175 0
M  V30 874 N 79.8174 1.5752 -0.0501392 0
M  V30 875 C 81.2284 1.80271 0.485705 0
M  V30 876 C 81.5794 0.96228 1.70981 0
M  V30 877 O 80.7044 0.178578 2.15662 0
M  V30 878 C 81.2994 3.26957 0.887938 0
M  V30 879 C 79.8584 3.5063 1.36877 0
M  V30 880 C 79.0054 2.75165 0.343468 0
M  V30 881 H 81.9564 1.56281 -0.276028 0
M  V30 882 H 81.9774 3.37821 1.75093 0
M  V30 883 H 81.4894 3.881 -0.0031809 0
M  V30 884 H 79.5904 2.94766 2.27911 0
M  V30 885 H 79.7034 4.59343 1.36164 0
M  V30 886 H 78.0674 2.4127 0.816128 0
M  V30 887 H 78.8504 3.39034 -0.539548 0
M  V30 888 N 81.2955 -0.223234 1.56011 0
M  V30 889 C 82.5415 -0.944891 1.8012 0
M  V30 890 C 82.8965 -1.82039 0.622862 0
M  V30 891 O 82.1895 -1.8773 -0.383143 0
M  V30 892 C 82.3835 -1.81948 3.0762 0
M  V30 893 C 82.2125 -1.03014 4.37742 0
M  V30 894 C 80.9825 -0.72574 5.00061 0
M  V30 895 C 83.1805 -0.396256 5.12771 0
M  V30 896 N 81.1625 0.0851816 6.13841 0
M  V30 897 C 82.5335 0.278137 6.19376 0
M  V30 898 C 84.5885 -0.309117 4.9694 0
M  V30 899 C 83.2915 1.03133 7.11868 0
M  V30 900 C 85.3175 0.430607 5.8983 0
M  V30 901 C 84.6795 1.09355 6.9586 0
M  V30 902 H 80.7785 -0.326081 0.710771 0
M  V30 903 H 83.3625 -0.215914 1.93499 0
M  V30 904 H 81.5335 -2.52029 2.95527 0
M  V30 905 H 83.2655 -2.47848 3.19927 0
M  V30 906 H 80.0205 -1.04335 4.61964 0
M  V30 907 H 80.4445 0.479428 6.753 0
M  V30 908 H 85.0865 -0.807313 4.15021 0
M  V30 909 H 82.8045 1.54105 7.9327 0
M  V30 910 H 86.3905 0.499012 5.79656 0
M  V30 911 H 85.2705 1.65679 7.66499 0
M  V30 912 N 82.7736 -1.49793 -0.48987 0
M  V30 913 C 83.7236 -1.63673 -1.5873 0
M  V30 914 C 84.7076 -0.491956 -1.53195 0
M  V30 915 O 85.8996 -0.745461 -1.60536 0
M  V30 916 C 83.0286 -1.71689 -2.97284 0
M  V30 917 C 82.1146 -2.91781 -3.07774 0
M  V30 918 N 82.5056 -4.15714 -2.88124 0
M  V30 919 C 80.8036 -2.89949 -3.38889 0
M  V30 920 C 81.5046 -4.965 -3.03088 0
M  V30 921 N 80.4806 -4.30083 -3.3246 0
M  V30 922 H 84.2826 -2.57204 -1.42208 0
M  V30 923 H 81.7966 -1.46719 -0.69623 0
M  V30 924 H 83.7936 -1.79732 -3.76168 0
M  V30 925 H 82.4536 -0.793024 -3.14867 0
M  V30 926 H 83.4646 -4.45515 -2.64077 0
M  V30 927 H 80.1416 -2.06987 -3.62578 0
M  V30 928 H 81.5316 -6.04991 -2.92294 0
M  V30 929 N 84.2517 0.741722 -1.39055 0
M  V30 930 C 85.4797 1.53098 -1.39171 0
M  V30 931 C 85.8947 1.88794 0.0155099 0
M  V30 932 O 85.2517 1.53626 0.985159 0
M  V30 933 C 85.3027 2.82274 -2.2584 0
M  V30 934 O 85.0237 2.48097 -3.61081 0
M  V30 935 C 86.5247 3.76343 -2.34266 0
M  V30 936 H 83.7447 0.473335 -0.4756 0
M  V30 937 H 86.2887 0.917045 -1.82785 0
M  V30 938 H 84.4437 3.40015 -1.85656 0
M  V30 939 H 84.8577 3.31029 -4.06842 0
M  V30 940 H 86.3317 4.63898 -2.9917 0
M  V30 941 H 86.8087 4.17619 -1.35982 0
M  V30 942 H 87.4147 3.24523 -2.74891 0
M  V30 943 N 85.7298 1.2412 0.971189 0
M  V30 944 C 86.9698 1.09066 1.7287 0
M  V30 945 C 87.3338 -0.364794 1.88503 0
M  V30 946 O 88.5348 -0.636748 2.61149 0
M  V30 947 C 86.8058 1.80629 3.08396 0
M  V30 948 S 88.3648 1.81263 3.99611 0
M  V30 949 H 85.1828 0.390145 0.594397 0
M  V30 950 H 87.7848 1.57397 1.15959 0
M  V30 951 H 86.4888 2.85647 2.94676 0
M  V30 952 H 86.0198 1.32617 3.70373 0
M  V30 953 H 88.0348 0.877804 4.88374 0
M  V30 954 N 87.2079 -1.17134 1.05439 0
M  V30 955 C 88.1179 -2.24878 0.668365 0
M  V30 956 C 89.1339 -1.71186 -0.311687 0
M  V30 957 O 90.3099 -2.00738 -0.163161 0
M  V30 958 C 87.3749 -3.46662 0.051648 0
M  V30 959 C 86.4359 -4.15429 1.08246 0
M  V30 960 C 85.6689 -5.31399 0.495082 0
M  V30 961 O 85.8919 -5.66153 -0.694743 0
M  V30 962 O 84.8259 -5.89187 1.23056 0
M  V30 963 H 88.6519 -2.60189 1.56637 0
M  V30 964 H 86.2369 -1.24482 0.826104 0
M  V30 965 H 88.1189 -4.20394 -0.290966 0
M  V30 966 H 86.7939 -3.13142 -0.819971 0
M  V30 967 H 85.7009 -3.43704 1.47711 0
M  V30 968 H 87.0339 -4.52982 1.92532 0
M  V30 969 N 88.686 -0.835752 -1.33615 0
M  V30 970 C 89.963 -0.352017 -1.92406 0
M  V30 971 C 90.343 1.16225 -1.76224 0
M  V30 972 O 89.691 1.97526 -1.14873 0
M  V30 973 C 89.901 -0.795485 -3.39813 0
M  V30 974 C 91.249 -0.801703 -4.16963 0
M  V30 975 O 92.273 -0.738889 -3.48452 0
M  V30 976 O 91.132 -0.886607 -5.3926 0
M  V30 977 H 88.226 -0.0989641 -0.821057 0
M  V30 978 H 90.772 -0.921397 -1.42507 0
M  V30 979 H 89.544 -1.83795 -3.45449 0
M  V30 980 H 89.167 -0.202505 -3.97084 0
M  V30 981 N 90.1641 1.46063 -0.591896 0
M  V30 982 C 91.3891 2.07226 -0.0850314 0
M  V30 983 C 91.8141 1.43625 1.21463 0
M  V30 984 O 91.1721 0.523305 1.73583 0
M  V30 985 C 91.2201 3.60554 0.0576567 0
M  V30 986 O 90.3241 3.97128 1.11188 0
M  V30 987 H 89.6651 0.660615 -0.0669568 0
M  V30 988 H 92.1951 1.8756 -0.81745 0
M  V30 989 H 92.2051 4.07165 0.2609 0
M  V30 990 H 90.8801 4.06235 -0.891416 0
M  V30 991 H 89.4571 3.62213 0.886356 0
M  V30 992 N 91.6422 0.330177 1.54103 0
M  V30 993 C 92.8902 -0.269871 2.0029 0
M  V30 994 C 93.2112 -1.52133 1.21986 0
M  V30 995 O 92.4812 -1.93212 0.323438 0
M  V30 996 H 91.0612 -0.10271 0.739905 0
M  V30 997 H 93.7232 0.448249 1.89675 0
M  V30 998 H 92.8192 -0.52166 3.07709 0
M  V30 999 N 93.1203 -1.57491 0.0584922 0
M  V30 1000 C 94.3683 -1.92597 -0.612436 0
M  V30 1001 C 94.6893 -0.938162 -1.70949 0
M  V30 1002 O 93.9593 0.0158301 -1.95894 0
M  V30 1003 H 92.5393 -0.710964 -0.229214 0
M  V30 1004 H 95.2013 -1.94571 0.113218 0
M  V30 1005 H 94.2973 -2.94038 -1.04633 0
M  V30 1006 N 94.5984 0.214957 -1.56127 0
M  V30 1007 C 95.5454 1.26642 -1.92952 0
M  V30 1008 C 96.5154 1.46244 -0.78753 0
M  V30 1009 O 97.7004 1.59704 -1.04399 0
M  V30 1010 C 94.8404 2.6104 -2.25726 0
M  V30 1011 C 93.9534 2.49183 -3.52891 0
M  V30 1012 C 93.0884 3.76149 -3.7508 0
M  V30 1013 C 92.1274 3.59041 -4.95738 0
M  V30 1014 N 91.2644 4.77972 -5.14283 0
M  V30 1015 H 96.1044 0.945384 -2.82607 0
M  V30 1016 H 93.6414 0.455489 -1.3987 0
M  V30 1017 H 95.5994 3.39313 -2.42739 0
M  V30 1018 H 94.2294 2.91227 -1.39236 0
M  V30 1019 H 93.2814 1.6231 -3.44034 0
M  V30 1020 H 94.5934 2.32466 -4.41318 0
M  V30 1021 H 93.7474 4.62865 -3.92226 0
M  V30 1022 H 92.4864 3.95799 -2.84947 0
M  V30 1023 H 91.4914 2.7071 -4.78535 0
M  V30 1024 H 92.7164 3.40856 -5.87362 0
M  V30 1025 H 90.6624 4.97923 -4.27093 0
M  V30 1026 H 90.5794 4.64006 -5.96853 0
M  V30 1027 H 91.8474 5.66096 -5.35869 0
M  V30 1028 N 96.0765 1.50051 0.48192 0
M  V30 1029 C 97.3165 1.62128 1.24474 0
M  V30 1030 C 97.6805 0.309742 1.89485 0
M  V30 1031 O 98.8815 0.305854 2.67054 0
M  V30 1032 C 97.1525 2.76151 2.26882 0
M  V30 1033 S 98.7115 3.08297 3.12247 0
M  V30 1034 H 95.5295 0.571661 0.422759 0
M  V30 1035 H 98.1315 1.87791 0.54359 0
M  V30 1036 H 96.8355 3.69942 1.77683 0
M  V30 1037 H 96.3665 2.52541 3.0164 0
M  V30 1038 H 98.3815 2.51287 4.27866 0
M  V30 1039 N 97.5546 -0.734337 1.39446 0
M  V30 1040 C 98.7796 -1.52866 1.40167 0
M  V30 1041 C 99.2046 -1.881 -0.00171513 0
M  V30 1042 O 98.5626 -1.51957 -0.988879 0
M  V30 1043 C 98.6106 -2.79235 2.28167 0
M  V30 1044 O 97.7146 -3.75185 1.71201 0
M  V30 1045 H 97.0556 -0.461618 0.477289 0
M  V30 1046 H 99.5856 -0.905949 1.8345 0
M  V30 1047 H 99.5956 -3.27963 2.42702 0
M  V30 1048 H 98.2706 -2.52923 3.30156 0
M  V30 1049 H 96.8476 -3.33958 1.65912 0
M  V30 1050 N 99.0327 -1.24633 -0.964593 0
M  V30 1051 C 100.28 -1.08788 -1.70796 0
M  V30 1052 C 100.608 0.372783 -1.90894 0
M  V30 1053 O 99.8627 1.29167 -1.47018 0
M  V30 1054 C 100.162 -1.7763 -3.10133 0
M  V30 1055 C 99.8277 -3.27557 -3.09866 0
M  V30 1056 C 98.4897 -3.6846 -3.09501 0
M  V30 1057 C 100.842 -4.23389 -3.03959 0
M  V30 1058 C 98.1697 -5.03624 -3.00965 0
M  V30 1059 C 100.522 -5.58565 -2.96965 0
M  V30 1060 C 99.1857 -5.98809 -2.9493 0
M  V30 1061 H 98.4557 -0.398084 -0.624988 0
M  V30 1062 H 101.103 -1.54777 -1.12767 0
M  V30 1063 H 99.4077 -1.24044 -3.71645 0
M  V30 1064 H 101.105 -1.62832 -3.66451 0
M  V30 1065 H 97.6947 -2.95006 -3.10917 0
M  V30 1066 H 101.879 -3.92787 -3.03368 0
M  V30 1067 H 97.1347 -5.33998 -2.97752 0
M  V30 1068 H 101.309 -6.32523 -2.91354 0
M  V30 1069 H 98.9357 -7.03505 -2.88071 0
M  V30 1070 N 100.511 1.16574 -1.06058 0
M  V30 1071 C 101.788 1.83048 -0.689416 0
M  V30 1072 C 102.168 1.94122 0.829443 0
M  V30 1073 O 101.516 1.48249 1.7388 0
M  V30 1074 C 101.726 3.20186 -1.38859 0
M  V30 1075 C 103.074 3.95989 -1.53226 0
M  V30 1076 O 104.098 3.29696 -1.3483 0
M  V30 1077 O 102.957 5.14813 -1.83384 0
M  V30 1078 H 100.051 0.790258 -0.243764 0
M  V30 1079 H 102.597 1.23797 -1.16071 0
M  V30 1080 H 101.369 3.07146 -2.4244 0
M  V30 1081 H 100.992 3.87112 -0.907216 0
M  V30 1082 N 101.989 0.842826 1.3317 0
M  V30 1083 C 103.235 0.441099 1.97945 0
M  V30 1084 C 103.568 -0.998024 1.66593 0
M  V30 1085 O 102.843 -1.69839 0.947898 0
M  V30 1086 C 103.126 0.666841 3.53872 0
M  V30 1087 C 102.979 2.15352 3.94897 0
M  V30 1088 C 104.298 0.115544 4.39948 0
M  V30 1089 H 101.417 0.161739 0.719034 0
M  V30 1090 H 104.059 1.05907 1.57746 0
M  V30 1091 H 102.209 0.140828 3.88245 0
M  V30 1092 H 103.881 2.7447 3.70761 0
M  V30 1093 H 102.124 2.63653 3.44484 0
M  V30 1094 H 102.795 2.26221 5.03516 0
M  V30 1095 H 105.271 0.565213 4.12243 0
M  V30 1096 H 104.147 0.303152 5.48062 0
M  V30 1097 H 104.408 -0.980935 4.3108 0
M  V30 1098 N 103.467 -1.45747 0.599634 0
M  V30 1099 C 104.713 -2.02592 0.0918643 0
M  V30 1100 C 105.046 -1.46806 -1.27128 0
M  V30 1101 O 104.321 -0.639658 -1.83681 0
M  V30 1102 C 104.604 -3.60073 0.0443398 0
M  V30 1103 C 104.457 -4.26208 1.43759 0
M  V30 1104 C 105.776 -4.35309 -0.647608 0
M  V30 1105 H 102.895 -0.736175 0.034857 0
M  V30 1106 H 105.537 -1.73694 0.770081 0
M  V30 1107 H 103.687 -3.84823 -0.533224 0
M  V30 1108 H 105.359 -4.12668 2.06162 0
M  V30 1109 H 103.602 -3.84916 2.00056 0
M  V30 1110 H 104.273 -5.35069 1.35665 0
M  V30 1111 H 106.749 -4.15805 -0.156776 0
M  V30 1112 H 105.625 -5.45038 -0.649942 0
M  V30 1113 H 105.886 -4.07598 -1.71219 0
M  V30 1114 N 104.945 -0.338344 -1.53925 0
M  V30 1115 C 106.222 0.314774 -1.93051 0
M  V30 1116 C 106.602 1.68669 -1.26941 0
M  V30 1117 O 105.95 2.24636 -0.418445 0
M  V30 1118 C 106.16 0.392249 -3.46789 0
M  V30 1119 C 107.508 0.645554 -4.19664 0
M  V30 1120 O 108.532 0.474575 -3.53024 0
M  V30 1121 O 107.391 0.976408 -5.37707 0
M  V30 1122 H 104.485 0.182598 -0.80659 0
M  V30 1123 H 107.031 -0.389141 -1.65178 0
M  V30 1124 H 105.803 -0.570702 -3.87116 0
M  V30 1125 H 105.426 1.14316 -3.80812 0
M  V30 1126 N 106.423 1.57458 -0.0668435 0
M  V30 1127 C 107.669 1.93587 0.6043 0
M  V30 1128 C 108.002 0.946722 1.69561 0
M  V30 1129 O 107.277 -0.0248516 1.94484 0
M  V30 1130 C 107.56 3.40014 1.18585 0
M  V30 1131 C 107.413 4.49685 0.101529 0
M  V30 1132 C 108.732 3.87154 2.09284 0
M  V30 1133 H 105.851 0.703958 0.218202 0
M  V30 1134 H 108.493 1.89542 -0.131804 0
M  V30 1135 H 106.643 3.43592 1.81319 0
M  V30 1136 H 108.315 4.5823 -0.531279 0
M  V30 1137 H 106.558 4.30059 -0.568487 0
M  V30 1138 H 107.229 5.49266 0.54874 0
M  V30 1139 H 109.705 3.85551 1.56491 0
M  V30 1140 H 108.581 4.90231 2.46911 0
M  V30 1141 H 108.842 3.2481 2.99918 0
M  V30 1142 N 107.901 -0.206675 1.56239 0
M  V30 1143 C 109.312 -0.772383 1.69974 0
M  V30 1144 C 109.663 -1.84353 0.671436 0
M  V30 1145 O 108.788 -2.15695 -0.174491 0
M  V30 1146 C 109.383 -1.40779 3.08167 0
M  V30 1147 C 107.942 -1.92072 3.23706 0
M  V30 1148 C 107.089 -0.786347 2.65917 0
M  V30 1149 H 110.04 0.0182223 1.5869 0
M  V30 1150 H 110.061 -2.27696 3.04852 0
M  V30 1151 H 109.573 -0.627958 3.82986 0
M  V30 1152 H 107.674 -2.7281 2.53782 0
M  V30 1153 H 107.787 -2.09046 4.31087 0
M  V30 1154 H 106.151 -1.1976 2.24788 0
M  V30 1155 H 106.934 -0.0189416 3.43295 0
M  V30 1156 N 109.379 -1.50304 -0.473955 0
M  V30 1157 C 110.627 -1.60832 -1.22382 0
M  V30 1158 C 110.948 -0.30939 -1.9253 0
M  V30 1159 O 110.218 0.67296 -1.83978 0
M  V30 1160 H 108.798 -0.592652 -0.454723 0
M  V30 1161 H 111.46 -1.87068 -0.546968 0
M  V30 1162 H 110.556 -2.41803 -1.97327 0
M  V30 1163 N 110.857 0.726932 -1.39834 0
M  V30 1164 C 111.789 1.85147 -1.35104 0
M  V30 1165 C 112.802 1.60736 -0.258392 0
M  V30 1166 O 113.991 1.70821 -0.517931 0
M  V30 1167 C 111.091 3.21332 -1.07697 0
M  V30 1168 C 110.264 3.73033 -2.28396 0
M  V30 1169 C 109.323 4.87802 -1.97322 0
M  V30 1170 O 108.349 5.01043 -2.70083 0
M  V30 1171 N 109.551 5.72768 -0.944273 0
M  V30 1172 H 112.316 1.89706 -2.32017 0
M  V30 1173 H 109.877 0.908006 -1.3404 0
M  V30 1174 H 111.869 3.95691 -0.849144 0
M  V30 1175 H 110.439 3.11992 -0.194909 0
M  V30 1176 H 109.659 2.89934 -2.6708 0
M  V30 1177 H 110.947 4.0431 -3.08887 0
M  V30 1178 H 110.345 5.64669 -0.341427 0
M  V30 1179 H 108.902 6.4716 -0.776346 0
M  V30 1180 N 112.336 1.25143 0.95797 0
M  V30 1181 C 113.747 1.08851 1.51685 0
M  V30 1182 C 114.098 -0.33687 1.93286 0
M  V30 1183 O 113.223 -1.22644 1.7829 0
M  V30 1184 C 113.818 1.96978 2.75654 0
M  V30 1185 C 112.377 1.84881 3.27866 0
M  V30 1186 C 111.524 1.91329 2.0072 0
M  V30 1187 H 114.475 1.38478 0.77522 0
M  V30 1188 H 114.496 1.5078 3.4935 0
M  V30 1189 H 114.008 3.00712 2.45345 0
M  V30 1190 H 112.109 0.840182 3.63004 0
M  V30 1191 H 112.222 2.6951 3.96107 0
M  V30 1192 H 110.586 1.35174 2.15871 0
M  V30 1193 H 111.369 2.96661 1.72764 0
M  V30 1194 N 113.814 -1.1601 1.06675 0
M  V30 1195 C 115.062 -1.86264 0.784229 0
M  V30 1196 C 115.383 -1.82328 -0.691488 0
M  V30 1197 O 114.653 -1.25947 -1.50047 0
M  V30 1198 H 113.233 -0.689621 0.28711 0
M  V30 1199 H 115.895 -1.40664 1.34906 0
M  V30 1200 H 114.991 -2.91595 1.11259 0
M  V30 1201 N 115.292 -0.849877 -1.32721 0
M  V30 1202 C 116.24 -0.279745 -2.30912 0
M  V30 1203 C 117.234 0.594278 -1.58634 0
M  V30 1204 O 118.44 0.482613 -1.73409 0
M  V30 1205 H 114.815 -0.0717521 -0.748569 0
M  V30 1206 H 116.786 -1.12222 -2.76494 0
M  V30 1207 C 115.535 0.521108 -3.43773 0
M  V30 1208 H 114.858 -0.142141 -3.99547 0
M  V30 1209 H 116.298 0.885693 -4.14646 0
M  V30 1210 C 114.757 1.70442 -2.90605 0
M  V30 1211 O 115.287 2.8034 -2.87702 0
M  V30 1212 N 113.493 1.52991 -2.47067 0
M  V30 1213 H 113.04 0.635914 -2.49628 0
M  V30 1214 H 112.998 2.32311 -2.11847 0
M  V30 1215 N 116.77 1.45427 -0.607355 0
M  V30 1216 C 117.717 2.3053 0.111625 0
M  V30 1217 C 118.687 1.4209 0.860216 0
M  V30 1218 O 119.872 1.71019 0.845998 0
M  V30 1219 C 117.012 3.26992 1.10319 0
M  V30 1220 C 116.125 4.30535 0.355493 0
M  V30 1221 C 115.26 5.14105 1.33676 0
M  V30 1222 C 114.299 6.09376 0.576862 0
M  V30 1223 N 113.436 6.85727 1.5074 0
M  V30 1224 H 118.276 2.91477 -0.620093 0
M  V30 1225 H 115.813 1.43631 -0.317594 0
M  V30 1226 H 117.771 3.81385 1.6912 0
M  V30 1227 H 116.401 2.67799 1.80232 0
M  V30 1228 H 115.453 3.78805 -0.348023 0
M  V30 1229 H 116.765 4.98235 -0.237423 0
M  V30 1230 H 115.919 5.72897 1.99684 0
M  V30 1231 H 114.658 4.46423 1.9636 0
M  V30 1232 H 113.663 5.49715 -0.0968519 0
M  V30 1233 H 114.888 6.79085 -0.0449341 0
M  V30 1234 H 112.834 6.20735 2.12189 0
M  V30 1235 H 112.751 7.49778 0.967913 0
M  V30 1236 H 114.019 7.4906 2.15706 0
M  V30 1237 N 118.248 0.346503 1.53744 0
M  V30 1238 C 119.211 -0.496439 2.23759 0
M  V30 1239 C 120.211 -1.0252 1.2388 0
M  V30 1240 O 121.401 -0.913974 1.48297 0
M  V30 1241 C 118.533 -1.69187 2.95954 0
M  V30 1242 H 119.726 0.115952 2.99676 0
M  V30 1243 H 117.279 0.0978939 1.55993 0
M  V30 1244 H 118.014 -2.34288 2.24231 0
M  V30 1245 H 117.799 -1.31989 3.69217 0
M  V30 1246 H 119.289 -2.28969 3.49232 0
M  V30 1247 N 119.726 -1.57421 0.075193 0
M  V30 1248 C 120.973 -1.93618 -0.593146 0
M  V30 1249 C 121.301 -0.955484 -1.69413 0
M  V30 1250 O 120.556 0.0283251 -1.9568 0
M  V30 1251 C 120.855 -3.36428 -1.20626 0
M  V30 1252 C 120.521 -4.50307 -0.231078 0
M  V30 1253 C 119.183 -4.81186 0.0371936 0
M  V30 1254 C 121.535 -5.19374 0.435888 0
M  V30 1255 C 118.863 -5.78466 0.979461 0
M  V30 1256 C 121.215 -6.17665 1.3665 0
M  V30 1257 C 119.879 -6.46958 1.6432 0
M  V30 1258 H 119.149 -0.708499 -0.217047 0
M  V30 1259 H 121.796 -1.90937 0.146793 0
M  V30 1260 H 120.101 -3.35592 -2.02201 0
M  V30 1261 H 121.798 -3.61727 -1.73073 0
M  V30 1262 H 118.388 -4.26227 -0.450357 0
M  V30 1263 H 122.572 -4.95711 0.241748 0
M  V30 1264 H 117.828 -5.99487 1.20106 0
M  V30 1265 H 122.002 -6.70284 1.88924 0
M  V30 1266 H 119.629 -7.2215 2.37494 0
M  V30 1267 N 121.204 0.198386 -1.56346 0
M  V30 1268 C 122.167 1.22952 -1.93431 0
M  V30 1269 C 123.167 1.38611 -0.815092 0
M  V30 1270 O 124.357 1.36479 -1.08255 0
M  V30 1271 C 121.489 2.59946 -2.20546 0
M  V30 1272 H 122.682 0.912626 -2.85677 0
M  V30 1273 H 120.235 0.43977 -1.49986 0
M  V30 1274 H 120.97 2.96696 -1.30927 0
M  V30 1275 H 120.755 2.49953 -3.02102 0
M  V30 1276 H 122.245 3.3431 -2.50253 0
M  V30 1277 N 122.682 1.50554 0.465978 0
M  V30 1278 C 123.928 1.62038 1.21949 0
M  V30 1279 C 124.261 0.322116 1.9151 0
M  V30 1280 O 123.536 -0.676723 1.82348 0
M  V30 1281 C 123.819 2.80421 2.25912 0
M  V30 1282 C 123.672 4.20144 1.60622 0
M  V30 1283 C 124.991 2.94354 3.27176 0
M  V30 1284 H 122.11 0.589752 0.441998 0
M  V30 1285 H 124.752 1.82956 0.51257 0
M  V30 1286 H 122.902 2.62717 2.86203 0
M  V30 1287 H 124.574 4.49449 1.03889 0
M  V30 1288 H 122.817 4.24165 0.909211 0
M  V30 1289 H 123.488 4.98914 2.36196 0
M  V30 1290 H 125.964 3.10578 2.76913 0
M  V30 1291 H 124.84 3.788 3.97242 0
M  V30 1292 H 125.101 2.05186 3.916 0
M  V30 1293 N 124.16 -0.719506 1.40217 0
M  V30 1294 C 125.388 -1.50864 1.41589 0
M  V30 1295 C 125.803 -1.88794 0.0145275 0
M  V30 1296 O 125.16 -1.55174 -0.960594 0
M  V30 1297 C 125.211 -2.78646 2.30302 0
M  V30 1298 O 124.932 -2.42321 3.64983 0
M  V30 1299 C 126.433 -3.72569 2.40224 0
M  V30 1300 H 123.653 -0.465709 0.48307 0
M  V30 1301 H 126.197 -0.88785 1.84221 0
M  V30 1302 H 124.352 -3.37019 1.91042 0
M  V30 1303 H 124.766 -3.24514 4.12057 0
M  V30 1304 H 126.24 -4.5908 3.06512 0
M  V30 1305 H 126.717 -4.15403 1.42608 0
M  V30 1306 H 127.323 -3.20109 2.80019 0
M  V30 1307 N 125.638 -1.25649 -0.95132 0
M  V30 1308 C 126.884 -1.10757 -1.69884 0
M  V30 1309 C 127.217 0.350061 -1.91019 0
M  V30 1310 O 126.492 1.25783 -1.48354 0
M  V30 1311 C 126.775 -1.86606 -3.07978 0
M  V30 1312 C 126.628 -3.40217 -2.94232 0
M  V30 1313 C 127.947 -1.65182 -4.07925 0
M  V30 1314 H 125.066 -0.40374 -0.616574 0
M  V30 1315 H 127.708 -1.54521 -1.10558 0
M  V30 1316 H 125.858 -1.49409 -3.58621 0
M  V30 1317 H 127.53 -3.87108 -2.50889 0
M  V30 1318 H 125.773 -3.67759 -2.30078 0
M  V30 1319 H 126.444 -3.88505 -3.92133 0
M  V30 1320 H 128.92 -1.9757 -3.66204 0
M  V30 1321 H 127.796 -2.20683 -5.02583 0
M  V30 1322 H 128.057 -0.593933 -4.38092 0
M  V30 1323 N 127.117 1.15442 -1.07289 0
M  V30 1324 C 128.047 2.22312 -0.714107 0
M  V30 1325 C 129.028 1.67467 0.298155 0
M  V30 1326 O 130.213 1.93445 0.171048 0
M  V30 1327 C 127.343 3.47124 -0.110448 0
M  V30 1328 C 126.297 4.14926 -1.04979 0
M  V30 1329 C 125.623 5.33807 -0.308924 0
M  V30 1330 C 126.923 4.64762 -2.38314 0
M  V30 1331 H 128.617 2.5258 -1.6076 0
M  V30 1332 H 126.163 1.21404 -0.77441 0
M  V30 1333 H 128.116 4.21124 0.152482 0
M  V30 1334 H 126.84 3.16187 0.81812 0
M  V30 1335 H 125.499 3.42866 -1.29764 0
M  V30 1336 H 125.147 4.99126 0.623084 0
M  V30 1337 H 124.847 5.80113 -0.935036 0
M  V30 1338 H 126.371 6.10576 -0.0537771 0
M  V30 1339 H 127.785 5.30292 -2.1786 0
M  V30 1340 H 126.182 5.21728 -2.96514 0
M  V30 1341 H 127.252 3.80434 -3.00663 0
M  V30 1342 N 128.595 0.856903 1.32268 0
M  V30 1343 C 129.872 0.382583 1.91822 0
M  V30 1344 C 130.252 -1.13407 1.78051 0
M  V30 1345 O 129.6 -1.95673 1.18001 0
M  V30 1346 C 129.81 0.849446 3.38505 0
M  V30 1347 C 131.158 0.867936 4.15634 0
M  V30 1348 O 132.182 0.794232 3.47232 0
M  V30 1349 O 131.041 0.972286 5.37781 0
M  V30 1350 H 128.135 0.112014 0.819379 0
M  V30 1351 H 130.681 0.943952 1.41024 0
M  V30 1352 H 129.453 1.89267 3.42482 0
M  V30 1353 H 129.076 0.265652 3.96712 0
M  V30 1354 N 130.073 -1.45103 0.615059 0
M  V30 1355 C 131.02 -2.30586 -0.0993978 0
M  V30 1356 C 131.99 -1.42544 -0.852669 0
M  V30 1357 O 133.175 -1.71465 -0.836917 0
M  V30 1358 C 130.315 -3.27572 -1.08583 0
M  V30 1359 C 129.428 -4.30717 -0.332656 0
M  V30 1360 C 128.563 -5.14807 -1.30947 0
M  V30 1361 C 127.602 -6.09673 -0.544538 0
M  V30 1362 N 126.739 -6.86517 -1.47101 0
M  V30 1363 H 131.579 -2.91144 0.635542 0
M  V30 1364 H 129.116 -1.4346 0.325206 0
M  V30 1365 H 131.074 -3.82276 -1.67095 0
M  V30 1366 H 129.704 -2.68751 -1.78809 0
M  V30 1367 H 128.756 -3.78615 0.368107 0
M  V30 1368 H 130.068 -4.98102 0.263842 0
M  V30 1369 H 129.222 -5.73948 -1.96643 0
M  V30 1370 H 127.961 -4.47458 -1.9399 0
M  V30 1371 H 126.966 -5.49656 0.126003 0
M  V30 1372 H 128.191 -6.79052 0.080947 0
M  V30 1373 H 126.137 -6.21851 -2.08895 0
M  V30 1374 H 126.054 -7.50281 -0.928137 0
M  V30 1375 H 127.322 -7.50194 -2.11731 0
M  V30 1376 N 131.551 -0.354651 -1.53558 0
M  V30 1377 C 132.799 0.237972 -2.00694 0
M  V30 1378 C 133.12 1.50173 -1.24391 0
M  V30 1379 O 132.39 1.92673 -0.354135 0
M  V30 1380 H 130.97 0.0909256 -0.741446 0
M  V30 1381 H 133.632 -0.478368 -1.88938 0
M  V30 1382 H 132.728 0.47264 -3.085 0
M  V30 1383 N 133.029 1.57378 -0.0835403 0
M  V30 1384 C 133.961 2.10389 0.909338 0
M  V30 1385 C 134.974 1.03858 1.25369 0
M  V30 1386 O 136.163 1.31338 1.20882 0
M  V30 1387 C 133.263 2.55908 2.2218 0
M  V30 1388 C 132.436 3.86145 2.05453 0
M  V30 1389 C 131.495 4.17633 3.20108 0
M  V30 1390 O 130.521 4.87043 2.94581 0
M  V30 1391 N 131.723 3.72113 4.45547 0
M  V30 1392 H 134.488 2.962 0.456657 0
M  V30 1393 H 132.049 1.61579 0.101877 0
M  V30 1394 H 134.041 2.74027 2.97811 0
M  V30 1395 H 132.611 1.75171 2.58909 0
M  V30 1396 H 131.831 3.7729 1.1422 0
M  V30 1397 H 133.119 4.7137 1.91541 0
M  V30 1398 H 132.517 3.16062 4.69171 0
M  V30 1399 H 131.074 3.95409 5.18165 0
M  V30 1400 N 134.507 -0.190092 1.56449 0
M  V30 1401 C 135.455 -1.25501 1.95837 0
M  V30 1402 C 136.449 -1.4685 0.844485 0
M  V30 1403 O 137.655 -1.47651 1.02952 0
M  V30 1404 H 134.03 -0.421447 0.622805 0
M  V30 1405 H 136.001 -0.895821 2.84636 0
M  V30 1406 C 134.75 -2.59124 2.31841 0
M  V30 1407 H 134.073 -2.43514 3.17082 0
M  V30 1408 H 135.513 -3.32371 2.6326 0
M  V30 1409 C 133.972 -3.16488 1.15486 0
M  V30 1410 O 134.502 -3.99365 0.432535 0
M  V30 1411 N 132.708 -2.75305 0.930349 0
M  V30 1412 H 132.255 -2.08013 1.51948 0
M  V30 1413 H 132.213 -3.14024 0.153634 0
M  V30 1414 N 135.985 -1.50799 -0.457987 0
M  V30 1415 C 137.401 -1.38515 -0.792819 0
M  V30 1416 C 137.601 -0.451409 -1.96379 0
M  V30 1417 O 136.657 0.10112 -2.52297 0
M  V30 1418 C 137.97 -2.80149 -1.09258 0
M  V30 1419 C 139.518 -2.89156 -1.19825 0
M  V30 1420 C 139.993 -4.31651 -1.53106 0
M  V30 1421 N 141.484 -4.34662 -1.60072 0
M  V30 1422 C 142.219 -5.41928 -1.87354 0
M  V30 1423 N 141.715 -6.59384 -2.12568 0
M  V30 1424 N 143.508 -5.29385 -1.88965 0
M  V30 1425 H 135.659 -2.10073 0.313511 0
M  V30 1426 H 137.922 -0.944803 0.0777862 0
M  V30 1427 H 137.628 -3.50374 -0.305084 0
M  V30 1428 H 137.502 -3.18204 -2.02549 0
M  V30 1429 H 139.889 -2.19141 -1.97639 0
M  V30 1430 H 139.97 -2.54626 -0.244821 0
M  V30 1431 H 139.614 -5.02208 -0.758266 0
M  V30 1432 H 139.544 -4.63678 -2.49621 0
M  V30 1433 H 142.035 -3.49973 -1.42573 0
M  V30 1434 H 142.348 -7.36934 -2.32696 0
M  V30 1435 H 140.693 -6.62535 -2.09933 0
M  V30 1436 H 143.884 -4.36616 -1.68772 0
M  V30 1437 H 144.057 -6.13066 -2.09891 0
M  V30 1438 N 137.463 0.71206 -1.40597 0
M  V30 1439 C 138.709 1.47292 -1.40274 0
M  V30 1440 C 139.064 1.92399 -0.00576812 0
M  V30 1441 O 138.357 1.65507 0.965297 0
M  V30 1442 C 138.551 2.71039 -2.32965 0
M  V30 1443 C 138.38 2.38035 -3.81536 0
M  V30 1444 C 137.15 2.29203 -4.50327 0
M  V30 1445 C 139.348 2.02076 -4.72938 0
M  V30 1446 N 137.33 1.88911 -5.84111 0
M  V30 1447 C 138.701 1.72412 -5.95545 0
M  V30 1448 C 140.756 1.88742 -4.60739 0
M  V30 1449 C 139.459 1.30756 -7.07316 0
M  V30 1450 C 141.485 1.4849 -5.72455 0
M  V30 1451 C 140.847 1.19726 -6.94151 0
M  V30 1452 H 136.946 0.536919 -0.568544 0
M  V30 1453 H 139.53 0.825424 -1.76337 0
M  V30 1454 H 137.701 3.33533 -1.99023 0
M  V30 1455 H 139.433 3.37404 -2.23474 0
M  V30 1456 H 136.188 2.47059 -4.04053 0
M  V30 1457 H 136.612 1.71293 -6.54972 0
M  V30 1458 H 141.254 2.0964 -3.67166 0
M  V30 1459 H 138.972 1.08601 -8.00769 0
M  V30 1460 H 142.558 1.38747 -5.65014 0
M  V30 1461 H 141.438 0.890482 -7.79128 0
M  V30 1462 N 138.941 1.26152 0.944643 0
M  V30 1463 C 140.357 1.03189 1.21754 0
M  V30 1464 C 140.557 -0.245112 2.00004 0
M  V30 1465 O 139.613 -0.955176 2.33736 0
M  V30 1466 C 140.926 2.26119 1.98219 0
M  V30 1467 C 142.474 2.30984 2.11224 0
M  V30 1468 C 142.949 3.53597 2.91089 0
M  V30 1469 N 144.44 3.54053 2.98664 0
M  V30 1470 C 145.175 4.45593 3.60881 0
M  V30 1471 N 144.671 5.47416 4.24626 0
M  V30 1472 N 146.464 4.33252 3.58119 0
M  V30 1473 H 138.615 2.08177 0.421437 0
M  V30 1474 H 140.878 0.914723 0.248969 0
M  V30 1475 H 140.584 3.18984 1.48128 0
M  V30 1476 H 140.458 2.3009 2.98895 0
M  V30 1477 H 142.845 1.38635 2.60508 0
M  V30 1478 H 142.926 2.31026 1.09821 0
M  V30 1479 H 142.57 4.46273 2.42493 0
M  V30 1480 H 142.5 3.50802 3.92741 0
M  V30 1481 H 144.991 2.80403 2.53343 0
M  V30 1482 H 145.304 6.13459 4.69987 0
M  V30 1483 H 143.649 5.51278 4.23223 0
M  V30 1484 H 146.84 3.52924 3.0751 0
M  V30 1485 H 147.013 5.04786 4.06319 0
M  V30 1486 N 140.419 -1.14872 1.07899 0
M  V30 1487 C 141.665 -1.86064 0.806725 0
M  V30 1488 C 141.998 -1.82434 -0.665706 0
M  V30 1489 O 141.273 -1.25138 -1.48899 0
M  V30 1490 C 141.556 -3.34929 1.32267 0
M  V30 1491 C 141.409 -3.47161 2.86006 0
M  V30 1492 C 142.728 -4.29863 0.943717 0
M  V30 1493 H 139.847 -0.675591 0.294526 0
M  V30 1494 H 142.489 -1.34925 1.33773 0
M  V30 1495 H 140.639 -3.78611 0.870974 0
M  V30 1496 H 142.311 -3.12302 3.39507 0
M  V30 1497 H 140.554 -2.88539 3.23925 0
M  V30 1498 H 141.225 -4.51777 3.17177 0
M  V30 1499 H 143.701 -3.9417 1.33302 0
M  V30 1500 H 142.577 -5.32494 1.33198 0
M  V30 1501 H 142.838 -4.41846 -0.149796 0
M  V30 1502 N 141.898 -0.863906 -1.31812 0
M  V30 1503 C 142.83 -0.272485 -2.27575 0
M  V30 1504 C 143.843 0.56104 -1.52827 0
M  V30 1505 O 145.032 0.384021 -1.7432 0
M  V30 1506 C 142.132 0.63283 -3.32939 0
M  V30 1507 C 141.305 -0.166902 -4.37081 0
M  V30 1508 C 140.364 0.665608 -5.21973 0
M  V30 1509 O 139.39 0.0958091 -5.69119 0
M  V30 1510 N 140.592 1.9787 -5.45736 0
M  V30 1511 H 143.357 -1.0954 -2.78964 0
M  V30 1512 H 140.918 -0.724791 -1.4477 0
M  V30 1513 H 142.91 1.19532 -3.86645 0
M  V30 1514 H 141.48 1.35642 -2.81638 0
M  V30 1515 H 140.7 -0.910838 -3.83533 0
M  V30 1516 H 141.988 -0.715874 -5.03739 0
M  V30 1517 H 141.386 2.46484 -5.09178 0
M  V30 1518 H 139.943 2.48911 -6.024 0
M  V30 1519 N 143.376 1.44774 -0.622745 0
M  V30 1520 C 144.309 2.27792 0.136329 0
M  V30 1521 C 145.287 1.38041 0.859264 0
M  V30 1522 O 146.471 1.67478 0.86506 0
M  V30 1523 C 143.598 3.16776 1.19878 0
M  V30 1524 C 142.644 4.22575 0.57731 0
M  V30 1525 S 143.477 5.31825 -0.626294 0
M  V30 1526 C 144.633 6.24377 0.436378 0
M  V30 1527 H 144.866 2.91824 -0.567967 0
M  V30 1528 H 142.399 1.48838 -0.410677 0
M  V30 1529 H 144.357 3.68596 1.80686 0
M  V30 1530 H 143.018 2.5198 1.87523 0
M  V30 1531 H 142.211 4.84818 1.37721 0
M  V30 1532 H 141.813 3.73974 0.0440439 0
M  V30 1533 H 144.105 6.64689 1.31128 0
M  V30 1534 H 145.048 7.07941 -0.150271 0
M  V30 1535 H 145.456 5.59381 0.758513 0
M  V30 1536 N 144.854 0.36279 1.53368 0
M  V30 1537 C 146.27 0.0116182 1.59596 0
M  V30 1538 C 146.47 -1.47012 1.37803 0
M  V30 1539 O 145.526 -2.23136 1.18181 0
M  V30 1540 C 146.839 0.465052 2.97082 0
M  V30 1541 C 148.387 0.419033 3.10182 0
M  V30 1542 C 148.862 0.848235 4.50077 0
M  V30 1543 N 150.353 0.803183 4.56183 0
M  V30 1544 C 151.088 1.107 5.62613 0
M  V30 1545 N 150.584 1.47996 6.76808 0
M  V30 1546 N 152.377 1.02998 5.52583 0
M  V30 1547 H 144.528 1.32775 1.65785 0
M  V30 1548 H 146.791 0.542518 0.777417 0
M  V30 1549 H 146.497 1.49892 3.18159 0
M  V30 1550 H 146.371 -0.149786 3.76902 0
M  V30 1551 H 148.758 -0.605696 2.88817 0
M  V30 1552 H 148.839 1.06933 2.32377 0
M  V30 1553 H 148.483 1.87107 4.7218 0
M  V30 1554 H 148.413 0.175218 5.26308 0
M  V30 1555 H 150.904 0.52838 3.74188 0
M  V30 1556 H 151.217 1.69613 7.53957 0
M  V30 1557 H 149.562 1.51859 6.78206 0
M  V30 1558 H 152.753 0.737817 4.62249 0
M  V30 1559 H 152.926 1.2701 6.35431 0
M  V30 1560 N 146.332 -1.57332 0.0918853 0
M  V30 1561 C 147.282 -2.10385 -0.87876 0
M  V30 1562 C 148.266 -1.01814 -1.24591 0
M  V30 1563 O 149.458 -1.28093 -1.22152 0
M  V30 1564 C 146.587 -2.68517 -2.13901 0
M  V30 1565 C 145.673 -3.84126 -1.79744 0
M  V30 1566 N 146.064 -4.92288 -1.1613 0
M  V30 1567 C 144.362 -3.93801 -2.09373 0
M  V30 1568 C 145.063 -5.7295 -1.00513 0
M  V30 1569 N 144.039 -5.21876 -1.5214 0
M  V30 1570 H 147.841 -2.91395 -0.38293 0
M  V30 1571 H 145.355 -1.62017 -0.111423 0
M  V30 1572 H 147.352 -3.04852 -2.84378 0
M  V30 1573 H 146.012 -1.88961 -2.64053 0
M  V30 1574 H 147.023 -5.1123 -0.828504 0
M  V30 1575 H 143.7 -3.25249 -2.61762 0
M  V30 1576 H 145.09 -6.69978 -0.507902 0
M  V30 1577 N 147.81 0.181792 -1.56548 0
M  V30 1578 C 149.226 0.53316 -1.50431 0
M  V30 1579 C 149.426 1.85184 -0.794297 0
M  V30 1580 O 148.482 2.50058 -0.350318 0
M  V30 1581 C 149.795 0.575597 -2.9514 0
M  V30 1582 C 151.343 0.663519 -3.05886 0
M  V30 1583 C 151.818 0.736946 -4.52032 0
M  V30 1584 N 153.309 0.800118 -4.56237 0
M  V30 1585 C 154.044 0.877327 -5.66649 0
M  V30 1586 N 153.54 0.916016 -6.86718 0
M  V30 1587 N 155.333 0.915542 -5.54594 0
M  V30 1588 H 147.484 -0.683025 -2.01118 0
M  V30 1589 H 149.747 -0.244988 -0.915797 0
M  V30 1590 H 149.453 -0.324482 -3.502 0
M  V30 1591 H 149.327 1.42572 -3.49218 0
M  V30 1592 H 151.714 1.55403 -2.50867 0
M  V30 1593 H 151.795 -0.21307 -2.54911 0
M  V30 1594 H 151.439 -0.149262 -5.07681 0
M  V30 1595 H 151.369 1.62953 -5.00753 0
M  V30 1596 H 153.86 0.778926 -3.69785 0
M  V30 1597 H 154.173 0.975813 -7.66614 0
M  V30 1598 H 152.518 0.884469 -6.89349 0
M  V30 1599 H 155.709 0.882245 -4.59711 0
M  V30 1600 H 155.882 0.972253 -6.40665 0
M  V30 1601 N 149.288 1.51039 0.449983 0
M  V30 1602 C 150.536 1.62759 1.19808 0
M  V30 1603 C 150.857 0.339981 1.92013 0
M  V30 1604 O 150.127 -0.643606 1.85026 0
M  V30 1605 H 148.707 0.599811 0.445237 0
M  V30 1606 H 151.369 1.87914 0.517138 0
M  V30 1607 H 150.465 2.44911 1.93455 0
M  V30 1608 N 150.766 -0.704594 1.40972 0
M  V30 1609 C 151.696 -1.83124 1.44872 0
M  V30 1610 C 152.677 -1.67281 0.30838 0
M  V30 1611 O 153.862 -1.87149 0.518556 0
M  V30 1612 C 150.992 -3.21181 1.32136 0
M  V30 1613 C 149.946 -3.51714 2.43888 0
M  V30 1614 C 149.272 -4.89032 2.16222 0
M  V30 1615 C 150.572 -3.516 3.86232 0
M  V30 1616 H 152.266 -1.80117 2.39161 0
M  V30 1617 H 149.812 -0.865145 1.15114 0
M  V30 1618 H 151.765 -3.99702 1.33479 0
M  V30 1619 H 150.489 -3.24791 0.343279 0
M  V30 1620 H 149.148 -2.75539 2.41813 0
M  V30 1621 H 148.796 -4.89256 1.16778 0
M  V30 1622 H 148.496 -5.10426 2.911 0
M  V30 1623 H 150.02 -5.69873 2.19265 0
M  V30 1624 H 151.434 -4.2014 3.9007 0
M  V30 1625 H 149.831 -3.84523 4.60719 0
M  V30 1626 H 150.901 -2.50757 4.15029 0
M  V30 1627 N 152.244 -1.26651 -0.937939 0
M  V30 1628 C 153.472 -1.15173 -1.7188 0
M  V30 1629 C 153.887 0.292668 -1.86518 0
M  V30 1630 O 153.244 1.20014 -1.37488 0
M  V30 1631 C 153.295 -1.81925 -3.12387 0
M  V30 1632 O 153.016 -3.2072 -2.98446 0
M  V30 1633 C 154.517 -1.76442 -4.06673 0
M  V30 1634 H 151.737 -0.400911 -0.538063 0
M  V30 1635 H 154.281 -1.67332 -1.1756 0
M  V30 1636 H 152.436 -1.33696 -3.63599 0
M  V30 1637 H 152.85 -3.53802 -3.872 0
M  V30 1638 H 154.324 -2.27781 -5.02812 0
M  V30 1639 H 154.801 -0.731608 -4.33064 0
M  V30 1640 H 155.407 -2.24238 -3.61382 0
M  V30 1641 N 153.722 1.14298 -1.08507 0
M  V30 1642 C 154.652 2.21542 -0.737646 0
M  V30 1643 C 155.633 1.67773 0.280377 0
M  V30 1644 O 156.818 1.93616 0.150521 0
M  V30 1645 C 153.948 3.46988 -0.147259 0
M  V30 1646 C 152.902 4.13789 -1.09374 0
M  V30 1647 C 152.228 5.33449 -0.365524 0
M  V30 1648 C 153.528 4.62208 -2.4323 0
M  V30 1649 H 155.222 2.5086 -1.6343 0
M  V30 1650 H 152.768 1.20576 -0.787243 0
M  V30 1651 H 154.721 4.21262 0.107808 0
M  V30 1652 H 153.445 3.17037 0.784538 0
M  V30 1653 H 152.104 3.4147 -1.33393 0
M  V30 1654 H 151.752 4.99759 0.57011 0
M  V30 1655 H 151.452 5.79088 -0.996512 0
M  V30 1656 H 152.976 6.10485 -0.118534 0
M  V30 1657 H 154.39 5.27952 -2.23472 0
M  V30 1658 H 152.787 5.18553 -3.02031 0
M  V30 1659 H 153.857 3.77224 -3.04681 0
M  V30 1660 N 155.201 0.870884 1.31352 0
M  V30 1661 C 156.111 0.330783 2.32256 0
M  V30 1662 C 157.127 -0.559767 1.6475 0
M  V30 1663 O 158.303 -0.456263 1.96164 0
M  V30 1664 C 155.368 -0.458137 3.4366 0
M  V30 1665 C 154.429 0.460482 4.26823 0
M  V30 1666 C 153.662 -0.290881 5.32907 0
M  V30 1667 O 153.885 -1.51885 5.49806 0
M  V30 1668 O 152.819 0.351732 6.00871 0
M  V30 1669 H 156.645 1.16718 2.80376 0
M  V30 1670 H 154.23 0.634285 1.35267 0
M  V30 1671 H 156.112 -0.905343 4.1156 0
M  V30 1672 H 154.787 -1.27106 2.97701 0
M  V30 1673 H 153.694 0.956207 3.61673 0
M  V30 1674 H 155.027 1.23903 4.7635 0
M  V30 1675 N 156.679 -1.44442 0.630414 0
M  V30 1676 C 157.611 -2.2892 -0.113347 0
M  V30 1677 C 158.624 -1.41243 -0.80959 0
M  V30 1678 O 159.813 -1.65402 -0.671156 0
M  V30 1679 C 156.913 -3.17594 -1.18266 0
M  V30 1680 C 156.086 -4.33682 -0.569073 0
M  V30 1681 C 155.145 -5.03397 -1.53226 0
M  V30 1682 O 154.171 -5.59438 -1.04967 0
M  V30 1683 N 155.373 -5.04783 -2.86661 0
M  V30 1684 H 158.138 -2.93392 0.611636 0
M  V30 1685 H 155.699 -1.54881 0.471523 0
M  V30 1686 H 157.691 -3.61097 -1.82732 0
M  V30 1687 H 156.261 -2.54876 -1.80988 0
M  V30 1688 H 155.481 -3.9338 0.254187 0
M  V30 1689 H 156.769 -5.08608 -0.139767 0
M  V30 1690 H 156.167 -4.60584 -3.28449 0
M  V30 1691 H 154.724 -5.52077 -3.46489 0
M  V30 1692 N 158.157 -0.370918 -1.53173 0
M  V30 1693 C 159.405 0.216673 -2.00935 0
M  V30 1694 C 159.726 1.48845 -1.25977 0
M  V30 1695 O 158.996 1.92286 -0.374551 0
M  V30 1696 H 157.576 0.0830565 -0.742368 0
M  V30 1697 H 160.238 -0.49838 -1.8842 0
M  V30 1698 H 159.334 0.439893 -3.08984 0
M  V30 1699 N 159.635 1.57281 -0.100228 0
M  V30 1700 C 160.585 2.10848 0.86759 0
M  V30 1701 C 161.569 1.02473 1.24049 0
M  V30 1702 O 162.761 1.28739 1.21471 0
M  V30 1703 C 159.89 2.69648 2.12474 0
M  V30 1704 C 158.976 3.85074 1.77704 0
M  V30 1705 N 159.367 4.92897 1.13518 0
M  V30 1706 C 157.665 3.94905 2.07282 0
M  V30 1707 C 158.366 5.73475 0.974735 0
M  V30 1708 N 157.342 5.22675 1.4937 0
M  V30 1709 H 161.144 2.91594 0.367471 0
M  V30 1710 H 158.658 1.62074 0.102829 0
M  V30 1711 H 160.655 3.06356 2.82757 0
M  V30 1712 H 159.315 1.90359 2.63047 0
M  V30 1713 H 160.326 5.11662 0.801381 0
M  V30 1714 H 157.003 3.26633 2.60033 0
M  V30 1715 H 158.393 6.70238 0.472364 0
M  V30 1716 N 161.113 -0.173488 1.56642 0
M  V30 1717 C 162.341 -0.906095 1.86004 0
M  V30 1718 C 162.756 -1.75921 0.685355 0
M  V30 1719 O 162.113 -1.79198 -0.345578 0
M  V30 1720 C 162.164 -1.78462 3.14378 0
M  V30 1721 O 161.885 -0.965914 4.27319 0
M  V30 1722 C 163.386 -2.62707 3.57071 0
M  V30 1723 H 160.606 -0.263341 0.617165 0
M  V30 1724 H 163.15 -0.174236 2.03756 0
M  V30 1725 H 161.305 -2.46984 2.98459 0
M  V30 1726 H 161.719 -1.56655 5.00559 0
M  V30 1727 H 163.193 -3.19969 4.49804 0
M  V30 1728 H 163.67 -3.37472 2.81086 0
M  V30 1729 H 164.276 -1.99521 3.75595 0
M  V30 1730 N 162.591 -1.51276 -0.441967 0
M  V30 1731 C 163.821 -1.67273 -1.21257 0
M  V30 1732 C 164.229 -0.367624 -1.85594 0
M  V30 1733 O 163.572 0.663349 -1.71305 0
M  V30 1734 C 163.634 -2.72807 -2.34129 0
M  V30 1735 C 163.298 -4.1554 -1.90198 0
M  V30 1736 C 164.295 -5.00471 -1.40801 0
M  V30 1737 C 161.98 -4.61616 -1.9803 0
M  V30 1738 C 163.974 -6.29536 -0.998174 0
M  V30 1739 C 161.661 -5.90679 -1.56658 0
M  V30 1740 C 162.659 -6.74466 -1.07633 0
M  V30 1741 O 162.347 -8.01116 -0.668459 0
M  V30 1742 H 162.079 -0.564614 -0.371734 0
M  V30 1743 H 164.633 -1.9843 -0.530521 0
M  V30 1744 H 162.863 -2.36954 -3.05597 0
M  V30 1745 H 164.552 -2.77729 -2.96009 0
M  V30 1746 H 165.318 -4.66079 -1.34148 0
M  V30 1747 H 161.197 -3.96526 -2.35135 0
M  V30 1748 H 164.741 -6.94885 -0.61482 0
M  V30 1749 H 160.638 -6.24586 -1.62979 0
M  V30 1750 H 161.406 -8.14633 -0.794722 0
M  V30 1751 N 164.069 0.697108 -1.41344 0
M  V30 1752 C 165.485 1.00751 -1.2378 0
M  V30 1753 C 165.685 2.01105 -0.126066 0
M  V30 1754 O 164.741 2.47295 0.51004 0
M  V30 1755 C 166.054 1.53359 -2.58653 0
M  V30 1756 C 167.602 1.6525 -2.65822 0
M  V30 1757 C 168.077 2.2126 -4.01009 0
M  V30 1758 N 169.568 2.28622 -4.02847 0
M  V30 1759 C 170.303 2.72984 -5.04249 0
M  V30 1760 N 169.799 3.16962 -6.16041 0
M  V30 1761 N 171.592 2.72534 -4.91611 0
M  V30 1762 H 163.743 0.0322662 -2.12375 0
M  V30 1763 H 166.006 0.0768853 -0.944877 0
M  V30 1764 H 165.712 0.870773 -3.4075 0
M  V30 1765 H 165.586 2.51597 -2.81032 0
M  V30 1766 H 167.973 2.30644 -1.84086 0
M  V30 1767 H 168.054 0.655614 -2.47256 0
M  V30 1768 H 167.698 1.56482 -4.83193 0
M  V30 1769 H 167.628 3.21698 -4.16915 0
M  V30 1770 H 170.119 1.97585 -3.22131 0
M  V30 1771 H 170.432 3.49434 -6.89287 0
M  V30 1772 H 168.777 3.14875 -6.1958 0
M  V30 1773 H 171.968 2.37525 -4.0336 0
M  V30 1774 H 172.141 3.06789 -5.70775 0
M  V30 1775 N 165.547 1.27147 0.931209 0
M  V30 1776 C 166.793 1.13446 1.68101 0
M  V30 1777 C 167.126 -0.319628 1.91552 0
M  V30 1778 O 166.401 -1.23407 1.50336 0
M  V30 1779 C 166.684 1.91482 3.0497 0
M  V30 1780 C 166.537 3.44855 2.88782 0
M  V30 1781 C 167.856 1.71651 4.05246 0
M  V30 1782 H 164.975 0.413498 0.610072 0
M  V30 1783 H 167.617 1.56261 1.08086 0
M  V30 1784 H 165.767 1.55095 3.56199 0
M  V30 1785 H 167.439 3.9105 2.44698 0
M  V30 1786 H 165.682 3.71373 2.24198 0
M  V30 1787 H 166.353 3.94694 3.85902 0
M  V30 1788 H 168.829 2.0337 3.63015 0
M  V30 1789 H 167.705 2.28651 4.99009 0
M  V30 1790 H 167.966 0.663555 4.37092 0
M  V30 1791 N 167.025 -1.13721 1.09112 0
M  V30 1792 C 168.441 -1.36914 0.820174 0
M  V30 1793 C 168.641 -1.93356 -0.567079 0
M  V30 1794 O 167.697 -2.15093 -1.32255 0
M  V30 1795 C 169.01 -2.3235 1.90877 0
M  V30 1796 C 170.558 -2.45973 1.93562 0
M  V30 1797 C 171.033 -3.44714 3.01556 0
M  V30 1798 N 172.524 -3.52263 3.00775 0
M  V30 1799 C 173.259 -4.28536 3.80978 0
M  V30 1800 N 172.755 -5.07991 4.71081 0
M  V30 1801 N 174.548 -4.23804 3.69251 0
M  V30 1802 H 166.699 -0.754348 1.98553 0
M  V30 1803 H 168.962 -0.3944 0.862063 0
M  V30 1804 H 168.668 -1.98027 2.90651 0
M  V30 1805 H 168.542 -3.32332 1.78424 0
M  V30 1806 H 170.929 -2.79584 0.944286 0
M  V30 1807 H 171.01 -1.45926 2.10093 0
M  V30 1808 H 170.654 -3.11835 4.00901 0
M  V30 1809 H 170.584 -4.44558 2.82269 0
M  V30 1810 H 173.075 -2.95567 2.35475 0
M  V30 1811 H 173.388 -5.63487 5.28869 0
M  V30 1812 H 171.733 -5.07235 4.75119 0
M  V30 1813 H 174.924 -3.60806 2.98222 0
M  V30 1814 H 175.097 -4.82995 4.31995 0
M  V30 1815 N 168.503 -0.877838 -1.30888 0
M  V30 1816 C 169.433 -0.35534 -2.3078 0
M  V30 1817 C 170.414 0.557994 -1.60687 0
M  V30 1818 O 171.599 0.473355 -1.88343 0
M  V30 1819 C 168.729 0.437221 -3.44537 0
M  V30 1820 C 167.683 -0.383715 -4.26276 0
M  V30 1821 C 167.009 0.535014 -5.32017 0
M  V30 1822 C 168.309 -1.62201 -4.96476 0
M  V30 1823 H 170.003 -1.19007 -2.74732 0
M  V30 1824 H 167.549 -0.573698 -1.32078 0
M  V30 1825 H 169.502 0.813334 -4.13477 0
M  V30 1826 H 168.226 1.30553 -2.99372 0
M  V30 1827 H 166.885 -0.741874 -3.59015 0
M  V30 1828 H 166.533 1.40083 -4.831 0
M  V30 1829 H 166.233 -0.0104211 -5.87599 0
M  V30 1830 H 167.757 0.907799 -6.03814 0
M  V30 1831 H 169.171 -1.31689 -5.5797 0
M  V30 1832 H 167.568 -2.10711 -5.61891 0
M  V30 1833 H 168.638 -2.37044 -4.23011 0
M  V30 1834 N 169.982 1.44106 -0.638065 0
M  V30 1835 C 170.929 2.30715 0.062701 0
M  V30 1836 C 171.899 1.43882 0.829883 0
M  V30 1837 O 173.084 1.72775 0.809532 0
M  V30 1838 C 170.224 3.29258 1.03358 0
M  V30 1839 C 169.337 4.31192 0.26409 0
M  V30 1840 C 168.472 5.16825 1.22741 0
M  V30 1841 C 167.511 6.10462 0.447475 0
M  V30 1842 N 166.648 6.8877 1.36161 0
M  V30 1843 H 171.488 2.90096 -0.681781 0
M  V30 1844 H 169.025 1.42925 -0.347988 0
M  V30 1845 H 170.983 3.84886 1.60992 0
M  V30 1846 H 169.613 2.71562 1.74511 0
M  V30 1847 H 168.665 3.77981 -0.428295 0
M  V30 1848 H 169.977 4.97619 -0.343052 0
M  V30 1849 H 169.131 5.77004 1.87487 0
M  V30 1850 H 167.87 4.50488 1.86847 0
M  V30 1851 H 166.875 5.49386 -0.213433 0
M  V30 1852 H 168.1 6.78837 -0.188968 0
M  V30 1853 H 166.046 6.25096 1.98975 0
M  V30 1854 H 165.963 7.51663 0.808656 0
M  V30 1855 H 167.231 7.53467 1.99769 0
M  V30 1856 N 171.46 0.379036 1.52974 0
M  V30 1857 C 172.709 -0.207612 2.00629 0
M  V30 1858 C 173.022 -1.48758 1.27006 0
M  V30 1859 O 174.228 -2.15365 1.65318 0
M  V30 1860 C 172.684 -0.42053 3.57435 0
M  V30 1861 C 172.292 0.845587 4.39948 0
M  V30 1862 C 174.036 -0.964102 4.13407 0
M  V30 1863 C 171.943 0.601513 5.88333 0
M  V30 1864 H 170.873 -0.0813591 0.749598 0
M  V30 1865 H 173.524 0.499853 1.76561 0
M  V30 1866 H 171.906 -1.18959 3.7771 0
M  V30 1867 H 173.08 1.61848 4.31442 0
M  V30 1868 H 171.395 1.31336 3.95145 0
M  V30 1869 H 173.992 -1.16225 5.21916 0
M  V30 1870 H 174.335 -1.93019 3.68849 0
M  V30 1871 H 174.868 -0.25487 3.96983 0
M  V30 1872 H 171.607 1.53831 6.37194 0
M  V30 1873 H 171.127 -0.132628 5.99653 0
M  V30 1874 H 172.806 0.232134 6.46583 0
M  V30 1875 N 172.938 -1.57226 0.108567 0
M  V30 1876 C 174.184 -1.95919 -0.546564 0
M  V30 1877 C 174.539 -0.990417 -1.6495 0
M  V30 1878 O 173.832 -0.0186593 -1.91591 0
M  V30 1879 C 174.026 -3.38911 -1.13463 0
M  V30 1880 C 173.855 -4.4961 -0.0901926 0
M  V30 1881 C 172.625 -5.04168 0.338008 0
M  V30 1882 C 174.823 -5.09693 0.686808 0
M  V30 1883 N 172.805 -5.98434 1.36931 0
M  V30 1884 C 174.176 -5.99804 1.56958 0
M  V30 1885 C 176.231 -4.92388 0.738846 0
M  V30 1886 C 174.934 -6.74463 2.49983 0
M  V30 1887 C 176.96 -5.67719 1.65676 0
M  V30 1888 C 176.322 -6.57507 2.52713 0
M  V30 1889 H 172.421 -0.763312 -0.169936 0
M  V30 1890 H 175.005 -1.93728 0.194264 0
M  V30 1891 H 173.176 -3.41769 -1.84522 0
M  V30 1892 H 174.908 -3.64752 -1.75322 0
M  V30 1893 H 171.663 -4.73571 -0.0523673 0
M  V30 1894 H 172.087 -6.5027 1.88356 0
M  V30 1895 H 176.729 -4.22724 0.080084 0
M  V30 1896 H 174.447 -7.4338 3.16878 0
M  V30 1897 H 178.033 -5.56338 1.70233 0
M  V30 1898 H 176.913 -7.14778 3.22586 0
M  V30 1899 N 174.416 0.165178 -1.56732 0
M  V30 1900 C 175.379 1.18822 -1.95995 0
M  V30 1901 C 176.379 1.3685 -0.84431 0
M  V30 1902 O 177.569 1.34152 -1.11126 0
M  V30 1903 C 174.701 2.5521 -2.26011 0
M  V30 1904 H 175.894 0.851825 -2.87548 0
M  V30 1905 H 173.447 0.407857 -1.50885 0
M  V30 1906 H 174.182 2.93852 -1.37191 0
M  V30 1907 H 173.967 2.43489 -3.07336 0
M  V30 1908 H 175.457 3.28927 -2.57288 0
M  V30 1909 N 175.894 1.51508 0.433938 0
M  V30 1910 C 177.171 1.54888 1.19453 0
M  V30 1911 C 177.551 0.315154 2.08734 0
M  V30 1912 O 176.899 -0.699558 2.17528 0
M  V30 1913 C 177.109 2.86467 1.99342 0
M  V30 1914 C 178.457 3.38545 2.56267 0
M  V30 1915 O 179.481 2.88041 2.0955 0
M  V30 1916 O 178.34 4.26675 3.41483 0
M  V30 1917 H 175.434 0.622863 0.544032 0
M  V30 1918 H 177.98 1.63823 0.442732 0
M  V30 1919 H 176.752 3.67718 1.33788 0
M  V30 1920 H 176.375 2.8071 2.8158 0
M  V30 1921 N 177.372 -0.689602 1.41712 0
M  V30 1922 C 178.335 -1.78521 1.43746 0
M  V30 1923 C 179.335 -1.57436 0.327191 0
M  V30 1924 O 180.525 -1.64 0.587348 0
M  V30 1925 C 177.657 -3.16971 1.25467 0
M  V30 1926 H 178.85 -1.78108 2.41283 0
M  V30 1927 H 176.403 -0.89781 1.27942 0
M  V30 1928 H 177.138 -3.23019 0.287948 0
M  V30 1929 H 176.923 -3.33678 2.05917 0
M  V30 1930 H 178.413 -3.96935 1.2974 0
M  V30 1931 N 178.85 -1.27639 -0.924453 0
M  V30 1932 C 180.075 -1.17101 -1.71179 0
M  V30 1933 C 180.5 0.268134 -1.86179 0
M  V30 1934 O 179.858 1.19415 -1.36418 0
M  V30 1935 C 179.906 -1.86313 -3.08739 0
M  V30 1936 O 179.01 -1.16331 -3.95652 0
M  V30 1937 H 178.351 -0.407091 -0.524569 0
M  V30 1938 H 180.881 -1.68767 -1.15666 0
M  V30 1939 H 180.891 -1.938 -3.59034 0
M  V30 1940 H 179.566 -2.91001 -2.97138 0
M  V30 1941 H 178.143 -1.16935 -3.54091 0
M  V30 1942 N 180.328 1.1314 -1.09713 0
M  V30 1943 C 181.568 1.8613 -0.844683 0
M  V30 1944 C 181.932 1.81765 0.618491 0
M  V30 1945 O 183.133 2.50024 0.98699 0
M  V30 1946 C 181.404 3.30151 -1.36877 0
M  V30 1947 S 182.963 4.206 -1.25064 0
M  V30 1948 H 179.781 0.642056 -0.305427 0
M  V30 1949 H 182.383 1.36343 -1.4011 0
M  V30 1950 H 181.087 3.30883 -2.42786 0
M  V30 1951 H 180.618 3.85 -0.808614 0
M  V30 1952 H 182.633 4.95783 -0.203486 0
M  V30 1953 N 181.806 0.884767 1.30421 0
M  V30 1954 C 182.753 0.349642 2.28136 0
M  V30 1955 C 183.723 -0.560061 1.56373 0
M  V30 1956 O 184.908 -0.488524 1.8444 0
M  V30 1957 C 182.048 -0.42999 3.42411 0
M  V30 1958 C 181.161 0.508907 4.28992 0
M  V30 1959 C 180.296 -0.286301 5.30428 0
M  V30 1960 C 179.335 0.648079 6.08659 0
M  V30 1961 N 178.472 -0.111792 7.02011 0
M  V30 1962 H 183.312 1.18807 2.73293 0
M  V30 1963 H 180.849 0.597231 1.3443 0
M  V30 1964 H 182.807 -0.897923 4.07423 0
M  V30 1965 H 181.437 -1.23299 2.98324 0
M  V30 1966 H 180.489 1.09533 3.64289 0
M  V30 1967 H 181.801 1.22475 4.8353 0
M  V30 1968 H 180.955 -0.816098 6.01186 0
M  V30 1969 H 179.694 -1.03536 4.76583 0
M  V30 1970 H 178.699 1.18951 5.36778 0
M  V30 1971 H 179.924 1.39623 6.64592 0
M  V30 1972 H 177.87 -0.843395 6.50556 0
M  V30 1973 H 177.787 0.544429 7.54037 0
M  V30 1974 H 179.055 -0.622339 7.77012 0
M  V30 1975 N 183.284 -1.43765 0.645699 0
M  V30 1976 C 184.53 -2.02197 0.156271 0
M  V30 1977 C 184.863 -1.50776 -1.22393 0
M  V30 1978 O 184.138 -0.697771 -1.81553 0
M  V30 1979 C 184.421 -3.59749 0.158872 0
M  V30 1980 C 184.274 -4.21419 1.57245 0
M  V30 1981 C 185.593 -4.37149 -0.50879 0
M  V30 1982 H 182.712 -0.734694 0.0582602 0
M  V30 1983 H 185.354 -1.71157 0.824951 0
M  V30 1984 H 183.504 -3.86325 -0.410525 0
M  V30 1985 H 185.176 -4.059 2.19186 0
M  V30 1986 H 183.419 -3.78356 2.122 0
M  V30 1987 H 184.09 -5.30482 1.52619 0
M  V30 1988 H 186.566 -4.16093 -0.024412 0
M  V30 1989 H 185.442 -5.4683 -0.476213 0
M  V30 1990 H 185.703 -4.12839 -1.58165 0
M  V30 1991 N 184.763 -0.387143 -1.52771 0
M  V30 1992 C 185.993 0.195585 -2.05672 0
M  V30 1993 C 186.401 1.41241 -1.25887 0
M  V30 1994 O 185.744 1.81265 -0.298081 0
M  V30 1995 C 185.806 0.632327 -3.53895 0
M  V30 1996 C 185.47 -0.470739 -4.54569 0
M  V30 1997 C 186.467 -1.32746 -5.02667 0
M  V30 1998 C 184.152 -0.637151 -4.98243 0
M  V30 1999 C 186.146 -2.33574 -5.93061 0
M  V30 2000 C 183.833 -1.64877 -5.88438 0
M  V30 2001 C 184.831 -2.49649 -6.35739 0
M  V30 2002 O 184.519 -3.49082 -7.24153 0
M  V30 2003 H 184.251 0.033658 -0.675162 0
M  V30 2004 H 186.805 -0.550221 -1.97893 0
M  V30 2005 H 185.035 1.43008 -3.59285 0
M  V30 2006 H 186.724 1.14048 -3.89548 0
M  V30 2007 H 187.49 -1.21019 -4.69659 0
M  V30 2008 H 183.369 0.0129567 -4.60998 0
M  V30 2009 H 186.913 -2.99777 -6.29904 0
M  V30 2010 H 182.81 -1.76643 -6.2086 0
M  V30 2011 H 183.578 -3.45065 -7.42208 0
M  V30 2012 N 186.241 1.57166 -0.116904 0
M  V30 2013 C 187.49 1.94298 0.541407 0
M  V30 2014 C 187.803 1.00236 1.67964 0
M  V30 2015 O 189.009 1.26826 2.40057 0
M  V30 2016 C 187.465 3.45306 1.01449 0
M  V30 2017 C 187.073 4.47899 -0.0951738 0
M  V30 2018 C 188.817 3.91361 1.6443 0
M  V30 2019 C 186.724 5.90083 0.394491 0
M  V30 2020 H 185.654 0.725308 0.206019 0
M  V30 2021 H 188.305 1.82446 -0.196419 0
M  V30 2022 H 186.687 3.52385 1.80667 0
M  V30 2023 H 187.861 4.52486 -0.871374 0
M  V30 2024 H 186.176 4.11583 -0.631505 0
M  V30 2025 H 188.773 4.95004 2.02176 0
M  V30 2026 H 189.116 3.3122 2.52189 0
M  V30 2027 H 189.649 3.87073 0.917559 0
M  V30 2028 H 186.388 6.53974 -0.447004 0
M  V30 2029 H 185.908 5.88921 1.13722 0
M  V30 2030 H 187.587 6.41307 0.856399 0
M  V30 2031 N 187.719 -0.156864 1.56817 0
M  V30 2032 C 188.666 -1.19394 1.97519 0
M  V30 2033 C 189.636 -1.4322 0.841265 0
M  V30 2034 O 190.821 -1.55719 1.10255 0
M  V30 2035 C 187.961 -2.52483 2.35258 0
M  V30 2036 C 187.074 -2.35914 3.61896 0
M  V30 2037 C 186.209 -3.61969 3.88782 0
M  V30 2038 C 185.248 -3.40395 5.08722 0
M  V30 2039 N 184.385 -4.58556 5.31668 0
M  V30 2040 H 189.225 -0.839845 2.85921 0
M  V30 2041 H 186.762 -0.403264 1.41464 0
M  V30 2042 H 188.72 -3.30071 2.55165 0
M  V30 2043 H 187.35 -2.85859 1.49949 0
M  V30 2044 H 186.402 -1.49429 3.49821 0
M  V30 2045 H 187.714 -2.15926 4.49641 0
M  V30 2046 H 186.868 -4.47989 4.09135 0
M  V30 2047 H 185.607 -3.84951 2.9944 0
M  V30 2048 H 184.612 -2.52763 4.88253 0
M  V30 2049 H 185.837 -3.18822 5.99608 0
M  V30 2050 H 183.783 -4.81729 4.45279 0
M  V30 2051 H 183.7 -4.41535 6.13664 0
M  V30 2052 H 184.968 -5.45817 5.5651 0
M  V30 2053 N 189.197 -1.51736 -0.425897 0
M  V30 2054 C 190.446 -1.64201 -1.17136 0
M  V30 2055 C 190.759 -0.369705 -1.92074 0
M  V30 2056 O 191.965 -0.373898 -2.68913 0
M  V30 2057 C 190.421 -2.90035 -2.13091 0
M  V30 2058 C 190.029 -4.24312 -1.43747 0
M  V30 2059 C 191.773 -3.1186 -2.87999 0
M  V30 2060 C 189.68 -5.41285 -2.38253 0
M  V30 2061 H 188.61 -0.611624 -0.440944 0
M  V30 2062 H 191.261 -1.78212 -0.437328 0
M  V30 2063 H 189.643 -2.69684 -2.89977 0
M  V30 2064 H 190.817 -4.55086 -0.723408 0
M  V30 2065 H 189.132 -4.08456 -0.809465 0
M  V30 2066 H 191.729 -3.96427 -3.58817 0
M  V30 2067 H 192.072 -2.25403 -3.49999 0
M  V30 2068 H 192.605 -3.32605 -2.18217 0
M  V30 2069 H 189.344 -6.30037 -1.80925 0
M  V30 2070 H 188.864 -5.14872 -3.0768 0
M  V30 2071 H 190.543 -5.73694 -2.99139 0
M  V30 2072 N 190.675 0.682077 -1.42076 0
M  V30 2073 C 191.923 1.4393 -1.41876 0
M  V30 2074 C 192.244 1.94971 -0.0335599 0
M  V30 2075 O 191.514 1.72591 0.926773 0
M  V30 2076 H 190.094 0.534085 -0.522267 0
M  V30 2077 H 192.756 0.806427 -1.77434 0
M  V30 2078 H 191.852 2.29588 -2.11414 0
M  V30 2079 N 192.153 1.28127 0.917671 0
M  V30 2080 C 193.085 1.07517 2.02417 0
M  V30 2081 C 194.098 0.0281099 1.62776 0
M  V30 2082 O 195.287 0.270748 1.76435 0
M  V30 2083 C 192.387 0.610957 3.33347 0
M  V30 2084 C 191.56 1.73255 4.01624 0
M  V30 2085 C 190.619 1.26238 5.10833 0
M  V30 2086 O 189.645 1.96389 5.34247 0
M  V30 2087 N 190.847 0.123448 5.80369 0
M  V30 2088 H 193.612 2.02806 2.20658 0
M  V30 2089 H 191.173 1.19827 1.08871 0
M  V30 2090 H 193.165 0.280101 4.0373 0
M  V30 2091 H 191.735 -0.24898 3.11607 0
M  V30 2092 H 190.955 2.23319 3.24842 0
M  V30 2093 H 192.243 2.48503 4.43986 0
M  V30 2094 H 191.641 -0.461847 5.63812 0
M  V30 2095 H 190.198 -0.148158 6.51632 0
M  V30 2096 N 193.631 -1.12557 1.10312 0
M  V30 2097 C 194.564 -2.1737 0.694674 0
M  V30 2098 C 195.542 -1.59745 -0.303373 0
M  V30 2099 O 196.726 -1.87408 -0.202578 0
M  V30 2100 C 193.853 -3.38691 0.0248052 0
M  V30 2101 C 192.899 -4.14943 0.986121 0
M  V30 2102 S 193.732 -4.73413 2.50281 0
M  V30 2103 C 194.888 -5.9807 1.84562 0
M  V30 2104 H 195.121 -2.5168 1.58255 0
M  V30 2105 H 192.654 -1.23998 0.919992 0
M  V30 2106 H 194.612 -4.08959 -0.355361 0
M  V30 2107 H 193.273 -3.02664 -0.839851 0
M  V30 2108 H 192.466 -5.01854 0.464651 0
M  V30 2109 H 192.068 -3.50377 1.30813 0
M  V30 2110 H 194.36 -6.67232 1.17507 0
M  V30 2111 H 195.303 -6.54841 2.69423 0
M  V30 2112 H 195.711 -5.49073 1.31069 0
M  V30 2113 N 195.109 -0.891671 -1.2995 0
M  V30 2114 C 196.072 -0.36828 -2.26222 0
M  V30 2115 C 197.072 0.493014 -1.53056 0
M  V30 2116 O 198.262 0.299213 -1.71611 0
M  V30 2117 C 195.394 0.47442 -3.37583 0
M  V30 2118 H 196.587 -1.21844 -2.74033 0
M  V30 2119 H 194.14 -0.669107 -1.41254 0
M  V30 2120 H 194.875 1.34489 -2.95099 0
M  V30 2121 H 194.66 -0.142615 -3.91841 0
M  V30 2122 H 196.15 0.83218 -4.09224 0
M  V30 2123 N 196.587 1.43421 -0.653314 0
M  V30 2124 C 197.497 2.34568 0.0388565 0
M  V30 2125 C 198.513 1.53888 0.81207 0
M  V30 2126 O 199.689 1.86539 0.759294 0
M  V30 2127 C 196.754 3.32167 0.993269 0
M  V30 2128 C 195.815 4.28751 0.216977 0
M  V30 2129 C 195.048 5.21688 1.12593 0
M  V30 2130 O 195.271 5.19052 2.36519 0
M  V30 2131 O 194.205 5.98919 0.598284 0
M  V30 2132 H 198.031 2.95251 -0.711386 0
M  V30 2133 H 195.616 1.43564 -0.413502 0
M  V30 2134 H 197.498 3.92183 1.54176 0
M  V30 2135 H 196.173 2.73987 1.72374 0
M  V30 2136 H 195.08 3.72215 -0.375101 0
M  V30 2137 H 196.413 4.89913 -0.473924 0
M  V30 2138 N 198.065 0.39524 1.52563 0
M  V30 2139 C 199.476 -0.0774719 1.86539 0
M  V30 2140 C 199.827 -1.45641 1.31466 0
M  V30 2141 O 198.952 -2.06459 0.648367 0
M  V30 2142 C 199.547 -0.147356 3.38479 0
M  V30 2143 C 198.106 -0.564373 3.72145 0
M  V30 2144 C 197.253 0.269919 2.75983 0
M  V30 2145 H 200.204 0.612876 1.46388 0
M  V30 2146 H 200.225 -0.965343 3.68051 0
M  V30 2147 H 199.737 0.856387 3.78534 0
M  V30 2148 H 197.838 -1.57527 3.37663 0
M  V30 2149 H 197.951 -0.318402 4.78041 0
M  V30 2150 H 196.315 -0.265696 2.5331 0
M  V30 2151 H 197.098 1.27175 3.18875 0
M  V30 2152 N 199.544 -1.57102 0.125237 0
M  V30 2153 C 200.774 -1.99472 -0.538015 0
M  V30 2154 C 201.182 -1.00395 -1.60366 0
M  V30 2155 O 200.525 0.0103875 -1.83697 0
M  V30 2156 C 200.587 -3.38262 -1.21734 0
M  V30 2157 C 200.251 -4.56021 -0.298897 0
M  V30 2158 C 201.248 -5.17817 0.464943 0
M  V30 2159 C 198.933 -5.01869 -0.208149 0
M  V30 2160 C 200.927 -6.23852 1.3072 0
M  V30 2161 C 198.614 -6.07763 0.637736 0
M  V30 2162 C 199.612 -6.68622 1.39403 0
M  V30 2163 O 199.3 -7.7247 2.22586 0
M  V30 2164 H 199.032 -0.659934 -0.146501 0
M  V30 2165 H 201.586 -2.04321 0.210267 0
M  V30 2166 H 199.816 -3.30185 -2.01282 0
M  V30 2167 H 201.505 -3.6488 -1.77813 0
M  V30 2168 H 202.271 -4.83308 0.404741 0
M  V30 2169 H 198.15 -4.54241 -0.786522 0
M  V30 2170 H 201.694 -6.71284 1.898 0
M  V30 2171 H 197.591 -6.41701 0.699309 0
M  V30 2172 H 198.359 -7.89595 2.15596 0
M  V30 2173 N 201.022 0.148545 -1.56898 0
M  V30 2174 C 201.985 1.16736 -1.97244 0
M  V30 2175 C 202.985 1.35947 -0.858777 0
M  V30 2176 O 204.175 1.32966 -1.12542 0
M  V30 2177 C 201.307 2.52798 -2.28705 0
M  V30 2178 H 202.5 0.821279 -2.88435 0
M  V30 2179 H 200.053 0.391831 -1.51309 0
M  V30 2180 H 200.788 2.92381 -1.403 0
M  V30 2181 H 200.573 2.40216 -3.09901 0
M  V30 2182 H 202.063 3.26179 -2.60762 0
M  V30 2183 N 202.5 1.5196 0.417844 0
M  V30 2184 C 203.41 1.77554 1.53336 0
M  V30 2185 C 204.426 0.660655 1.6097 0
M  V30 2186 O 205.602 0.945099 1.77848 0
M  V30 2187 C 202.667 1.91291 2.89152 0
M  V30 2188 C 201.728 3.15183 2.91475 0
M  V30 2189 C 200.961 3.28256 4.20813 0
M  V30 2190 O 201.184 2.46798 5.14244 0
M  V30 2191 O 200.118 4.21356 4.29817 0
M  V30 2192 H 203.944 2.7222 1.34647 0
M  V30 2193 H 201.529 1.36698 0.602828 0
M  V30 2194 H 203.411 2.02199 3.69721 0
M  V30 2195 H 202.086 0.998129 3.07927 0
M  V30 2196 H 200.993 3.09739 2.09791 0
M  V30 2197 H 202.326 4.06414 2.77648 0
M  V30 2198 N 203.978 -0.674533 1.42435 0
M  V30 2199 C 205.208 -1.46071 1.46105 0
M  V30 2200 C 205.616 -1.89067 0.0709605 0
M  V30 2201 O 204.959 -1.58731 -0.924677 0
M  V30 2202 C 205.021 -2.74145 2.32561 0
M  V30 2203 C 204.685 -2.53224 3.8043 0
M  V30 2204 C 205.682 -2.17809 4.72075 0
M  V30 2205 C 203.367 -2.6821 4.24698 0
M  V30 2206 C 205.361 -1.97648 6.05982 0
M  V30 2207 C 203.048 -2.47665 5.58664 0
M  V30 2208 C 204.046 -2.12437 6.49122 0
M  V30 2209 O 203.734 -1.9209 7.80613 0
M  V30 2210 H 203.466 -0.455959 0.499076 0
M  V30 2211 H 206.02 -0.836193 1.87609 0
M  V30 2212 H 204.25 -3.3908 1.85908 0
M  V30 2213 H 205.939 -3.36028 2.27683 0
M  V30 2214 H 206.705 -2.05826 4.39159 0
M  V30 2215 H 202.584 -2.94609 3.54579 0
M  V30 2216 H 206.128 -1.70075 6.7655 0
M  V30 2217 H 202.025 -2.59244 5.91154 0
M  V30 2218 H 202.793 -2.06686 7.91974 0
M  V30 2219 N 205.456 -1.28612 -0.910864 0
M  V30 2220 C 206.702 -1.17116 -1.66299 0
M  V30 2221 C 207.057 0.276917 -1.90397 0
M  V30 2222 O 206.35 1.19795 -1.49532 0
M  V30 2223 C 206.544 -1.90624 -3.0232 0
M  V30 2224 C 206.373 -3.42431 -2.91498 0
M  V30 2225 C 205.143 -4.11773 -2.92867 0
M  V30 2226 C 207.341 -4.38124 -2.69355 0
M  V30 2227 N 205.323 -5.50025 -2.72664 0
M  V30 2228 C 206.694 -5.63759 -2.58023 0
M  V30 2229 C 208.749 -4.28016 -2.54375 0
M  V30 2230 C 207.452 -6.80436 -2.33238 0
M  V30 2231 C 209.478 -5.44433 -2.30969 0
M  V30 2232 C 208.84 -6.69034 -2.20394 0
M  V30 2233 H 204.939 -0.483506 -0.61461 0
M  V30 2234 H 207.523 -1.62299 -1.0755 0
M  V30 2235 H 205.694 -1.4787 -3.5915 0
M  V30 2236 H 207.426 -1.71488 -3.66571 0
M  V30 2237 H 204.181 -3.63378 -3.03732 0
M  V30 2238 H 204.605 -6.22705 -2.65646 0
M  V30 2239 H 209.247 -3.32388 -2.613 0
M  V30 2240 H 206.965 -7.7613 -2.25051 0
M  V30 2241 H 210.551 -5.38504 -2.20238 0
M  V30 2242 H 209.431 -7.57595 -2.02531 0
M  V30 2243 N 206.934 1.1197 -1.10907 0
M  V30 2244 C 207.882 2.19927 -0.757303 0
M  V30 2245 C 208.876 1.67564 0.248747 0
M  V30 2246 O 210.082 1.79672 0.108605 0
M  V30 2247 H 206.457 0.716925 -0.226987 0
M  V30 2248 H 208.428 2.46847 -1.67658 0
M  V30 2249 C 207.177 3.47061 -0.210671 0
M  V30 2250 H 206.5 3.87703 -0.976049 0
M  V30 2251 H 207.94 4.24 -0.0026584 0
M  V30 2252 C 206.399 3.19864 1.05777 0
M  V30 2253 O 206.929 3.40049 2.13845 0
M  V30 2254 N 205.135 2.73636 0.978349 0
M  V30 2255 H 204.682 2.5741 0.0988246 0
M  V30 2256 H 204.64 2.55815 1.82773 0
M  V30 2257 N 208.412 0.89855 1.29475 0
M  V30 2258 C 209.36 0.365253 2.29714 0
M  V30 2259 C 210.354 -0.534993 1.6073 0
M  V30 2260 O 211.56 -0.417921 1.75081 0
M  V30 2261 H 207.935 0.0994853 0.74539 0
M  V30 2262 H 209.906 1.22406 2.72138 0
M  V30 2263 C 208.655 -0.393159 3.4547 0
M  V30 2264 H 207.978 0.290332 3.98744 0
M  V30 2265 H 209.418 -0.731189 4.17648 0
M  V30 2266 C 207.877 -1.59539 2.9673 0
M  V30 2267 O 208.407 -2.69469 2.97908 0
M  V30 2268 N 206.613 -1.43716 2.52575 0
M  V30 2269 H 206.16 -0.542828 2.51816 0
M  V30 2270 H 206.118 -2.24288 2.20323 0
M  V30 2271 N 209.89 -1.43072 0.660911 0
M  V30 2272 C 210.837 -2.30785 -0.0259884 0
M  V30 2273 C 211.807 -1.45184 -0.806888 0
M  V30 2274 O 212.992 -1.74041 -0.781943 0
M  V30 2275 C 210.132 -3.30861 -0.981067 0
M  V30 2276 C 209.245 -4.31558 -0.195458 0
M  V30 2277 C 208.38 -5.18712 -1.14503 0
M  V30 2278 C 207.419 -6.11097 -0.350299 0
M  V30 2279 N 206.556 -6.90849 -1.25186 0
M  V30 2280 H 211.396 -2.88975 0.727846 0
M  V30 2281 H 208.933 -1.42353 0.370682 0
M  V30 2282 H 210.891 -3.87399 -1.54849 0
M  V30 2283 H 209.521 -2.74304 -1.70169 0
M  V30 2284 H 208.573 -3.77252 0.488374 0
M  V30 2285 H 209.885 -4.9701 0.422176 0
M  V30 2286 H 209.039 -5.79914 -1.78284 0
M  V30 2287 H 207.778 -4.53404 -1.79656 0
M  V30 2288 H 206.783 -5.48976 0.300808 0
M  V30 2289 H 208.008 -6.7845 0.296941 0
M  V30 2290 H 205.954 -6.28182 -1.89005 0
M  V30 2291 H 205.871 -7.52854 -0.688971 0
M  V30 2292 H 207.139 -7.5655 -1.87757 0
M  V30 2293 N 211.368 -0.403325 -1.52352 0
M  V30 2294 C 212.614 0.167015 -2.02713 0
M  V30 2295 C 212.969 1.43296 -1.28391 0
M  V30 2296 O 212.262 1.87796 -0.379885 0
M  V30 2297 C 212.456 0.474665 -3.54234 0
M  V30 2298 C 212.285 -0.759909 -4.43233 0
M  V30 2299 C 211.055 -1.28338 -4.88731 0
M  V30 2300 C 213.253 -1.63634 -4.87574 0
M  V30 2301 N 211.235 -2.47404 -5.6184 0
M  V30 2302 C 212.606 -2.67329 -5.59406 0
M  V30 2303 C 214.661 -1.65478 -4.69597 0
M  V30 2304 C 213.364 -3.72773 -6.15169 0
M  V30 2305 C 215.39 -2.69837 -5.26253 0
M  V30 2306 C 214.752 -3.72253 -5.98002 0
M  V30 2307 H 210.851 0.0228343 -0.781667 0
M  V30 2308 H 213.435 -0.556368 -1.86581 0
M  V30 2309 H 211.606 1.16709 -3.7045 0
M  V30 2310 H 213.338 1.03338 -3.91284 0
M  V30 2311 H 210.093 -0.842273 -4.6605 0
M  V30 2312 H 210.517 -3.07688 -6.0304 0
M  V30 2313 H 215.159 -0.876389 -4.13617 0
M  V30 2314 H 212.877 -4.51471 -6.70223 0
M  V30 2315 H 216.463 -2.72164 -5.14216 0
M  V30 2316 H 215.343 -4.51679 -6.41058 0
M  V30 2317 N 212.846 1.57033 -0.133567 0
M  V30 2318 C 214.071 2.00475 0.531477 0
M  V30 2319 C 214.496 1.01291 1.58499 0
M  V30 2320 O 213.854 -0.0133279 1.81295 0
M  V30 2321 C 213.902 3.42729 1.12113 0
M  V30 2322 O 213.006 3.46498 2.23636 0
M  V30 2323 H 212.347 0.650876 0.131362 0
M  V30 2324 H 214.877 2.03344 -0.22634 0
M  V30 2325 H 214.887 3.81246 1.4531 0
M  V30 2326 H 213.562 4.14428 0.349557 0
M  V30 2327 H 212.139 3.19811 1.91769 0
M  V30 2328 N 214.325 -0.140222 1.56975 0
M  V30 2329 C 215.736 -0.699596 1.73097 0
M  V30 2330 C 216.087 -1.8134 0.749022 0
M  V30 2331 O 215.212 -2.16241 -0.0828503 0
M  V30 2332 C 215.807 -1.27582 3.1386 0
M  V30 2333 C 214.366 -1.78169 3.31561 0
M  V30 2334 C 213.513 -0.672855 2.69013 0
M  V30 2335 H 216.464 0.0855115 1.58469 0
M  V30 2336 H 216.485 -2.14561 3.14235 0
M  V30 2337 H 215.997 -0.464955 3.85305 0
M  V30 2338 H 214.098 -2.61801 2.65124 0
M  V30 2339 H 214.211 -1.90574 4.39566 0
M  V30 2340 H 212.575 -1.10118 2.29665 0
M  V30 2341 H 213.358 0.126679 3.43066 0
M  V30 2342 N 215.803 -1.52179 -0.40978 0
M  V30 2343 C 217.033 -1.69807 -1.17682 0
M  V30 2344 C 217.441 -0.406908 -1.84773 0
M  V30 2345 O 216.784 0.626863 -1.72673 0
M  V30 2346 C 216.846 -2.77712 -2.2829 0
M  V30 2347 C 216.51 -4.19481 -1.81341 0
M  V30 2348 C 217.507 -5.03345 -1.30154 0
M  V30 2349 C 215.192 -4.65713 -1.88194 0
M  V30 2350 C 217.186 -6.31511 -0.864416 0
M  V30 2351 C 214.873 -5.93869 -1.44093 0
M  V30 2352 C 215.871 -6.76597 -0.933023 0
M  V30 2353 O 215.559 -8.02354 -0.49838 0
M  V30 2354 H 215.291 -0.572372 -0.359675 0
M  V30 2355 H 217.845 -1.99511 -0.488311 0
M  V30 2356 H 216.075 -2.43383 -3.00502 0
M  V30 2357 H 217.764 -2.83946 -2.90051 0
M  V30 2358 H 218.53 -4.68819 -1.24232 0
M  V30 2359 H 214.409 -4.01424 -2.26671 0
M  V30 2360 H 217.953 -6.96033 -0.467286 0
M  V30 2361 H 213.85 -6.27903 -1.49694 0
M  V30 2362 H 214.618 -8.16135 -0.621747 0
M  V30 2363 N 217.281 0.66697 -1.42791 0
M  V30 2364 C 218.509 1.45505 -1.47091 0
M  V30 2365 C 218.924 1.8861 -0.0845873 0
M  V30 2366 O 218.281 1.58632 0.90234 0
M  V30 2367 C 218.332 2.69906 -2.40485 0
M  V30 2368 O 218.053 2.28608 -3.73725 0
M  V30 2369 C 219.554 3.63396 -2.53886 0
M  V30 2370 H 216.774 0.447459 -0.500022 0
M  V30 2371 H 219.318 0.818866 -1.8739 0
M  V30 2372 H 217.473 3.29696 -2.03419 0
M  V30 2373 H 217.887 3.08997 -4.23817 0
M  V30 2374 H 219.361 4.47387 -3.2334 0
M  V30 2375 H 219.838 4.09824 -1.57927 0
M  V30 2376 H 220.444 3.09495 -2.91706 0
M  V30 2377 N 218.759 1.29093 0.90403 0
M  V30 2378 C 219.689 1.16401 2.02418 0
M  V30 2379 C 220.67 0.0593085 1.69997 0
M  V30 2380 O 221.855 0.238021 1.92736 0
M  V30 2381 C 218.985 0.835233 3.37107 0
M  V30 2382 C 217.939 1.89578 3.83724 0
M  V30 2383 C 217.265 1.42041 5.15489 0
M  V30 2384 C 218.565 3.30394 4.04521 0
M  V30 2385 H 220.259 2.10109 2.13295 0
M  V30 2386 H 217.805 1.01157 1.02486 0
M  V30 2387 H 219.758 0.733169 4.14973 0
M  V30 2388 H 218.482 -0.137543 3.2631 0
M  V30 2389 H 217.141 1.98715 3.08071 0
M  V30 2390 H 216.789 0.436426 5.01103 0
M  V30 2391 H 216.489 2.12964 5.4765 0
M  V30 2392 H 218.013 1.33176 5.959 0
M  V30 2393 H 219.427 3.24123 4.72882 0
M  V30 2394 H 217.824 3.99237 4.48029 0
M  V30 2395 H 218.894 3.73692 3.09002 0
M  V30 2396 N 220.237 -1.11381 1.11499 0
M  V30 2397 C 221.465 -1.86934 0.88675 0
M  V30 2398 C 221.88 -1.80195 -0.563476 0
M  V30 2399 O 221.237 -1.18367 -1.38908 0
M  V30 2400 C 221.288 -3.35722 1.34064 0
M  V30 2401 O 221.009 -3.4232 2.73401 0
M  V30 2402 C 222.51 -4.2818 1.14791 0
M  V30 2403 H 219.73 -0.591117 0.317523 0
M  V30 2404 H 222.274 -1.40865 1.48248 0
M  V30 2405 H 220.429 -3.79294 0.788355 0
M  V30 2406 H 220.843 -4.34971 2.93087 0
M  V30 2407 H 222.317 -5.30817 1.5145 0
M  V30 2408 H 222.794 -4.39113 0.0875279 0
M  V30 2409 H 223.4 -3.90402 1.68721 0
M  V30 2410 N 221.715 -0.905404 -1.28997 0
M  V30 2411 C 222.678 -0.392253 -2.25819 0
M  V30 2412 C 223.678 0.476753 -1.5357 0
M  V30 2413 O 224.868 0.280994 -1.71919 0
M  V30 2414 C 222 0.438588 -3.38067 0
M  V30 2415 H 223.193 -1.24743 -2.72725 0
M  V30 2416 H 220.746 -0.684051 -1.40536 0
M  V30 2417 H 221.481 1.31352 -2.96508 0
M  V30 2418 H 221.266 -0.184167 -3.91667 0
M  V30 2419 H 222.756 0.78873 -4.10084 0
M  V30 2420 N 223.193 1.4272 -0.668489 0
M  V30 2421 C 224.441 2.01226 -0.187769 0
M  V30 2422 C 224.762 1.53092 1.2078 0
M  V30 2423 O 224.032 0.74993 1.80977 0
M  V30 2424 H 222.612 0.744041 -0.0664272 0
M  V30 2425 H 225.274 1.74723 -0.863583 0
M  V30 2426 H 224.37 3.11556 -0.184166 0
M  V30 2427 N 224.671 0.411399 1.52136 0
M  V30 2428 C 225.618 -0.412975 2.27075 0
M  V30 2429 C 226.588 -1.03912 1.29582 0
M  V30 2430 O 227.773 -1.06296 1.58448 0
M  V30 2431 C 224.913 -1.52247 3.09701 0
M  V30 2432 C 224.026 -0.917021 4.22155 0
M  V30 2433 C 223.161 -1.9994 4.92135 0
M  V30 2434 C 222.2 -1.37101 5.96548 0
M  V30 2435 N 221.337 -2.39364 6.60038 0
M  V30 2436 H 226.177 0.232499 2.97092 0
M  V30 2437 H 223.714 0.126496 1.46555 0
M  V30 2438 H 225.672 -2.17674 3.55913 0
M  V30 2439 H 224.302 -2.13794 2.41851 0
M  V30 2440 H 223.354 -0.151742 3.80097 0
M  V30 2441 H 224.666 -0.418006 4.97045 0
M  V30 2442 H 223.82 -2.73088 5.41763 0
M  V30 2443 H 222.559 -2.53208 4.16818 0
M  V30 2444 H 221.564 -0.624873 5.46237 0
M  V30 2445 H 222.789 -0.845998 6.7381 0
M  V30 2446 H 220.735 -2.91759 5.87548 0
M  V30 2447 H 220.652 -1.9428 7.3061 0
M  V30 2448 H 221.92 -3.12074 7.14304 0
M  V30 2449 N 226.149 -1.5696 0.141893 0
M  V30 2450 C 227.395 -1.9625 -0.511248 0
M  V30 2451 C 227.728 -1.02654 -1.64851 0
M  V30 2452 O 227.003 -0.0679676 -1.94381 0
M  V30 2453 C 227.286 -3.45285 -1.02227 0
M  V30 2454 C 227.139 -4.49658 0.113138 0
M  V30 2455 C 228.458 -3.96698 -1.90574 0
M  V30 2456 H 225.577 -0.713567 -0.184367 0
M  V30 2457 H 228.219 -1.88698 0.222087 0
M  V30 2458 H 226.369 -3.51852 -1.64719 0
M  V30 2459 H 228.041 -4.55174 0.749302 0
M  V30 2460 H 226.284 -4.26857 0.773026 0
M  V30 2461 H 226.955 -5.51258 -0.286053 0
M  V30 2462 H 229.431 -3.92578 -1.37918 0
M  V30 2463 H 228.307 -5.01453 -2.2324 0
M  V30 2464 H 228.568 -3.3875 -2.84079 0
M  V30 2465 N 227.627 0.131896 -1.57047 0
M  V30 2466 C 228.557 1.16384 -2.02428 0
M  V30 2467 C 229.538 1.43936 -0.90644 0
M  V30 2468 O 230.723 1.54599 -1.17528 0
M  V30 2469 C 227.853 2.49328 -2.4177 0
M  V30 2470 C 226.807 2.36266 -3.56879 0
M  V30 2471 C 226.133 3.74057 -3.8208 0
M  V30 2472 C 227.433 1.834 -4.89042 0
M  V30 2473 H 229.127 0.786433 -2.88887 0
M  V30 2474 H 226.673 0.376855 -1.38981 0
M  V30 2475 H 228.626 3.21759 -2.7212 0
M  V30 2476 H 227.35 2.88934 -1.52266 0
M  V30 2477 H 226.009 1.66286 -3.26718 0
M  V30 2478 H 225.657 4.11125 -2.89803 0
M  V30 2479 H 225.357 3.66174 -4.59554 0
M  V30 2480 H 226.881 4.48012 -4.1487 0
M  V30 2481 H 228.295 2.45636 -5.18011 0
M  V30 2482 H 226.692 1.8637 -5.70426 0
M  V30 2483 H 227.762 0.790662 -4.7841 0
M  V30 2484 N 229.106 1.52395 0.401703 0
M  V30 2485 C 230.016 1.7917 1.51444 0
M  V30 2486 C 231.032 0.677691 1.6026 0
M  V30 2487 O 232.208 0.963909 1.76835 0
M  V30 2488 C 229.273 1.94347 2.87107 0
M  V30 2489 C 228.334 3.18257 2.88116 0
M  V30 2490 C 227.567 3.32701 4.17308 0
M  V30 2491 O 227.79 2.52238 5.11598 0
M  V30 2492 O 226.724 4.25891 4.25324 0
M  V30 2493 H 230.55 2.73633 1.31752 0
M  V30 2494 H 228.135 1.3733 0.588296 0
M  V30 2495 H 230.017 2.06109 3.67555 0
M  V30 2496 H 228.692 1.03073 3.06851 0
M  V30 2497 H 227.599 3.11947 2.06494 0
M  V30 2498 H 228.932 4.09336 2.73322 0
M  V30 2499 N 230.584 -0.659388 1.43143 0
M  V30 2500 C 231.833 -1.41518 1.43721 0
M  V30 2501 C 232.146 -1.95499 0.0628176 0
M  V30 2502 O 233.352 -2.71446 -0.0539683 0
M  V30 2503 C 231.808 -2.5608 2.52885 0
M  V30 2504 C 231.416 -2.08733 3.96402 0
M  V30 2505 C 233.16 -3.3349 2.62649 0
M  V30 2506 C 231.067 -3.20469 4.97045 0
M  V30 2507 H 229.997 -0.531705 0.534608 0
M  V30 2508 H 232.648 -0.712343 1.69109 0
M  V30 2509 H 231.03 -3.28805 2.20688 0
M  V30 2510 H 232.204 -1.43059 4.3803 0
M  V30 2511 H 230.519 -1.44219 3.90627 0
M  V30 2512 H 233.116 -4.16734 3.35017 0
M  V30 2513 H 233.459 -3.8111 1.67513 0
M  V30 2514 H 233.992 -2.67842 2.94118 0
M  V30 2515 H 230.731 -2.77824 5.93712 0
M  V30 2516 H 230.251 -3.84874 4.60034 0
M  V30 2517 H 231.93 -3.85698 5.19467 0
M  V30 2518 N 232.062 -1.29571 -0.897171 0
M  V30 2519 C 233.339 -1.08365 -1.62839 0
M  V30 2520 C 233.719 0.371331 -2.07808 0
M  V30 2521 O 233.067 1.3606 -1.83576 0
M  V30 2522 C 233.277 -2.0735 -2.80726 0
M  V30 2523 C 234.625 -2.38406 -3.51351 0
M  V30 2524 O 235.649 -2.05564 -2.90898 0
M  V30 2525 O 234.508 -2.9453 -4.60341 0
M  V30 2526 H 231.602 -0.415345 -0.715134 0
M  V30 2527 H 234.148 -1.40952 -0.945018 0
M  V30 2528 H 232.92 -3.05339 -2.44711 0
M  V30 2529 H 232.543 -1.75507 -3.56767 0
M  V30 2530 N 233.54 1.10788 -1.12088 0
M  V30 2531 C 234.45 2.20599 -0.798338 0
M  V30 2532 C 235.466 1.72712 0.21135 0
M  V30 2533 O 236.642 2.01348 0.0458477 0
M  V30 2534 C 233.707 3.45771 -0.253674 0
M  V30 2535 C 232.768 4.08411 -1.32283 0
M  V30 2536 C 232.001 5.27608 -0.80406 0
M  V30 2537 O 232.224 5.69241 0.363478 0
M  V30 2538 O 231.158 5.8101 -1.57198 0
M  V30 2539 H 234.984 2.50614 -1.7154 0
M  V30 2540 H 232.569 1.19454 -0.897275 0
M  V30 2541 H 234.451 4.21376 0.0453691 0
M  V30 2542 H 233.126 3.1739 0.636005 0
M  V30 2543 H 232.033 3.34507 -1.67499 0
M  V30 2544 H 233.366 4.40986 -2.18614 0
M  V30 2545 N 235.018 0.912232 1.28515 0
M  V30 2546 C 236.246 0.560416 1.99166 0
M  V30 2547 C 236.661 -0.857927 1.68182 0
M  V30 2548 O 236.018 -1.56805 0.933733 0
M  V30 2549 C 236.069 0.758142 3.53461 0
M  V30 2550 O 235.79 2.12067 3.83352 0
M  V30 2551 C 237.291 0.412954 4.41372 0
M  V30 2552 H 234.511 0.213805 0.636026 0
M  V30 2553 H 237.055 1.22502 1.63749 0
M  V30 2554 H 235.21 0.140556 3.87145 0
M  V30 2555 H 235.624 2.15923 4.77993 0
M  V30 2556 H 237.098 0.60208 5.48707 0
M  V30 2557 H 237.575 -0.65073 4.34353 0
M  V30 2558 H 238.181 1.00802 4.13182 0
M  V30 2559 N 236.496 -1.42363 0.676048 0
M  V30 2560 C 237.743 -2.01522 0.19883 0
M  V30 2561 C 238.071 -1.53456 -1.19505 0
M  V30 2562 O 237.326 -0.727967 -1.81657 0
M  V30 2563 C 237.625 -3.56929 0.183431 0
M  V30 2564 C 237.291 -4.24431 1.52215 0
M  V30 2565 C 235.953 -4.42585 1.8887 0
M  V30 2566 C 238.305 -4.62459 2.40377 0
M  V30 2567 C 235.633 -4.96039 3.13309 0
M  V30 2568 C 237.985 -5.17294 3.64129 0
M  V30 2569 C 236.649 -5.33661 4.00951 0
M  V30 2570 H 235.919 -0.737419 0.0727571 0
M  V30 2571 H 238.566 -1.70531 0.871281 0
M  V30 2572 H 236.871 -3.87594 -0.572532 0
M  V30 2573 H 238.568 -4.00486 -0.203035 0
M  V30 2574 H 235.158 -4.10661 1.22701 0
M  V30 2575 H 239.342 -4.48105 2.13343 0
M  V30 2576 H 234.598 -5.06896 3.41857 0
M  V30 2577 H 238.772 -5.45704 4.32644 0
M  V30 2578 H 236.399 -5.74845 4.9745 0
M  V30 2579 N 237.974 -0.419461 -1.51915 0
M  V30 2580 C 239.22 0.153166 -2.02221 0
M  V30 2581 C 239.553 1.43907 -1.30401 0
M  V30 2582 O 238.828 1.90055 -0.413438 0
M  V30 2583 C 239.111 0.390291 -3.57979 0
M  V30 2584 C 238.964 -0.913014 -4.40436 0
M  V30 2585 C 240.283 1.16794 -4.2432 0
M  V30 2586 H 237.402 0.0541924 -0.735005 0
M  V30 2587 H 240.044 -0.554955 -1.81715 0
M  V30 2588 H 238.194 0.993491 -3.75582 0
M  V30 2589 H 239.866 -1.54882 -4.34522 0
M  V30 2590 H 238.109 -1.52168 -4.06236 0
M  V30 2591 H 238.78 -0.701361 -5.47526 0
M  V30 2592 H 241.256 0.657161 -4.10878 0
M  V30 2593 H 240.132 1.3026 -5.3322 0
M  V30 2594 H 240.393 2.19132 -3.83971 0
M  V30 2595 N 239.452 1.56882 -0.150215 0
M  V30 2596 C 240.385 2.12712 0.826358 0
M  V30 2597 C 241.363 1.05154 1.24022 0
M  V30 2598 O 242.547 1.33004 1.33575 0
M  V30 2599 C 239.674 2.64945 2.11002 0
M  V30 2600 C 238.72 3.8468 1.84183 0
M  V30 2601 S 239.553 5.25502 1.02995 0
M  V30 2602 C 240.709 5.81125 2.32474 0
M  V30 2603 H 240.942 2.95214 0.351598 0
M  V30 2604 H 238.475 1.54267 0.0641211 0
M  V30 2605 H 240.433 2.95689 2.84742 0
M  V30 2606 H 239.094 1.82568 2.55593 0
M  V30 2607 H 238.287 4.19482 2.79375 0
M  V30 2608 H 237.889 3.54714 1.1855 0
M  V30 2609 H 240.181 5.92753 3.281 0
M  V30 2610 H 241.124 6.78625 2.02171 0
M  V30 2611 H 241.532 5.09392 2.43269 0
M  V30 2612 N 240.93 -0.123565 1.57115 0
M  V30 2613 C 242.207 -0.862196 1.75572 0
M  V30 2614 C 242.587 -1.98279 0.724475 0
M  V30 2615 O 241.935 -2.27102 -0.252407 0
M  V30 2616 C 242.145 -1.38309 3.20424 0
M  V30 2617 C 243.493 -1.83724 3.82793 0
M  V30 2618 O 244.517 -1.47999 3.23998 0
M  V30 2619 O 243.376 -2.49685 4.86127 0
M  V30 2620 H 240.47 -0.409113 0.718718 0
M  V30 2621 H 243.016 -0.107661 1.69358 0
M  V30 2622 H 241.788 -0.578889 3.86994 0
M  V30 2623 H 241.411 -2.20046 3.31158 0
M  V30 2624 N 242.408 -1.52605 -0.393616 0
M  V30 2625 C 243.355 -1.77055 -1.48054 0
M  V30 2626 C 244.325 -0.61358 -1.54352 0
M  V30 2627 O 245.51 -0.852806 -1.70681 0
M  V30 2628 C 242.65 -1.94108 -2.85335 0
M  V30 2629 C 241.763 -3.21792 -2.88226 0
M  V30 2630 C 240.898 -3.29188 -4.16904 0
M  V30 2631 C 239.937 -4.51013 -4.13828 0
M  V30 2632 N 239.074 -4.55716 -5.34105 0
M  V30 2633 H 243.914 -2.69815 -1.26506 0
M  V30 2634 H 241.451 -1.33683 -0.61379 0
M  V30 2635 H 243.409 -2.01979 -3.65049 0
M  V30 2636 H 242.039 -1.04713 -3.05344 0
M  V30 2637 H 241.091 -3.23015 -2.00911 0
M  V30 2638 H 242.403 -4.11557 -2.8182 0
M  V30 2639 H 241.557 -3.36216 -5.05018 0
M  V30 2640 H 240.296 -2.37389 -4.26026 0
M  V30 2641 H 239.301 -4.44115 -3.24102 0
M  V30 2642 H 240.526 -5.44123 -4.06333 0
M  V30 2643 H 238.472 -3.66807 -5.43865 0
M  V30 2644 H 238.389 -5.39346 -5.29756 0
M  V30 2645 H 239.657 -4.66993 -6.2413 0
M  V30 2646 N 243.887 0.651787 -1.4349 0
M  V30 2647 C 245.298 1.233 -1.40193 0
M  V30 2648 C 245.649 1.9591 -0.106727 0
M  V30 2649 O 244.774 2.01316 0.793773 0
M  V30 2650 C 245.369 2.24257 -2.53957 0
M  V30 2651 C 243.928 2.77852 -2.5392 0
M  V30 2652 C 243.075 1.52517 -2.3159 0
M  V30 2653 H 246.026 0.443717 -1.52371 0
M  V30 2654 H 246.047 3.0646 -2.25528 0
M  V30 2655 H 245.559 1.71382 -3.4821 0
M  V30 2656 H 243.66 3.34786 -1.63551 0
M  V30 2657 H 243.773 3.25299 -3.51735 0
M  V30 2658 H 242.137 1.79915 -1.80285 0
M  V30 2659 H 242.92 1.01574 -3.27929 0
M  V30 2660 N 245.365 1.30045 0.890287 0
M  V30 2661 C 246.593 1.21472 1.67487 0
M  V30 2662 C 247.008 -0.223241 1.87476 0
M  V30 2663 O 246.365 -1.14828 1.41847 0
M  V30 2664 C 246.416 1.93394 3.05419 0
M  V30 2665 O 246.137 3.31576 2.86337 0
M  V30 2666 C 247.638 1.91414 3.99844 0
M  V30 2667 H 244.858 0.420604 0.522813 0
M  V30 2668 H 247.402 1.7158 1.11268 0
M  V30 2669 H 245.557 1.47099 3.58386 0
M  V30 2670 H 245.971 3.67929 3.73802 0
M  V30 2671 H 247.445 2.46285 4.94012 0
M  V30 2672 H 247.922 0.891833 4.3005 0
M  V30 2673 H 248.528 2.37496 3.52811 0
M  V30 2674 N 246.843 -1.10192 1.12674 0
M  V30 2675 C 248.12 -1.78717 0.794965 0
M  V30 2676 C 248.5 -1.98628 -0.714853 0
M  V30 2677 O 247.848 -1.58135 -1.64941 0
M  V30 2678 C 248.058 -3.11546 1.5729 0
M  V30 2679 C 249.406 -3.86382 1.76052 0
M  V30 2680 O 250.43 -3.21274 1.53823 0
M  V30 2681 O 249.289 -5.03246 2.13087 0
M  V30 2682 H 246.383 -0.774702 0.289423 0
M  V30 2683 H 248.929 -1.16819 1.23091 0
M  V30 2684 H 247.701 -2.92489 2.59935 0
M  V30 2685 H 247.324 -3.81164 1.13137 0
M  V30 2686 N 248.321 -0.919034 -1.28029 0
M  V30 2687 C 249.598 -0.473668 -1.89778 0
M  V30 2688 C 249.978 1.04783 -1.83259 0
M  V30 2689 O 249.326 1.8982 -1.27202 0
M  V30 2690 C 249.536 -1.00998 -3.34066 0
M  V30 2691 C 250.884 -1.06525 -4.1102 0
M  V30 2692 O 251.908 -0.958996 -3.43048 0
M  V30 2693 O 250.767 -1.22776 -5.3253 0
M  V30 2694 H 247.861 -0.15098 -0.813101 0
M  V30 2695 H 250.407 -1.01016 -1.36359 0
M  V30 2696 H 249.179 -2.05392 -3.33061 0
M  V30 2697 H 248.802 -0.454626 -3.94992 0
M  V30 2698 N 249.799 1.42003 -0.683588 0
M  V30 2699 C 251.027 2.05746 -0.218182 0
M  V30 2700 C 251.442 1.51396 1.12804 0
M  V30 2701 O 250.799 0.657303 1.70252 0
M  V30 2702 C 250.85 3.61171 -0.154131 0
M  V30 2703 O 250.571 4.13508 -1.44716 0
M  V30 2704 C 252.072 4.42042 0.333713 0
M  V30 2705 H 249.292 0.662888 -0.10402 0
M  V30 2706 H 251.836 1.81987 -0.9328 0
M  V30 2707 H 249.991 3.84012 0.511231 0
M  V30 2708 H 250.405 5.07453 -1.32632 0
M  V30 2709 H 251.879 5.51028 0.327423 0
M  V30 2710 H 252.356 4.17269 1.37053 0
M  V30 2711 H 252.962 4.24239 -0.300222 0
M  V30 2712 N 251.277 0.427512 1.51691 0
M  V30 2713 C 252.517 -0.141524 2.03909 0
M  V30 2714 C 252.881 -1.40811 1.30523 0
M  V30 2715 O 254.082 -2.05676 1.73063 0
M  V30 2716 C 252.353 -0.364962 3.55532 0
M  V30 2717 S 253.912 -0.898812 4.29496 0
M  V30 2718 H 250.73 -0.0364542 0.710065 0
M  V30 2719 H 253.332 0.584659 1.86553 0
M  V30 2720 H 252.036 0.56336 4.06515 0
M  V30 2721 H 251.567 -1.1185 3.77164 0
M  V30 2722 H 253.582 -2.17747 4.45871 0
M  V30 2723 N 252.755 -1.56801 0.158532 0
M  V30 2724 C 253.665 -2.20916 -0.789518 0
M  V30 2725 C 254.681 -1.1969 -1.26294 0
M  V30 2726 O 255.857 -1.52308 -1.31773 0
M  V30 2727 C 252.922 -2.82727 -2.00665 0
M  V30 2728 C 251.983 -3.99114 -1.58134 0
M  V30 2729 C 251.216 -4.57968 -2.74045 0
M  V30 2730 O 251.439 -4.15704 -3.90572 0
M  V30 2731 O 250.373 -5.48047 -2.48855 0
M  V30 2732 H 254.199 -3.02464 -0.273681 0
M  V30 2733 H 251.784 -1.4924 -0.0690548 0
M  V30 2734 H 253.666 -3.21968 -2.71872 0
M  V30 2735 H 252.341 -2.04184 -2.51179 0
M  V30 2736 H 251.248 -3.64567 -0.839155 0
M  V30 2737 H 252.581 -4.79212 -1.12325 0
M  V30 2738 N 254.233 0.115231 -1.57178 0
M  V30 2739 C 255.48 0.822351 -1.8505 0
M  V30 2740 C 255.808 1.79701 -0.744168 0
M  V30 2741 O 255.063 1.93909 0.26414 0
M  V30 2742 C 255.362 1.60324 -3.19423 0
M  V30 2743 C 255.028 0.772536 -4.44233 0
M  V30 2744 C 253.69 0.543468 -4.78121 0
M  V30 2745 C 256.042 0.193746 -5.2084 0
M  V30 2746 C 253.37 -0.274583 -5.86057 0
M  V30 2747 C 255.722 -0.611517 -6.29637 0
M  V30 2748 C 254.386 -0.850867 -6.62055 0
M  V30 2749 H 253.656 0.30092 -0.677147 0
M  V30 2750 H 256.303 0.0845802 -1.91313 0
M  V30 2751 H 254.608 2.41203 -3.08753 0
M  V30 2752 H 256.305 2.1544 -3.38211 0
M  V30 2753 H 252.895 0.96117 -4.17683 0
M  V30 2754 H 257.079 0.357926 -4.95008 0
M  V30 2755 H 252.335 -0.469206 -6.09597 0
M  V30 2756 H 256.509 -1.06697 -6.88178 0
M  V30 2757 H 254.136 -1.48657 -7.45523 0
M  V30 2758 N 255.711 1.52812 0.385517 0
M  V30 2759 C 256.939 1.71907 1.15133 0
M  V30 2760 C 257.354 0.439004 1.83625 0
M  V30 2761 O 256.711 -0.586765 1.7281 0
M  V30 2762 C 256.762 2.87099 2.19673 0
M  V30 2763 O 256.483 4.10151 1.53973 0
M  V30 2764 C 257.984 3.17902 3.08955 0
M  V30 2765 H 255.204 0.575479 0.345057 0
M  V30 2766 H 257.748 1.99476 0.45052 0
M  V30 2767 H 255.903 2.61982 2.85384 0
M  V30 2768 H 256.317 4.74514 2.23465 0
M  V30 2769 H 257.791 4.01959 3.7833 0
M  V30 2770 H 258.268 2.3243 3.72657 0
M  V30 2771 H 258.874 3.44871 2.48885 0
M  V30 2772 N 257.189 -0.644168 1.43834 0
M  V30 2773 C 258.436 -1.40395 1.4593 0
M  V30 2774 C 258.764 -1.94305 0.0869658 0
M  V30 2775 O 258.019 -1.73288 -0.909378 0
M  V30 2776 C 258.318 -2.59615 2.45631 0
M  V30 2777 C 257.984 -2.2407 3.91284 0
M  V30 2778 C 256.646 -2.14089 4.30952 0
M  V30 2779 C 258.998 -1.95775 4.83034 0
M  V30 2780 C 256.326 -1.73981 5.6031 0
M  V30 2781 C 258.678 -1.57163 6.12766 0
M  V30 2782 C 257.342 -1.45713 6.51402 0
M  V30 2783 H 256.612 -0.513741 0.533995 0
M  V30 2784 H 259.259 -0.731724 1.76969 0
M  V30 2785 H 257.564 -3.32011 2.08028 0
M  V30 2786 H 259.261 -3.17834 2.44504 0
M  V30 2787 H 255.851 -2.32753 3.59895 0
M  V30 2788 H 260.035 -2.02403 4.53152 0
M  V30 2789 H 255.291 -1.63709 5.89075 0
M  V30 2790 H 259.465 -1.34303 6.83327 0
M  V30 2791 H 257.092 -1.14406 7.51542 0
M  V30 2792 N 258.668 -1.30515 -0.883378 0
M  V30 2793 C 259.618 -1.13641 -1.9766 0
M  V30 2794 C 260.602 -0.0511314 -1.60819 0
M  V30 2795 O 261.794 -0.274623 -1.74857 0
M  V30 2796 C 258.923 -0.831976 -3.33066 0
M  V30 2797 C 258.009 -1.95759 -3.76217 0
M  V30 2798 N 258.4 -3.20313 -3.9145 0
M  V30 2799 C 256.698 -1.85431 -4.05625 0
M  V30 2800 C 257.399 -3.93856 -4.2808 0
M  V30 2801 N 256.375 -3.21919 -4.38029 0
M  V30 2802 H 260.177 -2.08106 -2.07531 0
M  V30 2803 H 257.691 -1.21877 -1.0733 0
M  V30 2804 H 259.688 -0.692102 -4.11115 0
M  V30 2805 H 258.348 0.104588 -3.24532 0
M  V30 2806 H 259.359 -3.55583 -3.76538 0
M  V30 2807 H 256.036 -0.991531 -4.05555 0
M  V30 2808 H 257.426 -5.01125 -4.47575 0
M  V30 2809 N 260.146 1.09593 -1.13257 0
M  V30 2810 C 261.076 2.18214 -0.830946 0
M  V30 2811 C 262.057 1.68812 0.208966 0
M  V30 2812 O 263.242 1.9408 0.0682666 0
M  V30 2813 C 260.372 3.46051 -0.294296 0
M  V30 2814 C 259.326 4.08778 -1.26826 0
M  V30 2815 C 258.652 5.31419 -0.591449 0
M  V30 2816 C 259.952 4.51476 -2.62615 0
M  V30 2817 H 261.646 2.43703 -1.73923 0
M  V30 2818 H 259.192 1.17128 -0.837675 0
M  V30 2819 H 261.145 4.2134 -0.0709606 0
M  V30 2820 H 259.869 3.20079 0.649366 0
M  V30 2821 H 258.528 3.35505 -1.47756 0
M  V30 2822 H 258.176 5.01727 0.357633 0
M  V30 2823 H 257.876 5.74341 -1.24123 0
M  V30 2824 H 259.4 6.09433 -0.377355 0
M  V30 2825 H 260.814 5.17999 -2.45663 0
M  V30 2826 H 259.211 5.05277 -3.23752 0
M  V30 2827 H 260.281 3.63962 -3.20406 0
M  V30 2828 N 261.624 0.925811 1.2754 0
M  V30 2829 C 262.872 0.564138 1.94067 0
M  V30 2830 C 263.193 -0.897188 1.73134 0
M  V30 2831 O 262.463 -1.63573 1.07799 0
M  V30 2832 H 261.043 0.205645 0.718136 0
M  V30 2833 H 263.705 1.1778 1.55287 0
M  V30 2834 H 262.801 0.76881 3.02483 0
M  V30 2835 N 263.102 -1.41638 0.69111 0
M  V30 2836 C 264.35 -2.00902 0.219758 0
M  V30 2837 C 264.671 -1.54994 -1.18329 0
M  V30 2838 O 263.941 -0.778628 -1.79762 0
M  V30 2839 H 262.521 -0.74289 0.0782558 0
M  V30 2840 H 265.183 -1.73327 0.891271 0
M  V30 2841 H 264.279 -3.11224 0.233708 0
M  V30 2842 N 264.58 -0.43555 -1.51462 0
M  V30 2843 C 265.49 0.383001 -2.31453 0
M  V30 2844 C 266.506 1.02931 -1.4029 0
M  V30 2845 O 267.682 1.02507 -1.73362 0
M  V30 2846 C 264.747 1.47043 -3.13973 0
M  V30 2847 C 263.808 0.844433 -4.20913 0
M  V30 2848 C 263.041 1.88004 -4.9949 0
M  V30 2849 O 263.264 3.10199 -4.78678 0
M  V30 2850 O 262.198 1.47157 -5.83634 0
M  V30 2851 H 266.024 -0.269964 -3.02498 0
M  V30 2852 H 263.609 -0.19813 -1.4808 0
M  V30 2853 H 265.491 2.10113 -3.65281 0
M  V30 2854 H 264.166 2.10751 -2.45695 0
M  V30 2855 H 263.073 0.175729 -3.73687 0
M  V30 2856 H 264.406 0.250869 -4.9156 0
M  V30 2857 N 266.058 1.56714 -0.166846 0
M  V30 2858 C 266.988 2.20754 0.760913 0
M  V30 2859 C 267.969 1.16178 1.24244 0
M  V30 2860 O 269.154 1.44592 1.29641 0
M  V30 2861 C 266.284 2.84478 1.99223 0
M  V30 2862 C 265.238 3.95053 1.64672 0
M  V30 2863 C 264.564 4.45805 2.95232 0
M  V30 2864 C 265.864 5.14865 0.878155 0
M  V30 2865 H 267.558 2.98537 0.22713 0
M  V30 2866 H 265.104 1.43596 0.107805 0
M  V30 2867 H 267.057 3.27951 2.64624 0
M  V30 2868 H 265.781 2.04056 2.55007 0
M  V30 2869 H 264.44 3.52228 1.01641 0
M  V30 2870 H 264.088 3.62181 3.49047 0
M  V30 2871 H 263.788 5.204 2.7287 0
M  V30 2872 H 265.312 4.91962 3.6167 0
M  V30 2873 H 266.726 5.55059 1.43466 0
M  V30 2874 H 265.123 5.95348 0.753738 0
M  V30 2875 H 266.193 4.84735 -0.126377 0
M  V30 2876 N 267.536 -0.106894 1.57237 0
M  V30 2877 C 268.499 -1.11466 2.0027 0
M  V30 2878 C 269.499 -1.33623 0.894519 0
M  V30 2879 O 270.689 -1.29935 1.16028 0
M  V30 2880 C 267.821 -2.46646 2.35327 0
M  V30 2881 H 269.014 -0.744516 2.90512 0
M  V30 2882 H 266.567 -0.351576 1.52295 0
M  V30 2883 H 267.302 -2.88558 1.48003 0
M  V30 2884 H 267.087 -2.31915 3.16161 0
M  V30 2885 H 268.577 -3.19151 2.69318 0
M  V30 2886 N 269.014 -1.53014 -0.377408 0
M  V30 2887 C 269.977 -1.77957 -1.44444 0
M  V30 2888 C 270.977 -0.649763 -1.47087 0
M  V30 2889 O 272.167 -0.917897 -1.48055 0
M  V30 2890 C 269.299 -1.89089 -2.83651 0
M  V30 2891 H 270.492 -2.73243 -1.23606 0
M  V30 2892 H 268.045 -1.43912 -0.609844 0
M  V30 2893 H 268.78 -0.958293 -3.09818 0
M  V30 2894 H 268.565 -2.71254 -2.83132 0
M  V30 2895 H 270.055 -2.1002 -3.60945 0
M  V30 2896 N 270.492 0.636531 -1.44174 0
M  V30 2897 C 271.72 1.42353 -1.50144 0
M  V30 2898 C 272.135 1.88389 -0.124575 0
M  V30 2899 O 271.492 1.6051 0.868489 0
M  V30 2900 C 271.543 2.64744 -2.46156 0
M  V30 2901 O 271.264 2.20629 -3.7849 0
M  V30 2902 C 272.765 3.57929 -2.61537 0
M  V30 2903 H 269.985 0.436752 -0.5094 0
M  V30 2904 H 272.529 0.778933 -1.89084 0
M  V30 2905 H 270.684 3.25307 -2.10366 0
M  V30 2906 H 271.098 2.99938 -4.30276 0
M  V30 2907 H 272.572 4.40428 -3.32757 0
M  V30 2908 H 273.049 4.06382 -1.66585 0
M  V30 2909 H 273.655 3.03238 -2.98206 0
M  V30 2910 N 271.97 1.30982 0.876444 0
M  V30 2911 C 273.381 1.18277 1.44456 0
M  V30 2912 C 273.732 -0.213265 1.95037 0
M  V30 2913 O 272.857 -1.11057 1.85729 0
M  V30 2914 C 273.452 2.1411 2.62569 0
M  V30 2915 C 272.011 2.05358 3.15444 0
M  V30 2916 C 271.158 2.03706 1.88146 0
M  V30 2917 H 274.109 1.43127 0.685584 0
M  V30 2918 H 274.13 1.72692 3.39054 0
M  V30 2919 H 273.642 3.15706 2.25724 0
M  V30 2920 H 271.743 1.06934 3.56926 0
M  V30 2921 H 271.856 2.94156 3.78166 0
M  V30 2922 H 270.22 1.48629 2.06837 0
M  V30 2923 H 271.003 3.07047 1.53547 0
M  V30 2924 N 273.449 -1.08991 1.13837 0
M  V30 2925 C 274.86 -1.62746 0.914917 0
M  V30 2926 C 275.211 -1.88403 -0.547594 0
M  V30 2927 O 274.336 -1.63706 -1.41525 0
M  V30 2928 C 274.931 -2.95662 1.65437 0
M  V30 2929 C 273.49 -3.46225 1.47666 0
M  V30 2930 C 272.637 -2.20562 1.6807 0
M  V30 2931 H 275.588 -0.922946 1.29102 0
M  V30 2932 H 275.609 -3.63825 1.11407 0
M  V30 2933 H 275.121 -2.76956 2.71877 0
M  V30 2934 H 273.222 -3.70046 0.435478 0
M  V30 2935 H 273.335 -4.23368 2.24268 0
M  V30 2936 H 271.699 -2.29439 1.10589 0
M  V30 2937 H 272.482 -2.0437 2.7584 0
M  V30 2938 N 274.927 -0.932562 -1.27047 0
M  V30 2939 C 276.157 -0.591173 -1.97961 0
M  V30 2940 C 276.565 0.836219 -1.69717 0
M  V30 2941 O 275.908 1.56801 -0.957036 0
M  V30 2942 C 275.97 -0.743082 -3.51736 0
M  V30 2943 C 275.634 -2.1435 -4.03613 0
M  V30 2944 C 276.631 -3.11815 -4.16014 0
M  V30 2945 C 274.316 -2.46175 -4.37839 0
M  V30 2946 C 276.31 -4.39211 -4.61923 0
M  V30 2947 C 273.997 -3.73806 -4.83438 0
M  V30 2948 C 274.995 -4.70137 -4.95439 0
M  V30 2949 O 274.683 -5.95496 -5.40037 0
M  V30 2950 H 274.415 -0.222375 -0.638377 0
M  V30 2951 H 276.969 -1.25317 -1.62742 0
M  V30 2952 H 275.199 -0.0239739 -3.86693 0
M  V30 2953 H 276.888 -0.40603 -4.03864 0
M  V30 2954 H 277.654 -2.88549 -3.89826 0
M  V30 2955 H 273.533 -1.71936 -4.27737 0
M  V30 2956 H 277.077 -5.14404 -4.71205 0
M  V30 2957 H 272.974 -3.96888 -5.09068 0
M  V30 2958 H 273.742 -5.98554 -5.58279 0
M  V30 2959 N 276.405 1.4127 -0.698611 0
M  V30 2960 C 277.633 2.05503 -0.239992 0
M  V30 2961 C 278.048 1.52584 1.11191 0
M  V30 2962 O 277.405 0.675323 1.69545 0
M  V30 2963 C 277.456 3.60987 -0.192429 0
M  V30 2964 O 277.177 4.1195 -1.49094 0
M  V30 2965 C 278.678 4.42371 0.28681 0
M  V30 2966 H 275.898 0.661748 -0.111045 0
M  V30 2967 H 278.442 1.80987 -0.95205 0
M  V30 2968 H 276.597 3.84533 0.470472 0
M  V30 2969 H 277.011 5.06018 -1.38007 0
M  V30 2970 H 278.485 5.51344 0.26896 0
M  V30 2971 H 278.962 4.18699 1.32619 0
M  V30 2972 H 279.568 4.23897 -0.345201 0
M  V30 2973 N 277.883 0.443576 1.51229 0
M  V30 2974 C 279.129 -0.120975 2.02439 0
M  V30 2975 C 279.462 -1.41815 1.32674 0
M  V30 2976 O 278.737 -1.89373 0.443622 0
M  V30 2977 C 279.02 -0.333291 3.58554 0
M  V30 2978 C 278.873 0.982968 4.38928 0
M  V30 2979 C 280.192 -1.10028 4.26124 0
M  V30 2980 H 277.311 -0.0424923 0.735774 0
M  V30 2981 H 279.953 0.583794 1.80809 0
M  V30 2982 H 278.103 -0.933614 3.77115 0
M  V30 2983 H 279.775 1.61775 4.32003 0
M  V30 2984 H 278.018 1.58611 4.03763 0
M  V30 2985 H 278.689 0.788379 5.46341 0
M  V30 2986 H 281.165 -0.591711 4.11871 0
M  V30 2987 H 280.041 -1.21761 5.35225 0
M  V30 2988 H 280.302 -2.12996 3.87408 0
M  V30 2989 N 279.361 -1.56624 0.175154 0
M  V30 2990 C 280.591 -2.01082 -0.474283 0
M  V30 2991 C 280.999 -1.05447 -1.57091 0
M  V30 2992 O 280.342 -0.0480595 -1.83637 0
M  V30 2993 C 280.404 -3.41963 -1.10911 0
M  V30 2994 C 280.068 -4.56742 -0.153666 0
M  V30 2995 C 281.065 -5.16076 0.629448 0
M  V30 2996 C 278.75 -5.02277 -0.0483776 0
M  V30 2997 C 280.744 -6.19377 1.50501 0
M  V30 2998 C 278.431 -6.05427 0.830768 0
M  V30 2999 C 279.429 -6.63849 1.60605 0
M  V30 3000 O 279.117 -7.64998 2.47049 0
M  V30 3001 H 278.849 -0.664261 -0.125432 0
M  V30 3002 H 281.403 -2.03549 0.275163 0
M  V30 3003 H 279.633 -3.36422 -1.90676 0
M  V30 3004 H 281.322 -3.70352 -1.66114 0
M  V30 3005 H 282.088 -4.81776 0.558297 0
M  V30 3006 H 277.967 -4.56513 -0.641611 0
M  V30 3007 H 281.511 -6.64906 2.1106 0
M  V30 3008 H 277.408 -6.39151 0.903107 0
M  V30 3009 H 278.176 -7.82336 2.40607 0
M  V30 3010 N 280.839 0.0985539 -1.57292 0
M  V30 3011 C 281.769 1.12064 -2.04851 0
M  V30 3012 C 282.75 1.41981 -0.936767 0
M  V30 3013 O 283.935 1.52071 -1.20781 0
M  V30 3014 C 281.065 2.44144 -2.47004 0
M  V30 3015 C 280.019 2.28643 -3.6181 0
M  V30 3016 C 279.345 3.65869 -3.89929 0
M  V30 3017 C 280.645 1.72986 -4.92822 0
M  V30 3018 H 282.339 0.724979 -2.9049 0
M  V30 3019 H 279.885 0.34729 -1.39749 0
M  V30 3020 H 281.838 3.15914 -2.78884 0
M  V30 3021 H 280.562 2.85639 -1.5836 0
M  V30 3022 H 279.221 1.59318 -3.30172 0
M  V30 3023 H 278.869 4.04885 -2.98458 0
M  V30 3024 H 278.569 3.56344 -4.67218 0
M  V30 3025 H 280.093 4.39112 -4.2428 0
M  V30 3026 H 281.507 2.34593 -5.23105 0
M  V30 3027 H 279.904 1.74229 -5.74251 0
M  V30 3028 H 280.974 0.689007 -4.7998 0
M  V30 3029 N 282.317 1.53212 0.369288 0
M  V30 3030 C 283.594 1.59815 1.12776 0
M  V30 3031 C 283.974 0.403402 2.0721 0
M  V30 3032 O 283.322 -0.606667 2.20299 0
M  V30 3033 C 283.532 2.94664 1.87013 0
M  V30 3034 C 284.88 3.49109 2.41677 0
M  V30 3035 O 285.904 2.96669 1.97144 0
M  V30 3036 O 284.763 4.40775 3.23079 0
M  V30 3037 H 281.857 0.645376 0.517125 0
M  V30 3038 H 284.403 1.65553 0.37285 0
M  V30 3039 H 283.175 3.73061 1.18071 0
M  V30 3040 H 282.798 2.92401 2.69421 0
M  V30 3041 N 283.795 -0.628877 1.44509 0
M  V30 3042 C 285.072 -1.38733 1.37886 0
M  V30 3043 C 285.452 -2.11065 0.0387008 0
M  V30 3044 O 284.8 -2.06476 -0.97878 0
M  V30 3045 C 285.01 -2.35188 2.57852 0
M  V30 3046 C 286.358 -2.9845 3.02014 0
M  V30 3047 O 287.382 -2.45513 2.58073 0
M  V30 3048 O 286.241 -3.94487 3.78209 0
M  V30 3049 H 283.335 -0.621015 0.54614 0
M  V30 3050 H 285.881 -0.653744 1.56602 0
M  V30 3051 H 284.653 -1.80855 3.46998 0
M  V30 3052 H 284.276 -3.1596 2.4136 0
M  V30 3053 N 285.273 -1.31445 -0.869486 0
M  V30 3054 C 286.519 -1.21337 -1.62496 0
M  V30 3055 C 286.852 0.227872 -1.92858 0
M  V30 3056 O 286.127 1.16094 -1.56053 0
M  V30 3057 C 286.41 -2.05814 -2.95487 0
M  V30 3058 C 286.263 -3.5824 -2.72 0
M  V30 3059 C 287.582 -1.9079 -3.96594 0
M  V30 3060 H 284.701 -0.442135 -0.589649 0
M  V30 3061 H 287.343 -1.6124 -1.00507 0
M  V30 3062 H 285.493 -1.71913 -3.48394 0
M  V30 3063 H 287.165 -4.0228 -2.25762 0
M  V30 3064 H 285.408 -3.81647 -2.06224 0
M  V30 3065 H 286.079 -4.12657 -3.66631 0
M  V30 3066 H 288.555 -2.20459 -3.52898 0
M  V30 3067 H 287.431 -2.52199 -4.87531 0
M  V30 3068 H 287.692 -0.871341 -4.33428 0
M  V30 3069 N 286.751 1.08385 -1.14413 0
M  V30 3070 C 287.976 1.85057 -0.936413 0
M  V30 3071 C 288.401 1.81055 0.509971 0
M  V30 3072 O 287.759 1.1958 1.36273 0
M  V30 3073 C 287.807 3.30505 -1.44217 0
M  V30 3074 O 286.911 4.07491 -0.634409 0
M  V30 3075 H 286.252 0.573425 -0.334784 0
M  V30 3076 H 288.782 1.36799 -1.52142 0
M  V30 3077 H 288.792 3.81348 -1.45043 0
M  V30 3078 H 287.467 3.32734 -2.49522 0
M  V30 3079 H 286.044 3.66368 -0.694902 0
M  V30 3080 N 288.23 0.939286 1.26551 0
M  V30 3081 C 289.16 0.465044 2.28822 0
M  V30 3082 C 290.141 -0.480692 1.63167 0
M  V30 3083 O 291.326 -0.382955 1.90387 0
M  V30 3084 C 288.456 -0.27234 3.46231 0
M  V30 3085 C 287.41 0.58666 4.2396 0
M  V30 3086 C 286.736 -0.280573 5.33963 0
M  V30 3087 C 288.036 1.85704 4.88171 0
M  V30 3088 H 289.73 1.31979 2.68741 0
M  V30 3089 H 287.276 0.636061 1.29191 0
M  V30 3090 H 289.229 -0.615133 4.16886 0
M  V30 3091 H 287.953 -1.16121 3.0526 0
M  V30 3092 H 286.612 0.91232 3.55067 0
M  V30 3093 H 286.26 -1.16874 4.89234 0
M  V30 3094 H 285.96 0.29076 5.8688 0
M  V30 3095 H 287.484 -0.618678 6.07458 0
M  V30 3096 H 288.898 1.58161 5.51052 0
M  V30 3097 H 287.295 2.37279 5.51197 0
M  V30 3098 H 288.365 2.56957 4.11219 0
M  V30 3099 N 289.708 -1.40897 0.706093 0
M  V30 3100 C 290.938 -2.05075 0.250523 0
M  V30 3101 C 291.346 -1.53275 -1.10921 0
M  V30 3102 O 290.689 -0.680281 -1.7064 0
M  V30 3103 C 290.751 -3.59219 0.142178 0
M  V30 3104 C 290.415 -4.33864 1.43566 0
M  V30 3105 C 291.412 -4.62448 2.37566 0
M  V30 3106 C 289.097 -4.72946 1.69195 0
M  V30 3107 C 291.091 -5.29088 3.5545 0
M  V30 3108 C 288.778 -5.3932 2.87362 0
M  V30 3109 C 289.776 -5.6732 3.80312 0
M  V30 3110 O 289.464 -6.32325 4.96408 0
M  V30 3111 H 289.196 -0.666645 0.112074 0
M  V30 3112 H 291.75 -1.81467 0.962239 0
M  V30 3113 H 289.98 -3.81609 -0.6254 0
M  V30 3114 H 291.669 -4.0495 -0.277584 0
M  V30 3115 H 292.435 -4.32727 2.19027 0
M  V30 3116 H 288.314 -4.50527 0.977042 0
M  V30 3117 H 291.858 -5.50859 4.28018 0
M  V30 3118 H 287.755 -5.68461 3.05814 0
M  V30 3119 H 288.523 -6.50821 4.9636 0
M  V30 3120 N 291.186 -0.45159 -1.50991 0
M  V30 3121 C 292.463 0.170707 -1.94854 0
M  V30 3122 C 292.843 1.58788 -1.39103 0
M  V30 3123 O 292.191 2.20913 -0.583921 0
M  V30 3124 C 292.401 0.133929 -3.48743 0
M  V30 3125 C 293.749 0.33248 -4.23296 0
M  V30 3126 O 294.773 0.211403 -3.55572 0
M  V30 3127 O 293.632 0.57486 -5.43468 0
M  V30 3128 H 290.726 0.122264 -0.817912 0
M  V30 3129 H 293.272 -0.510594 -1.61836 0
M  V30 3130 H 292.044 -0.856283 -3.81816 0
M  V30 3131 H 291.667 0.857529 -3.88242 0
M  V30 3132 N 292.664 1.56529 -0.183458 0
M  V30 3133 C 294.075 1.83739 0.331177 0
M  V30 3134 C 294.426 1.10373 1.62211 0
M  V30 3135 O 293.551 0.36071 2.13373 0
M  V30 3136 C 294.146 3.33306 0.607646 0
M  V30 3137 C 292.705 3.60969 1.06668 0
M  V30 3138 C 291.852 2.77086 0.109029 0
M  V30 3139 H 294.803 1.53379 -0.407484 0
M  V30 3140 H 294.824 3.51444 1.45832 0
M  V30 3141 H 294.336 3.86677 -0.332086 0
M  V30 3142 H 292.437 3.13021 2.0211 0
M  V30 3143 H 292.55 4.69231 0.967447 0
M  V30 3144 H 290.914 2.47319 0.608714 0
M  V30 3145 H 291.697 3.33241 -0.82494 0
M  V30 3146 N 294.142 -0.090211 1.57342 0
M  V30 3147 C 295.052 -1.12735 2.05738 0
M  V30 3148 C 296.068 -1.43557 0.983231 0
M  V30 3149 O 297.244 -1.54101 1.29672 0
M  V30 3150 C 294.309 -2.42659 2.47624 0
M  V30 3151 C 293.37 -2.18975 3.69254 0
M  V30 3152 C 292.603 -3.42704 4.09133 0
M  V30 3153 O 292.826 -4.51127 3.49057 0
M  V30 3154 O 291.76 -3.32003 5.02053 0
M  V30 3155 H 295.586 -0.746279 2.94388 0
M  V30 3156 H 293.171 -0.303064 1.46294 0
M  V30 3157 H 295.053 -3.19155 2.7517 0
M  V30 3158 H 293.728 -2.80182 1.62109 0
M  V30 3159 H 292.635 -1.40244 3.46818 0
M  V30 3160 H 293.968 -1.86342 4.55563 0
M  V30 3161 N 295.62 -1.53406 -0.361157 0
M  V30 3162 C 296.85 -1.73465 -1.1222 0
M  V30 3163 C 297.258 -0.465486 -1.83384 0
M  V30 3164 O 296.601 0.571611 -1.7458 0
M  V30 3165 C 296.663 -2.84834 -2.19339 0
M  V30 3166 C 296.327 -4.25038 -1.67903 0
M  V30 3167 C 297.324 -5.07231 -1.14074 0
M  V30 3168 C 295.009 -4.71464 -1.73282 0
M  V30 3169 C 297.003 -6.33942 -0.663068 0
M  V30 3170 C 294.69 -5.98153 -1.25127 0
M  V30 3171 C 295.688 -6.79223 -0.717296 0
M  V30 3172 O 295.376 -8.03533 -0.242865 0
M  V30 3173 H 295.108 -0.583526 -0.341283 0
M  V30 3174 H 297.662 -2.00964 -0.424591 0
M  V30 3175 H 295.892 -2.5282 -2.92607 0
M  V30 3176 H 297.581 -2.9303 -2.80871 0
M  V30 3177 H 298.347 -4.72534 -1.09254 0
M  V30 3178 H 294.226 -4.08432 -2.13786 0
M  V30 3179 H 297.77 -6.97167 -0.245612 0
M  V30 3180 H 293.667 -6.32347 -1.29642 0
M  V30 3181 H 294.435 -8.177 -0.361786 0
M  V30 3182 N 297.098 0.621204 -1.44841 0
M  V30 3183 C 298.326 1.40752 -1.51646 0
M  V30 3184 C 298.741 1.88246 -0.144549 0
M  V30 3185 O 298.098 1.61422 0.851416 0
M  V30 3186 C 298.149 2.62119 -2.4895 0
M  V30 3187 O 297.87 2.16602 -3.80808 0
M  V30 3188 C 299.371 3.55135 -2.65319 0
M  V30 3189 H 296.591 0.431325 -0.514004 0
M  V30 3190 H 299.135 0.758835 -1.899 0
M  V30 3191 H 297.29 3.23058 -2.13805 0
M  V30 3192 H 297.704 2.95358 -4.33433 0
M  V30 3193 H 299.178 4.36874 -3.37409 0
M  V30 3194 H 299.655 4.04592 -1.70886 0
M  V30 3195 H 300.261 3.00058 -3.01405 0
M  V30 3196 N 298.576 1.31904 0.862503 0
M  V30 3197 C 299.523 1.20182 1.9704 0
M  V30 3198 C 300.493 0.0858247 1.65878 0
M  V30 3199 O 301.678 0.26 1.8902 0
M  V30 3200 C 298.818 0.922797 3.32533 0
M  V30 3201 C 297.931 2.12284 3.76244 0
M  V30 3202 C 297.066 1.77996 5.00491 0
M  V30 3203 C 296.105 2.94366 5.36671 0
M  V30 3204 N 295.242 2.60223 6.52095 0
M  V30 3205 H 300.082 2.14951 2.06398 0
M  V30 3206 H 297.619 1.06917 1.01031 0
M  V30 3207 H 299.577 0.741548 4.10557 0
M  V30 3208 H 298.207 0.0119227 3.22798 0
M  V30 3209 H 297.259 2.41461 2.9394 0
M  V30 3210 H 298.571 2.99357 3.98982 0
M  V30 3211 H 297.725 1.56377 5.862 0
M  V30 3212 H 296.464 0.881252 4.79672 0
M  V30 3213 H 295.469 3.16625 4.49476 0
M  V30 3214 H 296.694 3.84957 5.59451 0
M  V30 3215 H 294.64 1.72884 6.32809 0
M  V30 3216 H 294.557 3.40827 6.74814 0
M  V30 3217 H 295.825 2.42016 7.40978 0
M  V30 3218 N 300.054 -1.07777 1.14986 0
M  V30 3219 C 301.465 -1.61766 0.932127 0
M  V30 3220 C 301.816 -1.88974 -0.527581 0
M  V30 3221 O 300.941 -1.65198 -1.39781 0
M  V30 3222 C 301.536 -2.93891 1.68563 0
M  V30 3223 C 300.095 -3.44639 1.5133 0
M  V30 3224 C 299.242 -2.18767 1.704 0
M  V30 3225 H 302.193 -0.909201 1.30074 0
M  V30 3226 H 302.214 -3.62623 1.15259 0
M  V30 3227 H 301.726 -2.74057 2.74799 0
M  V30 3228 H 299.827 -3.69564 0.474702 0
M  V30 3229 H 299.94 -4.20966 2.28746 0
M  V30 3230 H 298.304 -2.28253 1.13016 0
M  V30 3231 H 299.087 -2.01433 2.77992 0
M  V30 3232 N 301.532 -0.945985 -1.26051 0
M  V30 3233 C 302.778 -0.597002 -1.93814 0
M  V30 3234 C 303.111 0.862484 -1.73997 0
M  V30 3235 O 302.386 1.61769 -1.07986 0
M  V30 3236 C 302.669 -0.945937 -3.47454 0
M  V30 3237 C 302.522 -2.46052 -3.76535 0
M  V30 3238 C 303.841 -0.464785 -4.37639 0
M  V30 3239 H 300.96 -0.218366 -0.703907 0
M  V30 3240 H 303.602 -1.18107 -1.48831 0
M  V30 3241 H 301.752 -0.448902 -3.85898 0
M  V30 3242 H 303.424 -3.03065 -3.47778 0
M  V30 3243 H 301.667 -2.90194 -3.22444 0
M  V30 3244 H 302.338 -2.65517 -4.83947 0
M  V30 3245 H 304.814 -0.891016 -4.06448 0
M  V30 3246 H 303.69 -0.737712 -5.4392 0
M  V30 3247 H 303.951 0.635274 -4.37512 0
M  V30 3248 N 303.011 1.40521 -0.713556 0
M  V30 3249 C 303.921 2.34522 -0.0606667 0
M  V30 3250 C 304.937 1.57193 0.74607 0
M  V30 3251 O 306.113 1.89591 0.679493 0
M  V30 3252 C 303.178 3.36081 0.851491 0
M  V30 3253 C 302.239 4.29286 0.0349339 0
M  V30 3254 C 301.472 5.25994 0.903649 0
M  V30 3255 O 301.695 5.28616 2.14292 0
M  V30 3256 O 300.629 6.00918 0.343723 0
M  V30 3257 H 304.455 2.91968 -0.835972 0
M  V30 3258 H 302.04 1.41681 -0.47402 0
M  V30 3259 H 303.922 3.98369 1.37404 0
M  V30 3260 H 302.597 2.81052 1.60598 0
M  V30 3261 H 301.504 3.70289 -0.532633 0
M  V30 3262 H 302.837 4.87462 -0.681287 0
M  V30 3263 N 304.489 0.459591 1.5075 0
M  V30 3264 C 305.719 -0.0972338 2.06371 0
M  V30 3265 C 306.127 -1.35074 1.32483 0
M  V30 3266 O 305.47 -1.79637 0.384226 0
M  V30 3267 C 305.532 -0.462759 3.56509 0
M  V30 3268 C 305.196 0.687084 4.51805 0
M  V30 3269 C 306.193 1.56578 4.95761 0
M  V30 3270 C 303.878 0.874144 4.94635 0
M  V30 3271 C 305.872 2.61604 5.81242 0
M  V30 3272 C 303.559 1.92765 5.79901 0
M  V30 3273 C 304.557 2.79697 6.23104 0
M  V30 3274 O 304.245 3.83235 7.06673 0
M  V30 3275 H 303.977 -0.00140687 0.675999 0
M  V30 3276 H 306.531 0.644011 1.95043 0
M  V30 3277 H 304.761 -1.25703 3.65699 0
M  V30 3278 H 306.45 -0.953323 3.94546 0
M  V30 3279 H 307.216 1.4329 4.6335 0
M  V30 3280 H 303.095 0.207006 4.60535 0
M  V30 3281 H 306.639 3.29489 6.14884 0
M  V30 3282 H 302.536 2.06064 6.11725 0
M  V30 3283 H 303.304 3.80084 7.24899 0
M  V30 3284 N 305.967 -1.56429 0.191757 0
M  V30 3285 C 307.216 -1.9666 -0.448088 0
M  V30 3286 C 307.529 -1.08136 -1.62991 0
M  V30 3287 O 308.735 -1.38135 -2.33733 0
M  V30 3288 C 307.191 -3.49753 -0.848585 0
M  V30 3289 C 306.799 -4.46935 0.308764 0
M  V30 3290 C 308.543 -3.9876 -1.4557 0
M  V30 3291 C 306.45 -5.91293 -0.112506 0
M  V30 3292 H 305.38 -0.734312 -0.171179 0
M  V30 3293 H 308.031 -1.81301 0.283242 0
M  V30 3294 H 306.413 -3.60604 -1.63649 0
M  V30 3295 H 307.587 -4.47813 1.08627 0
M  V30 3296 H 305.902 -4.08102 0.827158 0
M  V30 3297 H 308.499 -5.04086 -1.78328 0
M  V30 3298 H 308.842 -3.42875 -2.36099 0
M  V30 3299 H 309.375 -3.9101 -0.731836 0
M  V30 3300 H 306.114 -6.51097 0.758514 0
M  V30 3301 H 305.634 -5.93676 -0.854941 0
M  V30 3302 H 307.313 -6.44663 -0.549448 0
M  V30 3303 N 307.445 0.0818655 -1.57387 0
M  V30 3304 C 308.375 1.09885 -2.06028 0
M  V30 3305 C 309.356 1.4098 -0.951774 0
M  V30 3306 O 310.541 1.50781 -1.22387 0
M  V30 3307 C 307.671 2.4151 -2.4958 0
M  V30 3308 C 306.625 2.24792 -3.64215 0
M  V30 3309 C 305.951 3.61712 -3.93787 0
M  V30 3310 C 307.251 1.67749 -4.94629 0
M  V30 3311 H 308.945 0.694128 -2.91243 0
M  V30 3312 H 306.491 0.332448 -1.4011 0
M  V30 3313 H 308.444 3.12939 -2.82219 0
M  V30 3314 H 307.168 2.83943 -1.61381 0
M  V30 3315 H 305.827 1.55807 -3.31843 0
M  V30 3316 H 305.475 4.01697 -3.02735 0
M  V30 3317 H 305.175 3.51368 -4.70971 0
M  V30 3318 H 306.699 4.34587 -4.28913 0
M  V30 3319 H 308.113 2.29032 -5.25564 0
M  V30 3320 H 306.51 1.68128 -5.76067 0
M  V30 3321 H 307.58 0.638059 -4.80684 0
M  V30 3322 N 308.923 1.53595 0.353017 0
M  V30 3323 C 310.334 1.61937 0.929153 0
M  V30 3324 C 310.685 0.494686 1.89861 0
M  V30 3325 O 309.81 -0.377017 2.1309 0
M  V30 3326 C 310.405 2.93526 1.69199 0
M  V30 3327 C 308.964 3.04161 2.21727 0
M  V30 3328 C 308.111 2.57322 1.03348 0
M  V30 3329 H 311.062 1.58155 0.131431 0
M  V30 3330 H 311.083 2.82034 2.55416 0
M  V30 3331 H 310.595 3.75362 0.986144 0
M  V30 3332 H 308.696 2.26938 2.95516 0
M  V30 3333 H 308.809 4.09465 2.48748 0
M  V30 3334 H 307.173 2.12499 1.40414 0
M  V30 3335 H 307.956 3.41588 0.342428 0
M  V30 3336 N 310.401 -0.613514 1.45168 0
M  V30 3337 C 311.333 -1.73825 1.4939 0
M  V30 3338 C 312.346 -1.58175 0.385304 0
M  V30 3339 O 313.535 -1.66165 0.652036 0
M  V30 3340 C 310.635 -3.11758 1.32891 0
M  V30 3341 C 309.808 -3.53704 2.57317 0
M  V30 3342 C 308.867 -4.70579 2.35462 0
M  V30 3343 O 307.893 -4.77996 3.09044 0
M  V30 3344 N 309.095 -5.63454 1.39644 0
M  V30 3345 H 311.86 -1.70669 2.46358 0
M  V30 3346 H 309.421 -0.79862 1.40832 0
M  V30 3347 H 311.413 -3.87692 1.1609 0
M  V30 3348 H 309.983 -3.09456 0.442218 0
M  V30 3349 H 309.203 -2.67794 2.89275 0
M  V30 3350 H 310.491 -3.78486 3.40038 0
M  V30 3351 H 309.889 -5.6017 0.789062 0
M  V30 3352 H 308.446 -6.38944 1.28816 0
M  V30 3353 N 311.879 -1.3236 -0.855495 0
M  V30 3354 C 313.29 -1.2056 -1.42556 0
M  V30 3355 C 313.641 0.182209 -1.95352 0
M  V30 3356 O 312.766 1.08088 -1.87472 0
M  V30 3357 C 313.361 -2.1826 -2.59129 0
M  V30 3358 C 311.92 -2.10351 -3.12137 0
M  V30 3359 C 311.067 -2.06674 -1.84882 0
M  V30 3360 H 314.018 -1.442 -0.662727 0
M  V30 3361 H 314.039 -1.78064 -3.36264 0
M  V30 3362 H 313.551 -3.19257 -2.20673 0
M  V30 3363 H 311.652 -1.12599 -3.55179 0
M  V30 3364 H 311.765 -3.00135 -3.73438 0
M  V30 3365 H 310.129 -1.51901 -2.04446 0
M  V30 3366 H 310.912 -3.09451 -1.48643 0
M  V30 3367 N 313.357 1.07166 -1.15556 0
M  V30 3368 C 314.634 1.76546 -0.842069 0
M  V30 3369 C 315.014 2.00453 0.661939 0
M  V30 3370 O 314.362 1.62452 1.60691 0
M  V30 3371 C 314.572 3.07266 -1.65495 0
M  V30 3372 C 315.92 3.81578 -1.86234 0
M  V30 3373 O 316.944 3.17083 -1.62287 0
M  V30 3374 O 315.803 4.97419 -2.26355 0
M  V30 3375 H 312.897 0.766756 -0.309862 0
M  V30 3376 H 315.443 1.13514 -1.26145 0
M  V30 3377 H 314.215 2.85494 -2.67598 0
M  V30 3378 H 313.838 3.7803 -1.23203 0
M  V30 3379 N 314.835 0.952656 1.25548 0
M  V30 3380 C 316.081 0.607272 1.93494 0
M  V30 3381 C 316.414 -0.853245 1.74452 0
M  V30 3382 O 315.689 -1.61194 1.08843 0
M  V30 3383 C 315.972 0.96435 3.46947 0
M  V30 3384 C 315.825 2.48045 3.75225 0
M  V30 3385 C 317.144 0.487987 4.37386 0
M  V30 3386 H 314.263 0.222096 0.702739 0
M  V30 3387 H 316.905 1.18895 1.48203 0
M  V30 3388 H 315.055 0.469361 3.85654 0
M  V30 3389 H 316.727 3.04905 3.46166 0
M  V30 3390 H 314.97 2.919 3.209 0
M  V30 3391 H 315.641 2.6808 4.82532 0
M  V30 3392 H 318.117 0.912558 4.0597 0
M  V30 3393 H 316.993 0.766547 5.43521 0
M  V30 3394 H 317.254 -0.612063 4.37843 0
M  V30 3395 N 316.313 -1.40141 0.720998 0
M  V30 3396 C 317.729 -1.54632 0.395113 0
M  V30 3397 C 317.929 -1.69115 -1.09555 0
M  V30 3398 O 316.985 -1.68377 -1.88163 0
M  V30 3399 C 318.298 -2.77177 1.1659 0
M  V30 3400 C 319.846 -2.91 1.15274 0
M  V30 3401 C 320.321 -4.16465 1.90579 0
M  V30 3402 N 321.812 -4.23476 1.87675 0
M  V30 3403 C 322.547 -5.19475 2.42762 0
M  V30 3404 N 322.043 -6.21348 3.06428 0
M  V30 3405 N 323.836 -5.11592 2.32874 0
M  V30 3406 H 315.987 -1.28986 1.68749 0
M  V30 3407 H 318.25 -0.62412 0.713567 0
M  V30 3408 H 317.956 -2.72771 2.22011 0
M  V30 3409 H 317.83 -3.69442 0.76108 0
M  V30 3410 H 320.217 -2.94907 0.106702 0
M  V30 3411 H 320.298 -1.99838 1.59682 0
M  V30 3412 H 319.942 -4.1332 2.95176 0
M  V30 3413 H 319.872 -5.06646 1.43587 0
M  V30 3414 H 322.363 -3.50497 1.41281 0
M  V30 3415 H 322.676 -6.91034 3.45965 0
M  V30 3416 H 321.021 -6.21777 3.10514 0
M  V30 3417 H 324.212 -4.30936 1.82789 0
M  V30 3418 H 324.385 -5.86233 2.76106 0
M  V30 3419 N 317.792 -0.46758 -1.50504 0
M  V30 3420 C 319.038 0.0887532 -2.02606 0
M  V30 3421 C 319.371 1.39686 -1.34913 0
M  V30 3422 O 318.646 1.88644 -0.473694 0
M  V30 3423 C 318.929 0.276206 -3.59039 0
M  V30 3424 C 318.782 -1.05267 -4.37309 0
M  V30 3425 C 320.101 1.03235 -4.27821 0
M  V30 3426 H 317.22 0.0307814 -0.736357 0
M  V30 3427 H 319.862 -0.612485 -1.79857 0
M  V30 3428 H 318.012 0.8735 -3.78553 0
M  V30 3429 H 319.684 -1.68628 -4.29374 0
M  V30 3430 H 317.927 -1.65015 -4.01189 0
M  V30 3431 H 318.598 -0.875197 -5.45018 0
M  V30 3432 H 321.074 0.526111 -4.12761 0
M  V30 3433 H 319.95 1.1323 -5.37094 0
M  V30 3434 H 320.211 2.06806 -3.90748 0
M  V30 3435 N 319.27 1.56325 -0.20005 0
M  V30 3436 C 320.218 2.20666 0.735482 0
M  V30 3437 C 321.212 1.17934 1.21605 0
M  V30 3438 O 322.418 1.36068 1.17837 0
M  V30 3439 H 318.793 0.70725 0.255542 0
M  V30 3440 H 320.764 2.9792 0.169166 0
M  V30 3441 C 319.513 2.88391 1.94232 0
M  V30 3442 H 318.836 3.67185 1.58161 0
M  V30 3443 H 320.276 3.3684 2.57517 0
M  V30 3444 C 318.735 1.89692 2.78421 0
M  V30 3445 O 319.265 1.40032 3.76502 0
M  V30 3446 N 317.471 1.57813 2.44015 0
M  V30 3447 H 317.018 1.9839 1.64314 0
M  V30 3448 H 316.976 0.920325 3.00628 0
M  V30 3449 N 320.748 -0.0735177 1.57428 0
M  V30 3450 C 321.68 -1.11423 2.00294 0
M  V30 3451 C 322.693 -1.35084 0.908637 0
M  V30 3452 O 323.882 -1.33355 1.18654 0
M  V30 3453 C 320.982 -2.46548 2.32523 0
M  V30 3454 C 320.155 -2.42867 3.63778 0
M  V30 3455 C 319.214 -3.60087 3.83697 0
M  V30 3456 O 318.24 -3.41595 4.55304 0
M  V30 3457 N 319.442 -4.80372 3.25919 0
M  V30 3458 H 322.207 -0.749206 2.90184 0
M  V30 3459 H 319.768 -0.262195 1.59763 0
M  V30 3460 H 321.76 -3.23607 2.43024 0
M  V30 3461 H 320.33 -2.75059 1.48531 0
M  V30 3462 H 319.55 -1.51206 3.64047 0
M  V30 3463 H 320.838 -2.37506 4.49965 0
M  V30 3464 H 320.236 -4.983 2.67795 0
M  V30 3465 H 318.793 -5.54948 3.41871 0
M  V30 3466 N 322.226 -1.5378 -0.344866 0
M  V30 3467 C 323.472 -1.71216 -1.08687 0
M  V30 3468 C 323.805 -0.473281 -1.88345 0
M  V30 3469 O 323.08 0.52968 -1.87149 0
M  V30 3470 C 323.363 -2.97486 -2.02914 0
M  V30 3471 C 323.216 -4.31579 -1.26727 0
M  V30 3472 C 324.535 -3.19422 -3.0275 0
M  V30 3473 H 321.654 -0.62301 -0.393735 0
M  V30 3474 H 324.296 -1.8645 -0.365563 0
M  V30 3475 H 322.446 -2.84629 -2.64421 0
M  V30 3476 H 324.118 -4.56284 -0.67845 0
M  V30 3477 H 322.361 -4.30049 -0.569273 0
M  V30 3478 H 323.032 -5.16106 -1.95803 0
M  V30 3479 H 325.508 -3.316 -2.51357 0
M  V30 3480 H 324.384 -4.09169 -3.65885 0
M  V30 3481 H 324.645 -2.35656 -3.74057 0
M  V30 3482 N 323.704 0.605807 -1.45491 0
M  V30 3483 C 324.952 1.36207 -1.49305 0
M  V30 3484 C 325.273 1.94519 -0.136863 0
M  V30 3485 O 324.543 1.77261 0.833983 0
M  V30 3486 H 323.123 0.50565 -0.549843 0
M  V30 3487 H 325.785 0.711239 -1.81459 0
M  V30 3488 H 324.881 2.18058 -2.23287 0
M  V30 3489 N 325.182 1.32811 0.848464 0
M  V30 3490 C 326.412 1.26556 1.63301 0
M  V30 3491 C 326.82 -0.1676 1.88456 0
M  V30 3492 O 326.163 -1.11713 1.45828 0
M  V30 3493 C 326.225 1.96202 3.01239 0
M  V30 3494 C 325.889 3.45528 2.99098 0
M  V30 3495 C 326.886 4.40903 2.75501 0
M  V30 3496 C 324.571 3.87558 3.19537 0
M  V30 3497 C 326.565 5.76282 2.72356 0
M  V30 3498 C 324.252 5.23044 3.16019 0
M  V30 3499 C 325.25 6.17217 2.92458 0
M  V30 3500 O 324.938 7.50223 2.88825 0
M  V30 3501 H 324.67 0.43771 0.515156 0
M  V30 3502 H 327.224 1.7559 1.0657 0
M  V30 3503 H 325.454 1.41746 3.59785 0
M  V30 3504 H 327.143 1.83573 3.62016 0
M  V30 3505 H 327.909 4.09756 2.5947 0
M  V30 3506 H 323.788 3.14674 3.369 0
M  V30 3507 H 327.332 6.4976 2.53886 0
M  V30 3508 H 323.229 5.53818 3.31596 0
M  V30 3509 H 323.997 7.59657 3.04735 0
M  V30 3510 N 326.66 -1.06551 1.16123 0
M  V30 3511 C 327.59 -2.15935 0.88851 0
M  V30 3512 C 328.571 -1.69306 -0.164135 0
M  V30 3513 O 329.756 -1.94193 -0.0167857 0
M  V30 3514 C 326.886 -3.45149 0.385942 0
M  V30 3515 C 325.84 -4.05271 1.3762 0
M  V30 3516 C 325.166 -5.29664 0.732137 0
M  V30 3517 C 326.466 -4.44355 2.74493 0
M  V30 3518 H 328.16 -2.39006 1.80323 0
M  V30 3519 H 325.706 -1.14866 0.868435 0
M  V30 3520 H 327.659 -4.21004 0.182647 0
M  V30 3521 H 326.383 -3.21689 -0.564274 0
M  V30 3522 H 325.042 -3.3147 1.56599 0
M  V30 3523 H 324.69 -5.02499 -0.224483 0
M  V30 3524 H 324.39 -5.70848 1.39307 0
M  V30 3525 H 325.914 -6.08218 0.538802 0
M  V30 3526 H 327.328 -5.11303 2.59311 0
M  V30 3527 H 325.725 -4.96515 3.37035 0
M  V30 3528 H 326.795 -3.55339 3.29943 0
M  V30 3529 N 328.138 -0.959301 -1.25041 0
M  V30 3530 C 329.549 -0.65667 -1.74771 0
M  V30 3531 C 329.9 0.827852 -1.77879 0
M  V30 3532 O 329.025 1.64783 -1.40269 0
M  V30 3533 C 329.62 -1.1853 -3.1739 0
M  V30 3534 C 328.179 -0.932734 -3.6466 0
M  V30 3535 C 327.326 -1.32558 -2.43564 0
M  V30 3536 H 330.277 -1.13558 -1.10862 0
M  V30 3537 H 330.298 -0.547582 -3.76539 0
M  V30 3538 H 329.81 -2.26576 -3.15095 0
M  V30 3539 H 327.911 0.13257 -3.72364 0
M  V30 3540 H 328.024 -1.57248 -4.52559 0
M  V30 3541 H 326.388 -0.743956 -2.43593 0
M  V30 3542 H 327.171 -2.41537 -2.43957 0
M  V30 3543 N 329.616 1.39756 -0.72842 0
M  V30 3544 C 330.526 2.34444 -0.0855374 0
M  V30 3545 C 331.542 1.57976 0.729356 0
M  V30 3546 O 332.718 1.90301 0.659346 0
M  V30 3547 C 329.783 3.36965 0.815798 0
M  V30 3548 C 328.844 4.29299 -0.0105996 0
M  V30 3549 C 328.077 5.26923 0.84781 0
M  V30 3550 O 328.3 5.30859 2.08673 0
M  V30 3551 O 327.234 6.01249 0.279969 0
M  V30 3552 H 331.06 2.91065 -0.866892 0
M  V30 3553 H 328.645 1.4117 -0.48902 0
M  V30 3554 H 330.527 3.99804 1.33171 0
M  V30 3555 H 329.202 2.82739 1.57608 0
M  V30 3556 H 328.109 3.69703 -0.571877 0
M  V30 3557 H 329.442 4.86712 -0.73295 0
M  V30 3558 N 331.094 0.475555 1.50254 0
M  V30 3559 C 332.342 -0.077738 2.0195 0
M  V30 3560 C 332.663 -1.39813 1.35931 0
M  V30 3561 O 331.933 -1.89249 0.506123 0
M  V30 3562 H 330.513 -0.031719 0.746326 0
M  V30 3563 H 333.175 0.626995 1.84539 0
M  V30 3564 H 332.271 -0.225995 3.11281 0
M  V30 3565 N 332.573 -1.56217 0.208337 0
M  V30 3566 C 333.52 -2.19699 -0.707192 0
M  V30 3567 C 334.49 -1.14836 -1.20008 0
M  V30 3568 O 335.675 -1.4314 -1.26157 0
M  V30 3569 C 332.815 -2.87061 -1.91546 0
M  V30 3570 C 331.928 -4.06483 -1.46271 0
M  V30 3571 C 331.063 -4.61665 -2.62752 0
M  V30 3572 C 330.102 -5.73417 -2.14147 0
M  V30 3573 N 329.239 -6.22948 -3.23853 0
M  V30 3574 H 334.079 -2.97575 -0.159111 0
M  V30 3575 H 331.616 -1.46948 -0.0667874 0
M  V30 3576 H 333.574 -3.24294 -2.62468 0
M  V30 3577 H 332.204 -2.11725 -2.43664 0
M  V30 3578 H 331.256 -3.74825 -0.648886 0
M  V30 3579 H 332.568 -4.87271 -1.06622 0
M  V30 3580 H 331.722 -5.01272 -3.41776 0
M  V30 3581 H 330.461 -3.80013 -3.05682 0
M  V30 3582 H 329.466 -5.33326 -1.33581 0
M  V30 3583 H 330.691 -6.56897 -1.72232 0
M  V30 3584 H 328.637 -5.44213 -3.6629 0
M  V30 3585 H 328.554 -6.98823 -2.88414 0
M  V30 3586 H 329.822 -6.6721 -4.03052 0
M  V30 3587 N 334.051 0.0651679 -1.57465 0
M  V30 3588 C 334.998 1.07675 -2.04144 0
M  V30 3589 C 335.968 1.38071 -0.923335 0
M  V30 3590 O 337.153 1.49026 -1.19146 0
M  V30 3591 C 334.293 2.38337 -2.49579 0
M  V30 3592 C 333.406 2.14413 -3.75035 0
M  V30 3593 C 332.541 3.38686 -4.09225 0
M  V30 3594 C 331.58 3.10156 -5.27702 0
M  V30 3595 N 330.717 4.26778 -5.57499 0
M  V30 3596 H 335.557 0.671716 -2.90331 0
M  V30 3597 H 333.094 0.3201 -1.43575 0
M  V30 3598 H 335.052 3.14632 -2.73975 0
M  V30 3599 H 333.682 2.7663 -1.6636 0
M  V30 3600 H 332.734 1.2878 -3.57939 0
M  V30 3601 H 334.046 1.89344 -4.61466 0
M  V30 3602 H 333.2 4.23373 -4.34558 0
M  V30 3603 H 331.939 3.66837 -3.21374 0
M  V30 3604 H 330.944 2.23866 -5.02159 0
M  V30 3605 H 332.169 2.8332 -6.17176 0
M  V30 3606 H 330.115 4.54948 -4.72608 0
M  V30 3607 H 330.032 4.05005 -6.38362 0
M  V30 3608 H 331.3 5.12443 -5.87386 0
M  V30 3609 N 335.529 1.53961 0.336706 0
M  V30 3610 C 336.775 1.7179 1.07777 0
M  V30 3611 C 337.108 0.483263 1.88091 0
M  V30 3612 O 336.383 -0.519747 1.87427 0
M  V30 3613 C 336.666 2.98558 2.01334 0
M  V30 3614 C 336.519 4.32245 1.24437 0
M  V30 3615 C 337.838 3.21023 3.01052 0
M  V30 3616 H 334.957 0.625089 0.390426 0
M  V30 3617 H 337.599 1.86641 0.35567 0
M  V30 3618 H 335.749 2.86028 2.62908 0
M  V30 3619 H 337.421 4.56637 0.654243 0
M  V30 3620 H 335.664 4.30344 0.546458 0
M  V30 3621 H 336.335 5.17137 1.93063 0
M  V30 3622 H 338.811 3.32929 2.49595 0
M  V30 3623 H 337.687 4.11104 3.6371 0
M  V30 3624 H 337.948 2.37637 3.72802 0
M  V30 3625 N 337.007 -0.598083 1.45811 0
M  V30 3626 C 337.97 -1.69018 1.54808 0
M  V30 3627 C 338.97 -1.55037 0.426652 0
M  V30 3628 O 340.16 -1.59932 0.690456 0
M  V30 3629 C 337.292 -3.0835 1.45371 0
M  V30 3630 H 338.485 -1.62403 2.52121 0
M  V30 3631 H 336.038 -0.814626 1.33392 0
M  V30 3632 H 336.773 -3.20534 0.492793 0
M  V30 3633 H 336.558 -3.19907 2.26721 0
M  V30 3634 H 338.048 -3.8788 1.54721 0
M  V30 3635 N 338.485 -1.33259 -0.841409 0
M  V30 3636 C 339.713 -1.27605 -1.62864 0
M  V30 3637 C 340.128 0.153507 -1.88175 0
M  V30 3638 O 339.485 1.09485 -1.46011 0
M  V30 3639 C 339.536 -2.04596 -2.98031 0
M  V30 3640 O 339.257 -3.41975 -2.73834 0
M  V30 3641 C 340.758 -2.06122 -3.92465 0
M  V30 3642 H 337.978 -0.439718 -0.506842 0
M  V30 3643 H 340.522 -1.75591 -1.04824 0
M  V30 3644 H 338.677 -1.60299 -3.5268 0
M  V30 3645 H 339.091 -3.81549 -3.59889 0
M  V30 3646 H 340.565 -2.64451 -4.84531 0
M  V30 3647 H 341.042 -1.05083 -4.26444 0
M  V30 3648 H 341.648 -2.50427 -3.43753 0
M  V30 3649 N 339.963 1.05934 -1.16686 0
M  V30 3650 C 341.209 1.79065 -0.95203 0
M  V30 3651 C 341.542 1.87147 0.518629 0
M  V30 3652 O 340.817 1.36574 1.38484 0
M  V30 3653 C 341.1 3.23359 -1.58464 0
M  V30 3654 C 340.953 3.23336 -3.12689 0
M  V30 3655 C 342.272 4.21004 -1.28232 0
M  V30 3656 H 339.391 0.65005 -0.34728 0
M  V30 3657 H 342.033 1.23868 -1.44072 0
M  V30 3658 H 340.183 3.70493 -1.16908 0
M  V30 3659 H 341.855 2.84336 -3.6325 0
M  V30 3660 H 340.098 2.61886 -3.4583 0
M  V30 3661 H 340.769 4.25144 -3.52075 0
M  V30 3662 H 343.245 3.8233 -1.64203 0
M  V30 3663 H 342.121 5.20225 -1.75092 0
M  V30 3664 H 342.382 4.41639 -0.201791 0
M  V30 3665 N 341.441 0.965919 1.2453 0
M  V30 3666 C 342.687 0.62776 1.92839 0
M  V30 3667 C 343.02 -0.834694 1.75347 0
M  V30 3668 O 342.295 -1.60031 1.10546 0
M  V30 3669 C 342.578 1.00109 3.45905 0
M  V30 3670 C 342.431 2.52011 3.72573 0
M  V30 3671 C 343.75 0.53435 4.36844 0
M  V30 3672 H 340.869 0.229537 0.700344 0
M  V30 3673 H 343.511 1.2046 1.46933 0
M  V30 3674 H 341.661 0.510238 3.85135 0
M  V30 3675 H 343.333 3.08559 3.42912 0
M  V30 3676 H 341.576 2.95287 3.17786 0
M  V30 3677 H 342.247 2.73183 4.79661 0
M  V30 3678 H 344.723 0.955565 4.04979 0
M  V30 3679 H 343.599 0.824152 5.42678 0
M  V30 3680 H 343.86 -0.565589 4.38467 0
M  V30 3681 N 342.919 -1.39368 0.735821 0
M  V30 3682 C 344.159 -2.02349 0.288813 0
M  V30 3683 C 344.523 -1.57127 -1.10341 0
M  V30 3684 O 345.724 -2.12312 -1.64854 0
M  V30 3685 C 343.995 -3.55288 0.387986 0
M  V30 3686 S 345.554 -4.38795 0.0209408 0
M  V30 3687 H 342.372 -0.701944 0.113115 0
M  V30 3688 H 344.974 -1.70164 0.962518 0
M  V30 3689 H 343.678 -3.85691 1.40252 0
M  V30 3690 H 343.209 -3.92227 -0.303512 0
M  V30 3691 H 345.224 -4.81595 -1.19503 0
M  V30 3692 N 344.397 -0.483516 -1.5 0
M  V30 3693 C 345.345 0.318061 -2.30415 0
M  V30 3694 C 346.339 0.978988 -1.38247 0
M  V30 3695 O 347.545 0.908673 -1.55381 0
M  V30 3696 H 343.92 0.121419 -0.742133 0
M  V30 3697 H 345.891 -0.380403 -2.95965 0
M  V30 3698 C 344.64 1.38013 -3.19136 0
M  V30 3699 H 343.963 0.880952 -3.89973 0
M  V30 3700 H 345.403 1.91332 -3.78375 0
M  V30 3701 C 343.862 2.38884 -2.37563 0
M  V30 3702 O 344.392 3.44412 -2.06744 0
M  V30 3703 N 342.598 2.10912 -1.99911 0
M  V30 3704 H 342.145 1.25118 -2.25174 0
M  V30 3705 H 342.103 2.78635 -1.45636 0
M  V30 3706 N 345.875 1.56104 -0.216619 0
M  V30 3707 C 347.1 2.0301 0.424462 0
M  V30 3708 C 347.525 1.0955 1.52907 0
M  V30 3709 O 346.883 0.0827914 1.81111 0
M  V30 3710 C 346.931 3.4819 0.937883 0
M  V30 3711 O 346.035 3.57865 2.04955 0
M  V30 3712 H 345.376 0.656925 0.0966755 0
M  V30 3713 H 347.906 2.01859 -0.33381 0
M  V30 3714 H 347.916 3.88413 1.24897 0
M  V30 3715 H 346.591 4.15699 0.129387 0
M  V30 3716 H 345.168 3.29527 1.74546 0
M  V30 3717 N 347.353 -0.0568162 1.57498 0
M  V30 3718 C 348.581 -0.765626 1.92213 0
M  V30 3719 C 348.996 -1.70353 0.813961 0
M  V30 3720 O 348.353 -1.81268 -0.211701 0
M  V30 3721 C 348.404 -1.5465 3.2675 0
M  V30 3722 O 348.125 -0.646278 4.33307 0
M  V30 3723 C 349.626 -2.35497 3.75574 0
M  V30 3724 H 346.846 -0.216835 0.634999 0
M  V30 3725 H 349.39 -0.0226146 2.04487 0
M  V30 3726 H 347.545 -2.24165 3.15957 0
M  V30 3727 H 347.959 -1.19093 5.108 0
M  V30 3728 H 349.433 -2.85722 4.72299 0
M  V30 3729 H 349.91 -3.15692 3.05344 0
M  V30 3730 H 350.516 -1.7111 3.8936 0
M  V30 3731 N 348.832 -1.54138 -0.328536 0
M  V30 3732 C 349.764 -1.79509 -1.4251 0
M  V30 3733 C 350.777 -0.67688 -1.48061 0
M  V30 3734 O 351.966 -0.953898 -1.50874 0
M  V30 3735 C 349.066 -1.89337 -2.81078 0
M  V30 3736 C 348.239 -3.19443 -2.98789 0
M  V30 3737 C 347.298 -3.20036 -4.17688 0
M  V30 3738 O 346.324 -3.93697 -4.11086 0
M  V30 3739 N 347.526 -2.43467 -5.26976 0
M  V30 3740 H 350.291 -2.74139 -1.21111 0
M  V30 3741 H 347.852 -1.53373 -0.518499 0
M  V30 3742 H 349.844 -1.87167 -3.58818 0
M  V30 3743 H 348.414 -1.01826 -2.95551 0
M  V30 3744 H 347.634 -3.34614 -2.08391 0
M  V30 3745 H 348.922 -4.05354 -3.07515 0
M  V30 3746 H 348.32 -1.83201 -5.35214 0
M  V30 3747 H 346.877 -2.4708 -6.03154 0
M  V30 3748 N 350.31 0.590341 -1.46126 0
M  V30 3749 C 351.721 1.17243 -1.45296 0
M  V30 3750 C 352.072 1.95281 -0.189723 0
M  V30 3751 O 351.197 2.04502 0.707674 0
M  V30 3752 C 351.792 2.13284 -2.6324 0
M  V30 3753 C 350.351 2.66832 -2.65476 0
M  V30 3754 C 349.498 1.42557 -2.3785 0
M  V30 3755 H 352.449 0.378692 -1.54116 0
M  V30 3756 H 352.47 2.96619 -2.38323 0
M  V30 3757 H 351.982 1.56459 -3.55165 0
M  V30 3758 H 350.083 3.27548 -1.77603 0
M  V30 3759 H 350.196 3.10088 -3.65215 0
M  V30 3760 H 348.56 1.72107 -1.87753 0
M  V30 3761 H 349.343 0.875741 -3.31942 0
M  V30 3762 N 351.788 1.33704 0.83433 0
M  V30 3763 C 353.034 1.25603 1.59222 0
M  V30 3764 C 353.367 -0.176659 1.93395 0
M  V30 3765 O 352.642 -1.11915 1.59076 0
M  V30 3766 C 352.925 2.13576 2.89926 0
M  V30 3767 C 352.778 3.65326 2.62406 0
M  V30 3768 C 354.097 2.01238 3.91397 0
M  V30 3769 H 351.216 0.457613 0.577719 0
M  V30 3770 H 353.858 1.63848 0.961972 0
M  V30 3771 H 352.008 1.8109 3.43713 0
M  V30 3772 H 353.68 4.08124 2.15017 0
M  V30 3773 H 351.923 3.8698 1.96033 0
M  V30 3774 H 352.594 4.22232 3.55562 0
M  V30 3775 H 355.07 2.29738 3.46929 0
M  V30 3776 H 353.946 2.65036 4.80673 0
M  V30 3777 H 354.207 0.985951 4.30966 0
M  V30 3778 N 353.266 -1.05314 1.17247 0
M  V30 3779 C 354.213 -2.13031 0.888058 0
M  V30 3780 C 355.183 -1.65253 -0.167537 0
M  V30 3781 O 356.368 -1.90775 -0.0305974 0
M  V30 3782 C 353.508 -3.42702 0.406147 0
M  V30 3783 C 352.621 -4.04161 1.52572 0
M  V30 3784 C 351.756 -5.21744 0.997808 0
M  V30 3785 C 350.795 -5.75207 2.09291 0
M  V30 3786 N 349.932 -6.84094 1.57986 0
M  V30 3787 H 354.772 -2.36698 1.81048 0
M  V30 3788 H 352.309 -1.16121 0.903013 0
M  V30 3789 H 354.267 -4.17059 0.108305 0
M  V30 3790 H 352.897 -3.19222 -0.479313 0
M  V30 3791 H 351.949 -3.27253 1.93931 0
M  V30 3792 H 353.261 -4.39881 2.35172 0
M  V30 3793 H 352.415 -6.03168 0.653739 0
M  V30 3794 H 351.154 -4.87495 0.141232 0
M  V30 3795 H 350.159 -4.92414 2.44557 0
M  V30 3796 H 351.384 -6.11505 2.95362 0
M  V30 3797 H 349.33 -6.51745 0.74598 0
M  V30 3798 H 349.247 -7.18811 2.34195 0
M  V30 3799 H 350.515 -7.69172 1.26468 0
M  V30 3800 N 354.744 -0.972509 -1.24016 0
M  V30 3801 C 355.99 -0.647583 -1.92816 0
M  V30 3802 C 356.345 0.809015 -1.74564 0
M  V30 3803 O 355.638 1.57502 -1.09103 0
M  V30 3804 C 355.832 -0.963694 -3.44162 0
M  V30 3805 C 355.661 -2.44947 -3.77135 0
M  V30 3806 C 354.431 -3.11012 -3.98246 0
M  V30 3807 C 356.629 -3.42978 -3.83237 0
M  V30 3808 N 354.611 -4.49277 -4.18358 0
M  V30 3809 C 355.982 -4.66619 -4.08248 0
M  V30 3810 C 358.037 -3.37569 -3.65994 0
M  V30 3811 C 356.74 -5.85516 -4.17808 0
M  V30 3812 C 358.766 -4.55822 -3.76802 0
M  V30 3813 C 358.128 -5.78256 -4.02243 0
M  V30 3814 H 354.227 -0.287894 -0.727077 0
M  V30 3815 H 356.811 -1.24835 -1.49413 0
M  V30 3816 H 354.982 -0.391692 -3.8642 0
M  V30 3817 H 356.714 -0.596849 -4.00275 0
M  V30 3818 H 353.469 -2.61529 -3.94841 0
M  V30 3819 H 353.893 -5.20935 -4.32384 0
M  V30 3820 H 358.535 -2.43945 -3.45327 0
M  V30 3821 H 356.253 -6.79564 -4.37285 0
M  V30 3822 H 359.839 -4.53204 -3.64825 0
M  V30 3823 H 358.719 -6.68231 -4.10411 0
M  V30 3824 N 356.222 1.38976 -0.743202 0
M  V30 3825 C 357.154 2.29096 -0.0689228 0
M  V30 3826 C 358.167 1.47229 0.694791 0
M  V30 3827 O 359.356 1.70212 0.537597 0
M  V30 3828 C 356.456 3.25988 0.926548 0
M  V30 3829 C 355.629 4.36833 0.222647 0
M  V30 3830 C 354.688 5.13981 1.12739 0
M  V30 3831 O 353.714 5.6601 0.601795 0
M  V30 3832 N 354.916 5.25966 2.45641 0
M  V30 3833 H 357.681 2.87604 -0.842846 0
M  V30 3834 H 355.242 1.50645 -0.593109 0
M  V30 3835 H 357.234 3.74476 1.5346 0
M  V30 3836 H 355.804 2.68453 1.60162 0
M  V30 3837 H 355.024 3.90116 -0.565983 0
M  V30 3838 H 356.312 5.0811 -0.264841 0
M  V30 3839 H 355.71 4.85228 2.9081 0
M  V30 3840 H 354.267 5.77865 3.01522 0
M  V30 3841 N 357.7 0.491464 1.49741 0
M  V30 3842 C 358.63 -0.28154 2.31796 0
M  V30 3843 C 359.611 -0.971473 1.3963 0
M  V30 3844 O 360.796 -0.964719 1.68543 0
M  V30 3845 C 357.926 -1.35203 3.19902 0
M  V30 3846 C 356.88 -0.782529 4.20786 0
M  V30 3847 C 356.206 -1.95283 4.97764 0
M  V30 3848 C 357.506 0.21999 5.21837 0
M  V30 3849 H 359.2 0.403355 2.96671 0
M  V30 3850 H 356.746 0.195425 1.42668 0
M  V30 3851 H 358.699 -1.90045 3.76113 0
M  V30 3852 H 357.423 -2.06598 2.52953 0
M  V30 3853 H 356.082 -0.255928 3.65706 0
M  V30 3854 H 355.73 -2.65423 4.2727 0
M  V30 3855 H 355.43 -1.57789 5.66018 0
M  V30 3856 H 356.954 -2.50577 5.56816 0
M  V30 3857 H 358.368 -0.23996 5.72798 0
M  V30 3858 H 356.765 0.51026 5.97927 0
M  V30 3859 H 357.835 1.13911 4.7133 0
M  V30 3860 N 359.178 -1.55987 0.224894 0
M  V30 3861 C 360.125 -2.20436 -0.68385 0
M  V30 3862 C 361.095 -1.16102 -1.18783 0
M  V30 3863 O 362.28 -1.4447 -1.24632 0
M  V30 3864 C 359.42 -2.89076 -1.88491 0
M  V30 3865 C 358.533 -4.08012 -1.41951 0
M  V30 3866 C 357.668 -4.64426 -2.5784 0
M  V30 3867 C 356.707 -5.75656 -2.08053 0
M  V30 3868 N 355.844 -6.26347 -3.17227 0
M  V30 3869 H 360.684 -2.97727 -0.12754 0
M  V30 3870 H 358.221 -1.47011 -0.0511978 0
M  V30 3871 H 360.179 -3.27059 -2.59014 0
M  V30 3872 H 358.809 -2.14298 -2.41405 0
M  V30 3873 H 357.861 -3.75492 -0.609095 0
M  V30 3874 H 359.173 -4.88375 -1.01447 0
M  V30 3875 H 358.327 -5.04869 -3.3644 0
M  V30 3876 H 357.066 -3.83233 -3.01635 0
M  V30 3877 H 356.071 -5.34712 -1.27916 0
M  V30 3878 H 357.296 -6.58686 -1.65255 0
M  V30 3879 H 355.242 -5.48067 -3.60497 0
M  V30 3880 H 355.159 -7.01843 -2.80986 0
M  V30 3881 H 356.427 -6.71447 -3.95953 0
M  V30 3882 N 360.656 0.0484629 -1.57525 0
M  V30 3883 C 361.604 1.07359 -2.06341 0
M  V30 3884 C 362.598 1.3865 -0.973269 0
M  V30 3885 O 363.804 1.37783 -1.15827 0
M  V30 3886 H 360.179 0.363662 -0.65822 0
M  V30 3887 H 362.15 0.635916 -2.91545 0
M  V30 3888 C 360.899 2.37198 -2.54229 0
M  V30 3889 H 360.222 2.13977 -3.37719 0
M  V30 3890 H 361.662 3.07319 -2.92115 0
M  V30 3891 C 360.121 3.04805 -1.43511 0
M  V30 3892 O 360.651 3.93848 -0.79034 0
M  V30 3893 N 358.857 2.65811 -1.17444 0
M  V30 3894 H 358.404 1.93488 -1.70059 0
M  V30 3895 H 358.362 3.11366 -0.435737 0
M  V30 3896 N 362.134 1.5431 0.320358 0
M  V30 3897 C 363.097 1.83195 1.3774 0
M  V30 3898 C 364.097 0.703906 1.44575 0
M  V30 3899 O 365.287 0.972214 1.44546 0
M  V30 3900 C 362.419 1.99487 2.76438 0
M  V30 3901 H 363.612 2.77642 1.1338 0
M  V30 3902 H 361.165 1.46076 0.556012 0
M  V30 3903 H 361.9 1.07262 3.06048 0
M  V30 3904 H 361.685 2.81575 2.7287 0
M  V30 3905 H 363.175 2.23271 3.52902 0
M  V30 3906 N 363.613 -0.582584 1.46437 0
M  V30 3907 C 364.576 -1.67366 1.56592 0
M  V30 3908 C 365.576 -1.54575 0.443072 0
M  V30 3909 O 366.766 -1.59191 0.707381 0
M  V30 3910 C 363.898 -3.06791 1.48634 0
M  V30 3911 H 365.091 -1.5972 2.5383 0
M  V30 3912 H 362.644 -0.800432 1.34249 0
M  V30 3913 H 363.379 -3.19993 0.526763 0
M  V30 3914 H 363.164 -3.17484 2.30101 0
M  V30 3915 H 364.654 -3.86218 1.58826 0
M  V30 3916 N 365.091 -1.34144 -0.827227 0
M  V30 3917 C 366.339 -1.26009 -1.58007 0
M  V30 3918 C 366.66 0.170971 -1.94249 0
M  V30 3919 O 365.93 1.10256 -1.61927 0
M  V30 3920 H 364.51 -0.463414 -0.585881 0
M  V30 3921 H 367.172 -1.68005 -0.987951 0
M  V30 3922 H 366.268 -1.86187 -2.50481 0
M  V30 3923 N 366.569 1.04691 -1.17803 0
M  V30 3924 C 367.815 1.78045 -0.970969 0
M  V30 3925 C 368.148 1.87686 0.498751 0
M  V30 3926 O 367.423 1.38035 1.37027 0
M  V30 3927 C 367.706 3.2166 -1.61884 0
M  V30 3928 C 367.559 3.20001 -3.161 0
M  V30 3929 C 368.878 4.1962 -1.3269 0
M  V30 3930 H 365.997 0.64633 -0.354155 0
M  V30 3931 H 368.639 1.22333 -1.45378 0
M  V30 3932 H 366.789 3.69232 -1.20831 0
M  V30 3933 H 368.461 2.80467 -3.66246 0
M  V30 3934 H 366.704 2.58203 -3.48588 0
M  V30 3935 H 367.375 4.21386 -3.56564 0
M  V30 3936 H 369.851 3.80567 -1.68249 0
M  V30 3937 H 368.727 5.18339 -1.80599 0
M  V30 3938 H 368.988 4.414 -0.248622 0
M  V30 3939 N 368.047 0.979072 1.23499 0
M  V30 3940 C 369.293 0.648178 1.92163 0
M  V30 3941 C 369.626 -0.816049 1.76222 0
M  V30 3942 O 368.901 -1.58849 1.12237 0
M  V30 3943 C 369.184 1.03773 3.44824 0
M  V30 3944 C 369.037 2.55948 3.69879 0
M  V30 3945 C 370.356 0.580653 4.36253 0
M  V30 3946 H 367.475 0.236952 0.69787 0
M  V30 3947 H 370.117 1.22012 1.45647 0
M  V30 3948 H 368.267 0.551058 3.84572 0
M  V30 3949 H 369.939 3.12179 3.3962 0
M  V30 3950 H 368.182 2.98641 3.14636 0
M  V30 3951 H 368.853 2.78255 4.76737 0
M  V30 3952 H 371.329 0.998465 4.03943 0
M  V30 3953 H 370.205 0.881663 5.41773 0
M  V30 3954 H 370.466 -0.519052 4.39042 0
M  V30 3955 N 369.525 -1.3858 0.750561 0
M  V30 3956 C 370.771 -2.00481 0.305825 0
M  V30 3957 C 371.104 -1.5944 -1.10872 0
M  V30 3958 O 370.379 -0.83052 -1.75877 0
M  V30 3959 C 370.662 -3.5758 0.425287 0
M  V30 3960 C 370.515 -4.08594 1.88072 0
M  V30 3961 C 371.834 -4.39719 -0.183122 0
M  V30 3962 H 368.953 -0.728348 0.112598 0
M  V30 3963 H 371.595 -1.64566 0.949638 0
M  V30 3964 H 369.745 -3.88306 -0.122828 0
M  V30 3965 H 371.417 -3.88523 2.48691 0
M  V30 3966 H 369.66 -3.61574 2.39681 0
M  V30 3967 H 370.331 -5.177 1.91548 0
M  V30 3968 H 372.807 -4.15128 0.284303 0
M  V30 3969 H 371.683 -5.48856 -0.0692757 0
M  V30 3970 H 371.944 -4.23434 -1.27106 0
M  V30 3971 N 371.003 -0.499398 -1.49478 0
M  V30 3972 C 371.933 0.269244 -2.31943 0
M  V30 3973 C 372.914 0.964054 -1.40143 0
M  V30 3974 O 374.099 0.955767 -1.69052 0
M  V30 3975 C 371.229 1.33504 -3.20615 0
M  V30 3976 C 370.183 0.760202 -4.21195 0
M  V30 3977 C 369.509 1.9264 -4.98792 0
M  V30 3978 C 370.809 -0.247661 -5.21712 0
M  V30 3979 H 372.503 -0.419082 -2.96452 0
M  V30 3980 H 370.049 -0.202988 -1.42562 0
M  V30 3981 H 372.002 1.88048 -3.77115 0
M  V30 3982 H 370.726 2.05253 -2.54045 0
M  V30 3983 H 369.385 0.23653 -3.65836 0
M  V30 3984 H 369.033 2.63154 -4.28671 0
M  V30 3985 H 368.733 1.54785 -5.66847 0
M  V30 3986 H 370.257 2.4762 -5.58137 0
M  V30 3987 H 371.671 0.209579 -5.72917 0
M  V30 3988 H 370.068 -0.541962 -5.97648 0
M  V30 3989 H 371.138 -1.16409 -4.7072 0
M  V30 3990 N 372.481 1.55866 -0.233164 0
M  V30 3991 C 373.391 2.24431 0.683217 0
M  V30 3992 C 374.407 1.2558 1.2044 0
M  V30 3993 O 375.583 1.58422 1.24356 0
M  V30 3994 C 372.648 2.91979 1.86947 0
M  V30 3995 C 371.709 4.06204 1.38912 0
M  V30 3996 C 370.942 4.70522 2.51883 0
M  V30 3997 O 371.165 4.33865 3.70293 0
M  V30 3998 O 370.099 5.59296 2.22423 0
M  V30 3999 H 373.925 3.03426 0.129059 0
M  V30 4000 H 371.51 1.494 -0.0022283 0
M  V30 4001 H 373.392 3.34573 2.56201 0
M  V30 4002 H 372.067 2.15935 2.41151 0
M  V30 4003 H 370.974 3.68155 0.664259 0
M  V30 4004 H 372.307 4.84025 0.893328 0
M  V30 4005 N 373.959 -0.0401083 1.57549 0
M  V30 4006 C 375.207 -0.731677 1.8839 0
M  V30 4007 C 375.528 -1.76481 0.829425 0
M  V30 4008 O 374.798 -1.95411 -0.1383 0
M  V30 4009 H 373.378 -0.273225 0.695239 0
M  V30 4010 H 376.04 -0.00867725 1.94898 0
M  V30 4011 H 375.136 -1.22816 2.86919 0
M  V30 4012 N 375.437 -1.54477 -0.31217 0
M  V30 4013 C 376.667 -1.76948 -1.06645 0
M  V30 4014 C 377.075 -0.523593 -1.81811 0
M  V30 4015 O 376.418 0.51578 -1.76311 0
M  V30 4016 C 376.48 -2.91668 -2.10166 0
M  V30 4017 C 376.144 -4.30165 -1.54296 0
M  V30 4018 C 377.141 -5.10603 -0.978793 0
M  V30 4019 C 374.826 -4.76738 -1.58196 0
M  V30 4020 C 376.82 -6.3573 -0.461048 0
M  V30 4021 C 374.507 -6.01831 -1.06034 0
M  V30 4022 C 375.505 -6.81161 -0.500844 0
M  V30 4023 O 375.193 -8.03899 0.0128958 0
M  V30 4024 H 374.925 -0.594088 -0.322546 0
M  V30 4025 H 377.479 -2.02213 -0.360441 0
M  V30 4026 H 375.709 -2.62001 -2.84416 0
M  V30 4027 H 377.398 -3.01817 -2.71406 0
M  V30 4028 H 378.164 -4.75771 -0.941651 0
M  V30 4029 H 374.043 -4.15027 -2.00683 0
M  V30 4030 H 377.587 -6.97596 -0.0236894 0
M  V30 4031 H 373.484 -6.36152 -1.09459 0
M  V30 4032 H 374.252 -8.18437 -0.101457 0
M  V30 4033 N 376.915 0.57481 -1.46744 0
M  V30 4034 C 378.143 1.35856 -1.56047 0
M  V30 4035 C 378.558 1.87691 -0.204365 0
M  V30 4036 O 377.915 1.64049 0.79963 0
M  V30 4037 C 377.966 2.54066 -2.57163 0
M  V30 4038 O 377.687 2.04377 -3.87507 0
M  V30 4039 C 379.188 3.46514 -2.76483 0
M  V30 4040 H 376.408 0.414754 -0.527466 0
M  V30 4041 H 378.952 0.698035 -1.92218 0
M  V30 4042 H 377.107 3.16092 -2.23974 0
M  V30 4043 H 377.521 2.81419 -4.4261 0
M  V30 4044 H 378.995 4.25919 -3.51137 0
M  V30 4045 H 379.472 3.98951 -1.83671 0
M  V30 4046 H 380.078 2.90318 -3.10799 0
M  V30 4047 N 378.394 1.34581 0.820102 0
M  V30 4048 C 379.304 1.28471 1.96297 0
M  V30 4049 C 380.32 0.191902 1.72939 0
M  V30 4050 O 381.496 0.418879 1.96996 0
M  V30 4051 C 378.561 1.04281 3.30645 0
M  V30 4052 C 377.622 2.22745 3.66992 0
M  V30 4053 C 376.855 1.997 4.9493 0
M  V30 4054 O 377.078 0.956656 5.6232 0
M  V30 4055 O 376.012 2.86723 5.2922 0
M  V30 4056 H 379.838 2.24624 2.04396 0
M  V30 4057 H 377.423 1.14816 0.955913 0
M  V30 4058 H 379.305 0.925841 4.11104 0
M  V30 4059 H 377.98 0.111697 3.23507 0
M  V30 4060 H 376.887 2.40003 2.86966 0
M  V30 4061 H 378.22 3.14257 3.78819 0
M  V30 4062 N 379.872 -1.04064 1.18357 0
M  V30 4063 C 381.283 -1.58719 0.98312 0
M  V30 4064 C 381.634 -1.90556 -0.467193 0
M  V30 4065 O 380.759 -1.69561 -1.34454 0
M  V30 4066 C 381.354 -2.88379 1.77828 0
M  V30 4067 C 379.913 -3.3965 1.62218 0
M  V30 4068 C 379.06 -2.13235 1.77274 0
M  V30 4069 H 382.011 -0.867359 1.32901 0
M  V30 4070 H 382.032 -3.58773 1.26737 0
M  V30 4071 H 381.544 -2.65176 2.83379 0
M  V30 4072 H 379.645 -3.67866 0.592036 0
M  V30 4073 H 379.758 -4.13475 2.42023 0
M  V30 4074 H 378.122 -2.24542 1.20221 0
M  V30 4075 H 378.905 -1.92487 2.8426 0
M  V30 4076 N 381.35 -0.985608 -1.22978 0
M  V30 4077 C 382.297 -0.529825 -2.24636 0
M  V30 4078 C 383.267 0.434028 -1.60329 0
M  V30 4079 O 384.452 0.340414 -1.87739 0
M  V30 4080 C 381.592 0.156533 -3.44745 0
M  V30 4081 C 380.705 -0.848197 -4.23591 0
M  V30 4082 C 379.84 -0.136109 -5.31026 0
M  V30 4083 C 378.879 -1.1297 -6.01585 0
M  V30 4084 N 378.016 -0.446415 -7.00679 0
M  V30 4085 H 382.856 -1.40148 -2.62988 0
M  V30 4086 H 380.393 -0.702168 -1.29259 0
M  V30 4087 H 382.351 0.571324 -4.1327 0
M  V30 4088 H 380.981 0.992025 -3.07179 0
M  V30 4089 H 380.033 -1.38135 -3.54433 0
M  V30 4090 H 381.345 -1.60512 -4.72268 0
M  V30 4091 H 380.499 0.335784 -6.0577 0
M  V30 4092 H 379.238 0.653373 -4.83304 0
M  V30 4093 H 378.243 -1.6123 -5.25628 0
M  V30 4094 H 379.468 -1.91993 -6.51395 0
M  V30 4095 H 377.414 0.323763 -6.55201 0
M  V30 4096 H 377.331 -1.1419 -7.47326 0
M  V30 4097 H 378.599 0.00291697 -7.795 0
M  V30 4098 N 382.828 1.3818 -0.7579 0
M  V30 4099 C 384.076 1.99624 -0.315361 0
M  V30 4100 C 384.397 1.60464 1.10799 0
M  V30 4101 O 383.667 0.863507 1.75842 0
M  V30 4102 H 382.247 0.73831 -0.113611 0
M  V30 4103 H 384.909 1.68878 -0.972952 0
M  V30 4104 H 384.005 3.09754 -0.381931 0
M  V30 4105 N 384.306 0.507319 1.49211 0
M  V30 4106 C 385.236 -0.256939 2.32082 0
M  V30 4107 C 386.217 -0.956609 1.40652 0
M  V30 4108 O 387.402 -0.946788 1.69557 0
M  V30 4109 C 384.532 -1.31802 3.21318 0
M  V30 4110 C 383.486 -0.737855 4.21592 0
M  V30 4111 C 382.812 -1.89992 4.99807 0
M  V30 4112 C 384.112 0.275325 5.21574 0
M  V30 4113 H 385.806 0.434798 2.96226 0
M  V30 4114 H 383.352 0.210546 1.42452 0
M  V30 4115 H 385.305 -1.86045 3.78107 0
M  V30 4116 H 384.029 -2.03903 2.5513 0
M  V30 4117 H 382.688 -0.217126 3.65956 0
M  V30 4118 H 382.336 -2.60877 4.30061 0
M  V30 4119 H 382.036 -1.51777 5.6766 0
M  V30 4120 H 383.56 -2.44657 5.59442 0
M  V30 4121 H 384.974 -0.179193 5.7302 0
M  V30 4122 H 383.371 0.573649 5.97352 0
M  V30 4123 H 384.441 1.18903 4.70096 0
M  V30 4124 N 385.784 -1.5574 0.241426 0
M  V30 4125 C 387.061 -1.90704 -0.434881 0
M  V30 4126 C 387.441 -1.16145 -1.76277 0
M  V30 4127 O 386.789 -0.277152 -2.26813 0
M  V30 4128 C 386.999 -3.43657 -0.608343 0
M  V30 4129 C 388.347 -4.14806 -0.906725 0
M  V30 4130 O 389.371 -3.49366 -0.694408 0
M  V30 4131 O 388.23 -5.30548 -1.31075 0
M  V30 4132 H 385.324 -0.793592 -0.23268 0
M  V30 4133 H 387.87 -1.67288 0.285086 0
M  V30 4134 H 386.642 -3.89927 0.327505 0
M  V30 4135 H 386.265 -3.72918 -1.37906 0
M  V30 4136 N 387.262 0.0317525 -1.57568 0
M  V30 4137 C 388.209 1.0332 -2.06382 0
M  V30 4138 C 389.179 1.36082 -0.952414 0
M  V30 4139 O 390.364 1.46466 -1.2228 0
M  V30 4140 C 387.504 2.32989 -2.54578 0
M  V30 4141 C 386.617 2.0641 -3.79498 0
M  V30 4142 C 385.752 3.2993 -4.16317 0
M  V30 4143 C 384.791 2.98893 -5.34162 0
M  V30 4144 N 383.928 4.14857 -5.66426 0
M  V30 4145 H 388.768 0.609982 -2.9169 0
M  V30 4146 H 386.305 0.289573 -1.44222 0
M  V30 4147 H 388.263 3.0875 -2.80587 0
M  V30 4148 H 386.893 2.73039 -1.7219 0
M  V30 4149 H 385.945 1.21158 -3.6059 0
M  V30 4150 H 387.257 1.79513 -4.65378 0
M  V30 4151 H 386.411 4.1406 -4.4344 0
M  V30 4152 H 385.15 3.59938 -3.29083 0
M  V30 4153 H 384.155 2.13164 -5.06795 0
M  V30 4154 H 385.38 2.70165 -6.23047 0
M  V30 4155 H 383.326 4.44821 -4.82151 0
M  V30 4156 H 383.243 3.91374 -6.4681 0
M  V30 4157 H 384.511 4.99868 -5.98124 0
M  V30 4158 N 388.74 1.54641 0.303973 0
M  V30 4159 C 390.017 1.64455 1.05896 0
M  V30 4160 C 390.397 0.490923 2.05312 0
M  V30 4161 O 389.745 -0.512685 2.22674 0
M  V30 4162 C 389.955 3.02331 1.74347 0
M  V30 4163 C 391.303 3.59045 2.26653 0
M  V30 4164 O 392.327 3.04764 1.84384 0
M  V30 4165 O 391.186 4.54081 3.04093 0
M  V30 4166 H 388.28 0.666729 0.489287 0
M  V30 4167 H 390.826 1.66986 0.302298 0
M  V30 4168 H 389.598 3.77734 1.02142 0
M  V30 4169 H 389.221 3.03565 2.56777 0
M  V30 4170 N 390.218 -0.567019 1.47046 0
M  V30 4171 C 391.443 -1.3551 1.57009 0
M  V30 4172 C 391.868 -1.86841 0.217259 0
M  V30 4173 O 391.226 -1.62435 -0.805268 0
M  V30 4174 C 391.274 -2.50777 2.5912 0
M  V30 4175 O 390.378 -3.52706 2.13711 0
M  V30 4176 H 389.719 -0.402919 0.52778 0
M  V30 4177 H 392.249 -0.686241 1.92748 0
M  V30 4178 H 392.259 -2.97481 2.79229 0
M  V30 4179 H 390.934 -2.12771 3.57353 0
M  V30 4180 H 389.511 -3.12374 2.03659 0
M  V30 4181 N 391.696 -1.35014 -0.812953 0
M  V30 4182 C 392.628 -1.23262 -1.93233 0
M  V30 4183 C 393.641 -0.157371 -1.62038 0
M  V30 4184 O 394.83 -0.410096 -1.73725 0
M  V30 4185 C 391.93 -0.87392 -3.27438 0
M  V30 4186 C 391.103 -2.04622 -3.86586 0
M  V30 4187 C 390.162 -1.66432 -4.99186 0
M  V30 4188 O 389.188 -2.38222 -5.16951 0
M  V30 4189 N 390.39 -0.584248 -5.77552 0
M  V30 4190 H 393.155 -2.19699 -2.03844 0
M  V30 4191 H 390.716 -1.281 -0.99005 0
M  V30 4192 H 392.708 -0.600039 -4.00227 0
M  V30 4193 H 391.278 0.00057392 -3.126 0
M  V30 4194 H 390.498 -2.48427 -3.06068 0
M  V30 4195 H 391.786 -2.82999 -4.22835 0
M  V30 4196 H 391.184 0.0123526 -5.65699 0
M  V30 4197 H 389.741 -0.37013 -6.50748 0
M  V30 4198 N 393.175 1.03435 -1.18907 0
M  V30 4199 C 394.452 1.73778 -0.89781 0
M  V30 4200 C 394.832 2.02458 0.597832 0
M  V30 4201 O 394.18 1.67482 1.55441 0
M  V30 4202 C 394.39 3.01845 -1.75187 0
M  V30 4203 C 395.738 3.7546 -1.9828 0
M  V30 4204 O 396.762 3.11759 -1.72293 0
M  V30 4205 O 395.621 4.89966 -2.42065 0
M  V30 4206 H 392.715 0.75651 -0.334098 0
M  V30 4207 H 395.261 1.09444 -1.29693 0
M  V30 4208 H 394.033 2.76836 -2.76545 0
M  V30 4209 H 393.656 3.73919 -1.35167 0
M  V30 4210 N 394.653 0.992116 1.22453 0
M  V30 4211 C 395.883 0.684949 1.94915 0
M  V30 4212 C 396.291 -0.754292 1.73514 0
M  V30 4213 O 395.634 -1.52056 1.03076 0
M  V30 4214 C 395.696 0.910054 3.47791 0
M  V30 4215 C 395.36 2.33363 3.92926 0
M  V30 4216 C 396.357 3.31308 4.00663 0
M  V30 4217 C 394.042 2.66785 4.25595 0
M  V30 4218 C 396.036 4.6075 4.40441 0
M  V30 4219 C 393.723 3.96446 4.65053 0
M  V30 4220 C 394.721 4.9324 4.72444 0
M  V30 4221 O 394.409 6.20584 5.1101 0
M  V30 4222 H 394.141 0.25258 0.62704 0
M  V30 4223 H 396.695 1.32939 1.56577 0
M  V30 4224 H 394.925 0.208443 3.86138 0
M  V30 4225 H 396.614 0.598257 4.01467 0
M  V30 4226 H 397.38 3.0682 3.75615 0
M  V30 4227 H 393.259 1.92148 4.19047 0
M  V30 4228 H 396.803 5.363 4.46126 0
M  V30 4229 H 392.7 4.20724 4.89552 0
M  V30 4230 H 393.468 6.24509 5.29085 0
M  V30 4231 N 396.131 -1.37776 0.765217 0
M  V30 4232 C 397.377 -2.00145 0.327072 0
M  V30 4233 C 397.71 -1.60607 -1.09175 0
M  V30 4234 O 396.985 -0.849127 -1.74986 0
M  V30 4235 C 397.268 -3.57109 0.46319 0
M  V30 4236 C 397.121 -4.06576 1.92395 0
M  V30 4237 C 398.44 -4.39888 -0.136473 0
M  V30 4238 H 395.559 -0.727113 0.120316 0
M  V30 4239 H 398.201 -1.63549 0.967039 0
M  V30 4240 H 396.351 -3.88414 -0.0816358 0
M  V30 4241 H 398.023 -3.85864 2.52798 0
M  V30 4242 H 396.266 -3.59011 2.43503 0
M  V30 4243 H 396.937 -5.15639 1.97028 0
M  V30 4244 H 399.413 -4.14803 0.328317 0
M  V30 4245 H 398.289 -5.48899 -0.0110582 0
M  V30 4246 H 398.55 -4.24758 -1.22608 0
M  V30 4247 N 397.609 -0.515225 -1.4894 0
M  V30 4248 C 398.559 0.275113 -2.26334 0
M  V30 4249 C 399.543 0.923007 -1.31793 0
M  V30 4250 O 400.735 0.828254 -1.56426 0
M  V30 4251 C 397.864 1.33041 -3.16473 0
M  V30 4252 C 396.95 0.688051 -4.18481 0
M  V30 4253 N 397.341 -0.217638 -5.05332 0
M  V30 4254 C 395.639 0.94699 -4.3583 0
M  V30 4255 C 396.34 -0.58676 -5.78733 0
M  V30 4256 N 395.316 0.0486966 -5.43578 0
M  V30 4257 H 399.118 -0.421876 -2.90856 0
M  V30 4258 H 396.632 -0.332249 -1.58965 0
M  V30 4259 H 398.629 1.9102 -3.70563 0
M  V30 4260 H 397.289 2.02894 -2.53504 0
M  V30 4261 H 398.3 -0.589343 -5.14536 0
M  V30 4262 H 394.977 1.63719 -3.8406 0
M  V30 4263 H 396.367 -1.32855 -6.58634 0
M  V30 4264 N 399.087 1.5561 -0.249682 0
M  V30 4265 C 400.333 2.00044 0.367952 0
M  V30 4266 C 400.688 1.1349 1.55363 0
M  V30 4267 O 399.981 0.191079 1.90645 0
M  V30 4268 C 400.175 3.4775 0.824887 0
M  V30 4269 C 400.004 4.48596 -0.314973 0
M  V30 4270 C 398.774 4.99077 -0.790555 0
M  V30 4271 C 400.972 5.0144 -1.14291 0
M  V30 4272 N 398.954 5.83675 -1.90254 0
M  V30 4273 C 400.325 5.83236 -2.10322 0
M  V30 4274 C 402.38 4.83736 -1.17916 0
M  V30 4275 C 401.083 6.49217 -3.09692 0
M  V30 4276 C 403.109 5.50497 -2.16117 0
M  V30 4277 C 402.471 6.32084 -3.10884 0
M  V30 4278 H 398.57 0.775512 0.100522 0
M  V30 4279 H 401.154 1.91193 -0.367896 0
M  V30 4280 H 399.325 3.56994 1.53002 0
M  V30 4281 H 401.057 3.79056 1.4177 0
M  V30 4282 H 397.812 4.72119 -0.374218 0
M  V30 4283 H 398.236 6.30671 -2.46137 0
M  V30 4284 H 402.878 4.20286 -0.460352 0
M  V30 4285 H 400.596 7.11832 -3.8252 0
M  V30 4286 H 404.182 5.38752 -2.19631 0
M  V30 4287 H 403.062 6.82832 -3.8563 0
M  V30 4288 N 400.565 -0.0233959 1.57583 0
M  V30 4289 C 401.495 -1.02162 2.09965 0
M  V30 4290 C 402.476 -1.3735 1.00344 0
M  V30 4291 O 403.661 -1.46135 1.27899 0
M  V30 4292 C 400.791 -2.32081 2.58371 0
M  V30 4293 C 399.745 -2.1112 3.72307 0
M  V30 4294 C 399.071 -3.46848 4.06941 0
M  V30 4295 C 400.371 -1.49276 5.00514 0
M  V30 4296 H 402.065 -0.585557 2.93618 0
M  V30 4297 H 399.611 -0.280218 1.41247 0
M  V30 4298 H 401.564 -3.02249 2.93639 0
M  V30 4299 H 400.288 -2.77758 1.71808 0
M  V30 4300 H 398.947 -1.43384 3.37397 0
M  V30 4301 H 398.595 -3.90184 3.17436 0
M  V30 4302 H 398.295 -3.33646 4.83688 0
M  V30 4303 H 399.819 -4.18369 4.44747 0
M  V30 4304 H 401.233 -2.09368 5.33702 0
M  V30 4305 H 399.63 -1.46632 5.8191 0
M  V30 4306 H 400.7 -0.459217 4.82721 0
M  V30 4307 N 402.043 -1.548 -0.295768 0
M  V30 4308 C 403.32 -1.65014 -1.05023 0
M  V30 4309 C 403.7 -0.501805 -2.05049 0
M  V30 4310 O 403.048 0.500869 -2.22943 0
M  V30 4311 C 403.258 -3.03252 -1.72741 0
M  V30 4312 C 404.606 -3.60242 -2.24746 0
M  V30 4313 O 405.63 -3.05737 -1.82765 0
M  V30 4314 O 404.489 -4.55687 -3.01681 0
M  V30 4315 H 401.583 -0.669314 -0.485744 0
M  V30 4316 H 404.129 -1.67144 -0.293438 0
M  V30 4317 H 402.901 -3.7827 -1.00138 0
M  V30 4318 H 402.524 -3.04922 -2.55163 0
M  V30 4319 N 403.521 0.559213 -1.47345 0
M  V30 4320 C 404.768 1.31648 -1.53867 0
M  V30 4321 C 405.096 1.93468 -0.200104 0
M  V30 4322 O 404.351 1.78295 0.806799 0
M  V30 4323 C 404.65 2.44853 -2.6035 0
M  V30 4324 C 404.316 2.00876 -4.03683 0
M  V30 4325 C 402.978 1.88599 -4.42701 0
M  V30 4326 C 405.33 1.67279 -4.93626 0
M  V30 4327 C 402.658 1.41017 -5.69501 0
M  V30 4328 C 405.01 1.21169 -6.20887 0
M  V30 4329 C 403.674 1.07487 -6.58789 0
M  V30 4330 H 402.944 0.481734 -0.56304 0
M  V30 4331 H 405.591 0.627301 -1.80934 0
M  V30 4332 H 403.896 3.19318 -2.27032 0
M  V30 4333 H 405.593 3.03039 -2.62619 0
M  V30 4334 H 402.183 2.11374 -3.72853 0
M  V30 4335 H 406.367 1.75638 -4.64182 0
M  V30 4336 H 401.623 1.29086 -5.97618 0
M  V30 4337 H 405.797 0.942345 -6.89995 0
M  V30 4338 H 403.424 0.703946 -7.56934 0
M  V30 4339 N 404.999 1.35443 0.805782 0
M  V30 4340 C 406.224 1.32037 1.59941 0
M  V30 4341 C 406.649 -0.0994215 1.87837 0
M  V30 4342 O 406.007 -1.06648 1.46615 0
M  V30 4343 C 406.055 2.13354 2.90711 0
M  V30 4344 O 405.159 1.5148 3.83572 0
M  V30 4345 H 404.5 0.452666 0.485787 0
M  V30 4346 H 407.03 1.78496 1.00002 0
M  V30 4347 H 407.04 2.25338 3.40128 0
M  V30 4348 H 405.715 3.16572 2.69732 0
M  V30 4349 H 404.292 1.4834 3.42125 0
M  V30 4350 N 406.477 -1.02803 1.19454 0
M  V30 4351 C 407.754 -1.73299 0.907013 0
M  V30 4352 C 408.134 -2.02772 -0.587086 0
M  V30 4353 O 407.482 -1.68304 -1.54551 0
M  V30 4354 C 407.692 -3.00912 1.76785 0
M  V30 4355 C 409.04 -3.74403 2.00268 0
M  V30 4356 O 410.064 -3.10841 1.73943 0
M  V30 4357 O 408.923 -4.88675 2.4466 0
M  V30 4358 H 406.017 -0.754727 0.338106 0
M  V30 4359 H 408.563 -1.08754 1.30271 0
M  V30 4360 H 407.335 -2.75366 2.7801 0
M  V30 4361 H 406.958 -3.73197 1.37149 0
M  V30 4362 N 407.956 -0.998596 -1.21925 0
M  V30 4363 C 409.203 -0.677663 -1.90824 0
M  V30 4364 C 409.531 0.790905 -1.77693 0
M  V30 4365 O 408.786 1.58817 -1.14349 0
M  V30 4366 C 409.085 -1.03648 -3.42041 0
M  V30 4367 C 408.751 -2.49825 -3.75364 0
M  V30 4368 C 407.413 -2.8977 -3.8417 0
M  V30 4369 C 409.765 -3.44545 -3.91073 0
M  V30 4370 C 407.093 -4.23412 -4.06127 0
M  V30 4371 C 409.445 -4.77853 -4.14535 0
M  V30 4372 C 408.109 -5.17531 -4.21566 0
M  V30 4373 H 407.379 -0.247975 -0.698276 0
M  V30 4374 H 410.026 -1.25584 -1.44571 0
M  V30 4375 H 408.331 -0.376457 -3.89987 0
M  V30 4376 H 410.028 -0.766113 -3.93614 0
M  V30 4377 H 406.618 -2.17866 -3.69097 0
M  V30 4378 H 410.802 -3.14853 -3.83642 0
M  V30 4379 H 406.058 -4.53734 -4.09799 0
M  V30 4380 H 410.232 -5.51189 -4.25633 0
M  V30 4381 H 407.859 -6.21102 -4.38333 0
M  V30 4382 N 409.434 1.37368 -0.772513 0
M  V30 4383 C 410.397 2.28601 -0.165541 0
M  V30 4384 C 411.397 1.48062 0.627238 0
M  V30 4385 O 412.587 1.68268 0.450715 0
M  V30 4386 C 409.719 3.32023 0.772897 0
M  V30 4387 H 410.912 2.83787 -0.969787 0
M  V30 4388 H 408.465 1.46647 -0.540775 0
M  V30 4389 H 409.2 2.81962 1.60212 0
M  V30 4390 H 408.985 3.91555 0.206585 0
M  V30 4391 H 410.475 4.00197 1.19298 0
M  V30 4392 N 410.912 0.523116 1.48665 0
M  V30 4393 C 412.14 -0.0096312 2.06898 0
M  V30 4394 C 412.555 -1.28784 1.38059 0
M  V30 4395 O 411.912 -1.76453 0.465893 0
M  V30 4396 C 411.963 -0.244386 3.60673 0
M  V30 4397 O 411.684 0.983172 4.26925 0
M  V30 4398 C 413.185 -0.818289 4.35682 0
M  V30 4399 H 410.405 0.0304161 0.67031 0
M  V30 4400 H 412.949 0.726799 1.91149 0
M  V30 4401 H 411.104 -0.930847 3.76051 0
M  V30 4402 H 411.518 0.759653 5.1897 0
M  V30 4403 H 412.992 -0.93201 5.44075 0
M  V30 4404 H 413.469 -1.82153 3.99646 0
M  V30 4405 H 414.075 -0.168609 4.24966 0
M  V30 4406 N 412.39 -1.55475 0.257931 0
M  V30 4407 C 413.3 -2.2549 -0.647425 0
M  V30 4408 C 414.316 -1.2748 -1.18427 0
M  V30 4409 O 415.492 -1.6038 -1.2182 0
M  V30 4410 C 412.557 -2.94916 -1.82278 0
M  V30 4411 C 411.618 -4.08363 -1.32432 0
M  V30 4412 C 410.851 -4.74469 -2.44366 0
M  V30 4413 O 411.074 -4.39701 -3.63344 0
M  V30 4414 O 410.008 -5.62763 -2.13497 0
M  V30 4415 H 413.834 -3.03593 -0.0807707 0
M  V30 4416 H 411.419 -1.49377 0.0259962 0
M  V30 4417 H 413.301 -3.38606 -2.50846 0
M  V30 4418 H 411.976 -2.19744 -2.37685 0
M  V30 4419 H 410.883 -3.69166 -0.605605 0
M  V30 4420 H 412.216 -4.85385 -0.816211 0
M  V30 4421 N 413.868 0.0150385 -1.57593 0
M  V30 4422 C 415.116 0.701613 -1.8953 0
M  V30 4423 C 415.437 1.75139 -0.857396 0
M  V30 4424 O 414.707 1.95607 0.107194 0
M  V30 4425 H 413.287 0.26213 -0.699498 0
M  V30 4426 H 415.949 -0.0223304 -1.94887 0
M  V30 4427 H 415.045 1.18236 -2.88837 0
M  V30 4428 N 415.346 1.54954 0.287554 0
M  V30 4429 C 416.595 1.74081 1.01877 0
M  V30 4430 C 416.908 0.541135 1.87966 0
M  V30 4431 O 418.114 0.614491 2.64455 0
M  V30 4432 C 416.57 3.08042 1.86113 0
M  V30 4433 C 416.178 4.35531 1.04961 0
M  V30 4434 C 417.922 3.36523 2.58752 0
M  V30 4435 C 415.829 5.60538 1.88551 0
M  V30 4436 H 414.759 0.64884 0.384087 0
M  V30 4437 H 417.41 1.81426 0.275101 0
M  V30 4438 H 415.792 2.94696 2.64519 0
M  V30 4439 H 416.966 4.59751 0.31074 0
M  V30 4440 H 415.281 4.14085 0.43843 0
M  V30 4441 H 417.878 4.27122 3.21668 0
M  V30 4442 H 418.221 2.56 3.28283 0
M  V30 4443 H 418.754 3.50901 1.87386 0
M  V30 4444 H 415.493 6.43767 1.23466 0
M  V30 4445 H 415.013 5.40483 2.60074 0
M  V30 4446 H 416.692 5.98297 2.46273 0
M  V30 4447 N 416.824 -0.551391 1.4764 0
M  V30 4448 C 418.072 -1.30572 1.54258 0
M  V30 4449 C 418.393 -1.93877 0.208963 0
M  V30 4450 O 417.663 -1.80234 -0.767619 0
M  V30 4451 H 416.243 -0.484894 0.568231 0
M  V30 4452 H 418.905 -0.643402 1.83974 0
M  V30 4453 H 418.001 -2.09621 2.31226 0
M  V30 4454 N 418.302 -1.35869 -0.798587 0
M  V30 4455 C 419.532 -1.32529 -1.58491 0
M  V30 4456 C 419.94 0.0975405 -1.88948 0
M  V30 4457 O 419.283 1.06224 -1.49874 0
M  V30 4458 C 419.345 -2.07247 -2.9375 0
M  V30 4459 C 419.009 -3.56391 -2.86068 0
M  V30 4460 C 420.006 -4.50824 -2.58947 0
M  V30 4461 C 417.691 -3.9915 -3.04933 0
M  V30 4462 C 419.685 -5.85993 -2.5078 0
M  V30 4463 C 417.372 -5.34413 -2.96389 0
M  V30 4464 C 418.37 -6.27646 -2.69349 0
M  V30 4465 O 418.058 -7.60426 -2.60782 0
M  V30 4466 H 417.79 -0.456529 -0.498556 0
M  V30 4467 H 420.344 -1.79425 -0.999799 0
M  V30 4468 H 418.574 -1.55001 -3.54276 0
M  V30 4469 H 420.263 -1.96883 -3.54954 0
M  V30 4470 H 421.029 -4.19104 -2.44084 0
M  V30 4471 H 416.908 -3.26961 -3.24989 0
M  V30 4472 H 420.452 -6.58735 -2.29595 0
M  V30 4473 H 416.349 -5.65743 -3.10813 0
M  V30 4474 H 417.117 -7.70444 -2.76331 0
M  V30 4475 N 419.78 1.02168 -1.19998 0
M  V30 4476 C 421.01 1.79036 -1.031 0
M  V30 4477 C 421.418 1.84409 0.423078 0
M  V30 4478 O 420.761 1.29228 1.30559 0
M  V30 4479 C 420.823 3.25185 -1.53281 0
M  V30 4480 C 420.487 3.43431 -3.01503 0
M  V30 4481 C 421.484 3.33063 -3.99206 0
M  V30 4482 C 419.169 3.69412 -3.40353 0
M  V30 4483 C 421.163 3.48413 -5.33748 0
M  V30 4484 C 418.85 3.84406 -4.75053 0
M  V30 4485 C 419.848 3.7391 -5.71559 0
M  V30 4486 O 419.536 3.88452 -7.03818 0
M  V30 4487 H 419.268 0.570043 -0.363355 0
M  V30 4488 H 421.822 1.29524 -1.59414 0
M  V30 4489 H 420.052 3.75756 -0.913483 0
M  V30 4490 H 421.741 3.83671 -1.32481 0
M  V30 4491 H 422.507 3.12934 -3.70537 0
M  V30 4492 H 418.386 3.76671 -2.65782 0
M  V30 4493 H 421.93 3.40137 -6.09059 0
M  V30 4494 H 417.827 4.04035 -5.03415 0
M  V30 4495 H 418.595 4.055 -7.10993 0
M  V30 4496 N 421.258 1.00505 1.21394 0
M  V30 4497 C 422.505 0.687774 1.90462 0
M  V30 4498 C 422.833 -0.78147 1.7811 0
M  V30 4499 O 422.088 -1.58208 1.1519 0
M  V30 4500 C 422.387 1.0546 3.41486 0
M  V30 4501 C 422.053 2.51812 3.74034 0
M  V30 4502 C 420.715 2.91804 3.82628 0
M  V30 4503 C 423.067 3.46614 3.8924 0
M  V30 4504 C 420.395 4.2556 4.03876 0
M  V30 4505 C 422.747 4.80044 4.11995 0
M  V30 4506 C 421.411 5.19759 4.18816 0
M  V30 4507 H 420.681 0.251674 0.696951 0
M  V30 4508 H 423.328 1.26349 1.43903 0
M  V30 4509 H 421.633 0.397133 3.89782 0
M  V30 4510 H 423.33 0.786976 3.93202 0
M  V30 4511 H 419.92 2.1982 3.67936 0
M  V30 4512 H 424.104 3.16883 3.81967 0
M  V30 4513 H 419.36 4.55901 4.07387 0
M  V30 4514 H 423.534 5.53439 4.22704 0
M  V30 4515 H 421.161 6.23418 4.35033 0
M  V30 4516 N 422.737 -1.36956 0.779787 0
M  V30 4517 C 423.647 -2.33965 0.172491 0
M  V30 4518 C 424.663 -1.60574 -0.670222 0
M  V30 4519 O 425.839 -1.92617 -0.588263 0
M  V30 4520 C 422.904 -3.39761 -0.690173 0
M  V30 4521 C 421.965 -4.28964 0.169924 0
M  V30 4522 C 421.198 -5.29707 -0.651662 0
M  V30 4523 O 421.421 -5.38238 -1.88827 0
M  V30 4524 O 420.355 -6.01873 -0.0566264 0
M  V30 4525 H 424.181 -2.87647 0.974321 0
M  V30 4526 H 421.766 -1.39258 0.541078 0
M  V30 4527 H 423.648 -4.04471 -1.1824 0
M  V30 4528 H 422.323 -2.88394 -1.47006 0
M  V30 4529 H 421.23 -3.67326 0.708696 0
M  V30 4530 H 422.563 -4.83656 0.913085 0
M  V30 4531 N 424.215 -0.530993 -1.48385 0
M  V30 4532 C 425.145 0.219985 -2.32461 0
M  V30 4533 C 426.126 0.934111 -1.42156 0
M  V30 4534 O 427.311 0.919694 -1.71042 0
M  V30 4535 C 424.441 1.26674 -3.23375 0
M  V30 4536 C 423.395 0.67069 -4.22712 0
M  V30 4537 C 422.721 1.82017 -5.02766 0
M  V30 4538 C 424.021 -0.358268 -5.2107 0
M  V30 4539 H 425.715 -0.48187 -2.95497 0
M  V30 4540 H 423.261 -0.233182 -1.42099 0
M  V30 4541 H 425.214 1.80006 -3.81019 0
M  V30 4542 H 423.938 1.99818 -2.58341 0
M  V30 4543 H 422.597 0.158878 -3.66256 0
M  V30 4544 H 422.245 2.54002 -4.34157 0
M  V30 4545 H 421.945 1.42727 -5.70003 0
M  V30 4546 H 423.469 2.35725 -5.63264 0
M  V30 4547 H 424.883 0.0880081 -5.73232 0
M  V30 4548 H 423.28 -0.66861 -5.96364 0
M  V30 4549 H 424.35 -1.26367 -4.68145 0
M  V30 4550 N 425.693 1.55336 -0.266172 0
M  V30 4551 C 427.104 1.85236 0.233315 0
M  V30 4552 C 427.455 1.18816 1.56132 0
M  V30 4553 O 426.58 0.473307 2.11161 0
M  V30 4554 C 427.175 3.36059 0.430113 0
M  V30 4555 C 425.734 3.66116 0.873842 0
M  V30 4556 C 424.881 2.77274 -0.0380016 0
M  V30 4557 H 427.832 1.51004 -0.488214 0
M  V30 4558 H 427.853 3.58681 1.26998 0
M  V30 4559 H 427.365 3.84373 -0.536588 0
M  V30 4560 H 425.466 3.23295 1.85233 0
M  V30 4561 H 425.579 4.73699 0.717358 0
M  V30 4562 H 423.943 2.50198 0.476759 0
M  V30 4563 H 424.726 3.284 -1.00042 0
M  V30 4564 N 427.171 -0.0066808 1.57599 0
M  V30 4565 C 428.399 -0.704087 1.94551 0
M  V30 4566 C 428.814 -1.67677 0.867746 0
M  V30 4567 O 428.171 -1.8185 -0.153925 0
M  V30 4568 C 428.222 -1.44177 3.31505 0
M  V30 4569 O 427.943 -0.508097 4.35144 0
M  V30 4570 C 429.444 -2.23429 3.82876 0
M  V30 4571 H 426.664 -0.196523 0.641576 0
M  V30 4572 H 429.208 0.042453 2.04456 0
M  V30 4573 H 427.363 -2.13999 3.22929 0
M  V30 4574 H 427.777 -1.02782 5.14331 0
M  V30 4575 H 429.251 -2.70552 4.8115 0
M  V30 4576 H 429.728 -3.05818 3.15233 0
M  V30 4577 H 430.334 -1.58636 3.94607 0
M  V30 4578 N 428.649 -1.55105 -0.279332 0
M  V30 4579 C 429.895 -1.75672 -1.01327 0
M  V30 4580 C 430.228 -0.552739 -1.86168 0
M  V30 4581 O 429.503 0.449827 -1.89227 0
M  V30 4582 C 429.786 -3.05825 -1.90114 0
M  V30 4583 C 429.639 -4.36565 -1.08309 0
M  V30 4584 C 430.958 -3.31975 -2.8893 0
M  V30 4585 H 428.077 -0.639149 -0.366957 0
M  V30 4586 H 430.719 -1.87833 -0.286154 0
M  V30 4587 H 428.869 -2.95588 -2.52111 0
M  V30 4588 H 430.541 -4.58751 -0.484314 0
M  V30 4589 H 428.784 -4.32076 -0.386362 0
M  V30 4590 H 429.455 -5.23946 -1.73737 0
M  V30 4591 H 431.931 -3.41963 -2.37067 0
M  V30 4592 H 430.807 -4.2432 -3.48201 0
M  V30 4593 H 431.068 -2.51309 -3.63725 0
M  V30 4594 N 430.127 0.543554 -1.4793 0
M  V30 4595 C 431.075 1.67039 -1.61866 0
M  V30 4596 C 432.069 1.62294 -0.48549 0
M  V30 4597 O 433.275 1.67315 -0.66376 0
M  V30 4598 H 429.65 0.552954 -0.509652 0
M  V30 4599 H 431.621 1.52426 -2.56533 0
M  V30 4600 C 430.37 3.05357 -1.6629 0
M  V30 4601 H 429.693 3.09696 -2.5284 0
M  V30 4602 H 431.133 3.83855 -1.80088 0
M  V30 4603 C 429.592 3.34531 -0.398861 0
M  V30 4604 O 430.122 3.98649 0.494162 0
M  V30 4605 N 428.328 2.89299 -0.2747 0
M  V30 4606 H 427.875 2.37298 -1.00236 0
M  V30 4607 H 427.833 3.09188 0.570075 0
M  V30 4608 N 431.605 1.3629 0.791371 0
M  V30 4609 C 432.83 1.33726 1.58531 0
M  V30 4610 C 433.255 -0.0794933 1.87932 0
M  V30 4611 O 432.613 -1.05087 1.47738 0
M  V30 4612 C 432.661 2.16425 2.88431 0
M  V30 4613 O 431.765 1.5554 3.81944 0
M  V30 4614 H 431.106 0.457793 0.480959 0
M  V30 4615 H 433.636 1.79547 0.981031 0
M  V30 4616 H 433.646 2.28933 3.37718 0
M  V30 4617 H 432.321 3.19415 2.66359 0
M  V30 4618 H 430.898 1.51961 3.40532 0
M  V30 4619 N 433.083 -1.0153 1.20538 0
M  V30 4620 C 434.494 -1.56598 1.01657 0
M  V30 4621 C 434.845 -1.91505 -0.426668 0
M  V30 4622 O 433.97 -1.72375 -1.30827 0
M  V30 4623 C 434.565 -2.84542 1.83905 0
M  V30 4624 C 433.124 -3.36133 1.69386 0
M  V30 4625 C 432.271 -2.09427 1.81757 0
M  V30 4626 H 435.222 -0.838974 1.34711 0
M  V30 4627 H 435.243 -3.56004 1.34319 0
M  V30 4628 H 434.755 -2.59105 2.8894 0
M  V30 4629 H 432.856 -3.66528 0.669933 0
M  V30 4630 H 432.969 -4.08248 2.50739 0
M  V30 4631 H 431.333 -2.21941 1.24957 0
M  V30 4632 H 432.116 -1.86414 2.88279 0
M  V30 4633 N 434.561 -1.01147 -1.20859 0
M  V30 4634 C 435.789 -0.716911 -1.94082 0
M  V30 4635 C 436.204 0.721568 -1.74467 0
M  V30 4636 O 435.561 1.48889 -1.05539 0
M  V30 4637 C 435.612 -1.03662 -3.46318 0
M  V30 4638 O 435.333 -2.4186 -3.65288 0
M  V30 4639 C 436.834 -0.762386 -4.36695 0
M  V30 4640 H 434.054 -0.26367 -0.617024 0
M  V30 4641 H 436.598 -1.35127 -1.53496 0
M  V30 4642 H 434.753 -0.447757 -3.84804 0
M  V30 4643 H 435.167 -2.53224 -4.59323 0
M  V30 4644 H 436.641 -1.03621 -5.42187 0
M  V30 4645 H 437.118 0.303514 -4.3815 0
M  V30 4646 H 437.724 -1.33316 -4.03865 0
M  V30 4647 N 436.039 1.36541 -0.78704 0
M  V30 4648 C 436.987 2.31965 -0.171724 0
M  V30 4649 C 437.981 1.55689 0.667631 0
M  V30 4650 O 439.187 1.70969 0.562981 0
M  V30 4651 H 435.562 0.751101 -0.0367545 0
M  V30 4652 H 437.533 2.81428 -0.992017 0
M  V30 4653 C 436.282 3.40968 0.680904 0
M  V30 4654 H 435.605 3.99775 0.0443961 0
M  V30 4655 H 437.045 4.10063 1.07815 0
M  V30 4656 C 435.504 2.82338 1.83813 0
M  V30 4657 O 436.034 2.74311 2.93456 0
M  V30 4658 N 434.24 2.39661 1.6435 0
M  V30 4659 H 433.787 2.46389 0.751668 0
M  V30 4660 H 433.745 2.00779 2.4194 0
M  V30 4661 N 437.518 0.538854 1.48102 0
M  V30 4662 C 438.748 0.0122958 2.06596 0
M  V30 4663 C 439.156 -1.27861 1.39457 0
M  V30 4664 O 438.499 -1.77348 0.478907 0
M  V30 4665 C 438.561 -0.273131 3.58461 0
M  V30 4666 C 438.225 0.92561 4.47528 0
M  V30 4667 C 439.222 1.82637 4.86765 0
M  V30 4668 C 436.907 1.13511 4.89306 0
M  V30 4669 C 438.901 2.92047 5.66558 0
M  V30 4670 C 436.588 2.23233 5.68868 0
M  V30 4671 C 437.586 3.12333 6.07402 0
M  V30 4672 O 437.274 4.20155 6.85365 0
M  V30 4673 H 437.006 0.0344283 0.675123 0
M  V30 4674 H 439.56 0.746494 1.91355 0
M  V30 4675 H 437.79 -1.06141 3.71848 0
M  V30 4676 H 439.479 -0.742842 3.99045 0
M  V30 4677 H 440.245 1.67649 4.55103 0
M  V30 4678 H 436.124 0.450835 4.5879 0
M  V30 4679 H 439.668 3.6162 5.96554 0
M  V30 4680 H 435.565 2.38201 5.99942 0
M  V30 4681 H 436.333 4.17975 7.03732 0
M  V30 4682 N 438.996 -1.55193 0.274407 0
M  V30 4683 C 440.221 -2.04446 -0.348824 0
M  V30 4684 C 440.646 -1.15149 -1.48735 0
M  V30 4685 O 440.004 -0.149952 -1.80679 0
M  V30 4686 C 440.052 -3.51431 -0.808009 0
M  V30 4687 O 439.156 -3.65225 -1.91531 0
M  V30 4688 H 438.497 -0.66006 -0.0722276 0
M  V30 4689 H 441.027 -2.00481 0.408498 0
M  V30 4690 H 441.037 -3.92781 -1.10395 0
M  V30 4691 H 439.712 -4.15892 0.0249865 0
M  V30 4692 H 438.289 -3.35778 -1.62196 0
M  V30 4693 N 440.474 -0.00167713 -1.576 0
M  V30 4694 C 441.424 0.997744 -2.0501 0
M  V30 4695 C 442.408 1.30214 -0.94515 0
M  V30 4696 O 443.6 1.29284 -1.20891 0
M  V30 4697 C 440.729 2.2892 -2.55833 0
M  V30 4698 C 439.815 2.01437 -3.73208 0
M  V30 4699 N 440.206 1.44119 -4.84833 0
M  V30 4700 C 438.504 2.31571 -3.8117 0
M  V30 4701 C 439.205 1.33145 -5.66257 0
M  V30 4702 N 438.181 1.81763 -5.12312 0
M  V30 4703 H 441.983 0.549098 -2.88725 0
M  V30 4704 H 439.497 0.20398 -1.61114 0
M  V30 4705 H 441.494 3.01361 -2.88075 0
M  V30 4706 H 440.154 2.74436 -1.73537 0
M  V30 4707 H 441.165 1.11978 -5.0565 0
M  V30 4708 H 437.842 2.7995 -3.09732 0
M  V30 4709 H 439.232 0.890567 -6.65972 0
M  V30 4710 N 441.952 1.55251 0.271103 0
M  V30 4711 C 443.363 1.66635 0.842007 0
M  V30 4712 C 443.714 0.594631 1.86972 0
M  V30 4713 O 442.839 -0.263532 2.14789 0
M  V30 4714 C 443.434 3.02082 1.53401 0
M  V30 4715 C 441.993 3.15487 2.05293 0
M  V30 4716 C 441.14 2.62438 0.895631 0
M  V30 4717 H 444.091 1.58629 0.0474117 0
M  V30 4718 H 444.112 2.95176 2.40107 0
M  V30 4719 H 443.624 3.80062 0.785786 0
M  V30 4720 H 441.725 2.42284 2.83071 0
M  V30 4721 H 441.838 4.22075 2.26693 0
M  V30 4722 H 440.202 2.19644 1.28953 0
M  V30 4723 H 440.985 3.42923 0.160878 0
M  V30 4724 N 443.43 -0.535701 1.48216 0
M  V30 4725 C 444.677 -1.29183 1.55942 0
M  V30 4726 C 445.005 -1.93125 0.230857 0
M  V30 4727 O 444.26 -1.79556 -0.778331 0
M  V30 4728 C 444.559 -2.4068 2.64212 0
M  V30 4729 C 444.225 -1.94428 4.06827 0
M  V30 4730 C 442.887 -1.81532 4.45645 0
M  V30 4731 C 445.239 -1.59405 4.96225 0
M  V30 4732 C 442.567 -1.31939 5.71672 0
M  V30 4733 C 444.919 -1.11276 6.22736 0
M  V30 4734 C 443.583 -0.969924 6.60416 0
M  V30 4735 H 442.853 -0.472715 0.570632 0
M  V30 4736 H 445.5 -0.598437 1.81909 0
M  V30 4737 H 443.805 -3.15666 2.32083 0
M  V30 4738 H 445.502 -2.98822 2.67407 0
M  V30 4739 H 442.092 -2.05415 3.76168 0
M  V30 4740 H 446.276 -1.68231 4.66917 0
M  V30 4741 H 441.532 -1.19562 5.99596 0
M  V30 4742 H 445.706 -0.832453 6.91407 0
M  V30 4743 H 443.333 -0.583436 7.57958 0
M  V30 4744 N 444.908 -1.36708 -0.784132 0
M  V30 4745 C 446.185 -1.21776 -1.53069 0
M  V30 4746 C 446.565 0.193876 -2.10208 0
M  V30 4747 O 445.913 1.20012 -1.94446 0
M  V30 4748 C 446.123 -2.30395 -2.62143 0
M  V30 4749 C 447.471 -2.67325 -3.29882 0
M  V30 4750 O 448.495 -2.29478 -2.7243 0
M  V30 4751 O 447.354 -3.32485 -4.33724 0
M  V30 4752 H 444.448 -0.474459 -0.677361 0
M  V30 4753 H 446.994 -1.48454 -0.82216 0
M  V30 4754 H 445.766 -3.2498 -2.17953 0
M  V30 4755 H 445.389 -2.05112 -3.40609 0
M  V30 4756 N 446.386 1.0089 -1.21074 0
M  V30 4757 C 447.635 1.74019 -1.01981 0
M  V30 4758 C 447.948 1.90408 0.447665 0
M  V30 4759 O 449.154 2.60707 0.757906 0
M  V30 4760 C 447.61 3.13026 -1.77603 0
M  V30 4761 C 447.218 3.04623 -3.28495 0
M  V30 4762 C 448.962 3.90312 -1.66904 0
M  V30 4763 C 446.869 4.38685 -3.96623 0
M  V30 4764 H 445.799 0.652422 -0.377971 0
M  V30 4765 H 448.45 1.12755 -1.44771 0
M  V30 4766 H 446.832 3.74878 -1.27604 0
M  V30 4767 H 448.006 2.52032 -3.85767 0
M  V30 4768 H 446.321 2.40827 -3.39693 0
M  V30 4769 H 448.918 4.8951 -2.15138 0
M  V30 4770 H 449.261 4.11558 -0.62658 0
M  V30 4771 H 449.794 3.35104 -2.14359 0
M  V30 4772 H 446.533 4.22641 -5.01054 0
M  V30 4773 H 446.053 4.91252 -3.4414 0
M  V30 4774 H 447.732 5.075 -4.01314 0
M  V30 4775 N 447.864 1.01787 1.20321 0
M  V30 4776 C 449.28 0.732951 1.41774 0
M  V30 4777 C 449.48 -0.686883 1.89431 0
M  V30 4778 O 448.536 -1.45446 2.06402 0
M  V30 4779 C 449.849 1.75973 2.43832 0
M  V30 4780 C 451.397 1.77802 2.57596 0
M  V30 4781 C 451.872 2.7941 3.62897 0
M  V30 4782 N 453.363 2.78157 3.70382 0
M  V30 4783 C 454.098 3.53434 4.51521 0
M  V30 4784 N 453.594 4.38392 5.36455 0
M  V30 4785 N 455.387 3.42026 4.46066 0
M  V30 4786 H 447.538 1.93447 0.877035 0
M  V30 4787 H 449.801 0.835712 0.447536 0
M  V30 4788 H 449.507 2.77699 2.15815 0
M  V30 4789 H 449.381 1.57292 3.4284 0
M  V30 4790 H 451.768 0.767602 2.84942 0
M  V30 4791 H 451.849 2.00557 1.58779 0
M  V30 4792 H 451.493 3.80616 3.36295 0
M  V30 4793 H 451.423 2.53916 4.61339 0
M  V30 4794 H 453.914 2.16531 3.09714 0
M  V30 4795 H 454.227 4.92596 5.95457 0
M  V30 4796 H 452.572 4.4247 5.35953 0
M  V30 4797 H 455.763 2.75075 3.78749 0
M  V30 4798 H 455.936 4.00946 5.09064 0
M  V30 4799 N 449.342 -1.36122 0.79427 0
M  V30 4800 C 450.289 -2.29982 0.194101 0
M  V30 4801 C 451.259 -1.52214 -0.664833 0
M  V30 4802 O 452.444 -1.80702 -0.612498 0
M  V30 4803 C 449.584 -3.38706 -0.661244 0
M  V30 4804 C 448.697 -4.31456 0.216766 0
M  V30 4805 C 447.832 -5.27265 -0.645411 0
M  V30 4806 C 446.871 -6.11653 0.233756 0
M  V30 4807 N 446.008 -6.99636 -0.587682 0
M  V30 4808 H 450.848 -2.80722 0.999965 0
M  V30 4809 H 448.385 -1.38172 0.504677 0
M  V30 4810 H 450.343 -4.00394 -1.17219 0
M  V30 4811 H 448.973 -2.89274 -1.43249 0
M  V30 4812 H 448.025 -3.7088 0.845724 0
M  V30 4813 H 449.337 -4.90724 0.893973 0
M  V30 4814 H 448.491 -5.94266 -1.22198 0
M  V30 4815 H 447.23 -4.68463 -1.35623 0
M  V30 4816 H 446.235 -5.4361 0.82269 0
M  V30 4817 H 447.46 -6.72531 0.942247 0
M  V30 4818 H 445.406 -6.43337 -1.2827 0
M  V30 4819 H 445.323 -7.55993 0.0317402 0
M  V30 4820 H 446.591 -7.71001 -1.14792 0
M  V30 4821 N 450.82 -0.546701 -1.47814 0
M  V30 4822 C 452.097 0.0464413 -1.95545 0
M  V30 4823 C 452.477 1.4962 -1.48919 0
M  V30 4824 O 451.825 2.16752 -0.723232 0
M  V30 4825 C 452.035 -0.0881298 -3.48889 0
M  V30 4826 C 453.383 0.0626059 -4.24554 0
M  V30 4827 O 454.407 -0.0151555 -3.56197 0
M  V30 4828 O 453.266 0.228071 -5.46024 0
M  V30 4829 H 450.36 0.0700004 -0.824032 0
M  V30 4830 H 452.906 -0.612482 -1.58262 0
M  V30 4831 H 451.678 -1.09737 -3.75597 0
M  V30 4832 H 451.301 0.608886 -3.9291 0
M  V30 4833 N 452.299 1.55045 -0.282633 0
M  V30 4834 C 453.548 1.98938 0.332667 0
M  V30 4835 C 453.861 1.17455 1.56409 0
M  V30 4836 O 455.067 1.51527 2.25282 0
M  V30 4837 C 453.523 3.54105 0.643226 0
M  V30 4838 C 453.131 4.44374 -0.568814 0
M  V30 4839 C 454.875 4.06569 1.22074 0
M  V30 4840 C 452.782 5.90943 -0.232426 0
M  V30 4841 H 451.712 0.743043 0.128075 0
M  V30 4842 H 454.363 1.79341 -0.388464 0
M  V30 4843 H 452.745 3.69532 1.42346 0
M  V30 4844 H 453.919 4.40718 -1.34551 0
M  V30 4845 H 452.234 4.02585 -1.06369 0
M  V30 4846 H 454.831 5.13626 1.48635 0
M  V30 4847 H 455.174 3.56057 2.15707 0
M  V30 4848 H 455.707 3.94612 0.502621 0
M  V30 4849 H 452.446 6.45567 -1.13683 0
M  V30 4850 H 451.966 5.9765 0.507357 0
M  V30 4851 H 453.645 6.4677 0.172657 0
M  V30 4852 N 453.777 0.010035 1.57597 0
M  V30 4853 C 455.007 -0.682422 1.95004 0
M  V30 4854 C 455.415 -1.67278 0.884014 0
M  V30 4855 O 454.758 -1.83129 -0.144672 0
M  V30 4856 C 454.82 -1.46141 3.28456 0
M  V30 4857 C 454.484 -0.631523 4.52615 0
M  V30 4858 C 455.481 0.0850905 5.1983 0
M  V30 4859 C 453.166 -0.574539 4.99003 0
M  V30 4860 C 455.16 0.847566 6.3174 0
M  V30 4861 C 452.847 0.191655 6.10799 0
M  V30 4862 C 453.845 0.901432 6.77025 0
M  V30 4863 O 453.533 1.65511 7.86677 0
M  V30 4864 H 453.265 -0.194361 0.647456 0
M  V30 4865 H 455.819 0.060312 2.05311 0
M  V30 4866 H 454.049 -2.24885 3.14585 0
M  V30 4867 H 455.738 -2.04016 3.50902 0
M  V30 4868 H 456.504 0.0502812 4.84974 0
M  V30 4869 H 452.383 -1.11654 4.47274 0
M  V30 4870 H 455.927 1.4021 6.83364 0
M  V30 4871 H 451.824 0.228249 6.45096 0
M  V30 4872 H 452.592 1.57287 8.03245 0
M  V30 4873 N 455.255 -1.55392 -0.262866 0
M  V30 4874 C 456.483 -1.80513 -1.01108 0
M  V30 4875 C 456.898 -0.583533 -1.79556 0
M  V30 4876 O 456.255 0.447585 -1.76926 0
M  V30 4877 C 456.306 -3.03648 -1.96164 0
M  V30 4878 O 456.027 -4.2109 -1.20893 0
M  V30 4879 C 457.528 -3.41448 -2.82715 0
M  V30 4880 H 454.748 -0.601079 -0.298236 0
M  V30 4881 H 457.292 -2.02425 -0.290582 0
M  V30 4882 H 455.447 -2.83832 -2.63663 0
M  V30 4883 H 455.861 -4.90771 -1.85051 0
M  V30 4884 H 457.335 -4.30751 -3.45192 0
M  V30 4885 H 457.812 -2.61308 -3.53008 0
M  V30 4886 H 458.418 -3.63559 -2.20693 0
M  V30 4887 N 456.733 0.527833 -1.48498 0
M  V30 4888 C 457.665 1.6482 -1.5927 0
M  V30 4889 C 458.678 1.55659 -0.476869 0
M  V30 4890 O 459.867 1.62081 -0.747806 0
M  V30 4891 C 456.967 3.0348 -1.50842 0
M  V30 4892 C 456.14 3.381 -2.77502 0
M  V30 4893 C 455.199 4.5605 -2.62497 0
M  V30 4894 O 454.225 4.59165 -3.36387 0
M  V30 4895 N 455.427 5.54353 -1.72257 0
M  V30 4896 H 458.192 1.56015 -2.55889 0
M  V30 4897 H 455.753 0.715152 -1.45249 0
M  V30 4898 H 457.745 3.80264 -1.38496 0
M  V30 4899 H 456.315 3.06352 -0.621887 0
M  V30 4900 H 455.535 2.50473 -3.04396 0
M  V30 4901 H 456.823 3.58017 -3.61527 0
M  V30 4902 H 456.221 5.54617 -1.11431 0
M  V30 4903 H 454.778 6.30347 -1.65849 0
M  V30 4904 N 458.211 1.37122 0.776871 0
M  V30 4905 C 459.144 1.26835 1.89705 0
M  V30 4906 C 460.122 0.14992 1.61907 0
M  V30 4907 O 461.306 0.323242 1.85708 0
M  V30 4908 C 458.433 0.95986 3.24814 0
M  V30 4909 C 457.479 2.09447 3.7153 0
M  V30 4910 S 458.312 3.71368 3.85806 0
M  V30 4911 C 459.468 3.42659 5.23771 0
M  V30 4912 H 459.701 2.21647 1.98141 0
M  V30 4913 H 457.234 1.22685 0.937433 0
M  V30 4914 H 459.192 0.788696 4.02852 0
M  V30 4915 H 457.853 0.0293137 3.14086 0
M  V30 4916 H 457.046 1.8335 4.69467 0
M  V30 4917 H 456.648 2.2255 3.00578 0
M  V30 4918 H 458.94 2.9733 6.0877 0
M  V30 4919 H 459.883 4.39905 5.54878 0
M  V30 4920 H 460.291 2.77708 4.91466 0
M  V30 4921 N 459.689 -1.00246 1.21608 0
M  V30 4922 C 460.636 -2.09073 0.977613 0
M  V30 4923 C 461.606 -1.65815 -0.097297 0
M  V30 4924 O 462.791 -1.90734 0.0503445 0
M  V30 4925 C 459.931 -3.40671 0.551133 0
M  V30 4926 C 459.044 -3.97326 1.69576 0
M  V30 4927 C 458.179 -5.17043 1.2182 0
M  V30 4928 C 457.218 -5.65813 2.335 0
M  V30 4929 N 456.355 -6.76778 1.86859 0
M  V30 4930 H 461.195 -2.28806 1.90924 0
M  V30 4931 H 458.732 -1.12186 0.951452 0
M  V30 4932 H 460.69 -4.16225 0.285097 0
M  V30 4933 H 459.32 -3.20967 -0.343489 0
M  V30 4934 H 458.372 -3.18734 2.07637 0
M  V30 4935 H 459.684 -4.29511 2.53617 0
M  V30 4936 H 458.838 -5.99852 0.908975 0
M  V30 4937 H 457.577 -4.86458 0.347869 0
M  V30 4938 H 456.582 -4.81599 2.65222 0
M  V30 4939 H 457.807 -5.98427 3.21033 0
M  V30 4940 H 455.753 -6.47994 1.02174 0
M  V30 4941 H 455.67 -7.08231 2.64471 0
M  V30 4942 H 456.938 -7.63116 1.58978 0
M  V30 4943 N 461.167 -1.02423 -1.1978 0
M  V30 4944 C 462.397 -0.736387 -1.93031 0
M  V30 4945 C 462.805 0.708023 -1.75453 0
M  V30 4946 O 462.148 1.4927 -1.07071 0
M  V30 4947 C 462.21 -1.00194 -3.45255 0
M  V30 4948 C 461.874 -2.43698 -3.86601 0
M  V30 4949 C 462.871 -3.41814 -3.91738 0
M  V30 4950 C 460.556 -2.77975 -4.18372 0
M  V30 4951 C 462.55 -4.72265 -4.28071 0
M  V30 4952 C 460.237 -4.08636 -4.54378 0
M  V30 4953 C 461.235 -5.05592 -4.59201 0
M  V30 4954 O 460.923 -6.33914 -4.94376 0
M  V30 4955 H 460.655 -0.269116 -0.620123 0
M  V30 4956 H 463.209 -1.37043 -1.52998 0
M  V30 4957 H 461.439 -0.310747 -3.85449 0
M  V30 4958 H 463.128 -0.704488 -3.9974 0
M  V30 4959 H 463.894 -3.16671 -3.67348 0
M  V30 4960 H 459.773 -2.0319 -4.13805 0
M  V30 4961 H 463.317 -5.4794 -4.3175 0
M  V30 4962 H 459.214 -4.33556 -4.78226 0
M  V30 4963 H 459.982 -6.38317 -5.12341 0
M  V30 4964 N 462.645 1.35699 -0.801477 0
M  V30 4965 C 463.922 1.9324 -0.302937 0
M  V30 4966 C 464.302 1.73209 1.20672 0
M  V30 4967 O 463.65 1.09809 2.00385 0
M  V30 4968 C 463.86 3.41728 -0.708747 0
M  V30 4969 C 465.208 4.18868 -0.695328 0
M  V30 4970 O 466.232 3.5022 -0.649971 0
M  V30 4971 O 465.091 5.41342 -0.749081 0
M  V30 4972 H 462.185 0.82331 -0.0780367 0
M  V30 4973 H 464.731 1.44806 -0.884832 0
M  V30 4974 H 463.503 3.50015 -1.74944 0
M  V30 4975 H 463.126 3.97471 -0.101384 0
M  V30 4976 N 464.123 0.554532 1.47522 0
M  V30 4977 C 465.086 -0.184174 2.28459 0
M  V30 4978 C 466.086 -0.845195 1.36796 0
M  V30 4979 O 467.276 -0.701467 1.59452 0
M  V30 4980 C 464.408 -1.26903 3.16399 0
M  V30 4981 H 465.601 0.526751 2.95238 0
M  V30 4982 H 463.154 0.311375 1.53167 0
M  V30 4983 H 463.889 -2.01244 2.54306 0
M  V30 4984 H 463.674 -0.799883 3.83854 0
M  V30 4985 H 465.164 -1.78794 3.77389 0
M  V30 4986 N 465.601 -1.54893 0.290851 0
M  V30 4987 C 466.531 -2.26103 -0.583084 0
M  V30 4988 C 467.512 -1.25684 -1.14619 0
M  V30 4989 O 468.697 -1.54436 -1.17741 0
M  V30 4990 C 465.827 -2.99409 -1.75987 0
M  V30 4991 C 464.781 -4.0689 -1.32758 0
M  V30 4992 C 464.107 -4.67856 -2.58872 0
M  V30 4993 C 465.407 -5.20215 -0.46624 0
M  V30 4994 H 467.101 -2.99398 0.0108214 0
M  V30 4995 H 464.647 -1.43998 0.00664468 0
M  V30 4996 H 466.6 -3.47943 -2.37727 0
M  V30 4997 H 465.324 -2.23675 -2.37985 0
M  V30 4998 H 463.983 -3.59191 -0.733299 0
M  V30 4999 H 463.631 -3.88772 -3.19163 0
M  V30 5000 H 463.331 -5.40438 -2.30653 0
M  V30 5001 H 464.855 -5.19147 -3.21433 0
M  V30 5002 H 466.269 -5.64704 -0.989047 0
M  V30 5003 H 464.666 -5.99455 -0.27826 0
M  V30 5004 H 465.736 -4.82198 0.511173 0
M  V30 5005 N 467.08 -0.0183926 -1.57589 0
M  V30 5006 C 468.043 0.951986 -2.08494 0
M  V30 5007 C 469.043 1.26092 -0.997874 0
M  V30 5008 O 470.233 1.20304 -1.25987 0
M  V30 5009 C 467.365 2.27165 -2.54182 0
M  V30 5010 H 468.558 0.511307 -2.95509 0
M  V30 5011 H 466.111 0.229444 -1.54607 0
M  V30 5012 H 466.846 2.75884 -1.70465 0
M  V30 5013 H 466.631 2.06057 -3.33591 0
M  V30 5014 H 468.121 2.9674 -2.93828 0
M  V30 5015 N 468.558 1.5553 0.254621 0
M  V30 5016 C 469.805 1.77 0.983736 0
M  V30 5017 C 470.133 0.58133 1.85609 0
M  V30 5018 O 469.388 -0.435621 1.9079 0
M  V30 5019 C 469.687 3.03891 1.88109 0
M  V30 5020 C 469.353 4.35597 1.16472 0
M  V30 5021 C 468.015 4.7139 0.966714 0
M  V30 5022 C 470.367 5.1705 0.656387 0
M  V30 5023 C 467.695 5.86176 0.247942 0
M  V30 5024 C 470.047 6.32581 -0.0488807 0
M  V30 5025 C 468.711 6.67 -0.258438 0
M  V30 5026 H 467.981 0.647688 0.359974 0
M  V30 5027 H 470.628 1.89802 0.254463 0
M  V30 5028 H 468.933 2.86068 2.67717 0
M  V30 5029 H 470.63 3.17701 2.44677 0
M  V30 5030 H 467.22 4.07475 1.32899 0
M  V30 5031 H 471.404 4.8986 0.796933 0
M  V30 5032 H 466.66 6.11354 0.075035 0
M  V30 5033 H 470.834 6.94942 -0.450444 0
M  V30 5034 H 468.461 7.55793 -0.817358 0
M  V30 5035 N 470.036 -0.519951 1.48776 0
M  V30 5036 C 471.283 -1.27522 1.57303 0
M  V30 5037 C 471.611 -1.92869 0.251328 0
M  V30 5038 O 470.866 -1.80372 -0.759243 0
M  V30 5039 C 471.165 -2.37864 2.6675 0
M  V30 5040 C 470.831 -1.90103 4.08867 0
M  V30 5041 C 469.493 -1.76795 4.47546 0
M  V30 5042 C 471.845 -1.54133 4.97888 0
M  V30 5043 C 469.173 -1.25868 5.73039 0
M  V30 5044 C 471.525 -1.04665 6.23881 0
M  V30 5045 C 470.189 -0.899823 6.61407 0
M  V30 5046 H 469.459 -0.466636 0.575614 0
M  V30 5047 H 472.106 -0.579109 1.82534 0
M  V30 5048 H 470.411 -3.13186 2.35418 0
M  V30 5049 H 472.108 -2.95969 2.70561 0
M  V30 5050 H 468.698 -2.01414 3.78326 0
M  V30 5051 H 472.882 -1.6327 4.68675 0
M  V30 5052 H 468.138 -1.13196 6.0083 0
M  V30 5053 H 472.312 -0.759074 6.92251 0
M  V30 5054 H 469.939 -0.503011 7.58534 0
M  V30 5055 N 471.514 -1.37532 -0.769588 0
M  V30 5056 C 472.744 -1.35861 -1.55645 0
M  V30 5057 C 473.152 0.0574398 -1.89113 0
M  V30 5058 O 472.495 1.03021 -1.52093 0
M  V30 5059 C 472.557 -2.13431 -2.89288 0
M  V30 5060 C 472.221 -3.62378 -2.78444 0
M  V30 5061 C 473.218 -4.56215 -2.49326 0
M  V30 5062 C 470.903 -4.05529 -2.96398 0
M  V30 5063 C 472.897 -5.91181 -2.38294 0
M  V30 5064 C 470.584 -5.40579 -2.84987 0
M  V30 5065 C 471.582 -6.33218 -2.55975 0
M  V30 5066 O 471.27 -7.65787 -2.44594 0
M  V30 5067 H 471.002 -0.467001 -0.48876 0
M  V30 5068 H 473.556 -1.81505 -0.961515 0
M  V30 5069 H 471.786 -1.62481 -3.50909 0
M  V30 5070 H 473.475 -2.04368 -3.50697 0
M  V30 5071 H 474.241 -4.24187 -2.35139 0
M  V30 5072 H 470.12 -3.33781 -3.1798 0
M  V30 5073 H 473.664 -6.63457 -2.15571 0
M  V30 5074 H 469.561 -5.72209 -2.98743 0
M  V30 5075 H 470.329 -7.76132 -2.59927 0
M  V30 5076 N 472.992 0.995999 -1.22138 0
M  V30 5077 C 473.942 2.06988 -0.956042 0
M  V30 5078 C 474.926 1.60636 0.0921576 0
M  V30 5079 O 476.118 1.76607 -0.117958 0
M  V30 5080 C 473.247 3.39148 -0.532335 0
M  V30 5081 C 472.333 3.92142 -1.61509 0
M  V30 5082 N 472.724 4.18397 -2.84214 0
M  V30 5083 C 471.022 4.20514 -1.48606 0
M  V30 5084 C 471.723 4.61425 -3.54206 0
M  V30 5085 N 470.699 4.64934 -2.81669 0
M  V30 5086 H 474.501 2.25223 -1.88816 0
M  V30 5087 H 472.015 1.17748 -1.11845 0
M  V30 5088 H 474.012 4.15642 -0.323574 0
M  V30 5089 H 472.672 3.22314 0.392921 0
M  V30 5090 H 473.683 4.06682 -3.20671 0
M  V30 5091 H 470.36 4.12769 -0.626762 0
M  V30 5092 H 471.75 4.90387 -4.59315 0
M  V30 5093 N 474.47 1.03057 1.19235 0
M  V30 5094 C 475.417 0.612832 2.22515 0
M  V30 5095 C 476.387 -0.374224 1.61829 0
M  V30 5096 O 477.572 -0.270501 1.88873 0
M  V30 5097 C 474.712 -0.028475 3.45088 0
M  V30 5098 C 473.825 1.00483 4.20151 0
M  V30 5099 C 472.96 0.333102 5.30155 0
M  V30 5100 C 471.999 1.3522 5.96977 0
M  V30 5101 N 471.136 0.70616 6.9854 0
M  V30 5102 H 475.976 1.49812 2.57605 0
M  V30 5103 H 473.513 0.749658 1.26564 0
M  V30 5104 H 475.471 -0.417548 4.15105 0
M  V30 5105 H 474.101 -0.877334 3.10649 0
M  V30 5106 H 473.153 1.51194 3.49062 0
M  V30 5107 H 474.465 1.77929 4.65986 0
M  V30 5108 H 473.619 -0.110725 6.06599 0
M  V30 5109 H 472.358 -0.473547 4.85396 0
M  V30 5110 H 471.363 1.80627 5.19282 0
M  V30 5111 H 472.588 2.16037 6.4382 0
M  V30 5112 H 470.534 -0.0803667 6.55951 0
M  V30 5113 H 470.451 1.41848 7.42573 0
M  V30 5114 H 471.719 0.286391 7.78974 0
M  V30 5115 N 475.948 -1.35272 0.808662 0
M  V30 5116 C 477.364 -1.51806 0.492653 0
M  V30 5117 C 477.564 -1.7574 -0.985778 0
M  V30 5118 O 476.62 -1.80003 -1.77074 0
M  V30 5119 C 477.933 -2.69202 1.33981 0
M  V30 5120 C 479.481 -2.8308 1.33547 0
M  V30 5121 C 479.956 -4.03502 2.16679 0
M  V30 5122 N 481.447 -4.10684 2.14227 0
M  V30 5123 C 482.182 -5.02984 2.75308 0
M  V30 5124 N 481.678 -6.00603 3.45323 0
M  V30 5125 N 483.471 -4.95746 2.64938 0
M  V30 5126 H 475.622 -1.17993 1.76611 0
M  V30 5127 H 477.885 -0.577476 0.751814 0
M  V30 5128 H 477.591 -2.581 2.38909 0
M  V30 5129 H 477.465 -3.63854 0.994491 0
M  V30 5130 H 479.852 -2.93631 0.294036 0
M  V30 5131 H 479.933 -1.89278 1.72068 0
M  V30 5132 H 479.577 -3.93711 3.20864 0
M  V30 5133 H 479.507 -4.96489 1.75517 0
M  V30 5134 H 481.998 -3.40802 1.63285 0
M  V30 5135 H 482.311 -6.67633 3.89212 0
M  V30 5136 H 480.656 -6.0077 3.49428 0
M  V30 5137 H 483.847 -4.18439 2.09825 0
M  V30 5138 H 484.02 -5.67487 3.12829 0
M  V30 5139 N 477.426 -0.562348 -1.47226 0
M  V30 5140 C 478.651 -0.0432632 -2.07355 0
M  V30 5141 C 479.076 1.24332 -1.41149 0
M  V30 5142 O 478.434 1.74603 -0.488226 0
M  V30 5143 C 478.482 0.130288 -3.60365 0
M  V30 5144 O 477.586 1.19166 -3.94808 0
M  V30 5145 H 476.927 -0.0536334 -0.66183 0
M  V30 5146 H 479.457 -0.779495 -1.89169 0
M  V30 5147 H 479.467 0.342881 -4.06557 0
M  V30 5148 H 478.142 -0.809389 -4.07948 0
M  V30 5149 H 476.719 0.959153 -3.60354 0
M  V30 5150 N 478.904 1.54736 -0.299062 0
M  V30 5151 C 480.152 1.99706 0.31017 0
M  V30 5152 C 480.473 1.18896 1.54559 0
M  V30 5153 O 479.743 0.284445 1.93824 0
M  V30 5154 H 478.323 0.737686 0.117596 0
M  V30 5155 H 480.985 1.9054 -0.409943 0
M  V30 5156 H 480.081 3.06596 0.58355 0
M  V30 5157 N 480.382 0.0267497 1.57577 0
M  V30 5158 C 481.631 -0.651736 1.9088 0
M  V30 5159 C 481.944 -1.73427 0.904576 0
M  V30 5160 O 483.15 -2.46923 1.12877 0
M  V30 5161 C 481.606 -1.21048 3.38933 0
M  V30 5162 C 481.214 -0.161362 4.47709 0
M  V30 5163 C 482.958 -1.86562 3.81307 0
M  V30 5164 C 480.865 -0.731611 5.86857 0
M  V30 5165 H 479.795 -0.247198 0.712326 0
M  V30 5166 H 482.446 0.0916641 1.83271 0
M  V30 5167 H 480.828 -2.00542 3.41466 0
M  V30 5168 H 482.002 0.61094 4.56732 0
M  V30 5169 H 480.317 0.394877 4.14523 0
M  V30 5170 H 482.914 -2.30178 4.8262 0
M  V30 5171 H 483.257 -2.70735 3.16241 0
M  V30 5172 H 483.79 -1.13762 3.81186 0
M  V30 5173 H 480.529 0.0719329 6.55461 0
M  V30 5174 H 480.049 -1.47245 5.81445 0
M  V30 5175 H 481.728 -1.22208 6.35354 0
M  V30 5176 N 481.861 -1.55662 -0.24637 0
M  V30 5177 C 483.272 -1.67953 -0.81539 0
M  V30 5178 C 483.623 -0.624302 -1.86002 0
M  V30 5179 O 482.748 0.229328 -2.15181 0
M  V30 5180 C 483.343 -3.04484 -1.48576 0
M  V30 5181 C 481.902 -3.18713 -2.00248 0
M  V30 5182 C 481.049 -2.6383 -0.853766 0
M  V30 5183 H 484 -1.58685 -0.0221692 0
M  V30 5184 H 484.021 -2.98959 -2.3538 0
M  V30 5185 H 483.533 -3.81264 -0.725222 0
M  V30 5186 H 481.634 -2.46757 -2.79181 0
M  V30 5187 H 481.747 -4.25628 -2.1995 0
M  V30 5188 H 480.111 -2.21667 -1.25442 0
M  V30 5189 H 480.894 -3.43135 -0.106302 0
M  V30 5190 N 483.339 0.512053 -1.4905 0
M  V30 5191 C 484.588 1.26343 -1.57227 0
M  V30 5192 C 484.901 1.93876 -0.259155 0
M  V30 5193 O 486.107 2.70612 -0.219358 0
M  V30 5194 C 484.563 2.29343 -2.77362 0
M  V30 5195 C 484.171 1.67799 -4.15388 0
M  V30 5196 C 485.915 3.05378 -2.94864 0
M  V30 5197 C 483.822 2.68845 -5.2676 0
M  V30 5198 H 482.752 0.475231 -0.585382 0
M  V30 5199 H 485.403 0.53862 -1.75417 0
M  V30 5200 H 483.785 3.04938 -2.52643 0
M  V30 5201 H 484.959 0.982715 -4.50199 0
M  V30 5202 H 483.274 1.04194 -4.03153 0
M  V30 5203 H 485.871 3.80921 -3.75238 0
M  V30 5204 H 486.214 3.62327 -2.05 0
M  V30 5205 H 486.747 2.36898 -3.19569 0
M  V30 5206 H 483.486 2.16692 -6.18647 0
M  V30 5207 H 483.006 3.36647 -4.96416 0
M  V30 5208 H 484.685 3.31487 -5.5563 0
M  V30 5209 N 484.817 1.37938 0.762283 0
M  V30 5210 C 485.727 1.36681 1.90671 0
M  V30 5211 C 486.743 0.265078 1.71969 0
M  V30 5212 O 487.919 0.502055 1.95042 0
M  V30 5213 C 484.984 1.18211 3.25925 0
M  V30 5214 C 484.045 2.3811 3.57214 0
M  V30 5215 C 483.278 2.20512 4.86014 0
M  V30 5216 O 483.501 1.19429 5.57757 0
M  V30 5217 O 482.435 3.08911 5.16583 0
M  V30 5218 H 486.261 2.33091 1.94685 0
M  V30 5219 H 483.846 1.18767 0.906356 0
M  V30 5220 H 485.728 1.09937 4.06807 0
M  V30 5221 H 484.403 0.248807 3.22742 0
M  V30 5222 H 483.31 2.51958 2.76529 0
M  V30 5223 H 484.643 3.30041 3.65149 0
M  V30 5224 N 486.295 -0.989507 1.22664 0
M  V30 5225 C 487.228 -2.07805 0.942985 0
M  V30 5226 C 488.206 -1.6219 -0.115356 0
M  V30 5227 O 489.39 -1.88492 0.0169565 0
M  V30 5228 C 486.517 -3.361 0.418898 0
M  V30 5229 C 485.563 -4.00643 1.46244 0
M  V30 5230 S 486.396 -4.41059 3.03689 0
M  V30 5231 C 487.552 -5.7252 2.52927 0
M  V30 5232 H 487.785 -2.31547 1.86476 0
M  V30 5233 H 485.318 -1.12446 1.05808 0
M  V30 5234 H 487.276 -4.10315 0.123114 0
M  V30 5235 H 485.937 -3.10383 -0.481818 0
M  V30 5236 H 485.13 -4.93033 1.04569 0
M  V30 5237 H 484.732 -3.32767 1.7071 0
M  V30 5238 H 487.024 -6.49017 1.94379 0
M  V30 5239 H 487.967 -6.19026 3.4382 0
M  V30 5240 H 488.375 -5.30083 1.94094 0
M  V30 5241 N 487.773 -1.03688 -1.18687 0
M  V30 5242 C 489.184 -0.766488 -1.70241 0
M  V30 5243 C 489.535 0.713052 -1.82784 0
M  V30 5244 O 488.66 1.55529 -1.50465 0
M  V30 5245 C 489.255 -1.38475 -3.09209 0
M  V30 5246 C 487.814 -1.16276 -3.5799 0
M  V30 5247 C 486.961 -1.4778 -2.34641 0
M  V30 5248 H 489.912 -1.20378 -1.03415 0
M  V30 5249 H 489.933 -0.785939 -3.72295 0
M  V30 5250 H 489.445 -2.46157 -3.00048 0
M  V30 5251 H 487.546 -0.104508 -3.72453 0
M  V30 5252 H 487.659 -1.8571 -4.41643 0
M  V30 5253 H 486.023 -0.897366 -2.38368 0
M  V30 5254 H 486.806 -2.56562 -2.28102 0
M  V30 5255 N 489.251 1.34841 -0.815825 0
M  V30 5256 C 490.481 2.02436 -0.412695 0
M  V30 5257 C 490.889 1.61604 0.983906 0
M  V30 5258 O 490.232 0.813729 1.64694 0
M  V30 5259 C 490.294 3.56953 -0.427182 0
M  V30 5260 C 489.958 4.21083 -1.77589 0
M  V30 5261 C 490.955 4.42107 -2.73564 0
M  V30 5262 C 488.64 4.58006 -2.06243 0
M  V30 5263 C 490.634 4.99169 -3.9637 0
M  V30 5264 C 488.321 5.1478 -3.2931 0
M  V30 5265 C 489.319 5.35304 -4.24191 0
M  V30 5266 O 489.007 5.90878 -5.45086 0
M  V30 5267 H 488.739 0.655631 -0.164695 0
M  V30 5268 H 491.293 1.73246 -1.1034 0
M  V30 5269 H 489.523 3.85372 0.320175 0
M  V30 5270 H 491.212 4.05875 -0.0450875 0
M  V30 5271 H 491.978 4.13953 -2.52721 0
M  V30 5272 H 487.857 4.41339 -1.33196 0
M  V30 5273 H 491.401 5.15105 -4.70439 0
M  V30 5274 H 487.298 5.42362 -3.5002 0
M  V30 5275 H 488.066 6.0932 -5.46508 0
M  V30 5276 N 490.729 0.570148 1.46925 0
M  V30 5277 C 491.692 -0.159933 2.28641 0
M  V30 5278 C 492.692 -0.830638 1.37685 0
M  V30 5279 O 493.882 -0.684516 1.60187 0
M  V30 5280 C 491.014 -1.2354 3.17727 0
M  V30 5281 H 492.207 0.558035 2.94662 0
M  V30 5282 H 489.76 0.327603 1.52828 0
M  V30 5283 H 490.495 -1.98535 2.56426 0
M  V30 5284 H 490.28 -0.759125 3.84681 0
M  V30 5285 H 491.77 -1.74782 3.79264 0
M  V30 5286 N 492.207 -1.54576 0.307264 0
M  V30 5287 C 493.455 -1.99867 -0.299574 0
M  V30 5288 C 493.776 -1.19714 -1.53927 0
M  V30 5289 O 493.046 -0.29472 -1.9367 0
M  V30 5290 H 491.626 -0.738299 -0.113683 0
M  V30 5291 H 494.288 -1.9032 0.420042 0
M  V30 5292 H 493.384 -3.06901 -0.567283 0
M  V30 5293 N 493.685 -0.035106 -1.57561 0
M  V30 5294 C 494.933 0.64096 -1.91667 0
M  V30 5295 C 495.254 1.72323 -0.912681 0
M  V30 5296 O 494.524 1.95849 0.0449089 0
M  V30 5297 H 493.104 0.239743 -0.707483 0
M  V30 5298 H 495.766 -0.084321 -1.94718 0
M  V30 5299 H 494.862 1.08987 -2.92452 0
M  V30 5300 N 495.163 1.55791 0.238111 0
M  V30 5301 C 496.073 1.94196 1.31625 0
M  V30 5302 C 497.089 0.843545 1.52185 0
M  V30 5303 O 498.265 1.1457 1.65637 0
M  V30 5304 C 495.33 2.2365 2.64918 0
M  V30 5305 C 494.391 3.46971 2.52804 0
M  V30 5306 C 493.624 3.7501 3.79741 0
M  V30 5307 O 493.847 3.04982 4.82019 0
M  V30 5308 O 492.781 4.68525 3.77846 0
M  V30 5309 H 496.607 2.86044 1.02043 0
M  V30 5310 H 494.192 1.42786 0.439603 0
M  V30 5311 H 496.074 2.43863 3.4367 0
M  V30 5312 H 494.749 1.34979 2.94215 0
M  V30 5313 H 493.656 3.32055 1.72309 0
M  V30 5314 H 494.989 4.35971 2.28451 0
M  V30 5315 N 496.642 -0.504142 1.49319 0
M  V30 5316 C 497.574 -1.62265 1.61872 0
M  V30 5317 C 498.587 -1.54881 0.501573 0
M  V30 5318 O 499.776 -1.6087 0.773497 0
M  V30 5319 C 496.876 -3.01042 1.55651 0
M  V30 5320 C 496.049 -3.33642 2.82845 0
M  V30 5321 C 495.108 -4.51816 2.69719 0
M  V30 5322 O 494.134 -4.53755 3.4365 0
M  V30 5323 N 495.336 -5.51543 1.81055 0
M  V30 5324 H 498.101 -1.51924 2.58339 0
M  V30 5325 H 495.662 -0.691954 1.46368 0
M  V30 5326 H 497.654 -3.78013 1.44528 0
M  V30 5327 H 496.224 -3.05323 0.670546 0
M  V30 5328 H 495.444 -2.45598 3.08343 0
M  V30 5329 H 496.732 -3.5222 3.67177 0
M  V30 5330 H 496.13 -5.52774 1.20241 0
M  V30 5331 H 494.687 -6.27629 1.75856 0
M  V30 5332 N 498.12 -1.38341 -0.754957 0
M  V30 5333 C 499.366 -1.35678 -1.51536 0
M  V30 5334 C 499.721 0.0533985 -1.92326 0
M  V30 5335 O 499.014 1.01573 -1.6246 0
M  V30 5336 C 499.208 -2.2452 -2.78075 0
M  V30 5337 C 499.037 -3.74035 -2.49655 0
M  V30 5338 C 497.807 -4.43066 -2.42942 0
M  V30 5339 C 500.005 -4.665 -2.16523 0
M  V30 5340 N 497.987 -5.78026 -2.06783 0
M  V30 5341 C 499.358 -5.89962 -1.90644 0
M  V30 5342 C 501.413 -4.54718 -2.02821 0
M  V30 5343 C 500.116 -7.0296 -1.52444 0
M  V30 5344 C 502.142 -5.67618 -1.66023 0
M  V30 5345 C 501.504 -6.90141 -1.41015 0
M  V30 5346 H 497.603 -0.551764 -0.554148 0
M  V30 5347 H 500.187 -1.73716 -0.879258 0
M  V30 5348 H 498.358 -1.88673 -3.39496 0
M  V30 5349 H 500.09 -2.12993 -3.44116 0
M  V30 5350 H 496.845 -3.96264 -2.59367 0
M  V30 5351 H 497.269 -6.49394 -1.91353 0
M  V30 5352 H 501.911 -3.60546 -2.20831 0
M  V30 5353 H 499.629 -7.97051 -1.33174 0
M  V30 5354 H 503.215 -5.6048 -1.56055 0
M  V30 5355 H 502.095 -7.76021 -1.12965 0
M  V30 5356 N 499.598 0.982988 -1.23187 0
M  V30 5357 C 500.826 1.75921 -1.08901 0
M  V30 5358 C 501.241 1.85341 0.359719 0
M  V30 5359 O 500.598 1.33072 1.24892 0
M  V30 5360 C 500.649 3.18742 -1.70545 0
M  V30 5361 O 500.37 3.09814 -3.09753 0
M  V30 5362 C 501.871 4.1277 -1.61667 0
M  V30 5363 H 499.091 0.552166 -0.381252 0
M  V30 5364 H 501.635 1.23516 -1.62985 0
M  V30 5365 H 499.79 3.68182 -1.20501 0
M  V30 5366 H 500.204 3.99703 -3.39614 0
M  V30 5367 H 501.678 5.10697 -2.09506 0
M  V30 5368 H 502.155 4.3542 -0.575009 0
M  V30 5369 H 502.761 3.69232 -2.11064 0
M  V30 5370 N 501.076 1.04316 1.18135 0
M  V30 5371 C 502.492 0.762858 1.40188 0
M  V30 5372 C 502.692 -0.646547 1.90846 0
M  V30 5373 O 501.748 -1.41036 2.0944 0
M  V30 5374 C 503.061 1.81106 2.40044 0
M  V30 5375 C 504.609 1.83226 2.53766 0
M  V30 5376 C 505.084 2.87044 3.56889 0
M  V30 5377 N 506.575 2.85951 3.64398 0
M  V30 5378 C 507.31 3.62932 4.43923 0
M  V30 5379 N 506.806 4.49672 5.27036 0
M  V30 5380 N 508.599 3.51411 4.38711 0
M  V30 5381 H 500.75 1.95264 0.835805 0
M  V30 5382 H 503.013 0.845017 0.429709 0
M  V30 5383 H 502.719 2.82214 2.09876 0
M  V30 5384 H 502.593 1.64529 3.39426 0
M  V30 5385 H 504.98 0.827869 2.8325 0
M  V30 5386 H 505.061 2.03879 1.54489 0
M  V30 5387 H 504.705 3.87663 3.28145 0
M  V30 5388 H 504.635 2.63645 4.5585 0
M  V30 5389 H 507.126 2.23051 3.05052 0
M  V30 5390 H 507.439 5.05116 5.84874 0
M  V30 5391 H 505.784 4.53738 5.26447 0
M  V30 5392 H 508.975 2.83047 3.72829 0
M  V30 5393 H 509.148 4.11654 5.00445 0
M  V30 5394 N 502.554 -1.34406 0.822964 0
M  V30 5395 C 503.965 -1.8069 0.469879 0
M  V30 5396 C 504.316 -1.68223 -1.00972 0
M  V30 5397 O 503.441 -1.22226 -1.78577 0
M  V30 5398 C 504.036 -3.28064 0.846118 0
M  V30 5399 C 502.595 -3.72428 0.545402 0
M  V30 5400 C 501.742 -2.56116 1.06301 0
M  V30 5401 H 504.693 -1.22153 1.01313 0
M  V30 5402 H 504.714 -3.80205 0.149922 0
M  V30 5403 H 504.226 -3.37107 1.92304 0
M  V30 5404 H 502.327 -3.68924 -0.522109 0
M  V30 5405 H 502.44 -4.66548 1.0895 0
M  V30 5406 H 500.804 -2.50048 0.484554 0
M  V30 5407 H 501.587 -2.67928 2.14638 0
M  V30 5408 N 504.032 -0.577932 -1.46621 0
M  V30 5409 C 504.995 0.147805 -2.28723 0
M  V30 5410 C 505.995 0.823325 -1.38123 0
M  V30 5411 O 507.185 0.676011 -1.60548 0
M  V30 5412 C 504.317 1.21853 -3.18378 0
M  V30 5413 H 505.51 -0.573654 -2.94362 0
M  V30 5414 H 503.063 -0.335703 -1.52652 0
M  V30 5415 H 503.798 1.97173 -2.57475 0
M  V30 5416 H 503.583 0.738714 -3.85078 0
M  V30 5417 H 505.073 1.72768 -3.80186 0
M  V30 5418 N 505.51 1.54411 -0.315457 0
M  V30 5419 C 506.758 2.00023 0.288971 0
M  V30 5420 C 507.079 1.20529 1.5329 0
M  V30 5421 O 506.349 0.304986 1.93511 0
M  V30 5422 H 504.929 0.738891 0.109766 0
M  V30 5423 H 507.591 1.90094 -0.430129 0
M  V30 5424 H 506.687 3.07198 0.550999 0
M  V30 5425 N 506.988 0.0434614 1.5754 0
M  V30 5426 C 507.938 -0.943039 2.07583 0
M  V30 5427 C 508.922 -1.27662 0.979342 0
M  V30 5428 O 510.114 -1.26034 1.24276 0
M  V30 5429 C 507.243 -2.22056 2.61813 0
M  V30 5430 C 506.329 -1.91471 3.78417 0
M  V30 5431 N 506.72 -1.31214 4.88484 0
M  V30 5432 C 505.018 -2.21384 3.87176 0
M  V30 5433 C 505.719 -1.18084 5.69588 0
M  V30 5434 N 504.695 -1.68116 5.16951 0
M  V30 5435 H 508.497 -0.472354 2.90079 0
M  V30 5436 H 506.011 -0.161191 1.61598 0
M  V30 5437 H 508.008 -2.93618 2.95963 0
M  V30 5438 H 506.668 -2.69738 1.80752 0
M  V30 5439 H 507.679 -0.985318 5.08441 0
M  V30 5440 H 504.356 -2.7164 3.17046 0
M  V30 5441 H 505.746 -0.713684 6.68099 0
M  V30 5442 N 508.466 -1.55915 -0.229846 0
M  V30 5443 C 509.715 -1.77742 -0.953455 0
M  V30 5444 C 510.028 -0.610524 -1.85828 0
M  V30 5445 O 511.234 -0.712219 -2.61992 0
M  V30 5446 C 509.69 -3.14738 -1.74551 0
M  V30 5447 C 509.298 -4.39126 -0.887242 0
M  V30 5448 C 511.042 -3.45895 -2.46084 0
M  V30 5449 C 508.949 -5.67149 -1.67617 0
M  V30 5450 H 507.879 -0.662648 -0.359741 0
M  V30 5451 H 510.53 -1.82322 -0.207576 0
M  V30 5452 H 508.912 -3.04311 -2.53399 0
M  V30 5453 H 510.086 -4.60588 -0.139892 0
M  V30 5454 H 508.401 -4.15427 -0.284443 0
M  V30 5455 H 510.998 -4.38767 -3.05594 0
M  V30 5456 H 511.341 -2.68007 -3.18556 0
M  V30 5457 H 511.874 -3.57614 -1.74233 0
M  V30 5458 H 508.613 -6.47906 -0.994881 0
M  V30 5459 H 508.133 -5.49763 -2.39836 0
M  V30 5460 H 509.812 -6.07025 -2.23898 0
M  V30 5461 N 509.944 0.496216 -1.49584 0
M  V30 5462 C 511.192 1.24756 -1.58998 0
M  V30 5463 C 511.513 1.92968 -0.280775 0
M  V30 5464 O 510.783 1.82959 0.700198 0
M  V30 5465 H 509.363 0.463471 -0.585836 0
M  V30 5466 H 512.025 0.574678 -1.86235 0
M  V30 5467 H 511.121 2.00895 -2.38847 0
M  V30 5468 N 511.423 1.38739 0.74761 0
M  V30 5469 C 512.672 1.3459 1.50228 0
M  V30 5470 C 512.985 -0.0595592 1.95509 0
M  V30 5471 O 514.191 -0.22361 2.70578 0
M  V30 5472 C 512.647 2.36377 2.71393 0
M  V30 5473 C 512.255 3.82573 2.33113 0
M  V30 5474 C 513.999 2.41281 3.49262 0
M  V30 5475 C 511.906 4.76032 3.50924 0
M  V30 5476 H 510.836 0.500312 0.564096 0
M  V30 5477 H 513.487 1.64324 0.8167 0
M  V30 5478 H 511.869 1.99694 3.41962 0
M  V30 5479 H 513.043 4.28227 1.70171 0
M  V30 5480 H 511.358 3.80844 1.68365 0
M  V30 5481 H 513.955 3.08301 4.36869 0
M  V30 5482 H 514.298 1.43353 3.9084 0
M  V30 5483 H 514.831 2.76793 2.85711 0
M  V30 5484 H 511.57 5.75177 3.14408 0
M  V30 5485 H 511.09 4.35066 4.12889 0
M  V30 5486 H 512.769 4.94331 4.17427 0
M  V30 5487 N 512.901 -0.976442 1.23707 0
M  V30 5488 C 513.811 -2.10359 1.03856 0
M  V30 5489 C 514.827 -1.73991 -0.0180919 0
M  V30 5490 O 516.003 -2.0061 0.178211 0
M  V30 5491 C 513.068 -3.40809 0.636387 0
M  V30 5492 C 512.129 -3.91179 1.76854 0
M  V30 5493 C 511.362 -5.15404 1.38546 0
M  V30 5494 O 511.585 -5.69754 0.27142 0
M  V30 5495 O 510.519 -5.5994 2.20797 0
M  V30 5496 H 514.345 -2.29997 1.98331 0
M  V30 5497 H 511.93 -1.08742 1.02448 0
M  V30 5498 H 513.812 -4.19269 0.423223 0
M  V30 5499 H 512.487 -3.22493 -0.279322 0
M  V30 5500 H 511.394 -3.13819 2.03638 0
M  V30 5501 H 512.727 -4.13958 2.6627 0
M  V30 5502 N 514.379 -1.04941 -1.1758 0
M  V30 5503 C 515.79 -0.784501 -1.69418 0
M  V30 5504 C 516.141 0.693625 -1.8353 0
M  V30 5505 O 515.266 1.53925 -1.52106 0
M  V30 5506 C 515.861 -1.41746 -3.07723 0
M  V30 5507 C 514.42 -1.20066 -3.56737 0
M  V30 5508 C 513.567 -1.5026 -2.33061 0
M  V30 5509 H 516.518 -1.21469 -1.02133 0
M  V30 5510 H 516.539 -0.825381 -3.7144 0
M  V30 5511 H 516.051 -2.49325 -2.9742 0
M  V30 5512 H 514.152 -0.144006 -3.72322 0
M  V30 5513 H 514.265 -1.90384 -4.39648 0
M  V30 5514 H 512.629 -0.922598 -2.37403 0
M  V30 5515 H 513.412 -2.58967 -2.25368 0
M  V30 5516 N 515.857 1.33968 -0.830081 0
M  V30 5517 C 516.805 2.31301 -0.245435 0
M  V30 5518 C 517.799 1.57734 0.617762 0
M  V30 5519 O 519.005 1.72674 0.508303 0
M  V30 5520 H 515.38 0.749552 -0.0606316 0
M  V30 5521 H 517.351 2.78129 -1.08105 0
M  V30 5522 C 516.1 3.42961 0.572084 0
M  V30 5523 H 515.423 3.99714 -0.0828118 0
M  V30 5524 H 516.863 4.13286 0.94715 0
M  V30 5525 C 515.322 2.88043 1.74737 0
M  V30 5526 O 515.852 2.83508 2.8458 0
M  V30 5527 N 514.058 2.44768 1.56642 0
M  V30 5528 H 513.605 2.48656 0.672901 0
M  V30 5529 H 513.563 2.08375 2.3543 0
M  V30 5530 N 517.335 0.585699 1.46312 0
M  V30 5531 C 518.282 -0.145835 2.30339 0
M  V30 5532 C 519.252 -0.881215 1.40797 0
M  V30 5533 O 520.437 -0.871293 1.69744 0
M  V30 5534 C 517.577 -1.15161 3.25318 0
M  V30 5535 C 516.69 -0.419367 4.2996 0
M  V30 5536 C 515.825 -1.41293 5.12064 0
M  V30 5537 C 514.864 -0.667261 6.08452 0
M  V30 5538 N 514.001 -1.60903 6.83414 0
M  V30 5539 H 518.841 0.576755 2.92365 0
M  V30 5540 H 516.378 0.296237 1.44086 0
M  V30 5541 H 518.336 -1.74763 3.78832 0
M  V30 5542 H 516.966 -1.84188 2.65094 0
M  V30 5543 H 516.018 0.291751 3.7928 0
M  V30 5544 H 517.33 0.163433 4.98532 0
M  V30 5545 H 516.484 -2.08167 5.6987 0
M  V30 5546 H 515.223 -2.02966 4.43459 0
M  V30 5547 H 514.228 0.0152356 5.49798 0
M  V30 5548 H 515.453 -0.0558817 6.79077 0
M  V30 5549 H 513.399 -2.21381 6.17516 0
M  V30 5550 H 513.316 -1.07911 7.48259 0
M  V30 5551 H 514.584 -2.26802 7.45775 0
M  V30 5552 N 518.813 -1.54241 0.323641 0
M  V30 5553 C 520.061 -2.00174 -0.278359 0
M  V30 5554 C 520.382 -1.2134 -1.52648 0
M  V30 5555 O 519.652 -0.315244 -1.93347 0
M  V30 5556 H 518.232 -0.739463 -0.105845 0
M  V30 5557 H 520.894 -1.89864 0.440204 0
M  V30 5558 H 519.99 -3.07486 -0.5347 0
M  V30 5559 N 520.291 -0.0518155 -1.57515 0
M  V30 5560 C 521.568 0.661727 -1.84067 0
M  V30 5561 C 521.948 1.88999 -0.940351 0
M  V30 5562 O 521.296 2.285 -0.00155404 0
M  V30 5563 C 521.506 1.01841 -3.3381 0
M  V30 5564 C 522.854 1.40043 -4.00841 0
M  V30 5565 O 523.878 1.11073 -3.38439 0
M  V30 5566 O 522.737 1.94111 -5.10865 0
M  V30 5567 H 519.831 0.326702 -0.759733 0
M  V30 5568 H 522.377 -0.0812277 -1.69505 0
M  V30 5569 H 521.149 0.145202 -3.91031 0
M  V30 5570 H 520.772 1.81879 -3.53562 0
M  V30 5571 N 521.769 1.56035 0.221574 0
M  V30 5572 C 522.997 1.8313 0.962864 0
M  V30 5573 C 523.412 0.630934 1.77946 0
M  V30 5574 O 522.769 -0.400519 1.78051 0
M  V30 5575 C 522.82 3.08742 1.88045 0
M  V30 5576 O 522.541 4.24147 1.09686 0
M  V30 5577 C 524.042 3.48824 2.73563 0
M  V30 5578 H 521.262 0.608775 0.282194 0
M  V30 5579 H 523.806 2.03124 0.23681 0
M  V30 5580 H 521.961 2.90723 2.56045 0
M  V30 5581 H 522.375 4.95505 1.71974 0
M  V30 5582 H 523.849 4.39752 3.3365 0
M  V30 5583 H 524.326 2.70575 3.45956 0
M  V30 5584 H 524.932 3.69282 2.10976 0
M  V30 5585 N 523.247 -0.488276 1.49845 0
M  V30 5586 C 524.195 -1.60917 1.67954 0
M  V30 5587 C 525.189 -1.6038 0.54539 0
M  V30 5588 O 526.395 -1.64736 0.7254 0
M  V30 5589 H 522.77 -0.533658 0.529824 0
M  V30 5590 H 524.741 -1.428 2.62013 0
M  V30 5591 C 523.49 -2.98975 1.77509 0
M  V30 5592 H 522.813 -3.00099 2.6416 0
M  V30 5593 H 524.253 -3.76906 1.9421 0
M  V30 5594 C 522.712 -3.3282 0.522745 0
M  V30 5595 O 523.242 -4.00208 -0.345866 0
M  V30 5596 N 521.448 -2.8808 0.381882 0
M  V30 5597 H 520.995 -2.33415 1.08974 0
M  V30 5598 H 520.953 -3.11091 -0.454929 0
M  V30 5599 N 524.725 -1.39134 -0.740242 0
M  V30 5600 C 525.971 -1.36273 -1.50192 0
M  V30 5601 C 526.304 0.0430136 -1.94152 0
M  V30 5602 O 525.579 1.00691 -1.66408 0
M  V30 5603 C 525.862 -2.33041 -2.74525 0
M  V30 5604 C 525.715 -3.82535 -2.36617 0
M  V30 5605 C 527.034 -2.27723 -3.76604 0
M  V30 5606 H 524.153 -0.496323 -0.544823 0
M  V30 5607 H 526.795 -1.70085 -0.846815 0
M  V30 5608 H 524.945 -2.04337 -3.30422 0
M  V30 5609 H 526.617 -4.21967 -1.86391 0
M  V30 5610 H 524.86 -3.99565 -1.68909 0
M  V30 5611 H 525.531 -4.45723 -3.2563 0
M  V30 5612 H 528.007 -2.53091 -3.30279 0
M  V30 5613 H 526.883 -2.97519 -4.61274 0
M  V30 5614 H 527.144 -1.28049 -4.2315 0
M  V30 5615 N 526.204 0.969867 -1.24223 0
M  V30 5616 C 527.615 1.52717 -1.07399 0
M  V30 5617 C 527.966 1.92956 0.355298 0
M  V30 5618 O 527.091 1.77112 1.2434 0
M  V30 5619 C 527.686 2.77521 -1.94339 0
M  V30 5620 C 526.245 3.29615 -1.81744 0
M  V30 5621 C 525.392 2.02537 -1.89405 0
M  V30 5622 H 528.343 0.788399 -1.37732 0
M  V30 5623 H 528.364 3.50773 -1.47439 0
M  V30 5624 H 527.876 2.48203 -2.98357 0
M  V30 5625 H 525.977 3.63789 -0.805505 0
M  V30 5626 H 526.09 3.98661 -2.65718 0
M  V30 5627 H 524.454 2.17151 -1.33108 0
M  V30 5628 H 525.237 1.75587 -2.94999 0
M  V30 5629 N 527.682 1.05563 1.17022 0
M  V30 5630 C 528.91 0.78845 1.91288 0
M  V30 5631 C 529.325 -0.656318 1.77025 0
M  V30 5632 O 528.682 -1.44869 1.10992 0
M  V30 5633 C 528.733 1.16444 3.42232 0
M  V30 5634 O 528.454 2.5525 3.5606 0
M  V30 5635 C 529.955 0.923937 4.33565 0
M  V30 5636 H 527.175 0.286389 0.606813 0
M  V30 5637 H 529.719 1.4073 1.48375 0
M  V30 5638 H 527.874 0.590266 3.82877 0
M  V30 5639 H 528.288 2.70097 4.49609 0
M  V30 5640 H 529.762 1.23672 5.37968 0
M  V30 5641 H 530.239 -0.140688 4.38975 0
M  V30 5642 H 530.845 1.48214 3.98639 0
M  V30 5643 N 529.16 -1.33526 0.837174 0
M  V30 5644 C 530.406 -1.98541 0.44193 0
M  V30 5645 C 530.761 -1.65124 -0.987517 0
M  V30 5646 O 530.054 -0.919948 -1.6807 0
M  V30 5647 C 530.248 -3.52367 0.597675 0
M  V30 5648 C 530.077 -4.00731 2.04071 0
M  V30 5649 C 528.847 -4.28649 2.67559 0
M  V30 5650 C 531.045 -4.17073 3.00923 0
M  V30 5651 N 529.027 -4.63142 4.02955 0
M  V30 5652 C 530.398 -4.54905 4.21261 0
M  V30 5653 C 532.453 -3.99358 2.97351 0
M  V30 5654 C 531.156 -4.76874 5.38501 0
M  V30 5655 C 533.182 -4.22501 4.1382 0
M  V30 5656 C 532.544 -4.60634 5.32912 0
M  V30 5657 H 528.643 -0.753246 0.210105 0
M  V30 5658 H 531.227 -1.61674 1.08488 0
M  V30 5659 H 529.398 -3.88397 -0.0154658 0
M  V30 5660 H 531.13 -4.04326 0.17404 0
M  V30 5661 H 527.885 -4.20077 2.18706 0
M  V30 5662 H 528.309 -4.84601 4.72748 0
M  V30 5663 H 532.951 -3.68993 2.06408 0
M  V30 5664 H 530.669 -5.06101 6.2999 0
M  V30 5665 H 534.255 -4.10316 4.12471 0
M  V30 5666 H 533.135 -4.78187 6.21536 0
M  V30 5667 N 530.638 -0.59345 -1.46 0
M  V30 5668 C 532.049 -0.169801 -1.85926 0
M  V30 5669 C 532.4 1.26984 -1.49565 0
M  V30 5670 O 531.525 1.96076 -0.915602 0
M  V30 5671 C 532.12 -0.301385 -3.37457 0
M  V30 5672 C 530.679 0.0674684 -3.7634 0
M  V30 5673 C 529.826 -0.632383 -2.69993 0
M  V30 5674 H 532.777 -0.801014 -1.37002 0
M  V30 5675 H 532.798 0.470331 -3.77582 0
M  V30 5676 H 532.31 -1.34927 -3.63891 0
M  V30 5677 H 530.411 1.11507 -3.55523 0
M  V30 5678 H 530.524 -0.316332 -4.78055 0
M  V30 5679 H 528.888 -0.0714961 -2.546 0
M  V30 5680 H 529.671 -1.68212 -2.99265 0
M  V30 5681 N 532.116 1.54067 -0.331816 0
M  V30 5682 C 533.048 2.22139 0.564538 0
M  V30 5683 C 534.061 1.22408 1.07332 0
M  V30 5684 O 535.25 1.4883 0.985481 0
M  V30 5685 C 532.35 2.87876 1.78831 0
M  V30 5686 C 531.523 4.13817 1.41682 0
M  V30 5687 C 530.582 4.63072 2.49901 0
M  V30 5688 O 529.608 5.27562 2.13699 0
M  V30 5689 N 530.81 4.38001 3.80967 0
M  V30 5690 H 533.575 2.99694 -0.0183736 0
M  V30 5691 H 531.136 1.61153 -0.155396 0
M  V30 5692 H 533.128 3.17747 2.50637 0
M  V30 5693 H 531.698 2.13977 2.27887 0
M  V30 5694 H 530.918 3.9062 0.530044 0
M  V30 5695 H 532.206 4.95762 1.14443 0
M  V30 5696 H 531.604 3.864 4.13173 0
M  V30 5697 H 530.161 4.72507 4.48977 0
M  V30 5698 N 533.594 0.0601682 1.57485 0
M  V30 5699 C 534.871 -0.651956 1.84415 0
M  V30 5700 C 535.251 -1.88498 0.950361 0
M  V30 5701 O 534.599 -2.28496 0.0136719 0
M  V30 5702 C 534.809 -1.00069 3.34346 0
M  V30 5703 C 536.157 -1.37915 4.01578 0
M  V30 5704 O 537.181 -1.09277 3.39024 0
M  V30 5705 O 536.04 -1.91399 5.11887 0
M  V30 5706 H 533.134 -0.322668 0.761455 0
M  V30 5707 H 535.68 0.0902159 1.6946 0
M  V30 5708 H 534.452 -0.124463 3.91102 0
M  V30 5709 H 534.075 -1.80001 3.54521 0
M  V30 5710 N 535.072 -1.5615 -0.213296 0
M  V30 5711 C 536.349 -1.70349 -0.961281 0
M  V30 5712 C 536.729 -0.609791 -2.02101 0
M  V30 5713 O 536.077 0.381987 -2.25285 0
M  V30 5714 C 536.287 -3.11982 -1.56424 0
M  V30 5715 C 537.635 -3.71649 -2.05334 0
M  V30 5716 O 538.659 -3.14995 -1.66302 0
M  V30 5717 O 537.518 -4.71038 -2.77102 0
M  V30 5718 H 534.612 -0.694121 -0.449582 0
M  V30 5719 H 537.158 -1.68464 -0.204426 0
M  V30 5720 H 535.93 -3.83046 -0.799457 0
M  V30 5721 H 535.553 -3.18019 -2.38641 0
M  V30 5722 N 536.55 0.480323 -1.50102 0
M  V30 5723 C 537.46 1.60547 -1.71061 0
M  V30 5724 C 538.476 1.63564 -0.593529 0
M  V30 5725 O 539.652 1.81604 -0.870751 0
M  V30 5726 C 536.717 2.96814 -1.79171 0
M  V30 5727 C 535.778 3.04259 -3.02861 0
M  V30 5728 C 535.011 4.34027 -3.10574 0
M  V30 5729 O 535.234 5.24009 -2.25323 0
M  V30 5730 O 534.168 4.46873 -4.03223 0
M  V30 5731 H 537.994 1.45788 -2.6642 0
M  V30 5732 H 535.579 0.658838 -1.34088 0
M  V30 5733 H 537.461 3.77765 -1.86738 0
M  V30 5734 H 536.136 3.11791 -0.869947 0
M  V30 5735 H 535.043 2.22419 -3.008 0
M  V30 5736 H 536.376 2.94216 -3.94586 0
M  V30 5737 N 538.028 1.39524 0.732853 0
M  V30 5738 C 539.258 1.3994 1.51988 0
M  V30 5739 C 539.666 -0.00727973 1.89199 0
M  V30 5740 O 539.009 -0.989521 1.54771 0
M  V30 5741 C 539.071 2.21026 2.83527 0
M  V30 5742 C 538.735 3.69633 2.68738 0
M  V30 5743 C 539.732 4.62665 2.37143 0
M  V30 5744 C 537.417 4.13244 2.85542 0
M  V30 5745 C 539.411 5.97291 2.22536 0
M  V30 5746 C 537.098 5.47945 2.70554 0
M  V30 5747 C 538.096 6.39783 2.39097 0
M  V30 5748 O 537.784 7.72002 2.24204 0
M  V30 5749 H 537.516 0.479795 0.476206 0
M  V30 5750 H 540.07 1.8399 0.913054 0
M  V30 5751 H 538.3 1.71728 3.46477 0
M  V30 5752 H 539.989 2.13594 3.45156 0
M  V30 5753 H 540.755 4.30272 2.2381 0
M  V30 5754 H 536.634 3.42094 3.09019 0
M  V30 5755 H 540.178 6.68939 1.97905 0
M  V30 5756 H 536.075 5.79928 2.83466 0
M  V30 5757 H 536.843 7.8275 2.39258 0
M  V30 5758 N 539.506 -0.963266 1.24736 0
M  V30 5759 C 540.469 -2.04013 1.04457 0
M  V30 5760 C 541.469 -1.608 0.000335555 0
M  V30 5761 O 542.659 -1.72515 0.241719 0
M  V30 5762 C 539.791 -3.35858 0.584162 0
M  V30 5763 H 540.984 -2.23436 2.00041 0
M  V30 5764 H 538.537 -1.13914 1.07021 0
M  V30 5765 H 539.272 -3.22128 -0.374673 0
M  V30 5766 H 539.057 -3.68568 1.3379 0
M  V30 5767 H 540.547 -4.1502 0.463451 0
M  V30 5768 N 540.985 -1.06182 -1.16461 0
M  V30 5769 C 542.233 -0.776326 -1.86595 0
M  V30 5770 C 542.554 0.69921 -1.82033 0
M  V30 5771 O 541.824 1.50579 -1.2531 0
M  V30 5772 H 540.404 -0.284184 -0.690832 0
M  V30 5773 H 543.066 -1.34308 -1.41235 0
M  V30 5774 H 542.162 -1.10022 -2.92064 0
M  V30 5775 N 542.463 1.3308 -0.844243 0
M  V30 5776 C 543.712 1.96868 -0.438833 0
M  V30 5777 C 544.025 1.67599 1.00846 0
M  V30 5778 O 545.231 2.25043 1.51881 0
M  V30 5779 C 543.687 3.5234 -0.73377 0
M  V30 5780 C 543.295 3.90481 -2.1961 0
M  V30 5781 C 545.039 4.22653 -0.395574 0
M  V30 5782 C 542.946 5.38954 -2.43481 0
M  V30 5783 H 541.876 0.736749 -0.160364 0
M  V30 5784 H 544.527 1.51623 -1.03358 0
M  V30 5785 H 542.909 3.95941 -0.068589 0
M  V30 5786 H 544.083 3.57922 -2.90221 0
M  V30 5787 H 542.398 3.33165 -2.4978 0
M  V30 5788 H 544.995 5.31848 -0.551477 0
M  V30 5789 H 545.338 4.11004 0.661921 0
M  V30 5790 H 545.871 3.84601 -1.01621 0
M  V30 5791 H 542.61 5.55612 -3.47816 0
M  V30 5792 H 542.13 5.72954 -1.77437 0
M  V30 5793 H 543.809 6.05907 -2.26905 0
M  V30 5794 N 543.941 0.601185 1.45683 0
M  V30 5795 C 545.352 0.179659 1.85834 0
M  V30 5796 C 545.703 -1.26189 1.50236 0
M  V30 5797 O 544.828 -1.95587 0.925987 0
M  V30 5798 C 545.423 0.319277 3.37292 0
M  V30 5799 C 543.982 -0.0475092 3.7637 0
M  V30 5800 C 543.129 0.646692 2.69654 0
M  V30 5801 H 546.08 0.808268 1.36575 0
M  V30 5802 H 546.101 -0.4503 3.77826 0
M  V30 5803 H 545.613 1.36855 3.6317 0
M  V30 5804 H 543.714 -1.0962 3.5611 0
M  V30 5805 H 543.827 0.34168 4.7788 0
M  V30 5806 H 542.191 0.0849971 2.54558 0
M  V30 5807 H 542.974 1.69797 2.98369 0
M  V30 5808 N 545.419 -1.53889 0.339982 0
M  V30 5809 C 546.351 -2.22435 -0.55275 0
M  V30 5810 C 547.364 -1.22975 -1.06681 0
M  V30 5811 O 548.553 -1.49351 -0.977575 0
M  V30 5812 C 545.653 -2.8882 -1.77302 0
M  V30 5813 C 544.826 -4.14563 -1.39486 0
M  V30 5814 C 543.885 -4.64391 -2.47442 0
M  V30 5815 O 542.911 -5.28687 -2.10899 0
M  V30 5816 N 544.113 -4.40015 -3.78639 0
M  V30 5817 H 546.878 -2.9968 0.0342669 0
M  V30 5818 H 544.439 -1.61068 0.16394 0
M  V30 5819 H 546.431 -3.19072 -2.48948 0
M  V30 5820 H 545.001 -2.15182 -2.26749 0
M  V30 5821 H 544.221 -3.90896 -0.509321 0
M  V30 5822 H 545.509 -4.96362 -1.11813 0
M  V30 5823 H 544.907 -3.88586 -4.11118 0
M  V30 5824 H 543.464 -4.74881 -4.46465 0
M  V30 5825 N 546.897 -0.0685191 -1.57451 0
M  V30 5826 C 547.844 0.899861 -2.12535 0
M  V30 5827 C 548.814 1.29749 -1.03703 0
M  V30 5828 O 549.999 1.38392 -1.31348 0
M  V30 5829 C 547.139 2.16328 -2.6888 0
M  V30 5830 C 546.252 1.81857 -3.91857 0
M  V30 5831 C 545.387 3.02786 -4.36457 0
M  V30 5832 C 544.426 2.64317 -5.5209 0
M  V30 5833 N 543.563 3.77994 -5.91663 0
M  V30 5834 H 548.403 0.423243 -2.94979 0
M  V30 5835 H 545.94 0.197268 -1.45771 0
M  V30 5836 H 547.898 2.90281 -2.99655 0
M  V30 5837 H 546.528 2.61536 -1.89206 0
M  V30 5838 H 545.58 0.979808 -3.67565 0
M  V30 5839 H 546.892 1.49553 -4.75852 0
M  V30 5840 H 546.046 3.85021 -4.68875 0
M  V30 5841 H 544.785 3.38281 -3.51308 0
M  V30 5842 H 543.79 1.80503 -5.19325 0
M  V30 5843 H 545.015 2.29995 -6.38967 0
M  V30 5844 H 542.961 4.13258 -5.09464 0
M  V30 5845 H 542.878 3.49447 -6.7039 0
M  V30 5846 H 544.146 4.60818 -6.28703 0
M  V30 5847 N 548.375 1.56261 0.205012 0
M  V30 5848 C 549.323 1.94631 1.27364 0
M  V30 5849 C 550.317 0.830434 1.47649 0
M  V30 5850 O 551.523 1.01538 1.48627 0
M  V30 5851 H 547.898 0.618755 0.427371 0
M  V30 5852 H 549.869 2.83768 0.922941 0
M  V30 5853 C 548.618 2.29358 2.61324 0
M  V30 5854 H 547.941 3.14744 2.46528 0
M  V30 5855 H 549.381 2.60076 3.34868 0
M  V30 5856 C 547.84 1.12461 3.17575 0
M  V30 5857 O 548.37 0.394407 3.99759 0
M  V30 5858 N 546.576 0.904036 2.7618 0
M  V30 5859 H 546.123 1.49956 2.09454 0
M  V30 5860 H 546.081 0.123662 3.14157 0
M  V30 5861 N 549.853 -0.472356 1.50355 0
M  V30 5862 C 551.083 -1.24603 1.64796 0
M  V30 5863 C 551.491 -1.86297 0.330156 0
M  V30 5864 O 550.834 -1.69934 -0.697728 0
M  V30 5865 C 550.896 -2.39578 2.68035 0
M  V30 5866 C 550.56 -1.98531 4.11624 0
M  V30 5867 C 551.557 -1.50856 4.97532 0
M  V30 5868 C 549.242 -2.0729 4.57532 0
M  V30 5869 C 551.236 -1.12481 6.27397 0
M  V30 5870 C 548.923 -1.68527 5.87403 0
M  V30 5871 C 549.921 -1.212 6.7216 0
M  V30 5872 O 549.609 -0.829728 7.99607 0
M  V30 5873 H 549.341 -0.383035 0.55701 0
M  V30 5874 H 551.895 -0.570392 1.97321 0
M  V30 5875 H 550.125 -3.10309 2.30749 0
M  V30 5876 H 551.814 -3.01544 2.71709 0
M  V30 5877 H 552.58 -1.43511 4.63281 0
M  V30 5878 H 548.459 -2.43076 3.91708 0
M  V30 5879 H 552.003 -0.754698 6.93506 0
M  V30 5880 H 547.9 -1.7553 6.21176 0
M  V30 5881 H 548.668 -0.958689 8.12866 0
M  V30 5882 N 551.331 -1.39911 -0.725443 0
M  V30 5883 C 552.559 -1.40949 -1.51463 0
M  V30 5884 C 552.974 -0.0065242 -1.88799 0
M  V30 5885 O 552.331 0.967163 -1.54765 0
M  V30 5886 C 552.382 -2.29119 -2.79619 0
M  V30 5887 O 552.103 -3.63952 -2.43866 0
M  V30 5888 C 553.604 -2.38642 -3.73584 0
M  V30 5889 H 550.824 -0.481091 -0.467752 0
M  V30 5890 H 553.368 -1.83843 -0.895651 0
M  V30 5891 H 551.523 -1.89612 -3.37826 0
M  V30 5892 H 551.937 -4.10677 -3.26258 0
M  V30 5893 H 553.411 -3.04563 -4.60375 0
M  V30 5894 H 553.888 -1.40846 -4.16004 0
M  V30 5895 H 554.494 -2.78659 -3.21293 0
M  V30 5896 N 552.809 0.956637 -1.25245 0
M  V30 5897 C 553.756 2.053 -1.05454 0
M  V30 5898 C 554.726 1.66062 0.0356889 0
M  V30 5899 O 555.911 1.90415 -0.121099 0
M  V30 5900 C 553.051 3.38391 -0.677191 0
M  V30 5901 C 552.164 3.90758 -1.84206 0
M  V30 5902 C 551.299 5.12165 -1.40926 0
M  V30 5903 C 550.338 5.56757 -2.54338 0
M  V30 5904 N 549.475 6.69376 -2.11848 0
M  V30 5905 H 554.315 2.21562 -1.99284 0
M  V30 5906 H 551.852 1.08578 -0.992434 0
M  V30 5907 H 553.81 4.1488 -0.43938 0
M  V30 5908 H 552.44 3.22021 0.224127 0
M  V30 5909 H 551.492 3.10808 -2.19323 0
M  V30 5910 H 552.804 4.19802 -2.69383 0
M  V30 5911 H 551.958 5.96065 -1.13098 0
M  V30 5912 H 550.697 4.84832 -0.528175 0
M  V30 5913 H 549.702 4.71423 -2.82913 0
M  V30 5914 H 550.927 5.861 -3.43022 0
M  V30 5915 H 548.873 6.43756 -1.26153 0
M  V30 5916 H 548.79 6.97927 -2.90574 0
M  V30 5917 H 550.058 7.5669 -1.87191 0
M  V30 5918 N 554.287 1.06798 1.15896 0
M  V30 5919 C 555.564 0.701057 1.82605 0
M  V30 5920 C 555.944 -0.817066 1.94646 0
M  V30 5921 O 555.292 -1.72933 1.49353 0
M  V30 5922 C 555.502 1.40895 3.19296 0
M  V30 5923 C 556.85 1.55744 3.95005 0
M  V30 5924 O 557.874 1.36927 3.28831 0
M  V30 5925 O 556.733 1.86658 5.13635 0
M  V30 5926 H 553.827 0.248791 0.78869 0
M  V30 5927 H 556.373 1.16857 1.23055 0
M  V30 5928 H 555.145 2.4439 3.05596 0
M  V30 5929 H 554.768 0.931847 3.86526 0
M  V30 5930 N 555.766 -1.3263 0.851289 0
M  V30 5931 C 557.012 -1.9766 0.453694 0
M  V30 5932 C 557.345 -1.67225 -0.987396 0
M  V30 5933 O 556.62 -0.958693 -1.69232 0
M  V30 5934 C 556.903 -3.5344 0.68936 0
M  V30 5935 C 556.756 -3.93517 2.17862 0
M  V30 5936 C 558.075 -4.39866 0.143555 0
M  V30 5937 H 555.194 -0.717989 0.166314 0
M  V30 5938 H 557.836 -1.57068 1.06909 0
M  V30 5939 H 555.986 -3.88147 0.165546 0
M  V30 5940 H 557.658 -3.69006 2.76826 0
M  V30 5941 H 555.901 -3.42798 2.65841 0
M  V30 5942 H 556.572 -5.02065 2.29422 0
M  V30 5943 H 559.048 -4.11875 0.591451 0
M  V30 5944 H 557.924 -5.47858 0.338043 0
M  V30 5945 H 558.185 -4.31696 -0.953466 0
M  V30 5946 N 557.244 -0.608902 -1.45362 0
M  V30 5947 C 558.472 -0.111013 -2.06602 0
M  V30 5948 C 558.887 1.20516 -1.45332 0
M  V30 5949 O 558.244 1.73437 -0.567978 0
M  V30 5950 C 558.295 0.033688 -3.61484 0
M  V30 5951 O 558.016 -1.23041 -4.20467 0
M  V30 5952 C 559.517 0.562882 -4.39712 0
M  V30 5953 H 556.737 -0.0694453 -0.667397 0
M  V30 5954 H 559.281 -0.837008 -1.86586 0
M  V30 5955 H 557.436 0.710016 -3.80838 0
M  V30 5956 H 557.85 -1.06094 -5.13658 0
M  V30 5957 H 559.324 0.613213 -5.48583 0
M  V30 5958 H 559.801 1.58543 -4.09586 0
M  V30 5959 H 560.407 -0.0794454 -4.25226 0
M  V30 5960 N 558.722 1.53707 -0.348139 0
M  V30 5961 C 559.97 2.00591 0.246478 0
M  V30 5962 C 560.291 1.23753 1.50699 0
M  V30 5963 O 559.561 0.345964 1.92821 0
M  V30 5964 H 558.141 0.741053 0.0940679 0
M  V30 5965 H 560.803 1.89139 -0.470354 0
M  V30 5966 H 559.899 3.08297 0.485714 0
M  V30 5967 N 560.2 0.0768682 1.57412 0
M  V30 5968 C 561.448 -0.589918 1.93299 0
M  V30 5969 C 561.769 -1.69842 0.958049 0
M  V30 5970 O 561.039 -1.95899 0.00703261 0
M  V30 5971 H 559.619 -0.220901 0.713591 0
M  V30 5972 H 562.281 0.135917 1.94425 0
M  V30 5973 H 561.377 -1.01195 2.95239 0
M  V30 5974 N 561.678 -1.56367 -0.196722 0
M  V30 5975 C 562.924 -1.81698 -0.914182 0
M  V30 5976 C 563.279 -0.65367 -1.80956 0
M  V30 5977 O 562.572 0.351224 -1.88353 0
M  V30 5978 C 562.766 -3.10663 -1.767 0
M  V30 5979 C 562.595 -4.39428 -0.955689 0
M  V30 5980 C 561.365 -5.01221 -0.64076 0
M  V30 5981 C 563.563 -5.1337 -0.309165 0
M  V30 5982 N 561.545 -6.13608 0.189358 0
M  V30 5983 C 562.916 -6.18815 0.383225 0
M  V30 5984 C 564.971 -4.97393 -0.224726 0
M  V30 5985 C 563.674 -7.10015 1.15201 0
M  V30 5986 C 565.7 -5.89014 0.530658 0
M  V30 5987 C 565.062 -6.93903 1.2115 0
M  V30 5988 H 561.161 -0.716203 -0.31397 0
M  V30 5989 H 563.745 -1.93838 -0.18304 0
M  V30 5990 H 561.916 -2.99762 -2.46976 0
M  V30 5991 H 563.648 -3.24088 -2.42382 0
M  V30 5992 H 560.403 -4.63669 -0.96479 0
M  V30 5993 H 560.827 -6.74389 0.593979 0
M  V30 5994 H 565.469 -4.16331 -0.736754 0
M  V30 5995 H 563.187 -7.9054 1.67547 0
M  V30 5996 H 566.773 -5.78726 0.597326 0
M  V30 5997 H 565.653 -7.63576 1.78665 0
M  V30 5998 N 563.156 0.464375 -1.50603 0
M  V30 5999 C 564.386 1.23727 -1.65454 0
M  V30 6000 C 564.794 1.86119 -0.340032 0
M  V30 6001 O 564.137 1.70301 0.688706 0
M  V30 6002 C 564.199 2.38153 -2.69301 0
M  V30 6003 C 563.863 1.96345 -4.12671 0
M  V30 6004 C 564.86 1.48215 -4.98326 0
M  V30 6005 C 562.545 2.04861 -4.58625 0
M  V30 6006 C 564.539 1.09152 -6.27985 0
M  V30 6007 C 562.226 1.65409 -5.88288 0
M  V30 6008 C 563.224 1.17634 -6.72794 0
M  V30 6009 O 562.912 0.787312 -8.00035 0
M  V30 6010 H 562.644 0.380075 -0.559034 0
M  V30 6011 H 565.198 0.559919 -1.97621 0
M  V30 6012 H 563.428 3.09081 -2.32392 0
M  V30 6013 H 565.117 3.00099 -2.73304 0
M  V30 6014 H 565.883 1.41052 -4.64036 0
M  V30 6015 H 561.762 2.40996 -3.92991 0
M  V30 6016 H 565.306 0.717909 -6.93896 0
M  V30 6017 H 561.203 1.72233 -6.22098 0
M  V30 6018 H 561.971 0.915567 -8.13363 0
M  V30 6019 N 564.634 1.40294 0.718013 0
M  V30 6020 C 565.911 1.2894 1.47084 0
M  V30 6021 C 566.291 -0.0933625 2.10893 0
M  V30 6022 O 565.639 -1.10598 1.99951 0
M  V30 6023 C 565.849 2.4264 2.50852 0
M  V30 6024 C 567.197 2.8276 3.16752 0
M  V30 6025 O 568.221 2.42215 2.61171 0
M  V30 6026 O 567.08 3.528 4.17366 0
M  V30 6027 H 564.174 0.506236 0.653952 0
M  V30 6028 H 566.72 1.52208 0.750394 0
M  V30 6029 H 565.492 3.35009 2.022 0
M  V30 6030 H 565.115 2.21129 3.30435 0
M  V30 6031 N 566.112 -0.949982 1.2575 0
M  V30 6032 C 567.075 -2.02894 1.06615 0
M  V30 6033 C 568.075 -1.60791 0.0173905 0
M  V30 6034 O 569.265 -1.72249 0.260003 0
M  V30 6035 C 566.397 -3.35219 0.619751 0
M  V30 6036 H 567.59 -2.21302 2.02399 0
M  V30 6037 H 565.143 -1.12772 1.08223 0
M  V30 6038 H 565.878 -3.22508 -0.340486 0
M  V30 6039 H 565.663 -3.67129 1.37692 0
M  V30 6040 H 567.153 -4.14505 0.507443 0
M  V30 6041 N 567.59 -1.07411 -1.15328 0
M  V30 6042 C 568.838 -0.796073 -1.85761 0
M  V30 6043 C 569.159 0.679864 -1.82764 0
M  V30 6044 O 568.429 1.49242 -1.269 0
M  V30 6045 H 567.009 -0.291495 -0.687779 0
M  V30 6046 H 569.671 -1.35799 -1.39802 0
M  V30 6047 H 568.767 -1.13114 -2.90881 0
M  V30 6048 N 569.068 1.32177 -0.85831 0
M  V30 6049 C 570.345 1.91781 -0.384624 0
M  V30 6050 C 570.725 1.78171 1.13217 0
M  V30 6051 O 570.073 1.18209 1.95548 0
M  V30 6052 C 570.283 3.38414 -0.853047 0
M  V30 6053 C 571.631 4.15542 -0.872359 0
M  V30 6054 O 572.655 3.47148 -0.797926 0
M  V30 6055 O 571.514 5.37678 -0.978009 0
M  V30 6056 H 568.608 0.819259 -0.112886 0
M  V30 6057 H 571.154 1.40923 -0.945453 0
M  V30 6058 H 569.926 3.4228 -1.89632 0
M  V30 6059 H 569.549 3.96683 -0.269874 0
M  V30 6060 N 570.547 0.616602 1.45037 0
M  V30 6061 C 571.497 -0.118543 2.27692 0
M  V30 6062 C 572.481 -0.830025 1.37838 0
M  V30 6063 O 573.673 -0.718528 1.6176 0
M  V30 6064 C 570.802 -1.10924 3.24886 0
M  V30 6065 C 569.888 -0.398134 4.22227 0
M  V30 6066 N 570.279 0.565233 5.02632 0
M  V30 6067 C 568.577 -0.644506 4.41319 0
M  V30 6068 C 569.278 0.984043 5.73316 0
M  V30 6069 N 568.254 0.325879 5.42622 0
M  V30 6070 H 572.056 0.621239 2.87259 0
M  V30 6071 H 569.57 0.440968 1.56299 0
M  V30 6072 H 571.567 -1.65038 3.82842 0
M  V30 6073 H 570.227 -1.84948 2.66879 0
M  V30 6074 H 571.238 0.942395 5.09254 0
M  V30 6075 H 567.915 -1.36873 3.94426 0
M  V30 6076 H 569.305 1.77911 6.47918 0
M  V30 6077 N 572.025 -1.5352 0.356285 0
M  V30 6078 C 573.273 -2.00719 -0.235837 0
M  V30 6079 C 573.594 -1.24551 -1.5004 0
M  V30 6080 O 572.864 -0.356185 -1.92635 0
M  V30 6081 H 571.444 -0.741542 -0.0901366 0
M  V30 6082 H 574.106 -1.88887 0.480378 0
M  V30 6083 H 573.202 -3.08551 -0.469357 0
M  V30 6084 N 573.503 -0.0852151 -1.57369 0
M  V30 6085 C 574.45 0.877268 -2.13478 0
M  V30 6086 C 575.42 1.28642 -1.05073 0
M  V30 6087 O 576.605 1.36992 -1.32808 0
M  V30 6088 C 573.745 2.13464 -2.71159 0
M  V30 6089 C 572.858 1.77691 -3.93764 0
M  V30 6090 C 571.993 2.98139 -4.39643 0
M  V30 6091 C 571.032 2.58447 -5.54862 0
M  V30 6092 N 570.169 3.71698 -5.95639 0
M  V30 6093 H 575.009 0.391933 -2.95411 0
M  V30 6094 H 572.546 0.181796 -1.45972 0
M  V30 6095 H 574.504 2.87086 -3.02717 0
M  V30 6096 H 573.134 2.59514 -1.91969 0
M  V30 6097 H 572.186 0.940768 -3.68583 0
M  V30 6098 H 573.498 1.44497 -4.77412 0
M  V30 6099 H 572.652 3.80026 -4.72933 0
M  V30 6100 H 571.391 3.34536 -3.54876 0
M  V30 6101 H 570.396 1.74984 -5.21211 0
M  V30 6102 H 571.621 2.23205 -6.41371 0
M  V30 6103 H 569.567 4.07831 -5.13819 0
M  V30 6104 H 569.484 3.42317 -6.74059 0
M  V30 6105 H 570.752 4.54123 -6.33555 0
M  V30 6106 N 574.981 1.5647 0.188427 0
M  V30 6107 C 576.211 1.84863 0.922463 0
M  V30 6108 C 576.619 0.666413 1.77075 0
M  V30 6109 O 575.962 -0.374044 1.79852 0
M  V30 6110 C 576.024 3.07447 1.86324 0
M  V30 6111 C 575.688 4.41066 1.19625 0
M  V30 6112 C 576.685 5.16767 0.569946 0
M  V30 6113 C 574.37 4.87802 1.19811 0
M  V30 6114 C 576.364 6.37384 -0.045594 0
M  V30 6115 C 574.051 6.08353 0.57874 0
M  V30 6116 C 575.049 6.82987 -0.0420259 0
M  V30 6117 O 574.737 8.01254 -0.651675 0
M  V30 6118 H 574.469 0.61784 0.274316 0
M  V30 6119 H 577.023 2.04437 0.198613 0
M  V30 6120 H 575.253 2.83774 2.62696 0
M  V30 6121 H 576.942 3.2243 2.46564 0
M  V30 6122 H 577.708 4.81749 0.560601 0
M  V30 6123 H 573.587 4.29662 1.67069 0
M  V30 6124 H 577.131 6.95578 -0.530731 0
M  V30 6125 H 573.028 6.42838 0.58561 0
M  V30 6126 H 573.796 8.16655 -0.549236 0
M  V30 6127 N 576.459 -0.456382 1.50847 0
M  V30 6128 C 577.705 -1.20914 1.62811 0
M  V30 6129 C 578.038 -1.91301 0.334304 0
M  V30 6130 O 577.313 -1.82775 -0.665098 0
M  V30 6131 C 577.596 -2.24122 2.81853 0
M  V30 6132 C 577.449 -1.57944 4.21158 0
M  V30 6133 C 578.768 -3.25295 2.96431 0
M  V30 6134 H 575.887 -0.438233 0.592554 0
M  V30 6135 H 578.529 -0.50091 1.83278 0
M  V30 6136 H 576.679 -2.84524 2.64534 0
M  V30 6137 H 578.351 -1.01025 4.50102 0
M  V30 6138 H 576.594 -0.882185 4.24735 0
M  V30 6139 H 577.265 -2.33014 5.00408 0
M  V30 6140 H 579.741 -2.7493 3.12335 0
M  V30 6141 H 578.617 -3.94822 3.81322 0
M  V30 6142 H 578.878 -3.90286 2.07676 0
M  V30 6143 N 577.937 -1.40673 -0.710563 0
M  V30 6144 C 579.183 -1.39428 -1.47267 0
M  V30 6145 C 579.516 0.00182129 -1.942 0
M  V30 6146 O 578.791 0.971387 -1.68506 0
M  V30 6147 C 579.074 -2.38812 -2.6952 0
M  V30 6148 C 578.927 -3.87467 -2.28449 0
M  V30 6149 C 580.246 -2.3566 -3.71689 0
M  V30 6150 H 577.365 -0.507768 -0.534173 0
M  V30 6151 H 580.007 -1.71843 -0.810547 0
M  V30 6152 H 578.157 -2.113 -3.26013 0
M  V30 6153 H 579.829 -4.25825 -1.77399 0
M  V30 6154 H 578.072 -4.03058 -1.60395 0
M  V30 6155 H 578.743 -4.5253 -3.16103 0
M  V30 6156 H 581.219 -2.6004 -3.24836 0
M  V30 6157 H 580.095 -3.07237 -4.54859 0
M  V30 6158 H 580.356 -1.36996 -4.20339 0
M  V30 6159 N 579.415 0.9433 -1.26252 0
M  V30 6160 C 580.363 2.06302 -1.07434 0
M  V30 6161 C 581.357 1.694 -0.00189471 0
M  V30 6162 O 582.563 1.79302 -0.158408 0
M  V30 6163 H 578.938 0.675453 -0.330556 0
M  V30 6164 H 580.909 2.19326 -2.02333 0
M  V30 6165 C 579.658 3.40125 -0.721817 0
M  V30 6166 H 578.981 3.68996 -1.5389 0
M  V30 6167 H 580.421 4.19295 -0.629922 0
M  V30 6168 C 578.88 3.31993 0.572902 0
M  V30 6169 O 579.41 3.67945 1.61182 0
M  V30 6170 N 577.616 2.85099 0.562748 0
M  V30 6171 H 577.163 2.5604 -0.283092 0
M  V30 6172 H 577.121 2.80041 1.42915 0
M  V30 6173 N 580.893 1.08022 1.14757 0
M  V30 6174 C 582.141 0.805913 1.85336 0
M  V30 6175 C 582.462 -0.670162 1.83122 0
M  V30 6176 O 581.732 -1.48567 1.2769 0
M  V30 6177 H 580.312 0.295138 0.686223 0
M  V30 6178 H 582.974 1.36538 1.3908 0
M  V30 6179 H 582.07 1.14655 2.90277 0
M  V30 6180 N 582.371 -1.3172 0.865308 0
M  V30 6181 C 583.619 -1.96487 0.472995 0
M  V30 6182 C 583.94 -1.68761 -0.976975 0
M  V30 6183 O 583.21 -1.00051 -1.68424 0
M  V30 6184 H 581.79 -0.726947 0.171922 0
M  V30 6185 H 584.452 -1.60612 1.10407 0
M  V30 6186 H 583.548 -3.0574 0.62687 0
M  V30 6187 N 583.85 -0.624285 -1.44708 0
M  V30 6188 C 585.099 -0.123539 -2.01321 0
M  V30 6189 C 585.412 1.25966 -1.49639 0
M  V30 6190 O 586.618 1.85405 -1.98336 0
M  V30 6191 C 585.074 -0.170124 -3.59498 0
M  V30 6192 C 584.682 -1.55421 -4.20176 0
M  V30 6193 C 586.426 0.274513 -4.23611 0
M  V30 6194 C 584.332 -1.55628 -5.70556 0
M  V30 6195 H 583.263 -0.0424183 -0.752806 0
M  V30 6196 H 585.913 -0.782076 -1.65999 0
M  V30 6197 H 584.296 0.555385 -3.92086 0
M  V30 6198 H 585.47 -2.30276 -3.99136 0
M  V30 6199 H 583.784 -1.94235 -3.68323 0
M  V30 6200 H 586.382 0.292402 -5.339 0
M  V30 6201 H 586.725 1.3005 -3.95465 0
M  V30 6202 H 587.258 -0.398275 -3.95801 0
M  V30 6203 H 583.997 -2.56041 -6.03426 0
M  V30 6204 H 583.517 -0.850563 -5.93739 0
M  V30 6205 H 585.196 -1.28721 -6.34066 0
M  V30 6206 N 585.328 1.53329 -0.364422 0
M  V30 6207 C 586.291 2.24323 0.470292 0
M  V30 6208 C 587.291 1.25068 1.01067 0
M  V30 6209 O 588.481 1.49354 0.896605 0
M  V30 6210 C 585.613 2.97908 1.65722 0
M  V30 6211 H 586.806 2.9952 -0.150917 0
M  V30 6212 H 584.359 1.55868 -0.116092 0
M  V30 6213 H 585.094 2.2695 2.31655 0
M  V30 6214 H 584.879 3.70732 1.27671 0
M  V30 6215 H 586.369 3.5188 2.24878 0
M  V30 6216 N 586.806 0.0935595 1.57322 0
M  V30 6217 C 588.052 -0.571355 1.94585 0
M  V30 6218 C 588.385 -1.67929 0.975366 0
M  V30 6219 O 587.66 -1.94498 0.00816206 0
M  V30 6220 C 587.943 -1.12797 3.41978 0
M  V30 6221 C 587.796 -0.0251881 4.49793 0
M  V30 6222 C 589.115 -2.02682 3.90651 0
M  V30 6223 H 586.234 -0.206223 0.70756 0
M  V30 6224 H 588.876 0.163956 1.89291 0
M  V30 6225 H 587.026 -1.75461 3.4662 0
M  V30 6226 H 588.698 0.608979 4.57263 0
M  V30 6227 H 586.941 0.641399 4.29032 0
M  V30 6228 H 587.612 -0.455433 5.50118 0
M  V30 6229 H 590.088 -1.49925 3.88152 0
M  V30 6230 H 588.964 -2.38555 4.94351 0
M  V30 6231 H 589.225 -2.94362 3.29854 0
M  V30 6232 N 588.284 -1.56567 -0.180126 0
M  V30 6233 C 589.53 -1.82658 -0.894859 0
M  V30 6234 C 589.885 -0.672826 -1.80252 0
M  V30 6235 O 589.178 0.331227 -1.88715 0
M  V30 6236 C 589.372 -3.1252 -1.73395 0
M  V30 6237 C 589.201 -4.40417 -0.909028 0
M  V30 6238 C 587.971 -5.01872 -0.587562 0
M  V30 6239 C 590.169 -5.13669 -0.254698 0
M  V30 6240 N 588.151 -6.13373 0.254428 0
M  V30 6241 C 589.522 -6.18373 0.448837 0
M  V30 6242 C 591.577 -4.97603 -0.171958 0
M  V30 6243 C 590.28 -7.08753 1.22725 0
M  V30 6244 C 592.306 -5.88418 0.593101 0
M  V30 6245 C 591.668 -6.92579 1.28503 0
M  V30 6246 H 587.767 -0.719493 -0.306356 0
M  V30 6247 H 590.351 -1.94021 -0.16247 0
M  V30 6248 H 588.522 -3.02365 -2.43783 0
M  V30 6249 H 590.254 -3.2664 -2.38931 0
M  V30 6250 H 587.009 -4.64666 -0.915557 0
M  V30 6251 H 587.433 -6.73721 0.665474 0
M  V30 6252 H 592.075 -4.17089 -0.692555 0
M  V30 6253 H 589.793 -7.88718 1.75923 0
M  V30 6254 H 593.379 -5.78059 0.658674 0
M  V30 6255 H 592.259 -7.61638 1.86754 0
M  V30 6256 N 589.762 0.448376 -1.51087 0
M  V30 6257 C 590.99 1.22143 -1.66999 0
M  V30 6258 C 591.405 1.85283 -0.362699 0
M  V30 6259 O 590.762 1.70236 0.65772 0
M  V30 6260 C 590.813 2.31357 -2.7777 0
M  V30 6261 O 590.534 1.70801 -4.03434 0
M  V30 6262 C 592.035 3.21836 -3.04855 0
M  V30 6263 H 589.255 0.368558 -0.560719 0
M  V30 6264 H 591.799 0.532618 -1.97442 0
M  V30 6265 H 589.954 2.95973 -2.49958 0
M  V30 6266 H 590.368 2.42895 -4.64868 0
M  V30 6267 H 591.842 3.94627 -3.85971 0
M  V30 6268 H 592.319 3.81949 -2.16821 0
M  V30 6269 H 592.925 2.62933 -3.34285 0
M  V30 6270 N 591.24 1.41047 0.703093 0
M  V30 6271 C 592.17 1.45067 1.82969 0
M  V30 6272 C 593.151 0.31016 1.67248 0
M  V30 6273 O 594.336 0.520548 1.87093 0
M  V30 6274 C 591.466 1.32478 3.2104 0
M  V30 6275 C 590.42 2.44262 3.51454 0
M  V30 6276 C 589.746 2.16742 4.88801 0
M  V30 6277 C 591.046 3.86606 3.51189 0
M  V30 6278 H 592.74 2.39353 1.79863 0
M  V30 6279 H 590.286 1.15206 0.863919 0
M  V30 6280 H 592.239 1.33904 3.99559 0
M  V30 6281 H 590.963 0.346735 3.24754 0
M  V30 6282 H 589.622 2.42107 2.75282 0
M  V30 6283 H 589.27 1.17299 4.89132 0
M  V30 6284 H 588.97 2.91643 5.10116 0
M  V30 6285 H 590.494 2.19872 5.69639 0
M  V30 6286 H 591.908 3.90517 4.19725 0
M  V30 6287 H 590.305 4.61128 3.84033 0
M  V30 6288 H 591.375 4.15296 2.50315 0
M  V30 6289 N 592.718 -0.936591 1.26751 0
M  V30 6290 C 593.651 -2.03619 1.03027 0
M  V30 6291 C 594.629 -1.62534 -0.0464619 0
M  V30 6292 O 595.813 -1.88251 0.0968873 0
M  V30 6293 C 592.94 -3.3402 0.561072 0
M  V30 6294 C 591.986 -3.9408 1.63105 0
M  V30 6295 S 592.819 -4.27782 3.22122 0
M  V30 6296 C 593.975 -5.61277 2.76982 0
M  V30 6297 H 594.208 -2.23429 1.96129 0
M  V30 6298 H 591.741 -1.07857 1.10482 0
M  V30 6299 H 593.699 -4.09424 0.297031 0
M  V30 6300 H 592.36 -3.12147 -0.349741 0
M  V30 6301 H 591.553 -4.88154 1.25386 0
M  V30 6302 H 591.155 -3.25227 1.84671 0
M  V30 6303 H 593.447 -6.40189 2.21731 0
M  V30 6304 H 594.39 -6.03887 3.69766 0
M  V30 6305 H 594.798 -5.21374 2.16402 0
M  V30 6306 N 594.196 -1.08629 -1.14182 0
M  V30 6307 C 595.144 -0.71284 -2.21408 0
M  V30 6308 C 596.138 0.282457 -1.67029 0
M  V30 6309 O 597.344 0.144783 -1.79417 0
M  V30 6310 H 593.719 -0.212497 -0.721352 0
M  V30 6311 H 595.69 -1.6265 -2.50175 0
M  V30 6312 C 594.439 -0.140704 -3.47415 0
M  V30 6313 H 593.762 -0.897739 -3.8959 0
M  V30 6314 H 595.202 0.0827677 -4.23919 0
M  V30 6315 C 593.661 1.122 -3.17668 0
M  V30 6316 O 594.191 2.20652 -3.35672 0
M  V30 6317 N 592.397 1.03328 -2.71609 0
M  V30 6318 H 591.944 0.150666 -2.57159 0
M  V30 6319 H 591.902 1.8789 -2.52081 0
M  V30 6320 N 595.674 1.31259 -0.872281 0
M  V30 6321 C 596.607 2.26544 -0.274394 0
M  V30 6322 C 597.585 1.51213 0.597776 0
M  V30 6323 O 598.769 1.80277 0.550687 0
M  V30 6324 C 595.896 3.33139 0.611256 0
M  V30 6325 C 594.942 4.26077 -0.189876 0
M  V30 6326 S 595.775 5.11971 -1.56989 0
M  V30 6327 C 596.931 6.2208 -0.690427 0
M  V30 6328 H 597.164 2.76908 -1.0821 0
M  V30 6329 H 594.697 1.3906 -0.670939 0
M  V30 6330 H 596.655 3.95024 1.11654 0
M  V30 6331 H 595.316 2.81525 1.39294 0
M  V30 6332 H 594.509 5.01657 0.485433 0
M  V30 6333 H 594.111 3.68701 -0.627339 0
M  V30 6334 H 596.403 6.77429 0.098001 0
M  V30 6335 H 597.346 6.93768 -1.41742 0
M  V30 6336 H 597.754 5.63915 -0.256953 0
M  V30 6337 N 597.152 0.631951 1.44375 0
M  V30 6338 C 598.382 0.143658 2.061 0
M  V30 6339 C 598.79 -1.18733 1.47306 0
M  V30 6340 O 598.133 -1.73943 0.590724 0
M  V30 6341 C 598.195 -0.0446102 3.59472 0
M  V30 6342 C 597.859 1.20835 4.40736 0
M  V30 6343 C 598.856 2.13224 4.74164 0
M  V30 6344 C 596.541 1.44399 4.81097 0
M  V30 6345 C 598.535 3.27487 5.46838 0
M  V30 6346 C 596.222 2.58959 5.53519 0
M  V30 6347 C 597.22 3.50329 5.86309 0
M  V30 6348 O 596.908 4.62891 6.57257 0
M  V30 6349 H 596.64 0.0772939 0.671567 0
M  V30 6350 H 599.194 0.866677 1.8622 0
M  V30 6351 H 597.424 -0.822783 3.77845 0
M  V30 6352 H 599.113 -0.487561 4.02961 0
M  V30 6353 H 599.879 1.96253 4.4352 0
M  V30 6354 H 595.758 0.741696 4.54994 0
M  V30 6355 H 599.302 3.98826 5.72349 0
M  V30 6356 H 595.199 2.75873 5.83579 0
M  V30 6357 H 595.967 4.61883 6.75726 0
M  V30 6358 N 598.631 -1.53133 0.372548 0
M  V30 6359 C 599.541 -2.29671 -0.478379 0
M  V30 6360 C 600.557 -1.35913 -1.08644 0
M  V30 6361 O 601.733 -1.68975 -1.09588 0
M  V30 6362 C 598.798 -3.07625 -1.599 0
M  V30 6363 C 597.859 -4.17061 -1.01776 0
M  V30 6364 C 597.092 -4.91289 -2.08497 0
M  V30 6365 O 597.315 -4.65442 -3.29727 0
M  V30 6366 O 596.249 -5.7705 -1.71164 0
M  V30 6367 H 600.075 -3.03355 0.144649 0
M  V30 6368 H 597.66 -1.48773 0.136729 0
M  V30 6369 H 599.542 -3.56281 -2.25038 0
M  V30 6370 H 598.217 -2.3677 -2.2073 0
M  V30 6371 H 597.124 -3.72641 -0.330098 0
M  V30 6372 H 598.457 -4.90102 -0.453915 0
M  V30 6373 N 600.109 -0.101901 -1.5727 0
M  V30 6374 C 601.525 0.254739 -1.57554 0
M  V30 6375 C 601.725 1.67937 -1.11352 0
M  V30 6376 O 600.781 2.39722 -0.793081 0
M  V30 6377 C 602.094 0.036975 -3.00677 0
M  V30 6378 C 603.642 0.104199 -3.12827 0
M  V30 6379 C 604.117 -0.0856565 -4.5792 0
M  V30 6380 N 605.608 -0.0310498 -4.6319 0
M  V30 6381 C 606.343 -0.153099 -5.73196 0
M  V30 6382 N 605.839 -0.330364 -6.92012 0
M  V30 6383 N 607.632 -0.0938854 -5.62022 0
M  V30 6384 H 599.783 -1.03263 -1.85609 0
M  V30 6385 H 602.046 -0.405251 -0.857016 0
M  V30 6386 H 601.752 -0.947254 -3.38703 0
M  V30 6387 H 601.626 0.776335 -3.69124 0
M  V30 6388 H 604.013 1.07894 -2.74669 0
M  V30 6389 H 604.094 -0.666762 -2.46957 0
M  V30 6390 H 603.738 -1.05729 -4.96773 0
M  V30 6391 H 603.668 0.705082 -5.21858 0
M  V30 6392 H 606.159 0.103141 -3.77759 0
M  V30 6393 H 606.472 -0.41482 -7.71686 0
M  V30 6394 H 604.817 -0.366119 -6.94035 0
M  V30 6395 H 608.008 0.0435168 -4.6808 0
M  V30 6396 H 608.181 -0.19245 -6.47714 0
M  V30 6397 N 601.587 1.56661 0.17182 0
M  V30 6398 C 602.55 1.9549 1.19651 0
M  V30 6399 C 603.55 0.838501 1.37207 0
M  V30 6400 O 604.74 1.10556 1.34622 0
M  V30 6401 C 601.872 2.24927 2.56166 0
M  V30 6402 H 603.065 2.87184 0.864007 0
M  V30 6403 H 600.618 1.50711 0.41425 0
M  V30 6404 H 601.353 1.35944 2.94431 0
M  V30 6405 H 601.138 3.06301 2.4479 0
M  V30 6406 H 602.628 2.55891 3.30014 0
M  V30 6407 N 603.065 -0.440357 1.51323 0
M  V30 6408 C 604.012 -1.53429 1.72419 0
M  V30 6409 C 604.982 -1.56165 0.565826 0
M  V30 6410 O 606.167 -1.73222 0.799917 0
M  V30 6411 C 603.307 -2.91169 1.85242 0
M  V30 6412 C 602.42 -2.97985 3.12777 0
M  V30 6413 C 601.555 -4.26829 3.16212 0
M  V30 6414 C 600.594 -4.27501 4.38074 0
M  V30 6415 N 599.731 -5.47866 4.39076 0
M  V30 6416 H 604.571 -1.34743 2.65797 0
M  V30 6417 H 602.108 -0.654608 1.31732 0
M  V30 6418 H 604.066 -3.71087 1.90658 0
M  V30 6419 H 602.696 -3.0842 0.952744 0
M  V30 6420 H 601.748 -2.10749 3.16685 0
M  V30 6421 H 603.06 -2.94342 4.02696 0
M  V30 6422 H 602.214 -5.15118 3.20527 0
M  V30 6423 H 600.953 -4.33124 2.24176 0
M  V30 6424 H 599.958 -3.37606 4.33938 0
M  V30 6425 H 601.183 -4.22873 5.31371 0
M  V30 6426 H 599.129 -5.54887 3.49909 0
M  V30 6427 H 599.046 -5.46091 5.22801 0
M  V30 6428 H 600.314 -6.38195 4.4758 0
M  V30 6429 N 604.543 -1.41418 -0.695603 0
M  V30 6430 C 605.792 -1.40073 -1.4513 0
M  V30 6431 C 606.105 -0.0130439 -1.95596 0
M  V30 6432 O 607.311 0.123032 -2.71221 0
M  V30 6433 C 605.767 -2.46286 -2.62433 0
M  V30 6434 C 605.375 -3.90962 -2.18753 0
M  V30 6435 C 607.119 -2.54077 -3.40066 0
M  V30 6436 C 605.026 -4.88728 -3.33015 0
M  V30 6437 H 603.956 -0.520903 -0.545138 0
M  V30 6438 H 606.607 -1.67242 -0.75515 0
M  V30 6439 H 604.989 -2.12248 -3.34315 0
M  V30 6440 H 606.163 -4.34248 -1.54161 0
M  V30 6441 H 604.478 -3.86831 -1.54114 0
M  V30 6442 H 607.075 -3.24303 -4.25125 0
M  V30 6443 H 607.418 -1.5776 -3.8525 0
M  V30 6444 H 607.951 -2.87206 -2.75241 0
M  V30 6445 H 604.69 -5.86449 -2.92844 0
M  V30 6446 H 604.21 -4.50091 -3.96457 0
M  V30 6447 H 605.889 -5.09483 -3.98793 0
M  V30 6448 N 606.021 0.929856 -1.27246 0
M  V30 6449 C 607.437 1.20542 -1.04603 0
M  V30 6450 C 607.637 2.00276 0.221754 0
M  V30 6451 O 606.693 2.34835 0.927833 0
M  V30 6452 C 608.006 1.95566 -2.28417 0
M  V30 6453 C 609.554 2.08513 -2.33433 0
M  V30 6454 C 610.029 2.86943 -3.5697 0
M  V30 6455 N 611.52 2.94512 -3.57515 0
M  V30 6456 C 612.255 3.55656 -4.49774 0
M  V30 6457 N 611.751 4.18209 -5.52334 0
M  V30 6458 N 613.544 3.53038 -4.37402 0
M  V30 6459 H 605.695 0.397113 -2.08655 0
M  V30 6460 H 607.958 0.238277 -0.917566 0
M  V30 6461 H 607.664 1.44395 -3.20691 0
M  V30 6462 H 607.538 2.9619 -2.33563 0
M  V30 6463 H 609.925 2.58872 -1.41666 0
M  V30 6464 H 610.006 1.07117 -2.32292 0
M  V30 6465 H 609.65 2.37268 -4.49072 0
M  V30 6466 H 609.58 3.8862 -3.55362 0
M  V30 6467 H 612.071 2.50053 -2.83341 0
M  V30 6468 H 612.384 4.62796 -6.18902 0
M  V30 6469 H 610.729 4.16761 -5.56179 0
M  V30 6470 H 613.92 3.0337 -3.56489 0
M  V30 6471 H 614.093 4.004 -5.09493 0
M  V30 6472 N 607.499 1.09233 1.13605 0
M  V30 6473 C 608.747 0.825525 1.84471 0
M  V30 6474 C 609.068 -0.650702 1.83823 0
M  V30 6475 O 608.338 -1.47204 1.29259 0
M  V30 6476 H 606.918 0.3024 0.683054 0
M  V30 6477 H 609.58 1.38006 1.37624 0
M  V30 6478 H 608.676 1.17727 2.89045 0
M  V30 6479 N 608.977 -1.30795 0.87923 0
M  V30 6480 C 609.907 -2.30742 0.357796 0
M  V30 6481 C 610.888 -1.60747 -0.556283 0
M  V30 6482 O 612.073 -1.88393 -0.47135 0
M  V30 6483 C 609.203 -3.44583 -0.433555 0
M  V30 6484 C 608.157 -4.26235 0.388251 0
M  V30 6485 C 607.483 -5.32073 -0.529352 0
M  V30 6486 C 608.783 -4.96303 1.62729 0
M  V30 6487 H 610.477 -2.74605 1.19299 0
M  V30 6488 H 608.023 -1.32017 0.575104 0
M  V30 6489 H 609.976 -4.13563 -0.808934 0
M  V30 6490 H 608.7 -2.99511 -1.30234 0
M  V30 6491 H 607.359 -3.58936 0.745695 0
M  V30 6492 H 607.007 -4.83249 -1.39569 0
M  V30 6493 H 606.707 -5.87598 0.0166741 0
M  V30 6494 H 608.231 -6.0391 -0.901373 0
M  V30 6495 H 609.645 -5.5783 1.32283 0
M  V30 6496 H 608.042 -5.61666 2.11309 0
M  V30 6497 H 609.112 -4.22758 2.37494 0
M  V30 6498 N 610.455 -0.639598 -1.44038 0
M  V30 6499 C 611.732 -0.078012 -1.95444 0
M  V30 6500 C 612.112 1.39847 -1.58133 0
M  V30 6501 O 611.46 2.11714 -0.859614 0
M  V30 6502 C 611.67 -0.309832 -3.47622 0
M  V30 6503 C 613.018 -0.207521 -4.24093 0
M  V30 6504 O 614.042 -0.241653 -3.55379 0
M  V30 6505 O 612.901 -0.119641 -5.46369 0
M  V30 6506 H 609.995 0.0174534 -0.826816 0
M  V30 6507 H 612.541 -0.711891 -1.54046 0
M  V30 6508 H 611.313 -1.33401 -3.67858 0
M  V30 6509 H 610.936 0.357777 -3.95987 0
M  V30 6510 N 611.933 1.52934 -0.380664 0
M  V30 6511 C 612.881 2.27727 0.47361 0
M  V30 6512 C 613.875 1.31288 1.0705 0
M  V30 6513 O 615.081 1.4886 1.01197 0
M  V30 6514 H 611.456 0.732189 0.171475 0
M  V30 6515 H 613.427 2.97864 -0.178785 0
M  V30 6516 C 612.176 3.0904 1.59341 0
M  V30 6517 H 611.499 3.831 1.14343 0
M  V30 6518 H 612.939 3.64527 2.16555 0
M  V30 6519 C 611.398 2.20813 2.54447 0
M  V30 6520 O 611.928 1.82907 3.57642 0
M  V30 6521 N 610.134 1.85145 2.23986 0
M  V30 6522 H 609.681 2.16169 1.40103 0
M  V30 6523 H 609.639 1.26402 2.87871 0
M  V30 6524 N 613.412 0.11024 1.57214 0
M  V30 6525 C 614.658 -0.544479 1.95977 0
M  V30 6526 C 615.013 -1.64845 0.992171 0
M  V30 6527 O 614.306 -1.91589 0.0206981 0
M  V30 6528 C 614.5 -1.13102 3.39032 0
M  V30 6529 C 614.329 -0.0854079 4.49619 0
M  V30 6530 C 613.099 0.343373 5.04132 0
M  V30 6531 C 615.297 0.692232 5.0962 0
M  V30 6532 N 613.279 1.37567 5.98288 0
M  V30 6533 C 614.65 1.57596 5.99636 0
M  V30 6534 C 616.705 0.744085 4.92309 0
M  V30 6535 C 615.408 2.50701 6.74197 0
M  V30 6536 C 617.434 1.6628 5.67543 0
M  V30 6537 C 616.796 2.53412 6.57238 0
M  V30 6538 H 612.895 -0.169124 0.763493 0
M  V30 6539 H 615.479 0.196326 1.93708 0
M  V30 6540 H 613.65 -1.84158 3.41965 0
M  V30 6541 H 615.382 -1.74934 3.64939 0
M  V30 6542 H 612.137 -0.0473277 4.73576 0
M  V30 6543 H 612.561 1.89048 6.50069 0
M  V30 6544 H 617.203 0.0845825 4.22715 0
M  V30 6545 H 614.921 3.17669 7.43043 0
M  V30 6546 H 618.507 1.70825 5.56156 0
M  V30 6547 H 617.387 3.23347 7.14434 0
M  V30 6548 N 614.89 -1.56749 -0.16351 0
M  V30 6549 C 616.138 -1.82074 -0.87713 0
M  V30 6550 C 616.459 -0.688503 -1.82441 0
M  V30 6551 O 615.729 0.291085 -1.93725 0
M  V30 6552 H 614.309 -0.671677 -0.326893 0
M  V30 6553 H 616.971 -1.9423 -0.161459 0
M  V30 6554 H 616.067 -2.76407 -1.44934 0
M  V30 6555 N 616.368 0.432326 -1.51554 0
M  V30 6556 C 617.779 1.01202 -1.56892 0
M  V30 6557 C 618.13 1.92175 -0.395394 0
M  V30 6558 O 617.255 2.10844 0.487198 0
M  V30 6559 C 617.85 1.84217 -2.8434 0
M  V30 6560 C 616.409 2.37228 -2.92233 0
M  V30 6561 C 615.556 1.16576 -2.51606 0
M  V30 6562 H 618.507 0.213407 -1.57259 0
M  V30 6563 H 618.528 2.69721 -2.68385 0
M  V30 6564 H 618.04 1.17979 -3.69733 0
M  V30 6565 H 616.141 3.06905 -2.11282 0
M  V30 6566 H 616.254 2.69682 -3.95991 0
M  V30 6567 H 614.618 1.51263 -2.04919 0
M  V30 6568 H 615.401 0.519404 -3.39348 0
M  V30 6569 N 617.846 1.41785 0.688094 0
M  V30 6570 C 619.076 1.44705 1.47459 0
M  V30 6571 C 619.484 0.052916 1.89126 0
M  V30 6572 O 618.827 -0.939781 1.57841 0
M  V30 6573 C 618.889 2.29935 2.76352 0
M  V30 6574 C 618.553 3.77996 2.56843 0
M  V30 6575 C 619.55 4.69976 2.22304 0
M  V30 6576 C 617.235 4.2212 2.7225 0
M  V30 6577 C 619.229 6.04068 2.03421 0
M  V30 6578 C 616.916 5.56275 2.52985 0
M  V30 6579 C 617.914 6.47065 2.18621 0
M  V30 6580 O 617.602 7.78744 1.9953 0
M  V30 6581 H 617.334 0.494703 0.460701 0
M  V30 6582 H 619.888 1.86802 0.854057 0
M  V30 6583 H 618.118 1.82664 3.40839 0
M  V30 6584 H 619.807 2.24467 3.38186 0
M  V30 6585 H 620.573 4.37175 2.10008 0
M  V30 6586 H 616.452 3.51752 2.97979 0
M  V30 6587 H 619.996 6.74897 1.76523 0
M  V30 6588 H 615.893 5.88653 2.64873 0
M  V30 6589 H 616.661 7.89966 2.14234 0
M  V30 6590 N 619.324 -0.923095 1.27737 0
M  V30 6591 C 620.74 -1.19985 1.05241 0
M  V30 6592 C 620.94 -2.00391 -0.21113 0
M  V30 6593 O 619.996 -2.35324 -0.915366 0
M  V30 6594 C 621.309 -1.94352 2.29451 0
M  V30 6595 C 622.857 -2.07273 2.34536 0
M  V30 6596 C 623.332 -2.85046 3.58487 0
M  V30 6597 N 624.823 -2.92612 3.59072 0
M  V30 6598 C 625.558 -3.53266 4.51654 0
M  V30 6599 N 625.054 -4.15274 5.54545 0
M  V30 6600 N 626.847 -3.50714 4.39268 0
M  V30 6601 H 618.998 -0.386042 2.08862 0
M  V30 6602 H 621.261 -0.233407 0.918817 0
M  V30 6603 H 620.967 -1.42692 3.21453 0
M  V30 6604 H 620.841 -2.94947 2.3513 0
M  V30 6605 H 623.228 -2.58117 1.43037 0
M  V30 6606 H 623.309 -1.05884 2.32857 0
M  V30 6607 H 622.953 -2.34884 4.50324 0
M  V30 6608 H 622.883 -3.8673 3.57418 0
M  V30 6609 H 625.374 -2.48547 2.84663 0
M  V30 6610 H 625.687 -4.59507 6.21348 0
M  V30 6611 H 624.032 -4.13806 5.58382 0
M  V30 6612 H 627.223 -3.01475 3.58093 0
M  V30 6613 H 627.396 -3.97693 5.1161 0
M  V30 6614 N 620.802 -1.09834 -1.13024 0
M  V30 6615 C 622.079 -0.749225 -1.80682 0
M  V30 6616 C 622.459 0.765171 -1.96744 0
M  V30 6617 O 621.807 1.68912 -1.53886 0
M  V30 6618 C 622.017 -1.49311 -3.15448 0
M  V30 6619 C 623.365 -1.66162 -3.90737 0
M  V30 6620 O 624.389 -1.45597 -3.25085 0
M  V30 6621 O 623.248 -2.00211 -5.08505 0
M  V30 6622 H 620.342 -0.269614 -0.781817 0
M  V30 6623 H 622.888 -1.20078 -1.19914 0
M  V30 6624 H 621.66 -2.52407 -2.99009 0
M  V30 6625 H 621.283 -1.034 -3.8392 0
M  V30 6626 N 622.28 1.30327 -0.886154 0
M  V30 6627 C 623.528 1.9571 -0.504195 0
M  V30 6628 C 623.849 1.70294 0.950003 0
M  V30 6629 O 623.119 1.02718 1.66811 0
M  V30 6630 H 621.699 0.72412 -0.183465 0
M  V30 6631 H 624.361 1.58835 -1.12949 0
M  V30 6632 H 623.457 3.04704 -0.675431 0
M  V30 6633 N 623.758 0.647228 1.43697 0
M  V30 6634 C 625.006 0.157876 2.01482 0
M  V30 6635 C 625.327 -1.23039 1.51282 0
M  V30 6636 O 624.597 -1.82071 0.722982 0
M  V30 6637 H 623.177 0.0553745 0.744945 0
M  V30 6638 H 625.839 0.83755 1.75986 0
M  V30 6639 H 624.935 0.137895 3.11795 0
M  V30 6640 N 625.236 -1.5273 0.388769 0
M  V30 6641 C 626.169 -2.22861 -0.490752 0
M  V30 6642 C 627.147 -1.22912 -1.06449 0
M  V30 6643 O 628.331 -1.51896 -1.11624 0
M  V30 6644 C 625.458 -2.94141 -1.67925 0
M  V30 6645 C 624.504 -4.08355 -1.23081 0
M  V30 6646 S 625.337 -5.35077 -0.212786 0
M  V30 6647 C 626.493 -6.09879 -1.40708 0
M  V30 6648 H 626.726 -2.97115 0.104787 0
M  V30 6649 H 624.259 -1.53428 0.172956 0
M  V30 6650 H 626.217 -3.35818 -2.36085 0
M  V30 6651 H 624.878 -2.19568 -2.24608 0
M  V30 6652 H 624.071 -4.57328 -2.11818 0
M  V30 6653 H 623.673 -3.68688 -0.628121 0
M  V30 6654 H 625.965 -6.36018 -2.33424 0
M  V30 6655 H 626.908 -7.01586 -0.958271 0
M  V30 6656 H 627.316 -5.40646 -1.62364 0
M  V30 6657 N 626.714 -0.118576 -1.57153 0
M  V30 6658 C 627.662 0.849114 -2.16547 0
M  V30 6659 C 628.656 1.27567 -1.11458 0
M  V30 6660 O 629.862 1.24746 -1.29763 0
M  V30 6661 H 626.237 0.291935 -0.693021 0
M  V30 6662 H 628.208 0.323693 -2.96639 0
M  V30 6663 C 626.957 2.08951 -2.77912 0
M  V30 6664 H 626.28 1.77021 -3.58474 0
M  V30 6665 H 627.72 2.74666 -3.23008 0
M  V30 6666 C 626.179 2.87899 -1.74974 0
M  V30 6667 O 626.709 3.83268 -1.20285 0
M  V30 6668 N 624.915 2.51884 -1.44924 0
M  V30 6669 H 624.462 1.74397 -1.89587 0
M  V30 6670 H 624.42 3.05003 -0.762921 0
M  V30 6671 N 628.193 1.56834 0.155195 0
M  V30 6672 C 629.442 1.82088 0.867567 0
M  V30 6673 C 629.755 0.69849 1.82703 0
M  V30 6674 O 630.961 0.836407 2.58295 0
M  V30 6675 C 629.417 3.22707 1.59336 0
M  V30 6676 C 629.025 4.42859 0.676719 0
M  V30 6677 C 630.769 3.57242 2.293 0
M  V30 6678 C 628.676 5.74501 1.40367 0
M  V30 6679 H 627.606 0.679057 0.327715 0
M  V30 6680 H 630.257 1.83105 0.120351 0
M  V30 6681 H 628.639 3.16054 2.38591 0
M  V30 6682 H 629.813 4.60731 -0.0800196 0
M  V30 6683 H 628.128 4.16311 0.0859129 0
M  V30 6684 H 630.725 4.52847 2.84312 0
M  V30 6685 H 631.068 2.82901 3.05406 0
M  V30 6686 H 631.601 3.6552 1.56972 0
M  V30 6687 H 628.34 6.51915 0.684623 0
M  V30 6688 H 627.86 5.60579 2.13332 0
M  V30 6689 H 629.539 6.17016 1.94681 0
M  V30 6690 N 629.671 -0.424282 1.51781 0
M  V30 6691 C 631.082 -1.00368 1.57427 0
M  V30 6692 C 631.433 -1.91962 0.40558 0
M  V30 6693 O 630.558 -2.111 -0.47601 0
M  V30 6694 C 631.153 -1.82707 2.85313 0
M  V30 6695 C 629.712 -2.35675 2.93487 0
M  V30 6696 C 628.859 -1.1524 2.5222 0
M  V30 6697 H 631.81 -0.205064 1.5737 0
M  V30 6698 H 631.831 -2.68294 2.69812 0
M  V30 6699 H 631.343 -1.16017 3.70353 0
M  V30 6700 H 629.444 -3.05781 2.12906 0
M  V30 6701 H 629.557 -2.67578 3.97415 0
M  V30 6702 H 627.921 -1.50174 2.05718 0
M  V30 6703 H 628.704 -0.5014 3.39619 0
M  V30 6704 N 631.149 -1.42148 -0.680565 0
M  V30 6705 C 632.059 -1.47565 -1.82378 0
M  V30 6706 C 633.075 -0.36489 -1.70131 0
M  V30 6707 O 634.251 -0.614916 -1.91783 0
M  V30 6708 C 631.316 -1.37013 -3.18478 0
M  V30 6709 C 630.377 -2.58532 -3.42724 0
M  V30 6710 C 629.61 -2.48473 -4.72331 0
M  V30 6711 O 629.833 -1.51745 -5.49845 0
M  V30 6712 O 628.767 -3.38503 -4.97694 0
M  V30 6713 H 632.593 -2.44045 -1.80764 0
M  V30 6714 H 630.178 -1.23849 -0.835569 0
M  V30 6715 H 632.06 -1.33468 -3.99705 0
M  V30 6716 H 630.735 -0.436552 -3.20743 0
M  V30 6717 H 629.642 -2.67652 -2.61368 0
M  V30 6718 H 630.975 -3.50769 -3.45286 0
M  V30 6719 N 632.627 0.916307 -1.28225 0
M  V30 6720 C 633.559 2.02303 -1.07732 0
M  V30 6721 C 634.572 1.62773 -0.0298421 0
M  V30 6722 O 635.761 1.76406 -0.272626 0
M  V30 6723 C 632.861 3.33282 -0.614504 0
M  V30 6724 C 632.034 4.01439 -1.73682 0
M  V30 6725 C 631.093 5.10698 -1.26781 0
M  V30 6726 O 630.119 5.34038 -1.96958 0
M  V30 6727 N 631.321 5.80355 -0.129624 0
M  V30 6728 H 634.086 2.20442 -2.03041 0
M  V30 6729 H 631.647 1.08744 -1.19943 0
M  V30 6730 H 633.639 4.03699 -0.284397 0
M  V30 6731 H 632.209 3.11633 0.245664 0
M  V30 6732 H 631.429 3.24604 -2.23665 0
M  V30 6733 H 632.717 4.43721 -2.48976 0
M  V30 6734 H 632.115 5.6386 0.455847 0
M  V30 6735 H 630.672 6.51647 0.141224 0
M  V30 6736 N 634.105 1.10431 1.1244 0
M  V30 6737 C 635.053 0.747974 2.20246 0
M  V30 6738 C 636.047 -0.255848 1.67457 0
M  V30 6739 O 637.253 -0.116221 1.79624 0
M  V30 6740 H 633.628 0.223946 0.71788 0
M  V30 6741 H 635.599 1.6661 2.47556 0
M  V30 6742 C 634.348 0.195957 3.47147 0
M  V30 6743 H 633.671 0.959606 3.88113 0
M  V30 6744 H 635.111 -0.0153154 4.23997 0
M  V30 6745 C 633.57 -1.07132 3.19413 0
M  V30 6746 O 634.1 -2.15284 3.3914 0
M  V30 6747 N 632.306 -0.98994 2.73219 0
M  V30 6748 H 631.853 -0.109736 2.57366 0
M  V30 6749 H 631.811 -1.83856 2.55038 0
M  V30 6750 N 635.583 -1.29855 0.893053 0
M  V30 6751 C 636.531 -2.29867 0.355512 0
M  V30 6752 C 637.525 -1.60502 -0.541801 0
M  V30 6753 O 638.731 -1.74902 -0.425339 0
M  V30 6754 H 635.106 -0.745805 0.0963247 0
M  V30 6755 H 637.077 -2.72655 1.21252 0
M  V30 6756 C 635.826 -3.453 -0.407801 0
M  V30 6757 H 635.149 -3.98864 0.273426 0
M  V30 6758 H 636.589 -4.17334 -0.748887 0
M  V30 6759 C 635.048 -2.96051 -1.60795 0
M  V30 6760 O 635.578 -2.96763 -2.7073 0
M  V30 6761 N 633.784 -2.51963 -1.44786 0
M  V30 6762 H 633.331 -2.51583 -0.553498 0
M  V30 6763 H 633.289 -2.1937 -2.2522 0
M  V30 6764 N 637.061 -0.65484 -1.43351 0
M  V30 6765 C 638.309 -0.168559 -2.01396 0
M  V30 6766 C 638.63 1.22235 -1.51933 0
M  V30 6767 O 637.9 1.81685 -0.732627 0
M  V30 6768 H 636.48 -0.0593244 -0.744641 0
M  V30 6769 H 639.142 -0.846871 -1.75539 0
M  V30 6770 H 638.238 -0.154428 -3.11718 0
M  V30 6771 N 638.539 1.52521 -0.396863 0
M  V30 6772 C 639.769 2.05792 0.182485 0
M  V30 6773 C 640.177 1.26784 1.40436 0
M  V30 6774 O 639.52 0.309617 1.81072 0
M  V30 6775 C 639.582 3.54291 0.609781 0
M  V30 6776 C 639.246 4.5426 -0.499674 0
M  V30 6777 C 640.243 5.01812 -1.35944 0
M  V30 6778 C 637.928 4.97827 -0.668864 0
M  V30 6779 C 639.922 5.91562 -2.37346 0
M  V30 6780 C 637.609 5.87376 -1.68621 0
M  V30 6781 C 638.607 6.34137 -2.53692 0
M  V30 6782 O 638.295 7.21915 -3.53686 0
M  V30 6783 H 638.027 0.675362 0.0293583 0
M  V30 6784 H 640.581 1.97539 -0.56281 0
M  V30 6785 H 638.811 3.60188 1.40717 0
M  V30 6786 H 640.5 3.90267 1.11565 0
M  V30 6787 H 641.266 4.68879 -1.24008 0
M  V30 6788 H 637.145 4.60997 -0.0163971 0
M  V30 6789 H 640.689 6.27983 -3.03782 0
M  V30 6790 H 636.586 6.19723 -1.80593 0
M  V30 6791 H 637.354 7.39996 -3.49784 0
M  V30 6792 N 640.017 0.126909 1.57088 0
M  V30 6793 C 641.428 -0.397201 1.82426 0
M  V30 6794 C 641.779 -1.66084 1.04453 0
M  V30 6795 O 640.904 -2.14534 0.283552 0
M  V30 6796 C 641.499 -0.727411 3.30899 0
M  V30 6797 C 640.058 -1.19612 3.56889 0
M  V30 6798 C 639.205 -0.20885 2.76512 0
M  V30 6799 H 642.156 0.351924 1.54749 0
M  V30 6800 H 642.177 -1.58407 3.45959 0
M  V30 6801 H 641.689 0.19247 3.87622 0
M  V30 6802 H 639.79 -2.13263 3.05532 0
M  V30 6803 H 639.903 -1.13598 4.65438 0
M  V30 6804 H 638.267 -0.697479 2.44964 0
M  V30 6805 H 639.05 0.704267 3.35998 0
M  V30 6806 N 641.495 -1.56914 -0.146875 0
M  V30 6807 C 642.772 -1.74273 -0.888165 0
M  V30 6808 C 643.152 -0.69496 -1.99333 0
M  V30 6809 O 642.5 0.286093 -2.26702 0
M  V30 6810 C 642.71 -3.18336 -1.43051 0
M  V30 6811 C 644.058 -3.80024 -1.89387 0
M  V30 6812 O 645.082 -3.21765 -1.52792 0
M  V30 6813 O 643.941 -4.82367 -2.56874 0
M  V30 6814 H 641.035 -0.712565 -0.419738 0
M  V30 6815 H 643.581 -1.6918 -0.132791 0
M  V30 6816 H 642.353 -3.86092 -0.636274 0
M  V30 6817 H 641.976 -3.27854 -2.24938 0
M  V30 6818 N 642.974 0.416227 -1.52004 0
M  V30 6819 C 644.223 1.16088 -1.64944 0
M  V30 6820 C 644.536 1.91835 -0.381928 0
M  V30 6821 O 645.742 2.6867 -0.391013 0
M  V30 6822 C 644.198 2.1124 -2.91386 0
M  V30 6823 C 643.806 1.41042 -4.25219 0
M  V30 6824 C 645.55 2.86008 -3.13688 0
M  V30 6825 C 643.457 2.34801 -5.42791 0
M  V30 6826 H 642.387 0.437041 -0.61442 0
M  V30 6827 H 645.038 0.425971 -1.78487 0
M  V30 6828 H 643.42 2.88254 -2.71525 0
M  V30 6829 H 644.594 0.694416 -4.55538 0
M  V30 6830 H 642.909 0.78344 -4.08964 0
M  V30 6831 H 645.506 3.56286 -3.98703 0
M  V30 6832 H 645.849 3.48556 -2.27628 0
M  V30 6833 H 646.382 2.16095 -3.33988 0
M  V30 6834 H 643.121 1.7691 -6.31176 0
M  V30 6835 H 642.641 3.04395 -5.16821 0
M  V30 6836 H 644.32 2.9548 -5.75587 0
M  V30 6837 N 644.452 1.42507 0.673017 0
M  V30 6838 C 645.382 1.48916 1.79851 0
M  V30 6839 C 646.363 0.345566 1.66553 0
M  V30 6840 O 647.548 0.560116 1.85947 0
M  V30 6841 C 644.678 1.39258 3.18158 0
M  V30 6842 C 643.632 2.51662 3.46194 0
M  V30 6843 C 642.958 2.27062 4.84094 0
M  V30 6844 C 644.258 3.93968 3.42909 0
M  V30 6845 H 645.952 2.43114 1.74745 0
M  V30 6846 H 643.498 1.17013 0.839288 0
M  V30 6847 H 645.451 1.42349 3.96629 0
M  V30 6848 H 644.175 0.415542 3.23946 0
M  V30 6849 H 642.834 2.47891 2.70084 0
M  V30 6850 H 642.482 1.27648 4.86534 0
M  V30 6851 H 642.182 3.02398 5.03815 0
M  V30 6852 H 643.706 2.31905 5.64847 0
M  V30 6853 H 645.12 3.99332 4.11347 0
M  V30 6854 H 643.517 4.6917 3.74165 0
M  V30 6855 H 644.587 4.20512 2.41449 0
M  V30 6856 N 645.93 -0.909495 1.28709 0
M  V30 6857 C 647.207 -1.63865 1.06806 0
M  V30 6858 C 647.587 -2.07445 -0.391143 0
M  V30 6859 O 646.935 -1.82269 -1.37805 0
M  V30 6860 C 647.145 -2.82692 2.04661 0
M  V30 6861 C 648.493 -3.5361 2.35042 0
M  V30 6862 O 649.517 -2.92847 2.02779 0
M  V30 6863 O 648.376 -4.63131 2.90124 0
M  V30 6864 H 645.47 -0.719065 0.408502 0
M  V30 6865 H 648.016 -0.958424 1.40044 0
M  V30 6866 H 646.788 -2.47614 3.0299 0
M  V30 6867 H 646.411 -3.58426 1.72095 0
M  V30 6868 N 647.408 -1.11026 -1.11852 0
M  V30 6869 C 648.318 -0.777252 -2.2135 0
M  V30 6870 C 649.334 0.227821 -1.72502 0
M  V30 6871 O 650.51 0.0650587 -2.01295 0
M  V30 6872 C 647.575 -0.220668 -3.45997 0
M  V30 6873 C 646.636 -1.2838 -4.09655 0
M  V30 6874 C 645.869 -0.753678 -5.28352 0
M  V30 6875 O 646.092 0.417779 -5.68868 0
M  V30 6876 O 645.026 -1.51647 -5.82483 0
M  V30 6877 H 648.852 -1.69141 -2.5224 0
M  V30 6878 H 646.437 -0.885836 -1.20305 0
M  V30 6879 H 648.319 0.0855756 -4.21313 0
M  V30 6880 H 646.994 0.666262 -3.16769 0
M  V30 6881 H 645.901 -1.64299 -3.3609 0
M  V30 6882 H 647.234 -2.14396 -4.43052 0
M  V30 6883 N 648.886 1.2938 -0.899927 0
M  V30 6884 C 649.849 2.25983 -0.382677 0
M  V30 6885 C 650.849 1.53366 0.483259 0
M  V30 6886 O 652.039 1.71798 0.28828 0
M  V30 6887 C 649.171 3.37878 0.452915 0
M  V30 6888 H 650.364 2.73252 -1.23586 0
M  V30 6889 H 647.917 1.40825 -0.678088 0
M  V30 6890 H 648.652 2.95949 1.32608 0
M  V30 6891 H 648.437 3.91742 -0.167562 0
M  V30 6892 H 649.927 4.09746 0.806107 0
M  V30 6893 N 650.364 0.662433 1.43002 0
M  V30 6894 C 651.78 0.330835 1.56133 0
M  V30 6895 C 651.98 -1.16454 1.64441 0
M  V30 6896 O 651.036 -1.94964 1.60453 0
M  V30 6897 C 652.349 1.05029 2.81761 0
M  V30 6898 C 653.897 1.03142 2.95518 0
M  V30 6899 C 654.372 1.73196 4.2399 0
M  V30 6900 N 655.863 1.70004 4.30875 0
M  V30 6901 C 656.598 2.21074 5.29069 0
M  V30 6902 N 656.094 2.80473 6.33488 0
M  V30 6903 N 657.887 2.1152 5.20784 0
M  V30 6904 H 650.038 1.63272 1.35853 0
M  V30 6905 H 652.301 0.687149 0.653092 0
M  V30 6906 H 652.007 2.10542 2.81718 0
M  V30 6907 H 651.881 0.607664 3.72273 0
M  V30 6908 H 654.268 -0.0153339 2.95096 0
M  V30 6909 H 654.349 1.51282 2.0627 0
M  V30 6910 H 653.993 2.77833 4.25172 0
M  V30 6911 H 653.923 1.22515 5.1215 0
M  V30 6912 H 656.414 1.26667 3.56039 0
M  V30 6913 H 656.727 3.17094 7.04749 0
M  V30 6914 H 655.072 2.84538 6.34085 0
M  V30 6915 H 658.263 1.64814 4.38126 0
M  V30 6916 H 658.436 2.51629 5.97149 0
M  V30 6917 N 651.842 -1.52309 0.404946 0
M  V30 6918 C 653.088 -2.02731 -0.164857 0
M  V30 6919 C 653.443 -1.28543 -1.43159 0
M  V30 6920 O 652.736 -0.381883 -1.87756 0
M  V30 6921 C 652.93 -3.54284 -0.470895 0
M  V30 6922 C 652.759 -4.43152 0.764625 0
M  V30 6923 C 651.529 -4.88594 1.28858 0
M  V30 6924 C 653.727 -4.874 1.64152 0
M  V30 6925 N 651.709 -5.61577 2.48001 0
M  V30 6926 C 653.08 -5.59121 2.67924 0
M  V30 6927 C 655.135 -4.69421 1.65978 0
M  V30 6928 C 653.838 -6.14772 3.73427 0
M  V30 6929 C 655.864 -5.25966 2.70396 0
M  V30 6930 C 655.226 -5.97606 3.7289 0
M  V30 6931 H 651.325 -0.78169 -0.0220025 0
M  V30 6932 H 653.909 -1.86522 0.558354 0
M  V30 6933 H 652.08 -3.70574 -1.16315 0
M  V30 6934 H 653.812 -3.91394 -1.02921 0
M  V30 6935 H 650.567 -4.6596 0.847232 0
M  V30 6936 H 650.991 -6.02712 3.08329 0
M  V30 6937 H 655.633 -4.13524 0.88079 0
M  V30 6938 H 653.351 -6.69743 4.52184 0
M  V30 6939 H 656.937 -5.13926 2.72711 0
M  V30 6940 H 655.817 -6.40577 4.52361 0
M  V30 6941 N 653.32 -0.135238 -1.57019 0
M  V30 6942 C 654.23 0.822226 -2.19719 0
M  V30 6943 C 655.246 1.28057 -1.17802 0
M  V30 6944 O 656.422 1.3402 -1.50335 0
M  V30 6945 C 653.487 2.0484 -2.79717 0
M  V30 6946 C 652.548 1.64042 -3.96723 0
M  V30 6947 C 651.781 2.80814 -4.53849 0
M  V30 6948 O 652.004 3.967 -4.0986 0
M  V30 6949 O 650.938 2.56963 -5.44292 0
M  V30 6950 H 654.764 0.318552 -3.02025 0
M  V30 6951 H 652.349 0.0912021 -1.49121 0
M  V30 6952 H 654.231 2.76622 -3.17897 0
M  V30 6953 H 652.906 2.54182 -2.00432 0
M  V30 6954 H 651.813 0.893182 -3.63281 0
M  V30 6955 H 653.146 1.19426 -4.77492 0
M  V30 6956 N 654.798 1.5699 0.138552 0
M  V30 6957 C 656.047 1.82998 0.848205 0
M  V30 6958 C 656.36 0.717829 1.81952 0
M  V30 6959 O 657.566 0.863756 2.57394 0
M  V30 6960 C 656.022 3.24379 1.55904 0
M  V30 6961 C 655.63 4.43552 0.62971 0
M  V30 6962 C 657.374 3.59654 2.25498 0
M  V30 6963 C 655.281 5.75957 1.34266 0
M  V30 6964 H 654.211 0.682495 0.320495 0
M  V30 6965 H 656.862 1.83222 0.100924 0
M  V30 6966 H 655.244 3.18567 2.35226 0
M  V30 6967 H 656.418 4.6062 -0.128882 0
M  V30 6968 H 654.733 4.16379 0.0417526 0
M  V30 6969 H 657.33 4.55837 2.79493 0
M  V30 6970 H 657.673 2.86124 3.02388 0
M  V30 6971 H 658.206 3.67164 1.53087 0
M  V30 6972 H 654.945 6.52604 0.615441 0
M  V30 6973 H 654.465 5.62811 2.07375 0
M  V30 6974 H 656.144 6.19046 1.88126 0
M  V30 6975 N 656.276 -0.40816 1.52223 0
M  V30 6976 C 657.186 -1.52202 1.78526 0
M  V30 6977 C 658.202 -1.60546 0.670892 0
M  V30 6978 O 659.378 -1.77242 0.956404 0
M  V30 6979 C 656.443 -2.87928 1.93128 0
M  V30 6980 C 655.504 -2.89463 3.17033 0
M  V30 6981 C 654.737 -4.18715 3.30929 0
M  V30 6982 O 654.96 -5.12662 2.50067 0
M  V30 6983 O 653.894 -4.27125 4.24084 0
M  V30 6984 H 657.72 -1.32911 2.73072 0
M  V30 6985 H 655.305 -0.594112 1.37079 0
M  V30 6986 H 657.187 -3.68426 2.04549 0
M  V30 6987 H 655.862 -3.07285 1.01772 0
M  V30 6988 H 654.769 -2.07815 3.11069 0
M  V30 6989 H 656.102 -2.75055 4.08174 0
M  V30 6990 N 657.755 -1.42862 -0.66545 0
M  V30 6991 C 659.002 -1.4383 -1.42546 0
M  V30 6992 C 659.33 -0.0581114 -1.94413 0
M  V30 6993 O 658.585 0.935002 -1.71919 0
M  V30 6994 C 658.884 -2.4175 -2.63233 0
M  V30 6995 C 658.55 -3.87915 -2.29854 0
M  V30 6996 C 657.212 -4.27726 -2.20463 0
M  V30 6997 C 659.564 -4.80074 -2.02924 0
M  V30 6998 C 656.892 -5.57666 -1.82279 0
M  V30 6999 C 659.244 -6.10366 -1.66242 0
M  V30 7000 C 657.908 -6.49167 -1.55367 0
M  V30 7001 H 657.178 -0.52631 -0.521612 0
M  V30 7002 H 659.825 -1.75863 -0.757914 0
M  V30 7003 H 658.13 -2.03077 -3.35063 0
M  V30 7004 H 659.827 -2.39759 -3.21429 0
M  V30 7005 H 656.417 -3.564 -2.3807 0
M  V30 7006 H 660.601 -4.50097 -2.09108 0
M  V30 7007 H 655.857 -5.8658 -1.72436 0
M  V30 7008 H 660.031 -6.81258 -1.44432 0
M  V30 7009 H 657.658 -7.49761 -1.2555 0
M  V30 7010 N 659.233 0.902656 -1.29189 0
M  V30 7011 C 660.48 1.65287 -1.16989 0
M  V30 7012 C 660.808 1.92485 0.279232 0
M  V30 7013 O 660.063 1.53143 1.21843 0
M  V30 7014 C 660.362 3.011 -1.92545 0
M  V30 7015 C 660.028 2.93521 -3.42281 0
M  V30 7016 C 658.69 2.91161 -3.83117 0
M  V30 7017 C 661.042 2.82947 -4.3771 0
M  V30 7018 C 658.37 2.76043 -5.17704 0
M  V30 7019 C 660.722 2.69368 -5.72384 0
M  V30 7020 C 659.386 2.65373 -6.12482 0
M  V30 7021 H 658.656 0.604828 -0.428094 0
M  V30 7022 H 661.303 1.05084 -1.60092 0
M  V30 7023 H 659.608 3.65153 -1.42024 0
M  V30 7024 H 661.305 3.58073 -1.80512 0
M  V30 7025 H 657.895 2.96158 -3.09819 0
M  V30 7026 H 662.079 2.83849 -4.07116 0
M  V30 7027 H 657.335 2.71352 -5.47885 0
M  V30 7028 H 661.509 2.60156 -6.45981 0
M  V30 7029 H 659.136 2.53415 -7.16718 0
M  V30 7030 N 660.711 1.11618 1.11262 0
M  V30 7031 C 661.658 0.7762 2.17356 0
M  V30 7032 C 662.628 -0.253152 1.6416 0
M  V30 7033 O 663.813 -0.129655 1.90359 0
M  V30 7034 C 660.953 0.227581 3.44349 0
M  V30 7035 C 660.066 1.31372 4.1154 0
M  V30 7036 C 659.201 0.72544 5.26223 0
M  V30 7037 C 658.24 1.7913 5.85302 0
M  V30 7038 N 657.377 1.22237 6.91377 0
M  V30 7039 H 662.217 1.68508 2.45783 0
M  V30 7040 H 659.754 0.841475 1.20655 0
M  V30 7041 H 661.712 -0.108483 4.17059 0
M  V30 7042 H 660.342 -0.644486 3.16301 0
M  V30 7043 H 659.394 1.7667 3.36885 0
M  V30 7044 H 660.706 2.12005 4.51504 0
M  V30 7045 H 659.86 0.339541 6.05749 0
M  V30 7046 H 658.599 -0.112188 4.87571 0
M  V30 7047 H 657.604 2.18648 5.04453 0
M  V30 7048 H 658.829 2.63199 6.26022 0
M  V30 7049 H 656.775 0.406423 6.5474 0
M  V30 7050 H 656.692 1.9654 7.30006 0
M  V30 7051 H 657.96 0.863426 7.74703 0
M  V30 7052 N 662.189 -1.289 0.906776 0
M  V30 7053 C 663.136 -2.2751 0.388313 0
M  V30 7054 C 664.106 -1.57301 -0.533439 0
M  V30 7055 O 665.291 -1.85243 -0.457148 0
M  V30 7056 C 662.431 -3.43091 -0.37181 0
M  V30 7057 C 661.544 -4.28066 0.581647 0
M  V30 7058 C 660.679 -5.30837 -0.19623 0
M  V30 7059 C 659.718 -6.07472 0.751294 0
M  V30 7060 N 658.855 -7.021 0.00737727 0
M  V30 7061 H 663.695 -2.71237 1.23428 0
M  V30 7062 H 661.232 -1.33397 0.619962 0
M  V30 7063 H 663.19 -4.08888 -0.828641 0
M  V30 7064 H 661.82 -3.00374 -1.18218 0
M  V30 7065 H 660.872 -3.62378 1.157 0
M  V30 7066 H 662.184 -4.81382 1.30665 0
M  V30 7067 H 661.338 -6.02485 -0.71394 0
M  V30 7068 H 660.077 -4.78272 -0.954324 0
M  V30 7069 H 659.082 -5.34682 1.28044 0
M  V30 7070 H 660.307 -6.62126 1.50883 0
M  V30 7071 H 658.253 -6.51894 -0.732854 0
M  V30 7072 H 658.17 -7.53004 0.672334 0
M  V30 7073 H 659.438 -7.77956 -0.490365 0
M  V30 7074 N 663.667 -0.670007 -1.42649 0
M  V30 7075 C 664.6 0.0613623 -2.28117 0
M  V30 7076 C 665.578 0.813414 -1.40792 0
M  V30 7077 O 666.762 0.809529 -1.70232 0
M  V30 7078 C 663.889 1.09399 -3.20546 0
M  V30 7079 C 662.935 0.438064 -4.24244 0
M  V30 7080 S 663.768 -0.800808 -5.29478 0
M  V30 7081 C 664.924 0.23086 -6.25474 0
M  V30 7082 H 665.157 -0.663606 -2.89799 0
M  V30 7083 H 662.69 -0.45939 -1.47407 0
M  V30 7084 H 664.648 1.68469 -3.74337 0
M  V30 7085 H 663.309 1.79137 -2.58009 0
M  V30 7086 H 662.502 1.21707 -4.89084 0
M  V30 7087 H 662.104 -0.0789346 -3.73917 0
M  V30 7088 H 664.396 1.09204 -6.68641 0
M  V30 7089 H 665.339 -0.382945 -7.07064 0
M  V30 7090 H 665.747 0.574191 -5.61572 0
M  V30 7091 N 665.145 1.52092 -0.413018 0
M  V30 7092 C 666.077 2.24819 0.445994 0
M  V30 7093 C 667.09 1.27925 1.00692 0
M  V30 7094 O 668.279 1.53845 0.905204 0
M  V30 7095 C 665.379 2.96951 1.6332 0
M  V30 7096 C 664.552 4.20746 1.19548 0
M  V30 7097 C 663.611 4.75668 2.25003 0
M  V30 7098 O 662.637 5.38148 1.85434 0
M  V30 7099 N 663.839 4.57579 3.57214 0
M  V30 7100 H 666.604 2.99176 -0.177209 0
M  V30 7101 H 664.165 1.60102 -0.240601 0
M  V30 7102 H 666.157 3.30586 2.33441 0
M  V30 7103 H 664.727 2.25756 2.16225 0
M  V30 7104 H 663.947 3.92881 0.32224 0
M  V30 7105 H 665.235 5.01132 0.880033 0
M  V30 7106 H 664.633 4.07758 3.92109 0
M  V30 7107 H 663.19 4.95642 4.23299 0
M  V30 7108 N 666.623 0.143563 1.56945 0
M  V30 7109 C 667.869 -0.50916 1.96304 0
M  V30 7110 C 668.202 -1.64741 1.0283 0
M  V30 7111 O 667.477 -1.94374 0.0700361 0
M  V30 7112 C 667.76 -1.0186 3.45393 0
M  V30 7113 C 667.613 0.117923 4.49645 0
M  V30 7114 C 668.932 -1.90151 3.96901 0
M  V30 7115 H 666.051 -0.183608 0.713763 0
M  V30 7116 H 668.693 0.224095 1.88674 0
M  V30 7117 H 666.843 -1.64345 3.52027 0
M  V30 7118 H 668.515 0.754145 4.55094 0
M  V30 7119 H 666.758 0.777568 4.26774 0
M  V30 7120 H 667.429 -0.280187 5.51288 0
M  V30 7121 H 669.905 -1.375 3.92725 0
M  V30 7122 H 668.781 -2.22707 5.0169 0
M  V30 7123 H 669.042 -2.83718 3.39052 0
M  V30 7124 N 668.101 -1.57061 -0.130224 0
M  V30 7125 C 669.329 -1.88432 -0.854456 0
M  V30 7126 C 669.744 -0.733608 -1.73964 0
M  V30 7127 O 669.101 0.296029 -1.80083 0
M  V30 7128 C 669.152 -3.1918 -1.69724 0
M  V30 7129 O 668.873 -4.2982 -0.847705 0
M  V30 7130 C 670.374 -3.6418 -2.5276 0
M  V30 7131 H 667.594 -0.624193 -0.246221 0
M  V30 7132 H 670.138 -2.04159 -0.11798 0
M  V30 7133 H 668.293 -3.05156 -2.3866 0
M  V30 7134 H 668.707 -5.04689 -1.42792 0
M  V30 7135 H 670.181 -4.58457 -3.07443 0
M  V30 7136 H 670.658 -2.90285 -3.29592 0
M  V30 7137 H 671.264 -3.80954 -1.89087 0
M  V30 7138 N 669.579 0.400081 -1.52437 0
M  V30 7139 C 670.489 1.51253 -1.79331 0
M  V30 7140 C 671.505 1.60188 -0.679396 0
M  V30 7141 O 672.681 1.76733 -0.965791 0
M  V30 7142 C 669.746 2.869 -1.94652 0
M  V30 7143 C 668.807 2.87777 -3.18564 0
M  V30 7144 C 668.04 4.16954 -3.33145 0
M  V30 7145 O 668.263 5.11329 -2.52783 0
M  V30 7146 O 667.197 4.2487 -4.26343 0
M  V30 7147 H 671.023 1.31461 -2.73773 0
M  V30 7148 H 668.608 0.586834 -1.37392 0
M  V30 7149 H 670.49 3.67336 -2.065 0
M  V30 7150 H 669.165 3.06741 -1.034 0
M  V30 7151 H 668.072 2.06162 -3.12167 0
M  V30 7152 H 669.405 2.72886 -4.09627 0
M  V30 7153 N 671.057 1.43213 0.657864 0
M  V30 7154 C 672.004 1.48011 1.77092 0
M  V30 7155 C 672.974 0.330291 1.62783 0
M  V30 7156 O 674.159 0.536787 1.83094 0
M  V30 7157 C 671.299 1.40461 3.15222 0
M  V30 7158 C 670.412 2.65612 3.40697 0
M  V30 7159 C 669.547 2.50083 4.68649 0
M  V30 7160 C 668.586 3.70525 4.87214 0
M  V30 7161 N 667.723 3.53835 6.0642 0
M  V30 7162 H 672.563 2.43121 1.72326 0
M  V30 7163 H 670.1 1.20687 0.841013 0
M  V30 7164 H 672.058 1.34079 3.95068 0
M  V30 7165 H 670.688 0.489359 3.19069 0
M  V30 7166 H 669.74 2.82292 2.54982 0
M  V30 7167 H 671.052 3.5509 3.50303 0
M  V30 7168 H 670.206 2.41383 5.56614 0
M  V30 7169 H 668.945 1.58121 4.61356 0
M  V30 7170 H 667.95 3.79639 3.97686 0
M  V30 7171 H 669.175 4.63489 4.96341 0
M  V30 7172 H 667.121 2.64604 6.00267 0
M  V30 7173 H 667.038 4.36912 6.16963 0
M  V30 7174 H 668.306 3.48978 6.97019 0
M  V30 7175 N 672.536 -0.895792 1.29666 0
M  V30 7176 C 673.446 -2.03329 1.17024 0
M  V30 7177 C 674.462 -1.73753 0.0925962 0
M  V30 7178 O 675.638 -1.99071 0.305431 0
M  V30 7179 C 672.703 -3.36072 0.851841 0
M  V30 7180 C 671.764 -3.7914 2.01373 0
M  V30 7181 C 670.997 -5.05549 1.71043 0
M  V30 7182 O 671.22 -5.66874 0.633213 0
M  V30 7183 O 670.154 -5.44764 2.5596 0
M  V30 7184 H 673.98 -2.16918 2.12556 0
M  V30 7185 H 671.565 -1.02007 1.09156 0
M  V30 7186 H 673.447 -4.15729 0.689006 0
M  V30 7187 H 672.122 -3.23616 -0.0736634 0
M  V30 7188 H 671.029 -3.00233 2.23183 0
M  V30 7189 H 672.362 -3.96186 2.92058 0
M  V30 7190 N 674.014 -1.12206 -1.10668 0
M  V30 7191 C 675.291 -0.787382 -1.79052 0
M  V30 7192 C 675.671 0.723267 -1.98323 0
M  V30 7193 O 675.019 1.6561 -1.57434 0
M  V30 7194 C 675.229 -1.55968 -3.1221 0
M  V30 7195 C 676.577 -1.74413 -3.87125 0
M  V30 7196 O 677.601 -1.5246 -3.21923 0
M  V30 7197 O 676.46 -2.10952 -5.04144 0
M  V30 7198 H 673.554 -0.286137 -0.775922 0
M  V30 7199 H 676.1 -1.22595 -1.1734 0
M  V30 7200 H 674.872 -2.58692 -2.93588 0
M  V30 7201 H 674.495 -1.1152 -3.8164 0
M  V30 7202 N 675.492 1.28418 -0.913599 0
M  V30 7203 C 676.903 1.77024 -0.593237 0
M  V30 7204 C 677.254 1.74779 0.891441 0
M  V30 7205 O 676.379 1.34237 1.69733 0
M  V30 7206 C 676.974 3.21456 -1.07011 0
M  V30 7207 C 675.533 3.67786 -0.800664 0
M  V30 7208 C 674.68 2.48185 -1.23691 0
M  V30 7209 H 677.631 1.14883 -1.09487 0
M  V30 7210 H 677.652 3.78269 -0.411481 0
M  V30 7211 H 677.164 3.23058 -2.1507 0
M  V30 7212 H 675.265 3.71644 0.266725 0
M  V30 7213 H 675.378 4.57934 -1.4083 0
M  V30 7214 H 673.742 2.46116 -0.655655 0
M  V30 7215 H 674.525 2.52506 -2.32585 0
M  V30 7216 N 676.97 0.677563 1.42291 0
M  V30 7217 C 678.195 0.207901 2.06355 0
M  V30 7218 C 678.62 -1.12723 1.50583 0
M  V30 7219 O 677.978 -1.70171 0.62543 0
M  V30 7220 C 678.026 0.156489 3.6026 0
M  V30 7221 O 677.13 -0.874162 4.03029 0
M  V30 7222 H 676.471 0.106056 0.655475 0
M  V30 7223 H 679.001 0.927354 1.82377 0
M  V30 7224 H 679.011 -0.0187258 4.07996 0
M  V30 7225 H 677.686 1.13101 4.00226 0
M  V30 7226 H 676.263 -0.669764 3.66836 0
M  V30 7227 N 678.448 -1.51871 0.421078 0
M  V30 7228 C 679.697 -2.01125 -0.152206 0
M  V30 7229 C 680.01 -1.3106 -1.45199 0
M  V30 7230 O 681.216 -1.71195 -2.10724 0
M  V30 7231 C 679.672 -3.58458 -0.3218 0
M  V30 7232 C 679.28 -4.37448 0.96659 0
M  V30 7233 C 681.024 -4.15908 -0.84973 0
M  V30 7234 C 678.931 -5.86451 0.763529 0
M  V30 7235 H 677.861 -0.751556 -0.0606565 0
M  V30 7236 H 680.512 -1.75115 0.548354 0
M  V30 7237 H 678.894 -3.80847 -1.08498 0
M  V30 7238 H 680.068 -4.26814 1.73684 0
M  V30 7239 H 678.383 -3.91373 1.42183 0
M  V30 7240 H 680.98 -5.24922 -1.01788 0
M  V30 7241 H 681.323 -3.74031 -1.82774 0
M  V30 7242 H 681.856 -3.97535 -0.145297 0
M  V30 7243 H 678.595 -6.3271 1.71344 0
M  V30 7244 H 678.115 -5.99791 0.0327889 0
M  V30 7245 H 679.794 -6.45697 0.410354 0
M  V30 7246 N 679.926 -0.151884 -1.56866 0
M  V30 7247 C 680.889 0.771861 -2.15812 0
M  V30 7248 C 681.889 1.17181 -1.10115 0
M  V30 7249 O 683.079 1.09194 -1.35729 0
M  V30 7250 C 680.211 2.04806 -2.7252 0
M  V30 7251 H 681.404 0.259021 -2.98779 0
M  V30 7252 H 678.957 0.097588 -1.55995 0
M  V30 7253 H 679.692 2.60445 -1.93233 0
M  V30 7254 H 679.477 1.77044 -3.49854 0
M  V30 7255 H 680.967 2.70771 -3.1792 0
M  V30 7256 N 681.404 1.57128 0.121893 0
M  V30 7257 C 682.652 1.84335 0.828548 0
M  V30 7258 C 682.973 0.736632 1.80551 0
M  V30 7259 O 682.243 -0.23962 1.94429 0
M  V30 7260 H 680.823 0.680108 0.30897 0
M  V30 7261 H 683.485 1.9459 0.109906 0
M  V30 7262 H 682.581 2.80152 1.37554 0
M  V30 7263 N 682.882 -0.391992 1.52647 0
M  V30 7264 C 683.815 -1.50019 1.71958 0
M  V30 7265 C 684.793 -1.5238 0.567365 0
M  V30 7266 O 685.977 -1.70831 0.796806 0
M  V30 7267 C 683.104 -2.88496 1.77447 0
M  V30 7268 C 682.15 -3.03974 2.99169 0
M  V30 7269 S 682.983 -2.75487 4.59203 0
M  V30 7270 C 684.139 -4.16163 4.67503 0
M  V30 7271 H 684.372 -1.33413 2.65685 0
M  V30 7272 H 681.905 -0.584674 1.42902 0
M  V30 7273 H 683.863 -3.68296 1.81296 0
M  V30 7274 H 682.524 -3.02431 0.848188 0
M  V30 7275 H 681.717 -4.05328 2.99542 0
M  V30 7276 H 681.319 -2.32062 2.93297 0
M  V30 7277 H 683.611 -5.10048 4.45934 0
M  V30 7278 H 684.554 -4.20806 5.69498 0
M  V30 7279 H 684.962 -4.01933 3.96371 0
M  V30 7280 N 684.36 -1.4356 -0.65026 0
M  V30 7281 C 685.606 -1.45549 -1.41221 0
M  V30 7282 C 685.939 -0.0805472 -1.94033 0
M  V30 7283 O 685.214 0.899043 -1.72475 0
M  V30 7284 C 685.497 -2.50028 -2.59148 0
M  V30 7285 C 685.35 -3.96808 -2.1181 0
M  V30 7286 C 686.669 -2.51212 -3.61359 0
M  V30 7287 H 683.788 -0.529967 -0.512156 0
M  V30 7288 H 686.43 -1.75127 -0.736933 0
M  V30 7289 H 684.58 -2.24937 -3.16758 0
M  V30 7290 H 686.252 -4.32966 -1.59178 0
M  V30 7291 H 684.495 -4.09498 -1.43156 0
M  V30 7292 H 685.166 -4.6553 -2.96625 0
M  V30 7293 H 687.642 -2.73583 -3.13515 0
M  V30 7294 H 686.518 -3.26252 -4.41419 0
M  V30 7295 H 686.779 -1.54701 -4.1415 0
M  V30 7296 N 685.838 0.888903 -1.30139 0
M  V30 7297 C 686.788 1.9814 -1.12803 0
M  V30 7298 C 687.772 1.60839 -0.0443137 0
M  V30 7299 O 688.964 1.74971 -0.267208 0
M  V30 7300 C 686.093 3.33416 -0.817849 0
M  V30 7301 C 685.179 3.77043 -1.94163 0
M  V30 7302 N 685.57 3.92805 -3.18651 0
M  V30 7303 C 683.868 4.06407 -1.8371 0
M  V30 7304 C 684.569 4.29746 -3.92038 0
M  V30 7305 N 683.545 4.3939 -3.20059 0
M  V30 7306 H 687.347 2.08411 -2.07225 0
M  V30 7307 H 684.861 1.07845 -1.21421 0
M  V30 7308 H 686.858 4.11405 -0.674668 0
M  V30 7309 H 685.518 3.24484 0.118344 0
M  V30 7310 H 686.529 3.78042 -3.53984 0
M  V30 7311 H 683.206 4.05972 -0.974331 0
M  V30 7312 H 684.596 4.49695 -4.99223 0
M  V30 7313 N 687.317 1.12792 1.10072 0
M  V30 7314 C 688.267 0.768086 2.14673 0
M  V30 7315 C 689.251 -0.234716 1.59179 0
M  V30 7316 O 690.443 -0.039643 1.76956 0
M  V30 7317 C 687.572 0.228472 3.42539 0
M  V30 7318 C 686.658 1.25979 4.04957 0
M  V30 7319 N 687.049 2.4586 4.42025 0
M  V30 7320 C 685.347 1.10602 4.32069 0
M  V30 7321 C 686.048 3.11747 4.9111 0
M  V30 7322 N 685.024 2.39185 4.88151 0
M  V30 7323 H 688.826 1.68029 2.4113 0
M  V30 7324 H 686.34 1.00925 1.27232 0
M  V30 7325 H 688.337 -0.0475216 4.16873 0
M  V30 7326 H 686.997 -0.678136 3.1754 0
M  V30 7327 H 688.008 2.83215 4.33601 0
M  V30 7328 H 684.685 0.257021 4.16708 0
M  V30 7329 H 686.075 4.13862 5.29309 0
M  V30 7330 N 688.795 -1.27931 0.920396 0
M  V30 7331 C 689.742 -2.27085 0.412422 0
M  V30 7332 C 690.712 -1.57858 -0.516725 0
M  V30 7333 O 691.897 -1.85717 -0.437475 0
M  V30 7334 C 689.037 -3.43466 -0.335399 0
M  V30 7335 C 688.15 -4.27425 0.627017 0
M  V30 7336 C 687.285 -5.31016 -0.139916 0
M  V30 7337 C 686.324 -6.06641 0.815683 0
M  V30 7338 N 685.461 -7.02052 0.0818439 0
M  V30 7339 H 690.301 -2.69913 1.26298 0
M  V30 7340 H 687.838 -1.32732 0.634076 0
M  V30 7341 H 689.796 -4.09744 -0.785226 0
M  V30 7342 H 688.426 -3.01611 -1.15025 0
M  V30 7343 H 687.478 -3.6113 1.19537 0
M  V30 7344 H 688.79 -4.79969 1.35763 0
M  V30 7345 H 687.944 -6.03208 -0.649998 0
M  V30 7346 H 686.683 -4.79257 -0.903543 0
M  V30 7347 H 685.688 -5.33294 1.33708 0
M  V30 7348 H 686.913 -6.60489 1.57897 0
M  V30 7349 H 684.859 -6.52634 -0.663671 0
M  V30 7350 H 684.776 -7.52249 0.752163 0
M  V30 7351 H 686.044 -7.78432 -0.407825 0
M  V30 7352 N 690.273 -0.685099 -1.4193 0
M  V30 7353 C 691.522 -0.208816 -2.00616 0
M  V30 7354 C 691.835 1.19506 -1.54847 0
M  V30 7355 O 693.041 1.76826 -2.06021 0
M  V30 7356 C 691.497 -0.322446 -3.58453 0
M  V30 7357 C 691.105 -1.73102 -4.13206 0
M  V30 7358 C 692.849 0.0945979 -4.24395 0
M  V30 7359 C 690.756 -1.79687 -5.63442 0
M  V30 7360 H 689.686 -0.0743092 -0.750329 0
M  V30 7361 H 692.337 -0.851778 -1.62533 0
M  V30 7362 H 690.719 0.388588 -3.94089 0
M  V30 7363 H 691.893 -2.46997 -3.8901 0
M  V30 7364 H 690.208 -2.09682 -3.59753 0
M  V30 7365 H 692.805 0.0656937 -5.3466 0
M  V30 7366 H 693.148 1.1316 -4.00625 0
M  V30 7367 H 693.681 -0.56579 -3.93756 0
M  V30 7368 H 690.42 -2.81404 -5.92024 0
M  V30 7369 H 689.94 -1.10162 -5.89597 0
M  V30 7370 H 691.619 -1.55498 -6.28036 0
M  V30 7371 N 691.751 1.51645 -0.429126 0
M  V30 7372 C 692.701 2.24388 0.404217 0
M  V30 7373 C 693.685 1.26294 0.996933 0
M  V30 7374 O 694.877 1.51428 0.916434 0
M  V30 7375 C 692.006 3.08338 1.50938 0
M  V30 7376 C 691.092 4.13857 0.926464 0
M  V30 7377 N 691.483 5.05749 0.0719732 0
M  V30 7378 C 689.781 4.29695 1.19491 0
M  V30 7379 C 690.482 5.81143 -0.254528 0
M  V30 7380 N 689.458 5.42408 0.359763 0
M  V30 7381 H 693.26 2.92794 -0.254697 0
M  V30 7382 H 690.774 1.60606 -0.240712 0
M  V30 7383 H 692.771 3.59022 2.11918 0
M  V30 7384 H 691.431 2.41475 2.17072 0
M  V30 7385 H 692.442 5.17066 -0.293854 0
M  V30 7386 H 689.119 3.74059 1.85434 0
M  V30 7387 H 690.509 6.65159 -0.949365 0
M  V30 7388 N 693.229 0.160201 1.56784 0
M  V30 7389 C 694.506 -0.533355 1.88188 0
M  V30 7390 C 694.886 -1.82072 1.06831 0
M  V30 7391 O 694.234 -2.27946 0.158959 0
M  V30 7392 C 694.444 -0.786034 3.40033 0
M  V30 7393 C 695.792 -1.12097 4.09536 0
M  V30 7394 O 696.816 -0.874949 3.45287 0
M  V30 7395 O 695.675 -1.58457 5.23023 0
M  V30 7396 H 692.769 -0.273589 0.780434 0
M  V30 7397 H 695.315 0.197803 1.68543 0
M  V30 7398 H 694.087 0.124515 3.91102 0
M  V30 7399 H 693.71 -1.57091 3.65251 0
M  V30 7400 N 694.707 -1.5719 -0.113559 0
M  V30 7401 C 695.954 -1.85138 -0.820382 0
M  V30 7402 C 696.282 -0.74608 -1.79622 0
M  V30 7403 O 695.537 0.262077 -1.93937 0
M  V30 7404 C 695.836 -3.19593 -1.59984 0
M  V30 7405 C 695.502 -4.44315 -0.767809 0
M  V30 7406 C 694.164 -4.78179 -0.538379 0
M  V30 7407 C 696.516 -5.2086 -0.188203 0
M  V30 7408 C 693.844 -5.86028 0.28082 0
M  V30 7409 C 696.196 -6.29572 0.618217 0
M  V30 7410 C 694.86 -6.61964 0.857912 0
M  V30 7411 H 694.13 -0.677467 -0.300199 0
M  V30 7412 H 696.777 -1.91322 -0.0825443 0
M  V30 7413 H 695.082 -3.0901 -2.40874 0
M  V30 7414 H 696.779 -3.3844 -2.1508 0
M  V30 7415 H 693.369 -4.17786 -0.956724 0
M  V30 7416 H 697.553 -4.95045 -0.352658 0
M  V30 7417 H 692.809 -6.09547 0.475693 0
M  V30 7418 H 696.983 -6.88064 1.0743 0
M  V30 7419 H 694.61 -7.45365 1.49451 0
M  V30 7420 N 696.185 0.383891 -1.52853 0
M  V30 7421 C 697.601 0.724316 -1.42218 0
M  V30 7422 C 697.801 1.93943 -0.546654 0
M  V30 7423 O 696.857 2.5249 -0.0220562 0
M  V30 7424 C 698.17 0.954635 -2.85144 0
M  V30 7425 C 699.718 1.05579 -2.94656 0
M  V30 7426 C 700.193 1.3187 -4.38605 0
M  V30 7427 N 701.684 1.38681 -4.41952 0
M  V30 7428 C 702.419 1.60699 -5.50421 0
M  V30 7429 N 701.915 1.80154 -6.68967 0
M  V30 7430 N 703.708 1.6292 -5.37972 0
M  V30 7431 H 695.859 -0.4156 -2.08294 0
M  V30 7432 H 698.122 -0.123776 -0.939885 0
M  V30 7433 H 697.828 0.133829 -3.51445 0
M  V30 7434 H 697.702 1.86788 -3.27704 0
M  V30 7435 H 700.089 1.86716 -2.2852 0
M  V30 7436 H 700.17 0.120338 -2.55517 0
M  V30 7437 H 699.814 0.512416 -5.05309 0
M  V30 7438 H 699.744 2.26708 -4.75301 0
M  V30 7439 H 702.235 1.25334 -3.56511 0
M  V30 7440 H 702.548 1.96476 -7.47407 0
M  V30 7441 H 700.893 1.77368 -6.71986 0
M  V30 7442 H 704.084 1.47276 -4.44328 0
M  V30 7443 H 704.257 1.79739 -6.22574 0
M  V30 7444 N 697.663 1.43903 0.642637 0
M  V30 7445 C 698.909 1.47291 1.40275 0
M  V30 7446 C 699.264 0.0996024 1.92142 0
M  V30 7447 O 698.557 -0.883423 1.70018 0
M  V30 7448 C 698.751 2.45907 2.59354 0
M  V30 7449 C 698.58 3.92691 2.19143 0
M  V30 7450 C 697.35 4.6097 2.06966 0
M  V30 7451 C 699.548 4.82231 1.78768 0
M  V30 7452 N 697.53 5.9263 1.60196 0
M  V30 7453 C 698.901 6.03246 1.43159 0
M  V30 7454 C 700.956 4.69397 1.66045 0
M  V30 7455 C 699.659 7.12851 0.961014 0
M  V30 7456 C 701.685 5.79016 1.20392 0
M  V30 7457 C 701.047 6.99164 0.857271 0
M  V30 7458 H 697.146 0.594055 0.50855 0
M  V30 7459 H 699.73 1.80153 0.738434 0
M  V30 7460 H 697.901 2.15054 3.23429 0
M  V30 7461 H 699.633 2.39665 3.26102 0
M  V30 7462 H 696.388 4.15622 2.27058 0
M  V30 7463 H 696.812 6.62547 1.39143 0
M  V30 7464 H 701.454 3.76954 1.91482 0
M  V30 7465 H 699.172 8.05113 0.694148 0
M  V30 7466 H 702.758 5.71109 1.11023 0
M  V30 7467 H 701.638 7.82544 0.509408 0
M  V30 7468 N 699.141 -0.881989 1.30609 0
M  V30 7469 C 700.369 -1.66711 1.22536 0
M  V30 7470 C 700.784 -1.87614 -0.2113 0
M  V30 7471 O 700.141 -1.42576 -1.13923 0
M  V30 7472 C 700.192 -3.04182 1.95335 0
M  V30 7473 O 699.913 -2.8422 3.33393 0
M  V30 7474 C 701.414 -3.98617 1.93956 0
M  V30 7475 H 698.634 -0.520124 0.423925 0
M  V30 7476 H 701.178 -1.10174 1.72285 0
M  V30 7477 H 699.333 -3.57442 1.49378 0
M  V30 7478 H 699.747 -3.71452 3.70302 0
M  V30 7479 H 701.221 -4.92433 2.49426 0
M  V30 7480 H 701.698 -4.29473 0.919198 0
M  V30 7481 H 702.304 -3.51292 2.39738 0
M  V30 7482 N 700.619 -1.13374 -1.09472 0
M  V30 7483 C 701.582 -0.813639 -2.14272 0
M  V30 7484 C 702.582 0.176677 -1.59826 0
M  V30 7485 O 703.772 -0.0503441 -1.74127 0
M  V30 7486 C 700.904 -0.210897 -3.40247 0
M  V30 7487 H 702.097 -1.74229 -2.44099 0
M  V30 7488 H 699.65 -0.938304 -1.25002 0
M  V30 7489 H 700.385 0.726998 -3.16046 0
M  V30 7490 H 700.17 -0.924048 -3.81056 0
M  V30 7491 H 701.66 -0.00377603 -4.176 0
M  V30 7492 N 702.098 1.27442 -0.927168 0
M  V30 7493 C 703.028 2.29256 -0.443188 0
M  V30 7494 C 704.009 1.62701 0.49624 0
M  V30 7495 O 705.194 1.90013 0.401105 0
M  V30 7496 C 702.324 3.45955 0.305366 0
M  V30 7497 C 701.278 4.24501 -0.546178 0
M  V30 7498 C 700.604 5.33671 0.331512 0
M  V30 7499 C 701.904 4.89921 -1.81037 0
M  V30 7500 H 703.598 2.69988 -1.29409 0
M  V30 7501 H 701.144 1.29792 -0.623705 0
M  V30 7502 H 703.097 4.1628 0.654885 0
M  V30 7503 H 701.821 3.04138 1.19029 0
M  V30 7504 H 700.48 3.55921 -0.878398 0
M  V30 7505 H 700.128 4.88096 1.21537 0
M  V30 7506 H 699.828 5.87131 -0.234746 0
M  V30 7507 H 701.352 6.0684 0.676614 0
M  V30 7508 H 702.766 5.52536 -1.52895 0
M  V30 7509 H 701.163 5.53436 -2.32009 0
M  V30 7510 H 702.233 4.13652 -2.53021 0
M  V30 7511 N 703.576 0.692616 1.41565 0
M  V30 7512 C 704.824 0.221896 2.00878 0
M  V30 7513 C 705.145 -1.18164 1.5512 0
M  V30 7514 O 704.415 -1.79679 0.78054 0
M  V30 7515 H 702.995 0.0790463 0.742806 0
M  V30 7516 H 705.657 0.893115 1.73232 0
M  V30 7517 H 704.753 0.23702 3.11199 0
M  V30 7518 N 705.054 -1.51416 0.437162 0
M  V30 7519 C 705.987 -2.24309 -0.419602 0
M  V30 7520 C 706.965 -1.26236 -1.02485 0
M  V30 7521 O 708.149 -1.5537 -1.06735 0
M  V30 7522 C 705.276 -2.99335 -1.58482 0
M  V30 7523 C 704.322 -4.12064 -1.10027 0
M  V30 7524 S 705.155 -5.35483 -0.0424476 0
M  V30 7525 C 706.311 -6.14047 -1.21234 0
M  V30 7526 H 706.544 -2.96632 0.199259 0
M  V30 7527 H 704.077 -1.528 0.22168 0
M  V30 7528 H 706.035 -3.43159 -2.25282 0
M  V30 7529 H 704.696 -2.26602 -2.17509 0
M  V30 7530 H 703.889 -4.63836 -1.97161 0
M  V30 7531 H 703.491 -3.70499 -0.510507 0
M  V30 7532 H 705.783 -6.43123 -2.13072 0
M  V30 7533 H 706.726 -7.04279 -0.734582 0
M  V30 7534 H 707.134 -5.45538 -1.45082 0
M  V30 7535 N 706.532 -0.168513 -1.56696 0
M  V30 7536 C 707.462 0.758563 -2.20835 0
M  V30 7537 C 708.443 1.24121 -1.1631 0
M  V30 7538 O 709.628 1.29487 -1.4473 0
M  V30 7539 C 706.758 1.9892 -2.8469 0
M  V30 7540 C 705.712 1.64252 -3.95228 0
M  V30 7541 C 705.038 2.94757 -4.46119 0
M  V30 7542 C 706.338 0.872675 -5.14958 0
M  V30 7543 H 708.032 0.223953 -2.98561 0
M  V30 7544 H 705.578 0.106277 -1.43607 0
M  V30 7545 H 707.531 2.64275 -3.28233 0
M  V30 7546 H 706.255 2.5479 -2.04327 0
M  V30 7547 H 704.914 1.01266 -3.52336 0
M  V30 7548 H 704.562 3.48662 -3.62552 0
M  V30 7549 H 704.262 2.72316 -5.2069 0
M  V30 7550 H 705.786 3.61147 -4.92347 0
M  V30 7551 H 707.2 1.42875 -5.55211 0
M  V30 7552 H 705.597 0.747402 -5.95428 0
M  V30 7553 H 706.667 -0.131535 -4.84722 0
M  V30 7554 N 708.01 1.57248 0.105221 0
M  V30 7555 C 709.421 1.74612 0.660865 0
M  V30 7556 C 709.772 0.789231 1.79626 0
M  V30 7557 O 708.897 -0.0346611 2.16372 0
M  V30 7558 C 709.492 3.16624 1.20559 0
M  V30 7559 C 708.051 3.35447 1.7074 0
M  V30 7560 C 707.198 2.70445 0.612764 0
M  V30 7561 H 710.149 1.5824 -0.12079 0
M  V30 7562 H 710.17 3.18937 2.07508 0
M  V30 7563 H 709.682 3.86245 0.379012 0
M  V30 7564 H 707.783 2.7089 2.5583 0
M  V30 7565 H 707.896 4.43702 1.80736 0
M  V30 7566 H 706.26 2.32061 1.04975 0
M  V30 7567 H 707.043 3.42699 -0.203066 0
M  V30 7568 N 709.488 -0.375779 1.53054 0
M  V30 7569 C 710.438 -1.45965 1.75152 0
M  V30 7570 C 711.422 -1.49059 0.605823 0
M  V30 7571 O 712.614 -1.54472 0.864133 0
M  V30 7572 C 709.743 -2.83524 1.93569 0
M  V30 7573 C 708.829 -2.84949 3.1411 0
M  V30 7574 N 709.22 -2.56029 4.36214 0
M  V30 7575 C 707.518 -3.16113 3.14625 0
M  V30 7576 C 708.219 -2.64873 5.17897 0
M  V30 7577 N 707.195 -2.99159 4.53878 0
M  V30 7578 H 710.997 -1.22454 2.67175 0
M  V30 7579 H 708.511 -0.583867 1.51541 0
M  V30 7580 H 710.508 -3.61578 2.07525 0
M  V30 7581 H 709.168 -3.08008 1.02768 0
M  V30 7582 H 710.179 -2.29808 4.64121 0
M  V30 7583 H 706.856 -3.45977 2.3368 0
M  V30 7584 H 708.246 -2.45947 6.25268 0
M  V30 7585 N 710.966 -1.44241 -0.634997 0
M  V30 7586 C 711.876 -1.53293 -1.77591 0
M  V30 7587 C 712.892 -0.418831 -1.68884 0
M  V30 7588 O 714.068 -0.675619 -1.8973 0
M  V30 7589 C 711.133 -1.47075 -3.13958 0
M  V30 7590 C 710.194 -2.69304 -3.34326 0
M  V30 7591 C 709.427 -2.63374 -4.64187 0
M  V30 7592 O 709.65 -1.69161 -5.44739 0
M  V30 7593 O 708.584 -3.54166 -4.86673 0
M  V30 7594 H 712.41 -2.49673 -1.72908 0
M  V30 7595 H 709.995 -1.26445 -0.795745 0
M  V30 7596 H 711.877 -1.46117 -3.95257 0
M  V30 7597 H 710.552 -0.538373 -3.19192 0
M  V30 7598 H 709.459 -2.75831 -2.52721 0
M  V30 7599 H 710.792 -3.61576 -3.33951 0
M  V30 7600 N 712.444 0.87505 -1.31075 0
M  V30 7601 C 713.721 1.60976 -1.11113 0
M  V30 7602 C 714.101 2.08409 0.336006 0
M  V30 7603 O 713.449 1.85858 1.32924 0
M  V30 7604 C 713.659 2.77166 -2.12085 0
M  V30 7605 C 715.007 3.47254 -2.44335 0
M  V30 7606 O 716.031 2.87367 -2.10472 0
M  V30 7607 O 714.89 4.55276 -3.02301 0
M  V30 7608 H 711.984 0.707982 -0.427424 0
M  V30 7609 H 714.53 0.920957 -1.42536 0
M  V30 7610 H 713.302 2.39494 -3.09449 0
M  V30 7611 H 712.925 3.53737 -1.81538 0
M  V30 7612 N 713.922 1.13953 1.08869 0
M  V30 7613 C 715.333 0.916649 1.62648 0
M  V30 7614 C 715.684 -0.545589 1.88462 0
M  V30 7615 O 714.809 -1.41351 1.63856 0
M  V30 7616 C 715.404 1.65751 2.95486 0
M  V30 7617 C 713.963 1.48034 3.46068 0
M  V30 7618 C 713.11 1.68305 2.20383 0
M  V30 7619 H 716.061 1.292 0.921572 0
M  V30 7620 H 716.082 1.11794 3.63707 0
M  V30 7621 H 715.594 2.72171 2.76667 0
M  V30 7622 H 713.695 0.439416 3.7 0
M  V30 7623 H 713.808 2.24719 4.23129 0
M  V30 7624 H 712.172 1.10833 2.29321 0
M  V30 7625 H 712.955 2.76057 2.04077 0
M  V30 7626 N 715.4 -1.26948 0.933913 0
M  V30 7627 C 716.332 -2.25768 0.395137 0
M  V30 7628 C 717.345 -1.55637 -0.477585 0
M  V30 7629 O 718.534 -1.76142 -0.289204 0
M  V30 7630 C 715.634 -3.35874 -0.451882 0
M  V30 7631 C 714.807 -4.3554 0.40299 0
M  V30 7632 C 713.866 -5.24809 -0.3824 0
M  V30 7633 O 712.892 -5.68805 0.212057 0
M  V30 7634 N 714.094 -5.55636 -1.68072 0
M  V30 7635 H 716.859 -2.72634 1.24463 0
M  V30 7636 H 714.42 -1.40639 0.802008 0
M  V30 7637 H 716.412 -3.92542 -0.984516 0
M  V30 7638 H 714.982 -2.8856 -1.20215 0
M  V30 7639 H 714.202 -3.78047 1.11688 0
M  V30 7640 H 715.49 -4.99131 0.987201 0
M  V30 7641 H 714.888 -5.2176 -2.18592 0
M  V30 7642 H 713.445 -6.14978 -2.15975 0
M  V30 7643 N 716.879 -0.700114 -1.41195 0
M  V30 7644 C 718.29 -0.307249 -1.84154 0
M  V30 7645 C 718.641 1.15539 -1.58572 0
M  V30 7646 O 717.766 1.88744 -1.05852 0
M  V30 7647 C 718.361 -0.550872 -3.34292 0
M  V30 7648 C 716.92 -0.211877 -3.75803 0
M  V30 7649 C 716.067 -0.830915 -2.64558 0
M  V30 7650 H 719.018 -0.900431 -1.30683 0
M  V30 7651 H 719.039 0.188954 -3.80031 0
M  V30 7652 H 718.551 -1.61548 -3.5288 0
M  V30 7653 H 716.652 0.848283 -3.62815 0
M  V30 7654 H 716.765 -0.67007 -4.74391 0
M  V30 7655 H 715.129 -0.260155 -2.53368 0
M  V30 7656 H 715.912 -1.89948 -2.85963 0
M  V30 7657 N 718.357 1.51182 -0.445186 0
M  V30 7658 C 719.773 1.59299 -0.0978954 0
M  V30 7659 C 719.973 1.4555 1.39346 0
M  V30 7660 O 719.029 1.30073 2.16419 0
M  V30 7661 C 720.342 2.94133 -0.625005 0
M  V30 7662 C 721.89 3.07463 -0.586137 0
M  V30 7663 C 722.365 4.44832 -1.09035 0
M  V30 7664 N 723.856 4.51173 -1.04867 0
M  V30 7665 C 724.591 5.55804 -1.40959 0
M  V30 7666 N 724.087 6.67816 -1.84375 0
M  V30 7667 N 725.88 5.46205 -1.32726 0
M  V30 7668 H 718.031 1.58363 -1.41544 0
M  V30 7669 H 720.294 0.746946 -0.58376 0
M  V30 7670 H 720 3.09589 -1.66876 0
M  V30 7671 H 719.874 3.77161 -0.0542262 0
M  V30 7672 H 722.261 2.9167 0.448646 0
M  V30 7673 H 722.342 2.26255 -1.19341 0
M  V30 7674 H 721.986 4.61372 -2.12364 0
M  V30 7675 H 721.916 5.24591 -0.459539 0
M  V30 7676 H 724.407 3.70783 -0.729932 0
M  V30 7677 H 724.72 7.43683 -2.10131 0
M  V30 7678 H 723.065 6.69003 -1.88308 0
M  V30 7679 H 726.256 4.57583 -0.986678 0
M  V30 7680 H 726.429 6.27634 -1.61182 0
M  V30 7681 N 719.835 0.176821 1.56605 0
M  V30 7682 C 721.065 -0.472142 2.01133 0
M  V30 7683 C 721.473 -1.56979 1.05614 0
M  V30 7684 O 720.816 -1.83632 0.0500137 0
M  V30 7685 C 720.878 -1.10547 3.42081 0
M  V30 7686 C 720.542 -0.148806 4.56758 0
M  V30 7687 C 721.539 0.634939 5.16008 0
M  V30 7688 C 719.224 -0.0430325 5.02282 0
M  V30 7689 C 721.218 1.5116 6.19217 0
M  V30 7690 C 718.905 0.83721 6.05338 0
M  V30 7691 C 719.903 1.61311 6.63677 0
M  V30 7692 O 719.591 2.47863 7.64735 0
M  V30 7693 H 719.323 -0.124725 0.664394 0
M  V30 7694 H 721.877 0.277329 2.03519 0
M  V30 7695 H 720.107 -1.90318 3.36625 0
M  V30 7696 H 721.796 -1.6572 3.70529 0
M  V30 7697 H 722.562 0.563424 4.81716 0
M  V30 7698 H 718.441 -0.636753 4.56581 0
M  V30 7699 H 721.985 2.11767 6.64681 0
M  V30 7700 H 717.882 0.909908 6.39055 0
M  V30 7701 H 718.65 2.4144 7.8208 0
M  V30 7702 N 721.313 -1.57302 -0.09688 0
M  V30 7703 C 722.243 -2.0497 -1.11846 0
M  V30 7704 C 723.224 -0.938278 -1.41882 0
M  V30 7705 O 724.409 -1.20943 -1.51942 0
M  V30 7706 C 721.539 -2.47264 -2.43881 0
M  V30 7707 C 720.493 -3.62053 -2.28257 0
M  V30 7708 C 719.819 -3.90318 -3.65453 0
M  V30 7709 C 721.119 -4.93005 -1.72461 0
M  V30 7710 H 722.813 -2.90567 -0.721888 0
M  V30 7711 H 720.359 -1.39786 -0.345803 0
M  V30 7712 H 722.312 -2.7922 -3.15617 0
M  V30 7713 H 721.036 -1.58664 -2.8547 0
M  V30 7714 H 719.695 -3.30341 -1.58967 0
M  V30 7715 H 719.343 -2.98889 -4.04567 0
M  V30 7716 H 719.043 -4.67597 -3.55846 0
M  V30 7717 H 720.567 -4.24747 -4.3866 0
M  V30 7718 H 721.981 -5.23354 -2.34036 0
M  V30 7719 H 720.378 -5.74436 -1.73618 0
M  V30 7720 H 721.448 -4.80053 -0.683898 0
M  V30 7721 N 722.791 0.367657 -1.53252 0
M  V30 7722 C 724.207 0.709191 -1.42978 0
M  V30 7723 C 724.407 1.93352 -0.567193 0
M  V30 7724 O 723.463 2.52453 -0.0488349 0
M  V30 7725 C 724.776 0.924338 -2.86141 0
M  V30 7726 C 726.324 1.02448 -2.95759 0
M  V30 7727 C 726.799 1.27211 -4.39979 0
M  V30 7728 N 728.29 1.33986 -4.43398 0
M  V30 7729 C 729.025 1.54852 -5.52095 0
M  V30 7730 N 728.521 1.73049 -6.7084 0
M  V30 7731 N 730.314 1.57205 -5.39669 0
M  V30 7732 H 722.465 -0.437669 -2.07842 0
M  V30 7733 H 724.728 -0.133737 -0.938519 0
M  V30 7734 H 724.434 0.0965455 -3.51567 0
M  V30 7735 H 724.308 1.83302 -3.29667 0
M  V30 7736 H 726.695 1.84282 -2.30487 0
M  V30 7737 H 726.776 0.0932301 -2.5563 0
M  V30 7738 H 726.42 0.458792 -5.05824 0
M  V30 7739 H 726.35 2.21654 -4.77679 0
M  V30 7740 H 728.841 1.21545 -3.5782 0
M  V30 7741 H 729.154 1.88538 -7.49449 0
M  V30 7742 H 727.499 1.70231 -6.7383 0
M  V30 7743 H 730.69 1.42555 -4.45865 0
M  V30 7744 H 730.863 1.73126 -6.24445 0
M  V30 7745 N 724.269 1.44576 0.627338 0
M  V30 7746 C 725.68 1.42266 1.20902 0
M  V30 7747 C 726.031 0.139964 1.957 0
M  V30 7748 O 725.156 -0.759489 2.02634 0
M  V30 7749 C 725.751 2.57727 2.19914 0
M  V30 7750 C 724.31 2.58599 2.73502 0
M  V30 7751 C 723.457 2.34145 1.48564 0
M  V30 7752 H 726.408 1.53102 0.417791 0
M  V30 7753 H 726.429 2.30697 3.02588 0
M  V30 7754 H 725.941 3.51068 1.65447 0
M  V30 7755 H 724.042 1.6921 3.31962 0
M  V30 7756 H 724.155 3.57205 3.19282 0
M  V30 7757 H 722.519 1.83313 1.76829 0
M  V30 7758 H 723.302 3.29606 0.959935 0
M  V30 7759 N 725.747 -0.868086 1.31537 0
M  V30 7760 C 726.993 -1.62367 1.2151 0
M  V30 7761 C 727.326 -1.92883 -0.225819 0
M  V30 7762 O 726.601 -1.56176 -1.15927 0
M  V30 7763 C 726.884 -2.95268 2.06129 0
M  V30 7764 C 726.737 -2.71619 3.58529 0
M  V30 7765 C 728.056 -3.96391 1.91212 0
M  V30 7766 H 725.175 -0.589178 0.442762 0
M  V30 7767 H 727.817 -1.00336 1.61347 0
M  V30 7768 H 725.967 -3.4821 1.72284 0
M  V30 7769 H 727.639 -2.25334 4.0252 0
M  V30 7770 H 725.882 -2.05817 3.81866 0
M  V30 7771 H 726.553 -3.66192 4.13047 0
M  V30 7772 H 729.029 -3.52663 2.20834 0
M  V30 7773 H 727.905 -4.87263 2.52718 0
M  V30 7774 H 728.166 -4.33335 0.875953 0
M  V30 7775 N 727.225 -1.14528 -1.08264 0
M  V30 7776 C 728.45 -0.938381 -1.84957 0
M  V30 7777 C 728.875 0.508044 -1.81109 0
M  V30 7778 O 728.233 1.36146 -1.19724 0
M  V30 7779 C 728.281 -1.44568 -3.30352 0
M  V30 7780 O 727.385 -0.638745 -4.07423 0
M  V30 7781 H 726.726 -0.335394 -0.573068 0
M  V30 7782 H 729.256 -1.52287 -1.36637 0
M  V30 7783 H 729.266 -1.45449 -3.81194 0
M  V30 7784 H 727.941 -2.49876 -3.32468 0
M  V30 7785 H 726.518 -0.698801 -3.66294 0
M  V30 7786 N 728.703 1.26451 -0.940633 0
M  V30 7787 C 729.931 1.97868 -0.604642 0
M  V30 7788 C 730.346 1.70051 0.820251 0
M  V30 7789 O 729.703 0.96843 1.54686 0
M  V30 7790 C 729.754 3.51684 -0.836689 0
M  V30 7791 O 729.475 3.78533 -2.20554 0
M  V30 7792 C 730.976 4.40343 -0.511169 0
M  V30 7793 H 728.196 0.631105 -0.227919 0
M  V30 7794 H 730.74 1.60979 -1.26119 0
M  V30 7795 H 728.895 3.86736 -0.226759 0
M  V30 7796 H 729.309 4.73065 -2.26517 0
M  V30 7797 H 730.783 5.47229 -0.724157 0
M  V30 7798 H 731.26 4.35694 0.553815 0
M  V30 7799 H 731.866 4.10834 -1.0998 0
M  V30 7800 N 730.181 0.707592 1.40822 0
M  V30 7801 C 731.144 0.0587224 2.29125 0
M  V30 7802 C 732.144 -0.695624 1.44975 0
M  V30 7803 O 733.334 -0.528718 1.65983 0
M  V30 7804 C 730.466 -0.926939 3.28056 0
M  V30 7805 H 731.659 0.836349 2.88002 0
M  V30 7806 H 729.212 0.471778 1.4901 0
M  V30 7807 H 729.947 -1.7319 2.74182 0
M  V30 7808 H 729.732 -0.389015 3.90165 0
M  V30 7809 H 731.222 -1.37837 3.94196 0
M  V30 7810 N 731.66 -1.50943 0.453197 0
M  V30 7811 C 732.623 -2.26684 -0.338705 0
M  V30 7812 C 733.623 -1.30748 -0.936032 0
M  V30 7813 O 734.813 -1.54327 -0.808002 0
M  V30 7814 C 731.945 -3.07063 -1.48071 0
M  V30 7815 H 733.138 -2.98131 0.325289 0
M  V30 7816 H 730.691 -1.54926 0.206771 0
M  V30 7817 H 731.426 -2.4007 -2.18029 0
M  V30 7818 H 731.211 -3.77545 -1.0584 0
M  V30 7819 H 732.701 -3.64393 -2.0398 0
M  V30 7820 N 733.138 -0.185124 -1.56509 0
M  V30 7821 C 734.366 0.462139 -2.01673 0
M  V30 7822 C 734.781 1.55873 -1.06532 0
M  V30 7823 O 734.138 1.82371 -0.0684805 0
M  V30 7824 C 734.189 1.0277 -3.46584 0
M  V30 7825 O 733.91 -0.0251296 -4.38093 0
M  V30 7826 C 735.411 1.75183 -4.07217 0
M  V30 7827 H 732.631 0.117001 -0.660721 0
M  V30 7828 H 735.175 -0.290905 -2.0242 0
M  V30 7829 H 733.33 1.73118 -3.46568 0
M  V30 7830 H 733.744 0.394387 -5.23015 0
M  V30 7831 H 735.218 2.09999 -5.10494 0
M  V30 7832 H 735.695 2.6519 -3.50101 0
M  V30 7833 H 736.301 1.09445 -4.10977 0
M  V30 7834 N 734.616 1.57351 0.0885366 0
M  V30 7835 C 735.546 2.05561 1.10757 0
M  V30 7836 C 736.527 0.945789 1.41382 0
M  V30 7837 O 737.712 1.21747 1.51299 0
M  V30 7838 C 734.842 2.48554 2.42566 0
M  V30 7839 C 733.796 3.63259 2.26334 0
M  V30 7840 C 733.122 3.9225 3.63378 0
M  V30 7841 C 734.422 4.93913 1.69844 0
M  V30 7842 H 736.116 2.90946 0.706468 0
M  V30 7843 H 733.662 1.39968 0.338385 0
M  V30 7844 H 735.615 2.8089 3.14132 0
M  V30 7845 H 734.339 1.60176 2.84625 0
M  V30 7846 H 732.998 3.31179 1.57213 0
M  V30 7847 H 732.646 3.0103 4.02976 0
M  V30 7848 H 732.346 4.69478 3.53362 0
M  V30 7849 H 733.87 4.27067 4.36401 0
M  V30 7850 H 735.284 5.24588 2.31258 0
M  V30 7851 H 733.681 5.75349 1.70569 0
M  V30 7852 H 734.751 4.80409 0.65843 0
M  V30 7853 N 736.094 -0.359525 1.53444 0
M  V30 7854 C 737.042 -1.46104 1.80987 0
M  V30 7855 C 738.036 -1.55181 0.679351 0
M  V30 7856 O 739.242 -1.57995 0.862405 0
M  V30 7857 H 735.617 -0.486835 0.573145 0
M  V30 7858 H 737.588 -1.2008 2.73173 0
M  V30 7859 C 736.337 -2.82855 2.02208 0
M  V30 7860 H 735.66 -2.76631 2.88644 0
M  V30 7861 H 737.1 -3.59091 2.25455 0
M  V30 7862 C 735.559 -3.27192 0.802931 0
M  V30 7863 O 736.089 -4.017 -0.00544286 0
M  V30 7864 N 734.295 -2.83807 0.624657 0
M  V30 7865 H 733.842 -2.23339 1.28364 0
M  V30 7866 H 733.8 -3.13828 -0.189641 0
M  V30 7867 N 737.572 -1.44907 -0.619662 0
M  V30 7868 C 738.819 -1.48292 -1.37898 0
M  V30 7869 C 739.147 -0.119933 -1.9413 0
M  V30 7870 O 738.402 0.879834 -1.74807 0
M  V30 7871 C 738.701 -2.50002 -2.55409 0
M  V30 7872 C 738.367 -3.95031 -2.17397 0
M  V30 7873 C 737.029 -4.34524 -2.06743 0
M  V30 7874 C 739.381 -4.86287 -1.87548 0
M  V30 7875 C 736.709 -5.63183 -1.64445 0
M  V30 7876 C 739.061 -6.15346 -1.4674 0
M  V30 7877 C 737.725 -6.53781 -1.34636 0
M  V30 7878 H 736.995 -0.542638 -0.504603 0
M  V30 7879 H 739.642 -1.78186 -0.701581 0
M  V30 7880 H 737.947 -2.13634 -3.28433 0
M  V30 7881 H 739.644 -2.49864 -3.13639 0
M  V30 7882 H 736.234 -3.63793 -2.26611 0
M  V30 7883 H 740.418 -4.56522 -1.94682 0
M  V30 7884 H 735.674 -5.91769 -1.53687 0
M  V30 7885 H 739.848 -6.85508 -1.22685 0
M  V30 7886 H 737.475 -7.53375 -1.01634 0
M  V30 7887 N 739.05 0.861098 -1.31996 0
M  V30 7888 C 740.013 1.95068 -1.20338 0
M  V30 7889 C 741.013 1.60289 -0.128114 0
M  V30 7890 O 742.203 1.70048 -0.378044 0
M  V30 7891 C 739.335 3.30153 -0.849205 0
M  V30 7892 H 740.528 2.06833 -2.17164 0
M  V30 7893 H 738.081 1.05049 -1.15734 0
M  V30 7894 H 738.816 3.24087 0.117508 0
M  V30 7895 H 738.601 3.56771 -1.62655 0
M  V30 7896 H 740.091 4.10025 -0.791782 0
M  V30 7897 N 740.528 1.15101 1.07655 0
M  V30 7898 C 741.491 0.847625 2.12951 0
M  V30 7899 C 742.491 -0.151227 1.60087 0
M  V30 7900 O 743.681 0.0780399 1.74025 0
M  V30 7901 C 740.813 0.265 3.39868 0
M  V30 7902 H 742.006 1.7809 2.41296 0
M  V30 7903 H 739.559 0.958072 1.23494 0
M  V30 7904 H 740.294 -0.676625 3.17163 0
M  V30 7905 H 740.079 0.984554 3.79538 0
M  V30 7906 H 741.569 0.0702121 4.17541 0
M  V30 7907 N 742.006 -1.2595 0.947325 0
M  V30 7908 C 743.234 -1.97544 0.615127 0
M  V30 7909 C 743.649 -1.70484 -0.811221 0
M  V30 7910 O 743.006 -0.97662 -1.5417 0
M  V30 7911 C 743.057 -3.51236 0.855328 0
M  V30 7912 O 742.778 -3.77359 2.22558 0
M  V30 7913 C 744.279 -4.40066 0.534515 0
M  V30 7914 H 741.499 -0.629888 0.231263 0
M  V30 7915 H 744.043 -1.60308 1.26971 0
M  V30 7916 H 742.198 -3.8661 0.247266 0
M  V30 7917 H 742.612 -4.71857 2.29022 0
M  V30 7918 H 744.086 -5.46838 0.753168 0
M  V30 7919 H 744.563 -4.35982 -0.530701 0
M  V30 7920 H 745.169 -4.10245 1.12158 0
M  V30 7921 N 743.484 -0.715051 -1.40445 0
M  V30 7922 C 744.414 -0.0768699 -2.33373 0
M  V30 7923 C 745.395 0.746109 -1.52863 0
M  V30 7924 O 746.58 0.695142 -1.81332 0
M  V30 7925 C 743.71 0.846014 -3.36838 0
M  V30 7926 C 742.664 0.128694 -4.27806 0
M  V30 7927 C 741.99 1.16726 -5.21804 0
M  V30 7928 C 743.29 -1.01679 -5.12307 0
M  V30 7929 H 744.984 -0.853061 -2.8699 0
M  V30 7930 H 742.53 -0.41167 -1.3799 0
M  V30 7931 H 744.483 1.30185 -4.00786 0
M  V30 7932 H 743.207 1.6541 -2.81615 0
M  V30 7933 H 741.866 -0.307314 -3.6531 0
M  V30 7934 H 741.514 1.96838 -4.62887 0
M  V30 7935 H 741.214 0.692188 -5.83509 0
M  V30 7936 H 742.738 1.62321 -5.88629 0
M  V30 7937 H 744.152 -0.640337 -5.69713 0
M  V30 7938 H 742.549 -1.4202 -5.83053 0
M  V30 7939 H 743.619 -1.84769 -4.48317 0
M  V30 7940 N 744.962 1.50701 -0.461195 0
M  V30 7941 C 745.925 2.2686 0.326679 0
M  V30 7942 C 746.925 1.31243 0.929085 0
M  V30 7943 O 748.115 1.54754 0.799807 0
M  V30 7944 C 745.247 3.07844 1.46441 0
M  V30 7945 H 746.44 2.97954 -0.341095 0
M  V30 7946 H 743.993 1.54814 -0.214984 0
M  V30 7947 H 744.728 2.41223 2.16753 0
M  V30 7948 H 744.513 3.78101 1.03836 0
M  V30 7949 H 746.003 3.65469 2.02044 0
M  V30 7950 N 746.441 0.193421 1.56409 0
M  V30 7951 C 747.373 -0.759944 2.16235 0
M  V30 7952 C 748.386 -1.17797 1.12373 0
M  V30 7953 O 749.575 -1.11399 1.39472 0
M  V30 7954 C 746.675 -2.03735 2.70823 0
M  V30 7955 C 745.848 -1.77939 3.9957 0
M  V30 7956 C 744.907 -2.90111 4.39001 0
M  V30 7957 O 743.933 -2.59791 5.06456 0
M  V30 7958 N 745.135 -4.18426 4.02368 0
M  V30 7959 H 747.9 -0.248348 2.98669 0
M  V30 7960 H 745.461 0.0113966 1.61896 0
M  V30 7961 H 747.453 -2.77914 2.94187 0
M  V30 7962 H 746.023 -2.46022 1.92852 0
M  V30 7963 H 745.243 -0.875491 3.84355 0
M  V30 7964 H 746.531 -1.58099 4.83614 0
M  V30 7965 H 745.929 -4.45913 3.48106 0
M  V30 7966 H 744.486 -4.89237 4.30686 0
M  V30 7967 N 747.919 -1.57396 -0.0801906 0
M  V30 7968 C 749.144 -1.91437 -0.797909 0
M  V30 7969 C 749.569 -0.789075 -1.70749 0
M  V30 7970 O 748.927 0.25857 -1.79447 0
M  V30 7971 C 748.975 -3.24402 -1.57467 0
M  V30 7972 O 748.079 -3.13043 -2.68473 0
M  V30 7973 H 747.42 -0.627109 -0.218243 0
M  V30 7974 H 749.95 -2.04537 -0.050949 0
M  V30 7975 H 749.96 -3.58072 -1.95571 0
M  V30 7976 H 748.635 -4.05884 -0.907229 0
M  V30 7977 H 747.212 -2.90915 -2.33287 0
M  V30 7978 N 749.397 0.351382 -1.53633 0
M  V30 7979 C 750.36 1.41403 -1.80383 0
M  V30 7980 C 751.36 1.45963 -0.674635 0
M  V30 7981 O 752.55 1.46476 -0.942895 0
M  V30 7982 C 749.682 2.80401 -1.93876 0
M  V30 7983 H 750.875 1.18951 -2.75301 0
M  V30 7984 H 748.428 0.58533 -1.44926 0
M  V30 7985 H 749.163 3.08147 -1.01074 0
M  V30 7986 H 748.948 2.78488 -2.7602 0
M  V30 7987 H 750.438 3.57329 -2.16116 0
M  V30 7988 N 750.875 1.45233 0.611969 0
M  V30 7989 C 752.291 1.29542 0.932251 0
M  V30 7990 C 752.491 0.24523 2.00002 0
M  V30 7991 O 751.547 -0.362333 2.49887 0
M  V30 7992 C 752.86 2.67301 1.37733 0
M  V30 7993 C 754.408 2.75163 1.49178 0
M  V30 7994 C 754.883 4.13437 1.97064 0
M  V30 7995 N 756.374 4.15709 2.04304 0
M  V30 7996 C 757.109 5.19566 2.42568 0
M  V30 7997 N 756.605 6.33771 2.79832 0
M  V30 7998 N 758.398 5.06923 2.42869 0
M  V30 7999 H 750.549 2.12192 -0.0938679 0
M  V30 8000 H 752.812 0.947775 0.0206569 0
M  V30 8001 H 752.518 3.45318 0.666951 0
M  V30 8002 H 752.392 2.95472 2.3447 0
M  V30 8003 H 754.779 1.97453 2.19309 0
M  V30 8004 H 754.86 2.50712 0.507674 0
M  V30 8005 H 754.504 4.91631 1.27521 0
M  V30 8006 H 754.434 4.35277 2.9638 0
M  V30 8007 H 756.925 3.33293 1.78113 0
M  V30 8008 H 757.238 7.08815 3.07898 0
M  V30 8009 H 755.583 6.37179 2.77538 0
M  V30 8010 H 758.774 4.1675 2.1316 0
M  V30 8011 H 758.947 5.87981 2.72364 0
M  V30 8012 N 752.353 -0.854086 1.3245 0
M  V30 8013 C 753.283 -1.97827 1.24044 0
M  V30 8014 C 754.264 -1.69646 0.124166 0
M  V30 8015 O 755.449 -1.91687 0.31143 0
M  V30 8016 C 752.579 -3.33673 0.963324 0
M  V30 8017 C 751.533 -3.76207 2.04089 0
M  V30 8018 C 750.859 -5.0969 1.61618 0
M  V30 8019 C 752.159 -3.91612 3.45597 0
M  V30 8020 H 753.853 -2.05118 2.18099 0
M  V30 8021 H 751.399 -0.985489 1.04996 0
M  V30 8022 H 753.352 -4.11871 0.891061 0
M  V30 8023 H 752.076 -3.26597 -0.0128649 0
M  V30 8024 H 750.735 -3.0026 2.10332 0
M  V30 8025 H 750.383 -4.99072 0.627418 0
M  V30 8026 H 750.083 -5.3912 2.33717 0
M  V30 8027 H 751.607 -5.90381 1.55829 0
M  V30 8028 H 753.021 -4.60163 3.4194 0
M  V30 8029 H 751.418 -4.3246 4.16051 0
M  V30 8030 H 752.488 -2.9451 3.85217 0
M  V30 8031 N 753.831 -1.1567 -1.07043 0
M  V30 8032 C 755.077 -0.944878 -1.80121 0
M  V30 8033 C 755.432 0.522239 -1.85177 0
M  V30 8034 O 754.725 1.38228 -1.32678 0
M  V30 8035 C 754.919 -1.49677 -3.24548 0
M  V30 8036 C 754.748 -3.01602 -3.33566 0
M  V30 8037 C 753.518 -3.70177 -3.43943 0
M  V30 8038 C 755.716 -3.99362 -3.24059 0
M  V30 8039 N 753.698 -5.09882 -3.41896 0
M  V30 8040 C 755.069 -5.25404 -3.29167 0
M  V30 8041 C 757.124 -3.91289 -3.07891 0
M  V30 8042 C 755.827 -6.44314 -3.19769 0
M  V30 8043 C 757.853 -5.09761 -2.99829 0
M  V30 8044 C 757.215 -6.34679 -3.05552 0
M  V30 8045 H 753.314 -0.399447 -0.672284 0
M  V30 8046 H 755.898 -1.4693 -1.27749 0
M  V30 8047 H 754.069 -0.998941 -3.75334 0
M  V30 8048 H 755.801 -1.22346 -3.85764 0
M  V30 8049 H 752.556 -3.2078 -3.48421 0
M  V30 8050 H 752.98 -5.82857 -3.44393 0
M  V30 8051 H 757.622 -2.95573 -3.02318 0
M  V30 8052 H 755.34 -7.4026 -3.24101 0
M  V30 8053 H 758.926 -5.05279 -2.88418 0
M  V30 8054 H 757.806 -7.24812 -2.99361 0
M  V30 8055 N 755.309 1.25446 -0.953992 0
M  V30 8056 C 756.256 2.25912 -0.472485 0
M  V30 8057 C 757.226 1.59173 0.47469 0
M  V30 8058 O 758.411 1.86812 0.388082 0
M  V30 8059 C 755.551 3.44235 0.244218 0
M  V30 8060 C 754.664 4.25613 -0.740121 0
M  V30 8061 C 753.799 5.312 -0.000922267 0
M  V30 8062 C 752.838 6.04265 -0.976236 0
M  V30 8063 N 751.975 7.01589 -0.267952 0
M  V30 8064 H 756.815 2.66469 -1.3341 0
M  V30 8065 H 754.352 1.31005 -0.669045 0
M  V30 8066 H 756.31 4.11682 0.676314 0
M  V30 8067 H 754.94 3.04554 1.06988 0
M  V30 8068 H 753.992 3.57834 -1.2907 0
M  V30 8069 H 755.304 4.762 -1.48441 0
M  V30 8070 H 754.458 6.04719 0.48984 0
M  V30 8071 H 753.197 4.81484 0.776159 0
M  V30 8072 H 752.202 5.29561 -1.478 0
M  V30 8073 H 753.427 6.5607 -1.75354 0
M  V30 8074 H 751.373 6.54164 0.490403 0
M  V30 8075 H 751.29 7.4999 -0.951344 0
M  V30 8076 H 752.558 7.7924 0.201294 0
M  V30 8077 N 756.787 0.722489 1.40064 0
M  V30 8078 C 758.064 0.191829 1.94657 0
M  V30 8079 C 758.444 -1.30389 1.66018 0
M  V30 8080 O 757.792 -2.06342 0.981588 0
M  V30 8081 C 758.002 0.511978 3.45224 0
M  V30 8082 C 759.35 0.454426 4.22161 0
M  V30 8083 O 760.374 0.448438 3.53366 0
M  V30 8084 O 759.233 0.437986 5.44742 0
M  V30 8085 H 756.327 0.0307821 0.826427 0
M  V30 8086 H 758.873 0.800493 1.49634 0
M  V30 8087 H 757.645 1.54622 3.59455 0
M  V30 8088 H 757.268 -0.126296 3.97399 0
M  V30 8089 N 758.265 -1.50454 0.469181 0
M  V30 8090 C 759.495 -2.06429 -0.0840913 0
M  V30 8091 C 759.903 -1.3334 -1.34227 0
M  V30 8092 O 759.246 -0.395656 -1.79389 0
M  V30 8093 C 759.308 -3.56797 -0.440049 0
M  V30 8094 C 758.972 -4.51359 0.715838 0
M  V30 8095 C 759.969 -4.94754 1.59732 0
M  V30 8096 C 757.654 -4.94069 0.905621 0
M  V30 8097 C 759.648 -5.79564 2.653 0
M  V30 8098 C 757.335 -5.78662 1.96453 0
M  V30 8099 C 758.333 -6.21311 2.83658 0
M  V30 8100 O 758.021 -7.04218 3.87727 0
M  V30 8101 H 757.753 -0.675994 0.00289751 0
M  V30 8102 H 760.307 -1.94629 0.656417 0
M  V30 8103 H 758.537 -3.66492 -1.23372 0
M  V30 8104 H 760.226 -3.95145 -0.928181 0
M  V30 8105 H 760.992 -4.62428 1.46237 0
M  V30 8106 H 756.871 -4.60394 0.236326 0
M  V30 8107 H 760.415 -6.12774 3.33398 0
M  V30 8108 H 756.312 -6.10401 2.09955 0
M  V30 8109 H 757.08 -7.22464 3.84692 0
M  V30 8110 N 759.743 -0.201713 -1.56304 0
M  V30 8111 C 761.02 0.483273 -1.89536 0
M  V30 8112 C 761.4 1.79176 -1.11621 0
M  V30 8113 O 760.748 2.27445 -0.219339 0
M  V30 8114 C 760.958 0.695604 -3.41998 0
M  V30 8115 C 762.306 1.012 -4.12364 0
M  V30 8116 O 763.33 0.783094 -3.47485 0
M  V30 8117 O 762.189 1.44534 -5.27041 0
M  V30 8118 H 759.283 0.252801 -0.787414 0
M  V30 8119 H 761.829 -0.24242 -1.6796 0
M  V30 8120 H 760.601 -0.228165 -3.90634 0
M  V30 8121 H 760.224 1.47351 -3.69288 0
M  V30 8122 N 761.222 1.57436 0.0718424 0
M  V30 8123 C 762.633 1.75975 0.623678 0
M  V30 8124 C 762.984 0.827155 1.77912 0
M  V30 8125 O 762.109 0.0112425 2.16397 0
M  V30 8126 C 762.704 3.1911 1.13816 0
M  V30 8127 C 761.263 3.38994 1.63586 0
M  V30 8128 C 760.41 2.71684 0.555261 0
M  V30 8129 H 763.361 1.57948 -0.154328 0
M  V30 8130 H 763.382 3.23267 2.00696 0
M  V30 8131 H 762.894 3.86962 0.296998 0
M  V30 8132 H 760.995 2.76256 2.50027 0
M  V30 8133 H 761.108 4.47436 1.71283 0
M  V30 8134 H 759.472 2.34236 1.00029 0
M  V30 8135 H 760.255 3.42191 -0.275712 0
M  V30 8136 N 762.7 -0.34323 1.53817 0
M  V30 8137 C 763.928 -1.10348 1.75017 0
M  V30 8138 C 764.343 -1.82345 0.489475 0
M  V30 8139 O 763.7 -1.74362 -0.538886 0
M  V30 8140 C 763.751 -2.11672 2.93048 0
M  V30 8141 O 763.472 -1.42603 4.14241 0
M  V30 8142 C 764.973 -3.0007 3.26301 0
M  V30 8143 H 762.193 -0.329056 0.584776 0
M  V30 8144 H 764.737 -0.395339 2.00642 0
M  V30 8145 H 762.892 -2.78051 2.69753 0
M  V30 8146 H 763.306 -2.10294 4.80496 0
M  V30 8147 H 764.78 -3.67101 4.12239 0
M  V30 8148 H 765.257 -3.66105 2.42618 0
M  V30 8149 H 765.863 -2.3928 3.51604 0
M  V30 8150 N 764.178 -1.45556 -0.604258 0
M  V30 8151 C 765.425 -1.49746 -1.36317 0
M  V30 8152 C 765.753 -0.140516 -1.93992 0
M  V30 8153 O 765.008 0.861244 -1.7573 0
M  V30 8154 C 765.307 -2.52697 -2.52743 0
M  V30 8155 C 764.973 -3.97315 -2.13195 0
M  V30 8156 C 763.635 -4.36692 -2.02123 0
M  V30 8157 C 765.987 -4.88249 -1.8238 0
M  V30 8158 C 763.315 -5.64895 -1.58463 0
M  V30 8159 C 765.667 -6.16867 -1.40205 0
M  V30 8160 C 764.331 -6.55172 -1.27694 0
M  V30 8161 H 763.601 -0.54796 -0.49882 0
M  V30 8162 H 766.248 -1.7892 -0.682643 0
M  V30 8163 H 764.553 -2.17105 -3.26148 0
M  V30 8164 H 766.25 -2.53176 -3.10971 0
M  V30 8165 H 762.84 -3.66176 -2.22739 0
M  V30 8166 H 767.024 -4.58561 -1.89829 0
M  V30 8167 H 762.28 -5.93365 -1.47402 0
M  V30 8168 H 766.454 -6.86771 -1.15408 0
M  V30 8169 H 764.081 -7.54411 -0.936375 0
M  V30 8170 N 765.656 0.84705 -1.32902 0
M  V30 8171 C 766.619 1.9378 -1.224 0
M  V30 8172 C 767.619 1.60144 -0.145108 0
M  V30 8173 O 768.809 1.69638 -0.396058 0
M  V30 8174 C 765.941 3.29234 -0.884174 0
M  V30 8175 H 767.134 2.04518 -2.19345 0
M  V30 8176 H 764.687 1.03816 -1.16842 0
M  V30 8177 H 765.422 3.24193 0.0831277 0
M  V30 8178 H 765.207 3.55026 -1.6643 0
M  V30 8179 H 766.697 4.09162 -0.835226 0
M  V30 8180 N 767.134 1.16236 1.06428 0
M  V30 8181 C 768.097 0.870163 2.1204 0
M  V30 8182 C 769.097 -0.134239 1.60239 0
M  V30 8183 O 770.287 0.0964932 1.73933 0
M  V30 8184 C 767.419 0.301033 3.39568 0
M  V30 8185 H 768.612 1.8064 2.39394 0
M  V30 8186 H 766.165 0.971116 1.2247 0
M  V30 8187 H 766.9 -0.642948 3.17863 0
M  V30 8188 H 766.685 1.02475 3.78472 0
M  V30 8189 H 768.175 0.114494 4.17443 0
M  V30 8190 N 768.612 -1.24939 0.960631 0
M  V30 8191 C 769.889 -1.88118 0.535807 0
M  V30 8192 C 770.269 -1.86605 -0.987009 0
M  V30 8193 O 769.617 -1.33375 -1.85536 0
M  V30 8194 C 769.827 -3.30565 1.11927 0
M  V30 8195 C 771.175 -4.07296 1.19981 0
M  V30 8196 O 772.199 -3.39709 1.07126 0
M  V30 8197 O 771.058 -5.28206 1.40218 0
M  V30 8198 H 768.152 -0.807698 0.177631 0
M  V30 8199 H 770.698 -1.32964 1.05445 0
M  V30 8200 H 769.47 -3.26128 2.16231 0
M  V30 8201 H 769.093 -3.93284 0.584245 0
M  V30 8202 N 770.09 -0.729906 -1.39679 0
M  V30 8203 C 771.33 -0.280232 -2.0247 0
M  V30 8204 C 771.694 1.11006 -1.56658 0
M  V30 8205 O 772.895 1.65753 -2.11612 0
M  V30 8206 C 771.166 -0.372922 -3.55449 0
M  V30 8207 S 772.725 -0.00233974 -4.388 0
M  V30 8208 H 769.543 -0.110139 -0.702418 0
M  V30 8209 H 772.145 -0.955296 -1.70571 0
M  V30 8210 H 770.849 -1.38616 -3.86282 0
M  V30 8211 H 770.38 0.320136 -3.92095 0
M  V30 8212 H 772.395 1.21544 -4.81084 0
M  V30 8213 N 771.568 1.50203 -0.477153 0
M  V30 8214 C 772.498 2.31517 0.303646 0
M  V30 8215 C 773.479 1.38696 0.984753 0
M  V30 8216 O 774.664 1.67615 0.980758 0
M  V30 8217 C 771.794 3.18598 1.38249 0
M  V30 8218 C 770.748 4.2002 0.822645 0
M  V30 8219 C 770.074 4.95878 2.00024 0
M  V30 8220 C 771.374 5.22023 -0.170185 0
M  V30 8221 H 773.068 2.97042 -0.375027 0
M  V30 8222 H 770.614 1.42848 -0.181802 0
M  V30 8223 H 772.567 3.74282 1.93625 0
M  V30 8224 H 771.291 2.5097 2.09002 0
M  V30 8225 H 769.95 3.65445 0.290813 0
M  V30 8226 H 769.598 4.24717 2.69489 0
M  V30 8227 H 769.298 5.64487 1.63183 0
M  V30 8228 H 770.822 5.54399 2.55878 0
M  V30 8229 H 772.236 5.72543 0.294606 0
M  V30 8230 H 770.633 5.98386 -0.453181 0
M  V30 8231 H 771.703 4.72396 -1.09408 0
M  V30 8232 N 773.046 0.209999 1.56195 0
M  V30 8233 C 773.956 -0.716459 2.23392 0
M  V30 8234 C 774.972 -1.22291 1.23778 0
M  V30 8235 O 776.148 -1.26694 1.56558 0
M  V30 8236 C 773.213 -1.91261 2.89172 0
M  V30 8237 C 772.274 -1.44927 4.04097 0
M  V30 8238 C 771.507 -2.5884 4.66731 0
M  V30 8239 O 771.73 -3.76693 4.2832 0
M  V30 8240 O 770.664 -2.30701 5.55932 0
M  V30 8241 H 774.49 -0.174089 3.03201 0
M  V30 8242 H 772.075 -0.0199505 1.49387 0
M  V30 8243 H 773.957 -2.6114 3.30733 0
M  V30 8244 H 772.632 -2.4433 2.12331 0
M  V30 8245 H 771.539 -0.718839 3.67129 0
M  V30 8246 H 772.872 -0.965084 4.82646 0
M  V30 8247 N 774.524 -1.57472 -0.0634922 0
M  V30 8248 C 775.471 -2.04258 -1.07457 0
M  V30 8249 C 776.441 -0.924804 -1.37973 0
M  V30 8250 O 777.626 -1.19305 -1.48899 0
M  V30 8251 C 774.766 -2.49832 -2.38071 0
M  V30 8252 C 773.879 -3.75263 -2.14014 0
M  V30 8253 C 773.014 -4.09585 -3.38251 0
M  V30 8254 C 772.053 -5.28032 -3.09594 0
M  V30 8255 N 771.19 -5.57953 -4.26185 0
M  V30 8256 H 776.03 -2.90402 -0.668626 0
M  V30 8257 H 773.567 -1.43609 -0.318572 0
M  V30 8258 H 775.525 -2.7431 -3.14341 0
M  V30 8259 H 774.155 -1.66654 -2.76453 0
M  V30 8260 H 773.207 -3.58075 -1.28399 0
M  V30 8261 H 774.519 -4.61667 -1.88852 0
M  V30 8262 H 773.673 -4.35008 -4.2291 0
M  V30 8263 H 772.412 -3.21765 -3.66495 0
M  V30 8264 H 771.417 -5.02397 -2.23332 0
M  V30 8265 H 772.642 -6.17477 -2.82663 0
M  V30 8266 H 770.588 -4.73092 -4.54445 0
M  V30 8267 H 770.505 -6.38793 -4.04326 0
M  V30 8268 H 771.773 -5.87931 -5.11817 0
M  V30 8269 N 776.003 0.335068 -1.53997 0
M  V30 8270 C 776.966 1.39481 -1.81872 0
M  V30 8271 C 777.966 1.4524 -0.690078 0
M  V30 8272 O 779.156 1.45467 -0.958377 0
M  V30 8273 C 776.288 2.78329 -1.9684 0
M  V30 8274 H 777.481 1.16024 -2.76547 0
M  V30 8275 H 775.034 0.569926 -1.45539 0
M  V30 8276 H 775.769 3.07058 -1.04337 0
M  V30 8277 H 775.554 2.75544 -2.78958 0
M  V30 8278 H 777.044 3.55016 -2.19894 0
M  V30 8279 N 777.481 1.45874 0.596531 0
M  V30 8280 C 778.391 1.57947 1.73464 0
M  V30 8281 C 779.407 0.463461 1.67714 0
M  V30 8282 O 780.583 0.725685 1.87872 0
M  V30 8283 C 777.648 1.55348 3.09948 0
M  V30 8284 C 776.709 2.78074 3.27068 0
M  V30 8285 C 775.942 2.75589 4.57041 0
M  V30 8286 O 776.165 1.83545 5.40063 0
M  V30 8287 O 775.099 3.66945 4.77111 0
M  V30 8288 H 778.925 2.54169 1.66228 0
M  V30 8289 H 776.51 1.2851 0.76194 0
M  V30 8290 H 778.392 1.56545 3.91244 0
M  V30 8291 H 777.067 0.622811 3.17652 0
M  V30 8292 H 775.974 2.82435 2.45319 0
M  V30 8293 H 777.307 3.70303 3.24248 0
M  V30 8294 N 778.959 -0.83999 1.33349 0
M  V30 8295 C 780.208 -1.59011 1.2409 0
M  V30 8296 C 780.521 -1.94655 -0.192029 0
M  V30 8297 O 781.727 -2.68438 -0.406617 0
M  V30 8298 C 780.183 -2.86801 2.17425 0
M  V30 8299 C 779.791 -2.58525 3.65881 0
M  V30 8300 C 781.535 -3.64823 2.17036 0
M  V30 8301 C 779.442 -3.82404 4.51133 0
M  V30 8302 H 778.372 -0.596731 0.460899 0
M  V30 8303 H 781.023 -0.926274 1.58406 0
M  V30 8304 H 779.405 -3.54719 1.7604 0
M  V30 8305 H 780.579 -1.98824 4.15699 0
M  V30 8306 H 778.894 -1.93808 3.68548 0
M  V30 8307 H 781.491 -4.56774 2.7796 0
M  V30 8308 H 781.834 -3.99663 1.16513 0
M  V30 8309 H 782.367 -3.03826 2.56777 0
M  V30 8310 H 779.106 -3.52696 5.52527 0
M  V30 8311 H 778.626 -4.41447 4.0606 0
M  V30 8312 H 780.305 -4.49995 4.6488 0
M  V30 8313 N 780.437 -1.16799 -1.0581 0
M  V30 8314 C 781.4 -0.881396 -2.11575 0
M  V30 8315 C 782.4 0.12574 -1.60308 0
M  V30 8316 O 783.59 -0.105716 -1.73879 0
M  V30 8317 C 780.722 -0.319037 -3.39404 0
M  V30 8318 H 781.915 -1.81907 -2.38432 0
M  V30 8319 H 779.468 -0.977597 -1.21954 0
M  V30 8320 H 780.203 0.626082 -3.18199 0
M  V30 8321 H 779.988 -1.04481 -3.77923 0
M  V30 8322 H 781.478 -0.13663 -4.17376 0
M  V30 8323 N 781.915 1.24427 -0.967243 0
M  V30 8324 C 783.161 1.93089 -0.639404 0
M  V30 8325 C 783.516 1.7422 0.816407 0
M  V30 8326 O 782.809 1.08435 1.57964 0
M  V30 8327 C 783.003 3.44568 -0.949096 0
M  V30 8328 C 782.832 3.7817 -2.43346 0
M  V30 8329 C 781.602 3.99561 -3.09321 0
M  V30 8330 C 783.8 3.84687 -3.41351 0
M  V30 8331 N 781.782 4.20259 -4.475 0
M  V30 8332 C 783.153 4.10223 -4.64884 0
M  V30 8333 C 785.208 3.67421 -3.36015 0
M  V30 8334 C 783.911 4.20286 -5.8374 0
M  V30 8335 C 785.937 3.78731 -4.54221 0
M  V30 8336 C 785.299 4.04691 -5.76545 0
M  V30 8337 H 781.398 0.728291 -0.284809 0
M  V30 8338 H 783.982 1.49941 -1.24201 0
M  V30 8339 H 782.153 3.86582 -0.375308 0
M  V30 8340 H 783.885 4.00524 -0.579876 0
M  V30 8341 H 780.64 3.95946 -2.59853 0
M  V30 8342 H 781.064 4.34588 -5.19097 0
M  V30 8343 H 785.706 3.46358 -2.42479 0
M  V30 8344 H 783.424 4.40162 -6.77704 0
M  V30 8345 H 787.01 3.66743 -4.51653 0
M  V30 8346 H 785.89 4.1324 -6.66485 0
M  V30 8347 N 783.393 0.737304 1.3929 0
M  V30 8348 C 784.325 0.0592106 2.29124 0
M  V30 8349 C 785.338 -0.701026 1.46934 0
M  V30 8350 O 786.527 -0.544808 1.69983 0
M  V30 8351 C 783.627 -0.940358 3.25592 0
M  V30 8352 C 782.8 -0.241163 4.36735 0
M  V30 8353 C 781.859 -1.14916 5.13498 0
M  V30 8354 O 780.885 -0.625783 5.6575 0
M  V30 8355 N 782.087 -2.47869 5.2492 0
M  V30 8356 H 784.852 0.830647 2.87959 0
M  V30 8357 H 782.413 0.586718 1.50895 0
M  V30 8358 H 784.405 -1.55046 3.73822 0
M  V30 8359 H 782.975 -1.61299 2.67771 0
M  V30 8360 H 782.195 0.549441 3.90352 0
M  V30 8361 H 783.483 0.243299 5.08218 0
M  V30 8362 H 782.881 -2.92864 4.83991 0
M  V30 8363 H 781.438 -3.03969 5.76581 0
M  V30 8364 N 784.871 -1.49948 0.485112 0
M  V30 8365 C 785.834 -2.27351 -0.290546 0
M  V30 8366 C 786.834 -1.32704 -0.908087 0
M  V30 8367 O 788.024 -1.56007 -0.775085 0
M  V30 8368 C 785.156 -3.10135 -1.41524 0
M  V30 8369 H 786.349 -2.97374 0.388454 0
M  V30 8370 H 783.902 -1.54453 0.239586 0
M  V30 8371 H 784.637 -2.44641 -2.12888 0
M  V30 8372 H 784.422 -3.79705 -0.978074 0
M  V30 8373 H 785.912 -3.68638 -1.96204 0
M  V30 8374 N 786.349 -0.21828 -1.56081 0
M  V30 8375 C 787.312 0.679633 -2.18892 0
M  V30 8376 C 788.312 1.12405 -1.14986 0
M  V30 8377 O 789.502 1.03339 -1.40238 0
M  V30 8378 C 786.634 1.93063 -2.80962 0
M  V30 8379 H 787.827 0.132066 -2.99609 0
M  V30 8380 H 785.38 0.0313374 -1.56269 0
M  V30 8381 H 786.115 2.52015 -2.04106 0
M  V30 8382 H 785.9 1.62046 -3.57048 0
M  V30 8383 H 787.39 2.57043 -3.29118 0
M  V30 8384 N 787.827 1.57504 0.0551401 0
M  V30 8385 C 788.757 2.07864 1.06372 0
M  V30 8386 C 789.738 0.975565 1.39344 0
M  V30 8387 O 790.923 1.24929 1.48682 0
M  V30 8388 C 788.053 2.53643 2.3724 0
M  V30 8389 C 787.007 3.67978 2.18578 0
M  V30 8390 C 786.333 3.9987 3.54976 0
M  V30 8391 C 787.633 4.97405 1.59329 0
M  V30 8392 H 789.327 2.92379 0.644595 0
M  V30 8393 H 786.873 1.40654 0.308619 0
M  V30 8394 H 788.826 2.8749 3.08103 0
M  V30 8395 H 787.55 1.66177 2.81163 0
M  V30 8396 H 786.209 3.3444 1.50152 0
M  V30 8397 H 785.857 3.0951 3.965 0
M  V30 8398 H 785.557 4.76867 3.43324 0
M  V30 8399 H 787.081 4.36228 4.27244 0
M  V30 8400 H 788.495 5.29375 2.20078 0
M  V30 8401 H 786.892 5.78837 1.58327 0
M  V30 8402 H 787.962 4.81697 0.55638 0
M  V30 8403 N 789.305 -0.326896 1.54172 0
M  V30 8404 C 790.252 -1.40216 1.83325 0
M  V30 8405 C 791.222 -1.51538 0.680107 0
M  V30 8406 O 792.407 -1.66811 0.926206 0
M  V30 8407 C 789.547 -2.76626 2.0633 0
M  V30 8408 C 788.66 -2.73963 3.34019 0
M  V30 8409 C 787.795 -4.02198 3.47002 0
M  V30 8410 C 786.834 -3.93828 4.68578 0
M  V30 8411 N 785.971 -5.13787 4.78506 0
M  V30 8412 H 790.811 -1.14656 2.7506 0
M  V30 8413 H 788.348 -0.555089 1.36225 0
M  V30 8414 H 790.306 -3.55922 2.17659 0
M  V30 8415 H 788.936 -3.00503 1.1789 0
M  V30 8416 H 787.988 -1.86677 3.31445 0
M  V30 8417 H 789.3 -2.6366 4.2342 0
M  V30 8418 H 788.454 -4.89923 3.57855 0
M  V30 8419 H 787.193 -4.15302 2.55687 0
M  V30 8420 H 786.198 -3.04487 4.57786 0
M  V30 8421 H 787.423 -3.82292 5.61275 0
M  V30 8422 H 785.369 -5.27403 3.90105 0
M  V30 8423 H 785.286 -5.05807 5.61868 0
M  V30 8424 H 786.554 -6.03236 4.93686 0
M  V30 8425 N 790.784 -1.46188 -0.588786 0
M  V30 8426 C 791.734 -1.5271 -1.69303 0
M  V30 8427 C 792.718 -0.388578 -1.56137 0
M  V30 8428 O 793.91 -0.636616 -1.65155 0
M  V30 8429 C 791.039 -1.51457 -3.08084 0
M  V30 8430 C 790.125 -2.70581 -3.26568 0
M  V30 8431 N 790.516 -3.9555 -3.15236 0
M  V30 8432 C 788.814 -2.66676 -3.57491 0
M  V30 8433 C 789.515 -4.75157 -3.35561 0
M  V30 8434 N 788.491 -4.06927 -3.60432 0
M  V30 8435 H 792.293 -2.47136 -1.59063 0
M  V30 8436 H 789.807 -1.41743 -0.792632 0
M  V30 8437 H 791.804 -1.54216 -3.87328 0
M  V30 8438 H 790.464 -0.581036 -3.19459 0
M  V30 8439 H 791.475 -4.2689 -2.93232 0
M  V30 8440 H 788.152 -1.82317 -3.75588 0
M  V30 8441 H 789.542 -5.84126 -3.32034 0
M  V30 8442 N 792.262 0.832906 -1.33792 0
M  V30 8443 C 793.673 1.40489 -1.22963 0
M  V30 8444 C 794.024 1.95633 0.149026 0
M  V30 8445 O 793.149 1.8928 1.04891 0
M  V30 8446 C 793.744 2.55387 -2.22627 0
M  V30 8447 C 792.303 3.08522 -2.15618 0
M  V30 8448 C 791.45 1.81347 -2.09782 0
M  V30 8449 H 794.401 0.638156 -1.45304 0
M  V30 8450 H 794.422 3.33193 -1.83746 0
M  V30 8451 H 793.934 2.15222 -3.22957 0
M  V30 8452 H 792.035 3.53217 -1.18611 0
M  V30 8453 H 792.148 3.6829 -3.0643 0
M  V30 8454 H 790.512 2.01839 -1.55349 0
M  V30 8455 H 791.295 1.43369 -3.1193 0
M  V30 8456 N 793.74 1.17359 1.05189 0
M  V30 8457 C 795.017 0.871914 1.75091 0
M  V30 8458 C 795.397 -0.627821 2.01548 0
M  V30 8459 O 794.745 -1.5791 1.65156 0
M  V30 8460 C 794.955 1.70687 3.04413 0
M  V30 8461 C 796.303 1.92684 3.78362 0
M  V30 8462 O 797.327 1.67645 3.14282 0
M  V30 8463 O 796.186 2.34765 4.93505 0
M  V30 8464 H 793.28 0.322831 0.761386 0
M  V30 8465 H 795.826 1.28054 1.11357 0
M  V30 8466 H 794.598 2.72405 2.80911 0
M  V30 8467 H 794.221 1.29602 3.75884 0
M  V30 8468 N 795.218 -1.23913 0.973828 0
M  V30 8469 C 796.467 -1.91455 0.63464 0
M  V30 8470 C 796.78 -1.76893 -0.834759 0
M  V30 8471 O 797.986 -2.3918 -1.28473 0
M  V30 8472 C 796.442 -3.43172 1.08447 0
M  V30 8473 C 796.05 -3.66409 2.57776 0
M  V30 8474 C 797.794 -4.1653 0.818721 0
M  V30 8475 C 795.701 -5.11728 2.9646 0
M  V30 8476 H 794.631 -0.716881 0.233661 0
M  V30 8477 H 797.282 -1.40457 1.18085 0
M  V30 8478 H 795.664 -3.93242 0.466524 0
M  V30 8479 H 796.838 -3.26913 3.24753 0
M  V30 8480 H 795.153 -3.06349 2.82027 0
M  V30 8481 H 797.75 -5.23603 1.08367 0
M  V30 8482 H 798.093 -4.15578 -0.245128 0
M  V30 8483 H 798.626 -3.72428 1.39793 0
M  V30 8484 H 795.365 -5.17806 4.01941 0
M  V30 8485 H 794.885 -5.52199 2.34172 0
M  V30 8486 H 796.564 -5.80009 2.86703 0
M  V30 8487 N 796.696 -0.74468 -1.38897 0
M  V30 8488 C 797.926 -0.306982 -2.04307 0
M  V30 8489 C 798.334 1.06652 -1.56275 0
M  V30 8490 O 797.677 1.68699 -0.72708 0
M  V30 8491 C 797.739 -0.241186 -3.5869 0
M  V30 8492 C 797.403 -1.55476 -4.2974 0
M  V30 8493 C 798.4 -2.50229 -4.55721 0
M  V30 8494 C 796.085 -1.82173 -4.68101 0
M  V30 8495 C 798.079 -3.69905 -5.19085 0
M  V30 8496 C 795.766 -3.02125 -5.31191 0
M  V30 8497 C 796.764 -3.95812 -5.56616 0
M  V30 8498 O 796.452 -5.13656 -6.18395 0
M  V30 8499 H 796.184 -0.130416 -0.663301 0
M  V30 8500 H 798.738 -1.01192 -1.78744 0
M  V30 8501 H 796.968 0.519925 -3.83189 0
M  V30 8502 H 798.657 0.165806 -4.05561 0
M  V30 8503 H 799.423 -2.30877 -4.26522 0
M  V30 8504 H 795.302 -1.10091 -4.47662 0
M  V30 8505 H 798.846 -4.43047 -5.38846 0
M  V30 8506 H 794.743 -3.21374 -5.59811 0
M  V30 8507 H 795.511 -5.14119 -6.36886 0
M  V30 8508 N 798.174 1.49689 -0.493057 0
M  V30 8509 C 799.137 2.27502 0.278485 0
M  V30 8510 C 800.137 1.33184 0.901037 0
M  V30 8511 O 801.327 1.56415 0.766801 0
M  V30 8512 C 798.459 3.10881 1.39878 0
M  V30 8513 H 799.652 2.97163 -0.404219 0
M  V30 8514 H 797.205 1.54324 -0.247774 0
M  V30 8515 H 797.94 2.45767 2.11587 0
M  V30 8516 H 797.725 3.80219 0.957924 0
M  V30 8517 H 799.215 3.69673 1.94247 0
M  V30 8518 N 799.652 0.226554 1.55963 0
M  V30 8519 C 800.562 -0.692725 2.24139 0
M  V30 8520 C 801.578 -1.20971 1.25068 0
M  V30 8521 O 802.754 -1.25027 1.57893 0
M  V30 8522 C 799.819 -1.88183 2.91184 0
M  V30 8523 C 798.88 -1.40633 4.05612 0
M  V30 8524 C 798.113 -2.53875 4.6945 0
M  V30 8525 O 798.336 -3.72129 4.32292 0
M  V30 8526 O 797.27 -2.24792 5.58348 0
M  V30 8527 H 801.096 -0.141921 3.03368 0
M  V30 8528 H 798.681 -0.0041049 1.49399 0
M  V30 8529 H 800.563 -2.57617 3.33484 0
M  V30 8530 H 799.238 -2.42064 2.14911 0
M  V30 8531 H 798.145 -0.67986 3.67871 0
M  V30 8532 H 799.478 -0.913838 4.83642 0
M  V30 8533 N 801.13 -1.57531 -0.0467866 0
M  V30 8534 C 802.36 -1.92417 -0.752279 0
M  V30 8535 C 802.768 -0.823134 -1.70356 0
M  V30 8536 O 802.111 0.210598 -1.82489 0
M  V30 8537 C 802.173 -3.22974 -1.57887 0
M  V30 8538 C 801.837 -4.50045 -0.794285 0
M  V30 8539 C 802.834 -5.19799 -0.102368 0
M  V30 8540 C 800.519 -4.96608 -0.754061 0
M  V30 8541 C 802.513 -6.34385 0.619267 0
M  V30 8542 C 800.2 -6.11093 -0.0286682 0
M  V30 8543 C 801.198 -6.79835 0.656772 0
M  V30 8544 O 800.886 -7.92133 1.37042 0
M  V30 8545 H 800.618 -0.640029 -0.217576 0
M  V30 8546 H 803.172 -2.05395 -0.0137438 0
M  V30 8547 H 801.402 -3.06273 -2.3608 0
M  V30 8548 H 803.091 -3.43319 -2.16533 0
M  V30 8549 H 803.857 -4.8484 -0.124589 0
M  V30 8550 H 799.736 -4.42958 -1.27706 0
M  V30 8551 H 803.28 -6.87975 1.15483 0
M  V30 8552 H 799.177 -6.455 -0.00446214 0
M  V30 8553 H 799.945 -8.08394 1.28227 0
M  V30 8554 N 802.608 0.318715 -1.54344 0
M  V30 8555 C 803.836 1.0755 -1.7675 0
M  V30 8556 C 804.251 1.81543 -0.518422 0
M  V30 8557 O 803.608 1.75198 0.511078 0
M  V30 8558 C 803.659 2.06983 -2.96378 0
M  V30 8559 O 803.38 1.35995 -4.16458 0
M  V30 8560 C 804.881 2.94841 -3.31034 0
M  V30 8561 H 802.101 0.319711 -0.589937 0
M  V30 8562 H 804.645 0.363369 -2.01246 0
M  V30 8563 H 802.8 2.73724 -2.74142 0
M  V30 8564 H 803.214 2.02623 -4.83781 0
M  V30 8565 H 804.688 3.60496 -4.18027 0
M  V30 8566 H 805.165 3.62199 -2.48412 0
M  V30 8567 H 805.771 2.33656 -3.55366 0
M  V30 8568 N 804.086 1.46499 0.581025 0
M  V30 8569 C 805.497 1.4604 1.16315 0
M  V30 8570 C 805.848 0.202154 1.95156 0
M  V30 8571 O 804.973 -0.694638 2.04948 0
M  V30 8572 C 805.568 2.64593 2.11604 0
M  V30 8573 C 804.127 2.6717 2.65136 0
M  V30 8574 C 803.274 2.38753 1.4104 0
M  V30 8575 H 806.225 1.54354 0.368871 0
M  V30 8576 H 806.246 2.40207 2.95095 0
M  V30 8577 H 805.758 3.56154 1.54194 0
M  V30 8578 H 803.859 1.79685 3.26411 0
M  V30 8579 H 803.972 3.67182 3.07757 0
M  V30 8580 H 802.336 1.88845 1.70908 0
M  V30 8581 H 803.119 3.32493 0.854588 0
M  V30 8582 N 805.565 -0.825799 1.34232 0
M  V30 8583 C 806.813 -1.57873 1.26177 0
M  V30 8584 C 807.134 -1.94267 -0.168904 0
M  V30 8585 O 806.404 -1.62045 -1.10084 0
M  V30 8586 H 804.984 -0.585388 0.464037 0
M  V30 8587 H 807.646 -0.986163 1.6811 0
M  V30 8588 H 806.742 -2.50283 1.86453 0
M  V30 8589 N 807.043 -1.17915 -1.04565 0
M  V30 8590 C 808.268 -0.996749 -1.81878 0
M  V30 8591 C 808.693 0.450169 -1.82634 0
M  V30 8592 O 808.051 1.32268 -1.23995 0
M  V30 8593 C 808.099 -1.55005 -3.25585 0
M  V30 8594 O 807.203 -0.76804 -4.05185 0
M  V30 8595 H 806.544 -0.353456 -0.562108 0
M  V30 8596 H 809.074 -1.56557 -1.31723 0
M  V30 8597 H 809.084 -1.57503 -3.76373 0
M  V30 8598 H 807.759 -2.60327 -3.2435 0
M  V30 8599 H 806.336 -0.81498 -3.63885 0
M  V30 8600 N 808.521 1.23394 -0.980386 0
M  V30 8601 C 809.769 1.91431 -0.647978 0
M  V30 8602 C 810.09 1.76871 0.821066 0
M  V30 8603 O 809.36 1.14808 1.58732 0
M  V30 8604 H 807.94 0.708516 -0.236673 0
M  V30 8605 H 810.602 1.50019 -1.2442 0
M  V30 8606 H 809.698 2.98854 -0.899592 0
M  V30 8607 N 809.999 0.752036 1.385 0
M  V30 8608 C 811.247 0.306895 1.99756 0
M  V30 8609 C 811.568 -1.11478 1.59992 0
M  V30 8610 O 810.838 -1.76206 0.856045 0
M  V30 8611 H 809.418 0.11048 0.738785 0
M  V30 8612 H 812.08 0.965785 1.69289 0
M  V30 8613 H 811.176 0.368797 3.09913 0
M  V30 8614 N 811.477 -1.49425 0.500989 0
M  V30 8615 C 812.888 -1.86624 0.0532011 0
M  V30 8616 C 813.239 -1.41331 -1.36088 0
M  V30 8617 O 812.364 -0.791195 -2.01418 0
M  V30 8618 C 812.959 -3.38681 0.0897693 0
M  V30 8619 C 811.518 -3.75181 -0.302677 0
M  V30 8620 C 810.665 -2.73419 0.462307 0
M  V30 8621 H 813.616 -1.41743 0.713773 0
M  V30 8622 H 813.637 -3.73902 -0.705528 0
M  V30 8623 H 813.149 -3.71616 1.11907 0
M  V30 8624 H 811.25 -3.47855 -1.33521 0
M  V30 8625 H 811.363 -4.79097 0.0167653 0
M  V30 8626 H 809.727 -2.54548 -0.0878557 0
M  V30 8627 H 810.51 -3.09198 1.49169 0
M  V30 8628 N 812.955 -0.234822 -1.55841 0
M  V30 8629 C 814.203 0.392483 -1.98252 0
M  V30 8630 C 814.524 1.59344 -1.12404 0
M  V30 8631 O 813.794 1.94834 -0.204055 0
M  V30 8632 H 812.374 0.147999 -0.732192 0
M  V30 8633 H 815.036 -0.330804 -1.92072 0
M  V30 8634 H 814.132 0.709829 -3.03921 0
M  V30 8635 N 814.433 1.57553 0.0384317 0
M  V30 8636 C 815.681 1.88468 0.729672 0
M  V30 8637 C 816.002 0.831302 1.76393 0
M  V30 8638 O 815.272 -0.13622 1.95426 0
M  V30 8639 H 813.852 0.695529 0.272485 0
M  V30 8640 H 816.514 1.94899 0.0066032 0
M  V30 8641 H 815.61 2.8705 1.22511 0
M  V30 8642 N 815.911 -0.310526 1.54511 0
M  V30 8643 C 817.159 -1.04484 1.72996 0
M  V30 8644 C 817.48 -1.88118 0.513479 0
M  V30 8645 O 816.75 -1.90119 -0.472384 0
M  V30 8646 H 815.33 -0.388747 0.637875 0
M  V30 8647 H 817.992 -0.343811 1.91844 0
M  V30 8648 H 817.088 -1.70341 2.61515 0
M  V30 8649 N 817.389 -1.46805 -0.573248 0
M  V30 8650 C 818.8 -1.46655 -1.15539 0
M  V30 8651 C 819.151 -0.2125 -1.95046 0
M  V30 8652 O 818.276 0.683759 -2.05314 0
M  V30 8653 C 818.871 -2.65711 -2.10198 0
M  V30 8654 C 817.43 -2.68572 -2.63716 0
M  V30 8655 C 816.577 -2.39498 -1.39772 0
M  V30 8656 H 819.528 -1.54547 -0.36068 0
M  V30 8657 H 819.549 -2.41768 -2.93817 0
M  V30 8658 H 819.061 -3.56967 -1.52303 0
M  V30 8659 H 817.162 -1.81414 -3.25453 0
M  V30 8660 H 817.275 -3.68809 -3.05805 0
M  V30 8661 H 815.639 -1.89749 -1.69904 0
M  V30 8662 H 816.422 -3.32942 -0.836943 0
M  V30 8663 N 818.867 0.818669 -1.34668 0
M  V30 8664 C 820.097 1.60441 -1.30162 0
M  V30 8665 C 820.505 1.88783 0.125579 0
M  V30 8666 O 819.848 1.48281 1.08437 0
M  V30 8667 C 819.91 2.96794 -2.02864 0
M  V30 8668 C 819.574 2.91327 -3.52105 0
M  V30 8669 C 820.571 2.65611 -4.4693 0
M  V30 8670 C 818.256 3.10825 -3.9458 0
M  V30 8671 C 820.25 2.59452 -5.82206 0
M  V30 8672 C 817.937 3.0429 -5.29954 0
M  V30 8673 C 818.935 2.78637 -6.23579 0
M  V30 8674 O 818.623 2.72042 -7.56471 0
M  V30 8675 H 818.355 0.505278 -0.449077 0
M  V30 8676 H 820.909 1.02632 -1.77921 0
M  V30 8677 H 819.139 3.56538 -1.49725 0
M  V30 8678 H 820.828 3.57837 -1.91592 0
M  V30 8679 H 821.594 2.50278 -4.15434 0
M  V30 8680 H 817.473 3.29807 -3.221 0
M  V30 8681 H 821.017 2.39349 -6.55254 0
M  V30 8682 H 816.914 3.19177 -5.61067 0
M  V30 8683 H 817.682 2.87738 -7.66257 0
M  V30 8684 N 820.346 1.18468 1.03938 0
M  V30 8685 C 821.294 0.909286 2.14091 0
M  V30 8686 C 822.288 -0.130928 1.68893 0
M  V30 8687 O 823.494 0.0173403 1.79992 0
M  V30 8688 H 819.869 0.27658 0.699291 0
M  V30 8689 H 821.84 1.84514 2.34515 0
M  V30 8690 C 820.589 0.452922 3.44737 0
M  V30 8691 H 819.912 1.24485 3.79926 0
M  V30 8692 H 821.352 0.299238 4.22943 0
M  V30 8693 C 819.811 -0.831435 3.26479 0
M  V30 8694 O 820.341 -1.89535 3.54174 0
M  V30 8695 N 818.547 -0.784545 2.79809 0
M  V30 8696 H 818.094 0.0814746 2.57471 0
M  V30 8697 H 818.052 -1.64431 2.67973 0
M  V30 8698 N 821.824 -1.22873 0.986916 0
M  V30 8699 C 823.101 -1.86939 0.575589 0
M  V30 8700 C 823.481 -1.88656 -0.947205 0
M  V30 8701 O 822.829 -1.3728 -1.82665 0
M  V30 8702 C 823.039 -3.28117 1.18914 0
M  V30 8703 C 824.387 -4.04659 1.28593 0
M  V30 8704 O 825.411 -3.3736 1.14308 0
M  V30 8705 O 824.27 -5.25112 1.51391 0
M  V30 8706 H 821.364 -0.803748 0.194724 0
M  V30 8707 H 823.91 -1.30698 1.08241 0
M  V30 8708 H 822.682 -3.21468 2.231 0
M  V30 8709 H 822.305 -3.91956 0.667535 0
M  V30 8710 N 823.302 -0.75937 -1.38099 0
M  V30 8711 C 824.579 -0.243371 -1.9408 0
M  V30 8712 C 824.959 1.25942 -1.69416 0
M  V30 8713 O 824.307 2.03667 -1.03595 0
M  V30 8714 C 824.517 -0.603328 -3.43745 0
M  V30 8715 C 825.865 -0.566195 -4.20808 0
M  V30 8716 O 826.889 -0.541969 -3.52053 0
M  V30 8717 O 825.748 -0.582261 -5.43389 0
M  V30 8718 H 822.842 -0.0526825 -0.82532 0
M  V30 8719 H 825.388 -0.839884 -1.47459 0
M  V30 8720 H 824.16 -1.64098 -3.55229 0
M  V30 8721 H 823.783 0.0208887 -3.97595 0
M  V30 8722 N 824.78 1.49157 -0.508906 0
M  V30 8723 C 826.01 2.06579 0.0293308 0
M  V30 8724 C 826.418 1.36852 1.30645 0
M  V30 8725 O 825.761 0.443079 1.78276 0
M  V30 8726 C 825.823 3.57838 0.345296 0
M  V30 8727 C 825.487 4.49302 -0.835256 0
M  V30 8728 C 826.484 4.90345 -1.72793 0
M  V30 8729 C 824.169 4.91494 -1.0363 0
M  V30 8730 C 826.163 5.72327 -2.80573 0
M  V30 8731 C 823.85 5.7325 -2.11726 0
M  V30 8732 C 824.848 6.13572 -3.00032 0
M  V30 8733 O 824.536 6.93691 -4.06261 0
M  V30 8734 H 824.268 0.675679 -0.0208193 0
M  V30 8735 H 826.822 1.9282 -0.707789 0
M  V30 8736 H 825.052 3.69634 1.13612 0
M  V30 8737 H 826.741 3.97467 0.823089 0
M  V30 8738 H 827.507 4.58388 -1.58446 0
M  V30 8739 H 823.386 4.59605 -0.358308 0
M  V30 8740 H 826.93 6.03719 -3.49527 0
M  V30 8741 H 822.827 6.0462 -2.26065 0
M  V30 8742 H 823.595 7.12011 -4.03711 0
M  V30 8743 N 826.258 0.243083 1.55714 0
M  V30 8744 C 827.504 -0.383287 1.99145 0
M  V30 8745 C 827.837 -1.57868 1.13098 0
M  V30 8746 O 827.112 -1.93535 0.193509 0
M  V30 8747 C 827.395 -0.796879 3.51172 0
M  V30 8748 C 827.248 0.403642 4.47985 0
M  V30 8749 C 828.567 -1.64525 4.08191 0
M  V30 8750 H 825.686 -0.137843 0.723995 0
M  V30 8751 H 828.328 0.343631 1.86867 0
M  V30 8752 H 826.478 -1.41625 3.61766 0
M  V30 8753 H 828.15 1.04204 4.49376 0
M  V30 8754 H 826.393 1.04741 4.20965 0
M  V30 8755 H 827.064 0.0709794 5.51954 0
M  V30 8756 H 829.54 -1.12246 4.00674 0
M  V30 8757 H 828.416 -1.9035 5.14838 0
M  V30 8758 H 828.677 -2.61582 3.56409 0
M  V30 8759 N 827.736 -1.57571 -0.0300757 0
M  V30 8760 C 828.984 -1.88852 -0.719666 0
M  V30 8761 C 829.305 -0.840645 -1.75949 0
M  V30 8762 O 828.575 0.125854 -1.95495 0
M  V30 8763 H 827.155 -0.696965 -0.268792 0
M  V30 8764 H 829.817 -1.949 0.00373285 0
M  V30 8765 H 828.913 -2.87695 -1.20987 0
M  V30 8766 N 829.214 0.302327 -1.54673 0
M  V30 8767 C 830.491 1.05721 -1.64567 0
M  V30 8768 C 830.871 2.0526 -0.493108 0
M  V30 8769 O 830.219 2.22729 0.510315 0
M  V30 8770 C 830.429 1.74025 -3.02517 0
M  V30 8771 C 831.777 2.26271 -3.59286 0
M  V30 8772 O 832.801 1.8406 -3.0496 0
M  V30 8773 O 831.66 3.0361 -4.54404 0
M  V30 8774 H 828.754 0.488577 -0.667249 0
M  V30 8775 H 831.3 0.300521 -1.67018 0
M  V30 8776 H 830.072 1.0174 -3.77842 0
M  V30 8777 H 829.695 2.56454 -3.03838 0
M  V30 8778 N 830.692 1.47107 0.565454 0
M  V30 8779 C 831.602 1.61591 1.70075 0
M  V30 8780 C 832.618 0.498931 1.66693 0
M  V30 8781 O 833.794 0.765372 1.8629 0
M  V30 8782 C 830.859 1.61887 3.06583 0
M  V30 8783 C 829.92 2.84949 3.21096 0
M  V30 8784 C 829.153 2.85221 4.51093 0
M  V30 8785 O 829.376 1.94959 5.36048 0
M  V30 8786 O 828.31 3.76982 4.69221 0
M  V30 8787 H 832.136 2.57638 1.60799 0
M  V30 8788 H 829.721 1.30097 0.73451 0
M  V30 8789 H 831.603 1.64809 3.87835 0
M  V30 8790 H 830.278 0.69005 3.16259 0
M  V30 8791 H 829.185 2.87575 2.39273 0
M  V30 8792 H 830.518 3.77098 3.1632 0
M  V30 8793 N 832.17 -0.811516 1.35101 0
M  V30 8794 C 833.417 -1.56835 1.28098 0
M  V30 8795 C 833.745 -1.93951 -0.14597 0
M  V30 8796 O 833 -1.61173 -1.11004 0
M  V30 8797 C 833.299 -2.87121 2.1283 0
M  V30 8798 C 832.965 -2.69245 3.61688 0
M  V30 8799 C 831.627 -2.64078 4.02264 0
M  V30 8800 C 833.979 -2.52122 4.56162 0
M  V30 8801 C 831.307 -2.39724 5.3549 0
M  V30 8802 C 833.659 -2.29298 5.89581 0
M  V30 8803 C 832.323 -2.2255 6.29307 0
M  V30 8804 H 831.593 -0.5739 0.468742 0
M  V30 8805 H 834.24 -0.93806 1.66951 0
M  V30 8806 H 832.545 -3.54502 1.66841 0
M  V30 8807 H 834.242 -3.44788 2.0475 0
M  V30 8808 H 830.832 -2.74112 3.29485 0
M  V30 8809 H 835.016 -2.5513 4.25702 0
M  V30 8810 H 830.272 -2.32965 5.65276 0
M  V30 8811 H 834.446 -2.15038 6.62368 0
M  V30 8812 H 832.073 -2.0344 7.32473 0
M  V30 8813 N 833.648 -1.19017 -1.03309 0
M  V30 8814 C 834.878 -1.01387 -1.80012 0
M  V30 8815 C 835.286 0.440655 -1.83997 0
M  V30 8816 O 834.629 1.31786 -1.27977 0
M  V30 8817 C 834.691 -1.50171 -3.26633 0
M  V30 8818 C 834.355 -2.98213 -3.46292 0
M  V30 8819 C 835.352 -3.96009 -3.36857 0
M  V30 8820 C 833.037 -3.36812 -3.72643 0
M  V30 8821 C 835.031 -5.30399 -3.5349 0
M  V30 8822 C 832.718 -4.71363 -3.88922 0
M  V30 8823 C 833.716 -5.67966 -3.79347 0
M  V30 8824 O 833.404 -7.00079 -3.95151 0
M  V30 8825 H 833.136 -0.357899 -0.573484 0
M  V30 8826 H 835.69 -1.58171 -1.31039 0
M  V30 8827 H 833.92 -0.877586 -3.7661 0
M  V30 8828 H 835.609 -1.28814 -3.84918 0
M  V30 8829 H 836.375 -3.67534 -3.16455 0
M  V30 8830 H 832.254 -2.62175 -3.7919 0
M  V30 8831 H 835.798 -6.05786 -3.45933 0
M  V30 8832 H 831.695 -4.99536 -4.0882 0
M  V30 8833 H 832.463 -7.07092 -4.12266 0
M  V30 8834 N 835.127 1.22348 -0.993418 0
M  V30 8835 C 836.373 1.91689 -0.680217 0
M  V30 8836 C 836.728 1.75912 0.779269 0
M  V30 8837 O 836.021 1.11761 1.55628 0
M  V30 8838 C 836.215 3.42477 -1.02197 0
M  V30 8839 C 836.044 3.72923 -2.51313 0
M  V30 8840 C 834.814 3.9291 -3.17726 0
M  V30 8841 C 837.012 3.7736 -3.49434 0
M  V30 8842 N 834.994 4.10672 -4.56313 0
M  V30 8843 C 836.365 4.00269 -4.73481 0
M  V30 8844 C 838.42 3.60211 -3.43733 0
M  V30 8845 C 837.123 4.0781 -5.92523 0
M  V30 8846 C 839.149 3.69011 -4.62152 0
M  V30 8847 C 838.511 3.92371 -5.85 0
M  V30 8848 H 834.61 0.722086 -0.300193 0
M  V30 8849 H 837.194 1.47273 -1.27353 0
M  V30 8850 H 835.365 3.85699 -0.457223 0
M  V30 8851 H 837.097 3.99204 -0.664702 0
M  V30 8852 H 833.852 3.90345 -2.68193 0
M  V30 8853 H 834.276 4.2348 -5.28199 0
M  V30 8854 H 838.918 3.41137 -2.49771 0
M  V30 8855 H 836.636 4.25688 -6.86888 0
M  V30 8856 H 840.222 3.5708 -4.59331 0
M  V30 8857 H 839.102 3.9901 -6.75101 0
M  V30 8858 N 836.605 0.766683 1.37694 0
M  V30 8859 C 837.568 0.155849 2.2867 0
M  V30 8860 C 838.568 -0.633509 1.47795 0
M  V30 8861 O 839.758 -0.457844 1.68076 0
M  V30 8862 C 836.89 -0.786965 3.31692 0
M  V30 8863 H 838.083 0.957748 2.84196 0
M  V30 8864 H 835.636 0.534554 1.46875 0
M  V30 8865 H 836.371 -1.61406 2.8128 0
M  V30 8866 H 836.156 -0.223182 3.91464 0
M  V30 8867 H 837.646 -1.20994 3.99688 0
M  V30 8868 N 838.083 -1.48885 0.516809 0
M  V30 8869 C 839.046 -2.27916 -0.242256 0
M  V30 8870 C 840.046 -1.34601 -0.879735 0
M  V30 8871 O 841.236 -1.57616 -0.74182 0
M  V30 8872 C 838.368 -3.13067 -1.34914 0
M  V30 8873 H 839.561 -2.96483 0.451444 0
M  V30 8874 H 837.114 -1.5391 0.272294 0
M  V30 8875 H 837.849 -2.49102 -2.07651 0
M  V30 8876 H 837.634 -3.81695 -0.897313 0
M  V30 8877 H 839.124 -3.72716 -1.88341 0
M  V30 8878 N 839.561 -0.251338 -1.55583 0
M  V30 8879 C 840.801 0.373651 -2.00956 0
M  V30 8880 C 841.165 1.54806 -1.13574 0
M  V30 8881 O 842.366 2.24108 -1.48422 0
M  V30 8882 C 840.637 0.768919 -3.49031 0
M  V30 8883 S 842.196 1.38381 -4.16409 0
M  V30 8884 H 839.014 0.117371 -0.701245 0
M  V30 8885 H 841.616 -0.367611 -1.92013 0
M  V30 8886 H 840.32 -0.0950492 -4.1029 0
M  V30 8887 H 839.851 1.54225 -3.61909 0
M  V30 8888 H 841.866 2.6728 -4.18062 0
M  V30 8889 N 841.039 1.57585 0.0217189 0
M  V30 8890 C 841.949 2.10444 1.03684 0
M  V30 8891 C 842.965 1.04472 1.39146 0
M  V30 8892 O 844.141 1.36249 1.48317 0
M  V30 8893 C 841.206 2.5794 2.31664 0
M  V30 8894 C 840.267 3.78425 2.02714 0
M  V30 8895 C 839.5 4.23646 3.24592 0
M  V30 8896 O 839.723 3.6834 4.35525 0
M  V30 8897 O 838.657 5.16013 3.09862 0
M  V30 8898 H 842.483 2.97354 0.617584 0
M  V30 8899 H 840.068 1.47473 0.239174 0
M  V30 8900 H 841.95 2.88785 3.06889 0
M  V30 8901 H 840.625 1.74138 2.7287 0
M  V30 8902 H 839.532 3.52587 1.25033 0
M  V30 8903 H 840.865 4.63234 1.66359 0
M  V30 8904 N 842.517 -0.29412 1.54831 0
M  V30 8905 C 843.447 -1.36757 1.89261 0
M  V30 8906 C 844.428 -1.52564 0.752214 0
M  V30 8907 O 845.613 -1.65958 1.00855 0
M  V30 8908 C 842.743 -2.73066 2.14597 0
M  V30 8909 C 841.697 -2.72017 3.3044 0
M  V30 8910 C 841.023 -4.11679 3.4121 0
M  V30 8911 C 842.323 -2.33149 4.67375 0
M  V30 8912 H 844.017 -1.08191 2.79169 0
M  V30 8913 H 841.563 -0.519014 1.34321 0
M  V30 8914 H 843.516 -3.48255 2.37269 0
M  V30 8915 H 842.24 -3.03172 1.21467 0
M  V30 8916 H 840.899 -1.99285 3.07703 0
M  V30 8917 H 840.547 -4.38973 2.45584 0
M  V30 8918 H 840.247 -4.11877 4.19084 0
M  V30 8919 H 841.771 -4.88637 3.6615 0
M  V30 8920 H 843.185 -2.98054 4.89731 0
M  V30 8921 H 841.582 -2.44546 5.48012 0
M  V30 8922 H 842.652 -1.28275 4.67626 0
M  V30 8923 N 843.995 -1.47404 -0.557645 0
M  V30 8924 C 845.225 -1.57393 -1.33832 0
M  V30 8925 C 845.633 -0.222978 -1.87881 0
M  V30 8926 O 844.976 0.793854 -1.65661 0
M  V30 8927 C 845.038 -2.53882 -2.54528 0
M  V30 8928 C 844.702 -3.99585 -2.21767 0
M  V30 8929 C 845.699 -4.88082 -1.79087 0
M  V30 8930 C 843.384 -4.44917 -2.3314 0
M  V30 8931 C 845.378 -6.1993 -1.48209 0
M  V30 8932 C 843.065 -5.76793 -2.01874 0
M  V30 8933 C 844.063 -6.64121 -1.59476 0
M  V30 8934 O 843.751 -7.93546 -1.28607 0
M  V30 8935 H 843.483 -0.534172 -0.41429 0
M  V30 8936 H 846.037 -1.93733 -0.682404 0
M  V30 8937 H 844.267 -2.12609 -3.23009 0
M  V30 8938 H 845.956 -2.54003 -3.16603 0
M  V30 8939 H 846.722 -4.54307 -1.69794 0
M  V30 8940 H 842.601 -3.77152 -2.65099 0
M  V30 8941 H 846.145 -6.88049 -1.15043 0
M  V30 8942 H 842.042 -6.1011 -2.10799 0
M  V30 8943 H 842.81 -8.06046 -1.42241 0
M  V30 8944 N 845.473 0.80434 -1.35529 0
M  V30 8945 C 846.719 1.56385 -1.29118 0
M  V30 8946 C 847.052 1.9374 0.133536 0
M  V30 8947 O 846.327 1.6153 1.08344 0
M  V30 8948 C 846.61 2.85097 -2.19981 0
M  V30 8949 C 846.463 2.54204 -3.7108 0
M  V30 8950 C 847.782 3.86817 -2.09907 0
M  V30 8951 H 844.901 0.567382 -0.470368 0
M  V30 8952 H 847.543 0.925235 -1.6595 0
M  V30 8953 H 845.693 3.39594 -1.88701 0
M  V30 8954 H 847.365 2.05872 -4.12813 0
M  V30 8955 H 845.608 1.87364 -3.91251 0
M  V30 8956 H 846.279 3.46068 -4.30048 0
M  V30 8957 H 848.755 3.41725 -2.37409 0
M  V30 8958 H 847.631 4.7465 -2.75678 0
M  V30 8959 H 847.892 4.28663 -1.08171 0
M  V30 8960 N 846.951 1.19563 1.02676 0
M  V30 8961 C 848.179 1.02488 1.79732 0
M  V30 8962 C 848.594 -0.426302 1.83924 0
M  V30 8963 O 847.951 -1.29609 1.28483 0
M  V30 8964 C 848.002 1.58944 3.24683 0
M  V30 8965 O 847.723 2.98382 3.2078 0
M  V30 8966 C 849.224 1.46681 4.1833 0
M  V30 8967 H 846.444 0.361098 0.565552 0
M  V30 8968 H 848.988 1.58426 1.29311 0
M  V30 8969 H 847.143 1.0715 3.72287 0
M  V30 8970 H 847.557 3.24983 4.11687 0
M  V30 8971 H 849.031 1.90959 5.17918 0
M  V30 8972 H 849.508 0.417663 4.3721 0
M  V30 8973 H 850.114 1.97616 3.76601 0
M  V30 8974 N 848.429 -1.21819 0.999893 0
M  V30 8975 C 849.657 -1.94758 0.698359 0
M  V30 8976 C 850.072 -1.73771 -0.738183 0
M  V30 8977 O 849.429 -1.04113 -1.49889 0
M  V30 8978 C 849.48 -3.47292 1.00353 0
M  V30 8979 O 849.201 -3.67579 2.38363 0
M  V30 8980 C 850.702 -4.37403 0.72068 0
M  V30 8981 H 847.922 -0.619512 0.257771 0
M  V30 8982 H 850.466 -1.54778 1.33656 0
M  V30 8983 H 848.621 -3.85213 0.411018 0
M  V30 8984 H 849.035 -4.61719 2.48829 0
M  V30 8985 H 850.509 -5.43151 0.984422 0
M  V30 8986 H 850.986 -4.3784 -0.345309 0
M  V30 8987 H 851.592 -4.05119 1.29456 0
M  V30 8988 N 849.908 -0.773975 -1.37286 0
M  V30 8989 C 851.156 -0.338636 -1.99243 0
M  V30 8990 C 851.477 1.08919 -1.61746 0
M  V30 8991 O 850.747 1.74822 -0.88397 0
M  V30 8992 H 849.327 -0.12222 -0.736934 0
M  V30 8993 H 851.989 -0.992595 -1.67731 0
M  V30 8994 H 851.085 -0.418055 -3.09287 0
M  V30 8995 N 851.386 1.48609 -0.524698 0
M  V30 8996 C 852.333 2.29539 0.240956 0
M  V30 8997 C 853.303 1.37033 0.938681 0
M  V30 8998 O 854.488 1.65996 0.940737 0
M  V30 8999 C 851.628 3.20278 1.28514 0
M  V30 9000 C 850.741 4.27858 0.596798 0
M  V30 9001 C 849.876 5.05784 1.62346 0
M  V30 9002 C 848.915 6.05173 0.918287 0
M  V30 9003 N 848.052 6.76176 1.89025 0
M  V30 9004 H 852.892 2.945 -0.455368 0
M  V30 9005 H 850.429 1.45188 -0.236403 0
M  V30 9006 H 852.387 3.71281 1.90279 0
M  V30 9007 H 851.017 2.57251 1.94992 0
M  V30 9008 H 850.069 3.80162 -0.134668 0
M  V30 9009 H 851.381 4.98782 0.0428506 0
M  V30 9010 H 850.535 5.60775 2.31553 0
M  V30 9011 H 849.274 4.34687 2.2113 0
M  V30 9012 H 848.279 5.49391 0.21212 0
M  V30 9013 H 849.504 6.78265 0.336633 0
M  V30 9014 H 847.45 6.07834 2.46726 0
M  V30 9015 H 847.367 7.43157 1.3876 0
M  V30 9016 H 848.635 7.35759 2.57446 0
M  V30 9017 N 852.864 0.259585 1.55447 0
M  V30 9018 C 854.141 -0.412595 1.91199 0
M  V30 9019 C 854.521 -1.74909 1.18194 0
M  V30 9020 O 853.869 -2.26474 0.303603 0
M  V30 9021 C 854.079 -0.568195 3.44344 0
M  V30 9022 C 855.427 -0.858253 4.15836 0
M  V30 9023 O 856.451 -0.653588 3.50152 0
M  V30 9024 O 855.31 -1.24874 5.32042 0
M  V30 9025 H 852.404 -0.223403 0.796254 0
M  V30 9026 H 854.95 0.30459 1.66944 0
M  V30 9027 H 853.722 0.372989 3.89518 0
M  V30 9028 H 853.345 -1.33544 3.74502 0
M  V30 9029 N 854.342 -1.57594 -0.0133615 0
M  V30 9030 C 855.252 -2.10991 -1.02566 0
M  V30 9031 C 856.268 -1.05208 -1.3859 0
M  V30 9032 O 857.444 -1.37034 -1.47593 0
M  V30 9033 C 854.509 -2.59165 -2.30292 0
M  V30 9034 C 853.57 -3.79495 -2.00704 0
M  V30 9035 C 852.803 -4.25361 -3.22341 0
M  V30 9036 O 853.026 -3.70645 -4.33565 0
M  V30 9037 O 851.96 -5.17649 -3.07121 0
M  V30 9038 H 855.786 -2.97678 -0.601806 0
M  V30 9039 H 853.371 -1.47598 -0.23135 0
M  V30 9040 H 855.253 -2.90409 -3.05354 0
M  V30 9041 H 853.928 -1.75582 -2.71942 0
M  V30 9042 H 852.835 -3.53245 -1.23161 0
M  V30 9043 H 854.168 -4.64109 -1.639 0
M  V30 9044 N 855.82 0.285905 -1.54985 0
M  V30 9045 C 857.05 1.03626 -1.78732 0
M  V30 9046 C 857.458 1.80896 -0.554377 0
M  V30 9047 O 856.801 1.77161 0.48578 0
M  V30 9048 C 856.863 2.05185 -2.95193 0
M  V30 9049 C 856.527 1.46973 -4.32722 0
M  V30 9050 C 857.524 0.891986 -5.12191 0
M  V30 9051 C 855.209 1.50081 -4.79355 0
M  V30 9052 C 857.203 0.353078 -6.36421 0
M  V30 9053 C 854.89 0.958037 -6.03544 0
M  V30 9054 C 855.888 0.385157 -6.81913 0
M  V30 9055 O 855.576 -0.149341 -8.03761 0
M  V30 9056 H 855.308 0.312416 -0.599477 0
M  V30 9057 H 857.862 0.326067 -2.02795 0
M  V30 9058 H 856.092 2.79928 -2.66791 0
M  V30 9059 H 857.781 2.66244 -3.0638 0
M  V30 9060 H 858.547 0.860762 -4.77301 0
M  V30 9061 H 854.426 1.9361 -4.18373 0
M  V30 9062 H 857.97 -0.0947181 -6.97536 0
M  V30 9063 H 853.867 0.986458 -6.37918 0
M  V30 9064 H 854.635 -0.0374719 -8.18491 0
M  V30 9065 N 857.298 1.47698 0.54982 0
M  V30 9066 C 858.245 1.60739 1.65625 0
M  V30 9067 C 859.215 0.450129 1.59884 0
M  V30 9068 O 860.4 0.671123 1.78607 0
M  V30 9069 C 857.54 1.63457 3.03934 0
M  V30 9070 C 856.653 2.90152 3.20056 0
M  V30 9071 C 855.788 2.84157 4.48807 0
M  V30 9072 C 854.827 4.05644 4.58387 0
M  V30 9073 N 853.964 3.97843 5.78503 0
M  V30 9074 H 858.804 2.55234 1.53817 0
M  V30 9075 H 856.341 1.26593 0.749173 0
M  V30 9076 H 858.299 1.63015 3.84034 0
M  V30 9077 H 856.929 0.724689 3.1456 0
M  V30 9078 H 855.981 3.00428 2.33339 0
M  V30 9079 H 857.293 3.80097 3.22998 0
M  V30 9080 H 856.447 2.82006 5.37175 0
M  V30 9081 H 855.186 1.91908 4.48356 0
M  V30 9082 H 854.191 4.08092 3.6843 0
M  V30 9083 H 855.416 4.9903 4.60593 0
M  V30 9084 H 853.362 3.08401 5.78986 0
M  V30 9085 H 853.279 4.81473 5.82855 0
M  V30 9086 H 854.547 3.99719 6.69212 0
M  V30 9087 N 858.776 -0.797141 1.35954 0
M  V30 9088 C 859.724 -1.93084 1.29697 0
M  V30 9089 C 860.718 -1.68329 0.190152 0
M  V30 9090 O 861.924 -1.7643 0.3567 0
M  V30 9091 H 858.299 -0.634531 0.403577 0
M  V30 9092 H 860.27 -1.95481 2.25455 0
M  V30 9093 C 859.019 -3.29996 1.09536 0
M  V30 9094 H 858.342 -3.49607 1.93946 0
M  V30 9095 H 859.782 -4.09696 1.09202 0
M  V30 9096 C 858.241 -3.36304 -0.200381 0
M  V30 9097 O 858.771 -3.83579 -1.19291 0
M  V30 9098 N 856.977 -2.89587 -0.242406 0
M  V30 9099 H 856.524 -2.51307 0.565897 0
M  V30 9100 H 856.482 -2.94189 -1.10906 0
M  V30 9101 N 860.254 -1.20106 -1.0204 0
M  V30 9102 C 861.484 -1.0329 -1.78927 0
M  V30 9103 C 861.892 0.421115 -1.84454 0
M  V30 9104 O 861.235 1.30422 -1.29367 0
M  V30 9105 C 861.297 -1.53627 -3.25021 0
M  V30 9106 C 860.961 -3.01869 -3.4311 0
M  V30 9107 C 861.958 -3.9956 -3.32638 0
M  V30 9108 C 859.643 -3.40746 -3.6905 0
M  V30 9109 C 861.637 -5.34119 -3.47844 0
M  V30 9110 C 859.324 -4.75462 -3.839 0
M  V30 9111 C 860.322 -5.71957 -3.73302 0
M  V30 9112 O 860.01 -7.04231 -3.87703 0
M  V30 9113 H 859.742 -0.363962 -0.569656 0
M  V30 9114 H 862.296 -1.59551 -1.29354 0
M  V30 9115 H 860.526 -0.917481 -3.75658 0
M  V30 9116 H 862.215 -1.32889 -3.8353 0
M  V30 9117 H 862.981 -3.70869 -3.12539 0
M  V30 9118 H 858.86 -2.66182 -3.76388 0
M  V30 9119 H 862.404 -6.09421 -3.39488 0
M  V30 9120 H 858.301 -5.03844 -4.03499 0
M  V30 9121 H 859.069 -7.11425 -4.04744 0
M  V30 9122 N 861.732 1.21287 -1.00634 0
M  V30 9123 C 862.662 2.25973 -0.588089 0
M  V30 9124 C 863.643 1.65527 0.391764 0
M  V30 9125 O 864.828 1.92179 0.279452 0
M  V30 9126 C 861.958 3.47197 0.0847336 0
M  V30 9127 C 860.912 4.20168 -0.815039 0
M  V30 9128 C 860.238 5.34699 -0.00855393 0
M  V30 9129 C 861.538 4.77416 -2.11828 0
M  V30 9130 H 863.232 2.61212 -1.46317 0
M  V30 9131 H 860.778 1.25563 -0.704985 0
M  V30 9132 H 862.731 4.19602 0.388821 0
M  V30 9133 H 861.455 3.11092 0.994456 0
M  V30 9134 H 860.114 3.49614 -1.10297 0
M  V30 9135 H 859.762 4.94837 0.902499 0
M  V30 9136 H 859.462 5.84449 -0.607664 0
M  V30 9137 H 860.986 6.09914 0.289317 0
M  V30 9138 H 862.4 5.41694 -1.87725 0
M  V30 9139 H 860.797 5.37561 -2.66736 0
M  V30 9140 H 861.867 3.96724 -2.78816 0
M  V30 9141 N 863.21 0.781244 1.36873 0
M  V30 9142 C 864.143 0.120106 2.27884 0
M  V30 9143 C 865.121 -0.698961 1.4681 0
M  V30 9144 O 866.305 -0.671694 1.76126 0
M  V30 9145 C 863.432 -0.835804 3.28226 0
M  V30 9146 C 862.478 -0.0995527 4.26384 0
M  V30 9147 S 863.311 1.21903 5.2144 0
M  V30 9148 C 864.467 0.266904 6.25331 0
M  V30 9149 H 864.7 0.891796 2.83609 0
M  V30 9150 H 862.233 0.575075 1.43291 0
M  V30 9151 H 864.191 -1.3819 3.86541 0
M  V30 9152 H 862.852 -1.58068 2.71428 0
M  V30 9153 H 862.045 -0.82457 4.97209 0
M  V30 9154 H 861.647 0.375818 3.72107 0
M  V30 9155 H 863.939 -0.55725 6.75204 0
M  V30 9156 H 864.882 0.943603 7.01785 0
M  V30 9157 H 865.29 -0.126121 5.64359 0
M  V30 9158 N 864.689 -1.48329 0.532571 0
M  V30 9159 C 865.637 -2.31336 -0.242133 0
M  V30 9160 C 866.631 -1.41391 -0.933006 0
M  V30 9161 O 867.837 -1.58284 -0.857096 0
M  V30 9162 H 864.212 -0.745724 -0.0969536 0
M  V30 9163 H 866.183 -2.94555 0.477504 0
M  V30 9164 C 864.932 -3.23501 -1.27446 0
M  V30 9165 H 864.255 -3.92659 -0.752261 0
M  V30 9166 H 865.695 -3.84461 -1.78789 0
M  V30 9167 C 864.154 -2.45288 -2.30944 0
M  V30 9168 O 864.684 -2.17955 -3.37429 0
M  V30 9169 N 862.89 -2.06737 -2.04226 0
M  V30 9170 H 862.437 -2.29166 -1.17647 0
M  V30 9171 H 862.395 -1.54719 -2.73696 0
M  V30 9172 N 866.167 -0.267825 -1.55308 0
M  V30 9173 C 867.392 0.357487 -2.04296 0
M  V30 9174 C 867.817 1.49222 -1.14518 0
M  V30 9175 O 867.175 1.80741 -0.142292 0
M  V30 9176 C 867.223 0.822899 -3.51085 0
M  V30 9177 O 866.327 1.93078 -3.6441 0
M  V30 9178 H 865.668 0.075025 -0.659748 0
M  V30 9179 H 868.198 -0.399996 -2.00652 0
M  V30 9180 H 868.208 1.12059 -3.92309 0
M  V30 9181 H 866.883 -0.0073562 -4.15899 0
M  V30 9182 H 865.46 1.63618 -3.35087 0
M  V30 9183 N 867.645 1.57599 0.00500368 0
M  V30 9184 C 869.056 1.78462 0.54848 0
M  V30 9185 C 869.407 0.901869 1.74243 0
M  V30 9186 O 868.532 0.103014 2.16155 0
M  V30 9187 C 869.127 3.2365 1.00179 0
M  V30 9188 C 867.686 3.45627 1.49061 0
M  V30 9189 C 866.833 2.73794 0.439531 0
M  V30 9190 H 869.784 1.57151 -0.22118 0
M  V30 9191 H 869.805 3.31488 1.86805 0
M  V30 9192 H 869.317 3.87873 0.132607 0
M  V30 9193 H 867.418 2.86612 2.38085 0
M  V30 9194 H 867.531 4.54298 1.52152 0
M  V30 9195 H 865.895 2.38267 0.900043 0
M  V30 9196 H 866.678 3.40714 -0.420599 0
M  V30 9197 N 869.123 -0.277682 1.55134 0
M  V30 9198 C 870.073 -1.34531 1.8408 0
M  V30 9199 C 871.057 -1.44904 0.699393 0
M  V30 9200 O 872.249 -1.48664 0.960623 0
M  V30 9201 C 869.378 -2.7064 2.11208 0
M  V30 9202 C 868.464 -2.64396 3.31596 0
M  V30 9203 N 868.855 -2.2777 4.51613 0
M  V30 9204 C 867.153 -2.95464 3.34091 0
M  V30 9205 C 867.854 -2.31401 5.33693 0
M  V30 9206 N 866.83 -2.69688 4.71984 0
M  V30 9207 H 870.632 -1.05214 2.74421 0
M  V30 9208 H 868.146 -0.486311 1.54948 0
M  V30 9209 H 870.143 -3.47649 2.301 0
M  V30 9210 H 868.803 -3.00849 1.22148 0
M  V30 9211 H 869.814 -1.99827 4.77797 0
M  V30 9212 H 866.491 -3.30415 2.5521 0
M  V30 9213 H 867.881 -2.05685 6.39643 0
M  V30 9214 N 870.601 -1.47988 -0.541979 0
M  V30 9215 C 871.831 -1.58804 -1.32155 0
M  V30 9216 C 872.239 -0.242893 -1.87634 0
M  V30 9217 O 871.582 0.776239 -1.66494 0
M  V30 9218 C 871.644 -2.56567 -2.51821 0
M  V30 9219 C 871.308 -4.01915 -2.17517 0
M  V30 9220 C 872.305 -4.89954 -1.73901 0
M  V30 9221 C 869.99 -4.47365 -2.28408 0
M  V30 9222 C 871.984 -6.21467 -1.41625 0
M  V30 9223 C 869.671 -5.78902 -1.95745 0
M  V30 9224 C 870.669 -6.65775 -1.52423 0
M  V30 9225 O 870.357 -7.94866 -1.20183 0
M  V30 9226 H 870.089 -0.538536 -0.408601 0
M  V30 9227 H 872.643 -1.94446 -0.661818 0
M  V30 9228 H 870.873 -2.16023 -3.20735 0
M  V30 9229 H 872.562 -2.57347 -3.13891 0
M  V30 9230 H 873.328 -4.56082 -1.64966 0
M  V30 9231 H 869.207 -3.79942 -2.61084 0
M  V30 9232 H 872.751 -6.8923 -1.07738 0
M  V30 9233 H 868.648 -6.12311 -2.04316 0
M  V30 9234 H 869.416 -8.07509 -1.33683 0
M  V30 9235 N 872.079 0.78992 -1.36375 0
M  V30 9236 C 873.009 1.91683 -1.33341 0
M  V30 9237 C 873.99 1.68861 -0.204965 0
M  V30 9238 O 875.175 1.89982 -0.402531 0
M  V30 9239 C 872.305 3.28696 -1.12143 0
M  V30 9240 C 871.259 3.66041 -2.21806 0
M  V30 9241 C 870.585 5.01399 -1.85751 0
M  V30 9242 C 871.885 3.74677 -3.63888 0
M  V30 9243 H 873.579 1.94478 -2.27637 0
M  V30 9244 H 871.125 0.934271 -1.09578 0
M  V30 9245 H 873.078 4.07151 -1.08656 0
M  V30 9246 H 871.802 3.26287 -0.142974 0
M  V30 9247 H 870.461 2.89883 -2.24418 0
M  V30 9248 H 870.109 4.9551 -0.864817 0
M  V30 9249 H 869.809 5.27355 -2.59173 0
M  V30 9250 H 871.333 5.82274 -1.83819 0
M  V30 9251 H 872.747 4.43324 -3.63506 0
M  V30 9252 H 871.144 4.12118 -4.3621 0
M  V30 9253 H 872.214 2.75795 -3.9883 0
M  V30 9254 N 873.557 1.20646 1.01402 0
M  V30 9255 C 874.467 0.973385 2.13453 0
M  V30 9256 C 875.483 -0.0715865 1.73853 0
M  V30 9257 O 876.659 0.116438 2.01063 0
M  V30 9258 C 873.724 0.531285 3.42605 0
M  V30 9259 C 872.785 1.64741 3.96433 0
M  V30 9260 C 872.018 1.22631 5.1942 0
M  V30 9261 O 872.241 0.0960891 5.70319 0
M  V30 9262 O 871.175 2.03474 5.66465 0
M  V30 9263 H 875.001 1.91164 2.35987 0
M  V30 9264 H 872.586 0.990553 1.11841 0
M  V30 9265 H 874.468 0.294095 4.20373 0
M  V30 9266 H 873.143 -0.378358 3.21481 0
M  V30 9267 H 872.05 1.93891 3.19933 0
M  V30 9268 H 873.383 2.53415 4.2195 0
M  V30 9269 N 875.035 -1.20752 1.01276 0
M  V30 9270 C 875.968 -2.22091 0.524472 0
M  V30 9271 C 876.946 -1.5692 -0.426017 0
M  V30 9272 O 878.13 -1.8528 -0.346919 0
M  V30 9273 C 875.257 -3.37868 -0.237224 0
M  V30 9274 C 874.303 -4.21327 0.662236 0
M  V30 9275 S 875.136 -4.91352 2.12916 0
M  V30 9276 C 876.292 -6.10553 1.37752 0
M  V30 9277 H 876.525 -2.63166 1.38315 0
M  V30 9278 H 874.058 -1.30742 0.821332 0
M  V30 9279 H 876.016 -4.04985 -0.670599 0
M  V30 9280 H 874.677 -2.95261 -1.07143 0
M  V30 9281 H 873.87 -5.03944 0.0751085 0
M  V30 9282 H 873.472 -3.59445 1.03322 0
M  V30 9283 H 875.764 -6.74322 0.655491 0
M  V30 9284 H 876.707 -6.73717 2.17969 0
M  V30 9285 H 877.115 -5.57566 0.882088 0
M  V30 9286 N 876.513 -0.788492 -1.36457 0
M  V30 9287 C 877.924 -0.423742 -1.81828 0
M  V30 9288 C 878.275 1.05221 -1.65599 0
M  V30 9289 O 877.4 1.8163 -1.17641 0
M  V30 9290 C 877.995 -0.762354 -3.30112 0
M  V30 9291 C 876.554 -0.450445 -3.73695 0
M  V30 9292 C 875.701 -0.997482 -2.58738 0
M  V30 9293 H 878.652 -0.981718 -1.24692 0
M  V30 9294 H 878.673 -0.0531136 -3.80463 0
M  V30 9295 H 878.185 -1.83662 -3.41891 0
M  V30 9296 H 876.286 0.615829 -3.67476 0
M  V30 9297 H 876.399 -0.970408 -4.69169 0
M  V30 9298 H 874.763 -0.420761 -2.51201 0
M  V30 9299 H 875.546 -2.07749 -2.73304 0
M  V30 9300 N 877.991 1.48044 -0.54043 0
M  V30 9301 C 878.954 2.28273 0.205966 0
M  V30 9302 C 879.954 1.35983 0.858209 0
M  V30 9303 O 881.144 1.58776 0.716651 0
M  V30 9304 C 878.276 3.15174 1.29917 0
M  V30 9305 H 879.469 2.95727 -0.498555 0
M  V30 9306 H 877.022 1.53457 -0.296745 0
M  V30 9307 H 877.757 2.52374 2.03661 0
M  V30 9308 H 877.542 3.83074 0.836475 0
M  V30 9309 H 879.032 3.75666 1.82387 0
M  V30 9310 N 879.47 0.276058 1.55163 0
M  V30 9311 C 880.417 -0.611006 2.22565 0
M  V30 9312 C 881.387 -1.14902 1.19945 0
M  V30 9313 O 882.572 -1.19815 1.48489 0
M  V30 9314 C 879.712 -1.78885 2.95117 0
M  V30 9315 C 878.825 -1.2846 4.12458 0
M  V30 9316 C 877.96 -2.42432 4.72652 0
M  V30 9317 C 876.999 -1.89015 5.82185 0
M  V30 9318 N 876.136 -2.96463 6.36439 0
M  V30 9319 H 880.976 -0.0295849 2.97985 0
M  V30 9320 H 878.513 -0.00283607 1.471 0
M  V30 9321 H 880.471 -2.48121 3.35398 0
M  V30 9322 H 879.101 -2.34229 2.22119 0
M  V30 9323 H 878.153 -0.485312 3.77292 0
M  V30 9324 H 879.465 -0.853358 4.91446 0
M  V30 9325 H 878.619 -3.19659 5.15658 0
M  V30 9326 H 877.358 -2.88872 3.92943 0
M  V30 9327 H 876.363 -1.10267 5.38629 0
M  V30 9328 H 877.588 -1.43509 6.63763 0
M  V30 9329 H 875.534 -3.42283 5.59623 0
M  V30 9330 H 875.451 -2.57759 7.10701 0
M  V30 9331 H 876.719 -3.73663 6.84103 0
M  V30 9332 N 880.948 -1.576 0.00335426 0
M  V30 9333 C 881.881 -2.04085 -1.021 0
M  V30 9334 C 882.859 -0.931382 -1.33282 0
M  V30 9335 O 884.043 -1.19976 -1.45389 0
M  V30 9336 C 881.17 -2.44128 -2.34775 0
M  V30 9337 C 880.216 -3.65841 -2.19232 0
M  V30 9338 S 881.049 -5.13616 -1.51521 0
M  V30 9339 C 882.205 -5.56931 -2.8562 0
M  V30 9340 H 882.438 -2.90652 -0.625192 0
M  V30 9341 H 879.971 -1.52998 -0.207611 0
M  V30 9342 H 881.929 -2.67866 -3.1106 0
M  V30 9343 H 880.59 -1.57954 -2.71495 0
M  V30 9344 H 879.783 -3.9162 -3.17253 0
M  V30 9345 H 879.385 -3.42122 -1.51091 0
M  V30 9346 H 881.677 -5.59596 -3.81914 0
M  V30 9347 H 882.62 -6.5683 -2.64536 0
M  V30 9348 H 883.028 -4.84504 -2.89683 0
M  V30 9349 N 882.426 0.269451 -1.5528 0
M  V30 9350 C 883.674 0.998604 -1.75705 0
M  V30 9351 C 883.995 1.86691 -0.563175 0
M  V30 9352 O 883.265 1.91305 0.421811 0
M  V30 9353 H 881.845 0.371698 -0.647958 0
M  V30 9354 H 884.507 0.292826 -1.92688 0
M  V30 9355 H 883.603 1.63348 -2.6594 0
M  V30 9356 N 883.904 1.48273 0.534124 0
M  V30 9357 C 884.814 1.65162 1.66609 0
M  V30 9358 C 885.83 0.534177 1.65598 0
M  V30 9359 O 887.006 0.804715 1.84625 0
M  V30 9360 C 884.071 1.68354 3.03081 0
M  V30 9361 C 883.132 2.91696 3.1498 0
M  V30 9362 C 882.365 2.94725 4.44941 0
M  V30 9363 O 882.588 2.06285 5.31792 0
M  V30 9364 O 881.522 3.8685 4.61119 0
M  V30 9365 H 885.348 2.60991 1.55298 0
M  V30 9366 H 882.933 1.31626 0.706749 0
M  V30 9367 H 884.815 1.72998 3.84252 0
M  V30 9368 H 883.49 0.756978 3.14725 0
M  V30 9369 H 882.397 2.92586 2.33119 0
M  V30 9370 H 883.73 3.83722 3.0825 0
M  V30 9371 N 885.382 -0.782676 1.36792 0
M  V30 9372 C 886.33 -1.91698 1.31737 0
M  V30 9373 C 887.324 -1.68118 0.207994 0
M  V30 9374 O 888.53 -1.76042 0.375393 0
M  V30 9375 H 884.905 -0.630215 0.410284 0
M  V30 9376 H 886.876 -1.93078 2.27516 0
M  V30 9377 C 885.625 -3.28816 1.13029 0
M  V30 9378 H 884.948 -3.4753 1.97643 0
M  V30 9379 H 886.388 -4.08515 1.13541 0
M  V30 9380 C 884.847 -3.36497 -0.1647 0
M  V30 9381 O 885.377 -3.84822 -1.15216 0
M  V30 9382 N 883.583 -2.89828 -0.211678 0
M  V30 9383 H 883.13 -2.50693 0.59252 0
M  V30 9384 H 883.088 -2.95349 -1.07779 0
M  V30 9385 N 886.86 -1.21182 -1.00761 0
M  V30 9386 C 888.108 -1.02543 -1.74153 0
M  V30 9387 C 888.429 0.442372 -1.89916 0
M  V30 9388 O 887.699 1.31927 -1.44818 0
M  V30 9389 H 886.279 -0.37644 -0.645214 0
M  V30 9390 H 888.941 -1.52446 -1.21434 0
M  V30 9391 H 888.037 -1.49122 -2.7417 0
M  V30 9392 N 888.338 1.20213 -1.01915 0
M  V30 9393 C 889.586 1.89272 -0.708552 0
M  V30 9394 C 889.907 1.79394 0.76438 0
M  V30 9395 O 889.177 1.198 1.54999 0
M  V30 9396 H 887.757 0.700628 -0.259094 0
M  V30 9397 H 890.419 1.45985 -1.29129 0
M  V30 9398 H 889.515 2.95841 -0.994215 0
M  V30 9399 N 889.816 0.795718 1.36037 0
M  V30 9400 C 890.779 0.204318 2.28287 0
M  V30 9401 C 891.779 -0.602017 1.49105 0
M  V30 9402 O 892.969 -0.422089 1.69009 0
M  V30 9403 C 890.101 -0.716431 3.33287 0
M  V30 9404 H 891.294 1.01781 2.821 0
M  V30 9405 H 888.847 0.565588 1.45708 0
M  V30 9406 H 889.582 -1.55403 2.84641 0
M  V30 9407 H 889.367 -0.140096 3.9185 0
M  V30 9408 H 890.857 -1.12488 4.02164 0
M  V30 9409 N 891.294 -1.47756 0.548274 0
M  V30 9410 C 892.242 -2.3158 -0.217584 0
M  V30 9411 C 893.236 -1.42372 -0.917957 0
M  V30 9412 O 894.442 -1.59184 -0.840259 0
M  V30 9413 H 890.817 -0.74671 -0.0890388 0
M  V30 9414 H 892.788 -2.94032 0.508719 0
M  V30 9415 C 891.537 -3.24834 -1.24008 0
M  V30 9416 H 890.86 -3.93435 -0.710572 0
M  V30 9417 H 892.3 -3.86336 -1.74701 0
M  V30 9418 C 890.759 -2.47724 -2.2833 0
M  V30 9419 O 891.289 -2.21522 -3.35098 0
M  V30 9420 N 889.495 -2.08891 -2.02022 0
M  V30 9421 H 889.042 -2.30401 -1.1521 0
M  V30 9422 H 889 -1.57613 -2.7204 0
M  V30 9423 N 892.772 -0.284283 -1.55015 0
M  V30 9424 C 894.02 0.329212 -1.99401 0
M  V30 9425 C 894.341 1.55687 -1.17416 0
M  V30 9426 O 893.611 1.94087 -0.265937 0
M  V30 9427 H 892.191 0.12463 -0.73653 0
M  V30 9428 H 894.853 -0.391743 -1.90922 0
M  V30 9429 H 893.949 0.61278 -3.06025 0
M  V30 9430 N 894.251 1.57596 -0.0117121 0
M  V30 9431 C 895.161 2.12596 0.991964 0
M  V30 9432 C 896.177 1.07399 1.36899 0
M  V30 9433 O 897.353 1.39365 1.45394 0
M  V30 9434 C 894.418 2.62796 2.2614 0
M  V30 9435 C 893.479 3.8264 1.94642 0
M  V30 9436 C 892.712 4.30435 3.15533 0
M  V30 9437 O 892.935 3.77495 4.27614 0
M  V30 9438 O 891.869 5.22469 2.98847 0
M  V30 9439 H 895.695 2.98597 0.554371 0
M  V30 9440 H 893.28 1.47947 0.207839 0
M  V30 9441 H 895.162 2.9523 3.00695 0
M  V30 9442 H 893.837 1.79886 2.69114 0
M  V30 9443 H 892.744 3.5516 1.17526 0
M  V30 9444 H 894.077 4.66658 1.56496 0
M  V30 9445 N 895.729 -0.261212 1.5542 0
M  V30 9446 C 897.006 -1.01321 1.67312 0
M  V30 9447 C 897.386 -2.0388 0.547356 0
M  V30 9448 O 896.734 -2.24003 -0.451083 0
M  V30 9449 C 896.944 -1.65943 3.07024 0
M  V30 9450 C 898.292 -2.16666 3.65159 0
M  V30 9451 O 899.316 -1.75909 3.09733 0
M  V30 9452 O 898.175 -2.91455 4.62294 0
M  V30 9453 H 895.269 -0.470714 0.679968 0
M  V30 9454 H 897.815 -0.256133 1.67756 0
M  V30 9455 H 896.587 -0.916868 3.80407 0
M  V30 9456 H 896.21 -2.48308 3.1053 0
M  V30 9457 N 897.207 -1.48554 -0.526253 0
M  V30 9458 C 898.155 -1.63804 -1.65139 0
M  V30 9459 C 899.149 -0.504398 -1.61716 0
M  V30 9460 O 900.355 -0.683241 -1.66529 0
M  V30 9461 H 896.73 -0.516071 -0.546969 0
M  V30 9462 H 898.701 -2.58294 -1.49421 0
M  V30 9463 C 897.45 -1.69843 -3.03395 0
M  V30 9464 H 896.773 -2.56438 -3.06724 0
M  V30 9465 H 898.213 -1.84555 -3.81727 0
M  V30 9466 C 896.672 -0.437875 -3.34042 0
M  V30 9467 O 897.202 0.447604 -3.99198 0
M  V30 9468 N 895.408 -0.308444 -2.88958 0
M  V30 9469 H 894.955 -1.02998 -2.36112 0
M  V30 9470 H 894.913 0.533952 -3.09833 0
M  V30 9471 N 898.685 0.775411 -1.37205 0
M  V30 9472 C 899.933 1.53081 -1.3195 0
M  V30 9473 C 900.254 1.9476 0.0966864 0
M  V30 9474 O 899.524 1.66019 1.03993 0
M  V30 9475 H 898.104 0.567762 -0.485444 0
M  V30 9476 H 900.766 0.92309 -1.71654 0
M  V30 9477 H 899.862 2.4319 -1.95614 0
M  V30 9478 N 900.163 1.21714 1.00117 0
M  V30 9479 C 901.093 1.00397 2.10815 0
M  V30 9480 C 902.074 -0.0723502 1.69946 0
M  V30 9481 O 903.259 0.0882398 1.93999 0
M  V30 9482 C 900.389 0.572001 3.42557 0
M  V30 9483 C 899.343 1.59331 3.97237 0
M  V30 9484 C 898.669 1.01746 5.2493 0
M  V30 9485 C 899.969 2.98117 4.28863 0
M  V30 9486 H 901.663 1.92983 2.28906 0
M  V30 9487 H 899.209 0.929273 1.10002 0
M  V30 9488 H 901.162 0.410018 4.19401 0
M  V30 9489 H 899.886 -0.38951 3.24269 0
M  V30 9490 H 898.545 1.74293 3.22518 0
M  V30 9491 H 898.193 0.0475491 5.02978 0
M  V30 9492 H 897.893 1.69969 5.62481 0
M  V30 9493 H 899.417 0.866881 6.04415 0
M  V30 9494 H 900.831 2.86578 4.96534 0
M  V30 9495 H 899.228 3.63389 4.77565 0
M  V30 9496 H 900.298 3.48674 3.36979 0
M  V30 9497 N 901.641 -1.19671 1.02551 0
M  V30 9498 C 902.887 -1.89818 0.730801 0
M  V30 9499 C 903.242 -1.77917 -0.732355 0
M  V30 9500 O 902.535 -1.15848 -1.5261 0
M  V30 9501 C 902.729 -3.39647 1.11241 0
M  V30 9502 C 902.558 -3.66129 2.61112 0
M  V30 9503 C 901.328 -3.84348 3.28032 0
M  V30 9504 C 903.526 -3.67963 3.59316 0
M  V30 9505 N 901.508 -3.98429 4.67041 0
M  V30 9506 C 902.879 -3.87575 4.83927 0
M  V30 9507 C 904.934 -3.50971 3.53162 0
M  V30 9508 C 903.637 -3.91957 6.03127 0
M  V30 9509 C 905.663 -3.56629 4.71773 0
M  V30 9510 C 905.025 -3.76722 5.95197 0
M  V30 9511 H 901.124 -0.713873 0.319232 0
M  V30 9512 H 903.708 -1.43844 1.31213 0
M  V30 9513 H 901.879 -3.84352 0.559324 0
M  V30 9514 H 903.611 -3.97301 0.77031 0
M  V30 9515 H 900.366 -3.83097 2.78448 0
M  V30 9516 H 900.79 -4.09327 5.39241 0
M  V30 9517 H 905.432 -3.34395 2.58728 0
M  V30 9518 H 903.15 -4.07326 6.97933 0
M  V30 9519 H 906.736 -3.44777 4.68637 0
M  V30 9520 H 905.616 -3.8097 6.85442 0
M  V30 9521 N 903.119 -0.802921 -1.35613 0
M  V30 9522 C 904.367 -0.380822 -1.9848 0
M  V30 9523 C 904.688 1.05464 -1.6402 0
M  V30 9524 O 903.958 1.72908 -0.920854 0
M  V30 9525 H 902.538 -0.137824 -0.734176 0
M  V30 9526 H 905.2 -1.02795 -1.65587 0
M  V30 9527 H 904.296 -0.483565 -3.08331 0
M  V30 9528 N 904.597 1.47463 -0.556102 0
M  V30 9529 C 905.837 2.04372 -0.0339743 0
M  V30 9530 C 906.201 1.42125 1.29091 0
M  V30 9531 O 907.402 1.90074 1.90066 0
M  V30 9532 C 905.673 3.57352 0.0585316 0
M  V30 9533 S 907.232 4.35625 0.526943 0
M  V30 9534 H 904.05 0.710574 -0.0246115 0
M  V30 9535 H 906.652 1.80848 -0.742585 0
M  V30 9536 H 905.356 4.00181 -0.910116 0
M  V30 9537 H 904.887 3.85371 0.790731 0
M  V30 9538 H 906.902 4.62911 1.78683 0
M  V30 9539 N 906.075 0.2925 1.54862 0
M  V30 9540 C 907.322 -0.319263 1.99967 0
M  V30 9541 C 907.65 -1.54547 1.18092 0
M  V30 9542 O 906.905 -1.94186 0.242969 0
M  V30 9543 C 907.204 -0.728674 3.49893 0
M  V30 9544 C 906.87 0.394836 4.49168 0
M  V30 9545 C 905.532 0.703289 4.76033 0
M  V30 9546 C 907.884 1.15103 5.08331 0
M  V30 9547 C 905.212 1.77121 5.59325 0
M  V30 9548 C 907.564 2.20881 5.92785 0
M  V30 9549 C 906.228 2.52342 6.17964 0
M  V30 9550 H 905.498 -0.116827 0.731733 0
M  V30 9551 H 908.145 0.40983 1.87063 0
M  V30 9552 H 906.45 -1.53772 3.60363 0
M  V30 9553 H 908.147 -1.21305 3.82212 0
M  V30 9554 H 904.737 0.144319 4.28357 0
M  V30 9555 H 908.921 0.92599 4.87585 0
M  V30 9556 H 904.177 2.01978 5.77074 0
M  V30 9557 H 908.351 2.79939 6.37657 0
M  V30 9558 H 905.978 3.35225 6.82296 0
M  V30 9559 N 907.553 -1.57587 0.0200696 0
M  V30 9560 C 908.781 -1.95718 -0.670964 0
M  V30 9561 C 909.196 -0.896081 -1.6618 0
M  V30 9562 O 908.553 0.123037 -1.82085 0
M  V30 9563 C 908.604 -3.33904 -1.38529 0
M  V30 9564 O 908.325 -4.35943 -0.434167 0
M  V30 9565 C 909.826 -3.86614 -2.16898 0
M  V30 9566 H 907.046 -0.644819 -0.185606 0
M  V30 9567 H 909.59 -2.04354 0.0771495 0
M  V30 9568 H 907.745 -3.26515 -2.08487 0
M  V30 9569 H 908.159 -5.16001 -0.940378 0
M  V30 9570 H 909.633 -4.85673 -2.62346 0
M  V30 9571 H 910.11 -3.20379 -3.00423 0
M  V30 9572 H 910.716 -3.97243 -1.51916 0
M  V30 9573 N 909.032 0.252966 -1.55557 0
M  V30 9574 C 910.278 0.979092 -1.78284 0
M  V30 9575 C 910.633 1.83194 -0.588009 0
M  V30 9576 O 909.926 1.86965 0.418899 0
M  V30 9577 C 910.12 1.87785 -3.04091 0
M  V30 9578 C 909.949 1.11349 -4.35697 0
M  V30 9579 C 908.719 0.821038 -4.98585 0
M  V30 9580 C 910.917 0.494039 -5.11922 0
M  V30 9581 N 908.899 0.0319767 -6.13892 0
M  V30 9582 C 910.27 -0.159888 -6.19794 0
M  V30 9583 C 912.325 0.403894 -4.96259 0
M  V30 9584 C 911.028 -0.895295 -7.13706 0
M  V30 9585 C 913.054 -0.317968 -5.90545 0
M  V30 9586 C 912.416 -0.960555 -6.9782 0
M  V30 9587 H 908.515 0.339586 -0.704419 0
M  V30 9588 H 911.099 0.252801 -1.93052 0
M  V30 9589 H 909.27 2.57623 -2.90663 0
M  V30 9590 H 911.002 2.53908 -3.15139 0
M  V30 9591 H 907.757 1.13132 -4.59889 0
M  V30 9592 H 908.181 -0.35047 -6.76092 0
M  V30 9593 H 912.823 0.886366 -4.13405 0
M  V30 9594 H 910.541 -1.38939 -7.96066 0
M  V30 9595 H 914.127 -0.388302 -5.80503 0
M  V30 9596 H 913.007 -1.51022 -7.69521 0
M  V30 9597 N 910.51 1.48831 0.518367 0
M  V30 9598 C 911.758 1.57128 1.27103 0
M  V30 9599 C 912.079 0.252098 1.93364 0
M  V30 9600 O 911.349 -0.727281 1.819 0
M  V30 9601 H 909.929 0.578891 0.472116 0
M  V30 9602 H 912.591 1.85361 0.602262 0
M  V30 9603 H 911.687 2.35838 2.04418 0
M  V30 9604 N 911.988 -0.768124 1.37614 0
M  V30 9605 C 913.216 -1.55726 1.36224 0
M  V30 9606 C 913.631 -1.8873 -0.0515357 0
M  V30 9607 O 912.988 -1.51718 -1.0143 0
M  V30 9608 C 913.039 -2.86533 2.20412 0
M  V30 9609 O 912.76 -2.54942 3.56281 0
M  V30 9610 C 914.261 -3.80745 2.27041 0
M  V30 9611 H 911.481 -0.482325 0.46648 0
M  V30 9612 H 914.025 -0.95176 1.81002 0
M  V30 9613 H 912.18 -3.43496 1.79134 0
M  V30 9614 H 912.594 -3.38732 4.00451 0
M  V30 9615 H 914.068 -4.69523 2.90263 0
M  V30 9616 H 914.545 -4.20138 1.27987 0
M  V30 9617 H 915.151 -3.2971 2.68647 0
M  V30 9618 N 913.466 -1.22244 -0.994698 0
M  V30 9619 C 914.694 -1.07218 -1.76952 0
M  V30 9620 C 915.109 0.377388 -1.8499 0
M  V30 9621 O 914.466 1.26157 -1.31874 0
M  V30 9622 C 914.517 -1.67496 -3.20355 0
M  V30 9623 O 914.238 -3.06782 -3.12756 0
M  V30 9624 C 915.739 -1.57721 -4.14294 0
M  V30 9625 H 912.959 -0.375966 -0.555779 0
M  V30 9626 H 915.503 -1.61799 -1.25065 0
M  V30 9627 H 913.658 -1.16982 -3.69315 0
M  V30 9628 H 914.072 -3.35784 -4.02926 0
M  V30 9629 H 915.546 -2.04623 -5.12673 0
M  V30 9630 H 916.023 -0.533434 -4.35949 0
M  V30 9631 H 916.629 -2.07531 -3.71229 0
M  V30 9632 N 914.944 1.19125 -1.03184 0
M  V30 9633 C 915.876 2.21914 -0.573294 0
M  V30 9634 C 916.889 1.5894 0.352397 0
M  V30 9635 O 918.078 1.77883 0.148318 0
M  V30 9636 C 915.178 3.38403 0.18355 0
M  V30 9637 C 914.351 4.3096 -0.747817 0
M  V30 9638 C 913.41 5.26188 -0.0358489 0
M  V30 9639 O 912.436 5.65321 -0.663388 0
M  V30 9640 N 913.638 5.67235 1.23387 0
M  V30 9641 H 916.403 2.61881 -1.45734 0
M  V30 9642 H 913.964 1.33821 -0.911231 0
M  V30 9643 H 915.956 3.99124 0.669468 0
M  V30 9644 H 914.526 2.97201 0.969043 0
M  V30 9645 H 913.746 3.67976 -1.41377 0
M  V30 9646 H 915.034 4.89708 -1.38071 0
M  V30 9647 H 914.432 5.37481 1.76439 0
M  V30 9648 H 912.989 6.30196 1.66423 0
M  V30 9649 N 916.422 0.810101 1.35185 0
M  V30 9650 C 917.67 0.391343 1.98275 0
M  V30 9651 C 917.991 -1.04592 1.64577 0
M  V30 9652 O 917.261 -1.72417 0.93001 0
M  V30 9653 H 915.841 0.141715 0.733434 0
M  V30 9654 H 918.503 1.03672 1.6504 0
M  V30 9655 H 917.599 0.49991 3.0807 0
M  V30 9656 N 917.9 -1.47166 0.563914 0
M  V30 9657 C 918.83 -2.32894 -0.168148 0
M  V30 9658 C 919.811 -1.44202 -0.902214 0
M  V30 9659 O 920.996 -1.73048 -0.881365 0
M  V30 9660 C 918.126 -3.26116 -1.19439 0
M  V30 9661 C 917.08 -4.24101 -0.576363 0
M  V30 9662 C 916.406 -5.06696 -1.70772 0
M  V30 9663 C 917.706 -5.20142 0.47425 0
M  V30 9664 H 919.4 -2.9435 0.547573 0
M  V30 9665 H 916.946 -1.41545 0.264778 0
M  V30 9666 H 918.899 -3.84935 -1.71474 0
M  V30 9667 H 917.623 -2.62728 -1.94014 0
M  V30 9668 H 916.282 -3.66519 -0.0772534 0
M  V30 9669 H 915.93 -4.39707 -2.44268 0
M  V30 9670 H 915.63 -5.7304 -1.29994 0
M  V30 9671 H 917.154 -5.68375 -2.2312 0
M  V30 9672 H 918.568 -5.73286 0.0397035 0
M  V30 9673 H 916.965 -5.94726 0.801287 0
M  V30 9674 H 918.035 -4.65214 1.36764 0
M  V30 9675 N 919.378 -0.300708 -1.54705 0
M  V30 9676 C 920.626 0.308044 -1.99739 0
M  V30 9677 C 920.947 1.54433 -1.19061 0
M  V30 9678 O 920.217 1.93794 -0.286507 0
M  V30 9679 H 918.797 0.116811 -0.73781 0
M  V30 9680 H 921.459 -0.41197 -1.90496 0
M  V30 9681 H 920.555 0.580287 -3.06658 0
M  V30 9682 N 920.856 1.57574 -0.0284266 0
M  V30 9683 C 922.084 1.96071 0.660575 0
M  V30 9684 C 922.499 0.904881 1.65703 0
M  V30 9685 O 921.856 -0.113379 1.82147 0
M  V30 9686 C 921.907 3.34634 1.36756 0
M  V30 9687 O 921.628 4.36167 0.411041 0
M  V30 9688 C 923.129 3.87758 2.14845 0
M  V30 9689 H 920.349 0.645794 0.182183 0
M  V30 9690 H 922.893 2.04311 -0.0879858 0
M  V30 9691 H 921.048 3.27616 2.06753 0
M  V30 9692 H 921.462 5.16493 0.913 0
M  V30 9693 H 922.936 4.87058 2.59767 0
M  V30 9694 H 923.413 3.21967 2.9872 0
M  V30 9695 H 924.019 3.98043 1.49807 0
M  V30 9696 N 922.334 -0.244713 1.55689 0
M  V30 9697 C 923.583 -0.970373 1.76824 0
M  V30 9698 C 923.896 -1.86402 0.592764 0
M  V30 9699 O 925.102 -2.62659 0.687186 0
M  V30 9700 C 923.558 -1.77547 3.13058 0
M  V30 9701 C 923.166 -0.929104 4.3826 0
M  V30 9702 C 924.91 -2.49373 3.43531 0
M  V30 9703 C 922.817 -1.73021 5.65524 0
M  V30 9704 H 921.747 -0.366048 0.659185 0
M  V30 9705 H 924.398 -0.224964 1.82116 0
M  V30 9706 H 922.78 -2.56291 3.01879 0
M  V30 9707 H 923.954 -0.183836 4.60433 0
M  V30 9708 H 922.269 -0.324071 4.15137 0
M  V30 9709 H 924.866 -3.09767 4.35831 0
M  V30 9710 H 925.209 -3.21099 2.64955 0
M  V30 9711 H 925.742 -1.77637 3.55935 0
M  V30 9712 H 922.481 -1.05666 6.46927 0
M  V30 9713 H 922.001 -2.45071 5.47449 0
M  V30 9714 H 923.68 -2.2968 6.0486 0
M  V30 9715 N 923.813 -1.49104 -0.510467 0
M  V30 9716 C 925.041 -1.61806 -1.28944 0
M  V30 9717 C 925.456 -0.285774 -1.86625 0
M  V30 9718 O 924.813 0.727551 -1.67371 0
M  V30 9719 C 924.864 -2.67966 -2.42645 0
M  V30 9720 O 924.585 -3.96026 -1.87337 0
M  V30 9721 C 926.086 -2.91286 -3.34166 0
M  V30 9722 H 923.306 -0.544999 -0.391429 0
M  V30 9723 H 925.85 -1.95071 -0.613805 0
M  V30 9724 H 924.005 -2.37505 -3.06056 0
M  V30 9725 H 924.419 -4.54427 -2.61909 0
M  V30 9726 H 925.893 -3.69323 -4.1025 0
M  V30 9727 H 926.37 -2.00842 -3.90588 0
M  V30 9728 H 926.976 -3.23127 -2.76531 0
M  V30 9729 N 925.291 0.760815 -1.38019 0
M  V30 9730 C 926.221 1.88811 -1.37377 0
M  V30 9731 C 927.202 1.68388 -0.240737 0
M  V30 9732 O 928.387 1.89086 -0.442739 0
M  V30 9733 C 925.517 3.26244 -1.1909 0
M  V30 9734 C 924.471 3.61254 -2.29521 0
M  V30 9735 C 923.797 4.97346 -1.96345 0
M  V30 9736 C 925.097 3.66874 -3.71753 0
M  V30 9737 H 926.791 1.89606 -2.31711 0
M  V30 9738 H 924.337 0.910818 -1.11535 0
M  V30 9739 H 926.29 4.04755 -1.17267 0
M  V30 9740 H 925.014 3.2591 -0.212152 0
M  V30 9741 H 923.673 2.85057 -2.30517 0
M  V30 9742 H 923.321 4.93564 -0.969728 0
M  V30 9743 H 923.021 5.21739 -2.703 0
M  V30 9744 H 924.545 5.78244 -1.96129 0
M  V30 9745 H 925.959 4.35514 -3.72828 0
M  V30 9746 H 924.356 4.02772 -4.44853 0
M  V30 9747 H 925.426 2.67273 -4.0459 0
M  V30 9748 N 926.769 1.22769 0.988202 0
M  V30 9749 C 927.732 1.00325 2.06076 0
M  V30 9750 C 928.732 -0.0320618 1.60768 0
M  V30 9751 O 929.922 0.206912 1.72967 0
M  V30 9752 C 927.054 0.516376 3.36966 0
M  V30 9753 H 928.247 1.95499 2.27421 0
M  V30 9754 H 925.8 1.04704 1.16047 0
M  V30 9755 H 926.535 -0.439498 3.21308 0
M  V30 9756 H 926.32 1.26337 3.71189 0
M  V30 9757 H 927.81 0.37974 4.1587 0
M  V30 9758 N 928.247 -1.18576 1.03814 0
M  V30 9759 C 929.177 -2.24334 0.647795 0
M  V30 9760 C 930.158 -1.66508 -0.34774 0
M  V30 9761 O 931.343 -1.92852 -0.228401 0
M  V30 9762 C 928.473 -3.47299 0.00734922 0
M  V30 9763 C 927.427 -4.17859 0.926152 0
M  V30 9764 C 926.753 -5.34489 0.150317 0
M  V30 9765 C 928.053 -4.71632 2.24411 0
M  V30 9766 H 929.747 -2.57241 1.53191 0
M  V30 9767 H 927.293 -1.23649 0.738028 0
M  V30 9768 H 929.246 -4.20486 -0.277434 0
M  V30 9769 H 927.97 -3.13619 -0.911626 0
M  V30 9770 H 926.629 -3.46567 1.19528 0
M  V30 9771 H 926.277 -4.97056 -0.770985 0
M  V30 9772 H 925.977 -5.82633 0.762407 0
M  V30 9773 H 927.501 -6.10467 -0.127508 0
M  V30 9774 H 928.915 -5.36526 2.02021 0
M  V30 9775 H 927.312 -5.303 2.80894 0
M  V30 9776 H 928.382 -3.89192 2.89236 0
M  V30 9777 N 929.725 -0.817259 -1.34754 0
M  V30 9778 C 930.971 -0.403244 -1.98751 0
M  V30 9779 C 931.304 1.02963 -1.64658 0
M  V30 9780 O 930.579 1.71617 -0.915314 0
M  V30 9781 C 930.862 -0.599188 -3.5508 0
M  V30 9782 C 930.715 -2.07777 -3.98934 0
M  V30 9783 C 932.034 -0.0315656 -4.40089 0
M  V30 9784 H 929.153 -0.147988 -0.721989 0
M  V30 9785 H 931.795 -1.02877 -1.59738 0
M  V30 9786 H 929.945 -0.0667116 -3.88443 0
M  V30 9787 H 931.617 -2.67345 -3.75931 0
M  V30 9788 H 929.86 -2.57031 -3.49453 0
M  V30 9789 H 930.531 -2.16571 -5.07741 0
M  V30 9790 H 933.007 -0.48644 -4.13247 0
M  V30 9791 H 931.883 -0.198507 -5.48541 0
M  V30 9792 H 932.144 1.06302 -4.2913 0
M  V30 9793 N 931.203 1.46865 -0.571711 0
M  V30 9794 C 932.113 2.33979 0.170571 0
M  V30 9795 C 933.129 1.49083 0.897239 0
M  V30 9796 O 934.305 1.81979 0.862888 0
M  V30 9797 C 931.37 3.26063 1.17831 0
M  V30 9798 C 930.431 4.26855 0.457499 0
M  V30 9799 C 929.664 5.14539 1.41722 0
M  V30 9800 O 929.887 5.04945 2.65305 0
M  V30 9801 O 928.821 5.94612 0.9338 0
M  V30 9802 H 932.647 2.98781 -0.544396 0
M  V30 9803 H 930.232 1.4566 -0.332198 0
M  V30 9804 H 932.114 3.82903 1.75965 0
M  V30 9805 H 930.789 2.63871 1.87493 0
M  V30 9806 H 929.696 3.73734 -0.165406 0
M  V30 9807 H 931.029 4.91802 -0.197953 0
M  V30 9808 N 932.681 0.308908 1.54543 0
M  V30 9809 C 933.629 -0.579326 2.2527 0
M  V30 9810 C 934.623 -1.13058 1.26152 0
M  V30 9811 O 935.829 -1.08031 1.43977 0
M  V30 9812 H 932.204 -0.205444 0.723392 0
M  V30 9813 H 934.175 0.0396415 2.98374 0
M  V30 9814 C 932.924 -1.73584 3.01271 0
M  V30 9815 H 932.247 -1.32089 3.77349 0
M  V30 9816 H 933.687 -2.33324 3.54028 0
M  V30 9817 C 932.146 -2.6447 2.08703 0
M  V30 9818 O 932.676 -3.65785 1.66025 0
M  V30 9819 N 930.882 -2.32379 1.74495 0
M  V30 9820 H 930.429 -1.50034 2.09398 0
M  V30 9821 H 930.387 -2.93454 1.12836 0
M  V30 9822 N 934.159 -1.57557 0.0367827 0
M  V30 9823 C 935.407 -1.91735 -0.63892 0
M  V30 9824 C 935.728 -0.914515 -1.72226 0
M  V30 9825 O 934.998 0.0428248 -1.95853 0
M  V30 9826 H 933.578 -0.707738 -0.23899 0
M  V30 9827 H 936.24 -1.94708 0.0863931 0
M  V30 9828 H 935.336 -2.92568 -1.08676 0
M  V30 9829 N 935.637 0.236453 -1.55816 0
M  V30 9830 C 936.567 1.29639 -1.94206 0
M  V30 9831 C 937.548 1.49667 -0.808319 0
M  V30 9832 O 938.733 1.621 -1.06945 0
M  V30 9833 C 935.863 2.64914 -2.24584 0
M  V30 9834 C 934.817 2.59565 -3.40308 0
M  V30 9835 C 934.143 3.98732 -3.56254 0
M  V30 9836 C 935.443 2.15642 -4.75706 0
M  V30 9837 H 937.137 0.977552 -2.82992 0
M  V30 9838 H 934.683 0.468804 -1.36155 0
M  V30 9839 H 936.636 3.39209 -2.50031 0
M  V30 9840 H 935.36 2.98455 -1.32636 0
M  V30 9841 H 934.019 1.87728 -3.14887 0
M  V30 9842 H 933.667 4.29556 -2.61707 0
M  V30 9843 H 933.367 3.96039 -4.34082 0
M  V30 9844 H 934.891 4.74711 -3.84033 0
M  V30 9845 H 936.305 2.79673 -5.00456 0
M  V30 9846 H 934.702 2.24039 -5.56711 0
M  V30 9847 H 935.772 1.10831 -4.72064 0
M  V30 9848 N 937.115 1.49373 0.502552 0
M  V30 9849 C 938.526 1.52 1.0841 0
M  V30 9850 C 938.877 0.305317 1.9381 0
M  V30 9851 O 938.002 -0.585023 2.08342 0
M  V30 9852 C 938.597 2.75437 1.97281 0
M  V30 9853 C 937.156 2.80848 2.50602 0
M  V30 9854 C 936.303 2.45894 1.28186 0
M  V30 9855 H 939.254 1.56092 0.286533 0
M  V30 9856 H 939.275 2.55511 2.81947 0
M  V30 9857 H 938.787 3.63827 1.35098 0
M  V30 9858 H 936.888 1.96735 3.16427 0
M  V30 9859 H 937.001 3.82979 2.8786 0
M  V30 9860 H 935.365 1.97639 1.60657 0
M  V30 9861 H 936.148 3.36556 0.677139 0
M  V30 9862 N 938.594 -0.753485 1.38421 0
M  V30 9863 C 939.557 -1.84888 1.35459 0
M  V30 9864 C 940.557 -1.58764 0.255083 0
M  V30 9865 O 941.747 -1.66507 0.511978 0
M  V30 9866 C 938.879 -3.22361 1.10888 0
M  V30 9867 H 940.072 -1.88922 2.32913 0
M  V30 9868 H 937.625 -0.955199 1.23716 0
M  V30 9869 H 938.36 -3.23996 0.1404 0
M  V30 9870 H 938.145 -3.42717 1.90492 0
M  V30 9871 H 939.635 -4.02437 1.1151 0
M  V30 9872 N 940.072 -1.23292 -0.981677 0
M  V30 9873 C 941.3 -1.09088 -1.75805 0
M  V30 9874 C 941.715 0.357746 -1.8538 0
M  V30 9875 O 941.072 1.24751 -1.33205 0
M  V30 9876 C 941.123 -1.70885 -3.1856 0
M  V30 9877 O 940.844 -3.10082 -3.09484 0
M  V30 9878 C 942.345 -1.62106 -4.12597 0
M  V30 9879 H 939.565 -0.38184 -0.55176 0
M  V30 9880 H 942.109 -1.63116 -1.23342 0
M  V30 9881 H 940.264 -1.20893 -3.68054 0
M  V30 9882 H 940.678 -3.40039 -3.99342 0
M  V30 9883 H 942.152 -2.10049 -5.10474 0
M  V30 9884 H 942.629 -0.579642 -4.35358 0
M  V30 9885 H 943.235 -2.11457 -3.69007 0
M  V30 9886 N 941.55 1.18024 -1.04442 0
M  V30 9887 C 942.827 1.8398 -0.664125 0
M  V30 9888 C 943.207 1.92961 0.856116 0
M  V30 9889 O 942.555 1.45839 1.75907 0
M  V30 9890 C 942.765 3.22069 -1.34433 0
M  V30 9891 C 944.113 3.98063 -1.47754 0
M  V30 9892 O 945.137 3.31523 -1.30274 0
M  V30 9893 O 943.996 5.17291 -1.76272 0
M  V30 9894 H 941.09 0.793543 -0.23285 0
M  V30 9895 H 943.636 1.25385 -1.14354 0
M  V30 9896 H 942.408 3.10458 -2.38184 0
M  V30 9897 H 942.031 3.88325 -0.853782 0
M  V30 9898 N 943.028 0.824394 1.34319 0
M  V30 9899 C 944.277 0.40956 1.97498 0
M  V30 9900 C 944.59 -1.03323 1.66083 0
M  V30 9901 O 945.796 -1.55205 2.22764 0
M  V30 9902 C 944.252 0.681384 3.53391 0
M  V30 9903 C 943.86 2.1379 3.93698 0
M  V30 9904 C 945.604 0.332788 4.23194 0
M  V30 9905 C 943.511 2.35453 5.42509 0
M  V30 9906 H 942.441 0.149409 0.739049 0
M  V30 9907 H 945.092 1.01095 1.5314 0
M  V30 9908 H 943.474 0.00980375 3.95999 0
M  V30 9909 H 944.648 2.84876 3.62191 0
M  V30 9910 H 942.963 2.44807 3.36836 0
M  V30 9911 H 945.56 0.472463 5.32609 0
M  V30 9912 H 945.903 -0.722862 4.09976 0
M  V30 9913 H 946.436 0.959005 3.86067 0
M  V30 9914 H 943.175 3.39529 5.60714 0
M  V30 9915 H 942.695 1.68912 5.75525 0
M  V30 9916 H 944.374 2.17885 6.09209 0
M  V30 9917 N 944.506 -1.46559 0.579492 0
M  V30 9918 C 945.438 -2.28383 -0.19337 0
M  V30 9919 C 946.451 -1.38324 -0.858511 0
M  V30 9920 O 947.64 -1.62952 -0.728615 0
M  V30 9921 C 944.74 -3.13262 -1.29306 0
M  V30 9922 C 943.913 -4.31426 -0.720459 0
M  V30 9923 C 942.972 -4.97728 -1.70744 0
M  V30 9924 O 941.998 -5.55423 -1.24476 0
M  V30 9925 N 943.2 -4.94445 -3.04146 0
M  V30 9926 H 945.965 -2.95353 0.508611 0
M  V30 9927 H 943.526 -1.56436 0.417046 0
M  V30 9928 H 945.518 -3.54483 -1.95254 0
M  V30 9929 H 944.088 -2.48388 -1.89795 0
M  V30 9930 H 943.308 -3.94028 0.116398 0
M  V30 9931 H 944.596 -5.07808 -0.31763 0
M  V30 9932 H 943.994 -4.4881 -3.44363 0
M  V30 9933 H 942.551 -5.39616 -3.65592 0
M  V30 9934 N 945.984 -0.3171 -1.54377 0
M  V30 9935 C 946.931 0.551782 -2.24107 0
M  V30 9936 C 947.901 1.11681 -1.22949 0
M  V30 9937 O 949.086 1.15836 -1.51614 0
M  V30 9938 C 946.226 1.70997 -2.99756 0
M  V30 9939 C 945.339 1.17479 -4.15719 0
M  V30 9940 C 944.474 2.29815 -4.78914 0
M  V30 9941 C 943.513 1.73513 -5.86992 0
M  V30 9942 N 942.65 2.79485 -6.44075 0
M  V30 9943 H 947.49 -0.049431 -2.97959 0
M  V30 9944 H 945.027 -0.0361658 -1.47056 0
M  V30 9945 H 946.985 2.39141 -3.41859 0
M  V30 9946 H 945.615 2.28257 -2.28251 0
M  V30 9947 H 944.667 0.385109 -3.78446 0
M  V30 9948 H 945.979 0.72276 -4.93536 0
M  V30 9949 H 945.133 3.05875 -5.23952 0
M  V30 9950 H 943.872 2.78352 -4.00464 0
M  V30 9951 H 942.877 0.959475 -5.41363 0
M  V30 9952 H 944.102 1.2586 -6.67335 0
M  V30 9953 H 942.048 3.27325 -5.68502 0
M  V30 9954 H 941.965 2.38825 -7.17286 0
M  V30 9955 H 943.233 3.55394 -6.93769 0
M  V30 9956 N 947.462 1.57535 -0.0451378 0
M  V30 9957 C 948.425 2.1008 0.916461 0
M  V30 9958 C 949.425 1.01913 1.2438 0
M  V30 9959 O 950.615 1.2801 1.18148 0
M  V30 9960 C 947.747 2.58001 2.22818 0
M  V30 9961 H 948.94 2.96334 0.461076 0
M  V30 9962 H 946.493 1.54974 0.203169 0
M  V30 9963 H 947.228 1.75123 2.72951 0
M  V30 9964 H 947.013 3.3704 2.00366 0
M  V30 9965 H 948.503 2.98822 2.9171 0
M  V30 9966 N 948.94 -0.228186 1.55939 0
M  V30 9967 C 950.356 -0.577583 1.48782 0
M  V30 9968 C 950.556 -1.87461 0.738972 0
M  V30 9969 O 949.612 -2.50988 0.275929 0
M  V30 9970 C 950.925 -0.662961 2.93301 0
M  V30 9971 C 952.473 -0.754035 3.03782 0
M  V30 9972 C 952.948 -0.870815 4.49645 0
M  V30 9973 N 954.439 -0.935208 4.53661 0
M  V30 9974 C 955.174 -1.04516 5.63794 0
M  V30 9975 N 954.67 -1.11948 6.83696 0
M  V30 9976 N 956.463 -1.07978 5.51631 0
M  V30 9977 H 948.614 0.623018 2.03057 0
M  V30 9978 H 950.877 0.217692 0.922667 0
M  V30 9979 H 950.583 0.220375 3.51009 0
M  V30 9980 H 950.457 -1.52876 3.44831 0
M  V30 9981 H 952.844 -1.62782 2.46143 0
M  V30 9982 H 952.925 0.137301 2.55431 0
M  V30 9983 H 952.569 -0.0015186 5.079 0
M  V30 9984 H 952.499 -1.77747 4.95695 0
M  V30 9985 H 954.99 -0.88836 3.6731 0
M  V30 9986 H 955.303 -1.20297 7.6338 0
M  V30 9987 H 953.648 -1.08873 6.8642 0
M  V30 9988 H 956.839 -1.01833 4.56889 0
M  V30 9989 H 957.012 -1.16202 6.37496 0
M  V30 9990 N 950.418 -1.49637 -0.494624 0
M  V30 9991 C 951.366 -1.6727 -1.61627 0
M  V30 9992 C 952.36 -0.538587 -1.6061 0
M  V30 9993 O 953.566 -0.718411 -1.65042 0
M  V30 9994 H 949.941 -0.527557 -0.535899 0
M  V30 9995 H 951.912 -2.61405 -1.43909 0
M  V30 9996 C 950.661 -1.7624 -2.99725 0
M  V30 9997 H 949.984 -2.62886 -3.01216 0
M  V30 9998 H 951.424 -1.92611 -3.77726 0
M  V30 9999 C 949.883 -0.508632 -3.33038 0
M  V30 10000 O 950.413 0.362828 -4.00058 0
M  V30 10001 N 948.619 -0.369667 -2.88239 0
M  V30 10002 H 948.166 -1.07984 -2.33875 0
M  V30 10003 H 948.124 0.468112 -3.10896 0
M  V30 10004 N 951.896 0.746133 -1.38819 0
M  V30 10005 C 952.844 1.88137 -1.36774 0
M  V30 10006 C 953.838 1.67508 -0.252495 0
M  V30 10007 O 955.044 1.74985 -0.421935 0
M  V30 10008 H 951.419 0.619116 -0.426849 0
M  V30 10009 H 953.39 1.86978 -2.32555 0
M  V30 10010 C 952.139 3.25703 -1.21708 0
M  V30 10011 H 951.462 3.42168 -2.06788 0
M  V30 10012 H 952.902 4.05361 -1.24332 0
M  V30 10013 C 951.361 3.36816 0.0754257 0
M  V30 10014 O 951.891 3.87742 1.04972 0
M  V30 10015 N 950.097 2.90287 0.134761 0
M  V30 10016 H 949.644 2.49034 -0.658779 0
M  V30 10017 H 949.602 2.98103 0.999109 0
M  V30 10018 N 953.375 1.23811 0.975125 0
M  V30 10019 C 954.624 1.06741 1.71141 0
M  V30 10020 C 954.937 -0.394986 1.9157 0
M  V30 10021 O 956.143 -0.685723 2.62698 0
M  V30 10022 C 954.599 1.86168 3.08009 0
M  V30 10023 C 954.207 3.36771 2.95448 0
M  V30 10024 C 955.951 1.77604 3.85561 0
M  V30 10025 C 953.858 4.0857 4.2758 0
M  V30 10026 H 952.788 0.395819 0.64175 0
M  V30 10027 H 955.439 1.47825 1.0872 0
M  V30 10028 H 953.821 1.37893 3.71216 0
M  V30 10029 H 954.995 3.92571 2.41298 0
M  V30 10030 H 953.31 3.46205 2.31368 0
M  V30 10031 H 955.907 2.28556 4.83391 0
M  V30 10032 H 956.25 0.739837 4.09673 0
M  V30 10033 H 956.783 2.23519 3.29065 0
M  V30 10034 H 953.522 5.12518 4.08663 0
M  V30 10035 H 953.042 3.57556 4.81574 0
M  V30 10036 H 954.721 4.15157 4.9624 0
M  V30 10037 N 954.853 -1.17469 1.05066 0
M  V30 10038 C 955.816 -2.19648 0.654793 0
M  V30 10039 C 956.816 -1.58107 -0.293063 0
M  V30 10040 O 958.006 -1.74029 -0.077106 0
M  V30 10041 C 955.138 -3.40878 -0.0384437 0
M  V30 10042 H 956.331 -2.56184 1.55915 0
M  V30 10043 H 953.884 -1.31528 0.844396 0
M  V30 10044 H 954.619 -3.09885 -0.956133 0
M  V30 10045 H 954.404 -3.86792 0.642961 0
M  V30 10046 H 955.894 -4.1651 -0.301568 0
M  V30 10047 N 956.331 -0.831506 -1.3388 0
M  V30 10048 C 957.278 -0.257449 -2.2936 0
M  V30 10049 C 958.248 0.622604 -1.5399 0
M  V30 10050 O 959.433 0.562432 -1.82322 0
M  V30 10051 C 956.573 0.567587 -3.404 0
M  V30 10052 C 955.686 -0.335666 -4.30694 0
M  V30 10053 C 954.821 0.499762 -5.28844 0
M  V30 10054 C 953.86 -0.402343 -6.10776 0
M  V30 10055 N 952.997 0.39452 -7.00991 0
M  V30 10056 H 957.837 -1.077 -2.77857 0
M  V30 10057 H 955.374 -0.542589 -1.36727 0
M  V30 10058 H 957.332 1.06133 -4.03474 0
M  V30 10059 H 955.962 1.35217 -2.93115 0
M  V30 10060 H 955.014 -0.94768 -3.68406 0
M  V30 10061 H 956.326 -1.02896 -4.88072 0
M  V30 10062 H 955.48 1.05763 -5.9741 0
M  V30 10063 H 954.219 1.22652 -4.72025 0
M  V30 10064 H 953.224 -0.972288 -5.41135 0
M  V30 10065 H 954.449 -1.12735 -6.69677 0
M  V30 10066 H 952.395 1.1048 -6.4663 0
M  V30 10067 H 952.312 -0.240209 -7.55618 0
M  V30 10068 H 953.58 0.934867 -7.73874 0
M  V30 10069 N 957.809 1.4625 -0.587256 0
M  V30 10070 C 958.772 2.28812 0.133238 0
M  V30 10071 C 959.772 1.38645 0.814513 0
M  V30 10072 O 960.962 1.60975 0.665774 0
M  V30 10073 C 958.094 3.19147 1.19824 0
M  V30 10074 H 959.287 2.93991 -0.592386 0
M  V30 10075 H 956.84 1.52435 -0.345416 0
M  V30 10076 H 957.575 2.58725 1.95529 0
M  V30 10077 H 957.36 3.85541 0.71418 0
M  V30 10078 H 958.85 3.81278 1.70344 0
M  V30 10079 N 959.287 0.325282 1.54207 0
M  V30 10080 C 960.25 -0.527228 2.23054 0
M  V30 10081 C 961.25 -1.04217 1.22456 0
M  V30 10082 O 962.44 -0.934325 1.47024 0
M  V30 10083 C 959.572 -1.7325 2.93594 0
M  V30 10084 H 960.765 0.0746423 2.99807 0
M  V30 10085 H 958.318 0.0763872 1.56113 0
M  V30 10086 H 959.053 -2.37356 2.20981 0
M  V30 10087 H 958.838 -1.37065 3.67363 0
M  V30 10088 H 960.328 -2.3376 3.46043 0
M  V30 10089 N 960.765 -1.57509 0.0534917 0
M  V30 10090 C 962.042 -1.84137 -0.659767 0
M  V30 10091 C 962.422 -0.942362 -1.88899 0
M  V30 10092 O 961.77 -0.00398566 -2.285 0
M  V30 10093 C 961.98 -3.33919 -1.01486 0
M  V30 10094 C 963.328 -4.00989 -1.39616 0
M  V30 10095 O 964.352 -3.38557 -1.10713 0
M  V30 10096 O 963.211 -5.11071 -1.93567 0
M  V30 10097 H 960.305 -0.760081 -0.325893 0
M  V30 10098 H 962.851 -1.69497 0.0830315 0
M  V30 10099 H 961.623 -3.91046 -0.141041 0
M  V30 10100 H 961.246 -3.53755 -1.81503 0
M  V30 10101 N 962.243 0.219913 -1.56058 0
M  V30 10102 C 963.659 0.569685 -1.49086 0
M  V30 10103 C 963.859 1.87066 -0.748903 0
M  V30 10104 O 962.915 2.50838 -0.289235 0
M  V30 10105 C 964.228 0.647397 -2.93648 0
M  V30 10106 C 965.776 0.737914 -3.04177 0
M  V30 10107 C 966.251 0.846957 -4.50101 0
M  V30 10108 N 967.742 0.911136 -4.5415 0
M  V30 10109 C 968.477 1.01525 -5.64341 0
M  V30 10110 N 967.973 1.0832 -6.8428 0
M  V30 10111 N 969.766 1.05051 -5.52196 0
M  V30 10112 H 961.917 -0.633778 -2.02724 0
M  V30 10113 H 964.18 -0.222583 -0.921499 0
M  V30 10114 H 963.886 -0.238987 -3.50887 0
M  V30 10115 H 963.76 1.51046 -3.45637 0
M  V30 10116 H 966.147 1.61474 -2.47002 0
M  V30 10117 H 966.228 -0.150845 -2.55355 0
M  V30 10118 H 965.872 -0.0254166 -5.07894 0
M  V30 10119 H 965.802 1.75116 -4.96631 0
M  V30 10120 H 968.293 0.868869 -3.67776 0
M  V30 10121 H 968.606 1.16247 -7.64007 0
M  V30 10122 H 966.951 1.05231 -6.86987 0
M  V30 10123 H 970.142 0.994086 -4.57423 0
M  V30 10124 H 970.315 1.12819 -6.38103 0
M  V30 10125 N 963.721 1.49897 0.486681 0
M  V30 10126 C 964.967 1.61313 1.23893 0
M  V30 10127 C 965.322 0.302457 1.90008 0
M  V30 10128 O 964.615 -0.698466 1.78415 0
M  V30 10129 C 964.809 2.71982 2.31863 0
M  V30 10130 C 964.638 4.13685 1.76338 0
M  V30 10131 C 963.408 4.8029 1.57002 0
M  V30 10132 C 965.606 4.98446 1.26711 0
M  V30 10133 N 963.588 6.06259 0.965564 0
M  V30 10134 C 964.959 6.15011 0.784912 0
M  V30 10135 C 967.014 4.84338 1.15419 0
M  V30 10136 C 965.717 7.19019 0.200942 0
M  V30 10137 C 967.743 5.88508 0.584173 0
M  V30 10138 C 967.105 7.04311 0.112272 0
M  V30 10139 H 963.204 0.644555 0.442801 0
M  V30 10140 H 965.788 1.86959 0.543562 0
M  V30 10141 H 963.959 2.48086 2.98844 0
M  V30 10142 H 965.691 2.72842 2.98897 0
M  V30 10143 H 962.446 4.37324 1.81781 0
M  V30 10144 H 962.87 6.73554 0.6822 0
M  V30 10145 H 967.512 3.95107 1.50499 0
M  V30 10146 H 965.23 8.07937 -0.162099 0
M  V30 10147 H 968.816 5.79653 0.49938 0
M  V30 10148 H 967.696 7.83539 -0.321907 0
M  V30 10149 N 965.199 -0.738761 1.39212 0
M  V30 10150 C 966.129 -1.86602 1.40364 0
M  V30 10151 C 967.11 -1.67984 0.267495 0
M  V30 10152 O 968.295 -1.88358 0.472765 0
M  V30 10153 C 965.425 -3.24308 1.24265 0
M  V30 10154 C 964.379 -3.57557 2.35239 0
M  V30 10155 C 963.705 -4.94159 2.04233 0
M  V30 10156 C 965.005 -3.60914 3.77543 0
M  V30 10157 H 966.699 -1.85896 2.34698 0
M  V30 10158 H 964.245 -0.892959 1.1297 0
M  V30 10159 H 966.198 -4.02838 1.23692 0
M  V30 10160 H 964.922 -3.25531 0.263974 0
M  V30 10161 H 963.581 -2.81354 2.35022 0
M  V30 10162 H 963.229 -4.91959 1.04813 0
M  V30 10163 H 962.929 -5.17373 2.78567 0
M  V30 10164 H 964.453 -5.7505 2.05303 0
M  V30 10165 H 965.867 -4.29528 3.79709 0
M  V30 10166 H 964.264 -3.95644 4.51205 0
M  V30 10167 H 965.334 -2.60803 4.08791 0
M  V30 10168 N 966.677 -1.24326 -0.968545 0
M  V30 10169 C 967.587 -1.05194 -2.09694 0
M  V30 10170 C 968.603 0.00701291 -1.73999 0
M  V30 10171 O 969.779 -0.190981 -2.00492 0
M  V30 10172 C 966.844 -0.658075 -3.40397 0
M  V30 10173 C 965.905 -1.79341 -3.90045 0
M  V30 10174 C 965.138 -1.41824 -5.14511 0
M  V30 10175 O 965.361 -0.307693 -5.69569 0
M  V30 10176 O 964.295 -2.24358 -5.58522 0
M  V30 10177 H 968.121 -1.99791 -2.2873 0
M  V30 10178 H 965.706 -1.03138 -1.08088 0
M  V30 10179 H 967.588 -0.449911 -4.18991 0
M  V30 10180 H 966.263 0.258782 -3.22664 0
M  V30 10181 H 965.17 -2.05632 -3.12516 0
M  V30 10182 H 966.503 -2.68901 -4.12254 0
M  V30 10183 N 968.156 1.1691 -1.05688 0
M  V30 10184 C 969.104 2.2315 -0.656262 0
M  V30 10185 C 970.098 1.66256 0.324873 0
M  V30 10186 O 971.304 1.7899 0.190397 0
M  V30 10187 H 967.679 0.726527 -0.19407 0
M  V30 10188 H 969.65 2.54233 -1.56231 0
M  V30 10189 C 968.399 3.47661 -0.0522431 0
M  V30 10190 H 967.722 3.91749 -0.798299 0
M  V30 10191 H 969.162 4.23571 0.190626 0
M  V30 10192 C 967.621 3.14709 1.20248 0
M  V30 10193 O 968.151 3.29947 2.29124 0
M  V30 10194 N 966.357 2.68892 1.10207 0
M  V30 10195 H 965.904 2.56692 0.216063 0
M  V30 10196 H 965.862 2.47218 1.94244 0
M  V30 10197 N 969.634 0.838594 1.33437 0
M  V30 10198 C 970.883 0.430484 1.97053 0
M  V30 10199 C 971.196 -1.01556 1.6717 0
M  V30 10200 O 972.402 -1.52834 2.24397 0
M  V30 10201 C 970.858 0.718828 3.52648 0
M  V30 10202 C 970.466 2.17953 3.91408 0
M  V30 10203 C 972.21 0.377654 4.22817 0
M  V30 10204 C 970.117 2.41194 5.39981 0
M  V30 10205 H 969.047 0.157239 0.737422 0
M  V30 10206 H 971.698 1.02714 1.5206 0
M  V30 10207 H 970.08 0.0518042 3.95966 0
M  V30 10208 H 971.254 2.88701 3.59149 0
M  V30 10209 H 969.569 2.48366 3.34221 0
M  V30 10210 H 972.166 0.528926 5.32077 0
M  V30 10211 H 972.509 -0.679338 4.1072 0
M  V30 10212 H 973.042 0.999899 3.85028 0
M  V30 10213 H 969.781 3.45457 5.57081 0
M  V30 10214 H 969.301 1.75007 5.73701 0
M  V30 10215 H 970.98 2.24334 6.06863 0
M  V30 10216 N 971.112 -1.45937 0.595003 0
M  V30 10217 C 972.022 -2.34221 -0.133325 0
M  V30 10218 C 973.038 -1.50491 -0.873407 0
M  V30 10219 O 974.214 -1.83328 -0.833828 0
M  V30 10220 C 971.279 -3.27896 -1.12628 0
M  V30 10221 C 970.34 -4.27529 -0.389532 0
M  V30 10222 C 969.573 -5.16729 -1.33519 0
M  V30 10223 O 969.796 -5.09102 -2.57238 0
M  V30 10224 O 968.73 -5.96023 -0.839084 0
M  V30 10225 H 972.556 -2.97877 0.591861 0
M  V30 10226 H 970.141 -1.45113 0.355329 0
M  V30 10227 H 972.023 -3.85654 -1.69851 0
M  V30 10228 H 970.698 -2.6682 -1.83272 0
M  V30 10229 H 969.605 -3.73424 0.224843 0
M  V30 10230 H 970.938 -4.91425 0.276169 0
M  V30 10231 N 972.59 -0.333456 -1.54032 0
M  V30 10232 C 973.5 0.536674 -2.28379 0
M  V30 10233 C 974.516 1.12068 -1.33104 0
M  V30 10234 O 975.692 1.13853 -1.66131 0
M  V30 10235 C 972.757 1.67677 -3.03456 0
M  V30 10236 C 971.818 1.12357 -4.14336 0
M  V30 10237 C 971.051 2.20933 -4.85823 0
M  V30 10238 O 971.274 3.41466 -4.569 0
M  V30 10239 O 970.208 1.85795 -5.72507 0
M  V30 10240 H 974.034 -0.0674003 -3.03625 0
M  V30 10241 H 971.619 -0.098823 -1.49073 0
M  V30 10242 H 973.501 2.34032 -3.50438 0
M  V30 10243 H 972.176 2.26684 -2.31076 0
M  V30 10244 H 971.083 0.424827 -3.7168 0
M  V30 10245 H 972.416 0.578497 -4.88789 0
M  V30 10246 N 974.068 1.57479 -0.061844 0
M  V30 10247 C 975 2.09116 0.938245 0
M  V30 10248 C 976.013 1.0212 1.26788 0
M  V30 10249 O 977.202 1.2966 1.22681 0
M  V30 10250 C 974.302 2.52822 2.25686 0
M  V30 10251 C 973.475 3.83277 2.10755 0
M  V30 10252 C 972.534 4.13182 3.25833 0
M  V30 10253 O 971.56 4.82937 3.01265 0
M  V30 10254 N 972.762 3.65938 4.50633 0
M  V30 10255 H 975.527 2.95543 0.497433 0
M  V30 10256 H 973.088 1.61423 0.124134 0
M  V30 10257 H 975.08 2.69896 3.01559 0
M  V30 10258 H 973.65 1.71586 2.61299 0
M  V30 10259 H 972.87 3.7568 1.19409 0
M  V30 10260 H 974.158 4.68686 1.98018 0
M  V30 10261 H 973.556 3.09566 4.73482 0
M  V30 10262 H 972.113 3.8823 5.23565 0
M  V30 10263 N 975.546 -0.211634 1.56173 0
M  V30 10264 C 976.794 -0.932704 1.7929 0
M  V30 10265 C 977.115 -1.84472 0.632076 0
M  V30 10266 O 976.385 -1.92739 -0.350519 0
M  V30 10267 H 974.965 -0.347393 0.661307 0
M  V30 10268 H 977.627 -0.22111 1.93642 0
M  V30 10269 H 976.723 -1.53365 2.71819 0
M  V30 10270 N 977.024 -1.50153 -0.478725 0
M  V30 10271 C 978.254 -1.64266 -1.253 0
M  V30 10272 C 978.662 -0.322256 -1.86435 0
M  V30 10273 O 978.005 0.704925 -1.69636 0
M  V30 10274 C 978.067 -2.67017 -2.40712 0
M  V30 10275 C 977.731 -4.10779 -2.00274 0
M  V30 10276 C 978.728 -4.96889 -1.52963 0
M  V30 10277 C 976.413 -4.5665 -2.09228 0
M  V30 10278 C 978.407 -6.26914 -1.15139 0
M  V30 10279 C 976.094 -5.86683 -1.71015 0
M  V30 10280 C 977.092 -6.71641 -1.24048 0
M  V30 10281 O 976.78 -7.99248 -0.863617 0
M  V30 10282 H 976.512 -0.555382 -0.385392 0
M  V30 10283 H 979.066 -1.97078 -0.578751 0
M  V30 10284 H 977.296 -2.29432 -3.11284 0
M  V30 10285 H 978.985 -2.70428 -3.02694 0
M  V30 10286 H 979.751 -4.62669 -1.45474 0
M  V30 10287 H 975.63 -3.90674 -2.44735 0
M  V30 10288 H 979.174 -6.93179 -0.784089 0
M  V30 10289 H 975.071 -6.20426 -1.78162 0
M  V30 10290 H 975.839 -8.12452 -0.993139 0
M  V30 10291 N 978.502 0.731368 -1.39602 0
M  V30 10292 C 979.918 1.03739 -1.21286 0
M  V30 10293 C 980.118 2.01353 -0.0769875 0
M  V30 10294 O 979.174 2.45978 0.570193 0
M  V30 10295 C 980.487 1.59621 -2.54837 0
M  V30 10296 C 982.035 1.71683 -2.61713 0
M  V30 10297 C 982.51 2.30973 -3.95494 0
M  V30 10298 N 984.001 2.38378 -3.97153 0
M  V30 10299 C 984.736 2.852 -4.97442 0
M  V30 10300 N 984.232 3.31891 -6.08129 0
M  V30 10301 N 986.025 2.84441 -4.84819 0
M  V30 10302 H 978.176 0.0840456 -2.12234 0
M  V30 10303 H 980.439 0.0999038 -0.942721 0
M  V30 10304 H 980.145 0.953608 -3.38525 0
M  V30 10305 H 980.019 2.58375 -2.74813 0
M  V30 10306 H 982.406 2.35064 -1.78406 0
M  V30 10307 H 982.487 0.715714 -2.45583 0
M  V30 10308 H 982.131 1.68219 -4.79234 0
M  V30 10309 H 982.061 3.31769 -4.08946 0
M  V30 10310 H 984.552 2.05382 -3.17217 0
M  V30 10311 H 984.865 3.66138 -6.8056 0
M  V30 10312 H 983.21 3.2989 -6.11717 0
M  V30 10313 H 986.401 2.4729 -3.97448 0
M  V30 10314 H 986.574 3.20616 -5.63124 0
M  V30 10315 N 979.98 1.24838 0.961938 0
M  V30 10316 C 980.91 1.07053 2.07514 0
M  V30 10317 C 981.891 -0.0182465 1.7009 0
M  V30 10318 O 983.076 0.149915 1.9362 0
M  V30 10319 C 980.206 0.680693 3.40564 0
M  V30 10320 C 979.16 1.71889 3.91967 0
M  V30 10321 C 978.486 1.18395 5.21428 0
M  V30 10322 C 979.786 3.1161 4.19161 0
M  V30 10323 H 981.48 2.00167 2.22651 0
M  V30 10324 H 979.026 0.963799 1.0699 0
M  V30 10325 H 980.979 0.54324 4.17884 0
M  V30 10326 H 979.703 -0.28615 3.25344 0
M  V30 10327 H 978.362 1.84465 3.16809 0
M  V30 10328 H 978.01 0.207543 5.02572 0
M  V30 10329 H 977.71 1.87778 5.56788 0
M  V30 10330 H 979.234 1.05873 6.01351 0
M  V30 10331 H 980.648 3.0223 4.87165 0
M  V30 10332 H 979.045 3.78398 4.65763 0
M  V30 10333 H 980.115 3.59218 3.25715 0
M  V30 10334 N 981.458 -1.16348 1.06306 0
M  V30 10335 C 982.869 -1.68491 0.80422 0
M  V30 10336 C 983.22 -1.84327 -0.672159 0
M  V30 10337 O 982.345 -1.53892 -1.52139 0
M  V30 10338 C 982.94 -3.06048 1.45328 0
M  V30 10339 C 981.499 -3.55311 1.24221 0
M  V30 10340 C 980.646 -2.31291 1.5297 0
M  V30 10341 H 983.597 -1.00708 1.22652 0
M  V30 10342 H 983.618 -3.70451 0.868674 0
M  V30 10343 H 983.13 -2.9449 2.52779 0
M  V30 10344 H 981.231 -3.72128 0.187447 0
M  V30 10345 H 981.344 -4.37397 1.95502 0
M  V30 10346 H 979.708 -2.3631 0.950241 0
M  V30 10347 H 980.491 -2.22331 2.6158 0
M  V30 10348 N 982.937 -0.845659 -1.3299 0
M  V30 10349 C 984.186 -0.440928 -1.96822 0
M  V30 10350 C 984.499 1.00668 -1.67706 0
M  V30 10351 O 985.705 1.51641 -2.25205 0
M  V30 10352 C 984.161 -0.73752 -3.52262 0
M  V30 10353 C 983.769 -2.20026 -3.90247 0
M  V30 10354 C 985.513 -0.400072 -4.22611 0
M  V30 10355 C 983.42 -2.44054 -5.38694 0
M  V30 10356 H 982.35 -0.161148 -0.736578 0
M  V30 10357 H 985.001 -1.03519 -1.51513 0
M  V30 10358 H 983.383 -0.0728025 -3.95933 0
M  V30 10359 H 984.557 -2.90602 -3.57613 0
M  V30 10360 H 982.872 -2.50135 -3.32899 0
M  V30 10361 H 985.469 -0.557136 -5.3179 0
M  V30 10362 H 985.812 0.657547 -4.11074 0
M  V30 10363 H 986.345 -1.0203 -3.84493 0
M  V30 10364 H 983.084 -3.48407 -5.55241 0
M  V30 10365 H 982.604 -1.78047 -5.72765 0
M  V30 10366 H 984.283 -2.27549 -6.05665 0
M  V30 10367 N 984.415 1.45619 -0.602734 0
M  V30 10368 C 985.362 2.30493 0.118944 0
M  V30 10369 C 986.332 1.41816 0.864723 0
M  V30 10370 O 987.517 1.7075 0.851424 0
M  V30 10371 C 984.657 3.2664 1.11356 0
M  V30 10372 C 983.77 4.3042 0.369161 0
M  V30 10373 C 982.905 5.13678 1.35307 0
M  V30 10374 C 981.944 6.09189 0.596207 0
M  V30 10375 N 981.081 6.85245 1.52916 0
M  V30 10376 H 985.921 2.91672 -0.610836 0
M  V30 10377 H 983.458 1.43731 -0.313032 0
M  V30 10378 H 985.416 3.80846 1.7033 0
M  V30 10379 H 984.046 2.67225 1.81081 0
M  V30 10380 H 983.098 3.78913 -0.335994 0
M  V30 10381 H 984.41 4.98307 -0.221603 0
M  V30 10382 H 983.564 5.7226 2.01502 0
M  V30 10383 H 982.303 4.45798 1.97777 0
M  V30 10384 H 981.308 5.49743 -0.0793984 0
M  V30 10385 H 982.533 6.79096 -0.0233734 0
M  V30 10386 H 980.479 6.20058 2.14159 0
M  V30 10387 H 980.396 7.49467 0.991713 0
M  V30 10388 H 981.664 7.48371 2.18083 0
M  V30 10389 N 985.893 0.34162 1.53853 0
M  V30 10390 C 987.309 -0.0103769 1.59597 0
M  V30 10391 C 987.509 -1.48897 1.35764 0
M  V30 10392 O 986.565 -2.24743 1.15095 0
M  V30 10393 C 987.878 0.424067 2.97695 0
M  V30 10394 C 989.426 0.376247 3.1073 0
M  V30 10395 C 989.901 0.786129 4.51203 0
M  V30 10396 N 991.392 0.74024 4.57247 0
M  V30 10397 C 992.127 1.02937 5.64085 0
M  V30 10398 N 991.623 1.38655 6.78783 0
M  V30 10399 N 993.416 0.953734 5.5395 0
M  V30 10400 H 985.567 1.30477 1.67599 0
M  V30 10401 H 987.83 0.531753 0.78482 0
M  V30 10402 H 987.536 1.45493 3.20195 0
M  V30 10403 H 987.41 -0.201713 3.7666 0
M  V30 10404 H 989.797 -0.645441 2.87955 0
M  V30 10405 H 989.878 1.0372 2.33828 0
M  V30 10406 H 989.522 1.80582 4.74713 0
M  V30 10407 H 989.452 0.102671 5.265 0
M  V30 10408 H 991.943 0.476763 3.7488 0
M  V30 10409 H 992.256 1.59206 7.56223 0
M  V30 10410 H 990.601 1.42498 6.80235 0
M  V30 10411 H 993.792 0.674044 4.63222 0
M  V30 10412 H 993.965 1.18241 6.37121 0
M  V30 10413 N 987.371 -1.57444 0.0701946 0
M  V30 10414 C 988.334 -2.11511 -0.882923 0
M  V30 10415 C 989.334 -1.03879 -1.22743 0
M  V30 10416 O 990.524 -1.29874 -1.16097 0
M  V30 10417 C 987.656 -2.61514 -2.18686 0
M  V30 10418 H 988.849 -2.9703 -0.413873 0
M  V30 10419 H 986.402 -1.55278 -0.178488 0
M  V30 10420 H 987.137 -1.79443 -2.70131 0
M  V30 10421 H 986.922 -3.40185 -1.94978 0
M  V30 10422 H 988.412 -3.03425 -2.86919 0
M  V30 10423 N 988.849 0.203349 -1.56283 0
M  V30 10424 C 989.759 1.27266 -1.9708 0
M  V30 10425 C 990.775 1.50268 -0.877236 0
M  V30 10426 O 991.951 1.63044 -1.18231 0
M  V30 10427 C 989.016 2.59871 -2.29495 0
M  V30 10428 C 988.077 2.45012 -3.52516 0
M  V30 10429 C 987.31 3.71293 -3.83376 0
M  V30 10430 O 987.533 4.75106 -3.15643 0
M  V30 10431 O 986.467 3.67316 -4.76826 0
M  V30 10432 H 990.293 0.956461 -2.88246 0
M  V30 10433 H 987.878 0.407688 -1.4373 0
M  V30 10434 H 989.76 3.38152 -2.51458 0
M  V30 10435 H 988.435 2.91135 -1.415 0
M  V30 10436 H 987.342 1.6487 -3.35811 0
M  V30 10437 H 988.675 2.18683 -4.40952 0
M  V30 10438 N 990.327 1.50405 0.470755 0
M  V30 10439 C 991.604 1.51929 1.23195 0
M  V30 10440 C 991.984 0.264159 2.09441 0
M  V30 10441 O 991.332 -0.752395 2.15757 0
M  V30 10442 C 991.542 2.81521 2.06269 0
M  V30 10443 C 992.89 3.32195 2.64446 0
M  V30 10444 O 993.914 2.82845 2.16511 0
M  V30 10445 O 992.773 4.18221 3.51786 0
M  V30 10446 H 989.867 0.609411 0.559059 0
M  V30 10447 H 992.413 1.62695 0.482549 0
M  V30 10448 H 991.185 3.64346 1.42715 0
M  V30 10449 H 990.808 2.7376 2.88342 0
M  V30 10450 N 991.805 -0.723954 1.39988 0
M  V30 10451 C 992.715 -1.86829 1.41887 0
M  V30 10452 C 993.731 -1.71173 0.312401 0
M  V30 10453 O 994.907 -1.93583 0.555651 0
M  V30 10454 C 991.972 -3.22541 1.27154 0
M  V30 10455 C 991.033 -3.50512 2.47871 0
M  V30 10456 C 990.266 -4.79749 2.33831 0
M  V30 10457 O 990.489 -5.54251 1.34765 0
M  V30 10458 O 989.423 -5.07868 3.23039 0
M  V30 10459 H 993.249 -1.88183 2.38371 0
M  V30 10460 H 990.834 -0.873259 1.21221 0
M  V30 10461 H 992.716 -4.0362 1.21114 0
M  V30 10462 H 991.391 -3.21933 0.337715 0
M  V30 10463 H 990.298 -2.69475 2.59488 0
M  V30 10464 H 991.631 -3.55909 3.39985 0
M  V30 10465 N 993.283 -1.25346 -0.955304 0
M  V30 10466 C 994.699 -1.02154 -1.22625 0
M  V30 10467 C 994.899 0.26206 -1.99789 0
M  V30 10468 O 993.955 0.974958 -2.32918 0
M  V30 10469 C 995.268 -2.2443 -2.00129 0
M  V30 10470 C 996.816 -2.29185 -2.13174 0
M  V30 10471 C 997.291 -3.51117 -2.94077 0
M  V30 10472 N 998.782 -3.51509 -3.01655 0
M  V30 10473 C 999.517 -4.42517 -3.64645 0
M  V30 10474 N 999.013 -5.43796 -4.29252 0
M  V30 10475 N 1000.81 -4.302 -3.61779 0
M  V30 10476 H 992.957 -2.07812 -0.439071 0
M  V30 10477 H 995.22 -0.91258 -0.256715 0
M  V30 10478 H 994.926 -3.17717 -1.50827 0
M  V30 10479 H 994.8 -2.27548 -3.00835 0
M  V30 10480 H 997.187 -1.36422 -2.61674 0
M  V30 10481 H 997.268 -2.30087 -1.11775 0
M  V30 10482 H 996.912 -4.44201 -2.46268 0
M  V30 10483 H 996.842 -3.4746 -3.95701 0
M  V30 10484 H 999.333 -2.78245 -2.55711 0
M  V30 10485 H 999.646 -6.09453 -4.75171 0
M  V30 10486 H 997.991 -5.4767 -4.27882 0
M  V30 10487 H 1001.18 -3.50304 -3.10491 0
M  V30 10488 H 1001.36 -5.01323 -4.10584 0
M  V30 10489 N 994.761 1.15782 -1.06922 0
M  V30 10490 C 995.724 2.18578 -0.689654 0
M  V30 10491 C 996.724 1.58553 0.267872 0
M  V30 10492 O 997.914 1.7413 0.0494097 0
M  V30 10493 C 995.046 3.40896 -0.0157919 0
M  V30 10494 H 996.239 2.53672 -1.59971 0
M  V30 10495 H 993.792 1.30168 -0.865214 0
M  V30 10496 H 994.527 3.11367 0.906712 0
M  V30 10497 H 994.312 3.85721 -0.704415 0
M  V30 10498 H 995.802 4.16937 0.235266 0
M  V30 10499 N 996.239 0.8527 1.3254 0
M  V30 10500 C 997.487 0.454224 1.96929 0
M  V30 10501 C 997.808 -0.993034 1.67821 0
M  V30 10502 O 997.078 -1.69371 0.984393 0
M  V30 10503 H 995.658 0.164977 0.728554 0
M  V30 10504 H 998.32 1.0887 1.61658 0
M  V30 10505 H 997.416 0.597667 3.06324 0
M  V30 10506 N 997.718 -1.45297 0.610449 0
M  V30 10507 C 998.948 -2.0629 0.113047 0
M  V30 10508 C 999.356 -1.45527 -1.20907 0
M  V30 10509 O 998.699 -0.564837 -1.74801 0
M  V30 10510 C 998.761 -3.59366 -0.0979692 0
M  V30 10511 C 998.425 -4.42481 1.14279 0
M  V30 10512 C 999.422 -4.77277 2.06161 0
M  V30 10513 C 997.107 -4.83187 1.37241 0
M  V30 10514 C 999.101 -5.51639 3.19333 0
M  V30 10515 C 996.788 -5.57303 2.50713 0
M  V30 10516 C 997.786 -5.91445 3.41587 0
M  V30 10517 O 997.474 -6.64056 4.53083 0
M  V30 10518 H 997.206 -0.67264 0.0673159 0
M  V30 10519 H 999.76 -1.87486 0.838937 0
M  V30 10520 H 997.99 -3.76582 -0.878783 0
M  V30 10521 H 999.679 -4.02193 -0.547327 0
M  V30 10522 H 1000.44 -4.46384 1.89647 0
M  V30 10523 H 996.324 -4.56045 0.67407 0
M  V30 10524 H 999.868 -5.78207 3.90286 0
M  V30 10525 H 995.765 -5.8761 2.67179 0
M  V30 10526 H 996.533 -6.82509 4.51801 0
M  V30 10527 N 999.196 -0.349774 -1.5367 0
M  V30 10528 C 1000.61 0.132815 -1.86227 0
M  V30 10529 C 1000.96 1.49479 -1.27084 0
M  V30 10530 O 1000.08 2.08292 -0.58679 0
M  V30 10531 C 1000.68 0.247775 -3.37893 0
M  V30 10532 C 999.237 0.674603 -3.70305 0
M  V30 10533 C 998.384 -0.187869 -2.76663 0
M  V30 10534 H 1001.33 -0.569148 -1.48143 0
M  V30 10535 H 1001.36 1.07418 -3.65023 0
M  V30 10536 H 1000.87 -0.743635 -3.80909 0
M  V30 10537 H 998.969 1.67481 -3.32837 0
M  V30 10538 H 999.082 0.460177 -4.76885 0
M  V30 10539 H 997.446 0.340779 -2.5241 0
M  V30 10540 H 998.229 -1.17653 -3.2251 0
M  V30 10541 N 1000.67 1.57404 -0.0785433 0
M  V30 10542 C 1001.92 1.9484 0.583853 0
M  V30 10543 C 1002.27 0.958758 1.6681 0
M  V30 10544 O 1001.57 -0.0179065 1.91592 0
M  V30 10545 C 1001.76 3.36684 1.1991 0
M  V30 10546 C 1001.59 4.49356 0.175978 0
M  V30 10547 C 1000.36 5.04721 -0.241733 0
M  V30 10548 C 1002.56 5.10911 -0.589415 0
M  V30 10549 N 1000.54 6.00938 -1.25485 0
M  V30 10550 C 1001.91 6.0269 -1.45483 0
M  V30 10551 C 1003.97 4.93708 -0.644746 0
M  V30 10552 C 1002.67 6.79111 -2.37066 0
M  V30 10553 C 1004.7 5.70778 -1.54812 0
M  V30 10554 C 1004.06 6.6221 -2.40119 0
M  V30 10555 H 1000.16 0.75993 0.184472 0
M  V30 10556 H 1002.74 1.94064 -0.157259 0
M  V30 10557 H 1000.91 3.38186 1.91011 0
M  V30 10558 H 1002.64 3.6134 1.82251 0
M  V30 10559 H 999.399 4.73385 0.142732 0
M  V30 10560 H 999.823 6.53746 -1.75912 0
M  V30 10561 H 1004.46 4.228 0.000601434 0
M  V30 10562 H 1002.18 7.49292 -3.02634 0
M  V30 10563 H 1005.77 5.59485 -1.59586 0
M  V30 10564 H 1004.65 7.20804 -3.08887 0
M  V30 10565 N 1002.15 -0.195058 1.56388 0
M  V30 10566 C 1003.4 -0.913636 1.8027 0
M  V30 10567 C 1003.72 -1.83791 0.651606 0
M  V30 10568 O 1002.99 -1.931 -0.330057 0
M  V30 10569 H 1001.57 -0.34036 0.664954 0
M  V30 10570 H 1004.23 -0.200559 1.93865 0
M  V30 10571 H 1003.33 -1.50473 2.7343 0
M  V30 10572 N 1003.63 -1.50653 -0.462772 0
M  V30 10573 C 1004.85 -1.66103 -1.24196 0
M  V30 10574 C 1005.28 -0.347421 -1.84864 0
M  V30 10575 O 1004.64 0.689673 -1.6767 0
M  V30 10576 C 1004.69 -2.76027 -2.32037 0
M  V30 10577 O 1003.79 -2.37859 -3.36893 0
M  V30 10578 H 1003.13 -0.554672 -0.365014 0
M  V30 10579 H 1005.66 -1.97076 -0.549734 0
M  V30 10580 H 1005.67 -2.99354 -2.77221 0
M  V30 10581 H 1004.35 -3.71361 -1.87253 0
M  V30 10582 H 1002.92 -2.2501 -2.97363 0
M  V30 10583 N 1005.11 0.71652 -1.4037 0
M  V30 10584 C 1006.06 1.85194 -1.40734 0
M  V30 10585 C 1007.05 1.66934 -0.287969 0
M  V30 10586 O 1008.26 1.74051 -0.458957 0
M  V30 10587 H 1004.63 0.609922 -0.439885 0
M  V30 10588 H 1006.6 1.82003 -2.36468 0
M  V30 10589 C 1005.35 3.23048 -1.28589 0
M  V30 10590 H 1004.67 3.37704 -2.13999 0
M  V30 10591 H 1006.11 4.02633 -1.32902 0
M  V30 10592 C 1004.57 3.369 0.00396512 0
M  V30 10593 O 1005.1 3.89881 0.967243 0
M  V30 10594 N 1003.31 2.90508 0.0731565 0
M  V30 10595 H 1002.86 2.4758 -0.711454 0
M  V30 10596 H 1002.81 3.00155 0.935652 0
M  V30 10597 N 1006.59 1.25851 0.948643 0
M  V30 10598 C 1007.81 1.13813 1.73382 0
M  V30 10599 C 1008.24 -0.303615 1.85633 0
M  V30 10600 O 1007.59 -1.21997 1.34114 0
M  V30 10601 C 1007.64 1.80388 3.12238 0
M  V30 10602 O 1006.75 1.08759 3.978 0
M  V30 10603 H 1006.09 0.397006 0.532243 0
M  V30 10604 H 1008.62 1.66529 1.18866 0
M  V30 10605 H 1008.63 1.86913 3.62667 0
M  V30 10606 H 1007.3 2.85278 3.02637 0
M  V30 10607 H 1005.88 1.10157 3.56258 0
M  V30 10608 N 1008.06 -1.15214 1.07534 0
M  V30 10609 C 1008.99 -2.2216 0.718837 0
M  V30 10610 C 1009.98 -1.6753 -0.29459 0
M  V30 10611 O 1011.16 -1.93481 -0.166931 0
M  V30 10612 C 1008.29 -3.471 0.117836 0
M  V30 10613 C 1007.24 -4.14701 1.05862 0
M  V30 10614 C 1006.57 -5.3374 0.320284 0
M  V30 10615 C 1007.87 -4.64254 2.39302 0
M  V30 10616 H 1009.56 -2.52237 1.61297 0
M  V30 10617 H 1007.11 -1.21239 0.776992 0
M  V30 10618 H 1009.06 -4.21156 -0.143519 0
M  V30 10619 H 1007.79 -3.16361 -0.811389 0
M  V30 10620 H 1006.45 -3.42589 1.30493 0
M  V30 10621 H 1006.09 -4.99257 -0.61246 0
M  V30 10622 H 1005.79 -5.79912 0.947381 0
M  V30 10623 H 1007.32 -6.10563 0.0667721 0
M  V30 10624 H 1008.73 -5.29827 2.18988 0
M  V30 10625 H 1007.13 -5.21095 2.97623 0
M  V30 10626 H 1008.2 -3.79793 3.01472 0
M  V30 10627 N 1009.54 -0.859717 -1.32086 0
M  V30 10628 C 1010.49 -0.279715 -2.26278 0
M  V30 10629 C 1011.48 0.577348 -1.50185 0
M  V30 10630 O 1012.67 0.425903 -1.71799 0
M  V30 10631 C 1009.8 0.526622 -3.39237 0
M  V30 10632 C 1008.88 -0.343112 -4.2271 0
M  V30 10633 N 1009.27 -1.43176 -4.85113 0
M  V30 10634 C 1007.57 -0.133744 -4.45799 0
M  V30 10635 C 1008.27 -1.96725 -5.47425 0
M  V30 10636 N 1007.25 -1.26569 -5.2866 0
M  V30 10637 H 1011.05 -1.11191 -2.72055 0
M  V30 10638 H 1008.57 -0.706372 -1.46233 0
M  V30 10639 H 1010.56 0.958587 -4.0573 0
M  V30 10640 H 1009.22 1.35655 -2.95005 0
M  V30 10641 H 1010.23 -1.81469 -4.85066 0
M  V30 10642 H 1006.91 0.661064 -4.12233 0
M  V30 10643 H 1008.3 -2.88006 -6.07044 0
M  V30 10644 N 1011.02 1.44971 -0.618145 0
M  V30 10645 C 1012.27 2.02159 -0.117482 0
M  V30 10646 C 1012.6 1.48517 1.2559 0
M  V30 10647 O 1011.85 0.654192 1.84442 0
M  V30 10648 C 1012.15 3.57378 -0.0394861 0
M  V30 10649 C 1011.82 4.30218 -1.34993 0
M  V30 10650 C 1010.48 4.49835 -1.70886 0
M  V30 10651 C 1012.83 4.71768 -2.21551 0
M  V30 10652 C 1010.16 5.08258 -2.9307 0
M  V30 10653 C 1012.51 5.31543 -3.42993 0
M  V30 10654 C 1011.17 5.49381 -3.79126 0
M  V30 10655 H 1010.44 0.739752 -0.0429897 0
M  V30 10656 H 1013.09 1.73903 -0.801871 0
M  V30 10657 H 1011.4 3.84973 0.728217 0
M  V30 10658 H 1013.09 3.99343 0.364213 0
M  V30 10659 H 1009.68 4.15271 -1.06057 0
M  V30 10660 H 1013.87 4.56336 -1.95117 0
M  V30 10661 H 1009.12 5.20257 -3.21158 0
M  V30 10662 H 1013.3 5.62691 -4.10308 0
M  V30 10663 H 1010.92 5.94419 -4.73888 0
M  V30 10664 N 1012.5 0.357919 1.53482 0
M  V30 10665 C 1013.41 -0.500273 2.29204 0
M  V30 10666 C 1014.42 -1.09936 1.3487 0
M  V30 10667 O 1015.6 -1.11195 1.67921 0
M  V30 10668 C 1012.67 -1.62828 3.06085 0
M  V30 10669 C 1011.73 -1.05751 4.16071 0
M  V30 10670 C 1010.96 -2.13176 4.89277 0
M  V30 10671 O 1011.18 -3.34153 4.62274 0
M  V30 10672 O 1010.12 -1.76663 5.7539 0
M  V30 10673 H 1013.94 0.115696 3.0348 0
M  V30 10674 H 1011.53 0.122527 1.48897 0
M  V30 10675 H 1013.41 -2.28427 3.54117 0
M  V30 10676 H 1012.08 -2.22979 2.34653 0
M  V30 10677 H 1010.99 -0.365642 3.72309 0
M  V30 10678 H 1012.32 -0.500661 4.89647 0
M  V30 10679 N 1013.98 -1.5736 0.0868897 0
M  V30 10680 C 1015.39 -1.81356 -0.443499 0
M  V30 10681 C 1015.74 -1.00192 -1.68689 0
M  V30 10682 O 1014.86 -0.228863 -2.15186 0
M  V30 10683 C 1015.46 -3.28941 -0.811387 0
M  V30 10684 C 1014.02 -3.53729 -1.28656 0
M  V30 10685 C 1013.16 -2.75891 -0.279153 0
M  V30 10686 H 1016.12 -1.55594 0.312427 0
M  V30 10687 H 1016.14 -3.41815 -1.6716 0
M  V30 10688 H 1015.65 -3.87987 0.0937598 0
M  V30 10689 H 1013.75 -3.00005 -2.2097 0
M  V30 10690 H 1013.86 -4.62396 -1.25406 0
M  V30 10691 H 1012.23 -2.4311 -0.759595 0
M  V30 10692 H 1013.01 -3.37682 0.618529 0
M  V30 10693 N 1015.45 0.186762 -1.56489 0
M  V30 10694 C 1016.73 0.932229 -1.71956 0
M  V30 10695 C 1017.11 2.01037 -0.644006 0
M  V30 10696 O 1016.46 2.259 0.343694 0
M  V30 10697 C 1016.67 1.51106 -3.14592 0
M  V30 10698 C 1018.02 1.98997 -3.75081 0
M  V30 10699 O 1019.04 1.60931 -3.17773 0
M  V30 10700 O 1017.9 2.69067 -4.75673 0
M  V30 10701 H 1014.99 0.437736 -0.701652 0
M  V30 10702 H 1017.54 0.175803 -1.68787 0
M  V30 10703 H 1016.31 0.734327 -3.84348 0
M  V30 10704 H 1015.94 2.33209 -3.22024 0
M  V30 10705 N 1016.93 1.50896 0.454776 0
M  V30 10706 C 1018.21 1.53227 1.21576 0
M  V30 10707 C 1018.59 0.286358 2.09149 0
M  V30 10708 O 1017.94 -0.729469 2.16543 0
M  V30 10709 C 1018.15 2.83693 2.03271 0
M  V30 10710 C 1019.5 3.34981 2.60908 0
M  V30 10711 O 1020.52 2.85126 2.13499 0
M  V30 10712 O 1019.38 4.21929 3.4733 0
M  V30 10713 H 1016.47 0.615306 0.552564 0
M  V30 10714 H 1019.02 1.63197 0.465266 0
M  V30 10715 H 1017.79 3.65839 1.38843 0
M  V30 10716 H 1017.41 2.76803 2.85422 0
M  V30 10717 N 1018.41 -0.709066 1.40748 0
M  V30 10718 C 1019.34 -1.83583 1.4429 0
M  V30 10719 C 1020.32 -1.67378 0.303067 0
M  V30 10720 O 1021.51 -1.87312 0.512612 0
M  V30 10721 C 1018.64 -3.21599 1.31116 0
M  V30 10722 C 1017.59 -3.52486 2.4277 0
M  V30 10723 C 1016.92 -4.89716 2.14668 0
M  V30 10724 C 1018.22 -3.52824 3.85113 0
M  V30 10725 H 1019.91 -1.80876 2.38588 0
M  V30 10726 H 1017.46 -0.868795 1.14839 0
M  V30 10727 H 1019.41 -4.00123 1.32209 0
M  V30 10728 H 1018.13 -3.24898 0.332965 0
M  V30 10729 H 1016.79 -2.76305 2.40937 0
M  V30 10730 H 1016.44 -4.89625 1.15224 0
M  V30 10731 H 1016.14 -5.11347 2.89478 0
M  V30 10732 H 1017.66 -5.70566 2.17455 0
M  V30 10733 H 1019.08 -4.21377 3.88734 0
M  V30 10734 H 1017.48 -3.85984 4.59496 0
M  V30 10735 H 1018.55 -2.52073 4.14231 0
M  V30 10736 N 1019.89 -1.26353 -0.941956 0
M  V30 10737 C 1021.14 -1.12017 -1.69056 0
M  V30 10738 C 1021.47 0.335856 -1.91274 0
M  V30 10739 O 1020.74 1.24677 -1.49285 0
M  V30 10740 C 1021.03 -1.88889 -3.06583 0
M  V30 10741 C 1020.88 -3.42394 -2.91696 0
M  V30 10742 C 1022.2 -1.68209 -4.06686 0
M  V30 10743 H 1019.32 -0.408311 -0.613556 0
M  V30 10744 H 1021.96 -1.55339 -1.09407 0
M  V30 10745 H 1020.11 -1.5207 -3.57501 0
M  V30 10746 H 1021.78 -3.88962 -2.48005 0
M  V30 10747 H 1020.02 -3.69459 -2.27338 0
M  V30 10748 H 1020.7 -3.91408 -3.89235 0
M  V30 10749 H 1023.17 -2.00286 -3.64726 0
M  V30 10750 H 1022.05 -2.24412 -5.00929 0
M  V30 10751 H 1022.31 -0.626474 -4.37639 0
M  V30 10752 N 1021.37 1.14642 -1.08144 0
M  V30 10753 C 1022.3 2.18656 -0.653066 0
M  V30 10754 C 1023.28 1.59137 0.333803 0
M  V30 10755 O 1024.46 1.86988 0.238305 0
M  V30 10756 C 1021.59 3.38677 0.0398337 0
M  V30 10757 C 1020.64 4.1675 -0.906755 0
M  V30 10758 S 1021.47 4.78103 -2.41201 0
M  V30 10759 C 1022.62 6.01483 -1.73115 0
M  V30 10760 H 1022.86 2.54654 -1.53423 0
M  V30 10761 H 1020.39 1.25731 -0.896162 0
M  V30 10762 H 1022.35 4.08206 0.43334 0
M  V30 10763 H 1021.01 3.01006 0.897457 0
M  V30 10764 H 1020.2 5.02649 -0.368795 0
M  V30 10765 H 1019.8 3.52809 -1.24103 0
M  V30 10766 H 1022.1 6.69353 -1.04752 0
M  V30 10767 H 1023.04 6.59863 -2.56878 0
M  V30 10768 H 1023.45 5.51474 -1.20566 0
M  V30 10769 N 1022.85 0.866709 1.31628 0
M  V30 10770 C 1024.09 0.475086 1.96437 0
M  V30 10771 C 1024.41 -0.975179 1.68865 0
M  V30 10772 O 1023.68 -1.68317 1.0023 0
M  V30 10773 H 1022.26 0.172695 0.726764 0
M  V30 10774 H 1024.93 1.10578 1.60494 0
M  V30 10775 H 1024.02 0.630123 3.05673 0
M  V30 10776 N 1024.32 -1.44642 0.625825 0
M  V30 10777 C 1025.55 -2.06159 0.13492 0
M  V30 10778 C 1025.96 -1.46801 -1.19357 0
M  V30 10779 O 1025.3 -0.583345 -1.74192 0
M  V30 10780 C 1025.37 -3.5945 -0.0598481 0
M  V30 10781 C 1025.03 -4.41244 1.18965 0
M  V30 10782 C 1026.03 -4.75064 2.11212 0
M  V30 10783 C 1023.71 -4.81705 1.42359 0
M  V30 10784 C 1025.71 -5.48221 3.25165 0
M  V30 10785 C 1023.39 -5.54612 2.5661 0
M  V30 10786 C 1024.39 -5.87789 3.4784 0
M  V30 10787 O 1024.08 -6.59213 4.60101 0
M  V30 10788 H 1023.81 -0.671888 0.0744464 0
M  V30 10789 H 1026.37 -1.86586 0.858775 0
M  V30 10790 H 1024.6 -3.77493 -0.838792 0
M  V30 10791 H 1026.28 -4.02751 -0.504639 0
M  V30 10792 H 1027.05 -4.44348 1.94371 0
M  V30 10793 H 1022.93 -4.55305 0.722401 0
M  V30 10794 H 1026.47 -5.74035 3.96396 0
M  V30 10795 H 1022.37 -5.84743 2.73396 0
M  V30 10796 H 1023.14 -6.77678 4.59015 0
M  V30 10797 N 1025.8 -0.366053 -1.5329 0
M  V30 10798 C 1026.76 0.467904 -2.24373 0
M  V30 10799 C 1027.76 1.00934 -1.25176 0
M  V30 10800 O 1028.95 0.895015 -1.49449 0
M  V30 10801 C 1026.09 1.65405 -2.98084 0
M  V30 10802 H 1027.28 -0.154105 -2.99504 0
M  V30 10803 H 1024.83 -0.117751 -1.55856 0
M  V30 10804 H 1025.57 2.31413 -2.27197 0
M  V30 10805 H 1025.35 1.27277 -3.70868 0
M  V30 10806 H 1026.84 2.24503 -3.52119 0
M  V30 10807 N 1027.28 1.57312 -0.0952337 0
M  V30 10808 C 1028.51 1.98409 0.575984 0
M  V30 10809 C 1028.92 0.973168 1.62253 0
M  V30 10810 O 1028.26 -0.0454416 1.83644 0
M  V30 10811 C 1028.32 3.35877 1.28167 0
M  V30 10812 C 1027.99 4.55368 0.385868 0
M  V30 10813 C 1028.98 5.1861 -0.366041 0
M  V30 10814 C 1026.67 5.0138 0.303885 0
M  V30 10815 C 1028.66 6.26233 -1.18791 0
M  V30 10816 C 1026.35 6.0887 -0.521637 0
M  V30 10817 C 1027.35 6.71161 -1.26618 0
M  V30 10818 O 1027.04 7.76577 -2.07804 0
M  V30 10819 H 1026.77 0.657018 0.159068 0
M  V30 10820 H 1029.32 2.04685 -0.171237 0
M  V30 10821 H 1027.55 3.26284 2.07547 0
M  V30 10822 H 1029.24 3.6142 1.84744 0
M  V30 10823 H 1030.01 4.83993 -0.312435 0
M  V30 10824 H 1025.89 4.52657 0.873065 0
M  V30 10825 H 1029.43 6.74784 -1.76955 0
M  V30 10826 H 1025.33 6.42918 -0.576722 0
M  V30 10827 H 1026.09 7.93566 -2.00489 0
M  V30 10828 N 1028.76 -0.17846 1.56586 0
M  V30 10829 C 1030.03 -0.923096 1.72448 0
M  V30 10830 C 1030.41 -2.00692 0.654659 0
M  V30 10831 O 1029.76 -2.26079 -0.33171 0
M  V30 10832 C 1029.97 -1.49435 3.15389 0
M  V30 10833 C 1031.32 -1.97005 3.76131 0
M  V30 10834 O 1032.34 -1.59244 3.18622 0
M  V30 10835 O 1031.2 -2.66541 4.77094 0
M  V30 10836 H 1028.3 -0.434009 0.703964 0
M  V30 10837 H 1030.84 -0.16685 1.68878 0
M  V30 10838 H 1029.62 -0.713933 3.84732 0
M  V30 10839 H 1029.24 -2.31498 3.23256 0
M  V30 10840 N 1030.24 -1.51135 -0.446768 0
M  V30 10841 C 1031.48 -1.63336 -1.19698 0
M  V30 10842 C 1031.81 -0.345099 -1.91414 0
M  V30 10843 O 1031.07 0.670365 -1.8386 0
M  V30 10844 C 1031.36 -2.78034 -2.2457 0
M  V30 10845 C 1031.03 -4.17652 -1.69934 0
M  V30 10846 C 1029.69 -4.55636 -1.54756 0
M  V30 10847 C 1032.04 -5.04813 -1.29665 0
M  V30 10848 C 1029.37 -5.78496 -0.977689 0
M  V30 10849 C 1031.72 -6.28244 -0.741112 0
M  V30 10850 C 1030.39 -6.65009 -0.576156 0
M  V30 10851 H 1029.66 -0.597689 -0.438006 0
M  V30 10852 H 1032.31 -1.85141 -0.48939 0
M  V30 10853 H 1030.61 -2.50413 -3.01331 0
M  V30 10854 H 1032.31 -2.84675 -2.8242 0
M  V30 10855 H 1028.9 -3.87699 -1.82722 0
M  V30 10856 H 1033.08 -4.76081 -1.40216 0
M  V30 10857 H 1028.34 -6.05636 -0.837563 0
M  V30 10858 H 1032.51 -6.95129 -0.42053 0
M  V30 10859 H 1030.14 -7.60085 -0.132443 0
M  V30 10860 N 1031.71 0.701592 -1.41122 0
M  V30 10861 C 1032.94 1.49049 -1.43499 0
M  V30 10862 C 1033.36 1.88761 -0.0385684 0
M  V30 10863 O 1032.71 1.56384 0.940755 0
M  V30 10864 C 1032.76 2.7569 -2.33832 0
M  V30 10865 O 1032.49 2.37653 -3.68039 0
M  V30 10866 C 1033.99 3.69479 -2.44949 0
M  V30 10867 H 1031.21 0.459519 -0.488961 0
M  V30 10868 H 1033.75 0.864318 -1.85337 0
M  V30 10869 H 1031.91 3.34559 -1.95318 0
M  V30 10870 H 1032.32 3.19241 -4.16156 0
M  V30 10871 H 1033.79 4.55139 -3.12334 0
M  V30 10872 H 1034.27 4.13553 -1.47887 0
M  V30 10873 H 1034.88 3.16517 -2.84072 0
M  V30 10874 N 1033.19 1.2685 0.935242 0
M  V30 10875 C 1034.44 1.12522 1.67878 0
M  V30 10876 C 1034.76 -0.330894 1.92172 0
M  V30 10877 O 1034.03 -1.23259 1.52263 0
M  V30 10878 H 1032.61 0.413418 0.622169 0
M  V30 10879 H 1035.27 1.59267 1.12339 0
M  V30 10880 H 1034.37 1.64853 2.65009 0
M  V30 10881 N 1034.67 -1.14067 1.0875 0
M  V30 10882 C 1035.95 -1.81389 0.73195 0
M  V30 10883 C 1036.33 -1.96005 -0.78391 0
M  V30 10884 O 1035.68 -1.52267 -1.70373 0
M  V30 10885 C 1035.89 -3.16858 1.46294 0
M  V30 10886 C 1037.23 -3.92305 1.62426 0
M  V30 10887 O 1038.26 -3.26459 1.42488 0
M  V30 10888 O 1037.12 -5.10393 1.9535 0
M  V30 10889 H 1034.21 -0.784354 0.262141 0
M  V30 10890 H 1036.76 -1.21054 1.18929 0
M  V30 10891 H 1035.53 -3.01404 2.49542 0
M  V30 10892 H 1035.15 -3.84889 0.997318 0
M  V30 10893 N 1036.15 -0.873678 -1.31166 0
M  V30 10894 C 1037.37 -0.500242 -2.01277 0
M  V30 10895 C 1037.8 0.900811 -1.65127 0
M  V30 10896 O 1037.16 1.59504 -0.861862 0
M  V30 10897 C 1037.2 -0.668976 -3.5434 0
M  V30 10898 O 1036.31 0.290096 -4.11378 0
M  V30 10899 H 1035.65 -0.198507 -0.633633 0
M  V30 10900 H 1038.18 -1.17811 -1.67277 0
M  V30 10901 H 1038.19 -0.563673 -4.04088 0
M  V30 10902 H 1036.86 -1.69055 -3.79991 0
M  V30 10903 H 1035.44 0.139437 -3.72639 0
M  V30 10904 N 1037.63 1.44308 -0.633487 0
M  V30 10905 C 1038.57 2.32455 0.0821956 0
M  V30 10906 C 1039.57 1.47482 0.833388 0
M  V30 10907 O 1040.77 1.63812 0.746021 0
M  V30 10908 H 1037.15 0.750631 0.045352 0
M  V30 10909 H 1039.12 2.90566 -0.679282 0
M  V30 10910 C 1037.87 3.31512 1.04858 0
M  V30 10911 H 1037.19 3.96908 0.479979 0
M  V30 10912 H 1038.63 3.95865 1.51879 0
M  V30 10913 C 1037.09 2.60615 2.13498 0
M  V30 10914 O 1037.62 2.40682 3.21613 0
M  V30 10915 N 1035.83 2.20315 1.89499 0
M  V30 10916 H 1035.37 2.36726 1.01581 0
M  V30 10917 H 1035.33 1.73205 2.62388 0
M  V30 10918 N 1039.1 0.374177 1.53094 0
M  V30 10919 C 1040.35 -0.213981 2.00562 0
M  V30 10920 C 1040.67 -1.4916 1.26533 0
M  V30 10921 O 1041.87 -2.15889 1.64634 0
M  V30 10922 C 1040.33 -0.431876 3.57299 0
M  V30 10923 C 1039.94 0.831615 4.40214 0
M  V30 10924 C 1041.68 -0.977222 4.13099 0
M  V30 10925 C 1039.59 0.582831 5.88521 0
M  V30 10926 H 1038.52 -0.0837386 0.749336 0
M  V30 10927 H 1041.17 0.494245 1.76719 0
M  V30 10928 H 1039.55 -1.20158 3.7733 0
M  V30 10929 H 1040.72 1.60477 4.31953 0
M  V30 10930 H 1039.04 1.30081 3.9556 0
M  V30 10931 H 1041.64 -1.17881 5.21544 0
M  V30 10932 H 1041.98 -1.94189 3.68234 0
M  V30 10933 H 1042.51 -0.267473 3.969 0
M  V30 10934 H 1039.25 1.51807 6.37679 0
M  V30 10935 H 1038.77 -0.151666 5.99608 0
M  V30 10936 H 1040.45 0.211604 6.46654 0
M  V30 10937 N 1040.58 -1.57259 0.103575 0
M  V30 10938 C 1041.81 -1.99424 -0.569638 0
M  V30 10939 C 1042.23 -0.982475 -1.60403 0
M  V30 10940 O 1041.59 0.0479231 -1.81237 0
M  V30 10941 C 1041.64 -3.40527 -1.18633 0
M  V30 10942 O 1040.74 -3.42167 -2.30208 0
M  V30 10943 H 1040.08 -0.648251 -0.143759 0
M  V30 10944 H 1042.61 -2.03739 0.187493 0
M  V30 10945 H 1042.62 -3.78404 -1.5256 0
M  V30 10946 H 1041.3 -4.13686 -0.428582 0
M  V30 10947 H 1039.88 -3.16093 -1.97837 0
M  V30 10948 N 1042.06 0.170153 -1.56679 0
M  V30 10949 C 1042.99 1.23945 -1.91606 0
M  V30 10950 C 1043.97 1.42725 -0.779004 0
M  V30 10951 O 1045.16 1.57712 -1.03243 0
M  V30 10952 C 1042.28 2.60222 -2.168 0
M  V30 10953 C 1041.33 2.58172 -3.39484 0
M  V30 10954 S 1042.16 2.0714 -4.93815 0
M  V30 10955 C 1043.32 3.45192 -5.22105 0
M  V30 10956 H 1043.55 0.941345 -2.82004 0
M  V30 10957 H 1041.08 0.374771 -1.49783 0
M  V30 10958 H 1043.04 3.38656 -2.31996 0
M  V30 10959 H 1041.7 2.87232 -1.27107 0
M  V30 10960 H 1040.9 3.58435 -3.54317 0
M  V30 10961 H 1040.5 1.87834 -3.2341 0
M  V30 10962 H 1042.79 4.41194 -5.14154 0
M  V30 10963 H 1043.73 3.35233 -6.23718 0
M  V30 10964 H 1044.14 3.41257 -4.49671 0
M  V30 10965 N 1043.54 1.5137 0.438746 0
M  V30 10966 C 1044.45 1.75424 1.55768 0
M  V30 10967 C 1045.46 0.638409 1.61865 0
M  V30 10968 O 1046.64 0.9205 1.79133 0
M  V30 10969 C 1043.71 1.87288 2.9176 0
M  V30 10970 C 1042.77 3.11137 2.95791 0
M  V30 10971 C 1042 3.22425 4.25297 0
M  V30 10972 O 1042.22 2.39688 5.17596 0
M  V30 10973 O 1041.16 4.15393 4.35583 0
M  V30 10974 H 1044.98 2.70339 1.38386 0
M  V30 10975 H 1042.57 1.35854 0.621609 0
M  V30 10976 H 1044.45 1.97085 3.72472 0
M  V30 10977 H 1043.12 0.955599 3.09273 0
M  V30 10978 H 1042.03 3.06819 2.1404 0
M  V30 10979 H 1043.36 4.02549 2.83223 0
M  V30 10980 N 1045.02 -0.694098 1.41492 0
M  V30 10981 C 1046.26 -1.46637 1.42398 0
M  V30 10982 C 1046.62 -1.91973 0.0321256 0
M  V30 10983 O 1047.82 -2.68669 -0.0840324 0
M  V30 10984 C 1046.09 -2.64474 2.40392 0
M  V30 10985 S 1047.65 -3.53595 2.59838 0
M  V30 10986 H 1044.47 -0.501074 0.504427 0
M  V30 10987 H 1047.07 -0.809761 1.77941 0
M  V30 10988 H 1045.78 -2.29374 3.40317 0
M  V30 10989 H 1045.31 -3.35026 2.06206 0
M  V30 10990 H 1047.32 -4.59741 1.86689 0
M  V30 10991 N 1046.49 -1.27344 -0.928501 0
M  V30 10992 C 1047.42 -1.12517 -2.04602 0
M  V30 10993 C 1048.41 -0.0268563 -1.70079 0
M  V30 10994 O 1049.59 -0.201197 -1.93155 0
M  V30 10995 C 1046.72 -0.770749 -3.3864 0
M  V30 10996 C 1045.67 -1.8222 -3.87272 0
M  V30 10997 C 1045 -1.32178 -5.18105 0
M  V30 10998 C 1046.3 -3.22614 -4.10752 0
M  V30 10999 H 1047.99 -2.06 -2.17265 0
M  V30 11000 H 1045.54 -0.991827 -1.04397 0
M  V30 11001 H 1047.49 -0.653843 -4.16297 0
M  V30 11002 H 1046.22 0.19979 -3.25988 0
M  V30 11003 H 1044.88 -1.928 -3.11807 0
M  V30 11004 H 1044.52 -0.340719 -5.01845 0
M  V30 11005 H 1044.22 -2.02474 -5.51614 0
M  V30 11006 H 1045.75 -1.2178 -5.98333 0
M  V30 11007 H 1047.16 -3.1504 -4.78981 0
M  V30 11008 H 1045.56 -3.90614 -4.55566 0
M  V30 11009 H 1046.63 -3.67727 -3.16077 0
M  V30 11010 N 1047.97 1.13488 -1.09353 0
M  V30 11011 C 1049.2 1.88592 -0.850915 0
M  V30 11012 C 1049.62 1.79087 0.597761 0
M  V30 11013 O 1048.97 1.15695 1.41142 0
M  V30 11014 C 1049.02 3.38219 -1.27633 0
M  V30 11015 O 1048.74 3.47476 -2.66819 0
M  V30 11016 C 1050.25 4.30293 -1.06598 0
M  V30 11017 H 1047.47 0.597069 -0.306185 0
M  V30 11018 H 1050.01 1.43668 -1.45533 0
M  V30 11019 H 1048.16 3.80729 -0.715828 0
M  V30 11020 H 1048.58 4.40485 -2.84733 0
M  V30 11021 H 1050.05 5.33611 -1.41293 0
M  V30 11022 H 1050.53 4.392 -0.0037135 0
M  V30 11023 H 1051.14 3.9355 -1.6124 0
M  V30 11024 N 1049.45 0.880621 1.30701 0
M  V30 11025 C 1050.7 0.495894 1.95922 0
M  V30 11026 C 1051.02 -0.957214 1.69889 0
M  V30 11027 O 1050.29 -1.67245 1.0201 0
M  V30 11028 H 1048.87 0.180394 0.724891 0
M  V30 11029 H 1051.53 1.12274 1.59313 0
M  V30 11030 H 1050.63 0.662508 3.04987 0
M  V30 11031 N 1050.93 -1.4397 0.641131 0
M  V30 11032 C 1052.18 -2.01163 0.147026 0
M  V30 11033 C 1052.49 -1.51099 -1.24211 0
M  V30 11034 O 1053.7 -2.00487 -1.83078 0
M  V30 11035 C 1052.15 -3.59275 0.212068 0
M  V30 11036 C 1051.76 -4.18334 1.60314 0
M  V30 11037 C 1053.51 -4.23903 -0.225057 0
M  V30 11038 C 1051.41 -5.68701 1.62276 0
M  V30 11039 H 1050.34 -0.75226 0.051201 0
M  V30 11040 H 1052.99 -1.65075 0.801396 0
M  V30 11041 H 1051.38 -3.92708 -0.509589 0
M  V30 11042 H 1052.55 -3.96422 2.34918 0
M  V30 11043 H 1050.86 -3.66031 1.9852 0
M  V30 11044 H 1053.46 -5.34205 -0.230074 0
M  V30 11045 H 1053.8 -3.96956 -1.25426 0
M  V30 11046 H 1054.34 -3.95309 0.44444 0
M  V30 11047 H 1051.08 -6.00397 2.63066 0
M  V30 11048 H 1050.6 -5.92705 0.919797 0
M  V30 11049 H 1052.28 -6.32521 1.36112 0
M  V30 11050 N 1052.41 -0.382291 -1.52893 0
M  V30 11051 C 1053.63 0.204961 -2.06385 0
M  V30 11052 C 1054.06 1.40316 -1.25271 0
M  V30 11053 O 1053.42 1.79187 -0.275969 0
M  V30 11054 C 1053.46 0.560205 -3.56222 0
M  V30 11055 O 1052.57 1.65515 -3.77728 0
M  V30 11056 H 1051.91 0.0258798 -0.663495 0
M  V30 11057 H 1054.44 -0.547733 -1.97132 0
M  V30 11058 H 1054.45 0.826501 -3.99541 0
M  V30 11059 H 1053.12 -0.31584 -4.14699 0
M  V30 11060 H 1051.7 1.38311 -3.46301 0
M  V30 11061 N 1053.89 1.57202 -0.111913 0
M  V30 11062 C 1055.12 1.99008 0.554907 0
M  V30 11063 C 1055.52 0.990323 1.61212 0
M  V30 11064 O 1054.87 -0.0259612 1.83682 0
M  V30 11065 C 1054.93 3.37218 1.24598 0
M  V30 11066 C 1054.59 4.55752 0.337549 0
M  V30 11067 C 1055.59 5.18192 -0.421026 0
M  V30 11068 C 1053.27 5.01674 0.25069 0
M  V30 11069 C 1055.27 6.24938 -1.25426 0
M  V30 11070 C 1052.96 6.08282 -0.586186 0
M  V30 11071 C 1053.95 6.6978 -1.3373 0
M  V30 11072 O 1053.64 7.7433 -2.16029 0
M  V30 11073 H 1053.37 0.658669 0.152091 0
M  V30 11074 H 1055.93 2.04492 -0.192937 0
M  V30 11075 H 1054.16 3.28467 2.04074 0
M  V30 11076 H 1055.85 3.63359 1.809 0
M  V30 11077 H 1056.61 4.83634 -0.363752 0
M  V30 11078 H 1052.49 4.53558 0.825005 0
M  V30 11079 H 1056.04 6.72869 -1.84102 0
M  V30 11080 H 1051.93 6.42271 -0.64488 0
M  V30 11081 H 1052.7 7.91395 -2.08894 0
M  V30 11082 N 1055.36 -0.161842 1.56767 0
M  V30 11083 C 1056.29 -1.20226 2.0017 0
M  V30 11084 C 1057.27 -1.4564 0.878807 0
M  V30 11085 O 1058.46 -1.56813 1.14557 0
M  V30 11086 C 1055.59 -2.53897 2.36968 0
M  V30 11087 C 1054.54 -2.43033 3.52305 0
M  V30 11088 C 1053.87 -3.81281 3.74872 0
M  V30 11089 C 1055.17 -1.927 4.85453 0
M  V30 11090 H 1056.86 -0.84142 2.87333 0
M  V30 11091 H 1054.41 -0.403309 1.38237 0
M  V30 11092 H 1056.36 -3.26893 2.6593 0
M  V30 11093 H 1055.09 -2.91787 1.46724 0
M  V30 11094 H 1053.75 -1.7249 3.23485 0
M  V30 11095 H 1053.39 -4.1658 2.81904 0
M  V30 11096 H 1053.09 -3.74877 4.52483 0
M  V30 11097 H 1054.62 -4.55848 4.06245 0
M  V30 11098 H 1056.03 -2.55477 5.13229 0
M  V30 11099 H 1054.43 -1.97222 5.66766 0
M  V30 11100 H 1055.5 -0.881816 4.76814 0
M  V30 11101 N 1056.84 -1.516 -0.430713 0
M  V30 11102 C 1057.77 -1.76342 -1.53054 0
M  V30 11103 C 1058.75 -0.61349 -1.58652 0
M  V30 11104 O 1059.94 -0.856888 -1.74273 0
M  V30 11105 C 1057.07 -1.8945 -2.91077 0
M  V30 11106 C 1056.02 -3.04928 -3.00339 0
M  V30 11107 C 1055.35 -3.03228 -4.40405 0
M  V30 11108 C 1056.65 -4.44777 -2.73808 0
M  V30 11109 H 1058.34 -2.68435 -1.326 0
M  V30 11110 H 1055.89 -1.29171 -0.636466 0
M  V30 11111 H 1057.84 -2.05343 -3.67984 0
M  V30 11112 H 1056.56 -0.940114 -3.12777 0
M  V30 11113 H 1055.22 -2.88751 -2.25872 0
M  V30 11114 H 1054.87 -2.05553 -4.59083 0
M  V30 11115 H 1054.57 -3.80776 -4.47531 0
M  V30 11116 H 1056.1 -3.21222 -5.19277 0
M  V30 11117 H 1057.51 -4.6127 -3.40445 0
M  V30 11118 H 1055.91 -5.2408 -2.92335 0
M  V30 11119 H 1056.98 -4.54358 -1.69372 0
M  V30 11120 N 1058.32 0.686584 -1.41858 0
M  V30 11121 C 1059.57 1.44379 -1.41418 0
M  V30 11122 C 1059.89 1.94981 -0.0273696 0
M  V30 11123 O 1059.16 1.72296 0.932248 0
M  V30 11124 H 1057.74 0.53574 -0.520568 0
M  V30 11125 H 1060.4 0.812056 -1.77177 0
M  V30 11126 H 1059.5 2.30258 -2.10684 0
M  V30 11127 N 1059.8 1.27835 0.921735 0
M  V30 11128 C 1061.21 1.05369 1.19873 0
M  V30 11129 C 1061.41 -0.208997 2.00413 0
M  V30 11130 O 1060.47 -0.912861 2.35421 0
M  V30 11131 C 1061.78 2.29658 1.94108 0
M  V30 11132 C 1063.33 2.34756 2.07023 0
M  V30 11133 C 1063.81 3.5879 2.84664 0
M  V30 11134 N 1065.3 3.59383 2.9223 0
M  V30 11135 C 1066.03 4.52029 3.52785 0
M  V30 11136 N 1065.53 5.54986 4.14683 0
M  V30 11137 N 1067.32 4.39641 3.50246 0
M  V30 11138 H 1059.47 2.08903 0.383819 0
M  V30 11139 H 1061.73 0.919065 0.232429 0
M  V30 11140 H 1061.44 3.21604 1.4235 0
M  V30 11141 H 1061.31 2.35444 2.94696 0
M  V30 11142 H 1063.7 1.43312 2.57965 0
M  V30 11143 H 1063.78 2.32969 1.05636 0
M  V30 11144 H 1063.43 4.50574 2.34404 0
M  V30 11145 H 1063.36 3.57829 3.86349 0
M  V30 11146 H 1065.85 2.84927 2.48244 0
M  V30 11147 H 1066.16 6.21837 4.58845 0
M  V30 11148 H 1064.51 5.58822 4.13211 0
M  V30 11149 H 1067.7 3.58413 3.01094 0
M  V30 11150 H 1067.87 5.12033 3.97148 0
M  V30 11151 N 1061.28 -1.12907 1.09954 0
M  V30 11152 C 1062.22 -2.20561 0.73863 0
M  V30 11153 C 1063.22 -1.67347 -0.262944 0
M  V30 11154 O 1064.42 -1.79574 -0.123834 0
M  V30 11155 H 1060.8 -0.718823 0.220901 0
M  V30 11156 H 1062.77 -2.4826 1.65559 0
M  V30 11157 C 1061.52 -3.47227 0.181239 0
M  V30 11158 H 1060.84 -3.88516 0.943144 0
M  V30 11159 H 1062.28 -4.23987 -0.0332888 0
M  V30 11160 C 1060.74 -3.18956 -1.08485 0
M  V30 11161 O 1061.27 -3.38224 -2.1672 0
M  V30 11162 N 1059.48 -2.72797 -1.00151 0
M  V30 11163 H 1059.02 -2.57317 -0.120645 0
M  V30 11164 H 1058.98 -2.54256 -1.84935 0
M  V30 11165 N 1062.75 -0.88754 -1.30232 0
M  V30 11166 C 1063.72 -0.361095 -2.26338 0
M  V30 11167 C 1064.72 0.497871 -1.52898 0
M  V30 11168 O 1065.91 0.30466 -1.71515 0
M  V30 11169 C 1063.04 0.485135 -3.3743 0
M  V30 11170 H 1064.23 -1.20973 -2.74419 0
M  V30 11171 H 1061.78 -0.664619 -1.41466 0
M  V30 11172 H 1062.52 1.35425 -2.9467 0
M  V30 11173 H 1062.3 -0.130173 -3.91884 0
M  V30 11174 H 1063.79 0.845169 -4.08958 0
M  V30 11175 N 1064.23 1.43628 -0.648757 0
M  V30 11176 C 1065.17 2.28001 0.0952198 0
M  V30 11177 C 1066.14 1.39569 0.834225 0
M  V30 11178 O 1067.33 1.69011 0.834711 0
M  V30 11179 C 1064.45 3.18886 1.14145 0
M  V30 11180 C 1063.5 4.23547 0.500996 0
M  V30 11181 S 1064.33 5.30609 -0.722118 0
M  V30 11182 C 1065.49 6.25062 0.323687 0
M  V30 11183 H 1065.72 2.90752 -0.620511 0
M  V30 11184 H 1063.26 1.48073 -0.437457 0
M  V30 11185 H 1065.21 3.71795 1.74008 0
M  V30 11186 H 1063.87 2.55322 1.82947 0
M  V30 11187 H 1063.07 4.87224 1.28954 0
M  V30 11188 H 1062.67 3.73993 -0.0234176 0
M  V30 11189 H 1064.96 6.66946 1.19118 0
M  V30 11190 H 1065.9 7.07554 -0.277939 0
M  V30 11191 H 1066.31 5.60658 0.657493 0
M  V30 11192 N 1065.71 0.390394 1.52688 0
M  V30 11193 C 1066.99 -0.249068 1.94008 0
M  V30 11194 C 1067.37 -1.64263 1.32593 0
M  V30 11195 O 1066.72 -2.23086 0.494448 0
M  V30 11196 C 1066.93 -0.274318 3.4792 0
M  V30 11197 C 1068.27 -0.502743 4.21613 0
M  V30 11198 O 1069.3 -0.35448 3.54432 0
M  V30 11199 O 1068.16 -0.79334 5.40711 0
M  V30 11200 H 1065.25 -0.155116 0.812323 0
M  V30 11201 H 1067.8 0.44498 1.63762 0
M  V30 11202 H 1066.57 0.701766 3.84956 0
M  V30 11203 H 1066.19 -1.01324 3.84473 0
M  V30 11204 N 1067.19 -1.57141 0.120249 0
M  V30 11205 C 1068.12 -2.12454 -0.859987 0
M  V30 11206 C 1069.13 -1.06755 -1.22911 0
M  V30 11207 O 1070.32 -1.34124 -1.17784 0
M  V30 11208 C 1067.42 -2.61024 -2.16147 0
M  V30 11209 C 1066.6 -3.90835 -1.96385 0
M  V30 11210 C 1065.65 -4.2499 -3.10274 0
M  V30 11211 O 1064.68 -4.93786 -2.83133 0
M  V30 11212 N 1065.88 -3.82411 -4.36741 0
M  V30 11213 H 1068.65 -2.97186 -0.387402 0
M  V30 11214 H 1066.21 -1.61773 -0.0641376 0
M  V30 11215 H 1068.2 -2.80903 -2.91334 0
M  V30 11216 H 1066.77 -1.81166 -2.5475 0
M  V30 11217 H 1065.99 -3.79853 -1.05383 0
M  V30 11218 H 1067.28 -4.75712 -1.80487 0
M  V30 11219 H 1066.68 -3.26926 -4.61666 0
M  V30 11220 H 1065.23 -4.07395 -5.08795 0
M  V30 11221 N 1068.67 0.153526 -1.5685 0
M  V30 11222 C 1069.89 0.886343 -1.87507 0
M  V30 11223 C 1070.32 1.74244 -0.708565 0
M  V30 11224 O 1069.67 1.78045 0.341997 0
M  V30 11225 C 1069.72 1.72428 -3.16703 0
M  V30 11226 O 1068.83 2.82784 -3.00178 0
M  V30 11227 H 1068.17 0.247259 -0.616246 0
M  V30 11228 H 1070.7 0.146306 -2.04076 0
M  V30 11229 H 1070.71 2.12062 -3.4856 0
M  V30 11230 H 1069.38 1.09558 -4.01211 0
M  V30 11231 H 1067.96 2.46604 -2.79716 0
M  V30 11232 N 1070.14 1.51827 0.422667 0
M  V30 11233 C 1071.37 1.68803 1.19117 0
M  V30 11234 C 1071.78 0.391228 1.85111 0
M  V30 11235 O 1071.13 -0.64148 1.72136 0
M  V30 11236 C 1071.19 2.75767 2.30636 0
M  V30 11237 C 1070.85 4.17929 1.8489 0
M  V30 11238 C 1071.85 5.02223 1.34416 0
M  V30 11239 C 1069.53 4.641 1.92136 0
M  V30 11240 C 1071.53 6.30756 0.917925 0
M  V30 11241 C 1069.21 5.92626 1.49123 0
M  V30 11242 C 1070.21 6.75782 0.990352 0
M  V30 11243 O 1069.9 8.01902 0.566386 0
M  V30 11244 H 1069.63 0.569303 0.364514 0
M  V30 11245 H 1072.19 1.9909 0.505208 0
M  V30 11246 H 1070.42 2.40827 3.02555 0
M  V30 11247 H 1072.11 2.81476 2.92448 0
M  V30 11248 H 1072.87 4.67749 1.28202 0
M  V30 11249 H 1068.75 3.99488 2.30066 0
M  V30 11250 H 1072.29 6.95612 0.52628 0
M  V30 11251 H 1068.19 6.26611 1.55012 0
M  V30 11252 H 1068.96 8.15579 0.690918 0
M  V30 11253 N 1071.62 -0.679052 1.4222 0
M  V30 11254 C 1072.87 -1.44125 1.42674 0
M  V30 11255 C 1073.2 -1.94156 0.041438 0
M  V30 11256 O 1072.48 -1.70628 -0.93361 0
M  V30 11257 C 1072.76 -2.64133 2.44756 0
M  V30 11258 C 1072.61 -2.19761 3.9246 0
M  V30 11259 C 1073.93 -3.66347 2.43881 0
M  V30 11260 H 1071.05 -0.522729 0.519541 0
M  V30 11261 H 1073.69 -0.772067 1.73606 0
M  V30 11262 H 1071.84 -3.21225 2.1851 0
M  V30 11263 H 1073.51 -1.67869 4.29671 0
M  V30 11264 H 1071.76 -1.51377 4.06531 0
M  V30 11265 H 1072.43 -3.05944 4.59459 0
M  V30 11266 H 1074.9 -3.18963 2.67211 0
M  V30 11267 H 1073.78 -4.47902 3.17293 0
M  V30 11268 H 1074.04 -4.17183 1.46325 0
M  V30 11269 N 1073.1 -1.28322 -0.914942 0
M  V30 11270 C 1074.33 -1.18254 -1.69775 0
M  V30 11271 C 1074.74 0.258978 -1.87015 0
M  V30 11272 O 1074.1 1.17514 -1.3963 0
M  V30 11273 C 1074.15 -1.8753 -3.09054 0
M  V30 11274 O 1073.87 -3.26051 -2.92613 0
M  V30 11275 C 1075.37 -1.83749 -4.03424 0
M  V30 11276 H 1072.59 -0.41055 -0.530744 0
M  V30 11277 H 1075.14 -1.69425 -1.14523 0
M  V30 11278 H 1073.29 -1.40233 -3.61128 0
M  V30 11279 H 1073.71 -3.60729 -3.80756 0
M  V30 11280 H 1075.18 -2.36813 -4.98622 0
M  V30 11281 H 1075.66 -0.809601 -4.31674 0
M  V30 11282 H 1076.26 -2.3072 -3.57279 0
M  V30 11283 N 1074.58 1.12322 -1.10551 0
M  V30 11284 C 1075.83 1.83495 -0.846998 0
M  V30 11285 C 1076.15 1.8457 0.629205 0
M  V30 11286 O 1075.42 1.30968 1.45686 0
M  V30 11287 H 1074 0.679479 -0.310351 0
M  V30 11288 H 1076.66 1.36004 -1.39602 0
M  V30 11289 H 1075.76 2.87651 -1.21092 0
M  V30 11290 N 1076.06 0.894434 1.2976 0
M  V30 11291 C 1077.29 0.532143 1.99629 0
M  V30 11292 C 1077.69 -0.886234 1.6716 0
M  V30 11293 O 1077.04 -1.59573 0.910065 0
M  V30 11294 C 1077.1 0.638335 3.53787 0
M  V30 11295 C 1076.76 2.02273 4.09798 0
M  V30 11296 C 1077.76 2.99327 4.25087 0
M  V30 11297 C 1075.45 2.33069 4.44954 0
M  V30 11298 C 1077.44 4.25304 4.74758 0
M  V30 11299 C 1075.13 3.59289 4.94322 0
M  V30 11300 C 1076.12 4.55222 5.09178 0
M  V30 11301 O 1075.81 5.79202 5.57477 0
M  V30 11302 H 1075.54 0.203326 0.644697 0
M  V30 11303 H 1078.1 1.2043 1.6639 0
M  V30 11304 H 1076.33 -0.0908338 3.86593 0
M  V30 11305 H 1078.02 0.285956 4.04891 0
M  V30 11306 H 1078.78 2.76849 3.9822 0
M  V30 11307 H 1074.66 1.59162 4.32653 0
M  V30 11308 H 1078.21 5.00189 4.86269 0
M  V30 11309 H 1074.1 3.816 5.20626 0
M  V30 11310 H 1074.87 5.81717 5.75802 0
M  V30 11311 N 1077.53 -1.43282 0.656365 0
M  V30 11312 C 1078.78 -2.01378 0.170702 0
M  V30 11313 C 1079.1 -1.52063 -1.22073 0
M  V30 11314 O 1078.37 -0.73456 -1.81607 0
M  V30 11315 H 1076.95 -0.744577 0.0601168 0
M  V30 11316 H 1079.62 -1.75449 0.848739 0
M  V30 11317 H 1078.71 -3.11701 0.157745 0
M  V30 11318 N 1079.01 -0.398486 -1.52479 0
M  V30 11319 C 1079.92 0.439328 -2.3045 0
M  V30 11320 C 1080.94 1.06322 -1.37738 0
M  V30 11321 O 1082.12 1.06704 -1.7081 0
M  V30 11322 C 1079.18 1.54655 -3.10294 0
M  V30 11323 C 1078.24 0.946824 -4.18729 0
M  V30 11324 C 1077.47 2.00129 -4.94757 0
M  V30 11325 O 1077.7 3.2178 -4.70971 0
M  V30 11326 O 1076.63 1.61345 -5.79872 0
M  V30 11327 H 1080.46 -0.196118 -3.03066 0
M  V30 11328 H 1078.04 -0.161961 -1.4852 0
M  V30 11329 H 1079.92 2.18958 -3.60049 0
M  V30 11330 H 1078.6 2.1668 -2.40482 0
M  V30 11331 H 1077.51 0.266802 -3.73147 0
M  V30 11332 H 1078.84 0.370664 -4.90802 0
M  V30 11333 N 1080.49 1.57075 -0.12858 0
M  V30 11334 C 1081.91 1.57964 0.227961 0
M  V30 11335 C 1082.11 1.14186 1.66023 0
M  V30 11336 O 1081.16 0.833655 2.38341 0
M  V30 11337 C 1082.48 3.00697 -0.0140648 0
M  V30 11338 C 1084.02 3.12958 0.0510876 0
M  V30 11339 C 1084.5 4.57709 -0.163368 0
M  V30 11340 N 1085.99 4.6307 -0.109663 0
M  V30 11341 C 1086.73 5.72853 -0.250366 0
M  V30 11342 N 1086.22 6.91351 -0.447772 0
M  V30 11343 N 1088.01 5.61781 -0.189265 0
M  V30 11344 H 1080.17 1.83829 -1.06398 0
M  V30 11345 H 1082.43 0.850014 -0.419739 0
M  V30 11346 H 1082.13 3.37047 -1.00461 0
M  V30 11347 H 1082.01 3.70389 0.713571 0
M  V30 11348 H 1084.4 2.7646 1.03216 0
M  V30 11349 H 1084.48 2.4579 -0.708583 0
M  V30 11350 H 1084.12 4.94907 -1.14146 0
M  V30 11351 H 1084.05 5.2298 0.616405 0
M  V30 11352 H 1086.54 3.7788 0.0390086 0
M  V30 11353 H 1086.85 7.70871 -0.54574 0
M  V30 11354 H 1085.2 6.93314 -0.483866 0
M  V30 11355 H 1088.39 4.68086 -0.0359374 0
M  V30 11356 H 1088.56 6.47294 -0.302359 0
M  V30 11357 N 1081.97 -0.145205 1.5693 0
M  V30 11358 C 1083.38 -0.705089 1.72874 0
M  V30 11359 C 1083.73 -1.81577 0.743261 0
M  V30 11360 O 1082.86 -2.16214 -0.0897153 0
M  V30 11361 C 1083.45 -1.28578 3.13454 0
M  V30 11362 C 1082.01 -1.79221 3.30994 0
M  V30 11363 C 1081.16 -0.681392 2.68798 0
M  V30 11364 H 1084.11 0.0804798 1.58496 0
M  V30 11365 H 1084.13 -2.15558 3.13552 0
M  V30 11366 H 1083.64 -0.477186 3.85155 0
M  V30 11367 H 1081.74 -2.62642 2.64292 0
M  V30 11368 H 1081.86 -1.91969 4.38959 0
M  V30 11369 H 1080.22 -1.10847 2.29314 0
M  V30 11370 H 1081 0.115786 3.43105 0
M  V30 11371 N 1083.45 -1.52049 -0.414609 0
M  V30 11372 C 1084.38 -1.77956 -1.51175 0
M  V30 11373 C 1085.36 -0.630282 -1.57992 0
M  V30 11374 O 1086.54 -0.875324 -1.73354 0
M  V30 11375 C 1083.67 -1.92527 -2.89051 0
M  V30 11376 C 1082.63 -3.08096 -2.97087 0
M  V30 11377 C 1081.95 -3.07882 -4.37164 0
M  V30 11378 C 1083.25 -4.47656 -2.69075 0
M  V30 11379 H 1084.95 -2.69827 -1.29746 0
M  V30 11380 H 1082.49 -1.29839 -0.62273 0
M  V30 11381 H 1084.45 -2.09234 -3.65786 0
M  V30 11382 H 1083.17 -0.973235 -3.11762 0
M  V30 11383 H 1081.83 -2.91131 -2.22797 0
M  V30 11384 H 1081.48 -2.10411 -4.56877 0
M  V30 11385 H 1081.18 -3.85501 -4.43467 0
M  V30 11386 H 1082.7 -3.26712 -5.15841 0
M  V30 11387 H 1084.12 -4.64855 -3.35534 0
M  V30 11388 H 1082.51 -5.27151 -2.8676 0
M  V30 11389 H 1083.58 -4.56129 -1.64544 0
M  V30 11390 N 1084.93 0.6715 -1.42579 0
M  V30 11391 C 1085.86 1.79703 -1.42266 0
M  V30 11392 C 1086.87 1.59599 -0.321268 0
M  V30 11393 O 1088.06 1.68657 -0.584564 0
M  V30 11394 C 1085.16 3.16859 -1.20224 0
M  V30 11395 C 1084.33 3.63783 -2.42859 0
M  V30 11396 C 1083.39 4.79683 -2.16312 0
M  V30 11397 O 1082.42 4.90058 -2.89537 0
M  V30 11398 N 1083.62 5.68622 -1.16831 0
M  V30 11399 H 1086.38 1.80455 -2.39282 0
M  V30 11400 H 1083.95 0.854708 -1.375 0
M  V30 11401 H 1085.94 3.92054 -1.00376 0
M  V30 11402 H 1084.51 3.10987 -0.317188 0
M  V30 11403 H 1083.73 2.7923 -2.78252 0
M  V30 11404 H 1085.02 3.91877 -3.24514 0
M  V30 11405 H 1084.41 5.62894 -0.562746 0
M  V30 11406 H 1082.97 6.43615 -1.0297 0
M  V30 11407 N 1086.4 1.28806 0.908124 0
M  V30 11408 C 1087.35 1.13083 2.03261 0
M  V30 11409 C 1088.35 0.0486094 1.6933 0
M  V30 11410 O 1089.55 0.207794 1.78797 0
M  V30 11411 H 1085.93 0.349057 0.666081 0
M  V30 11412 H 1087.9 2.08304 2.13663 0
M  V30 11413 C 1086.65 0.815339 3.38005 0
M  V30 11414 H 1085.97 1.64007 3.64612 0
M  V30 11415 H 1087.41 0.745311 4.17398 0
M  V30 11416 C 1085.87 -0.48113 3.33447 0
M  V30 11417 O 1086.4 -1.50974 3.7225 0
M  V30 11418 N 1084.6 -0.483912 2.86543 0
M  V30 11419 H 1084.15 0.353593 2.55162 0
M  V30 11420 H 1084.11 -1.35138 2.83875 0
M  V30 11421 N 1087.88 -1.11734 1.11145 0
M  V30 11422 C 1089.29 -1.64928 0.874959 0
M  V30 11423 C 1089.64 -1.87012 -0.593375 0
M  V30 11424 O 1088.77 -1.60206 -1.45475 0
M  V30 11425 C 1089.36 -2.99608 1.58178 0
M  V30 11426 C 1087.92 -3.49723 1.39179 0
M  V30 11427 C 1087.07 -2.24595 1.62642 0
M  V30 11428 H 1090.02 -0.954154 1.26813 0
M  V30 11429 H 1090.04 -3.66434 1.02501 0
M  V30 11430 H 1089.55 -2.83504 2.65042 0
M  V30 11431 H 1087.65 -3.70998 0.345111 0
M  V30 11432 H 1087.77 -4.28711 2.13878 0
M  V30 11433 H 1086.13 -2.32067 1.04961 0
M  V30 11434 H 1086.91 -2.11036 2.70774 0
M  V30 11435 N 1089.36 -0.901303 -1.29284 0
M  V30 11436 C 1090.31 -0.351562 -2.25273 0
M  V30 11437 C 1091.29 0.529276 -1.51946 0
M  V30 11438 O 1092.49 0.371031 -1.73068 0
M  V30 11439 C 1089.61 0.41843 -3.4074 0
M  V30 11440 C 1088.7 -0.47742 -4.21404 0
M  V30 11441 N 1089.09 -1.58537 -4.80312 0
M  V30 11442 C 1087.39 -0.275504 -4.45148 0
M  V30 11443 C 1088.09 -2.14041 -5.40889 0
M  V30 11444 N 1087.07 -1.43324 -5.24365 0
M  V30 11445 H 1090.87 -1.1979 -2.68379 0
M  V30 11446 H 1088.38 -0.752538 -1.43912 0
M  V30 11447 H 1090.38 0.829022 -4.08574 0
M  V30 11448 H 1089.04 1.26201 -2.99171 0
M  V30 11449 H 1090.05 -1.96809 -4.79047 0
M  V30 11450 H 1086.73 0.529581 -4.14128 0
M  V30 11451 H 1088.12 -3.07173 -5.97574 0
M  V30 11452 N 1090.84 1.42931 -0.663954 0
M  V30 11453 C 1092.11 1.95284 -0.111174 0
M  V30 11454 C 1092.49 1.60484 1.37142 0
M  V30 11455 O 1091.84 0.895425 2.10225 0
M  V30 11456 C 1092.05 3.47046 -0.368789 0
M  V30 11457 C 1093.4 4.23679 -0.279473 0
M  V30 11458 O 1094.42 3.54918 -0.301937 0
M  V30 11459 O 1093.28 5.46087 -0.21236 0
M  V30 11460 H 1090.38 0.826993 0.00341718 0
M  V30 11461 H 1092.92 1.52816 -0.737935 0
M  V30 11462 H 1091.7 3.65541 -1.39626 0
M  V30 11463 H 1091.32 3.96537 0.290514 0
M  V30 11464 N 1092.32 0.406567 1.52266 0
M  V30 11465 C 1093.73 0.0573228 1.59497 0
M  V30 11466 C 1093.93 -1.43005 1.41957 0
M  V30 11467 O 1092.99 -2.19659 1.24523 0
M  V30 11468 C 1094.3 0.549947 2.95628 0
M  V30 11469 C 1095.85 0.5077 3.08855 0
M  V30 11470 C 1096.32 0.976792 4.47463 0
M  V30 11471 N 1097.81 0.933508 4.53696 0
M  V30 11472 C 1098.55 1.26769 5.59211 0
M  V30 11473 N 1098.05 1.6732 6.72292 0
M  V30 11474 N 1099.84 1.18782 5.49406 0
M  V30 11475 H 1091.99 1.37468 1.61914 0
M  V30 11476 H 1094.25 0.564562 0.76156 0
M  V30 11477 H 1093.96 1.58943 3.13736 0
M  V30 11478 H 1093.83 -0.0417767 3.77177 0
M  V30 11479 H 1096.22 -0.522728 2.90433 0
M  V30 11480 H 1096.3 1.13545 2.29219 0
M  V30 11481 H 1095.94 2.00554 4.66627 0
M  V30 11482 H 1095.87 0.325885 5.25591 0
M  V30 11483 H 1098.37 0.635333 3.72521 0
M  V30 11484 H 1098.68 1.91137 7.4879 0
M  V30 11485 H 1097.02 1.71221 6.73579 0
M  V30 11486 H 1100.21 0.869906 4.59946 0
M  V30 11487 H 1100.39 1.45157 6.31533 0
M  V30 11488 N 1093.79 -1.57004 0.136909 0
M  V30 11489 C 1095.04 -1.95797 -0.516711 0
M  V30 11490 C 1095.37 -1.02123 -1.65533 0
M  V30 11491 O 1094.62 -0.0484835 -1.9564 0
M  V30 11492 C 1094.92 -3.40903 -1.07331 0
M  V30 11493 C 1094.59 -4.50867 -0.0541941 0
M  V30 11494 C 1093.25 -4.80669 0.225988 0
M  V30 11495 C 1095.6 -5.17264 0.639361 0
M  V30 11496 C 1092.93 -5.74177 1.2057 0
M  V30 11497 C 1095.28 -6.11827 1.60783 0
M  V30 11498 C 1093.95 -6.40012 1.89581 0
M  V30 11499 H 1093.22 -0.716471 -0.189078 0
M  V30 11500 H 1095.86 -1.90213 0.221605 0
M  V30 11501 H 1094.17 -3.43268 -1.88876 0
M  V30 11502 H 1095.87 -3.6824 -1.58745 0
M  V30 11503 H 1092.46 -4.27666 -0.282754 0
M  V30 11504 H 1096.64 -4.9438 0.436085 0
M  V30 11505 H 1091.9 -5.94312 1.43538 0
M  V30 11506 H 1096.07 -6.62354 2.15081 0
M  V30 11507 H 1093.7 -7.12274 2.65649 0
M  V30 11508 N 1095.27 0.136881 -1.57004 0
M  V30 11509 C 1096.52 0.844147 -1.85056 0
M  V30 11510 C 1096.87 1.78328 -0.722278 0
M  V30 11511 O 1096.17 1.89557 0.279059 0
M  V30 11512 C 1096.36 1.64711 -3.17183 0
M  V30 11513 C 1096.19 0.787229 -4.42756 0
M  V30 11514 C 1094.96 0.448938 -5.03302 0
M  V30 11515 C 1097.16 0.112947 -5.14176 0
M  V30 11516 N 1095.14 -0.423481 -6.12438 0
M  V30 11517 C 1096.51 -0.619195 -6.169 0
M  V30 11518 C 1098.57 0.0346687 -4.97888 0
M  V30 11519 C 1097.27 -1.42224 -7.05099 0
M  V30 11520 C 1099.29 -0.755143 -5.86559 0
M  V30 11521 C 1098.66 -1.47553 -6.88772 0
M  V30 11522 H 1094.76 0.286398 -0.727668 0
M  V30 11523 H 1097.34 0.108903 -1.94395 0
M  V30 11524 H 1095.51 2.35352 -3.08972 0
M  V30 11525 H 1097.24 2.29833 -3.33105 0
M  V30 11526 H 1094 0.787068 -4.67014 0
M  V30 11527 H 1094.42 -0.851013 -6.7163 0
M  V30 11528 H 1099.06 0.577271 -4.18841 0
M  V30 11529 H 1096.78 -1.97606 -7.83567 0
M  V30 11530 H 1100.37 -0.817835 -5.76023 0
M  V30 11531 H 1099.25 -2.07687 -7.56198 0
M  V30 11532 N 1096.75 1.52266 0.40654 0
M  V30 11533 C 1097.98 1.70304 1.17491 0
M  V30 11534 C 1098.39 0.413656 1.84213 0
M  V30 11535 O 1097.75 -0.610524 1.71985 0
M  V30 11536 C 1097.8 2.84045 2.23609 0
M  V30 11537 O 1097.52 4.0799 1.5961 0
M  V30 11538 C 1099.02 3.13614 3.13306 0
M  V30 11539 H 1096.24 0.570669 0.352955 0
M  V30 11540 H 1098.79 1.98836 0.477967 0
M  V30 11541 H 1096.94 2.58025 2.88967 0
M  V30 11542 H 1097.36 4.7139 2.29983 0
M  V30 11543 H 1098.83 3.96707 3.83833 0
M  V30 11544 H 1099.31 2.27272 3.75824 0
M  V30 11545 H 1099.91 3.41409 2.53614 0
M  V30 11546 N 1098.23 -0.663929 1.42933 0
M  V30 11547 C 1099.64 -1.24484 1.39143 0
M  V30 11548 C 1099.99 -1.95993 0.0901142 0
M  V30 11549 O 1099.12 -2.00636 -0.810812 0
M  V30 11550 C 1099.71 -2.26402 2.52047 0
M  V30 11551 C 1098.27 -2.79995 2.51555 0
M  V30 11552 C 1097.42 -1.54475 2.30289 0
M  V30 11553 H 1100.37 -0.456619 1.51989 0
M  V30 11554 H 1100.39 -3.08361 2.22921 0
M  V30 11555 H 1099.9 -1.74328 3.46744 0
M  V30 11556 H 1098 -3.36161 1.60707 0
M  V30 11557 H 1098.11 -3.2827 3.48964 0
M  V30 11558 H 1096.48 -1.81437 1.78753 0
M  V30 11559 H 1097.26 -1.04351 3.27056 0
M  V30 11560 N 1099.71 -1.29285 -0.901281 0
M  V30 11561 C 1100.64 -1.10086 -2.01032 0
M  V30 11562 C 1101.65 -0.0488364 -1.62727 0
M  V30 11563 O 1102.84 -0.293194 -1.76076 0
M  V30 11564 C 1099.94 -0.653357 -3.32542 0
M  V30 11565 C 1099.11 -1.78355 -3.99385 0
M  V30 11566 C 1098.17 -1.32733 -5.09184 0
M  V30 11567 O 1097.2 -2.03177 -5.31703 0
M  V30 11568 N 1098.4 -0.197345 -5.80164 0
M  V30 11569 H 1101.17 -2.056 -2.18057 0
M  V30 11570 H 1098.73 -1.21204 -1.07337 0
M  V30 11571 H 1100.72 -0.331491 -4.0334 0
M  V30 11572 H 1099.29 0.209278 -3.11899 0
M  V30 11573 H 1098.51 -2.27438 -3.21972 0
M  V30 11574 H 1099.8 -2.54137 -4.40785 0
M  V30 11575 H 1099.19 0.390011 -5.64354 0
M  V30 11576 H 1097.75 0.0651642 -6.51767 0
M  V30 11577 N 1101.18 1.11143 -1.11736 0
M  V30 11578 C 1102.41 1.86745 -0.890727 0
M  V30 11579 C 1102.83 1.80315 0.55964 0
M  V30 11580 O 1102.18 1.18663 1.38656 0
M  V30 11581 C 1102.24 3.35436 -1.34779 0
M  V30 11582 O 1101.96 3.41738 -2.74129 0
M  V30 11583 C 1103.46 4.27935 -1.15702 0
M  V30 11584 H 1100.68 0.59044 -0.318781 0
M  V30 11585 H 1103.22 1.40549 -1.48547 0
M  V30 11586 H 1101.38 3.79125 -0.796425 0
M  V30 11587 H 1101.79 4.34347 -2.94012 0
M  V30 11588 H 1103.26 5.30494 -1.52579 0
M  V30 11589 H 1103.74 4.39093 -0.0968735 0
M  V30 11590 H 1104.35 3.90042 -1.69551 0
M  V30 11591 N 1102.66 0.908147 1.28804 0
M  V30 11592 C 1103.89 0.553431 1.9988 0
M  V30 11593 C 1104.31 -0.856714 1.67458 0
M  V30 11594 O 1103.67 -1.57163 0.903849 0
M  V30 11595 C 1103.72 0.762688 3.52442 0
M  V30 11596 O 1102.82 -0.180924 4.12003 0
M  V30 11597 H 1102.16 0.215237 0.628147 0
M  V30 11598 H 1104.69 1.22205 1.64095 0
M  V30 11599 H 1104.7 0.670612 4.02451 0
M  V30 11600 H 1103.38 1.79071 3.75375 0
M  V30 11601 H 1101.96 -0.0405897 3.72878 0
M  V30 11602 N 1104.14 -1.42577 0.671525 0
M  V30 11603 C 1105.09 -2.30798 -0.00883676 0
M  V30 11604 C 1106.06 -1.4578 -0.796076 0
M  V30 11605 O 1107.24 -1.74617 -0.768987 0
M  V30 11606 C 1104.38 -3.31581 -0.956452 0
M  V30 11607 C 1103.5 -4.31691 -0.163381 0
M  V30 11608 C 1102.63 -5.19549 -1.10645 0
M  V30 11609 C 1101.67 -6.1134 -0.304876 0
M  V30 11610 N 1100.81 -6.91761 -1.20048 0
M  V30 11611 H 1105.65 -2.88426 0.749301 0
M  V30 11612 H 1103.18 -1.42074 0.381251 0
M  V30 11613 H 1105.14 -3.88539 -1.51966 0
M  V30 11614 H 1103.77 -2.75561 -1.68126 0
M  V30 11615 H 1102.82 -3.76879 0.516396 0
M  V30 11616 H 1104.14 -4.96683 0.459099 0
M  V30 11617 H 1103.29 -5.81223 -1.73969 0
M  V30 11618 H 1102.03 -4.54726 -1.76282 0
M  V30 11619 H 1101.03 -5.48738 0.341597 0
M  V30 11620 H 1102.26 -6.78211 0.347352 0
M  V30 11621 H 1100.2 -6.2957 -1.84331 0
M  V30 11622 H 1100.12 -7.53345 -0.633003 0
M  V30 11623 H 1101.39 -7.57924 -1.82129 0
M  V30 11624 N 1105.62 -0.414636 -1.52048 0
M  V30 11625 C 1107.03 -0.0657806 -1.59464 0
M  V30 11626 C 1107.23 1.4225 -1.42713 0
M  V30 11627 O 1106.29 2.18996 -1.25687 0
M  V30 11628 C 1107.6 -0.565618 -2.95332 0
M  V30 11629 C 1109.15 -0.524072 -3.08581 0
M  V30 11630 C 1109.63 -1.00051 -4.46938 0
M  V30 11631 N 1111.12 -0.957555 -4.53194 0
M  V30 11632 C 1111.85 -1.29733 -5.58531 0
M  V30 11633 N 1111.35 -1.70883 -6.71395 0
M  V30 11634 N 1113.14 -1.21694 -5.48769 0
M  V30 11635 H 1105.29 -1.38325 -1.61183 0
M  V30 11636 H 1107.56 -0.568593 -0.758556 0
M  V30 11637 H 1107.26 -1.60604 -3.12888 0
M  V30 11638 H 1107.14 0.0217735 -3.77194 0
M  V30 11639 H 1109.52 0.507319 -2.90707 0
M  V30 11640 H 1109.6 -1.14759 -2.28613 0
M  V30 11641 H 1109.25 -2.03025 -4.65557 0
M  V30 11642 H 1109.18 -0.353754 -5.2541 0
M  V30 11643 H 1111.67 -0.65508 -3.72179 0
M  V30 11644 H 1111.98 -1.95105 -7.47766 0
M  V30 11645 H 1110.33 -1.74791 -6.72661 0
M  V30 11646 H 1113.52 -0.894286 -4.59478 0
M  V30 11647 H 1113.69 -1.48504 -6.30754 0
M  V30 11648 N 1107.1 1.56929 -0.145233 0
M  V30 11649 C 1108.34 1.96068 0.50632 0
M  V30 11650 C 1108.67 1.02999 1.64989 0
M  V30 11651 O 1107.93 0.0588581 1.95611 0
M  V30 11652 C 1108.23 3.41467 1.05522 0
M  V30 11653 C 1107.89 4.5089 0.0302827 0
M  V30 11654 C 1106.55 4.80542 -0.251475 0
M  V30 11655 C 1108.91 5.16917 -0.666783 0
M  V30 11656 C 1106.23 5.7353 -1.23614 0
M  V30 11657 C 1108.59 6.10965 -1.64025 0
M  V30 11658 C 1107.25 6.38998 -1.92973 0
M  V30 11659 H 1106.52 0.717464 0.185276 0
M  V30 11660 H 1109.17 1.90093 -0.23169 0
M  V30 11661 H 1107.47 3.44265 1.87053 0
M  V30 11662 H 1109.17 3.69077 1.5679 0
M  V30 11663 H 1105.76 4.2781 0.260069 0
M  V30 11664 H 1109.94 4.94142 -0.462297 0
M  V30 11665 H 1105.2 5.93543 -1.46687 0
M  V30 11666 H 1109.37 6.61204 -2.18591 0
M  V30 11667 H 1107 7.10855 -2.69423 0
M  V30 11668 N 1108.58 -0.128553 1.57075 0
M  V30 11669 C 1109.99 -0.686713 1.73612 0
M  V30 11670 C 1110.34 -1.80778 0.762478 0
M  V30 11671 O 1109.46 -2.16297 -0.0667779 0
M  V30 11672 C 1110.06 -1.25246 3.148 0
M  V30 11673 C 1108.62 -1.757 3.32876 0
M  V30 11674 C 1107.76 -0.652844 2.69506 0
M  V30 11675 H 1110.71 0.0972859 1.58402 0
M  V30 11676 H 1110.74 -2.1222 3.15821 0
M  V30 11677 H 1110.25 -0.436308 3.8564 0
M  V30 11678 H 1108.35 -2.59824 2.67063 0
M  V30 11679 H 1108.46 -1.87302 4.4097 0
M  V30 11680 H 1106.83 -1.08408 2.30477 0
M  V30 11681 H 1107.61 0.15217 3.42963 0
M  V30 11682 N 1110.05 -1.5248 -0.398459 0
M  V30 11683 C 1111.02 -1.75949 -1.46883 0
M  V30 11684 C 1112.02 -0.629431 -1.47969 0
M  V30 11685 O 1113.21 -0.897407 -1.49306 0
M  V30 11686 C 1110.34 -1.85162 -2.8623 0
M  V30 11687 H 1111.53 -2.71513 -1.2736 0
M  V30 11688 H 1109.08 -1.43058 -0.629619 0
M  V30 11689 H 1109.82 -0.915505 -3.11109 0
M  V30 11690 H 1109.6 -2.67326 -2.86844 0
M  V30 11691 H 1111.09 -2.05025 -3.63805 0
M  V30 11692 N 1111.53 0.65634 -1.43283 0
M  V30 11693 C 1112.94 1.23744 -1.39801 0
M  V30 11694 C 1113.29 1.95942 -0.100507 0
M  V30 11695 O 1112.42 2.01063 0.800161 0
M  V30 11696 C 1113.01 2.25062 -2.53244 0
M  V30 11697 C 1111.57 2.78657 -2.53036 0
M  V30 11698 C 1110.72 1.53251 -2.31105 0
M  V30 11699 H 1113.67 0.448553 -1.52229 0
M  V30 11700 H 1113.69 3.07174 -2.24553 0
M  V30 11701 H 1113.2 1.72487 -3.47664 0
M  V30 11702 H 1111.3 3.35304 -1.62487 0
M  V30 11703 H 1111.42 3.26414 -3.507 0
M  V30 11704 H 1109.78 1.80487 -1.79713 0
M  V30 11705 H 1110.56 1.02615 -3.27605 0
M  V30 11706 N 1113.01 1.29761 0.894412 0
M  V30 11707 C 1114.42 1.16275 1.46072 0
M  V30 11708 C 1114.77 -0.240123 1.94725 0
M  V30 11709 O 1113.9 -1.13606 1.84181 0
M  V30 11710 C 1114.49 2.10471 2.65494 0
M  V30 11711 C 1113.05 2.00992 3.18244 0
M  V30 11712 C 1112.2 2.01094 1.90936 0
M  V30 11713 H 1115.15 1.42169 0.705243 0
M  V30 11714 H 1115.17 1.68003 3.41402 0
M  V30 11715 H 1114.68 3.12566 2.30053 0
M  V30 11716 H 1112.78 1.02005 3.58365 0
M  V30 11717 H 1112.9 2.88916 3.82184 0
M  V30 11718 H 1111.26 1.45764 2.08866 0
M  V30 11719 H 1112.04 3.04902 1.57764 0
M  V30 11720 N 1114.49 -1.10549 1.12324 0
M  V30 11721 C 1115.9 -1.63991 0.892402 0
M  V30 11722 C 1116.25 -1.87631 -0.573506 0
M  V30 11723 O 1115.37 -1.6174 -1.43768 0
M  V30 11724 C 1115.97 -2.97914 1.61347 0
M  V30 11725 C 1114.53 -3.48227 1.42881 0
M  V30 11726 C 1113.68 -2.22857 1.65015 0
M  V30 11727 H 1116.63 -0.94065 1.27818 0
M  V30 11728 H 1116.65 -3.65326 1.06382 0
M  V30 11729 H 1116.16 -2.80677 2.68034 0
M  V30 11730 H 1114.26 -3.70611 0.384441 0
M  V30 11731 H 1114.37 -4.26419 2.18413 0
M  V30 11732 H 1112.74 -2.30941 1.07417 0
M  V30 11733 H 1113.52 -2.08152 2.72997 0
M  V30 11734 N 1115.97 -0.914965 -1.28321 0
M  V30 11735 C 1117.21 -0.547665 -1.94538 0
M  V30 11736 C 1117.53 0.911834 -1.72368 0
M  V30 11737 O 1116.8 1.64481 -1.06408 0
M  V30 11738 H 1115.38 -0.199549 -0.719853 0
M  V30 11739 H 1118.05 -1.16459 -1.5628 0
M  V30 11740 H 1117.14 -0.743138 -3.03124 0
M  V30 11741 N 1117.44 1.42219 -0.679077 0
M  V30 11742 C 1118.69 2.00703 -0.200309 0
M  V30 11743 C 1119.01 1.54339 1.20161 0
M  V30 11744 O 1120.21 2.0527 1.77698 0
M  V30 11745 C 1118.67 3.58586 -0.307248 0
M  V30 11746 C 1118.28 4.13937 -1.71349 0
M  V30 11747 C 1120.02 4.24351 0.112588 0
M  V30 11748 C 1117.93 5.64198 -1.77297 0
M  V30 11749 H 1116.86 0.750638 -0.0711279 0
M  V30 11750 H 1119.51 1.62893 -0.844881 0
M  V30 11751 H 1117.89 3.93921 0.40529 0
M  V30 11752 H 1119.06 3.90054 -2.45346 0
M  V30 11753 H 1117.38 3.60639 -2.08155 0
M  V30 11754 H 1119.98 5.34627 0.0883578 0
M  V30 11755 H 1120.32 4.00142 1.14857 0
M  V30 11756 H 1120.85 3.93992 -0.549093 0
M  V30 11757 H 1117.59 5.93211 -2.78892 0
M  V30 11758 H 1117.11 5.90058 -1.07662 0
M  V30 11759 H 1118.79 6.2869 -1.52835 0
M  V30 11760 N 1118.92 0.422693 1.51826 0
M  V30 11761 C 1120.17 -0.150066 2.01141 0
M  V30 11762 C 1120.48 -1.45059 1.31214 0
M  V30 11763 O 1121.69 -2.10542 1.71419 0
M  V30 11764 C 1120.15 -0.317985 3.58492 0
M  V30 11765 C 1119.75 0.971244 4.37345 0
M  V30 11766 C 1121.5 -0.845303 4.15999 0
M  V30 11767 C 1119.4 0.769769 5.86369 0
M  V30 11768 H 1118.33 -0.0598567 0.75162 0
M  V30 11769 H 1120.99 0.550217 1.75057 0
M  V30 11770 H 1119.37 -1.08092 3.80962 0
M  V30 11771 H 1120.54 1.74138 4.26629 0
M  V30 11772 H 1118.86 1.42599 3.91222 0
M  V30 11773 H 1121.45 -1.01229 5.2503 0
M  V30 11774 H 1121.8 -1.82375 3.74226 0
M  V30 11775 H 1122.33 -0.141067 3.9755 0
M  V30 11776 H 1119.07 1.72017 6.32527 0
M  V30 11777 H 1118.59 0.0391717 5.99787 0
M  V30 11778 H 1120.27 0.417225 6.45653 0
M  V30 11779 N 1120.4 -1.5685 0.153553 0
M  V30 11780 C 1121.62 -2.01135 -0.505904 0
M  V30 11781 C 1122.05 -1.03301 -1.57196 0
M  V30 11782 O 1121.41 -0.00976022 -1.81297 0
M  V30 11783 C 1121.46 -3.44129 -1.0774 0
M  V30 11784 O 1120.56 -3.49318 -2.19205 0
M  V30 11785 H 1119.9 -0.652496 -0.123062 0
M  V30 11786 H 1122.43 -2.03039 0.252216 0
M  V30 11787 H 1122.44 -3.83066 -1.40444 0
M  V30 11788 H 1121.12 -4.1484 -0.296754 0
M  V30 11789 H 1119.69 -3.22227 -1.8768 0
M  V30 11790 N 1121.88 0.120221 -1.57141 0
M  V30 11791 C 1123.13 0.826586 -1.84423 0
M  V30 11792 C 1123.45 1.80473 -0.738553 0
M  V30 11793 O 1122.72 1.94454 0.23755 0
M  V30 11794 H 1121.3 0.308246 -0.680436 0
M  V30 11795 H 1123.96 0.107835 -1.94601 0
M  V30 11796 H 1123.05 1.37256 -2.80298 0
M  V30 11797 N 1123.36 1.52689 0.390367 0
M  V30 11798 C 1124.77 1.41909 0.730338 0
M  V30 11799 C 1124.97 0.538427 1.94173 0
M  V30 11800 O 1124.03 0.0113527 2.52497 0
M  V30 11801 C 1125.34 2.84737 0.966714 0
M  V30 11802 C 1126.89 2.94206 1.06827 0
M  V30 11803 C 1127.36 4.38042 1.33728 0
M  V30 11804 N 1128.86 4.4136 1.40553 0
M  V30 11805 C 1129.59 5.49735 1.63031 0
M  V30 11806 N 1129.09 6.68197 1.82988 0
M  V30 11807 N 1130.88 5.37276 1.65199 0
M  V30 11808 H 1123.03 2.08469 -0.406766 0
M  V30 11809 H 1125.29 0.940401 -0.11979 0
M  V30 11810 H 1125 3.51385 0.148725 0
M  V30 11811 H 1124.87 3.26909 1.88176 0
M  V30 11812 H 1127.26 2.27726 1.87683 0
M  V30 11813 H 1127.34 2.55463 0.131168 0
M  V30 11814 H 1126.99 5.05087 0.533832 0
M  V30 11815 H 1126.92 4.74336 2.28721 0
M  V30 11816 H 1129.41 3.55976 1.26844 0
M  V30 11817 H 1129.72 7.46567 1.99643 0
M  V30 11818 H 1128.06 6.71228 1.80215 0
M  V30 11819 H 1131.26 4.437 1.49158 0
M  V30 11820 H 1131.43 6.21806 1.82377 0
M  V30 11821 N 1124.83 -0.648732 1.43629 0
M  V30 11822 C 1126.25 -1.23001 1.40455 0
M  V30 11823 C 1126.6 -1.95886 0.110897 0
M  V30 11824 O 1125.72 -2.01485 -0.789487 0
M  V30 11825 C 1126.32 -2.23716 2.54434 0
M  V30 11826 C 1124.88 -2.77311 2.54511 0
M  V30 11827 C 1124.02 -1.52024 2.31914 0
M  V30 11828 H 1126.97 -0.440473 1.52465 0
M  V30 11829 H 1126.99 -3.05979 2.26179 0
M  V30 11830 H 1126.51 -1.7064 3.48574 0
M  V30 11831 H 1124.61 -3.34437 1.64263 0
M  V30 11832 H 1124.72 -3.2455 3.52426 0
M  V30 11833 H 1123.08 -1.79531 1.80667 0
M  V30 11834 H 1123.87 -1.00876 3.28145 0
M  V30 11835 N 1126.31 -1.30234 -0.887518 0
M  V30 11836 C 1127.26 -1.16302 -2.01436 0
M  V30 11837 C 1128.25 -0.0755422 -1.69231 0
M  V30 11838 O 1129.46 -0.236213 -1.78443 0
M  V30 11839 H 1125.84 -0.35961 -0.660443 0
M  V30 11840 H 1127.81 -2.11677 -2.10322 0
M  V30 11841 C 1126.56 -0.869009 -3.36665 0
M  V30 11842 H 1125.88 -1.69787 -3.61956 0
M  V30 11843 H 1127.32 -0.811621 -4.16159 0
M  V30 11844 C 1125.78 0.428021 -3.3417 0
M  V30 11845 O 1126.31 1.45033 -3.74604 0
M  V30 11846 N 1124.51 0.438264 -2.87276 0
M  V30 11847 H 1124.06 -0.394142 -2.54567 0
M  V30 11848 H 1124.02 1.30604 -2.85989 0
M  V30 11849 N 1127.79 1.09952 -1.12909 0
M  V30 11850 C 1129.02 1.8633 -0.910821 0
M  V30 11851 C 1129.44 1.80335 0.534874 0
M  V30 11852 O 1128.8 1.1769 1.37908 0
M  V30 11853 C 1128.85 3.32462 -1.39648 0
M  V30 11854 O 1127.95 4.08327 -0.578192 0
M  V30 11855 H 1127.29 0.577984 -0.32685 0
M  V30 11856 H 1129.82 1.38883 -1.50242 0
M  V30 11857 H 1129.83 3.83311 -1.39774 0
M  V30 11858 H 1128.51 3.36141 -2.44913 0
M  V30 11859 H 1127.08 3.67291 -0.644347 0
M  V30 11860 N 1129.27 0.921757 1.27833 0
M  V30 11861 C 1130.68 0.621102 1.47019 0
M  V30 11862 C 1130.88 -0.831338 1.83551 0
M  V30 11863 O 1129.94 -1.60974 1.94534 0
M  V30 11864 C 1131.25 1.56588 2.56712 0
M  V30 11865 C 1132.8 1.57346 2.70576 0
M  V30 11866 C 1133.28 2.50505 3.8342 0
M  V30 11867 N 1134.77 2.48678 3.90786 0
M  V30 11868 C 1135.5 3.17454 4.77505 0
M  V30 11869 N 1135 3.95588 5.68755 0
M  V30 11870 N 1136.79 3.06501 4.71183 0
M  V30 11871 H 1128.94 1.86085 1.02403 0
M  V30 11872 H 1131.21 0.798595 0.510833 0
M  V30 11873 H 1130.91 2.60175 2.36647 0
M  V30 11874 H 1130.79 1.30305 3.53978 0
M  V30 11875 H 1133.17 0.544919 2.90025 0
M  V30 11876 H 1133.25 1.87675 1.73815 0
M  V30 11877 H 1132.9 3.53466 3.64725 0
M  V30 11878 H 1132.83 2.17474 4.79596 0
M  V30 11879 H 1135.32 1.91928 3.25534 0
M  V30 11880 H 1135.63 4.45066 6.31772 0
M  V30 11881 H 1133.98 3.99692 5.6857 0
M  V30 11882 H 1137.17 2.44958 3.9889 0
M  V30 11883 H 1137.34 3.60372 5.3855 0
M  V30 11884 N 1130.75 -1.41857 0.686609 0
M  V30 11885 C 1131.99 -2.01368 0.213801 0
M  V30 11886 C 1132.32 -1.5434 -1.18361 0
M  V30 11887 O 1131.58 -0.741447 -1.81111 0
M  V30 11888 C 1131.88 -3.56783 0.209951 0
M  V30 11889 C 1131.54 -4.23288 1.55365 0
M  V30 11890 C 1130.2 -4.41169 1.92154 0
M  V30 11891 C 1132.56 -4.6066 2.43807 0
M  V30 11892 C 1129.88 -4.93697 3.16986 0
M  V30 11893 C 1132.24 -5.14573 3.67963 0
M  V30 11894 C 1130.9 -5.30667 4.04906 0
M  V30 11895 H 1130.17 -0.736858 0.0782352 0
M  V30 11896 H 1132.82 -1.69879 0.88393 0
M  V30 11897 H 1131.12 -3.88009 -0.543712 0
M  V30 11898 H 1132.82 -4.00625 -0.173267 0
M  V30 11899 H 1129.41 -4.09738 1.2575 0
M  V30 11900 H 1133.59 -4.46507 2.16668 0
M  V30 11901 H 1128.85 -5.04342 3.45615 0
M  V30 11902 H 1133.02 -5.42473 4.36687 0
M  V30 11903 H 1130.65 -5.71133 5.01709 0
M  V30 11904 N 1132.22 -0.430739 -1.51599 0
M  V30 11905 C 1133.13 0.390347 -2.3133 0
M  V30 11906 C 1134.15 1.03376 -1.39962 0
M  V30 11907 O 1135.33 1.03057 -1.73035 0
M  V30 11908 C 1132.39 1.48039 -3.13505 0
M  V30 11909 C 1131.45 0.857792 -4.20643 0
M  V30 11910 C 1130.69 1.89589 -4.9889 0
M  V30 11911 O 1130.91 3.11717 -4.77691 0
M  V30 11912 O 1129.84 1.49009 -5.83164 0
M  V30 11913 H 1133.67 -0.260358 -3.02582 0
M  V30 11914 H 1131.25 -0.193428 -1.48143 0
M  V30 11915 H 1133.14 2.11272 -3.64612 0
M  V30 11916 H 1131.81 2.1153 -2.45024 0
M  V30 11917 H 1130.72 0.187592 -3.73629 0
M  V30 11918 H 1132.05 0.266474 -4.91478 0
M  V30 11919 N 1133.7 1.56767 -0.161869 0
M  V30 11920 C 1134.98 1.88245 0.531352 0
M  V30 11921 C 1135.36 1.07025 1.81958 0
M  V30 11922 O 1134.71 0.161385 2.27929 0
M  V30 11923 C 1134.92 3.40117 0.782416 0
M  V30 11924 C 1136.27 4.09655 1.11661 0
M  V30 11925 O 1137.29 3.4538 0.871274 0
M  V30 11926 O 1136.15 5.23192 1.57901 0
M  V30 11927 H 1133.24 0.780725 0.272759 0
M  V30 11928 H 1135.79 1.68522 -0.199597 0
M  V30 11929 H 1134.56 3.91088 -0.128677 0
M  V30 11930 H 1134.18 3.65418 1.56702 0
M  V30 11931 N 1135.18 -0.111886 1.57202 0
M  V30 11932 C 1136.59 -0.668261 1.74331 0
M  V30 11933 C 1136.94 -1.79959 0.781609 0
M  V30 11934 O 1136.07 -2.16356 -0.043833 0
M  V30 11935 C 1136.66 -1.219 3.1611 0
M  V30 11936 C 1135.22 -1.7216 3.34721 0
M  V30 11937 C 1134.37 -0.624223 2.70183 0
M  V30 11938 H 1137.32 0.114081 1.58289 0
M  V30 11939 H 1137.34 -2.08858 3.18054 0
M  V30 11940 H 1136.85 -0.395381 3.86081 0
M  V30 11941 H 1134.95 -2.56976 2.69803 0
M  V30 11942 H 1135.07 -1.82615 4.42932 0
M  V30 11943 H 1133.43 -1.05958 2.31614 0
M  V30 11944 H 1134.21 0.188537 3.42782 0
M  V30 11945 N 1136.66 -1.52894 -0.382264 0
M  V30 11946 C 1137.89 -1.72152 -1.14766 0
M  V30 11947 C 1138.3 -0.442911 -1.83531 0
M  V30 11948 O 1137.66 0.583085 -1.72935 0
M  V30 11949 C 1137.71 -2.87566 -2.19062 0
M  V30 11950 O 1137.43 -4.10478 -1.53099 0
M  V30 11951 C 1138.93 -3.18559 -3.08277 0
M  V30 11952 H 1136.15 -0.576212 -0.343832 0
M  V30 11953 H 1138.7 -1.99571 -0.446273 0
M  V30 11954 H 1136.85 -2.62589 -2.84826 0
M  V30 11955 H 1137.26 -4.74989 -2.22454 0
M  V30 11956 H 1138.74 -4.02763 -3.77473 0
M  V30 11957 H 1139.22 -2.33222 -3.72161 0
M  V30 11958 H 1139.82 -3.454 -2.48151 0
M  V30 11959 N 1138.14 0.641106 -1.43971 0
M  V30 11960 C 1139.39 1.39676 -1.45511 0
M  V30 11961 C 1139.7 1.95403 -0.0877084 0
M  V30 11962 O 1140.91 2.71493 0.0193965 0
M  V30 11963 C 1139.36 2.52839 -2.56126 0
M  V30 11964 C 1138.97 2.03668 -3.99028 0
M  V30 11965 C 1140.71 3.30118 -2.66875 0
M  V30 11966 C 1138.62 3.14114 -5.01085 0
M  V30 11967 H 1137.55 0.524854 -0.541336 0
M  V30 11968 H 1140.2 0.69075 -1.70003 0
M  V30 11969 H 1138.58 3.25968 -2.24857 0
M  V30 11970 H 1139.76 1.3747 -4.39817 0
M  V30 11971 H 1138.07 1.39233 -3.92432 0
M  V30 11972 H 1140.67 4.12434 -3.40297 0
M  V30 11973 H 1141.01 3.78946 -1.72353 0
M  V30 11974 H 1141.55 2.64075 -2.97505 0
M  V30 11975 H 1138.28 2.70241 -5.97202 0
M  V30 11976 H 1137.8 3.78985 -4.64898 0
M  V30 11977 H 1139.48 3.79051 -5.24337 0
M  V30 11978 N 1139.62 1.30703 0.880598 0
M  V30 11979 C 1140.56 1.17369 2.00817 0
M  V30 11980 C 1141.56 0.0845159 1.69189 0
M  V30 11981 O 1142.76 0.245673 1.78316 0
M  V30 11982 H 1139.14 0.363107 0.658527 0
M  V30 11983 H 1141.11 2.12789 2.09197 0
M  V30 11984 C 1139.86 0.886851 3.362 0
M  V30 11985 H 1139.18 1.71704 3.61051 0
M  V30 11986 H 1140.62 0.83368 4.15723 0
M  V30 11987 C 1139.08 -0.410293 3.34392 0
M  V30 11988 O 1139.61 -1.43044 3.75368 0
M  V30 11989 N 1137.82 -0.423023 2.87505 0
M  V30 11990 H 1137.36 0.407637 2.54354 0
M  V30 11991 H 1137.32 -1.29086 2.86678 0
M  V30 11992 N 1141.09 -1.09351 1.1349 0
M  V30 11993 C 1142.06 -2.14185 0.815919 0
M  V30 11994 C 1143.06 -1.59845 -0.174976 0
M  V30 11995 O 1144.25 -1.74122 0.0521971 0
M  V30 11996 C 1141.38 -3.40224 0.214517 0
M  V30 11997 H 1142.57 -2.43913 1.74489 0
M  V30 11998 H 1140.12 -1.24902 0.939634 0
M  V30 11999 H 1140.86 -3.16123 -0.723634 0
M  V30 12000 H 1140.64 -3.80958 0.928102 0
M  V30 12001 H 1142.13 -4.17599 0.00821999 0
M  V30 12002 N 1142.57 -0.928524 -1.27343 0
M  V30 12003 C 1143.53 -0.43292 -2.25074 0
M  V30 12004 C 1144.53 0.448976 -1.54405 0
M  V30 12005 O 1145.72 0.249939 -1.72398 0
M  V30 12006 C 1142.86 0.377539 -3.38803 0
M  V30 12007 H 1144.05 -1.29642 -2.70431 0
M  V30 12008 H 1141.6 -0.709289 -1.3928 0
M  V30 12009 H 1142.34 1.25982 -2.98829 0
M  V30 12010 H 1142.12 -0.254782 -3.91271 0
M  V30 12011 H 1143.61 0.714634 -4.1144 0
M  V30 12012 N 1144.05 1.41491 -0.694123 0
M  V30 12013 C 1145.3 2.0155 -0.224809 0
M  V30 12014 C 1145.63 1.54844 1.17205 0
M  V30 12015 O 1144.9 0.75899 1.7908 0
M  V30 12016 C 1145.19 3.59003 -0.280884 0
M  V30 12017 C 1145.04 4.15839 -1.71458 0
M  V30 12018 C 1146.36 4.38624 0.360122 0
M  V30 12019 H 1143.48 0.732293 -0.0831632 0
M  V30 12020 H 1146.12 1.68258 -0.882569 0
M  V30 12021 H 1144.27 3.87496 0.279164 0
M  V30 12022 H 1145.94 3.98227 -2.32837 0
M  V30 12023 H 1144.18 3.70936 -2.2492 0
M  V30 12024 H 1144.86 5.24997 -1.70536 0
M  V30 12025 H 1147.33 4.15936 -0.11683 0
M  V30 12026 H 1146.21 5.48132 0.290337 0
M  V30 12027 H 1146.47 4.1797 1.44062 0
M  V30 12028 N 1145.53 0.438773 1.51369 0
M  V30 12029 C 1146.47 -0.37195 2.27783 0
M  V30 12030 C 1147.44 -1.01558 1.31435 0
M  V30 12031 O 1148.63 -1.03421 1.60339 0
M  V30 12032 C 1145.77 -1.46636 3.12397 0
M  V30 12033 C 1144.88 -0.840727 4.2374 0
M  V30 12034 C 1144.02 -1.91031 4.95662 0
M  V30 12035 C 1143.06 -1.26318 5.98924 0
M  V30 12036 N 1142.19 -2.27419 6.64248 0
M  V30 12037 H 1147.03 0.286048 2.96624 0
M  V30 12038 H 1144.57 0.152909 1.46303 0
M  V30 12039 H 1146.53 -2.11219 3.59781 0
M  V30 12040 H 1145.16 -2.09397 2.45668 0
M  V30 12041 H 1144.21 -0.0831588 3.80309 0
M  V30 12042 H 1145.52 -0.328285 4.97719 0
M  V30 12043 H 1144.68 -2.63272 5.46601 0
M  V30 12044 H 1143.42 -2.45649 4.21317 0
M  V30 12045 H 1142.42 -0.526246 5.47276 0
M  V30 12046 H 1143.65 -0.724324 6.75226 0
M  V30 12047 H 1141.59 -2.81114 5.92715 0
M  V30 12048 H 1141.51 -1.81071 7.33996 0
M  V30 12049 H 1142.78 -2.99139 7.19817 0
M  V30 12050 N 1147.01 -1.56678 0.170181 0
M  V30 12051 C 1147.95 -2.17909 -0.760556 0
M  V30 12052 C 1148.92 -1.11875 -1.22773 0
M  V30 12053 O 1150.11 -1.40021 -1.2961 0
M  V30 12054 C 1147.25 -2.82305 -1.9849 0
M  V30 12055 C 1146.36 -4.02796 -1.5614 0
M  V30 12056 C 1145.5 -4.55121 -2.73932 0
M  V30 12057 C 1144.53 -5.68025 -2.28067 0
M  V30 12058 N 1143.67 -6.14865 -3.38947 0
M  V30 12059 H 1148.51 -2.97098 -0.231629 0
M  V30 12060 H 1146.05 -1.46742 -0.102602 0
M  V30 12061 H 1148.01 -3.17797 -2.70298 0
M  V30 12062 H 1146.64 -2.05721 -2.48755 0
M  V30 12063 H 1145.69 -3.73131 -0.740097 0
M  V30 12064 H 1147 -4.84526 -1.18472 0
M  V30 12065 H 1146.15 -4.92789 -3.53898 0
M  V30 12066 H 1144.89 -3.72445 -3.14858 0
M  V30 12067 H 1143.9 -5.2991 -1.46546 0
M  V30 12068 H 1145.12 -6.52501 -1.88199 0
M  V30 12069 H 1143.07 -5.35119 -3.79452 0
M  V30 12070 H 1142.99 -6.91582 -3.05369 0
M  V30 12071 H 1144.25 -6.57183 -4.19203 0
M  V30 12072 N 1148.48 0.103547 -1.57259 0
M  V30 12073 C 1149.76 0.839768 -1.76656 0
M  V30 12074 C 1150.14 1.9734 -0.749666 0
M  V30 12075 O 1149.49 2.27405 0.223466 0
M  V30 12076 C 1149.7 1.34218 -3.22159 0
M  V30 12077 C 1151.05 1.78835 -3.85102 0
M  V30 12078 O 1152.07 1.43861 -3.25857 0
M  V30 12079 O 1150.93 2.43474 -4.89267 0
M  V30 12080 H 1148.02 0.399928 -0.723869 0
M  V30 12081 H 1150.57 0.0860857 -1.69482 0
M  V30 12082 H 1149.34 0.52956 -3.877 0
M  V30 12083 H 1148.96 2.15811 -3.33933 0
M  V30 12084 N 1149.96 1.53094 0.37415 0
M  V30 12085 C 1151.19 1.72758 1.13852 0
M  V30 12086 C 1151.6 0.452638 1.83294 0
M  V30 12087 O 1150.96 -0.573906 1.73241 0
M  V30 12088 C 1151.01 2.88724 2.17534 0
M  V30 12089 O 1150.73 4.11284 1.5092 0
M  V30 12090 C 1152.23 3.2019 3.06584 0
M  V30 12091 H 1149.45 0.578028 0.340771 0
M  V30 12092 H 1152 1.99805 0.435683 0
M  V30 12093 H 1150.15 2.64096 2.83429 0
M  V30 12094 H 1150.57 4.76162 2.19932 0
M  V30 12095 H 1152.04 4.04759 3.75332 0
M  V30 12096 H 1152.52 2.35193 3.70919 0
M  V30 12097 H 1153.12 3.46712 2.46315 0
M  V30 12098 N 1151.44 -0.633461 1.44309 0
M  V30 12099 C 1152.85 -1.21504 1.41752 0
M  V30 12100 C 1153.2 -1.95758 0.131667 0
M  V30 12101 O 1152.33 -2.02311 -0.768072 0
M  V30 12102 C 1152.92 -2.21005 2.56792 0
M  V30 12103 C 1151.48 -2.74596 2.57438 0
M  V30 12104 C 1150.63 -1.49555 2.33513 0
M  V30 12105 H 1153.58 -0.424277 1.52923 0
M  V30 12106 H 1153.6 -3.03563 2.29412 0
M  V30 12107 H 1153.11 -1.66934 3.50364 0
M  V30 12108 H 1151.21 -3.32676 1.67801 0
M  V30 12109 H 1151.33 -3.20794 3.55849 0
M  V30 12110 H 1149.69 -1.77605 1.82561 0
M  V30 12111 H 1150.47 -0.973899 3.29196 0
M  V30 12112 N 1152.92 -1.31168 -0.873655 0
M  V30 12113 C 1154.33 -1.18584 -1.44203 0
M  V30 12114 C 1154.68 0.209114 -1.95082 0
M  V30 12115 O 1153.81 1.10662 -1.85965 0
M  V30 12116 C 1154.4 -2.14668 -2.62112 0
M  V30 12117 C 1152.96 -2.06029 -3.15006 0
M  V30 12118 C 1152.11 -2.04106 -1.87712 0
M  V30 12119 H 1155.06 -1.43273 -0.682536 0
M  V30 12120 H 1155.08 -1.73413 -3.38686 0
M  V30 12121 H 1154.59 -3.16186 -2.25051 0
M  V30 12122 H 1152.69 -1.07693 -3.56697 0
M  V30 12123 H 1152.8 -2.9496 -3.77539 0
M  V30 12124 H 1151.17 -1.49069 -2.0652 0
M  V30 12125 H 1151.95 -3.07373 -1.52894 0
M  V30 12126 N 1154.4 1.08748 -1.14068 0
M  V30 12127 C 1155.33 2.1544 -0.782199 0
M  V30 12128 C 1156.34 1.61575 0.199301 0
M  V30 12129 O 1157.53 1.78487 -0.0219044 0
M  V30 12130 C 1154.63 3.38611 -0.13983 0
M  V30 12131 C 1153.8 4.2187 -1.15518 0
M  V30 12132 C 1152.86 5.23451 -0.537216 0
M  V30 12133 O 1151.89 5.56424 -1.1992 0
M  V30 12134 N 1153.09 5.76413 0.6876 0
M  V30 12135 H 1155.86 2.46798 -1.70032 0
M  V30 12136 H 1153.42 1.24527 -1.03463 0
M  V30 12137 H 1155.41 4.03688 0.285999 0
M  V30 12138 H 1153.98 3.05084 0.681357 0
M  V30 12139 H 1153.2 3.52825 -1.75806 0
M  V30 12140 H 1154.49 4.74318 -1.84119 0
M  V30 12141 H 1153.88 5.51851 1.24406 0
M  V30 12142 H 1152.44 6.43189 1.05599 0
M  V30 12143 N 1155.87 0.935264 1.26849 0
M  V30 12144 C 1156.82 0.438896 2.26588 0
M  V30 12145 C 1157.79 -0.498267 1.5845 0
M  V30 12146 O 1158.98 -0.415771 1.86215 0
M  V30 12147 C 1156.12 -0.295293 3.43834 0
M  V30 12148 C 1155.23 0.676857 4.26665 0
M  V30 12149 C 1154.36 -0.0779349 5.31143 0
M  V30 12150 C 1153.4 0.886425 6.05648 0
M  V30 12151 N 1152.54 0.163771 7.01909 0
M  V30 12152 H 1157.38 1.29439 2.6842 0
M  V30 12153 H 1154.92 0.649523 1.31983 0
M  V30 12154 H 1156.88 -0.737354 4.10632 0
M  V30 12155 H 1155.51 -1.11497 3.02933 0
M  V30 12156 H 1154.56 1.23744 3.5971 0
M  V30 12157 H 1155.87 1.41355 4.78351 0
M  V30 12158 H 1155.02 -0.579557 6.03926 0
M  V30 12159 H 1153.76 -0.84755 4.80279 0
M  V30 12160 H 1152.77 1.39923 5.31697 0
M  V30 12161 H 1153.99 1.65595 6.58601 0
M  V30 12162 H 1151.94 -0.58746 6.53364 0
M  V30 12163 H 1151.86 0.839902 7.5132 0
M  V30 12164 H 1153.12 -0.316951 7.78855 0
M  V30 12165 N 1157.35 -1.41121 0.701616 0
M  V30 12166 C 1158.59 -2.02993 0.239383 0
M  V30 12167 C 1158.96 -1.5439 -1.1414 0
M  V30 12168 O 1160.16 -2.08229 -1.69982 0
M  V30 12169 C 1158.43 -3.56128 0.301232 0
M  V30 12170 S 1159.99 -4.38716 -0.0860681 0
M  V30 12171 H 1156.81 -0.704494 0.0959645 0
M  V30 12172 H 1159.41 -1.72461 0.920736 0
M  V30 12173 H 1158.11 -3.88996 1.30805 0
M  V30 12174 H 1157.64 -3.91371 -0.399069 0
M  V30 12175 H 1159.66 -4.78537 -1.31212 0
M  V30 12176 N 1158.83 -0.446794 -1.51134 0
M  V30 12177 C 1160.08 0.116493 -2.02165 0
M  V30 12178 C 1160.41 1.41884 -1.33039 0
M  V30 12179 O 1159.66 1.90757 -0.437071 0
M  V30 12180 C 1159.96 0.373015 -3.55448 0
M  V30 12181 C 1159.63 -0.844659 -4.42918 0
M  V30 12182 C 1158.29 -1.17857 -4.66544 0
M  V30 12183 C 1160.64 -1.65653 -4.94174 0
M  V30 12184 C 1157.97 -2.32486 -5.38672 0
M  V30 12185 C 1160.32 -2.7939 -5.6756 0
M  V30 12186 C 1158.98 -3.13224 -5.89446 0
M  V30 12187 H 1158.25 0.0426279 -0.739773 0
M  V30 12188 H 1160.9 -0.595921 -1.81992 0
M  V30 12189 H 1159.21 1.16742 -3.74003 0
M  V30 12190 H 1160.9 0.822425 -3.92476 0
M  V30 12191 H 1157.49 -0.574478 -4.24733 0
M  V30 12192 H 1161.68 -1.41176 -4.75797 0
M  V30 12193 H 1156.93 -2.59003 -5.5383 0
M  V30 12194 H 1161.11 -3.42662 -6.06264 0
M  V30 12195 H 1158.73 -4.02158 -6.45115 0
M  V30 12196 N 1160.31 1.56586 -0.178487 0
M  V30 12197 C 1161.56 1.96273 0.464745 0
M  V30 12198 C 1161.87 1.0675 1.63902 0
M  V30 12199 O 1163.08 1.36148 2.34896 0
M  V30 12200 C 1161.53 3.49021 0.878207 0
M  V30 12201 C 1161.14 4.4718 -0.270861 0
M  V30 12202 C 1162.88 3.97512 1.48946 0
M  V30 12203 C 1160.79 5.91176 0.162632 0
M  V30 12204 H 1159.72 0.732834 0.177398 0
M  V30 12205 H 1162.37 1.81534 -0.267861 0
M  V30 12206 H 1160.75 3.59203 1.667 0
M  V30 12207 H 1161.93 4.48718 -1.04826 0
M  V30 12208 H 1160.24 4.08788 -0.792529 0
M  V30 12209 H 1162.84 5.02556 1.82595 0
M  V30 12210 H 1163.18 3.40861 2.38997 0
M  V30 12211 H 1163.72 3.90376 0.76496 0
M  V30 12212 H 1160.46 6.51716 -0.703286 0
M  V30 12213 H 1159.98 5.9293 0.905243 0
M  V30 12214 H 1161.65 6.44174 0.604084 0
M  V30 12215 N 1161.79 -0.095206 1.57312 0
M  V30 12216 C 1163.06 -0.830388 1.77099 0
M  V30 12217 C 1163.44 -1.9694 0.760121 0
M  V30 12218 O 1162.79 -2.2752 -0.211403 0
M  V30 12219 C 1163 -1.32507 3.22867 0
M  V30 12220 C 1164.35 -1.7679 3.86045 0
M  V30 12221 O 1165.37 -1.42131 3.26615 0
M  V30 12222 O 1164.23 -2.40876 4.90552 0
M  V30 12223 H 1161.33 -0.396083 0.72598 0
M  V30 12224 H 1163.87 -0.0770965 1.69525 0
M  V30 12225 H 1162.64 -0.508992 3.87975 0
M  V30 12226 H 1162.27 -2.14037 3.35073 0
M  V30 12227 N 1163.26 -1.53291 -0.366026 0
M  V30 12228 C 1164.21 -1.76077 -1.44847 0
M  V30 12229 C 1165.2 -0.615302 -1.4867 0
M  V30 12230 O 1166.39 -0.873952 -1.53919 0
M  V30 12231 C 1163.52 -1.95371 -2.82286 0
M  V30 12232 C 1162.61 -3.15918 -2.82943 0
M  V30 12233 N 1163 -4.37835 -2.53247 0
M  V30 12234 C 1161.29 -3.16631 -3.14103 0
M  V30 12235 C 1162 -5.19573 -2.6157 0
M  V30 12236 N 1160.97 -4.55773 -2.96263 0
M  V30 12237 H 1164.77 -2.67949 -1.2075 0
M  V30 12238 H 1162.29 -1.5191 -0.574206 0
M  V30 12239 H 1164.28 -2.09823 -3.6025 0
M  V30 12240 H 1162.94 -1.04727 -3.07347 0
M  V30 12241 H 1163.96 -4.65575 -2.26848 0
M  V30 12242 H 1160.63 -2.35878 -3.44482 0
M  V30 12243 H 1162.02 -6.26821 -2.41961 0
M  V30 12244 N 1164.74 0.6258 -1.44643 0
M  V30 12245 C 1165.97 1.41233 -1.51198 0
M  V30 12246 C 1166.39 1.88291 -0.138572 0
M  V30 12247 O 1165.74 1.61151 0.856537 0
M  V30 12248 C 1165.79 2.62908 -2.48117 0
M  V30 12249 O 1165.51 2.1781 -3.80119 0
M  V30 12250 C 1167.02 3.55976 -2.6419 0
M  V30 12251 H 1164.24 0.432954 -0.512632 0
M  V30 12252 H 1166.78 0.76486 -1.89658 0
M  V30 12253 H 1164.93 3.23735 -2.12778 0
M  V30 12254 H 1165.35 2.96732 -4.32493 0
M  V30 12255 H 1166.82 4.37943 -3.3602 0
M  V30 12256 H 1167.3 4.05133 -1.696 0
M  V30 12257 H 1167.91 3.01014 -3.00451 0
M  V30 12258 N 1166.22 1.31629 0.866686 0
M  V30 12259 C 1167.5 1.12136 1.60265 0
M  V30 12260 C 1167.88 -0.322729 2.08618 0
M  V30 12261 O 1167.23 -1.31738 1.86701 0
M  V30 12262 C 1167.44 2.13845 2.7581 0
M  V30 12263 C 1168.78 2.46541 3.45692 0
M  V30 12264 O 1169.81 2.12298 2.86021 0
M  V30 12265 O 1168.67 3.05194 4.53342 0
M  V30 12266 H 1165.76 0.431923 0.705246 0
M  V30 12267 H 1168.31 1.43119 0.911863 0
M  V30 12268 H 1167.08 3.10967 2.37518 0
M  V30 12269 H 1166.7 1.83786 3.52574 0
M  V30 12270 N 1167.7 -1.08142 1.14644 0
M  V30 12271 C 1168.92 -1.84857 0.940349 0
M  V30 12272 C 1169.35 -1.81163 -0.506117 0
M  V30 12273 O 1168.71 -1.19869 -1.36019 0
M  V30 12274 C 1168.76 -3.30198 1.4492 0
M  V30 12275 O 1167.86 -4.07355 0.64308 0
M  V30 12276 H 1167.2 -0.572711 0.336003 0
M  V30 12277 H 1169.73 -1.36475 1.52432 0
M  V30 12278 H 1169.74 -3.81039 1.45854 0
M  V30 12279 H 1168.42 -3.32202 2.50229 0
M  V30 12280 H 1166.99 -3.66219 0.702698 0
M  V30 12281 N 1169.18 -0.941978 -1.26351 0
M  V30 12282 C 1170.42 -0.600372 -1.94338 0
M  V30 12283 C 1170.78 0.851343 -1.7254 0
M  V30 12284 O 1170.07 1.60116 -1.0523 0
M  V30 12285 C 1170.27 -0.879481 -3.4641 0
M  V30 12286 C 1170.09 -2.35678 -3.82996 0
M  V30 12287 C 1168.86 -3.01208 -4.05712 0
M  V30 12288 C 1171.06 -3.33531 -3.91486 0
M  V30 12289 N 1169.04 -4.38942 -4.29189 0
M  V30 12290 C 1170.42 -4.56525 -4.19506 0
M  V30 12291 C 1172.47 -3.28544 -3.74117 0
M  V30 12292 C 1171.17 -5.75153 -4.31962 0
M  V30 12293 C 1173.2 -4.46498 -3.87806 0
M  V30 12294 C 1172.56 -5.68275 -4.16225 0
M  V30 12295 H 1168.66 -0.270078 -0.733881 0
M  V30 12296 H 1171.24 -1.21155 -1.52413 0
M  V30 12297 H 1169.42 -0.297345 -3.8726 0
M  V30 12298 H 1171.15 -0.499062 -4.01611 0
M  V30 12299 H 1167.9 -2.51823 -4.01101 0
M  V30 12300 H 1168.33 -5.10236 -4.44959 0
M  V30 12301 H 1172.97 -2.35451 -3.51173 0
M  V30 12302 H 1170.69 -6.68699 -4.53727 0
M  V30 12303 H 1174.27 -4.44173 -3.75768 0
M  V30 12304 H 1173.15 -6.58024 -4.26584 0
M  V30 12305 N 1170.66 1.40747 -0.709091 0
M  V30 12306 C 1171.88 2.05841 -0.253816 0
M  V30 12307 C 1172.31 1.53056 1.09341 0
M  V30 12308 O 1171.66 0.663181 1.68735 0
M  V30 12309 C 1171.71 3.59822 -0.236699 0
M  V30 12310 O 1170.82 4.04876 0.784168 0
M  V30 12311 H 1170.16 0.65295 -0.120631 0
M  V30 12312 H 1172.69 1.80266 -0.967749 0
M  V30 12313 H 1172.7 4.07936 -0.0721616 0
M  V30 12314 H 1171.37 3.97608 -1.21988 0
M  V30 12315 H 1169.95 3.68237 0.587884 0
M  V30 12316 N 1172.13 0.454803 1.50895 0
M  V30 12317 C 1173.36 -0.103936 2.06639 0
M  V30 12318 C 1173.78 -1.34943 1.32044 0
M  V30 12319 O 1173.13 -1.78393 0.384972 0
M  V30 12320 C 1173.18 -0.408546 3.59184 0
M  V30 12321 O 1172.91 0.787535 4.30963 0
M  V30 12322 C 1174.41 -1.01605 4.31499 0
M  V30 12323 H 1171.63 -0.000171839 0.671 0
M  V30 12324 H 1174.17 0.638907 1.94263 0
M  V30 12325 H 1172.33 -1.1013 3.71416 0
M  V30 12326 H 1172.74 0.52229 5.21893 0
M  V30 12327 H 1174.21 -1.17906 5.39261 0
M  V30 12328 H 1174.69 -2.00182 3.90927 0
M  V30 12329 H 1175.3 -0.362155 4.23755 0
M  V30 12330 N 1173.61 -1.56489 0.186789 0
M  V30 12331 C 1174.56 -2.20034 -0.754164 0
M  V30 12332 C 1175.55 -1.16899 -1.22601 0
M  V30 12333 O 1176.76 -1.35064 -1.18987 0
M  V30 12334 H 1173.13 -0.705058 -0.261529 0
M  V30 12335 H 1175.11 -2.97766 -0.194418 0
M  V30 12336 C 1173.85 -2.86733 -1.9667 0
M  V30 12337 H 1173.18 -3.65831 -1.61268 0
M  V30 12338 H 1174.62 -3.34645 -2.60363 0
M  V30 12339 C 1173.08 -1.87325 -2.8002 0
M  V30 12340 O 1173.61 -1.36835 -3.77676 0
M  V30 12341 N 1171.81 -1.55738 -2.45345 0
M  V30 12342 H 1171.36 -1.9699 -1.6599 0
M  V30 12343 H 1171.32 -0.894805 -3.01398 0
M  V30 12344 N 1175.09 0.086862 -1.5736 0
M  V30 12345 C 1176 1.12297 -2.05977 0
M  V30 12346 C 1177.02 1.43347 -0.986284 0
M  V30 12347 O 1178.19 1.53825 -1.3 0
M  V30 12348 C 1175.26 2.42131 -2.4814 0
M  V30 12349 C 1174.32 2.18189 -3.69719 0
M  V30 12350 C 1173.55 3.41833 -4.09861 0
M  V30 12351 O 1173.77 4.50383 -3.50016 0
M  V30 12352 O 1172.71 3.30934 -5.02759 0
M  V30 12353 H 1176.53 0.740012 -2.94546 0
M  V30 12354 H 1174.12 0.29995 -1.46358 0
M  V30 12355 H 1176 3.18568 -2.75848 0
M  V30 12356 H 1174.68 2.79837 -1.62705 0
M  V30 12357 H 1173.58 1.39506 -3.47115 0
M  V30 12358 H 1174.92 1.85372 -4.55959 0
M  V30 12359 N 1176.57 1.53483 0.357892 0
M  V30 12360 C 1177.82 1.69256 1.09706 0
M  V30 12361 C 1178.13 0.454888 1.90237 0
M  V30 12362 O 1179.34 0.4933 2.66981 0
M  V30 12363 C 1177.79 2.99238 1.99961 0
M  V30 12364 C 1177.4 4.30293 1.24706 0
M  V30 12365 C 1179.14 3.24378 2.73823 0
M  V30 12366 C 1177.05 5.5136 2.13907 0
M  V30 12367 H 1175.98 0.630657 0.413265 0
M  V30 12368 H 1178.63 1.79983 0.357518 0
M  V30 12369 H 1177.01 2.82332 2.77677 0
M  V30 12370 H 1178.19 4.57857 0.519995 0
M  V30 12371 H 1176.5 4.11656 0.626736 0
M  V30 12372 H 1179.1 4.12015 3.40805 0
M  V30 12373 H 1179.44 2.40769 3.39612 0
M  V30 12374 H 1179.98 3.41994 2.03187 0
M  V30 12375 H 1176.71 6.3747 1.52684 0
M  V30 12376 H 1176.23 5.28065 2.84442 0
M  V30 12377 H 1177.91 5.86448 2.7329 0
M  V30 12378 N 1178.05 -0.61812 1.44973 0
M  V30 12379 C 1179.27 -1.40429 1.51945 0
M  V30 12380 C 1179.69 -1.88215 0.148556 0
M  V30 12381 O 1179.05 -1.61603 -0.847978 0
M  V30 12382 C 1179.1 -2.61588 2.49507 0
M  V30 12383 O 1178.82 -2.15791 3.81269 0
M  V30 12384 C 1180.32 -3.5457 2.66074 0
M  V30 12385 H 1177.54 -0.43023 0.514921 0
M  V30 12386 H 1180.08 -0.754791 1.90061 0
M  V30 12387 H 1178.24 -3.22602 2.14492 0
M  V30 12388 H 1178.65 -2.94434 4.34061 0
M  V30 12389 H 1180.13 -4.36155 3.38338 0
M  V30 12390 H 1180.6 -4.04227 1.71746 0
M  V30 12391 H 1181.21 -2.99416 3.02043 0
M  V30 12392 N 1179.52 -1.32087 -0.859693 0
M  V30 12393 C 1180.77 -1.22542 -1.6159 0
M  V30 12394 C 1181.1 0.213533 -1.93022 0
M  V30 12395 O 1180.38 1.14931 -1.56911 0
M  V30 12396 C 1180.66 -2.08004 -2.93949 0
M  V30 12397 C 1180.51 -3.60252 -2.6933 0
M  V30 12398 C 1181.83 -1.93732 -3.95166 0
M  V30 12399 H 1178.95 -0.446504 -0.586347 0
M  V30 12400 H 1181.59 -1.61982 -0.993064 0
M  V30 12401 H 1179.74 -1.74498 -3.47106 0
M  V30 12402 H 1181.42 -4.03947 -2.22766 0
M  V30 12403 H 1179.66 -3.83169 -2.03382 0
M  V30 12404 H 1180.33 -4.1537 -3.63555 0
M  V30 12405 H 1182.81 -2.23075 -3.5125 0
M  V30 12406 H 1181.68 -2.55815 -4.85644 0
M  V30 12407 H 1181.94 -0.903528 -4.32769 0
M  V30 12408 N 1181 1.07532 -1.15215 0
M  V30 12409 C 1181.95 2.16785 -0.843022 0
M  V30 12410 C 1182.94 1.68411 0.182802 0
M  V30 12411 O 1184.15 1.7996 0.0380164 0
M  V30 12412 H 1180.52 0.707465 -0.254945 0
M  V30 12413 H 1182.5 2.40078 -1.77215 0
M  V30 12414 C 1181.24 3.45967 -0.346699 0
M  V30 12415 H 1180.57 3.83574 -1.12744 0
M  V30 12416 H 1182.01 4.23663 -0.169039 0
M  V30 12417 C 1180.47 3.23768 0.931437 0
M  V30 12418 O 1181 3.48179 2.00336 0
M  V30 12419 N 1179.2 2.77264 0.870217 0
M  V30 12420 H 1178.75 2.576 -0.00226223 0
M  V30 12421 H 1178.71 2.6279 1.72594 0
M  V30 12422 N 1182.48 0.948665 1.2585 0
M  V30 12423 C 1183.73 0.610669 1.94016 0
M  V30 12424 C 1184.08 -0.842181 1.72989 0
M  V30 12425 O 1183.37 -1.59556 1.06078 0
M  V30 12426 C 1183.57 0.89784 3.45939 0
M  V30 12427 C 1183.4 2.37705 3.81741 0
M  V30 12428 C 1182.17 3.03355 4.04109 0
M  V30 12429 C 1184.37 3.35602 3.89712 0
M  V30 12430 N 1182.35 4.41211 4.26856 0
M  V30 12431 C 1183.72 4.58743 4.17079 0
M  V30 12432 C 1185.77 3.30523 3.72369 0
M  V30 12433 C 1184.48 5.77436 4.28906 0
M  V30 12434 C 1186.5 4.48548 3.85433 0
M  V30 12435 C 1185.86 5.70474 4.13205 0
M  V30 12436 H 1181.96 0.273966 0.732439 0
M  V30 12437 H 1184.55 1.21961 1.51768 0
M  V30 12438 H 1182.72 0.317878 3.87097 0
M  V30 12439 H 1184.45 0.520353 4.01341 0
M  V30 12440 H 1181.21 2.53947 3.9976 0
M  V30 12441 H 1181.63 5.12589 4.42247 0
M  V30 12442 H 1186.27 2.3731 3.4992 0
M  V30 12443 H 1183.99 6.71095 4.50174 0
M  V30 12444 H 1187.58 4.46159 3.73408 0
M  V30 12445 H 1186.46 6.60277 4.23088 0
M  V30 12446 N 1183.96 -1.40369 0.716545 0
M  V30 12447 C 1184.91 -2.32539 0.053472 0
M  V30 12448 C 1185.9 -1.5209 -0.745984 0
M  V30 12449 O 1187.11 -1.67883 -0.649245 0
M  V30 12450 H 1183.48 -0.751998 -0.00151088 0
M  V30 12451 H 1185.45 -2.86111 0.847535 0
M  V30 12452 C 1184.2 -3.37061 -0.853515 0
M  V30 12453 H 1183.52 -3.99032 -0.247754 0
M  V30 12454 H 1184.96 -4.04046 -1.28541 0
M  V30 12455 C 1183.42 -2.72619 -1.97941 0
M  V30 12456 O 1183.95 -2.59024 -3.07033 0
M  V30 12457 N 1182.16 -2.30988 -1.76332 0
M  V30 12458 H 1181.71 -2.42246 -0.876063 0
M  V30 12459 H 1181.66 -1.88209 -2.51843 0
M  V30 12460 N 1185.44 -0.462799 -1.50652 0
M  V30 12461 C 1186.4 0.324264 -2.26895 0
M  V30 12462 C 1187.4 0.927687 -1.31342 0
M  V30 12463 O 1188.59 0.798159 -1.54839 0
M  V30 12464 C 1185.72 1.46113 -3.08 0
M  V30 12465 H 1186.91 -0.344266 -2.97917 0
M  V30 12466 H 1184.47 -0.216631 -1.54791 0
M  V30 12467 H 1185.2 2.16496 -2.41454 0
M  V30 12468 H 1184.99 1.03433 -3.78212 0
M  V30 12469 H 1186.48 2.01655 -3.65684 0
M  V30 12470 N 1186.91 1.56388 -0.195085 0
M  V30 12471 C 1188.33 1.8398 0.317513 0
M  V30 12472 C 1188.68 1.11575 1.61386 0
M  V30 12473 O 1187.8 0.376557 2.13099 0
M  V30 12474 C 1188.4 3.33749 0.582859 0
M  V30 12475 C 1186.96 3.61752 1.03983 0
M  V30 12476 C 1186.1 2.77159 0.088434 0
M  V30 12477 H 1189.05 1.53072 -0.418871 0
M  V30 12478 H 1189.07 3.52519 1.43216 0
M  V30 12479 H 1188.59 3.86419 -0.360813 0
M  V30 12480 H 1186.69 3.14515 1.99778 0
M  V30 12481 H 1186.8 4.69937 0.932549 0
M  V30 12482 H 1185.16 2.47765 0.590317 0
M  V30 12483 H 1185.95 3.32619 -0.849682 0
M  V30 12484 N 1188.39 -0.0785156 1.57404 0
M  V30 12485 C 1189.64 -0.778938 1.86919 0
M  V30 12486 C 1189.97 -1.77915 0.785906 0
M  V30 12487 O 1189.22 -1.94473 -0.218811 0
M  V30 12488 C 1189.52 -1.52826 3.23078 0
M  V30 12489 C 1189.19 -0.668645 4.45915 0
M  V30 12490 C 1187.85 -0.43173 4.79259 0
M  V30 12491 C 1190.2 -0.0721327 5.2115 0
M  V30 12492 C 1187.53 0.41129 5.85257 0
M  V30 12493 C 1189.88 0.758303 6.28039 0
M  V30 12494 C 1188.55 1.00515 6.59889 0
M  V30 12495 H 1187.82 -0.285034 0.683986 0
M  V30 12496 H 1190.46 -0.039906 1.91458 0
M  V30 12497 H 1188.77 -2.33931 3.14299 0
M  V30 12498 H 1190.46 -2.07488 3.43147 0
M  V30 12499 H 1187.05 -0.863424 4.19813 0
M  V30 12500 H 1191.24 -0.242297 4.95708 0
M  V30 12501 H 1186.49 0.611354 6.08336 0
M  V30 12502 H 1190.67 1.2273 6.855 0
M  V30 12503 H 1188.3 1.66017 7.41851 0
M  V30 12504 N 1189.87 -1.5367 -0.349747 0
M  V30 12505 C 1190.83 -1.80533 -1.41211 0
M  V30 12506 C 1191.83 -0.676188 -1.45892 0
M  V30 12507 O 1193.02 -0.944453 -1.46375 0
M  V30 12508 C 1190.16 -1.94175 -2.80195 0
M  V30 12509 H 1191.35 -2.75428 -1.18658 0
M  V30 12510 H 1188.9 -1.44988 -0.583787 0
M  V30 12511 H 1189.64 -1.01402 -3.08039 0
M  V30 12512 H 1189.42 -2.76316 -2.78194 0
M  V30 12513 H 1190.91 -2.16496 -3.57098 0
M  V30 12514 N 1191.35 0.610423 -1.45298 0
M  V30 12515 C 1192.59 1.36959 -1.50379 0
M  V30 12516 C 1192.95 1.91872 -0.142378 0
M  V30 12517 O 1192.24 1.71944 0.845332 0
M  V30 12518 C 1192.44 2.53812 -2.51623 0
M  V30 12519 C 1192.27 2.10341 -3.97476 0
M  V30 12520 C 1191.04 1.96646 -4.65466 0
M  V30 12521 C 1193.23 1.67982 -4.86093 0
M  V30 12522 N 1191.22 1.46956 -5.96051 0
M  V30 12523 C 1192.59 1.29686 -6.06285 0
M  V30 12524 C 1194.64 1.55548 -4.72979 0
M  V30 12525 C 1193.34 0.801985 -7.14815 0
M  V30 12526 C 1195.37 1.07465 -5.81554 0
M  V30 12527 C 1194.73 0.701317 -7.009 0
M  V30 12528 H 1190.83 0.495191 -0.605236 0
M  V30 12529 H 1193.42 0.698121 -1.81754 0
M  V30 12530 H 1191.59 3.18558 -2.22205 0
M  V30 12531 H 1193.32 3.20683 -2.4687 0
M  V30 12532 H 1190.07 2.17743 -4.20577 0
M  V30 12533 H 1190.5 1.2435 -6.65482 0
M  V30 12534 H 1195.14 1.83038 -3.81126 0
M  V30 12535 H 1192.86 0.514634 -8.0646 0
M  V30 12536 H 1196.44 0.98274 -5.7344 0
M  V30 12537 H 1195.32 0.334967 -7.83484 0
M  V30 12538 N 1192.83 1.32541 0.852676 0
M  V30 12539 C 1194.07 1.23397 1.60938 0
M  V30 12540 C 1194.41 -0.203294 1.93133 0
M  V30 12541 O 1193.68 -1.14097 1.57519 0
M  V30 12542 C 1193.96 2.0956 2.92842 0
M  V30 12543 C 1193.82 3.61675 2.67416 0
M  V30 12544 C 1195.14 1.95825 3.94133 0
M  V30 12545 H 1192.25 0.449608 0.583971 0
M  V30 12546 H 1194.9 1.62507 0.98446 0
M  V30 12547 H 1193.05 1.76336 3.46176 0
M  V30 12548 H 1194.72 4.05122 2.20621 0
M  V30 12549 H 1192.96 3.84242 2.01347 0
M  V30 12550 H 1193.63 4.17292 3.61347 0
M  V30 12551 H 1196.11 2.24935 3.50062 0
M  V30 12552 H 1194.98 2.58387 4.8428 0
M  V30 12553 H 1195.25 0.926466 4.32284 0
M  V30 12554 N 1194.3 -1.0692 1.15784 0
M  V30 12555 C 1195.53 -1.8331 0.959422 0
M  V30 12556 C 1195.95 -1.82268 -0.492332 0
M  V30 12557 O 1195.3 -1.23727 -1.34156 0
M  V30 12558 C 1195.36 -3.30202 1.47135 0
M  V30 12559 O 1195.08 -3.31328 2.86624 0
M  V30 12560 C 1196.58 -4.23346 1.31504 0
M  V30 12561 H 1193.8 -0.578202 0.340475 0
M  V30 12562 H 1196.34 -1.34939 1.53661 0
M  V30 12563 H 1194.5 -3.75908 0.936587 0
M  V30 12564 H 1194.91 -4.23135 3.0993 0
M  V30 12565 H 1196.38 -5.24465 1.72163 0
M  V30 12566 H 1196.86 -4.38431 0.259773 0
M  V30 12567 H 1197.47 -3.8348 1.83911 0
M  V30 12568 N 1195.78 -0.955326 -1.25345 0
M  V30 12569 C 1196.75 -0.480564 -2.24105 0
M  V30 12570 C 1197.75 0.416123 -1.55322 0
M  V30 12571 O 1198.94 0.213315 -1.72889 0
M  V30 12572 C 1196.07 0.305589 -3.39528 0
M  V30 12573 H 1197.26 -1.35349 -2.6762 0
M  V30 12574 H 1194.81 -0.738673 -1.37744 0
M  V30 12575 H 1195.55 1.19615 -3.01434 0
M  V30 12576 H 1195.33 -0.337719 -3.90643 0
M  V30 12577 H 1196.82 0.627201 -4.12863 0
M  V30 12578 N 1197.26 1.39987 -0.723979 0
M  V30 12579 C 1198.49 2.0474 -0.276618 0
M  V30 12580 C 1198.9 1.54675 1.0896 0
M  V30 12581 O 1198.24 0.701956 1.69759 0
M  V30 12582 C 1198.3 3.59009 -0.187912 0
M  V30 12583 C 1197.97 4.32 -1.49079 0
M  V30 12584 C 1198.97 4.59385 -2.43436 0
M  V30 12585 C 1196.65 4.70753 -1.75204 0
M  V30 12586 C 1198.64 5.24519 -3.62159 0
M  V30 12587 C 1196.33 5.35617 -2.94206 0
M  V30 12588 C 1197.33 5.62431 -3.87506 0
M  V30 12589 O 1197.02 6.25952 -5.0442 0
M  V30 12590 H 1196.75 0.665164 -0.120554 0
M  V30 12591 H 1199.3 1.80226 -0.98527 0
M  V30 12592 H 1197.53 3.82375 0.576753 0
M  V30 12593 H 1199.22 4.0527 0.225993 0
M  V30 12594 H 1199.99 4.29902 -2.24519 0
M  V30 12595 H 1195.87 4.49247 -1.03433 0
M  V30 12596 H 1199.41 5.45364 -4.34999 0
M  V30 12597 H 1195.31 5.64521 -3.13029 0
M  V30 12598 H 1196.08 6.44448 -5.04608 0
M  V30 12599 N 1198.74 0.470782 1.50404 0
M  V30 12600 C 1199.67 -0.313458 2.31386 0
M  V30 12601 C 1200.65 -0.990623 1.38278 0
M  V30 12602 O 1201.84 -0.987854 1.67198 0
M  V30 12603 C 1198.97 -1.39599 3.18009 0
M  V30 12604 C 1197.92 -0.840443 4.19667 0
M  V30 12605 C 1197.25 -2.02124 4.95025 0
M  V30 12606 C 1198.55 0.148055 5.2209 0
M  V30 12607 H 1200.24 0.362432 2.97198 0
M  V30 12608 H 1197.79 0.175745 1.42924 0
M  V30 12609 H 1199.74 -1.9521 3.73458 0
M  V30 12610 H 1198.46 -2.10064 2.50081 0
M  V30 12611 H 1197.12 -0.306302 3.65318 0
M  V30 12612 H 1196.77 -2.71286 4.23571 0
M  V30 12613 H 1196.47 -1.65574 5.6379 0
M  V30 12614 H 1197.99 -2.58226 5.5331 0
M  V30 12615 H 1199.41 -0.318874 5.72413 0
M  V30 12616 H 1197.8 0.427811 5.98573 0
M  V30 12617 H 1198.87 1.07404 4.72855 0
M  V30 12618 N 1200.22 -1.56282 0.203376 0
M  V30 12619 C 1201.49 -1.89587 -0.481256 0
M  V30 12620 C 1201.87 -1.11812 -1.79057 0
M  V30 12621 O 1201.22 -0.221759 -2.27421 0
M  V30 12622 C 1201.43 -3.42071 -0.691965 0
M  V30 12623 C 1202.78 -4.12471 -1.00761 0
M  V30 12624 O 1203.8 -3.47568 -0.779396 0
M  V30 12625 O 1202.66 -5.27194 -1.43974 0
M  V30 12626 H 1199.76 -0.787682 -0.251963 0
M  V30 12627 H 1202.3 -1.67934 0.244207 0
M  V30 12628 H 1201.08 -3.9061 0.232322 0
M  V30 12629 H 1200.7 -3.69444 -1.46958 0
M  V30 12630 N 1201.7 0.070167 -1.57444 0
M  V30 12631 C 1202.61 1.10106 -2.07157 0
M  V30 12632 C 1203.62 1.42293 -1.00143 0
M  V30 12633 O 1204.8 1.52437 -1.31624 0
M  V30 12634 C 1201.86 2.39486 -2.50694 0
M  V30 12635 C 1200.92 2.14255 -3.72012 0
M  V30 12636 C 1200.16 3.37466 -4.13464 0
M  V30 12637 O 1200.38 4.46645 -3.54773 0
M  V30 12638 O 1199.31 3.25583 -5.0624 0
M  V30 12639 H 1203.14 0.70873 -2.95315 0
M  V30 12640 H 1200.72 0.28441 -1.46668 0
M  V30 12641 H 1202.61 3.15625 -2.79212 0
M  V30 12642 H 1201.28 2.78095 -1.65664 0
M  V30 12643 H 1200.19 1.35816 -3.48575 0
M  V30 12644 H 1201.52 1.80525 -4.57899 0
M  V30 12645 N 1203.17 1.53854 0.341593 0
M  V30 12646 C 1204.11 1.78295 1.44027 0
M  V30 12647 C 1205.12 0.664303 1.4863 0
M  V30 12648 O 1206.31 0.941073 1.51678 0
M  V30 12649 C 1203.41 1.86947 2.82673 0
M  V30 12650 C 1202.58 3.16898 3.01487 0
M  V30 12651 C 1201.64 3.16483 4.20386 0
M  V30 12652 O 1200.67 3.90197 4.14409 0
M  V30 12653 N 1201.87 2.3899 5.29022 0
M  V30 12654 H 1204.63 2.73102 1.23431 0
M  V30 12655 H 1202.19 1.52928 0.531483 0
M  V30 12656 H 1204.19 1.84118 3.60392 0
M  V30 12657 H 1202.76 0.993169 2.96403 0
M  V30 12658 H 1201.98 3.32835 2.11221 0
M  V30 12659 H 1203.26 4.02733 3.1094 0
M  V30 12660 H 1202.66 1.78657 5.36748 0
M  V30 12661 H 1201.22 2.41957 6.05227 0
M  V30 12662 N 1204.65 -0.602709 1.4562 0
M  V30 12663 C 1205.88 -1.38608 1.53203 0
M  V30 12664 C 1206.29 -1.88478 0.165098 0
M  V30 12665 O 1205.63 -1.63142 -0.844421 0
M  V30 12666 C 1205.69 -2.62214 2.45935 0
M  V30 12667 C 1205.36 -2.3395 3.92577 0
M  V30 12668 C 1206.36 -1.94011 4.82344 0
M  V30 12669 C 1204.04 -2.46711 4.37537 0
M  V30 12670 C 1206.03 -1.67202 6.15079 0
M  V30 12671 C 1203.72 -2.19515 5.70313 0
M  V30 12672 C 1204.72 -1.79823 6.58903 0
M  V30 12673 O 1204.41 -1.52948 7.89216 0
M  V30 12674 H 1204.14 -0.43052 0.52118 0
M  V30 12675 H 1206.69 -0.741655 1.91543 0
M  V30 12676 H 1204.92 -3.29394 2.02575 0
M  V30 12677 H 1206.61 -3.24264 2.44147 0
M  V30 12678 H 1207.38 -1.83684 4.48871 0
M  V30 12679 H 1203.26 -2.76572 3.68821 0
M  V30 12680 H 1206.8 -1.36146 6.84186 0
M  V30 12681 H 1202.7 -2.2946 6.03339 0
M  V30 12682 H 1203.47 -1.6696 8.01291 0
M  V30 12683 N 1206.13 -1.32992 -0.845635 0
M  V30 12684 C 1207.36 -1.27087 -1.63268 0
M  V30 12685 C 1207.77 0.159481 -1.88125 0
M  V30 12686 O 1207.13 1.09948 -1.45663 0
M  V30 12687 C 1207.18 -2.03649 -2.98679 0
M  V30 12688 O 1206.9 -3.41104 -2.74918 0
M  V30 12689 C 1208.4 -2.04875 -3.93117 0
M  V30 12690 H 1205.62 -0.438107 -0.508236 0
M  V30 12691 H 1208.17 -1.75257 -1.05381 0
M  V30 12692 H 1206.32 -1.59178 -3.53187 0
M  V30 12693 H 1206.74 -3.80405 -3.61099 0
M  V30 12694 H 1208.21 -2.62911 -4.85368 0
M  V30 12695 H 1208.69 -1.03728 -4.26775 0
M  V30 12696 H 1209.29 -2.49334 -3.44547 0
M  V30 12697 N 1207.61 1.06304 -1.1635 0
M  V30 12698 C 1208.88 1.75916 -0.855166 0
M  V30 12699 C 1209.26 2.0094 0.647024 0
M  V30 12700 O 1208.61 1.63642 1.59479 0
M  V30 12701 C 1208.82 3.06028 -1.67774 0
M  V30 12702 C 1210.17 3.80184 -1.89065 0
M  V30 12703 O 1211.19 3.15868 -1.64639 0
M  V30 12704 O 1210.05 4.95723 -2.30045 0
M  V30 12705 H 1207.15 0.764432 -0.315551 0
M  V30 12706 H 1209.69 1.12574 -1.26985 0
M  V30 12707 H 1208.47 2.83498 -2.69712 0
M  V30 12708 H 1208.09 3.77104 -1.26009 0
M  V30 12709 N 1209.09 0.96196 1.24836 0
M  V30 12710 C 1210.31 0.637709 1.97353 0
M  V30 12711 C 1210.74 -0.784919 1.7094 0
M  V30 12712 O 1210.09 -1.53188 0.969694 0
M  V30 12713 C 1210.14 0.911485 3.4889 0
M  V30 12714 O 1209.25 -0.00601668 4.124 0
M  V30 12715 H 1208.59 0.241685 0.618453 0
M  V30 12716 H 1211.12 1.29055 1.58764 0
M  V30 12717 H 1211.13 0.840702 3.99245 0
M  V30 12718 H 1209.8 1.9483 3.67442 0
M  V30 12719 H 1208.38 0.117597 3.72715 0
M  V30 12720 N 1210.56 -1.39601 0.731392 0
M  V30 12721 C 1211.47 -2.34425 0.090527 0
M  V30 12722 C 1212.49 -1.58131 -0.725992 0
M  V30 12723 O 1213.67 -1.90441 -0.655294 0
M  V30 12724 C 1210.73 -3.37138 -0.808624 0
M  V30 12725 C 1209.79 -4.29295 0.0197365 0
M  V30 12726 C 1209.02 -5.27102 -0.836593 0
M  V30 12727 O 1209.25 -5.31302 -2.07543 0
M  V30 12728 O 1208.18 -6.01307 -0.267172 0
M  V30 12729 H 1212.01 -2.9088 0.873084 0
M  V30 12730 H 1209.59 -1.41066 0.492024 0
M  V30 12731 H 1211.47 -4.00087 -1.32319 0
M  V30 12732 H 1210.15 -2.83074 -1.57006 0
M  V30 12733 H 1209.06 -3.69581 0.579744 0
M  V30 12734 H 1210.39 -4.86555 0.743308 0
M  V30 12735 N 1212.04 -0.478751 -1.50152 0
M  V30 12736 C 1213.27 0.0710485 -2.06778 0
M  V30 12737 C 1213.69 1.32826 -1.34174 0
M  V30 12738 O 1213.04 1.77758 -0.413304 0
M  V30 12739 C 1213.09 0.351351 -3.59789 0
M  V30 12740 O 1212.81 -0.855998 -4.29656 0
M  V30 12741 C 1214.32 0.947269 -4.33061 0
M  V30 12742 H 1211.54 -0.0105032 -0.670918 0
M  V30 12743 H 1214.08 -0.669732 -1.93222 0
M  V30 12744 H 1212.23 1.04207 -3.73121 0
M  V30 12745 H 1212.65 -0.605252 -5.20996 0
M  V30 12746 H 1214.12 1.09312 -5.41068 0
M  V30 12747 H 1214.6 1.93937 -3.94062 0
M  V30 12748 H 1215.21 0.294693 -4.24278 0
M  V30 12749 N 1213.52 1.56172 -0.211661 0
M  V30 12750 C 1214.8 1.8984 0.471195 0
M  V30 12751 C 1215.18 1.1276 1.78461 0
M  V30 12752 O 1214.53 0.233817 2.27301 0
M  V30 12753 C 1214.74 3.42434 0.673814 0
M  V30 12754 C 1216.08 4.13 0.985719 0
M  V30 12755 O 1217.11 3.47977 0.760953 0
M  V30 12756 O 1215.97 5.2795 1.41176 0
M  V30 12757 H 1213.06 0.789008 0.247782 0
M  V30 12758 H 1215.61 1.67802 -0.25311 0
M  V30 12759 H 1214.38 3.90481 -0.253034 0
M  V30 12760 H 1214 3.70218 1.44997 0
M  V30 12761 N 1215 -0.0618163 1.57479 0
M  V30 12762 C 1215.95 -1.0724 2.04373 0
M  V30 12763 C 1216.92 -1.37875 0.926271 0
M  V30 12764 O 1218.1 -1.48772 1.19463 0
M  V30 12765 C 1215.24 -2.37805 2.50085 0
M  V30 12766 C 1214.35 -2.13614 3.7549 0
M  V30 12767 C 1213.49 -3.37814 4.09945 0
M  V30 12768 C 1212.53 -3.09032 5.28361 0
M  V30 12769 N 1211.66 -4.25591 5.58406 0
M  V30 12770 H 1216.5 -0.665536 2.90473 0
M  V30 12771 H 1214.04 -0.317043 1.43643 0
M  V30 12772 H 1216 -3.14048 2.74644 0
M  V30 12773 H 1214.63 -2.76275 1.66948 0
M  V30 12774 H 1213.68 -1.28017 3.58212 0
M  V30 12775 H 1214.99 -1.88361 4.61867 0
M  V30 12776 H 1214.15 -4.22447 4.35458 0
M  V30 12777 H 1212.89 -3.66153 3.22154 0
M  V30 12778 H 1211.89 -2.22797 5.02635 0
M  V30 12779 H 1213.12 -2.82006 6.17778 0
M  V30 12780 H 1211.06 -4.53941 4.73575 0
M  V30 12781 H 1210.98 -4.03646 6.39223 0
M  V30 12782 H 1212.25 -5.11191 5.88476 0
M  V30 12783 N 1216.48 -1.54033 -0.333429 0
M  V30 12784 C 1217.72 -1.72019 -1.07411 0
M  V30 12785 C 1218.06 -0.487265 -1.87988 0
M  V30 12786 O 1217.33 0.515757 -1.87537 0
M  V30 12787 C 1217.61 -2.98986 -2.00698 0
M  V30 12788 C 1217.47 -4.32509 -1.23517 0
M  V30 12789 C 1218.79 -3.21663 -3.00368 0
M  V30 12790 H 1215.9 -0.625919 -0.389094 0
M  V30 12791 H 1218.55 -1.86717 -0.351697 0
M  V30 12792 H 1216.7 -2.86586 -2.62298 0
M  V30 12793 H 1218.37 -4.56775 -0.644522 0
M  V30 12794 H 1216.61 -4.3046 -0.537298 0
M  V30 12795 H 1217.28 -5.17547 -1.91962 0
M  V30 12796 H 1219.76 -3.33459 -2.48886 0
M  V30 12797 H 1218.63 -4.11877 -3.62834 0
M  V30 12798 H 1218.9 -2.3843 -3.72295 0
M  V30 12799 N 1217.95 0.594978 -1.45938 0
M  V30 12800 C 1219.18 1.37994 -1.5416 0
M  V30 12801 C 1219.6 1.87954 -0.17848 0
M  V30 12802 O 1218.95 1.62932 0.822161 0
M  V30 12803 C 1219.01 2.57586 -2.53637 0
M  V30 12804 O 1218.73 2.09698 -3.84653 0
M  V30 12805 C 1220.23 3.50292 -2.71681 0
M  V30 12806 H 1217.45 0.421983 -0.5217 0
M  V30 12807 H 1219.99 0.724459 -1.91238 0
M  V30 12808 H 1218.15 3.19149 -2.19597 0
M  V30 12809 H 1218.56 2.87492 -4.3869 0
M  V30 12810 H 1220.03 4.30717 -3.45234 0
M  V30 12811 H 1220.51 4.01444 -1.78156 0
M  V30 12812 H 1221.12 2.94573 -3.06768 0
M  V30 12813 N 1219.43 1.33438 0.838571 0
M  V30 12814 C 1220.68 1.24259 1.58879 0
M  V30 12815 C 1220.99 -0.189957 1.94675 0
M  V30 12816 O 1222.2 -0.40376 2.68481 0
M  V30 12817 C 1220.66 2.1773 2.86569 0
M  V30 12818 C 1220.26 3.66156 2.58135 0
M  V30 12819 C 1222.01 2.17424 3.64591 0
M  V30 12820 C 1219.92 4.5154 3.81923 0
M  V30 12821 H 1218.85 0.461534 0.59624 0
M  V30 12822 H 1221.5 1.58504 0.924588 0
M  V30 12823 H 1219.88 1.76418 3.54532 0
M  V30 12824 H 1221.05 4.1591 1.98382 0
M  V30 12825 H 1219.37 3.68754 1.93416 0
M  V30 12826 H 1221.96 2.78446 4.56478 0
M  V30 12827 H 1222.31 1.16939 3.99539 0
M  V30 12828 H 1222.84 2.571 3.03553 0
M  V30 12829 H 1219.58 5.52902 3.52107 0
M  V30 12830 H 1219.1 4.06529 4.41015 0
M  V30 12831 H 1220.78 4.65359 4.495 0
M  V30 12832 N 1220.91 -1.05686 1.16912 0
M  V30 12833 C 1222.19 -1.7546 0.864483 0
M  V30 12834 C 1222.57 -2.0128 -0.636359 0
M  V30 12835 O 1221.92 -1.64485 -1.58609 0
M  V30 12836 C 1222.13 -3.05134 1.69395 0
M  V30 12837 C 1223.47 -3.79176 1.91079 0
M  V30 12838 O 1224.5 -3.1499 1.66312 0
M  V30 12839 O 1223.36 -4.94496 2.32671 0
M  V30 12840 H 1220.45 -0.762748 0.319601 0
M  V30 12841 H 1223 -1.11899 1.27581 0
M  V30 12842 H 1221.77 -2.82063 2.71212 0
M  V30 12843 H 1221.39 -3.76431 1.28007 0
M  V30 12844 N 1222.39 -0.968567 -1.24324 0
M  V30 12845 C 1223.61 -0.648166 -1.97012 0
M  V30 12846 C 1224.04 0.775842 -1.71354 0
M  V30 12847 O 1223.4 1.52672 -0.977804 0
M  V30 12848 C 1223.44 -0.929974 -3.48402 0
M  V30 12849 O 1222.55 -0.015854 -4.12397 0
M  V30 12850 H 1221.89 -0.244961 -0.617163 0
M  V30 12851 H 1224.42 -1.29895 -1.58077 0
M  V30 12852 H 1224.43 -0.861863 -3.98793 0
M  V30 12853 H 1223.1 -1.96776 -3.66404 0
M  V30 12854 H 1221.68 -0.137361 -3.72647 0
M  V30 12855 N 1223.87 1.39211 -0.738786 0
M  V30 12856 C 1225.28 1.83237 -0.357916 0
M  V30 12857 C 1225.63 1.61698 1.11123 0
M  V30 12858 O 1224.75 1.11017 1.85753 0
M  V30 12859 C 1225.35 3.32645 -0.64285 0
M  V30 12860 C 1223.91 3.75076 -0.315432 0
M  V30 12861 C 1223.05 2.62166 -0.903556 0
M  V30 12862 H 1226.01 1.2815 -0.936127 0
M  V30 12863 H 1226.03 3.80407 0.0840812 0
M  V30 12864 H 1225.54 3.4829 -1.71218 0
M  V30 12865 H 1223.64 3.65017 0.747907 0
M  V30 12866 H 1223.75 4.72363 -0.800638 0
M  V30 12867 H 1222.12 2.52554 -0.329927 0
M  V30 12868 H 1222.9 2.80616 -1.97761 0
M  V30 12869 N 1225.34 0.486708 1.49896 0
M  V30 12870 C 1226.59 -0.0629451 2.02702 0
M  V30 12871 C 1226.92 -1.37956 1.36681 0
M  V30 12872 O 1226.2 -1.88025 0.497678 0
M  V30 12873 C 1226.48 -0.230461 3.59362 0
M  V30 12874 C 1226.33 1.10828 4.35933 0
M  V30 12875 C 1227.65 -0.977785 4.29101 0
M  V30 12876 H 1224.77 -0.0214017 0.736689 0
M  V30 12877 H 1227.41 0.635339 1.79063 0
M  V30 12878 H 1225.56 -0.825222 3.79634 0
M  V30 12879 H 1227.24 1.74082 4.27192 0
M  V30 12880 H 1225.48 1.7011 3.99055 0
M  V30 12881 H 1226.15 0.944532 5.43859 0
M  V30 12882 H 1228.63 -0.473505 4.13397 0
M  V30 12883 H 1227.5 -1.06382 5.38492 0
M  V30 12884 H 1227.76 -2.01813 3.9335 0
M  V30 12885 N 1226.82 -1.56058 0.219941 0
M  V30 12886 C 1227.79 -2.18964 -0.677303 0
M  V30 12887 C 1228.79 -1.15105 -1.12283 0
M  V30 12888 O 1229.98 -1.40348 -1.03189 0
M  V30 12889 C 1227.11 -2.81167 -1.92764 0
M  V30 12890 H 1228.3 -2.99623 -0.128877 0
M  V30 12891 H 1225.85 -1.56272 -0.0296744 0
M  V30 12892 H 1226.59 -2.04374 -2.51797 0
M  V30 12893 H 1226.37 -3.5722 -1.61666 0
M  V30 12894 H 1227.86 -3.29391 -2.56693 0
M  V30 12895 N 1228.3 0.053464 -1.57509 0
M  V30 12896 C 1229.55 0.747622 -1.87763 0
M  V30 12897 C 1229.87 1.77178 -0.814433 0
M  V30 12898 O 1229.14 1.95287 0.154862 0
M  V30 12899 H 1227.72 0.279109 -0.692898 0
M  V30 12900 H 1230.38 0.0252006 -1.94884 0
M  V30 12901 H 1229.48 1.25244 -2.85868 0
M  V30 12902 N 1229.78 1.54207 0.325255 0
M  V30 12903 C 1230.69 1.86495 1.42326 0
M  V30 12904 C 1231.71 0.756718 1.56684 0
M  V30 12905 O 1232.88 1.05084 1.71812 0
M  V30 12906 C 1229.95 2.08414 2.77064 0
M  V30 12907 C 1229.01 3.32221 2.71897 0
M  V30 12908 C 1228.24 3.53085 4.00209 0
M  V30 12909 O 1228.46 2.77421 4.98391 0
M  V30 12910 O 1227.4 4.46559 4.0357 0
M  V30 12911 H 1231.22 2.79859 1.17951 0
M  V30 12912 H 1228.81 1.40091 0.519124 0
M  V30 12913 H 1230.69 2.24171 3.56827 0
M  V30 12914 H 1229.37 1.18238 3.01333 0
M  V30 12915 H 1228.27 3.21851 1.90691 0
M  V30 12916 H 1229.61 4.22449 2.52582 0
M  V30 12917 N 1231.26 -0.58723 1.46251 0
M  V30 12918 C 1232.67 -0.910129 1.31106 0
M  V30 12919 C 1232.87 -1.99557 0.279141 0
M  V30 12920 O 1231.93 -2.50466 -0.319867 0
M  V30 12921 C 1233.24 -1.33177 2.69601 0
M  V30 12922 C 1234.79 -1.44486 2.77656 0
M  V30 12923 C 1235.27 -1.90018 4.16722 0
M  V30 12924 N 1236.76 -1.97219 4.19117 0
M  V30 12925 C 1237.49 -2.33714 5.23608 0
M  V30 12926 N 1236.99 -2.69034 6.3843 0
M  V30 12927 N 1238.78 -2.3423 5.10972 0
M  V30 12928 H 1230.93 0.12987 2.12003 0
M  V30 12929 H 1233.19 -0.00456718 0.947989 0
M  V30 12930 H 1232.9 -0.608243 3.464 0
M  V30 12931 H 1232.77 -2.29421 2.99409 0
M  V30 12932 H 1235.16 -2.15926 2.01147 0
M  V30 12933 H 1235.24 -0.465047 2.51537 0
M  V30 12934 H 1234.89 -1.19159 4.93724 0
M  V30 12935 H 1234.82 -2.88949 4.40245 0
M  V30 12936 H 1237.31 -1.72431 3.36268 0
M  V30 12937 H 1237.62 -2.95822 7.13939 0
M  V30 12938 H 1235.97 -2.66683 6.41798 0
M  V30 12939 H 1239.16 -2.06056 4.20308 0
M  V30 12940 H 1239.33 -2.62345 5.92519 0
M  V30 12941 N 1232.74 -1.33881 -0.831482 0
M  V30 12942 C 1233.98 -1.25755 -1.58719 0
M  V30 12943 C 1234.31 0.174746 -1.93713 0
M  V30 12944 O 1233.57 1.13384 -1.59507 0
M  V30 12945 C 1233.86 -2.08544 -2.90249 0
M  V30 12946 C 1233.53 -3.57651 -2.74585 0
M  V30 12947 C 1232.19 -3.983 -2.7002 0
M  V30 12948 C 1234.54 -4.52369 -2.58866 0
M  V30 12949 C 1231.87 -5.31872 -2.47647 0
M  V30 12950 C 1234.22 -5.86112 -2.38025 0
M  V30 12951 C 1232.89 -6.25934 -2.31867 0
M  V30 12952 H 1232.16 -0.460171 -0.580796 0
M  V30 12953 H 1234.81 -1.6554 -0.96274 0
M  V30 12954 H 1233.11 -1.6156 -3.56939 0
M  V30 12955 H 1234.81 -1.99609 -3.47789 0
M  V30 12956 H 1231.4 -3.2538 -2.78973 0
M  V30 12957 H 1235.58 -4.21868 -2.61421 0
M  V30 12958 H 1230.84 -5.61756 -2.41331 0
M  V30 12959 H 1235.01 -6.59103 -2.24847 0
M  V30 12960 H 1232.64 -7.29372 -2.14291 0
M  V30 12961 N 1234.21 1.05064 -1.1747 0
M  V30 12962 C 1235.12 2.16346 -0.907286 0
M  V30 12963 C 1236.14 1.7355 0.125013 0
M  V30 12964 O 1237.32 2.01326 -0.0545551 0
M  V30 12965 C 1234.38 3.44077 -0.425681 0
M  V30 12966 C 1233.44 4.01311 -1.52473 0
M  V30 12967 C 1232.67 5.22946 -1.06601 0
M  V30 12968 O 1232.9 5.70345 0.0793329 0
M  V30 12969 O 1231.83 5.72454 -1.85958 0
M  V30 12970 H 1235.66 2.41754 -1.83817 0
M  V30 12971 H 1233.24 1.14834 -0.955693 0
M  V30 12972 H 1235.12 4.21078 -0.164689 0
M  V30 12973 H 1233.8 3.20166 0.477037 0
M  V30 12974 H 1232.71 3.25744 -1.83961 0
M  V30 12975 H 1234.04 4.29543 -2.4032 0
M  V30 12976 N 1235.69 0.975146 1.23809 0
M  V30 12977 C 1236.65 0.516157 2.23312 0
M  V30 12978 C 1237.65 -0.39136 1.55965 0
M  V30 12979 O 1238.84 -0.185783 1.73206 0
M  V30 12980 C 1235.98 -0.251534 3.39971 0
M  V30 12981 H 1237.17 1.3959 2.65433 0
M  V30 12982 H 1234.72 0.760493 1.36551 0
M  V30 12983 H 1235.46 -1.14805 3.03299 0
M  V30 12984 H 1235.24 0.399825 3.90056 0
M  V30 12985 H 1236.73 -0.561438 4.13809 0
M  V30 12986 N 1237.17 -1.38817 0.746158 0
M  V30 12987 C 1238.42 -1.99885 0.298425 0
M  V30 12988 C 1238.74 -1.59518 -1.12156 0
M  V30 12989 O 1238.01 -0.848568 -1.76568 0
M  V30 12990 H 1236.59 -0.739247 0.107347 0
M  V30 12991 H 1239.25 -1.69696 0.9586 0
M  V30 12992 H 1238.35 -3.10067 0.355656 0
M  V30 12993 N 1238.65 -0.49465 -1.49636 0
M  V30 12994 C 1239.59 0.287153 -2.29007 0
M  V30 12995 C 1240.56 0.966099 -1.35114 0
M  V30 12996 O 1241.75 0.973991 -1.64067 0
M  V30 12997 C 1238.89 1.34941 -3.17624 0
M  V30 12998 C 1238 0.682879 -4.26569 0
M  V30 12999 C 1237.14 1.72503 -5.0241 0
M  V30 13000 C 1236.18 1.04003 -6.032 0
M  V30 13001 N 1235.31 2.0261 -6.7223 0
M  V30 13002 H 1240.15 -0.395941 -2.95358 0
M  V30 13003 H 1237.69 -0.207103 -1.45635 0
M  V30 13004 H 1239.65 1.9772 -3.67372 0
M  V30 13005 H 1238.28 2.00135 -2.5327 0
M  V30 13006 H 1237.33 -0.0580477 -3.80356 0
M  V30 13007 H 1238.64 0.143334 -4.98594 0
M  V30 13008 H 1237.8 2.42804 -5.55996 0
M  V30 13009 H 1236.54 2.29843 -4.30144 0
M  V30 13010 H 1235.54 0.322765 -5.48852 0
M  V30 13011 H 1236.77 0.473219 -6.77449 0
M  V30 13012 H 1234.71 2.58922 -6.0274 0
M  V30 13013 H 1234.63 1.53704 -7.4021 0
M  V30 13014 H 1235.9 2.72218 -7.30423 0
M  V30 13015 N 1240.13 1.55939 -0.228214 0
M  V30 13016 C 1241.4 1.90329 0.451033 0
M  V30 13017 C 1241.78 1.14646 1.77255 0
M  V30 13018 O 1241.13 0.257912 2.2704 0
M  V30 13019 C 1241.34 3.43129 0.637456 0
M  V30 13020 C 1242.69 4.14022 0.94186 0
M  V30 13021 O 1243.71 3.48764 0.724002 0
M  V30 13022 O 1242.57 5.29418 1.35568 0
M  V30 13023 H 1239.67 0.791591 0.2394 0
M  V30 13024 H 1242.21 1.67524 -0.270893 0
M  V30 13025 H 1240.98 3.90191 -0.294435 0
M  V30 13026 H 1240.61 3.71735 1.41062 0
M  V30 13027 N 1241.6 -0.0451101 1.57535 0
M  V30 13028 C 1242.85 -0.738072 1.87711 0
M  V30 13029 C 1243.17 -1.7737 0.824579 0
M  V30 13030 O 1244.37 -2.51812 1.01503 0
M  V30 13031 C 1242.83 -1.36373 3.33062 0
M  V30 13032 C 1242.44 -0.365283 4.46508 0
M  V30 13033 C 1244.18 -2.0375 3.72406 0
M  V30 13034 C 1242.09 -0.998371 5.82912 0
M  V30 13035 H 1241.02 -0.279413 0.700317 0
M  V30 13036 H 1243.67 0.00802425 1.83498 0
M  V30 13037 H 1242.05 -2.15899 3.31969 0
M  V30 13038 H 1243.22 0.402102 4.59042 0
M  V30 13039 H 1241.54 0.205505 4.15893 0
M  V30 13040 H 1244.14 -2.51939 4.71625 0
M  V30 13041 H 1244.48 -2.84869 3.03571 0
M  V30 13042 H 1245.01 -1.3102 3.75604 0
M  V30 13043 H 1241.75 -0.226935 6.55107 0
M  V30 13044 H 1241.27 -1.73598 5.74129 0
M  V30 13045 H 1242.95 -1.51044 6.29122 0
M  V30 13046 N 1243.08 -1.54377 -0.317073 0
M  V30 13047 C 1244.03 -1.84948 -1.41057 0
M  V30 13048 C 1245.02 -0.721887 -1.53249 0
M  V30 13049 O 1246.23 -0.905648 -1.55557 0
M  V30 13050 H 1242.61 -0.586353 -0.470844 0
M  V30 13051 H 1244.58 -2.7638 -1.12501 0
M  V30 13052 C 1243.33 -2.09932 -2.77171 0
M  V30 13053 H 1242.65 -2.96162 -2.68566 0
M  V30 13054 H 1244.09 -2.35272 -3.52737 0
M  V30 13055 C 1242.55 -0.892855 -3.24853 0
M  V30 13056 O 1243.08 -0.105336 -4.01562 0
M  V30 13057 N 1241.28 -0.702685 -2.81976 0
M  V30 13058 H 1240.83 -1.34474 -2.19715 0
M  V30 13059 H 1240.79 0.103024 -3.14231 0
M  V30 13060 N 1244.56 0.579466 -1.4656 0
M  V30 13061 C 1245.81 1.33379 -1.51304 0
M  V30 13062 C 1246.12 1.94855 -0.170507 0
M  V30 13063 O 1247.33 2.71331 -0.0957704 0
M  V30 13064 C 1245.78 2.41748 -2.66619 0
M  V30 13065 C 1245.39 1.8656 -4.07307 0
M  V30 13066 C 1247.14 3.18502 -2.80636 0
M  V30 13067 C 1245.04 2.92578 -5.13957 0
M  V30 13068 H 1243.97 0.501422 -0.56311 0
M  V30 13069 H 1246.62 0.618025 -1.72779 0
M  V30 13070 H 1245.01 3.16138 -2.3848 0
M  V30 13071 H 1246.18 1.18692 -4.45252 0
M  V30 13072 H 1244.5 1.22464 -3.97984 0
M  V30 13073 H 1247.09 3.9763 -3.57483 0
M  V30 13074 H 1247.44 3.71295 -1.8827 0
M  V30 13075 H 1247.97 2.51219 -3.08437 0
M  V30 13076 H 1244.71 2.44668 -6.08126 0
M  V30 13077 H 1244.23 3.58926 -4.80554 0
M  V30 13078 H 1245.91 3.56471 -5.39942 0
M  V30 13079 N 1246.04 1.3432 0.824371 0
M  V30 13080 C 1247.45 1.1397 1.11727 0
M  V30 13081 C 1247.65 -0.0597597 2.01411 0
M  V30 13082 O 1246.71 -0.735717 2.41544 0
M  V30 13083 C 1248.02 2.43423 1.76538 0
M  V30 13084 C 1249.57 2.49466 1.89039 0
M  V30 13085 C 1250.05 3.78917 2.57266 0
M  V30 13086 N 1251.54 3.8007 2.64767 0
M  V30 13087 C 1252.27 4.76953 3.18282 0
M  V30 13088 N 1251.77 5.84217 3.72373 0
M  V30 13089 N 1253.56 4.6441 3.1667 0
M  V30 13090 H 1245.71 2.11175 0.227802 0
M  V30 13091 H 1247.98 0.933774 0.163615 0
M  V30 13092 H 1247.68 3.31278 1.18102 0
M  V30 13093 H 1247.56 2.56655 2.7642 0
M  V30 13094 H 1249.94 1.62052 2.46623 0
M  V30 13095 H 1250.02 2.40163 0.880635 0
M  V30 13096 H 1249.67 4.6672 2.00336 0
M  V30 13097 H 1249.6 3.85502 3.58742 0
M  V30 13098 H 1252.09 3.02556 2.26425 0
M  V30 13099 H 1252.4 6.54159 4.11455 0
M  V30 13100 H 1250.75 5.87933 3.70621 0
M  V30 13101 H 1253.94 3.7976 2.73678 0
M  V30 13102 H 1254.11 5.40081 3.58073 0
M  V30 13103 N 1247.52 -1.0444 1.18026 0
M  V30 13104 C 1248.74 -1.81234 0.998089 0
M  V30 13105 C 1249.16 -1.83271 -0.453559 0
M  V30 13106 O 1248.52 -1.26545 -1.31502 0
M  V30 13107 C 1248.57 -3.27007 1.54106 0
M  V30 13108 O 1248.29 -3.25174 2.93587 0
M  V30 13109 C 1249.79 -4.20461 1.40455 0
M  V30 13110 H 1247.01 -0.57085 0.352663 0
M  V30 13111 H 1249.55 -1.31649 1.56489 0
M  V30 13112 H 1247.71 -3.73837 1.01611 0
M  V30 13113 H 1248.12 -4.16466 3.18836 0
M  V30 13114 H 1249.6 -5.20695 1.83249 0
M  V30 13115 H 1250.07 -4.37781 0.352713 0
M  V30 13116 H 1250.68 -3.79493 1.92004 0
M  V30 13117 N 1248.99 -0.981699 -1.2329 0
M  V30 13118 C 1250.24 -0.652266 -1.92024 0
M  V30 13119 C 1250.57 0.812297 -1.76396 0
M  V30 13120 O 1249.85 1.5861 -1.12575 0
M  V30 13121 C 1250.13 -1.04506 -3.44602 0
M  V30 13122 C 1249.98 -2.56735 -3.69333 0
M  V30 13123 C 1251.3 -0.589937 -4.36128 0
M  V30 13124 H 1248.42 -0.238437 -0.697364 0
M  V30 13125 H 1251.06 -1.22322 -1.45387 0
M  V30 13126 H 1249.21 -0.559242 -3.84454 0
M  V30 13127 H 1250.89 -3.12901 -3.38955 0
M  V30 13128 H 1249.13 -2.9931 -3.14 0
M  V30 13129 H 1249.8 -2.79269 -4.76144 0
M  V30 13130 H 1252.28 -1.00706 -4.0373 0
M  V30 13131 H 1251.15 -0.893192 -5.41584 0
M  V30 13132 H 1251.41 0.509707 -4.39152 0
M  V30 13133 N 1250.47 1.3842 -0.753509 0
M  V30 13134 C 1251.42 2.30457 -0.12574 0
M  V30 13135 C 1252.39 1.50173 0.709728 0
M  V30 13136 O 1253.57 1.78804 0.665872 0
M  V30 13137 C 1250.71 3.36593 0.761503 0
M  V30 13138 C 1249.83 4.31909 -0.0885848 0
M  V30 13139 C 1248.96 5.25116 0.801655 0
M  V30 13140 C 1248 6.12078 -0.0520719 0
M  V30 13141 N 1247.14 6.97583 0.795124 0
M  V30 13142 H 1251.98 2.83567 -0.916187 0
M  V30 13143 H 1249.52 1.39609 -0.463436 0
M  V30 13144 H 1251.47 3.96738 1.29054 0
M  V30 13145 H 1250.1 2.84894 1.51774 0
M  V30 13146 H 1249.16 3.73227 -0.735249 0
M  V30 13147 H 1250.47 4.93161 -0.747899 0
M  V30 13148 H 1249.62 5.90377 1.39786 0
M  V30 13149 H 1248.36 4.6423 1.4947 0
M  V30 13150 H 1247.37 5.45813 -0.660946 0
M  V30 13151 H 1248.59 6.75032 -0.742178 0
M  V30 13152 H 1246.54 6.39246 1.47312 0
M  V30 13153 H 1246.45 7.55754 0.192705 0
M  V30 13154 H 1247.72 7.67254 1.3763 0
M  V30 13155 N 1251.95 0.502579 1.49372 0
M  V30 13156 C 1253.18 -0.0403087 2.07361 0
M  V30 13157 C 1253.6 -1.29918 1.36026 0
M  V30 13158 O 1252.96 -1.76428 0.417488 0
M  V30 13159 C 1253.01 -0.275362 3.59547 0
M  V30 13160 O 1252.11 -1.34975 3.89686 0
M  V30 13161 H 1251.45 0.0269268 0.663454 0
M  V30 13162 H 1253.98 0.702652 1.92156 0
M  V30 13163 H 1253.99 -0.506392 4.04845 0
M  V30 13164 H 1252.67 0.644382 4.10878 0
M  V30 13165 H 1251.24 -1.10355 3.56197 0
M  V30 13166 N 1253.43 -1.55816 0.23648 0
M  V30 13167 C 1254.38 -2.20938 -0.66745 0
M  V30 13168 C 1255.35 -1.16982 -1.17917 0
M  V30 13169 O 1256.53 -1.45392 -1.23555 0
M  V30 13170 C 1253.67 -2.90469 -1.86337 0
M  V30 13171 C 1252.78 -4.09056 -1.38915 0
M  V30 13172 C 1251.92 -4.6633 -2.54382 0
M  V30 13173 C 1250.96 -5.77187 -2.0377 0
M  V30 13174 N 1250.09 -6.28688 -3.12564 0
M  V30 13175 H 1254.93 -2.97814 -0.105411 0
M  V30 13176 H 1252.47 -1.47045 -0.0402712 0
M  V30 13177 H 1254.43 -3.28975 -2.56576 0
M  V30 13178 H 1253.06 -2.16086 -2.39806 0
M  V30 13179 H 1252.11 -3.75934 -0.581173 0
M  V30 13180 H 1253.42 -4.89115 -0.978152 0
M  V30 13181 H 1252.58 -5.07355 -3.32679 0
M  V30 13182 H 1251.32 -3.85464 -2.98778 0
M  V30 13183 H 1250.32 -5.35648 -1.23939 0
M  V30 13184 H 1251.55 -6.59896 -1.60355 0
M  V30 13185 H 1249.49 -5.50731 -3.56414 0
M  V30 13186 H 1249.41 -7.03911 -2.75762 0
M  V30 13187 H 1250.68 -6.74371 -3.90952 0
M  V30 13188 N 1254.91 0.036755 -1.57557 0
M  V30 13189 C 1256.13 0.741086 -1.93172 0
M  V30 13190 C 1256.55 1.69303 -0.835589 0
M  V30 13191 O 1255.91 1.81523 0.1886 0
M  V30 13192 C 1255.96 1.50477 -3.28693 0
M  V30 13193 O 1255.68 0.591046 -4.34095 0
M  V30 13194 C 1257.18 2.30695 -3.78543 0
M  V30 13195 H 1254.4 0.208731 -0.637709 0
M  V30 13196 H 1256.94 -0.00342776 -2.045 0
M  V30 13197 H 1255.1 2.20123 -3.18786 0
M  V30 13198 H 1255.51 1.12579 -5.12276 0
M  V30 13199 H 1256.99 2.79685 -4.759 0
M  V30 13200 H 1257.46 3.11778 -3.0934 0
M  V30 13201 H 1258.07 1.66138 -3.91508 0
M  V30 13202 N 1256.39 1.54543 0.308881 0
M  V30 13203 C 1257.8 1.64532 0.882392 0
M  V30 13204 C 1258.15 0.54886 1.88367 0
M  V30 13205 O 1257.27 -0.315832 2.14083 0
M  V30 13206 C 1257.87 2.98251 1.60722 0
M  V30 13207 C 1256.43 3.10387 2.12925 0
M  V30 13208 C 1255.57 2.60176 0.959362 0
M  V30 13209 H 1258.52 1.58466 0.0860803 0
M  V30 13210 H 1258.55 2.89233 2.47233 0
M  V30 13211 H 1258.06 3.78033 0.878233 0
M  V30 13212 H 1256.16 2.35309 2.88895 0
M  V30 13213 H 1256.27 4.16421 2.36918 0
M  V30 13214 H 1254.64 2.16434 1.3427 0
M  V30 13215 H 1255.42 3.42429 0.244454 0
M  V30 13216 N 1257.86 -0.571685 1.46866 0
M  V30 13217 C 1259.11 -1.33145 1.52972 0
M  V30 13218 C 1259.44 -1.93314 0.185344 0
M  V30 13219 O 1258.72 -1.77083 -0.80447 0
M  V30 13220 C 1259 -2.4525 2.63675 0
M  V30 13221 C 1258.85 -1.90044 4.0768 0
M  V30 13222 C 1260.17 -3.47247 2.70384 0
M  V30 13223 H 1257.29 -0.482751 0.556885 0
M  V30 13224 H 1259.93 -0.641163 1.78855 0
M  V30 13225 H 1258.08 -3.04132 2.41735 0
M  V30 13226 H 1259.76 -1.35535 4.4094 0
M  V30 13227 H 1258 -1.20805 4.1664 0
M  V30 13228 H 1258.67 -2.71019 4.80887 0
M  V30 13229 H 1261.15 -2.98263 2.90135 0
M  V30 13230 H 1260.02 -4.23132 3.49643 0
M  V30 13231 H 1260.28 -4.05179 1.76868 0
M  V30 13232 N 1259.34 -1.34755 -0.817236 0
M  V30 13233 C 1260.57 -1.30676 -1.61054 0
M  V30 13234 C 1260.99 0.115343 -1.87746 0
M  V30 13235 O 1260.35 1.07887 -1.45705 0
M  V30 13236 C 1260.4 -2.10881 -2.92509 0
M  V30 13237 O 1259.5 -1.48223 -3.84842 0
M  V30 13238 H 1258.84 -0.448531 -0.489608 0
M  V30 13239 H 1261.37 -1.77642 -1.01512 0
M  V30 13240 H 1261.38 -2.22446 -3.42026 0
M  V30 13241 H 1260.06 -3.14274 -2.72406 0
M  V30 13242 H 1258.63 -1.45434 -3.4337 0
M  V30 13243 N 1260.82 1.03812 -1.18578 0
M  V30 13244 C 1261.77 2.11883 -0.915115 0
M  V30 13245 C 1262.74 1.65453 0.146479 0
M  V30 13246 O 1263.92 1.90799 0.00630058 0
M  V30 13247 C 1261.06 3.42157 -0.449755 0
M  V30 13248 C 1260.17 4.02185 -1.57706 0
M  V30 13249 C 1259.31 5.20431 -1.06417 0
M  V30 13250 C 1258.35 5.72496 -2.16599 0
M  V30 13251 N 1257.49 6.82027 -1.66685 0
M  V30 13252 H 1262.33 2.34373 -1.84047 0
M  V30 13253 H 1259.86 1.14962 -0.917728 0
M  V30 13254 H 1261.82 4.16888 -0.161407 0
M  V30 13255 H 1260.45 3.19806 0.438622 0
M  V30 13256 H 1259.5 3.24757 -1.98083 0
M  V30 13257 H 1260.81 4.36851 -2.40754 0
M  V30 13258 H 1259.97 6.02286 -0.730497 0
M  V30 13259 H 1258.71 4.87276 -0.203301 0
M  V30 13260 H 1257.71 4.8926 -2.50808 0
M  V30 13261 H 1258.94 6.07694 -3.03126 0
M  V30 13262 H 1256.88 6.50742 -0.828916 0
M  V30 13263 H 1256.8 7.1577 -2.43329 0
M  V30 13264 H 1258.07 7.67499 -1.36253 0
M  V30 13265 N 1262.3 0.988223 1.22768 0
M  V30 13266 C 1263.54 0.662441 1.91676 0
M  V30 13267 C 1263.88 -0.802931 1.76824 0
M  V30 13268 O 1263.15 -1.58011 1.13415 0
M  V30 13269 C 1263.43 1.06332 3.44043 0
M  V30 13270 C 1263.29 2.5869 3.67967 0
M  V30 13271 C 1264.61 0.613058 4.35809 0
M  V30 13272 H 1261.73 0.242132 0.69609 0
M  V30 13273 H 1264.37 1.23091 1.44736 0
M  V30 13274 H 1262.52 0.579623 3.84152 0
M  V30 13275 H 1264.19 3.14694 3.37291 0
M  V30 13276 H 1262.43 3.00971 3.12408 0
M  V30 13277 H 1263.1 2.8179 4.74656 0
M  V30 13278 H 1265.58 1.02846 4.0319 0
M  V30 13279 H 1264.46 0.921901 5.41103 0
M  V30 13280 H 1264.72 -0.48641 4.39416 0
M  V30 13281 N 1263.78 -1.38018 0.760839 0
M  V30 13282 C 1264.69 -2.34181 0.140232 0
M  V30 13283 C 1265.7 -1.59635 -0.692287 0
M  V30 13284 O 1266.88 -1.91788 -0.614752 0
M  V30 13285 C 1263.94 -3.38778 -0.73693 0
M  V30 13286 C 1263 -4.29157 0.110792 0
M  V30 13287 C 1262.24 -5.28758 -0.724599 0
M  V30 13288 O 1262.46 -5.35585 -1.96226 0
M  V30 13289 O 1261.39 -6.01738 -0.139565 0
M  V30 13290 H 1265.22 -2.88962 0.934588 0
M  V30 13291 H 1262.8 -1.3999 0.521835 0
M  V30 13292 H 1264.69 -4.02804 -1.23803 0
M  V30 13293 H 1263.36 -2.86341 -1.50966 0
M  V30 13294 H 1262.27 -3.68268 0.658007 0
M  V30 13295 H 1263.6 -4.84869 0.846346 0
M  V30 13296 N 1265.25 -0.510493 -1.49103 0
M  V30 13297 C 1266.5 0.0306436 -2.02477 0
M  V30 13298 C 1266.83 1.36113 -1.38937 0
M  V30 13299 O 1266.08 1.88731 -0.517584 0
M  V30 13300 C 1266.38 0.221921 -3.5671 0
M  V30 13301 C 1266.05 -1.03176 -4.38937 0
M  V30 13302 C 1264.71 -1.37539 -4.61125 0
M  V30 13303 C 1267.06 -1.86464 -4.86704 0
M  V30 13304 C 1264.39 -2.55124 -5.28326 0
M  V30 13305 C 1266.74 -3.03211 -5.55199 0
M  V30 13306 C 1265.41 -3.37943 -5.75631 0
M  V30 13307 H 1264.68 0.0112133 -0.740915 0
M  V30 13308 H 1267.32 -0.672574 -1.79301 0
M  V30 13309 H 1265.63 1.00775 -3.78618 0
M  V30 13310 H 1267.33 0.655223 -3.95611 0
M  V30 13311 H 1263.92 -0.754105 -4.21914 0
M  V30 13312 H 1268.1 -1.61229 -4.69381 0
M  V30 13313 H 1263.36 -2.8226 -5.42346 0
M  V30 13314 H 1267.53 -3.68068 -5.91185 0
M  V30 13315 H 1265.16 -4.29158 -6.27477 0
M  V30 13316 N 1266.73 1.55688 -0.24474 0
M  V30 13317 C 1267.96 2.02995 0.38425 0
M  V30 13318 C 1268.37 1.12339 1.52239 0
M  V30 13319 O 1267.71 0.129803 1.83241 0
M  V30 13320 C 1267.77 3.46564 0.955701 0
M  V30 13321 C 1267.44 4.56973 -0.0499176 0
M  V30 13322 C 1268.44 5.1276 -0.858682 0
M  V30 13323 C 1266.12 5.01994 -0.175383 0
M  V30 13324 C 1268.11 6.12059 -1.77939 0
M  V30 13325 C 1265.8 6.01126 -1.0996 0
M  V30 13326 C 1266.8 6.56037 -1.90013 0
M  V30 13327 O 1266.49 7.53235 -2.80877 0
M  V30 13328 H 1266.22 0.669189 0.0957212 0
M  V30 13329 H 1268.77 2.02121 -0.36555 0
M  V30 13330 H 1267 3.44581 1.75502 0
M  V30 13331 H 1268.69 3.77383 1.49454 0
M  V30 13332 H 1269.46 4.78811 -0.772325 0
M  V30 13333 H 1265.34 4.58918 0.437644 0
M  V30 13334 H 1268.88 6.54845 -2.40465 0
M  V30 13335 H 1264.78 6.34494 -1.18689 0
M  V30 13336 H 1265.55 7.70844 -2.75214 0
M  V30 13337 N 1268.21 -0.0283989 1.57574 0
M  V30 13338 C 1269.16 -1.04723 2.07692 0
M  V30 13339 C 1270.15 -1.37399 0.990847 0
M  V30 13340 O 1271.36 -1.36297 1.17572 0
M  V30 13341 H 1267.73 -0.355251 0.662798 0
M  V30 13342 H 1269.7 -0.598737 2.92331 0
M  V30 13343 C 1268.45 -2.33941 2.57229 0
M  V30 13344 H 1267.78 -2.09659 3.40416 0
M  V30 13345 H 1269.22 -3.03574 2.96005 0
M  V30 13346 C 1267.67 -3.02953 1.47381 0
M  V30 13347 O 1268.2 -3.9281 0.840431 0
M  V30 13348 N 1266.41 -2.64294 1.20819 0
M  V30 13349 H 1265.96 -1.91307 1.72509 0
M  V30 13350 H 1265.92 -3.10786 0.475353 0
M  V30 13351 N 1269.69 -1.54705 -0.300681 0
M  V30 13352 C 1270.94 -1.73658 -1.0338 0
M  V30 13353 C 1271.26 -0.525447 -1.87787 0
M  V30 13354 O 1270.53 0.460269 -1.90416 0
M  V30 13355 H 1269.11 -0.640338 -0.384677 0
M  V30 13356 H 1271.77 -1.92059 -0.331588 0
M  V30 13357 H 1270.86 -2.62595 -1.68672 0
M  V30 13358 N 1271.17 0.563888 -1.47167 0
M  V30 13359 C 1272.44 1.32454 -1.43928 0
M  V30 13360 C 1272.82 2.10683 -0.13267 0
M  V30 13361 O 1272.17 2.1063 0.885845 0
M  V30 13362 C 1272.38 2.2347 -2.68071 0
M  V30 13363 C 1273.73 2.84702 -3.15008 0
M  V30 13364 O 1274.75 2.33775 -2.68752 0
M  V30 13365 O 1273.61 3.77251 -3.95404 0
M  V30 13366 H 1270.71 0.596074 -0.573258 0
M  V30 13367 H 1273.25 0.583345 -1.59359 0
M  V30 13368 H 1272.02 1.6522 -3.54708 0
M  V30 13369 H 1271.65 3.04897 -2.55193 0
M  V30 13370 N 1272.64 1.35187 0.810078 0
M  V30 13371 C 1273.87 1.31371 1.59841 0
M  V30 13372 C 1274.29 -0.109547 1.88482 0
M  V30 13373 O 1273.64 -1.06047 1.48527 0
M  V30 13374 C 1273.7 2.11496 2.93175 0
M  V30 13375 O 1273.42 3.48273 2.65777 0
M  V30 13376 C 1274.92 2.15226 3.87547 0
M  V30 13377 H 1272.14 0.451428 0.496441 0
M  V30 13378 H 1274.68 1.7799 1.00697 0
M  V30 13379 H 1272.84 1.68486 3.48843 0
M  V30 13380 H 1273.25 3.89845 3.50886 0
M  V30 13381 H 1274.72 2.75687 4.78226 0
M  V30 13382 H 1275.2 1.15007 4.23875 0
M  V30 13383 H 1275.81 2.58382 3.37815 0
M  V30 13384 N 1274.12 -1.03182 1.19127 0
M  V30 13385 C 1275.05 -2.13301 0.94999 0
M  V30 13386 C 1276.03 -1.69707 -0.115577 0
M  V30 13387 O 1277.22 -1.94161 0.0388395 0
M  V30 13388 C 1274.35 -3.43902 0.484637 0
M  V30 13389 C 1273.3 -4.01164 1.4917 0
M  V30 13390 C 1272.63 -5.2735 0.883537 0
M  V30 13391 C 1273.93 -4.36311 2.87107 0
M  V30 13392 H 1275.62 -2.33743 1.87095 0
M  V30 13393 H 1273.17 -1.12332 0.900977 0
M  V30 13394 H 1275.12 -4.20308 0.30315 0
M  V30 13395 H 1273.85 -3.23173 -0.471909 0
M  V30 13396 H 1272.5 -3.26849 1.66028 0
M  V30 13397 H 1272.15 -5.02936 -0.0804712 0
M  V30 13398 H 1271.85 -5.66624 1.55599 0
M  V30 13399 H 1273.38 -6.06425 0.71278 0
M  V30 13400 H 1274.79 -5.03666 2.73848 0
M  V30 13401 H 1273.19 -4.86659 3.51117 0
M  V30 13402 H 1274.26 -3.45743 3.39985 0
M  V30 13403 N 1275.6 -0.99472 -1.22242 0
M  V30 13404 C 1276.85 -0.667045 -1.90351 0
M  V30 13405 C 1277.16 0.804615 -1.78284 0
M  V30 13406 O 1278.37 1.24395 -2.41326 0
M  V30 13407 C 1276.82 -1.14256 -3.41282 0
M  V30 13408 C 1276.43 -2.63958 -3.61981 0
M  V30 13409 C 1278.18 -0.889302 -4.1508 0
M  V30 13410 C 1276.08 -3.05103 -5.06622 0
M  V30 13411 H 1275.01 -0.245795 -0.712812 0
M  V30 13412 H 1277.66 -1.20452 -1.38432 0
M  V30 13413 H 1276.05 -0.533203 -3.92394 0
M  V30 13414 H 1277.22 -3.30255 -3.21354 0
M  V30 13415 H 1275.54 -2.87186 -3.01518 0
M  V30 13416 H 1278.13 -1.17239 -5.21689 0
M  V30 13417 H 1278.48 0.174556 -4.15934 0
M  V30 13418 H 1279.01 -1.46095 -3.70002 0
M  V30 13419 H 1275.75 -4.10672 -5.1091 0
M  V30 13420 H 1275.27 -2.4351 -5.48145 0
M  V30 13421 H 1276.95 -2.96506 -5.75059 0
M  V30 13422 N 1277.08 1.37613 -0.768148 0
M  V30 13423 C 1278.3 2.04579 -0.340892 0
M  V30 13424 C 1278.73 1.57556 1.02751 0
M  V30 13425 O 1278.09 0.734151 1.65771 0
M  V30 13426 C 1278.13 3.58495 -0.389099 0
M  V30 13427 O 1277.24 4.07838 0.611741 0
M  V30 13428 H 1276.58 0.647246 -0.148216 0
M  V30 13429 H 1279.11 1.75999 -1.04333 0
M  V30 13430 H 1279.12 4.07263 -0.245116 0
M  V30 13431 H 1277.79 3.92076 -1.38742 0
M  V30 13432 H 1276.37 3.70399 0.431173 0
M  V30 13433 N 1278.56 0.518393 1.4883 0
M  V30 13434 C 1279.78 -0.0183131 2.07392 0
M  V30 13435 C 1280.21 -1.28468 1.37396 0
M  V30 13436 O 1279.56 -1.75975 0.436177 0
M  V30 13437 C 1279.61 -0.237211 3.59819 0
M  V30 13438 O 1278.72 -1.30835 3.91096 0
M  V30 13439 H 1278.06 0.0339621 0.663131 0
M  V30 13440 H 1280.59 0.722993 1.914 0
M  V30 13441 H 1280.6 -0.463424 4.0536 0
M  V30 13442 H 1279.27 0.687925 4.10171 0
M  V30 13443 H 1277.85 -1.06571 3.57347 0
M  V30 13444 N 1280.03 -1.55556 0.252993 0
M  V30 13445 C 1281.31 -1.91022 -0.420696 0
M  V30 13446 C 1281.69 -1.17452 -1.75409 0
M  V30 13447 O 1281.04 -0.294 -2.26601 0
M  V30 13448 C 1281.25 -3.441 -0.582787 0
M  V30 13449 C 1282.6 -4.15468 -0.875873 0
M  V30 13450 O 1283.62 -3.49872 -0.668425 0
M  V30 13451 O 1282.48 -5.31508 -1.27128 0
M  V30 13452 H 1279.57 -0.7953 -0.226776 0
M  V30 13453 H 1282.12 -1.67072 0.297511 0
M  V30 13454 H 1280.89 -3.89673 0.356474 0
M  V30 13455 H 1280.52 -3.73933 -1.3513 0
M  V30 13456 N 1281.51 0.0200419 -1.57587 0
M  V30 13457 C 1282.74 0.720556 -1.93947 0
M  V30 13458 C 1283.16 1.68407 -0.853499 0
M  V30 13459 O 1282.51 1.81713 0.169337 0
M  V30 13460 C 1282.56 1.46982 -3.3027 0
M  V30 13461 O 1282.28 0.544971 -4.34697 0
M  V30 13462 C 1283.79 2.26667 -3.80968 0
M  V30 13463 H 1281.01 0.201956 -0.639887 0
M  V30 13464 H 1283.55 -0.0251175 -2.04485 0
M  V30 13465 H 1281.7 2.16729 -3.21103 0
M  V30 13466 H 1282.12 1.07139 -5.13441 0
M  V30 13467 H 1283.59 2.74621 -4.78839 0
M  V30 13468 H 1284.07 3.0848 -3.12629 0
M  V30 13469 H 1284.68 1.61976 -3.93248 0
M  V30 13470 N 1282.99 1.54862 0.292472 0
M  V30 13471 C 1284.22 1.7855 1.04534 0
M  V30 13472 C 1284.63 0.549161 1.80637 0
M  V30 13473 O 1283.99 -0.481268 1.7604 0
M  V30 13474 C 1284.04 2.99849 2.01923 0
M  V30 13475 O 1283.76 4.18706 1.28907 0
M  V30 13476 C 1285.26 3.35991 2.8918 0
M  V30 13477 H 1282.48 0.595279 0.309652 0
M  V30 13478 H 1285.03 2.01834 0.329159 0
M  V30 13479 H 1283.18 2.78749 2.69032 0
M  V30 13480 H 1283.6 4.87151 1.94383 0
M  V30 13481 H 1285.07 4.24085 3.53349 0
M  V30 13482 H 1285.55 2.54524 3.57931 0
M  V30 13483 H 1286.15 3.59281 2.27591 0
M  V30 13484 N 1284.47 -0.556076 1.47464 0
M  V30 13485 C 1285.43 -1.64515 1.59586 0
M  V30 13486 C 1286.43 -1.53751 0.470881 0
M  V30 13487 O 1287.62 -1.57889 0.735979 0
M  V30 13488 C 1284.75 -3.0406 1.54143 0
M  V30 13489 H 1285.95 -1.55116 2.56669 0
M  V30 13490 H 1283.5 -0.776087 1.35671 0
M  V30 13491 H 1284.23 -3.18991 0.584395 0
M  V30 13492 H 1284.02 -3.13282 2.3579 0
M  V30 13493 H 1285.51 -3.8329 1.65766 0
M  V30 13494 N 1285.95 -1.35615 -0.802897 0
M  V30 13495 C 1287.36 -1.26062 -1.37715 0
M  V30 13496 C 1287.71 0.105411 -1.95917 0
M  V30 13497 O 1286.83 1.00648 -1.91569 0
M  V30 13498 C 1287.43 -2.28261 -2.50365 0
M  V30 13499 C 1285.99 -2.22437 -3.03642 0
M  V30 13500 C 1285.14 -2.1377 -1.76629 0
M  V30 13501 H 1288.09 -1.46689 -0.605631 0
M  V30 13502 H 1288.11 -1.91122 -3.29017 0
M  V30 13503 H 1287.62 -3.27671 -2.07975 0
M  V30 13504 H 1285.72 -1.2645 -3.50487 0
M  V30 13505 H 1285.83 -3.14558 -3.61373 0
M  V30 13506 H 1284.2 -1.59806 -1.98328 0
M  V30 13507 H 1284.98 -3.15046 -1.36385 0
M  V30 13508 N 1287.43 1.02549 -1.19673 0
M  V30 13509 C 1288.66 1.79363 -1.02531 0
M  V30 13510 C 1289.06 1.84274 0.42893 0
M  V30 13511 O 1288.41 1.28813 1.30969 0
M  V30 13512 C 1288.47 3.2567 -1.52248 0
M  V30 13513 C 1288.13 3.44386 -3.00412 0
M  V30 13514 C 1289.13 3.34329 -3.98146 0
M  V30 13515 C 1286.81 3.70491 -3.39178 0
M  V30 13516 C 1288.81 3.50106 -5.3264 0
M  V30 13517 C 1286.5 3.85912 -4.7383 0
M  V30 13518 C 1287.49 3.75723 -5.70369 0
M  V30 13519 O 1287.18 3.90685 -7.02581 0
M  V30 13520 H 1286.91 0.571194 -0.361544 0
M  V30 13521 H 1289.47 1.30029 -1.59002 0
M  V30 13522 H 1287.7 3.76044 -0.901548 0
M  V30 13523 H 1289.39 3.8409 -1.31262 0
M  V30 13524 H 1290.15 3.14109 -3.69541 0
M  V30 13525 H 1286.03 3.77513 -2.64585 0
M  V30 13526 H 1289.58 3.42069 -6.07976 0
M  V30 13527 H 1285.47 4.05631 -5.02129 0
M  V30 13528 H 1286.24 4.07756 -7.09702 0
M  V30 13529 N 1288.9 1.00119 1.21713 0
M  V30 13530 C 1290.13 0.700431 1.94683 0
M  V30 13531 C 1290.55 -0.736333 1.73849 0
M  V30 13532 O 1289.9 -1.49778 1.04272 0
M  V30 13533 C 1289.95 1.00722 3.47185 0
M  V30 13534 O 1289.68 2.38754 3.67326 0
M  V30 13535 C 1291.18 0.725335 4.37326 0
M  V30 13536 H 1288.4 0.25843 0.619238 0
M  V30 13537 H 1290.94 1.3382 1.54636 0
M  V30 13538 H 1289.1 0.415117 3.85169 0
M  V30 13539 H 1289.51 2.49321 4.61454 0
M  V30 13540 H 1290.98 0.990202 5.43046 0
M  V30 13541 H 1291.46 -0.340649 4.37877 0
M  V30 13542 H 1292.07 1.29888 4.04981 0
M  V30 13543 N 1290.38 -1.37203 0.775435 0
M  V30 13544 C 1291.34 -2.28566 0.170406 0
M  V30 13545 C 1292.34 -1.48195 -0.624085 0
M  V30 13546 O 1293.53 -1.68364 -0.447132 0
M  V30 13547 C 1290.67 -3.32186 -0.765829 0
M  V30 13548 H 1291.86 -2.8358 0.975824 0
M  V30 13549 H 1289.41 -1.46531 0.543895 0
M  V30 13550 H 1290.15 -2.82303 -1.59611 0
M  V30 13551 H 1289.93 -3.91598 -0.198251 0
M  V30 13552 H 1291.42 -4.0045 -1.18446 0
M  V30 13553 N 1291.86 -0.526279 -1.48553 0
M  V30 13554 C 1292.81 0.238513 -2.29564 0
M  V30 13555 C 1293.78 0.937222 -1.37133 0
M  V30 13556 O 1294.96 0.93897 -1.66096 0
M  V30 13557 C 1292.1 1.28173 -3.20415 0
M  V30 13558 C 1291.21 0.592244 -4.27921 0
M  V30 13559 C 1290.35 1.61808 -5.05956 0
M  V30 13560 C 1289.39 0.911846 -6.0527 0
M  V30 13561 N 1288.53 1.88305 -6.76377 0
M  V30 13562 H 1293.37 -0.458502 -2.94452 0
M  V30 13563 H 1290.9 -0.237948 -1.45163 0
M  V30 13564 H 1292.86 1.89883 -3.71484 0
M  V30 13565 H 1291.49 1.94718 -2.57458 0
M  V30 13566 H 1290.54 -0.138714 -3.80147 0
M  V30 13567 H 1291.85 0.0375427 -4.98786 0
M  V30 13568 H 1291.01 2.30956 -5.61021 0
M  V30 13569 H 1289.75 2.20667 -4.34922 0
M  V30 13570 H 1288.75 0.206273 -5.49413 0
M  V30 13571 H 1289.98 0.329415 -6.78301 0
M  V30 13572 H 1287.92 2.46079 -6.08096 0
M  V30 13573 H 1287.84 1.37969 -7.43304 0
M  V30 13574 H 1289.11 2.56663 -7.36033 0
M  V30 13575 N 1293.34 1.5542 -0.261239 0
M  V30 13576 C 1294.59 1.9846 0.360052 0
M  V30 13577 C 1294.9 1.15288 1.58013 0
M  V30 13578 O 1296.11 1.48408 2.27348 0
M  V30 13579 C 1294.56 3.53185 0.691964 0
M  V30 13580 C 1294.17 4.45116 -0.507521 0
M  V30 13581 C 1295.91 4.04848 1.27665 0
M  V30 13582 C 1293.82 5.91207 -0.150966 0
M  V30 13583 H 1292.75 0.741207 0.138303 0
M  V30 13584 H 1295.4 1.79859 -0.363712 0
M  V30 13585 H 1293.78 3.67535 1.47425 0
M  V30 13586 H 1294.96 4.42531 -1.28465 0
M  V30 13587 H 1293.27 4.04013 -1.0081 0
M  V30 13588 H 1295.87 5.11529 1.55699 0
M  V30 13589 H 1296.21 3.5305 2.20593 0
M  V30 13590 H 1296.75 3.93882 0.556955 0
M  V30 13591 H 1293.48 6.47072 -1.04776 0
M  V30 13592 H 1293 5.96894 0.589671 0
M  V30 13593 H 1294.68 6.4647 0.261772 0
M  V30 13594 N 1294.82 -0.0116844 1.57596 0
M  V30 13595 C 1296.04 -0.71026 1.94327 0
M  V30 13596 C 1296.46 -1.67952 0.862418 0
M  V30 13597 O 1295.82 -1.818 -0.159698 0
M  V30 13598 C 1295.87 -1.45228 3.31045 0
M  V30 13599 O 1295.59 -0.52191 4.3498 0
M  V30 13600 C 1297.09 -2.24644 3.82165 0
M  V30 13601 H 1294.31 -0.198559 0.640949 0
M  V30 13602 H 1296.85 0.0359615 2.04468 0
M  V30 13603 H 1295.01 -2.15023 3.22248 0
M  V30 13604 H 1295.42 -1.04415 5.14002 0
M  V30 13605 H 1296.9 -2.72078 4.80289 0
M  V30 13606 H 1297.37 -3.06817 3.14261 0
M  V30 13607 H 1297.98 -1.59888 3.94101 0
M  V30 13608 N 1296.29 -1.55015 -0.284256 0
M  V30 13609 C 1297.54 -1.74744 -1.01532 0
M  V30 13610 C 1297.86 -0.545334 -1.87219 0
M  V30 13611 O 1297.13 0.440046 -1.90894 0
M  V30 13612 H 1295.71 -0.644382 -0.377864 0
M  V30 13613 H 1298.37 -1.92399 -0.311199 0
M  V30 13614 H 1297.47 -2.64369 -1.65878 0
M  V30 13615 N 1297.77 0.548248 -1.47757 0
M  V30 13616 C 1298.73 1.63666 -1.60456 0
M  V30 13617 C 1299.73 1.53499 -0.479028 0
M  V30 13618 O 1300.92 1.57497 -0.744342 0
M  V30 13619 C 1298.06 3.03239 -1.55754 0
M  V30 13620 H 1299.25 1.53752 -2.57488 0
M  V30 13621 H 1296.8 0.768881 -1.36081 0
M  V30 13622 H 1297.54 3.18677 -0.601303 0
M  V30 13623 H 1297.32 3.12027 -2.37448 0
M  V30 13624 H 1298.81 3.82406 -1.67797 0
M  V30 13625 N 1299.25 1.36039 0.795694 0
M  V30 13626 C 1300.21 1.29709 1.88966 0
M  V30 13627 C 1301.21 0.206142 1.59473 0
M  V30 13628 O 1302.4 0.460534 1.68002 0
M  V30 13629 C 1299.53 1.00922 3.25619 0
M  V30 13630 H 1300.73 2.26993 1.95995 0
M  V30 13631 H 1298.28 1.2072 0.992791 0
M  V30 13632 H 1299.02 0.0407027 3.24274 0
M  V30 13633 H 1298.8 1.79863 3.48413 0
M  V30 13634 H 1300.29 0.990826 4.05675 0
M  V30 13635 N 1300.73 -1.01913 1.20215 0
M  V30 13636 C 1301.97 -1.7573 1.01226 0
M  V30 13637 C 1302.31 -1.88799 -0.45481 0
M  V30 13638 O 1301.58 -1.41196 -1.33768 0
M  V30 13639 C 1301.87 -3.17795 1.69348 0
M  V30 13640 C 1301.72 -3.12536 3.23483 0
M  V30 13641 C 1303.04 -4.16409 1.42448 0
M  V30 13642 H 1300.16 -0.637889 0.369144 0
M  V30 13643 H 1302.8 -1.18907 1.48193 0
M  V30 13644 H 1300.95 -3.66311 1.29416 0
M  V30 13645 H 1302.62 -2.71843 3.72692 0
M  V30 13646 H 1300.86 -2.49997 3.54519 0
M  V30 13647 H 1301.53 -4.12949 3.66302 0
M  V30 13648 H 1304.01 -3.76537 1.77086 0
M  V30 13649 H 1302.89 -5.13983 1.92648 0
M  V30 13650 H 1303.15 -4.407 0.351574 0
M  V30 13651 N 1302.21 -1.00763 -1.2118 0
M  V30 13652 C 1303.45 -0.690459 -1.8994 0
M  V30 13653 C 1303.78 0.781464 -1.78656 0
M  V30 13654 O 1303.05 1.56135 -1.18316 0
M  V30 13655 H 1301.63 -0.252397 -0.703068 0
M  V30 13656 H 1304.29 -1.2773 -1.47211 0
M  V30 13657 H 1303.38 -0.96594 -2.96776 0
M  V30 13658 N 1303.68 1.3679 -0.7827 0
M  V30 13659 C 1304.65 2.28472 -0.182525 0
M  V30 13660 C 1305.65 1.48524 0.616217 0
M  V30 13661 O 1306.84 1.68599 0.438197 0
M  V30 13662 C 1303.97 3.32588 0.748202 0
M  V30 13663 H 1305.16 2.83059 -0.99085 0
M  V30 13664 H 1302.72 1.46241 -0.551658 0
M  V30 13665 H 1303.45 2.83145 1.58112 0
M  V30 13666 H 1303.24 3.91698 0.177481 0
M  V30 13667 H 1304.73 4.01073 1.16321 0
M  V30 13668 N 1305.16 0.53415 1.48272 0
M  V30 13669 C 1306.39 0.00573642 2.06599 0
M  V30 13670 C 1306.8 -1.28303 1.3905 0
M  V30 13671 O 1306.14 -1.77499 0.473274 0
M  V30 13672 C 1306.21 -0.28451 3.58372 0
M  V30 13673 C 1305.87 0.911397 4.4782 0
M  V30 13674 C 1306.87 1.81091 4.87342 0
M  V30 13675 C 1304.55 1.11957 4.89664 0
M  V30 13676 C 1306.55 2.90246 5.67482 0
M  V30 13677 C 1304.23 2.21426 5.69573 0
M  V30 13678 C 1305.23 3.10403 6.08391 0
M  V30 13679 O 1304.92 4.17977 6.86695 0
M  V30 13680 H 1304.65 0.0322847 0.675229 0
M  V30 13681 H 1307.2 0.740415 1.91591 0
M  V30 13682 H 1305.43 -1.07321 3.71509 0
M  V30 13683 H 1307.12 -0.755508 3.98807 0
M  V30 13684 H 1307.89 1.66204 4.55633 0
M  V30 13685 H 1303.77 0.436266 4.58931 0
M  V30 13686 H 1307.31 3.59724 5.97699 0
M  V30 13687 H 1303.21 2.36295 6.00695 0
M  V30 13688 H 1303.98 4.15738 7.05056 0
M  V30 13689 N 1306.64 -1.55279 0.269478 0
M  V30 13690 C 1307.59 -2.23723 -0.636468 0
M  V30 13691 C 1308.58 -1.23234 -1.16232 0
M  V30 13692 O 1309.79 -1.41181 -1.1166 0
M  V30 13693 H 1306.16 -0.71793 -0.223788 0
M  V30 13694 H 1308.13 -2.98378 -0.0363057 0
M  V30 13695 C 1306.88 -2.96755 -1.81195 0
M  V30 13696 H 1306.21 -3.73865 -1.4165 0
M  V30 13697 H 1307.65 -3.47975 -2.42258 0
M  V30 13698 C 1306.11 -2.01905 -2.69696 0
M  V30 13699 O 1306.64 -1.56662 -3.69892 0
M  V30 13700 N 1304.84 -1.68524 -2.36744 0
M  V30 13701 H 1304.39 -2.05512 -1.55314 0
M  V30 13702 H 1304.35 -1.05331 -2.96231 0
M  V30 13703 N 1308.12 0.00332656 -1.576 0
M  V30 13704 C 1309.05 0.994803 -2.11248 0
M  V30 13705 C 1310.03 1.36061 -1.02085 0
M  V30 13706 O 1311.21 1.44494 -1.2975 0
M  V30 13707 C 1308.34 2.28772 -2.61306 0
M  V30 13708 C 1307.3 2.06362 -3.74965 0
M  V30 13709 C 1306.62 3.41638 -4.11324 0
M  V30 13710 C 1307.92 1.4289 -5.02374 0
M  V30 13711 H 1309.62 0.548119 -2.9434 0
M  V30 13712 H 1307.16 0.262208 -1.41593 0
M  V30 13713 H 1309.12 2.98485 -2.97464 0
M  V30 13714 H 1307.84 2.75547 -1.75332 0
M  V30 13715 H 1306.5 1.39076 -3.39195 0
M  V30 13716 H 1306.15 3.8611 -3.22379 0
M  V30 13717 H 1305.85 3.2746 -4.87897 0
M  V30 13718 H 1307.37 4.12671 -4.50039 0
M  V30 13719 H 1308.79 2.02555 -5.36325 0
M  V30 13720 H 1307.18 1.3921 -5.8373 0
M  V30 13721 H 1308.25 0.397708 -4.83266 0
M  V30 13722 N 1309.6 1.55164 0.276031 0
M  V30 13723 C 1310.54 1.87836 1.34113 0
M  V30 13724 C 1311.51 0.729562 1.4922 0
M  V30 13725 O 1312.7 0.980549 1.63676 0
M  V30 13726 C 1309.84 2.15313 2.69693 0
M  V30 13727 C 1308.95 3.42845 2.62833 0
M  V30 13728 C 1308.09 3.60038 3.90572 0
M  V30 13729 C 1307.13 4.81273 3.7821 0
M  V30 13730 N 1306.26 4.95139 4.97777 0
M  V30 13731 H 1311.1 2.78681 1.0555 0
M  V30 13732 H 1308.64 1.37976 0.510001 0
M  V30 13733 H 1310.6 2.29243 3.48573 0
M  V30 13734 H 1309.23 1.27706 2.96464 0
M  V30 13735 H 1308.28 3.37403 1.75679 0
M  V30 13736 H 1309.59 4.3186 2.49597 0
M  V30 13737 H 1308.75 3.73769 4.77893 0
M  V30 13738 H 1307.48 2.69203 4.06671 0
M  V30 13739 H 1306.49 4.67549 2.89271 0
M  V30 13740 H 1307.71 5.7354 3.63632 0
M  V30 13741 H 1305.66 4.07234 5.14292 0
M  V30 13742 H 1305.58 5.78194 4.8706 0
M  V30 13743 H 1306.85 5.13253 5.86679 0
M  V30 13744 N 1311.07 -0.540404 1.48045 0
M  V30 13745 C 1312.04 -1.62813 1.61322 0
M  V30 13746 C 1313.04 -1.53243 0.487161 0
M  V30 13747 O 1314.23 -1.571 0.752684 0
M  V30 13748 C 1311.36 -3.02408 1.5736 0
M  V30 13749 H 1312.55 -1.52385 2.583 0
M  V30 13750 H 1310.11 -0.761654 1.36486 0
M  V30 13751 H 1310.84 -3.18353 0.618195 0
M  V30 13752 H 1310.63 -3.10763 2.39099 0
M  V30 13753 H 1312.12 -3.8151 1.69822 0
M  V30 13754 N 1312.55 -1.36459 -0.788468 0
M  V30 13755 C 1313.8 -1.30935 -1.54867 0
M  V30 13756 C 1314.13 0.110916 -1.93883 0
M  V30 13757 O 1313.41 1.06452 -1.62783 0
M  V30 13758 C 1313.69 -2.23294 -2.8251 0
M  V30 13759 C 1313.54 -3.74022 -2.49856 0
M  V30 13760 C 1314.86 -2.14407 -3.84341 0
M  V30 13761 H 1311.98 -0.476958 -0.561854 0
M  V30 13762 H 1314.62 -1.67018 -0.905805 0
M  V30 13763 H 1312.77 -1.92652 -3.37369 0
M  V30 13764 H 1314.44 -4.15187 -2.01041 0
M  V30 13765 H 1312.69 -3.93411 -1.82785 0
M  V30 13766 H 1313.36 -4.34057 -3.41026 0
M  V30 13767 H 1315.83 -2.41381 -3.38932 0
M  V30 13768 H 1314.71 -2.81199 -4.71401 0
M  V30 13769 H 1314.97 -1.13166 -4.27371 0
M  V30 13770 N 1314.03 1.01274 -1.20754 0
M  V30 13771 C 1314.99 2.08056 -0.961528 0
M  V30 13772 C 1315.99 1.60671 0.0644461 0
M  V30 13773 O 1317.18 1.73349 -0.172022 0
M  V30 13774 C 1314.32 3.37938 -0.448381 0
M  V30 13775 H 1315.51 2.31314 -1.90877 0
M  V30 13776 H 1313.06 1.18133 -1.02344 0
M  V30 13777 H 1313.8 3.20357 0.504144 0
M  V30 13778 H 1313.58 3.73659 -1.18833 0
M  V30 13779 H 1315.07 4.16551 -0.295876 0
M  V30 13780 N 1315.51 1.01404 1.20644 0
M  V30 13781 C 1316.76 0.702949 1.90227 0
M  V30 13782 C 1317.09 -0.765243 1.78487 0
M  V30 13783 O 1316.36 -1.55569 1.16741 0
M  V30 13784 C 1316.65 1.13606 3.4171 0
M  V30 13785 C 1316.5 2.66437 3.62397 0
M  V30 13786 C 1317.82 0.705361 4.34411 0
M  V30 13787 H 1314.94 0.256842 0.690797 0
M  V30 13788 H 1317.58 1.26133 1.42093 0
M  V30 13789 H 1315.73 0.660977 3.82836 0
M  V30 13790 H 1317.4 3.21778 3.3054 0
M  V30 13791 H 1315.64 3.0753 3.05954 0
M  V30 13792 H 1316.32 2.91795 4.68572 0
M  V30 13793 H 1318.79 1.11375 4.00918 0
M  V30 13794 H 1317.67 1.03647 5.39026 0
M  V30 13795 H 1317.93 -0.393094 4.40349 0
M  V30 13796 N 1316.99 -1.36373 0.789944 0
M  V30 13797 C 1317.92 -2.32616 0.202944 0
M  V30 13798 C 1318.9 -1.56674 -0.662364 0
M  V30 13799 O 1320.08 -1.84826 -0.596078 0
M  V30 13800 C 1317.21 -3.4092 -0.662646 0
M  V30 13801 C 1316.17 -4.27877 0.102811 0
M  V30 13802 C 1315.49 -5.27352 -0.883407 0
M  V30 13803 C 1316.79 -5.0606 1.29231 0
M  V30 13804 H 1318.49 -2.81958 1.00699 0
M  V30 13805 H 1316.03 -1.35562 0.48568 0
M  V30 13806 H 1317.99 -4.07239 -1.08324 0
M  V30 13807 H 1316.71 -2.90147 -1.4994 0
M  V30 13808 H 1315.37 -3.63114 0.504389 0
M  V30 13809 H 1315.02 -4.72853 -1.71521 0
M  V30 13810 H 1314.72 -5.86398 -0.375669 0
M  V30 13811 H 1316.24 -5.96545 -1.30256 0
M  V30 13812 H 1317.66 -5.65417 0.947446 0
M  V30 13813 H 1316.05 -5.74521 1.73338 0
M  V30 13814 H 1317.12 -4.37671 2.08739 0
M  V30 13815 N 1318.47 -0.542005 -1.47987 0
M  V30 13816 C 1319.69 -0.0146835 -2.07395 0
M  V30 13817 C 1320.12 1.26266 -1.39422 0
M  V30 13818 O 1319.47 1.75259 -0.464118 0
M  V30 13819 C 1319.52 0.179937 -3.60151 0
M  V30 13820 O 1318.63 1.24596 -3.93128 0
M  V30 13821 H 1317.97 -0.0445076 -0.662507 0
M  V30 13822 H 1320.5 -0.753352 -1.90226 0
M  V30 13823 H 1320.51 0.398876 -4.06046 0
M  V30 13824 H 1319.18 -0.753093 -4.09025 0
M  V30 13825 H 1317.76 1.00872 -3.58997 0
M  V30 13826 N 1319.94 1.55134 -0.277709 0
M  V30 13827 C 1321.22 1.91667 0.390253 0
M  V30 13828 C 1321.6 1.20228 1.73518 0
M  V30 13829 O 1320.95 0.330013 2.26104 0
M  V30 13830 C 1321.16 3.44983 0.52797 0
M  V30 13831 C 1322.51 4.16809 0.809665 0
M  V30 13832 O 1323.53 3.50891 0.612679 0
M  V30 13833 O 1322.39 5.33463 1.18656 0
M  V30 13834 H 1319.48 0.798807 0.214095 0
M  V30 13835 H 1322.03 1.66577 -0.324053 0
M  V30 13836 H 1320.8 3.89056 -0.418422 0
M  V30 13837 H 1320.42 3.76035 1.29164 0
M  V30 13838 N 1321.42 0.00503138 1.57599 0
M  V30 13839 C 1322.67 -0.67742 1.90409 0
M  V30 13840 C 1322.99 -1.74033 0.87963 0
M  V30 13841 O 1322.26 -1.95727 -0.0822757 0
M  V30 13842 H 1320.84 -0.2532 0.702779 0
M  V30 13843 H 1323.5 0.0471466 1.94843 0
M  V30 13844 H 1322.6 -1.14548 2.90319 0
M  V30 13845 N 1322.9 -1.55308 -0.267798 0
M  V30 13846 C 1324.32 -1.47264 -0.61526 0
M  V30 13847 C 1324.52 -0.691025 -1.8928 0
M  V30 13848 O 1323.57 -0.211964 -2.51609 0
M  V30 13849 C 1324.88 -2.91519 -0.73739 0
M  V30 13850 C 1326.43 -3.01764 -0.831102 0
M  V30 13851 C 1326.91 -4.47283 -0.984965 0
M  V30 13852 N 1328.4 -4.51134 -1.05036 0
M  V30 13853 C 1329.13 -5.60952 -1.1883 0
M  V30 13854 N 1328.63 -6.80625 -1.29311 0
M  V30 13855 N 1330.42 -5.48705 -1.21982 0
M  V30 13856 H 1322.57 -2.04577 0.57114 0
M  V30 13857 H 1324.84 -0.927908 0.194141 0
M  V30 13858 H 1324.54 -3.51456 0.130974 0
M  V30 13859 H 1324.42 -3.40829 -1.61603 0
M  V30 13860 H 1326.8 -2.4192 -1.68993 0
M  V30 13861 H 1326.88 -2.55698 0.0722509 0
M  V30 13862 H 1326.53 -5.07732 -0.130776 0
M  V30 13863 H 1326.46 -4.91011 -1.90305 0
M  V30 13864 H 1328.95 -3.6493 -0.981551 0
M  V30 13865 H 1329.26 -7.60071 -1.39685 0
M  V30 13866 H 1327.61 -6.83426 -1.26306 0
M  V30 13867 H 1330.8 -4.5415 -1.13428 0
M  V30 13868 H 1330.97 -6.34332 -1.32388 0
M  V30 13869 N 1324.38 0.532545 -1.4833 0
M  V30 13870 C 1325.79 0.860843 -1.34394 0
M  V30 13871 C 1325.99 1.98384 -0.353013 0
M  V30 13872 O 1325.05 2.5148 0.226688 0
M  V30 13873 C 1326.36 1.23079 -2.74358 0
M  V30 13874 C 1327.91 1.34082 -2.82827 0
M  V30 13875 C 1328.39 1.74421 -4.23487 0
M  V30 13876 N 1329.88 1.81528 -4.26148 0
M  V30 13877 C 1330.61 2.1412 -5.31921 0
M  V30 13878 N 1330.11 2.45154 -6.47975 0
M  V30 13879 N 1331.9 2.15104 -5.19314 0
M  V30 13880 H 1324.05 -0.208464 -2.11375 0
M  V30 13881 H 1326.31 -0.03062 -0.947505 0
M  V30 13882 H 1326.02 0.47926 -3.48419 0
M  V30 13883 H 1325.89 2.18151 -3.07718 0
M  V30 13884 H 1328.28 2.08311 -2.09022 0
M  V30 13885 H 1328.36 0.37137 -2.5309 0
M  V30 13886 H 1328.01 1.00752 -4.97807 0
M  V30 13887 H 1327.94 2.72411 -4.50666 0
M  V30 13888 H 1330.43 1.59832 -3.42436 0
M  V30 13889 H 1330.74 2.69121 -7.24426 0
M  V30 13890 H 1329.09 2.42679 -6.51254 0
M  V30 13891 H 1332.28 1.90315 -4.27666 0
M  V30 13892 H 1332.45 2.40173 -6.01848 0
M  V30 13893 N 1325.86 1.36875 0.78122 0
M  V30 13894 C 1327.1 1.30886 1.53466 0
M  V30 13895 C 1327.42 -0.107218 1.95306 0
M  V30 13896 O 1328.62 -0.289525 2.69952 0
M  V30 13897 C 1327.08 2.29688 2.77076 0
M  V30 13898 C 1326.69 3.76775 2.42373 0
M  V30 13899 C 1328.43 2.32692 3.55042 0
M  V30 13900 C 1326.34 4.67332 3.62428 0
M  V30 13901 H 1325.27 0.486408 0.576128 0
M  V30 13902 H 1327.92 1.62283 0.856529 0
M  V30 13903 H 1326.3 1.91296 3.4673 0
M  V30 13904 H 1327.48 4.2395 1.80563 0
M  V30 13905 H 1325.79 3.76625 1.77602 0
M  V30 13906 H 1328.39 2.97556 4.44257 0
M  V30 13907 H 1328.73 1.33779 3.94219 0
M  V30 13908 H 1329.26 2.69743 2.92375 0
M  V30 13909 H 1326 5.67339 3.2834 0
M  V30 13910 H 1325.52 4.24868 4.23376 0
M  V30 13911 H 1327.2 4.84005 4.29358 0
M  V30 13912 N 1327.33 -1.00632 1.21289 0
M  V30 13913 C 1328.24 -2.12829 0.986957 0
M  V30 13914 C 1329.26 -1.73895 -0.0605152 0
M  V30 13915 O 1330.44 -2.00985 0.129238 0
M  V30 13916 C 1327.5 -3.4226 0.553089 0
M  V30 13917 C 1326.56 -3.95376 1.67262 0
M  V30 13918 C 1325.79 -5.18629 1.25936 0
M  V30 13919 O 1326.02 -5.70246 0.132402 0
M  V30 13920 O 1324.95 -5.65157 2.07077 0
M  V30 13921 H 1328.78 -2.34765 1.92663 0
M  V30 13922 H 1326.36 -1.11208 0.997654 0
M  V30 13923 H 1328.24 -4.20177 0.320856 0
M  V30 13924 H 1326.92 -3.21716 -0.357881 0
M  V30 13925 H 1325.83 -3.18692 1.95924 0
M  V30 13926 H 1327.16 -4.20328 2.56097 0
M  V30 13927 N 1328.81 -1.02043 -1.20104 0
M  V30 13928 C 1330.04 -0.731142 -1.94085 0
M  V30 13929 C 1330.46 0.702467 -1.74491 0
M  V30 13930 O 1329.82 1.48387 -1.04168 0
M  V30 13931 C 1329.87 -1.07691 -3.44144 0
M  V30 13932 O 1328.97 -0.190751 -4.11959 0
M  V30 13933 H 1328.31 -0.270917 -0.606218 0
M  V30 13934 H 1330.84 -1.36483 -1.52426 0
M  V30 13935 H 1330.85 -1.03023 -3.94779 0
M  V30 13936 H 1329.53 -2.1214 -3.57728 0
M  V30 13937 H 1328.1 -0.29529 -3.71729 0
M  V30 13938 N 1330.29 1.35952 -0.797165 0
M  V30 13939 C 1331.7 1.81554 -0.435311 0
M  V30 13940 C 1332.05 1.66266 1.04164 0
M  V30 13941 O 1331.18 1.18796 1.80877 0
M  V30 13942 C 1331.77 3.29619 -0.783358 0
M  V30 13943 C 1330.33 3.73401 -0.47423 0
M  V30 13944 C 1329.48 2.58098 -1.01394 0
M  V30 13945 H 1332.43 1.24064 -0.989638 0
M  V30 13946 H 1332.45 3.80421 -0.0773381 0
M  V30 13947 H 1331.96 3.40715 -1.85836 0
M  V30 13948 H 1330.06 3.6786 0.592418 0
M  V30 13949 H 1330.18 4.68542 -1.00026 0
M  V30 13950 H 1328.54 2.50927 -0.436747 0
M  V30 13951 H 1329.32 2.71976 -2.09485 0
M  V30 13952 N 1331.77 0.549846 1.47697 0
M  V30 13953 C 1333.01 0.0230845 2.02787 0
M  V30 13954 C 1333.35 -1.32035 1.42409 0
M  V30 13955 O 1332.62 -1.85745 0.576978 0
M  V30 13956 C 1332.91 -0.0778363 3.60016 0
M  V30 13957 C 1332.76 1.29217 4.3084 0
M  V30 13958 C 1334.08 -0.794909 4.32862 0
M  V30 13959 H 1331.2 0.00986307 0.736934 0
M  V30 13960 H 1333.84 0.710714 1.76207 0
M  V30 13961 H 1331.99 -0.663464 3.82793 0
M  V30 13962 H 1333.66 1.92044 4.19424 0
M  V30 13963 H 1331.9 1.86883 3.91481 0
M  V30 13964 H 1332.57 1.17435 5.39364 0
M  V30 13965 H 1335.05 -0.297743 4.15033 0
M  V30 13966 H 1333.93 -0.834466 5.4252 0
M  V30 13967 H 1334.19 -1.84948 4.01555 0
M  V30 13968 N 1333.25 -1.54984 0.285932 0
M  V30 13969 C 1334.47 -2.04239 -0.330774 0
M  V30 13970 C 1334.89 -1.16387 -1.48659 0
M  V30 13971 O 1334.25 -0.186255 -1.81547 0
M  V30 13972 C 1334.3 -3.52504 -0.801456 0
M  V30 13973 O 1334.02 -4.37014 0.30834 0
M  V30 13974 C 1335.52 -4.17692 -1.48487 0
M  V30 13975 H 1332.74 -0.666903 -0.0740351 0
M  V30 13976 H 1335.28 -2.00116 0.421178 0
M  V30 13977 H 1333.44 -3.57036 -1.50347 0
M  V30 13978 H 1333.85 -5.24471 -0.0553891 0
M  V30 13979 H 1335.33 -5.23004 -1.76552 0
M  V30 13980 H 1335.8 -3.66515 -2.41999 0
M  V30 13981 H 1336.41 -4.17193 -0.826428 0
M  V30 13982 N 1334.72 -0.0133892 -1.57594 0
M  V30 13983 C 1336.14 0.527615 -1.7909 0
M  V30 13984 C 1336.49 1.73179 -0.922142 0
M  V30 13985 O 1335.61 2.1602 -0.128233 0
M  V30 13986 C 1336.21 0.963949 -3.24798 0
M  V30 13987 C 1334.77 1.45017 -3.47343 0
M  V30 13988 C 1333.91 0.407548 -2.74289 0
M  V30 13989 H 1336.86 -0.239505 -1.56882 0
M  V30 13990 H 1336.88 1.82924 -3.33645 0
M  V30 13991 H 1336.4 0.0873315 -3.88002 0
M  V30 13992 H 1334.5 2.34724 -2.89371 0
M  V30 13993 H 1334.61 1.4684 -4.56043 0
M  V30 13994 H 1332.97 0.872174 -2.39301 0
M  V30 13995 H 1333.76 -0.460333 -3.402 0
M  V30 13996 N 1336.2 1.55448 0.259558 0
M  V30 13997 C 1337.45 1.76948 0.990816 0
M  V30 13998 C 1337.78 0.576401 1.85449 0
M  V30 13999 O 1337.06 -0.425693 1.89784 0
M  V30 14000 C 1337.34 3.08221 1.86204 0
M  V30 14001 C 1337.19 4.37909 1.0274 0
M  V30 14002 C 1338.51 3.35627 2.84679 0
M  V30 14003 H 1335.63 0.64377 0.358788 0
M  V30 14004 H 1338.27 1.88182 0.262211 0
M  V30 14005 H 1336.42 2.98775 2.48326 0
M  V30 14006 H 1338.09 4.5933 0.425855 0
M  V30 14007 H 1336.34 4.32533 0.331308 0
M  V30 14008 H 1337.01 5.26116 1.6705 0
M  V30 14009 H 1339.48 3.44954 2.32693 0
M  V30 14010 H 1338.36 4.28719 3.42769 0
M  V30 14011 H 1338.62 2.55921 3.60496 0
M  V30 14012 N 1337.68 -0.524672 1.4861 0
M  V30 14013 C 1338.61 -1.63782 1.66426 0
M  V30 14014 C 1339.59 -1.62177 0.513077 0
M  V30 14015 O 1340.78 -1.7929 0.74623 0
M  V30 14016 C 1337.91 -3.02354 1.70877 0
M  V30 14017 C 1336.86 -3.18819 2.85549 0
M  V30 14018 C 1336.19 -4.58506 2.75094 0
M  V30 14019 C 1337.49 -3.01086 4.26784 0
M  V30 14020 H 1339.18 -1.49127 2.59618 0
M  V30 14021 H 1336.73 -0.715997 1.24938 0
M  V30 14022 H 1338.68 -3.80105 1.81929 0
M  V30 14023 H 1337.4 -3.18044 0.742682 0
M  V30 14024 H 1336.06 -2.43487 2.74061 0
M  V30 14025 H 1335.71 -4.71038 1.76443 0
M  V30 14026 H 1335.41 -4.70466 3.52044 0
M  V30 14027 H 1336.93 -5.38348 2.88121 0
M  V30 14028 H 1338.35 -3.68624 4.39077 0
M  V30 14029 H 1336.75 -3.24536 5.04774 0
M  V30 14030 H 1337.82 -1.97454 4.42877 0
M  V30 14031 N 1339.16 -1.37287 -0.77395 0
M  V30 14032 C 1340.4 -1.3257 -1.5347 0
M  V30 14033 C 1340.74 0.090346 -1.9399 0
M  V30 14034 O 1340.01 1.04719 -1.63903 0
M  V30 14035 C 1340.3 -2.26277 -2.80126 0
M  V30 14036 C 1340.15 -3.76651 -2.45874 0
M  V30 14037 C 1341.47 -2.18471 -3.82045 0
M  V30 14038 H 1338.59 -0.48289 -0.556764 0
M  V30 14039 H 1341.23 -1.6797 -0.888039 0
M  V30 14040 H 1339.38 -1.96219 -3.35306 0
M  V30 14041 H 1341.05 -4.17296 -1.96626 0
M  V30 14042 H 1339.29 -3.95327 -1.78602 0
M  V30 14043 H 1339.96 -4.3765 -3.36403 0
M  V30 14044 H 1342.44 -2.44962 -3.36352 0
M  V30 14045 H 1341.32 -2.86183 -4.68392 0
M  V30 14046 H 1341.58 -1.17692 -4.26147 0
M  V30 14047 N 1340.64 0.999871 -1.21821 0
M  V30 14048 C 1341.58 2.08864 -0.98206 0
M  V30 14049 C 1342.55 1.65835 0.0937677 0
M  V30 14050 O 1343.74 1.90722 -0.0544038 0
M  V30 14051 C 1340.88 3.40553 -0.558382 0
M  V30 14052 C 1339.99 3.96964 -1.70422 0
M  V30 14053 C 1339.13 5.16782 -1.2292 0
M  V30 14054 C 1338.17 5.65315 -2.34703 0
M  V30 14055 N 1337.3 6.76379 -1.88299 0
M  V30 14056 H 1342.14 2.28399 -1.9141 0
M  V30 14057 H 1339.68 1.11984 -0.953837 0
M  V30 14058 H 1341.64 4.16163 -0.293955 0
M  V30 14059 H 1340.27 3.2104 0.336656 0
M  V30 14060 H 1339.32 3.18291 -2.08315 0
M  V30 14061 H 1340.63 4.2897 -2.54531 0
M  V30 14062 H 1339.79 5.99657 -0.92174 0
M  V30 14063 H 1338.52 4.86383 -0.358222 0
M  V30 14064 H 1337.53 4.81033 -2.66246 0
M  V30 14065 H 1338.75 5.97742 -3.22306 0
M  V30 14066 H 1336.7 6.47775 -1.03552 0
M  V30 14067 H 1336.62 7.07666 -2.65978 0
M  V30 14068 H 1337.89 7.62776 -1.60601 0
M  V30 14069 N 1342.11 1.02678 1.19562 0
M  V30 14070 C 1343.36 0.723086 1.89471 0
M  V30 14071 C 1343.69 -0.746269 1.79289 0
M  V30 14072 O 1342.97 -1.54322 1.18384 0
M  V30 14073 C 1343.25 1.17224 3.40486 0
M  V30 14074 C 1343.1 2.70266 3.5955 0
M  V30 14075 C 1344.42 0.751397 4.33638 0
M  V30 14076 H 1341.54 0.264155 0.688034 0
M  V30 14077 H 1344.18 1.27633 1.40747 0
M  V30 14078 H 1342.33 0.701544 3.82113 0
M  V30 14079 H 1344.01 3.25266 3.27108 0
M  V30 14080 H 1342.25 3.10758 3.02675 0
M  V30 14081 H 1342.92 2.96748 4.65451 0
M  V30 14082 H 1345.4 1.15621 3.99714 0
M  V30 14083 H 1344.27 1.09358 5.37896 0
M  V30 14084 H 1344.53 -0.346367 4.40741 0
M  V30 14085 N 1343.59 -1.35528 0.804364 0
M  V30 14086 C 1344.84 -1.98084 0.380196 0
M  V30 14087 C 1345.15 -1.64531 -1.05778 0
M  V30 14088 O 1346.36 -2.20435 -1.58495 0
M  V30 14089 C 1344.82 -3.54364 0.628848 0
M  V30 14090 C 1344.42 -3.96828 2.07921 0
M  V30 14091 C 1346.17 -4.23641 0.269927 0
M  V30 14092 C 1344.08 -5.45944 2.27374 0
M  V30 14093 H 1343.01 -0.741185 0.138422 0
M  V30 14094 H 1345.66 -1.54624 0.988107 0
M  V30 14095 H 1344.04 -3.9597 -0.0489837 0
M  V30 14096 H 1345.21 -3.6638 2.79467 0
M  V30 14097 H 1343.53 -3.40433 2.39779 0
M  V30 14098 H 1346.12 -5.33251 0.393344 0
M  V30 14099 H 1346.47 -4.08858 -0.783644 0
M  V30 14100 H 1347 -3.87448 0.901588 0
M  V30 14101 H 1343.74 -5.65693 3.31168 0
M  V30 14102 H 1343.26 -5.77969 1.6035 0
M  V30 14103 H 1344.94 -6.12376 2.08817 0
M  V30 14104 N 1345.07 -0.557671 -1.47404 0
M  V30 14105 C 1346.32 -0.0338384 -2.02772 0
M  V30 14106 C 1346.65 1.31278 -1.43107 0
M  V30 14107 O 1345.93 1.85436 -0.58682 0
M  V30 14108 C 1346.21 0.0587427 -3.60052 0
M  V30 14109 C 1346.06 -1.315 -4.30148 0
M  V30 14110 C 1347.38 0.771942 -4.33277 0
M  V30 14111 H 1344.5 -0.0137711 -0.736871 0
M  V30 14112 H 1347.14 -0.720049 -1.75827 0
M  V30 14113 H 1345.29 0.643154 -3.83139 0
M  V30 14114 H 1346.96 -1.94265 -4.184 0
M  V30 14115 H 1345.21 -1.88956 -3.90484 0
M  V30 14116 H 1345.88 -1.20294 -5.38733 0
M  V30 14117 H 1348.35 0.275729 -4.15185 0
M  V30 14118 H 1347.23 0.805683 -5.42955 0
M  V30 14119 H 1347.49 1.82816 -4.0253 0
M  V30 14120 N 1346.55 1.54831 -0.294147 0
M  V30 14121 C 1347.5 2.23263 0.58499 0
M  V30 14122 C 1348.47 1.21278 1.13494 0
M  V30 14123 O 1349.65 1.49878 1.18073 0
M  V30 14124 C 1346.79 2.97185 1.75429 0
M  V30 14125 C 1345.9 4.1393 1.23638 0
M  V30 14126 C 1345.04 4.7545 2.36899 0
M  V30 14127 C 1344.08 5.84352 1.82207 0
M  V30 14128 N 1343.22 6.39855 2.89015 0
M  V30 14129 H 1348.06 2.98 -0.00519329 0
M  V30 14130 H 1345.59 1.47093 -0.0143313 0
M  V30 14131 H 1347.55 3.38271 2.4419 0
M  V30 14132 H 1346.18 2.24837 2.3162 0
M  V30 14133 H 1345.23 3.77832 0.441247 0
M  V30 14134 H 1346.54 4.92409 0.795946 0
M  V30 14135 H 1345.7 5.19353 3.1362 0
M  V30 14136 H 1344.44 3.96288 2.84266 0
M  V30 14137 H 1343.44 5.39879 1.03974 0
M  V30 14138 H 1344.67 6.65393 1.35753 0
M  V30 14139 H 1342.61 5.6358 3.35729 0
M  V30 14140 H 1342.53 7.13661 2.49447 0
M  V30 14141 H 1343.8 6.88417 3.65654 0
M  V30 14142 N 1348.03 0.0217466 1.57585 0
M  V30 14143 C 1349.44 -0.51811 1.79367 0
M  V30 14144 C 1349.79 -1.72688 0.931313 0
M  V30 14145 O 1348.91 -2.15949 0.139687 0
M  V30 14146 C 1349.51 -0.946711 3.25304 0
M  V30 14147 C 1348.07 -1.43173 3.48107 0
M  V30 14148 C 1347.22 -0.392996 2.74501 0
M  V30 14149 H 1350.17 0.247822 1.56753 0
M  V30 14150 H 1350.19 -1.81152 3.34611 0
M  V30 14151 H 1349.7 -0.0667536 3.88043 0
M  V30 14152 H 1347.8 -2.33186 2.90612 0
M  V30 14153 H 1347.91 -1.44419 4.56815 0
M  V30 14154 H 1346.28 -0.859471 2.39761 0
M  V30 14155 H 1347.06 0.478368 3.39951 0
M  V30 14156 N 1349.51 -1.55583 -0.251311 0
M  V30 14157 C 1350.73 -1.81259 -0.997636 0
M  V30 14158 C 1351.15 -0.596861 -1.79117 0
M  V30 14159 O 1350.51 0.434425 -1.77254 0
M  V30 14160 C 1350.56 -3.05097 -1.93902 0
M  V30 14161 O 1350.28 -4.21976 -1.1776 0
M  V30 14162 C 1351.78 -3.4354 -2.8017 0
M  V30 14163 H 1349 -0.603279 -0.29376 0
M  V30 14164 H 1351.54 -2.02635 -0.27553 0
M  V30 14165 H 1349.7 -2.85784 -2.61546 0
M  V30 14166 H 1350.11 -4.92133 -1.81398 0
M  V30 14167 H 1351.59 -4.33305 -3.41981 0
M  V30 14168 H 1352.06 -2.63924 -3.51057 0
M  V30 14169 H 1352.67 -3.65189 -2.17985 0
M  V30 14170 N 1350.98 0.516783 -1.48886 0
M  V30 14171 C 1352.23 1.27375 -1.57808 0
M  V30 14172 C 1352.56 1.92492 -0.256963 0
M  V30 14173 O 1351.84 1.79947 0.738193 0
M  V30 14174 C 1352.12 2.35295 -2.72595 0
M  V30 14175 C 1351.97 1.74783 -4.14453 0
M  V30 14176 C 1353.29 3.36973 -2.83085 0
M  V30 14177 H 1350.41 0.46175 -0.574418 0
M  V30 14178 H 1353.05 0.57434 -1.81111 0
M  V30 14179 H 1351.2 2.94951 -2.52857 0
M  V30 14180 H 1352.88 1.19076 -4.45666 0
M  V30 14181 H 1351.12 1.05258 -4.20836 0
M  V30 14182 H 1351.79 2.52985 -4.90615 0
M  V30 14183 H 1354.27 2.87289 -3.01005 0
M  V30 14184 H 1353.14 4.09864 -3.65106 0
M  V30 14185 H 1353.4 3.98336 -1.91784 0
M  V30 14186 N 1352.46 1.37696 0.766659 0
M  V30 14187 C 1353.41 1.33871 1.88009 0
M  V30 14188 C 1354.38 0.2034 1.6485 0
M  V30 14189 O 1355.56 0.393569 1.86697 0
M  V30 14190 C 1352.7 1.1566 3.25141 0
M  V30 14191 C 1351.82 2.38465 3.6022 0
M  V30 14192 C 1350.95 2.13087 4.86587 0
M  V30 14193 C 1349.99 3.31732 5.14413 0
M  V30 14194 N 1349.13 3.05872 6.3197 0
M  V30 14195 H 1353.97 2.29065 1.90613 0
M  V30 14196 H 1351.5 1.13821 0.931837 0
M  V30 14197 H 1353.46 1.03122 4.04255 0
M  V30 14198 H 1352.09 0.241115 3.21898 0
M  V30 14199 H 1351.14 2.61725 2.76051 0
M  V30 14200 H 1352.46 3.26933 3.76718 0
M  V30 14201 H 1351.61 1.97609 5.73616 0
M  V30 14202 H 1350.35 1.21965 4.72203 0
M  V30 14203 H 1349.35 3.47743 4.25858 0
M  V30 14204 H 1350.58 4.23712 5.30702 0
M  V30 14205 H 1348.53 2.17384 6.18935 0
M  V30 14206 H 1348.44 3.87885 6.48908 0
M  V30 14207 H 1349.71 2.94023 7.21922 0
M  V30 14208 N 1353.94 -0.993397 1.22349 0
M  V30 14209 C 1354.87 -2.10171 1.01737 0
M  V30 14210 C 1355.85 -1.69989 -0.0615276 0
M  V30 14211 O 1357.04 -1.93939 0.100591 0
M  V30 14212 C 1354.17 -3.42186 0.593801 0
M  V30 14213 C 1353.12 -3.96215 1.61858 0
M  V30 14214 C 1352.45 -5.24272 1.05086 0
M  V30 14215 C 1353.75 -4.26956 3.00842 0
M  V30 14216 H 1355.44 -2.27673 1.94436 0
M  V30 14217 H 1352.99 -1.09408 0.936258 0
M  V30 14218 H 1354.94 -4.19131 0.436715 0
M  V30 14219 H 1353.66 -3.2451 -0.368855 0
M  V30 14220 H 1352.32 -3.21401 1.76343 0
M  V30 14221 H 1351.97 -5.02937 0.0795747 0
M  V30 14222 H 1351.67 -5.61387 1.73547 0
M  V30 14223 H 1353.19 -6.03851 0.905349 0
M  V30 14224 H 1354.61 -4.94699 2.89734 0
M  V30 14225 H 1353 -4.75242 3.66422 0
M  V30 14226 H 1354.07 -3.34752 3.50812 0
M  V30 14227 N 1355.42 -1.03311 -1.19015 0
M  V30 14228 C 1356.65 -0.751802 -1.92758 0
M  V30 14229 C 1357.06 0.689982 -1.7574 0
M  V30 14230 O 1356.42 1.46961 -1.08207 0
M  V30 14231 C 1356.47 -1.09892 -3.44392 0
M  V30 14232 O 1356.19 -2.48409 -3.60866 0
M  V30 14233 C 1357.69 -0.841029 -4.35249 0
M  V30 14234 H 1354.91 -0.274757 -0.612168 0
M  V30 14235 H 1357.45 -1.37873 -1.51034 0
M  V30 14236 H 1355.61 -0.517092 -3.83933 0
M  V30 14237 H 1356.02 -2.61468 -4.54681 0
M  V30 14238 H 1357.5 -1.13383 -5.4023 0
M  V30 14239 H 1357.97 0.224434 -4.38626 0
M  V30 14240 H 1358.58 -1.40579 -4.01395 0
M  V30 14241 N 1356.9 1.35099 -0.81154 0
M  V30 14242 C 1357.86 2.28033 -0.230947 0
M  V30 14243 C 1358.86 1.49798 0.584575 0
M  V30 14244 O 1360.05 1.6949 0.402336 0
M  V30 14245 C 1357.18 3.341 0.677486 0
M  V30 14246 H 1358.37 2.80893 -1.05067 0
M  V30 14247 H 1355.93 1.45038 -0.582554 0
M  V30 14248 H 1356.66 2.86435 1.5207 0
M  V30 14249 H 1356.45 3.91986 0.0943563 0
M  V30 14250 H 1357.94 4.0345 1.07787 0
M  V30 14251 N 1358.37 0.56548 1.47106 0
M  V30 14252 C 1359.78 0.134289 1.86216 0
M  V30 14253 C 1360.14 -1.29815 1.47114 0
M  V30 14254 O 1359.26 -1.97787 0.878017 0
M  V30 14255 C 1359.86 0.236931 3.37971 0
M  V30 14256 C 1358.41 -0.139275 3.76142 0
M  V30 14257 C 1357.56 0.580743 2.71151 0
M  V30 14258 H 1360.51 0.774723 1.38505 0
M  V30 14259 H 1360.53 -0.542301 3.76616 0
M  V30 14260 H 1360.05 1.27958 3.66399 0
M  V30 14261 H 1358.15 -1.18272 3.53331 0
M  V30 14262 H 1358.26 0.225045 4.78571 0
M  V30 14263 H 1356.62 0.0228963 2.5469 0
M  V30 14264 H 1357.41 1.62471 3.0242 0
M  V30 14265 N 1359.85 -1.54672 0.302354 0
M  V30 14266 C 1360.8 -2.2357 -0.573141 0
M  V30 14267 C 1361.77 -1.21878 -1.12849 0
M  V30 14268 O 1362.95 -1.50502 -1.17277 0
M  V30 14269 C 1360.09 -2.98111 -1.7385 0
M  V30 14270 C 1359.21 -4.14579 -1.21441 0
M  V30 14271 C 1358.34 -4.76699 -2.34374 0
M  V30 14272 C 1357.38 -5.8531 -1.79106 0
M  V30 14273 N 1356.52 -6.41379 -2.85618 0
M  V30 14274 H 1361.36 -2.97993 0.0209969 0
M  V30 14275 H 1358.9 -1.47083 0.0221318 0
M  V30 14276 H 1360.85 -3.39561 -2.42392 0
M  V30 14277 H 1359.48 -2.26063 -2.30425 0
M  V30 14278 H 1358.54 -3.78061 -0.421204 0
M  V30 14279 H 1359.85 -4.92824 -0.769821 0
M  V30 14280 H 1359 -5.21009 -3.10861 0
M  V30 14281 H 1357.74 -3.9779 -2.8216 0
M  V30 14282 H 1356.75 -5.40423 -1.01109 0
M  V30 14283 H 1357.97 -6.66104 -1.32222 0
M  V30 14284 H 1355.92 -5.65352 -3.32735 0
M  V30 14285 H 1355.83 -7.14974 -2.45659 0
M  V30 14286 H 1357.1 -6.90346 -3.61998 0
M  V30 14287 N 1361.33 -0.0301034 -1.57571 0
M  V30 14288 C 1362.56 0.662045 -1.9655 0
M  V30 14289 C 1362.98 1.64811 -0.906581 0
M  V30 14290 O 1362.34 1.80816 0.132415 0
M  V30 14291 C 1362.39 1.34389 -3.34622 0
M  V30 14292 O 1361.49 2.45919 -3.31056 0
M  V30 14293 H 1360.83 0.173842 -0.640839 0
M  V30 14294 H 1363.36 -0.092248 -2.04392 0
M  V30 14295 H 1363.37 1.70045 -3.70875 0
M  V30 14296 H 1362.05 0.621092 -4.11236 0
M  V30 14297 H 1360.62 2.12367 -3.06521 0
M  V30 14298 N 1362.81 1.55714 0.243056 0
M  V30 14299 C 1363.76 1.91467 1.32072 0
M  V30 14300 C 1364.75 0.794182 1.4963 0
M  V30 14301 O 1365.96 0.978835 1.51059 0
M  V30 14302 H 1362.33 0.60815 0.442333 0
M  V30 14303 H 1364.3 2.81433 0.991865 0
M  V30 14304 C 1363.05 2.22917 2.6684 0
M  V30 14305 H 1362.37 3.08639 2.5413 0
M  V30 14306 H 1363.81 2.51833 3.4111 0
M  V30 14307 C 1362.27 1.04683 3.20223 0
M  V30 14308 O 1362.8 0.296806 4.00602 0
M  V30 14309 N 1361.01 0.836419 2.78303 0
M  V30 14310 H 1360.56 1.44804 2.13048 0
M  V30 14311 H 1360.51 0.0470167 3.14365 0
M  V30 14312 N 1364.29 -0.50888 1.49158 0
M  V30 14313 C 1365.53 -1.26537 1.58481 0
M  V30 14314 C 1365.87 -1.92353 0.267168 0
M  V30 14315 O 1365.14 -1.80336 -0.728639 0
M  V30 14316 C 1365.42 -2.33846 2.73839 0
M  V30 14317 C 1365.28 -1.72582 4.15374 0
M  V30 14318 C 1366.6 -3.35467 2.84868 0
M  V30 14319 H 1363.71 -0.458697 0.576859 0
M  V30 14320 H 1366.36 -0.564728 1.81413 0
M  V30 14321 H 1364.51 -2.93605 2.54417 0
M  V30 14322 H 1366.18 -1.16711 4.46292 0
M  V30 14323 H 1364.42 -1.03025 4.21389 0
M  V30 14324 H 1365.09 -2.5038 4.91949 0
M  V30 14325 H 1367.57 -2.85689 3.02524 0
M  V30 14326 H 1366.44 -4.07922 3.67275 0
M  V30 14327 H 1366.71 -3.97313 1.93894 0
M  V30 14328 N 1365.76 -1.381 -0.759346 0
M  V30 14329 C 1367.01 -1.3419 -1.52055 0
M  V30 14330 C 1367.34 0.0697657 -1.94075 0
M  V30 14331 O 1366.62 1.02975 -1.65004 0
M  V30 14332 C 1366.9 -2.29236 -2.7771 0
M  V30 14333 C 1366.75 -3.79237 -2.41866 0
M  V30 14334 C 1368.07 -2.22511 -3.79706 0
M  V30 14335 H 1365.19 -0.488768 -0.551611 0
M  V30 14336 H 1367.83 -1.68902 -0.870174 0
M  V30 14337 H 1365.98 -1.99764 -3.33206 0
M  V30 14338 H 1367.66 -4.19358 -1.92189 0
M  V30 14339 H 1365.9 -3.97199 -1.74399 0
M  V30 14340 H 1366.57 -4.41193 -3.31742 0
M  V30 14341 H 1369.05 -2.48516 -3.33735 0
M  V30 14342 H 1367.92 -2.91134 -4.6533 0
M  V30 14343 H 1368.18 -1.22206 -4.24874 0
M  V30 14344 N 1367.24 0.986894 -1.22875 0
M  V30 14345 C 1368.21 2.0597 -1.00544 0
M  V30 14346 C 1369.21 1.60771 0.0303509 0
M  V30 14347 O 1370.4 1.72945 -0.208753 0
M  V30 14348 C 1367.53 3.36911 -0.519962 0
M  V30 14349 H 1368.72 2.27213 -1.9574 0
M  V30 14350 H 1366.27 1.15935 -1.04827 0
M  V30 14351 H 1367.01 3.21355 0.436078 0
M  V30 14352 H 1366.79 3.71054 -1.26732 0
M  V30 14353 H 1368.28 4.15829 -0.384166 0
M  V30 14354 N 1368.72 1.0394 1.18466 0
M  V30 14355 C 1369.95 0.760909 1.92077 0
M  V30 14356 C 1370.36 -0.685622 1.7634 0
M  V30 14357 O 1369.7 -1.47894 1.08963 0
M  V30 14358 C 1369.76 1.04583 3.43952 0
M  V30 14359 C 1369.43 2.48602 3.83466 0
M  V30 14360 C 1370.42 3.46775 3.87354 0
M  V30 14361 C 1368.11 2.8328 4.14798 0
M  V30 14362 C 1370.1 4.77678 4.22022 0
M  V30 14363 C 1367.79 4.1439 4.49138 0
M  V30 14364 C 1368.79 5.11399 4.52725 0
M  V30 14365 O 1368.48 6.40159 4.86264 0
M  V30 14366 H 1368.21 0.276991 0.616646 0
M  V30 14367 H 1370.76 1.3898 1.5124 0
M  V30 14368 H 1368.99 0.359807 3.85022 0
M  V30 14369 H 1370.68 0.755336 3.9881 0
M  V30 14370 H 1371.45 3.21323 3.63286 0
M  V30 14371 H 1367.33 2.08444 4.11184 0
M  V30 14372 H 1370.87 5.53393 4.24737 0
M  V30 14373 H 1366.77 4.39611 4.72666 0
M  V30 14374 H 1367.54 6.4479 5.04171 0
M  V30 14375 N 1370.2 -1.34667 0.818693 0
M  V30 14376 C 1371.45 -1.98022 0.40396 0
M  V30 14377 C 1371.77 -1.65239 -1.03542 0
M  V30 14378 O 1371.04 -0.94097 -1.71821 0
M  V30 14379 H 1369.62 -0.732517 0.146382 0
M  V30 14380 H 1372.28 -1.64377 1.0472 0
M  V30 14381 H 1371.38 -3.07746 0.519516 0
M  V30 14382 N 1371.68 -0.573274 -1.46804 0
M  V30 14383 C 1372.62 0.178246 -2.31916 0
M  V30 14384 C 1373.62 0.89366 -1.4391 0
M  V30 14385 O 1374.82 0.81312 -1.60588 0
M  V30 14386 H 1371.2 0.0763519 -0.748114 0
M  V30 14387 H 1373.17 -0.558552 -2.93126 0
M  V30 14388 C 1371.92 1.18476 -3.26892 0
M  V30 14389 H 1371.24 0.643691 -3.94584 0
M  V30 14390 H 1372.68 1.68118 -3.89246 0
M  V30 14391 C 1371.14 2.24092 -2.51564 0
M  V30 14392 O 1371.67 3.3129 -2.27178 0
M  V30 14393 N 1369.88 1.98447 -2.1229 0
M  V30 14394 H 1369.42 1.11283 -2.32323 0
M  V30 14395 H 1369.38 2.69325 -1.62207 0
M  V30 14396 N 1373.15 1.5451 -0.310553 0
M  V30 14397 C 1374.06 2.27557 0.570518 0
M  V30 14398 C 1375.08 1.31426 1.14032 0
M  V30 14399 O 1376.26 1.64423 1.16306 0
M  V30 14400 C 1373.32 3.00933 1.72163 0
M  V30 14401 C 1372.38 4.12623 1.18495 0
M  V30 14402 C 1371.62 4.8249 2.28121 0
M  V30 14403 O 1371.84 4.5178 3.48211 0
M  V30 14404 O 1370.77 5.69686 1.94273 0
M  V30 14405 H 1374.6 3.03692 -0.0223195 0
M  V30 14406 H 1372.18 1.49203 -0.0766821 0
M  V30 14407 H 1374.07 3.46925 2.39208 0
M  V30 14408 H 1372.74 2.27685 2.3009 0
M  V30 14409 H 1371.65 3.71008 0.479956 0
M  V30 14410 H 1372.98 4.87876 0.650994 0
M  V30 14411 N 1374.63 0.0384594 1.57553 0
M  V30 14412 C 1375.88 -0.63814 1.92182 0
M  V30 14413 C 1376.21 -1.71595 0.915714 0
M  V30 14414 O 1375.46 -1.9556 -0.0739533 0
M  V30 14415 C 1375.76 -1.28439 3.33524 0
M  V30 14416 C 1375.43 -0.336034 4.49646 0
M  V30 14417 C 1374.09 -0.0750373 4.81141 0
M  V30 14418 C 1376.44 0.314642 5.20249 0
M  V30 14419 C 1373.77 0.844286 5.80593 0
M  V30 14420 C 1376.12 1.22208 6.20684 0
M  V30 14421 C 1374.79 1.49187 6.50615 0
M  V30 14422 H 1374.06 -0.233512 0.703245 0
M  V30 14423 H 1376.7 0.102223 1.91227 0
M  V30 14424 H 1375.01 -2.09973 3.30785 0
M  V30 14425 H 1376.71 -1.81462 3.57593 0
M  V30 14426 H 1373.3 -0.549638 4.25061 0
M  V30 14427 H 1377.48 0.126074 4.9614 0
M  V30 14428 H 1372.74 1.06092 6.02125 0
M  V30 14429 H 1376.91 1.7324 6.74508 0
M  V30 14430 H 1374.54 2.20588 7.27492 0
M  V30 14431 N 1376.11 -1.55841 -0.234795 0
M  V30 14432 C 1377.04 -1.94344 -1.29432 0
M  V30 14433 C 1378.02 -0.809912 -1.49581 0
M  V30 14434 O 1379.21 -1.07117 -1.61986 0
M  V30 14435 C 1376.34 -2.24866 -2.64675 0
M  V30 14436 C 1375.29 -3.40584 -2.59203 0
M  V30 14437 C 1374.62 -3.56678 -3.98353 0
M  V30 14438 C 1375.92 -4.75935 -2.15135 0
M  V30 14439 H 1377.61 -2.83096 -0.97454 0
M  V30 14440 H 1375.16 -1.36205 -0.467355 0
M  V30 14441 H 1377.11 -2.50392 -3.38942 0
M  V30 14442 H 1375.83 -1.32953 -2.98314 0
M  V30 14443 H 1374.49 -3.15087 -1.87393 0
M  V30 14444 H 1374.14 -2.62164 -4.29277 0
M  V30 14445 H 1373.84 -4.34503 -3.95577 0
M  V30 14446 H 1375.37 -3.84538 -4.74302 0
M  V30 14447 H 1376.78 -5.00753 -2.7914 0
M  V30 14448 H 1375.18 -5.56949 -2.23446 0
M  V30 14449 H 1376.25 -4.72182 -1.10328 0
M  V30 14450 N 1377.59 0.500963 -1.49426 0
M  V30 14451 C 1378.54 1.6025 -1.66098 0
M  V30 14452 C 1379.51 1.58318 -0.502453 0
M  V30 14453 O 1380.69 1.76304 -0.729482 0
M  V30 14454 C 1377.83 2.98396 -1.73361 0
M  V30 14455 C 1376.94 3.10343 -3.00518 0
M  V30 14456 C 1376.08 4.39222 -2.9876 0
M  V30 14457 C 1375.12 4.44803 -4.20496 0
M  V30 14458 N 1374.26 5.6511 -4.16648 0
M  V30 14459 H 1379.1 1.45342 -2.60153 0
M  V30 14460 H 1376.63 0.707147 -1.28988 0
M  V30 14461 H 1378.59 3.78467 -1.75553 0
M  V30 14462 H 1377.22 3.12007 -0.827718 0
M  V30 14463 H 1376.27 2.23336 -3.07937 0
M  V30 14464 H 1377.58 3.10327 -3.90511 0
M  V30 14465 H 1376.74 5.27613 -2.99515 0
M  V30 14466 H 1375.48 4.41804 -2.06545 0
M  V30 14467 H 1374.48 3.54814 -4.19985 0
M  V30 14468 H 1375.71 4.43937 -5.13903 0
M  V30 14469 H 1373.65 5.68533 -3.2727 0
M  V30 14470 H 1373.57 5.6671 -5.00376 0
M  V30 14471 H 1374.84 6.55708 -4.21506 0
M  V30 14472 N 1379.07 1.38501 0.752011 0
M  V30 14473 C 1380.32 1.34112 1.50655 0
M  V30 14474 C 1380.63 -0.0657661 1.95489 0
M  V30 14475 O 1381.84 -0.232199 2.70505 0
M  V30 14476 C 1380.29 2.35514 2.72142 0
M  V30 14477 C 1379.9 3.81831 2.34326 0
M  V30 14478 C 1381.64 2.40171 3.50026 0
M  V30 14479 C 1379.55 4.74915 3.52434 0
M  V30 14480 H 1378.48 0.498519 0.565681 0
M  V30 14481 H 1381.13 1.64064 0.821913 0
M  V30 14482 H 1379.51 1.98607 3.42595 0
M  V30 14483 H 1380.69 4.27685 1.7153 0
M  V30 14484 H 1379 3.80308 1.69573 0
M  V30 14485 H 1381.6 3.06913 4.37845 0
M  V30 14486 H 1381.94 1.42111 3.91293 0
M  V30 14487 H 1382.48 2.75884 2.86588 0
M  V30 14488 H 1379.21 5.74176 3.16232 0
M  V30 14489 H 1378.73 4.33753 4.14268 0
M  V30 14490 H 1380.41 4.93003 4.18995 0
M  V30 14491 N 1380.55 -0.980364 1.23396 0
M  V30 14492 C 1381.77 -1.75689 1.09275 0
M  V30 14493 C 1382.19 -1.85418 -0.355773 0
M  V30 14494 O 1381.55 -1.33337 -1.24609 0
M  V30 14495 C 1381.6 -3.18378 1.71223 0
M  V30 14496 O 1381.32 -3.09154 3.10411 0
M  V30 14497 C 1382.82 -4.12425 1.62545 0
M  V30 14498 H 1380.04 -0.551354 0.382427 0
M  V30 14499 H 1382.58 -1.23169 1.63247 0
M  V30 14500 H 1380.74 -3.67925 1.21285 0
M  V30 14501 H 1381.15 -3.9898 3.40464 0
M  V30 14502 H 1382.63 -5.1025 2.10592 0
M  V30 14503 H 1383.1 -4.35296 0.584275 0
M  V30 14504 H 1383.71 -3.68782 2.1185 0
M  V30 14505 N 1382.02 -1.04567 -1.17913 0
M  V30 14506 C 1382.99 -0.645476 -2.19923 0
M  V30 14507 C 1383.99 0.299763 -1.57981 0
M  V30 14508 O 1385.18 0.0844825 -1.73995 0
M  V30 14509 C 1382.31 0.0528935 -3.40859 0
M  V30 14510 H 1383.5 -1.54828 -2.56843 0
M  V30 14511 H 1381.05 -0.838812 -1.31885 0
M  V30 14512 H 1381.79 0.969261 -3.09477 0
M  V30 14513 H 1381.57 -0.626558 -3.87062 0
M  V30 14514 H 1383.06 0.319221 -4.16378 0
M  V30 14515 N 1383.5 1.34231 -0.825823 0
M  V30 14516 C 1384.73 2.02417 -0.428348 0
M  V30 14517 C 1385.14 1.62181 0.966573 0
M  V30 14518 O 1384.5 0.828691 1.62601 0
M  V30 14519 C 1384.55 3.57678 -0.524271 0
M  V30 14520 O 1384.27 3.96458 -1.86422 0
M  V30 14521 C 1385.77 4.43132 -0.122069 0
M  V30 14522 H 1382.99 0.648699 -0.171554 0
M  V30 14523 H 1385.54 1.71443 -1.11478 0
M  V30 14524 H 1383.69 3.87232 0.114112 0
M  V30 14525 H 1384.11 4.91147 -1.84051 0
M  V30 14526 H 1385.58 5.51477 -0.240264 0
M  V30 14527 H 1386.06 4.29139 0.934705 0
M  V30 14528 H 1386.66 4.18912 -0.734366 0
M  V30 14529 N 1384.98 0.581051 1.46498 0
M  V30 14530 C 1385.94 -0.142937 2.28754 0
M  V30 14531 C 1386.94 -0.820383 1.38298 0
M  V30 14532 O 1388.13 -0.672592 1.60692 0
M  V30 14533 C 1385.26 -1.21176 3.18637 0
M  V30 14534 H 1386.46 0.579918 2.9424 0
M  V30 14535 H 1384.01 0.338951 1.52581 0
M  V30 14536 H 1384.75 -1.96624 2.57894 0
M  V30 14537 H 1384.53 -0.730517 3.85235 0
M  V30 14538 H 1386.02 -1.71958 3.80552 0
M  V30 14539 N 1386.46 -1.54343 0.318742 0
M  V30 14540 C 1387.68 -2.05361 -0.290126 0
M  V30 14541 C 1388.11 -1.19362 -1.45376 0
M  V30 14542 O 1387.47 -0.201639 -1.80175 0
M  V30 14543 C 1387.51 -3.53601 -0.707025 0
M  V30 14544 O 1386.62 -3.70561 -1.80992 0
M  V30 14545 H 1385.96 -0.661858 -0.0532933 0
M  V30 14546 H 1388.49 -1.99228 0.46575 0
M  V30 14547 H 1388.5 -3.95782 -0.991005 0
M  V30 14548 H 1387.17 -4.1565 0.144091 0
M  V30 14549 H 1385.75 -3.40286 -1.52513 0
M  V30 14550 N 1387.94 -0.0468143 -1.5753 0
M  V30 14551 C 1389.21 0.667567 -1.83856 0
M  V30 14552 C 1389.59 1.89297 -0.934346 0
M  V30 14553 O 1388.94 2.28499 0.00570067 0
M  V30 14554 C 1389.15 1.029 -3.33485 0
M  V30 14555 C 1390.5 1.41315 -4.00394 0
M  V30 14556 O 1391.52 1.12147 -3.38085 0
M  V30 14557 O 1390.38 1.95732 -5.10246 0
M  V30 14558 H 1387.48 0.329112 -0.758692 0
M  V30 14559 H 1390.02 -0.0758456 -1.6953 0
M  V30 14560 H 1388.79 0.157617 -3.90982 0
M  V30 14561 H 1388.42 1.83 -3.52982 0
M  V30 14562 N 1389.41 1.55964 0.226527 0
M  V30 14563 C 1390.64 1.83168 0.972846 0
M  V30 14564 C 1391.06 0.626512 1.7736 0
M  V30 14565 O 1390.42 -0.42468 1.76256 0
M  V30 14566 C 1390.47 3.08315 1.87014 0
M  V30 14567 O 1389.57 2.8666 2.96479 0
M  V30 14568 H 1388.92 0.604041 0.275736 0
M  V30 14569 H 1391.45 2.03172 0.241345 0
M  V30 14570 H 1391.46 3.38288 2.28091 0
M  V30 14571 H 1390.13 3.95663 1.28154 0
M  V30 14572 H 1388.71 2.67907 2.59384 0
M  V30 14573 N 1390.89 -0.493031 1.4969 0
M  V30 14574 C 1392.17 -1.25436 1.50084 0
M  V30 14575 C 1392.55 -2.0981 0.233038 0
M  V30 14576 O 1391.9 -2.14617 -0.784342 0
M  V30 14577 C 1392.11 -2.10425 2.78428 0
M  V30 14578 C 1393.46 -2.69349 3.28232 0
M  V30 14579 O 1394.48 -2.20686 2.796 0
M  V30 14580 O 1393.34 -3.57956 4.12953 0
M  V30 14581 H 1390.43 -0.568044 0.601045 0
M  V30 14582 H 1392.98 -0.506648 1.6196 0
M  V30 14583 H 1391.75 -1.48108 3.62187 0
M  V30 14584 H 1391.37 -2.92374 2.6945 0
M  V30 14585 N 1392.37 -1.38898 -0.744656 0
M  V30 14586 C 1393.62 -1.35327 -1.50104 0
M  V30 14587 C 1393.94 0.0532788 -1.94927 0
M  V30 14588 O 1393.21 1.0027 -1.68294 0
M  V30 14589 H 1391.79 -0.49797 -0.556808 0
M  V30 14590 H 1394.45 -1.73667 -0.884625 0
M  V30 14591 H 1393.55 -2.00983 -2.38773 0
M  V30 14592 N 1393.85 0.973806 -1.23914 0
M  V30 14593 C 1394.8 2.06734 -1.02614 0
M  V30 14594 C 1395.77 1.65997 0.0585705 0
M  V30 14595 O 1396.95 1.90564 -0.0948467 0
M  V30 14596 C 1394.09 3.39292 -0.630493 0
M  V30 14597 C 1393.2 3.9326 -1.78803 0
M  V30 14598 C 1392.34 5.14059 -1.33854 0
M  V30 14599 C 1391.38 5.60209 -2.46642 0
M  V30 14600 N 1390.51 6.72232 -2.02603 0
M  V30 14601 H 1395.35 2.24287 -1.96212 0
M  V30 14602 H 1392.89 1.09935 -0.977376 0
M  V30 14603 H 1394.85 4.15446 -0.382163 0
M  V30 14604 H 1393.48 3.21682 0.268483 0
M  V30 14605 H 1392.53 3.13801 -2.15019 0
M  V30 14606 H 1393.84 4.23475 -2.63573 0
M  V30 14607 H 1393 5.97567 -1.04873 0
M  V30 14608 H 1391.74 4.85513 -0.46131 0
M  V30 14609 H 1390.74 4.75278 -2.7639 0
M  V30 14610 H 1391.97 5.90771 -3.34912 0
M  V30 14611 H 1389.91 6.45433 -1.17269 0
M  V30 14612 H 1389.83 7.01865 -2.80929 0
M  V30 14613 H 1391.1 7.59198 -1.76745 0
M  V30 14614 N 1395.33 1.05191 1.17357 0
M  V30 14615 C 1396.58 0.757104 1.86951 0
M  V30 14616 C 1396.89 -0.718637 1.8192 0
M  V30 14617 O 1398.09 -1.12739 2.46986 0
M  V30 14618 C 1396.55 1.30409 3.35442 0
M  V30 14619 C 1396.16 2.80928 3.48975 0
M  V30 14620 C 1397.9 1.08633 4.10365 0
M  V30 14621 C 1395.81 3.28927 4.91488 0
M  V30 14622 H 1394.74 0.279525 0.700273 0
M  V30 14623 H 1397.39 1.2692 1.32528 0
M  V30 14624 H 1395.77 0.719812 3.89403 0
M  V30 14625 H 1396.95 3.45211 3.05231 0
M  V30 14626 H 1395.26 3.01245 2.87473 0
M  V30 14627 H 1397.86 1.41996 5.15501 0
M  V30 14628 H 1398.2 0.0240903 4.16293 0
M  V30 14629 H 1398.73 1.63581 3.6261 0
M  V30 14630 H 1395.47 4.34581 4.90734 0
M  V30 14631 H 1394.99 2.69386 5.35902 0
M  V30 14632 H 1396.67 3.23605 5.60258 0
M  V30 14633 N 1396.8 -1.33791 0.83293 0
M  V30 14634 C 1398.03 -2.0272 0.438111 0
M  V30 14635 C 1398.45 -1.62279 -0.951163 0
M  V30 14636 O 1397.81 -0.812406 -1.62079 0
M  V30 14637 C 1397.86 -3.5623 0.559698 0
M  V30 14638 O 1396.96 -4.10292 -0.41646 0
M  V30 14639 H 1396.31 -0.639438 0.178928 0
M  V30 14640 H 1398.84 -1.70821 1.12612 0
M  V30 14641 H 1398.85 -4.0563 0.439148 0
M  V30 14642 H 1397.52 -3.8501 1.5729 0
M  V30 14643 H 1396.1 -3.72034 -0.25396 0
M  V30 14644 N 1398.28 -0.588812 -1.46187 0
M  V30 14645 C 1399.7 -0.250962 -1.57615 0
M  V30 14646 C 1399.9 1.2467 -1.58302 0
M  V30 14647 O 1398.95 2.02876 -1.50325 0
M  V30 14648 C 1400.27 -0.905561 -2.8674 0
M  V30 14649 C 1401.82 -0.879721 -3.00383 0
M  V30 14650 C 1402.29 -1.51398 -4.32253 0
M  V30 14651 N 1403.78 -1.4786 -4.38967 0
M  V30 14652 C 1404.52 -1.93868 -5.39632 0
M  V30 14653 N 1404.01 -2.47876 -6.46938 0
M  V30 14654 N 1405.81 -1.84748 -5.30872 0
M  V30 14655 H 1397.96 -1.56148 -1.43985 0
M  V30 14656 H 1400.22 -0.653028 -0.68721 0
M  V30 14657 H 1399.93 -1.95935 -2.92066 0
M  V30 14658 H 1399.8 -0.417456 -3.74883 0
M  V30 14659 H 1402.19 0.165466 -2.94636 0
M  V30 14660 H 1402.27 -1.40591 -2.137 0
M  V30 14661 H 1401.91 -2.55839 -4.38758 0
M  V30 14662 H 1401.84 -0.962965 -5.17721 0
M  V30 14663 H 1404.33 -1.08387 -3.62023 0
M  V30 14664 H 1404.65 -2.80824 -7.1997 0
M  V30 14665 H 1402.99 -2.51905 -6.47741 0
M  V30 14666 H 1406.18 -1.42307 -4.45944 0
M  V30 14667 H 1406.35 -2.20919 -6.09179 0
M  V30 14668 N 1399.76 1.54172 -0.326923 0
M  V30 14669 C 1401.01 2.00926 0.275047 0
M  V30 14670 C 1401.34 1.21469 1.51522 0
M  V30 14671 O 1400.61 0.297871 1.92206 0
M  V30 14672 C 1400.9 3.54967 0.605833 0
M  V30 14673 C 1400.75 4.45147 -0.645279 0
M  V30 14674 C 1402.07 4.16489 1.42213 0
M  V30 14675 H 1399.19 0.730389 0.098495 0
M  V30 14676 H 1401.83 1.84735 -0.444168 0
M  V30 14677 H 1399.98 3.68895 1.21857 0
M  V30 14678 H 1401.65 4.43085 -1.2835 0
M  V30 14679 H 1399.9 4.14686 -1.27349 0
M  V30 14680 H 1400.57 5.50763 -0.36932 0
M  V30 14681 H 1403.04 4.06158 0.904172 0
M  V30 14682 H 1401.92 5.24377 1.62234 0
M  V30 14683 H 1402.18 3.70032 2.41928 0
M  V30 14684 N 1401.24 0.0551678 1.57503 0
M  V30 14685 C 1402.52 -0.657808 1.84207 0
M  V30 14686 C 1402.9 -1.88798 0.944372 0
M  V30 14687 O 1402.24 -2.28499 0.00641728 0
M  V30 14688 C 1402.45 -1.0113 3.34026 0
M  V30 14689 C 1403.8 -1.39189 4.01138 0
M  V30 14690 O 1404.83 -1.10353 3.38675 0
M  V30 14691 O 1403.68 -1.93023 5.11277 0
M  V30 14692 H 1400.78 -0.325084 0.760427 0
M  V30 14693 H 1403.32 0.0848352 1.69488 0
M  V30 14694 H 1402.1 -0.13688 3.91061 0
M  V30 14695 H 1401.72 -1.81126 3.53948 0
M  V30 14696 N 1402.72 -1.56081 -0.218252 0
M  V30 14697 C 1403.96 -1.79247 -0.942157 0
M  V30 14698 C 1404.29 -0.624492 -1.84202 0
M  V30 14699 O 1403.55 0.390973 -1.91755 0
M  V30 14700 C 1403.85 -3.08199 -1.80965 0
M  V30 14701 C 1403.51 -4.38197 -1.06274 0
M  V30 14702 C 1402.17 -4.73517 -0.856432 0
M  V30 14703 C 1404.53 -5.18441 -0.535532 0
M  V30 14704 C 1401.85 -5.86595 -0.111065 0
M  V30 14705 C 1404.21 -6.32295 0.196507 0
M  V30 14706 C 1402.87 -6.66215 0.414041 0
M  V30 14707 H 1402.14 -0.655913 -0.34476 0
M  V30 14708 H 1404.79 -1.90344 -0.210095 0
M  V30 14709 H 1403.09 -2.92238 -2.60967 0
M  V30 14710 H 1404.79 -3.23325 -2.37196 0
M  V30 14711 H 1401.38 -4.10466 -1.23352 0
M  V30 14712 H 1405.56 -4.91586 -0.682386 0
M  V30 14713 H 1400.82 -6.11363 0.0676711 0
M  V30 14714 H 1404.99 -6.93701 0.612516 0
M  V30 14715 H 1402.62 -7.5368 0.993532 0
M  V30 14716 N 1404.2 0.485086 -1.49949 0
M  V30 14717 C 1405.13 1.59312 -1.7071 0
M  V30 14718 C 1406.11 1.6076 -0.555896 0
M  V30 14719 O 1407.29 1.77249 -0.793504 0
M  V30 14720 C 1404.42 2.97718 -1.78834 0
M  V30 14721 C 1403.38 3.11136 -2.93902 0
M  V30 14722 C 1402.7 4.51051 -2.87154 0
M  V30 14723 C 1404 2.89665 -4.34617 0
M  V30 14724 H 1405.7 1.42192 -2.6348 0
M  V30 14725 H 1403.24 0.68262 -1.26792 0
M  V30 14726 H 1405.19 3.75148 -1.91943 0
M  V30 14727 H 1403.92 3.15963 -0.826744 0
M  V30 14728 H 1402.58 2.36135 -2.80421 0
M  V30 14729 H 1402.23 4.66195 -1.88869 0
M  V30 14730 H 1401.93 4.60967 -3.64394 0
M  V30 14731 H 1403.45 5.3052 -3.02293 0
M  V30 14732 H 1404.86 3.56853 -4.48697 0
M  V30 14733 H 1403.26 3.11039 -5.13201 0
M  V30 14734 H 1404.33 1.85642 -4.47956 0
M  V30 14735 N 1405.67 1.39291 0.737279 0
M  V30 14736 C 1406.92 1.36592 1.49901 0
M  V30 14737 C 1407.25 -0.0388812 1.94161 0
M  V30 14738 O 1406.53 -1.00337 1.66622 0
M  V30 14739 C 1406.81 2.33625 2.74028 0
M  V30 14740 C 1406.66 3.83037 2.35802 0
M  V30 14741 C 1407.98 2.28524 3.76118 0
M  V30 14742 H 1405.1 0.497482 0.543765 0
M  V30 14743 H 1407.74 1.70265 0.843193 0
M  V30 14744 H 1405.89 2.0504 3.29986 0
M  V30 14745 H 1407.57 4.22363 1.85493 0
M  V30 14746 H 1405.81 3.99924 1.68058 0
M  V30 14747 H 1406.48 4.46415 3.24681 0
M  V30 14748 H 1408.96 2.53794 3.29739 0
M  V30 14749 H 1407.83 2.98501 4.60639 0
M  V30 14750 H 1408.09 1.28949 4.22876 0
M  V30 14751 N 1407.15 -0.967221 1.24429 0
M  V30 14752 C 1408.43 -1.68564 0.992253 0
M  V30 14753 C 1408.81 -2.05446 -0.485301 0
M  V30 14754 O 1408.16 -1.75798 -1.45971 0
M  V30 14755 C 1408.37 -2.91728 1.91562 0
M  V30 14756 C 1409.71 -3.63957 2.18678 0
M  V30 14757 O 1410.74 -3.01786 1.89219 0
M  V30 14758 O 1409.6 -4.75875 2.68711 0
M  V30 14759 H 1406.69 -0.736939 0.375299 0
M  V30 14760 H 1409.24 -1.02127 1.35529 0
M  V30 14761 H 1408.01 -2.61168 2.91388 0
M  V30 14762 H 1407.63 -3.65898 1.55577 0
M  V30 14763 N 1408.63 -1.05812 -1.16797 0
M  V30 14764 C 1409.88 -0.770398 -1.8684 0
M  V30 14765 C 1410.2 0.704986 -1.8181 0
M  V30 14766 O 1409.47 1.50977 -1.24832 0
M  V30 14767 H 1408.05 -0.281989 -0.691731 0
M  V30 14768 H 1410.71 -1.33859 -1.41661 0
M  V30 14769 H 1409.81 -1.09094 -2.92412 0
M  V30 14770 N 1410.11 1.33347 -0.840014 0
M  V30 14771 C 1411.02 2.32965 -0.276527 0
M  V30 14772 C 1412.03 1.634 0.598037 0
M  V30 14773 O 1413.21 1.95046 0.501888 0
M  V30 14774 C 1410.27 3.42498 0.53816 0
M  V30 14775 C 1409.34 4.27781 -0.360814 0
M  V30 14776 C 1408.57 5.32083 0.415085 0
M  V30 14777 O 1408.79 5.46115 1.64666 0
M  V30 14778 O 1407.73 6.01528 -0.211503 0
M  V30 14779 H 1411.55 2.83022 -1.10147 0
M  V30 14780 H 1409.14 1.3671 -0.602566 0
M  V30 14781 H 1411.02 4.09336 1.00108 0
M  V30 14782 H 1409.69 2.94655 1.34015 0
M  V30 14783 H 1408.6 3.63805 -0.871598 0
M  V30 14784 H 1409.93 4.7911 -1.1276 0
M  V30 14785 N 1411.59 0.596556 1.45873 0
M  V30 14786 C 1412.83 0.0875879 2.02611 0
M  V30 14787 C 1413.16 -1.27438 1.46538 0
M  V30 14788 O 1412.44 -1.83815 0.635779 0
M  V30 14789 C 1412.72 0.0367394 3.60081 0
M  V30 14790 C 1412.58 1.42859 4.26511 0
M  V30 14791 C 1413.89 -0.656795 4.35171 0
M  V30 14792 H 1411.01 0.0333031 0.736247 0
M  V30 14793 H 1413.66 0.766413 1.73857 0
M  V30 14794 H 1411.81 -0.541345 3.8471 0
M  V30 14795 H 1413.48 2.0529 4.13102 0
M  V30 14796 H 1411.72 1.99243 3.85337 0
M  V30 14797 H 1412.39 1.34535 5.35354 0
M  V30 14798 H 1414.87 -0.165553 4.15771 0
M  V30 14799 H 1413.74 -0.661445 5.449 0
M  V30 14800 H 1414 -1.72079 4.07236 0
M  V30 14801 N 1413.06 -1.53996 0.335095 0
M  V30 14802 C 1414.31 -1.99952 -0.264954 0
M  V30 14803 C 1414.63 -1.22696 -1.52332 0
M  V30 14804 O 1415.83 -1.59086 -2.20009 0
M  V30 14805 C 1414.29 -3.56085 -0.522667 0
M  V30 14806 C 1413.9 -4.42188 0.719314 0
M  V30 14807 C 1415.64 -4.10478 -1.08204 0
M  V30 14808 C 1413.55 -5.89814 0.432867 0
M  V30 14809 H 1412.48 -0.746962 -0.102782 0
M  V30 14810 H 1415.13 -1.77919 0.449111 0
M  V30 14811 H 1413.51 -3.7415 -1.29722 0
M  V30 14812 H 1414.68 -4.35898 1.49432 0
M  V30 14813 H 1413 -3.98743 1.19972 0
M  V30 14814 H 1415.6 -5.18375 -1.31116 0
M  V30 14815 H 1415.94 -3.63173 -2.03497 0
M  V30 14816 H 1416.47 -3.96091 -0.368395 0
M  V30 14817 H 1413.21 -6.41336 1.35529 0
M  V30 14818 H 1412.73 -5.99028 -0.304214 0
M  V30 14819 H 1414.41 -6.46983 0.0469657 0
M  V30 14820 N 1414.54 -0.0635198 -1.57472 0
M  V30 14821 C 1415.79 0.606285 -1.92792 0
M  V30 14822 C 1416.11 1.70648 -0.943615 0
M  V30 14823 O 1415.38 1.95898 0.00957612 0
M  V30 14824 H 1413.96 0.226943 -0.711692 0
M  V30 14825 H 1416.62 -0.119429 -1.94534 0
M  V30 14826 H 1415.72 1.03694 -2.9437 0
M  V30 14827 N 1416.02 1.56195 0.209972 0
M  V30 14828 C 1417.24 1.84189 0.953364 0
M  V30 14829 C 1417.67 0.645288 1.76685 0
M  V30 14830 O 1417.03 -0.405962 1.76696 0
M  V30 14831 C 1417.08 3.10281 1.83733 0
M  V30 14832 O 1416.18 2.89788 2.93422 0
M  V30 14833 H 1415.52 0.606931 0.269314 0
M  V30 14834 H 1418.05 2.03416 0.219783 0
M  V30 14835 H 1418.06 3.40688 2.2449 0
M  V30 14836 H 1416.74 3.97 1.23951 0
M  V30 14837 H 1415.31 2.70643 2.56528 0
M  V30 14838 N 1417.5 -0.477127 1.50204 0
M  V30 14839 C 1418.77 -1.23837 1.51406 0
M  V30 14840 C 1419.15 -2.09551 0.255278 0
M  V30 14841 O 1418.5 -2.15437 -0.761535 0
M  V30 14842 C 1418.71 -2.0746 2.80644 0
M  V30 14843 C 1420.06 -2.65852 3.31071 0
M  V30 14844 O 1421.08 -2.17708 2.81925 0
M  V30 14845 O 1419.94 -3.53556 4.16726 0
M  V30 14846 H 1417.04 -0.561638 0.607036 0
M  V30 14847 H 1419.58 -0.489442 1.62489 0
M  V30 14848 H 1418.36 -1.44258 3.63738 0
M  V30 14849 H 1417.98 -2.895 2.72536 0
M  V30 14850 N 1418.98 -1.3968 -0.729882 0
M  V30 14851 C 1420.39 -1.21396 -1.0361 0
M  V30 14852 C 1420.59 -0.0791302 -2.01345 0
M  V30 14853 O 1419.65 0.567575 -2.46038 0
M  V30 14854 C 1420.96 -2.55006 -1.59349 0
M  V30 14855 C 1422.51 -2.61896 -1.71405 0
M  V30 14856 C 1422.98 -3.9574 -2.30552 0
M  V30 14857 N 1424.48 -3.97406 -2.37955 0
M  V30 14858 C 1425.21 -4.97745 -2.8467 0
M  V30 14859 N 1424.71 -6.08482 -3.31243 0
M  V30 14860 N 1426.5 -4.85121 -2.83925 0
M  V30 14861 H 1418.65 -2.12242 -0.081787 0
M  V30 14862 H 1420.91 -0.942827 -0.0989005 0
M  V30 14863 H 1420.62 -3.38626 -0.950005 0
M  V30 14864 H 1420.49 -2.75087 -2.58083 0
M  V30 14865 H 1422.88 -1.78656 -2.34874 0
M  V30 14866 H 1422.96 -2.45659 -0.7131 0
M  V30 14867 H 1422.61 -4.79412 -1.67709 0
M  V30 14868 H 1422.54 -4.09299 -3.31334 0
M  V30 14869 H 1425.03 -3.17435 -2.05044 0
M  V30 14870 H 1425.34 -6.8095 -3.65414 0
M  V30 14871 H 1423.68 -6.12068 -3.29239 0
M  V30 14872 H 1426.88 -3.97711 -2.46867 0
M  V30 14873 H 1427.05 -5.63465 -3.20017 0
M  V30 14874 N 1420.45 0.960609 -1.2494 0
M  V30 14875 C 1421.36 2.0902 -1.06527 0
M  V30 14876 C 1422.38 1.74 -0.00406641 0
M  V30 14877 O 1423.56 2.00367 -0.203744 0
M  V30 14878 C 1420.62 3.39971 -0.679736 0
M  V30 14879 C 1419.68 3.88895 -1.81821 0
M  V30 14880 C 1418.92 5.13597 -1.45098 0
M  V30 14881 O 1419.14 5.69362 -0.343954 0
M  V30 14882 O 1418.07 5.57083 -2.27909 0
M  V30 14883 H 1421.9 2.27453 -2.01243 0
M  V30 14884 H 1419.48 1.07429 -1.03824 0
M  V30 14885 H 1421.37 4.18696 -0.47658 0
M  V30 14886 H 1420.04 3.22822 0.238231 0
M  V30 14887 H 1418.95 3.11201 -2.07617 0
M  V30 14888 H 1420.28 4.10533 -2.7152 0
M  V30 14889 N 1421.93 1.0643 1.16234 0
M  V30 14890 C 1422.9 0.680383 2.18869 0
M  V30 14891 C 1423.9 -0.274591 1.58438 0
M  V30 14892 O 1425.09 -0.0567907 1.74107 0
M  V30 14893 C 1422.22 0.00134091 3.409 0
M  V30 14894 H 1423.41 1.58894 2.54347 0
M  V30 14895 H 1420.96 0.859688 1.30534 0
M  V30 14896 H 1421.7 -0.919903 3.1098 0
M  V30 14897 H 1421.48 0.688057 3.86016 0
M  V30 14898 H 1422.97 -0.252938 4.16833 0
M  V30 14899 N 1423.41 -1.329 0.847073 0
M  V30 14900 C 1424.82 -1.79813 0.502394 0
M  V30 14901 C 1425.17 -1.70017 -0.979218 0
M  V30 14902 O 1424.3 -1.25427 -1.76344 0
M  V30 14903 C 1424.89 -3.26485 0.905154 0
M  V30 14904 C 1423.45 -3.71383 0.612489 0
M  V30 14905 C 1422.6 -2.54157 1.10903 0
M  V30 14906 H 1425.55 -1.20306 1.035 0
M  V30 14907 H 1425.57 -3.79872 0.218476 0
M  V30 14908 H 1425.08 -3.33583 1.98353 0
M  V30 14909 H 1423.18 -3.69806 -0.45548 0
M  V30 14910 H 1423.3 -4.64507 1.17347 0
M  V30 14911 H 1421.66 -2.49134 0.529576 0
M  V30 14912 H 1422.44 -2.64013 2.19435 0
M  V30 14913 N 1424.89 -0.604284 -1.45555 0
M  V30 14914 C 1426.12 -0.104301 -2.06337 0
M  V30 14915 C 1426.53 1.21523 -1.45013 0
M  V30 14916 O 1425.87 1.75039 -0.557422 0
M  V30 14917 C 1425.93 0.113202 -3.59322 0
M  V30 14918 C 1425.6 -1.12402 -4.42961 0
M  V30 14919 C 1426.59 -2.04136 -4.78147 0
M  V30 14920 C 1424.28 -1.35192 -4.83765 0
M  V30 14921 C 1426.27 -3.16991 -5.52988 0
M  V30 14922 C 1423.96 -2.48348 -5.5836 0
M  V30 14923 C 1424.96 -3.39076 -5.92888 0
M  V30 14924 O 1424.64 -4.50264 -6.65971 0
M  V30 14925 H 1424.38 -0.0644639 -0.672919 0
M  V30 14926 H 1426.93 -0.830982 -1.8784 0
M  V30 14927 H 1425.16 0.894739 -3.76206 0
M  V30 14928 H 1426.85 0.564372 -4.01957 0
M  V30 14929 H 1427.62 -1.87753 -4.47184 0
M  V30 14930 H 1423.49 -0.654731 -4.56327 0
M  V30 14931 H 1427.04 -3.87831 -5.79856 0
M  V30 14932 H 1422.94 -2.64686 -5.88737 0
M  V30 14933 H 1423.7 -4.48904 -6.84418 0
M  V30 14934 N 1426.37 1.53816 -0.343257 0
M  V30 14935 C 1427.28 2.28716 0.522121 0
M  V30 14936 C 1428.29 1.33815 1.11218 0
M  V30 14937 O 1429.47 1.66853 1.12793 0
M  V30 14938 C 1426.53 3.04517 1.65741 0
M  V30 14939 C 1425.59 4.15043 1.09716 0
M  V30 14940 C 1424.83 4.8722 2.17835 0
M  V30 14941 O 1425.05 4.59065 3.38549 0
M  V30 14942 O 1423.98 5.73678 1.82145 0
M  V30 14943 H 1427.81 3.03576 -0.086732 0
M  V30 14944 H 1425.4 1.49007 -0.108313 0
M  V30 14945 H 1427.28 3.51921 2.31796 0
M  V30 14946 H 1425.95 2.32514 2.25208 0
M  V30 14947 H 1424.86 3.71943 0.401152 0
M  V30 14948 H 1426.19 4.89147 0.547362 0
M  V30 14949 N 1427.84 0.0718701 1.57436 0
M  V30 14950 C 1429.07 -0.605374 1.97532 0
M  V30 14951 C 1429.48 -1.6368 0.948974 0
M  V30 14952 O 1428.83 -1.83556 -0.0726987 0
M  V30 14953 C 1428.89 -1.33139 3.33937 0
M  V30 14954 C 1428.55 -0.453426 4.54745 0
M  V30 14955 C 1429.55 0.289012 5.19096 0
M  V30 14956 C 1427.23 -0.378282 5.00874 0
M  V30 14957 C 1429.23 1.09482 6.27927 0
M  V30 14958 C 1426.91 0.431192 6.09577 0
M  V30 14959 C 1427.91 1.16641 6.72966 0
M  V30 14960 O 1427.6 1.96253 7.79577 0
M  V30 14961 H 1427.33 -0.168804 0.654585 0
M  V30 14962 H 1429.89 0.140832 2.04917 0
M  V30 14963 H 1428.12 -2.12367 3.23167 0
M  V30 14964 H 1429.81 -1.90089 3.58638 0
M  V30 14965 H 1430.57 0.240552 4.84403 0
M  V30 14966 H 1426.45 -0.940166 4.51311 0
M  V30 14967 H 1429.99 1.66918 6.77336 0
M  V30 14968 H 1425.89 0.481217 6.43704 0
M  V30 14969 H 1426.66 1.88686 7.96455 0
M  V30 14970 N 1429.32 -1.56304 -0.201686 0
M  V30 14971 C 1430.23 -1.97215 -1.27057 0
M  V30 14972 C 1431.25 -0.878834 -1.50175 0
M  V30 14973 O 1432.42 -1.18405 -1.62918 0
M  V30 14974 C 1429.49 -2.29772 -2.59626 0
M  V30 14975 C 1428.55 -3.52776 -2.44637 0
M  V30 14976 C 1427.78 -3.83771 -3.70885 0
M  V30 14977 O 1428.01 -3.16149 -4.7477 0
M  V30 14978 O 1426.94 -4.77216 -3.66808 0
M  V30 14979 H 1430.77 -2.88347 -0.953393 0
M  V30 14980 H 1428.35 -1.43773 -0.406158 0
M  V30 14981 H 1430.23 -2.51817 -3.37885 0
M  V30 14982 H 1428.91 -1.41809 -2.90984 0
M  V30 14983 H 1427.82 -3.35986 -1.64512 0
M  V30 14984 H 1429.15 -4.41184 -2.18214 0
M  V30 14985 N 1430.8 0.469154 -1.50455 0
M  V30 14986 C 1432.05 1.22002 -1.62748 0
M  V30 14987 C 1432.4 1.89642 -0.324611 0
M  V30 14988 O 1431.69 1.79218 0.677597 0
M  V30 14989 C 1431.89 2.28673 -2.7467 0
M  V30 14990 C 1431.72 1.71498 -4.15714 0
M  V30 14991 C 1430.49 1.51386 -4.8209 0
M  V30 14992 C 1432.69 1.20886 -4.99891 0
M  V30 14993 N 1430.67 0.894745 -6.07345 0
M  V30 14994 C 1432.04 0.713084 -6.15886 0
M  V30 14995 C 1434.09 1.09759 -4.85652 0
M  V30 14996 C 1432.8 0.117016 -7.19205 0
M  V30 14997 C 1434.82 0.515452 -5.89149 0
M  V30 14998 C 1434.18 0.0300686 -7.04394 0
M  V30 14999 H 1430.28 0.435249 -0.649679 0
M  V30 15000 H 1432.87 0.521706 -1.8758 0
M  V30 15001 H 1431.04 2.95929 -2.51557 0
M  V30 15002 H 1432.77 2.95693 -2.76311 0
M  V30 15003 H 1429.53 1.76665 -4.39416 0
M  V30 15004 H 1429.95 0.603547 -6.74304 0
M  V30 15005 H 1434.59 1.45878 -3.96837 0
M  V30 15006 H 1432.31 -0.256378 -8.07693 0
M  V30 15007 H 1435.9 0.431698 -5.80196 0
M  V30 15008 H 1434.78 -0.413327 -7.8311 0
M  V30 15009 N 1432.28 1.40065 0.722464 0
M  V30 15010 C 1433.23 1.39784 1.83655 0
M  V30 15011 C 1434.2 0.255743 1.64119 0
M  V30 15012 O 1435.38 0.452766 1.8535 0
M  V30 15013 C 1432.52 1.25946 3.21297 0
M  V30 15014 C 1431.63 2.49805 3.52451 0
M  V30 15015 C 1430.77 2.2846 4.79562 0
M  V30 15016 C 1429.81 3.4793 5.03598 0
M  V30 15017 N 1428.94 3.25823 6.21919 0
M  V30 15018 H 1433.78 2.35013 1.83229 0
M  V30 15019 H 1431.32 1.16728 0.895154 0
M  V30 15020 H 1433.28 1.15931 4.00769 0
M  V30 15021 H 1431.91 0.343402 3.20968 0
M  V30 15022 H 1430.96 2.70375 2.67585 0
M  V30 15023 H 1432.27 3.38753 3.66126 0
M  V30 15024 H 1431.43 2.15758 5.67039 0
M  V30 15025 H 1430.17 1.36926 4.68084 0
M  V30 15026 H 1429.17 3.61116 4.14579 0
M  V30 15027 H 1430.4 4.40382 5.16953 0
M  V30 15028 H 1428.34 2.36965 6.11705 0
M  V30 15029 H 1428.26 4.08333 6.36239 0
M  V30 15030 H 1429.53 3.16841 7.12202 0
M  V30 15031 N 1433.76 -0.95397 1.25448 0
M  V30 15032 C 1434.72 -2.03231 1.0597 0
M  V30 15033 C 1435.72 -1.60795 0.0122855 0
M  V30 15034 O 1436.91 -1.7233 0.254533 0
M  V30 15035 C 1434.04 -3.35414 0.609105 0
M  V30 15036 H 1435.24 -2.21943 2.01696 0
M  V30 15037 H 1432.79 -1.13115 1.07864 0
M  V30 15038 H 1433.52 -3.22398 -0.350723 0
M  V30 15039 H 1433.31 -3.67564 1.36526 0
M  V30 15040 H 1434.8 -4.14664 0.49428 0
M  V30 15041 N 1435.24 -1.07045 -1.15668 0
M  V30 15042 C 1436.48 -0.792908 -1.86657 0
M  V30 15043 C 1436.81 0.679213 -1.81935 0
M  V30 15044 O 1436.09 1.49822 -1.2403 0
M  V30 15045 C 1436.37 -1.2978 -3.35901 0
M  V30 15046 C 1436.23 -2.83424 -3.49272 0
M  V30 15047 C 1437.54 -0.911821 -4.30551 0
M  V30 15048 H 1434.66 -0.289509 -0.677756 0
M  V30 15049 H 1437.31 -1.32769 -1.35913 0
M  V30 15050 H 1435.46 -0.84288 -3.79246 0
M  V30 15051 H 1437.13 -3.37182 -3.14811 0
M  V30 15052 H 1435.37 -3.21777 -2.90933 0
M  V30 15053 H 1436.04 -3.13819 -4.54116 0
M  V30 15054 H 1438.52 -1.30376 -3.95147 0
M  V30 15055 H 1437.39 -1.29247 -5.33467 0
M  V30 15056 H 1437.65 0.18255 -4.41723 0
M  V30 15057 N 1436.71 1.32449 -0.85411 0
M  V30 15058 C 1437.62 2.32658 -0.301221 0
M  V30 15059 C 1438.64 1.64025 0.580673 0
M  V30 15060 O 1439.82 1.95568 0.481172 0
M  V30 15061 C 1436.88 3.43049 0.501803 0
M  V30 15062 C 1435.94 4.27374 -0.406166 0
M  V30 15063 C 1435.17 5.32494 0.358627 0
M  V30 15064 O 1435.4 5.4783 1.58865 0
M  V30 15065 O 1434.33 6.0127 -0.275291 0
M  V30 15066 H 1438.16 2.81838 -1.13143 0
M  V30 15067 H 1435.74 1.36063 -0.617032 0
M  V30 15068 H 1437.62 4.10375 0.957608 0
M  V30 15069 H 1436.3 2.9606 1.30882 0
M  V30 15070 H 1435.21 3.6286 -0.910136 0
M  V30 15071 H 1436.54 4.77887 -1.17835 0
M  V30 15072 N 1438.19 0.611994 1.45232 0
M  V30 15073 C 1439.44 0.108696 2.01807 0
M  V30 15074 C 1439.76 -1.26692 1.48237 0
M  V30 15075 O 1439.03 -1.8378 0.678368 0
M  V30 15076 H 1437.61 0.0371921 0.746074 0
M  V30 15077 H 1440.27 0.794386 1.77976 0
M  V30 15078 H 1439.37 0.0618207 3.12039 0
M  V30 15079 N 1439.67 -1.53632 0.351409 0
M  V30 15080 C 1440.62 -2.26782 -0.516983 0
M  V30 15081 C 1441.61 -1.29222 -1.09536 0
M  V30 15082 O 1442.82 -1.46901 -1.04019 0
M  V30 15083 H 1439.19 -0.728783 -0.185417 0
M  V30 15084 H 1441.16 -2.98151 0.121909 0
M  V30 15085 C 1439.91 -3.05943 -1.6521 0
M  V30 15086 H 1439.24 -3.80848 -1.21633 0
M  V30 15087 H 1440.68 -3.60328 -2.23472 0
M  V30 15088 C 1439.13 -2.15917 -2.58614 0
M  V30 15089 O 1439.66 -1.76049 -3.61067 0
M  V30 15090 N 1437.87 -1.80837 -2.27478 0
M  V30 15091 H 1437.42 -2.13456 -1.44202 0
M  V30 15092 H 1437.38 -1.20886 -2.90231 0
M  V30 15093 N 1441.15 -0.0802183 -1.57396 0
M  V30 15094 C 1442.1 0.894334 -2.09728 0
M  V30 15095 C 1443.08 1.25342 -1.00887 0
M  V30 15096 O 1444.27 1.23099 -1.27184 0
M  V30 15097 C 1441.4 2.15885 -2.66924 0
M  V30 15098 C 1440.49 1.82587 -3.82783 0
M  V30 15099 N 1440.88 1.19777 -4.91413 0
M  V30 15100 C 1439.18 2.12287 -3.92237 0
M  V30 15101 C 1439.88 1.04758 -5.72189 0
M  V30 15102 N 1438.85 1.56005 -5.20733 0
M  V30 15103 H 1442.66 0.404523 -2.91103 0
M  V30 15104 H 1440.17 0.123432 -1.6193 0
M  V30 15105 H 1442.17 2.8663 -3.02736 0
M  V30 15106 H 1440.83 2.65446 -1.86998 0
M  V30 15107 H 1441.84 0.866384 -5.10602 0
M  V30 15108 H 1438.52 2.64166 -3.23299 0
M  V30 15109 H 1439.91 0.55756 -6.69583 0
M  V30 15110 N 1442.63 1.56409 0.193394 0
M  V30 15111 C 1443.54 1.97886 1.26009 0
M  V30 15112 C 1444.55 0.886786 1.49707 0
M  V30 15113 O 1445.73 1.19267 1.62288 0
M  V30 15114 C 1442.79 2.31145 2.58404 0
M  V30 15115 C 1441.85 3.54069 2.42763 0
M  V30 15116 C 1441.09 3.85732 3.68845 0
M  V30 15117 O 1441.31 3.18662 4.73086 0
M  V30 15118 O 1440.24 4.79155 3.64272 0
M  V30 15119 H 1444.07 2.88849 0.938087 0
M  V30 15120 H 1441.65 1.43987 0.398528 0
M  V30 15121 H 1443.54 2.53606 3.36544 0
M  V30 15122 H 1442.21 1.4335 2.90228 0
M  V30 15123 H 1441.12 3.36854 1.62728 0
M  V30 15124 H 1442.45 4.42335 2.15871 0
M  V30 15125 N 1444.1 -0.461169 1.50702 0
M  V30 15126 C 1445.35 -1.20934 1.61425 0
M  V30 15127 C 1445.67 -1.92884 0.32481 0
M  V30 15128 O 1446.87 -2.69712 0.311081 0
M  V30 15129 C 1445.33 -2.19797 2.84987 0
M  V30 15130 C 1444.94 -1.53604 4.20844 0
M  V30 15131 C 1446.68 -2.95194 3.05059 0
M  V30 15132 C 1444.59 -2.50811 5.35582 0
M  V30 15133 H 1443.52 -0.455088 0.601174 0
M  V30 15134 H 1446.17 -0.478771 1.77144 0
M  V30 15135 H 1444.55 -2.96187 2.62848 0
M  V30 15136 H 1445.72 -0.829345 4.53275 0
M  V30 15137 H 1444.04 -0.904504 4.06457 0
M  V30 15138 H 1446.64 -3.67965 3.87951 0
M  V30 15139 H 1446.98 -3.5516 2.1718 0
M  V30 15140 H 1447.51 -2.25915 3.27425 0
M  V30 15141 H 1444.25 -1.9557 6.25646 0
M  V30 15142 H 1443.77 -3.19604 5.07556 0
M  V30 15143 H 1445.45 -3.12437 5.66561 0
M  V30 15144 N 1445.58 -1.40446 -0.715026 0
M  V30 15145 C 1446.81 -1.42263 -1.50917 0
M  V30 15146 C 1447.23 -0.0242402 -1.88084 0
M  V30 15147 O 1446.59 0.967817 -1.53307 0
M  V30 15148 C 1446.64 -2.31998 -2.7606 0
M  V30 15149 O 1445.74 -1.76361 -3.72787 0
M  V30 15150 H 1445.08 -0.483614 -0.454988 0
M  V30 15151 H 1447.61 -1.84682 -0.880549 0
M  V30 15152 H 1447.62 -2.47204 -3.24583 0
M  V30 15153 H 1446.3 -3.33614 -2.48343 0
M  V30 15154 H 1444.87 -1.70504 -3.31636 0
M  V30 15155 N 1447.06 0.947303 -1.25952 0
M  V30 15156 C 1448.31 1.6953 -1.11299 0
M  V30 15157 C 1448.64 1.9113 0.343961 0
M  V30 15158 O 1447.91 1.48755 1.25309 0
M  V30 15159 C 1448.2 3.0738 -1.87588 0
M  V30 15160 C 1448.05 2.93145 -3.41154 0
M  V30 15161 C 1449.37 4.07396 -1.66483 0
M  V30 15162 H 1446.49 0.615281 -0.405707 0
M  V30 15163 H 1449.13 1.10064 -1.54874 0
M  V30 15164 H 1447.28 3.58143 -1.50553 0
M  V30 15165 H 1448.95 2.49651 -3.87907 0
M  V30 15166 H 1447.19 2.28902 -3.68492 0
M  V30 15167 H 1447.87 3.9089 -3.89755 0
M  V30 15168 H 1450.34 3.65572 -1.98738 0
M  V30 15169 H 1449.22 5.01876 -2.22287 0
M  V30 15170 H 1449.48 4.379 -0.607916 0
M  V30 15171 N 1448.54 1.07657 1.15099 0
M  V30 15172 C 1449.79 0.796589 1.85303 0
M  V30 15173 C 1450.1 -0.679887 1.83404 0
M  V30 15174 O 1451.31 -1.07475 2.49322 0
M  V30 15175 C 1449.76 1.37495 3.326 0
M  V30 15176 C 1449.37 2.88267 3.42938 0
M  V30 15177 C 1451.11 1.17313 4.07968 0
M  V30 15178 C 1449.02 3.39278 4.84401 0
M  V30 15179 H 1447.95 0.294316 0.694186 0
M  V30 15180 H 1450.6 1.29702 1.29806 0
M  V30 15181 H 1448.98 0.802248 3.87789 0
M  V30 15182 H 1450.16 3.51608 2.9784 0
M  V30 15183 H 1448.47 3.07275 2.81018 0
M  V30 15184 H 1451.07 1.52899 5.12373 0
M  V30 15185 H 1451.41 0.112387 4.16148 0
M  V30 15186 H 1451.95 1.71236 3.59059 0
M  V30 15187 H 1448.69 4.44892 4.81406 0
M  V30 15188 H 1448.21 2.80692 5.30068 0
M  V30 15189 H 1449.88 3.35416 5.53267 0
M  V30 15190 N 1450.02 -1.31994 0.861122 0
M  V30 15191 C 1450.98 -2.27019 0.315421 0
M  V30 15192 C 1451.98 -1.51864 -0.528575 0
M  V30 15193 O 1453.17 -1.70867 -0.339154 0
M  V30 15194 C 1450.3 -3.36384 -0.553021 0
M  V30 15195 H 1451.49 -2.768 1.1542 0
M  V30 15196 H 1449.05 -1.42776 0.635982 0
M  V30 15197 H 1449.78 -2.91882 -1.41335 0
M  V30 15198 H 1449.57 -3.92067 0.0511919 0
M  V30 15199 H 1451.06 -4.07172 -0.927392 0
M  V30 15200 N 1451.49 -0.619688 -1.44906 0
M  V30 15201 C 1452.72 -0.12618 -2.06214 0
M  V30 15202 C 1453.13 1.19978 -1.46294 0
M  V30 15203 O 1452.48 1.74437 -0.575956 0
M  V30 15204 C 1452.54 0.075085 -3.59422 0
M  V30 15205 C 1452.2 -1.17094 -4.41744 0
M  V30 15206 C 1453.2 -2.09196 -4.75955 0
M  V30 15207 C 1450.88 -1.40315 -4.82304 0
M  V30 15208 C 1452.88 -3.22839 -5.49594 0
M  V30 15209 C 1450.56 -2.54257 -5.55695 0
M  V30 15210 C 1451.56 -3.45346 -5.89258 0
M  V30 15211 O 1451.25 -4.57302 -6.61158 0
M  V30 15212 H 1450.98 -0.0715975 -0.672198 0
M  V30 15213 H 1453.54 -0.850858 -1.86948 0
M  V30 15214 H 1451.77 0.854787 -3.77134 0
M  V30 15215 H 1453.46 0.521707 -4.02533 0
M  V30 15216 H 1454.22 -1.92486 -4.45168 0
M  V30 15217 H 1450.1 -0.703094 -4.55607 0
M  V30 15218 H 1453.64 -3.93959 -5.7571 0
M  V30 15219 H 1449.54 -2.70915 -5.85897 0
M  V30 15220 H 1450.31 -4.56138 -6.79618 0
M  V30 15221 N 1452.97 1.53444 -0.359552 0
M  V30 15222 C 1454.25 1.93467 0.288106 0
M  V30 15223 C 1454.63 1.29256 1.66901 0
M  V30 15224 O 1453.98 0.449402 2.24037 0
M  V30 15225 C 1454.19 3.47297 0.344359 0
M  V30 15226 C 1455.54 4.20515 0.587585 0
M  V30 15227 O 1456.56 3.53646 0.425818 0
M  V30 15228 O 1455.42 5.39003 0.902119 0
M  V30 15229 H 1452.51 0.809033 0.171451 0
M  V30 15230 H 1455.06 1.64625 -0.411896 0
M  V30 15231 H 1453.83 3.86292 -0.624064 0
M  V30 15232 H 1453.45 3.82353 1.0905 0
M  V30 15233 N 1454.45 0.0885642 1.57351 0
M  V30 15234 C 1455.73 -0.618587 1.85561 0
M  V30 15235 C 1456.11 -1.86753 0.984206 0
M  V30 15236 O 1455.46 -2.28434 0.0548839 0
M  V30 15237 C 1455.67 -0.940222 3.36096 0
M  V30 15238 C 1457.01 -1.30649 4.04 0
M  V30 15239 O 1458.04 -1.03144 3.4094 0
M  V30 15240 O 1456.9 -1.82135 5.15256 0
M  V30 15241 H 1453.99 -0.308881 0.767152 0
M  V30 15242 H 1456.54 0.120767 1.6927 0
M  V30 15243 H 1455.31 -0.0538991 3.91263 0
M  V30 15244 H 1454.93 -1.73577 3.5771 0
M  V30 15245 N 1455.93 -1.56509 -0.185096 0
M  V30 15246 C 1457.21 -1.72055 -0.930398 0
M  V30 15247 C 1457.59 -0.646145 -2.00968 0
M  V30 15248 O 1456.93 0.34129 -2.25937 0
M  V30 15249 C 1457.14 -3.14752 -1.50771 0
M  V30 15250 C 1458.49 -3.75292 -1.98597 0
M  V30 15251 O 1459.52 -3.17944 -1.60593 0
M  V30 15252 O 1458.37 -4.7596 -2.68561 0
M  V30 15253 H 1455.47 -0.702118 -0.436989 0
M  V30 15254 H 1458.01 -1.68806 -0.174007 0
M  V30 15255 H 1456.79 -3.84426 -0.730236 0
M  V30 15256 H 1456.41 -3.22272 -2.32866 0
M  V30 15257 N 1457.41 0.45317 -1.50944 0
M  V30 15258 C 1458.68 1.21413 -1.53357 0
M  V30 15259 C 1459.06 2.09118 -0.288584 0
M  V30 15260 O 1458.41 2.16621 0.727164 0
M  V30 15261 C 1458.62 2.02969 -2.83909 0
M  V30 15262 C 1459.97 2.60551 -3.35258 0
M  V30 15263 O 1460.99 2.13196 -2.85353 0
M  V30 15264 O 1459.85 3.46881 -4.22298 0
M  V30 15265 H 1456.95 0.551909 -0.615894 0
M  V30 15266 H 1459.49 0.463529 -1.63247 0
M  V30 15267 H 1458.26 1.38453 -3.65987 0
M  V30 15268 H 1457.89 2.85127 -2.77107 0
M  V30 15269 N 1458.88 1.40823 0.707568 0
M  V30 15270 C 1459.85 1.41464 1.80334 0
M  V30 15271 C 1460.85 0.307143 1.57839 0
M  V30 15272 O 1462.04 0.566444 1.64733 0
M  V30 15273 C 1459.17 1.21426 3.18541 0
M  V30 15274 H 1460.36 2.38998 1.81162 0
M  V30 15275 H 1457.92 1.2679 0.914007 0
M  V30 15276 H 1458.65 0.246847 3.23359 0
M  V30 15277 H 1458.44 2.01657 3.36269 0
M  V30 15278 H 1459.93 1.24681 3.98553 0
M  V30 15279 N 1460.36 -0.94061 1.26453 0
M  V30 15280 C 1461.33 -2.02096 1.0812 0
M  V30 15281 C 1462.33 -1.60773 0.0293393 0
M  V30 15282 O 1463.52 -1.72051 0.272796 0
M  V30 15283 C 1460.65 -3.34749 0.644646 0
M  V30 15284 H 1461.84 -2.19792 2.04038 0
M  V30 15285 H 1459.39 -1.11965 1.09058 0
M  V30 15286 H 1460.13 -3.22752 -0.316509 0
M  V30 15287 H 1459.91 -3.66095 1.40416 0
M  V30 15288 H 1461.4 -4.14117 0.538233 0
M  V30 15289 N 1461.84 -1.08266 -1.14527 0
M  V30 15290 C 1463.07 -0.832994 -1.89937 0
M  V30 15291 C 1463.49 0.608985 -1.77969 0
M  V30 15292 O 1462.85 1.42657 -1.11887 0
M  V30 15293 C 1462.9 -1.25782 -3.37952 0
M  V30 15294 O 1462 -0.408853 -4.10368 0
M  V30 15295 H 1461.34 -0.30267 -0.591005 0
M  V30 15296 H 1463.87 -1.44371 -1.44977 0
M  V30 15297 H 1463.88 -1.23804 -3.88763 0
M  V30 15298 H 1462.56 -2.30804 -3.4598 0
M  V30 15299 H 1461.13 -0.49192 -3.69641 0
M  V30 15300 N 1463.32 1.31536 -0.86811 0
M  V30 15301 C 1464.55 2.00952 -0.492529 0
M  V30 15302 C 1464.96 1.65174 0.914487 0
M  V30 15303 O 1464.32 0.880002 1.59882 0
M  V30 15304 C 1464.37 3.55829 -0.637798 0
M  V30 15305 O 1464.09 3.90326 -1.9894 0
M  V30 15306 C 1465.59 4.42519 -0.262986 0
M  V30 15307 H 1462.81 0.642913 -0.192105 0
M  V30 15308 H 1465.36 1.6781 -1.16876 0
M  V30 15309 H 1463.51 3.87399 -0.0091406 0
M  V30 15310 H 1463.93 4.85043 -1.99583 0
M  V30 15311 H 1465.4 5.50433 -0.415591 0
M  V30 15312 H 1465.88 4.31895 0.797705 0
M  V30 15313 H 1466.48 4.16363 -0.867268 0
M  V30 15314 N 1464.8 0.627364 1.44575 0
M  V30 15315 C 1466.21 0.213149 1.85479 0
M  V30 15316 C 1466.56 -1.23458 1.52488 0
M  V30 15317 O 1465.68 -1.93885 0.961115 0
M  V30 15318 C 1466.28 0.380063 3.36661 0
M  V30 15319 C 1464.84 0.020385 3.76394 0
M  V30 15320 C 1463.99 0.695225 2.68444 0
M  V30 15321 H 1466.94 0.832771 1.35095 0
M  V30 15322 H 1466.96 -0.382078 3.78577 0
M  V30 15323 H 1466.47 1.43383 3.60642 0
M  V30 15324 H 1464.57 -1.03179 3.58029 0
M  V30 15325 H 1464.68 0.42782 4.77186 0
M  V30 15326 H 1463.05 0.130898 2.54363 0
M  V30 15327 H 1463.83 1.75151 2.95257 0
M  V30 15328 N 1466.28 -1.53251 0.367684 0
M  V30 15329 C 1467.55 -1.93617 -0.277842 0
M  V30 15330 C 1467.93 -1.3014 -1.66213 0
M  V30 15331 O 1467.28 -0.461277 -2.23796 0
M  V30 15332 C 1467.49 -3.47475 -0.325937 0
M  V30 15333 C 1468.84 -4.2082 -0.565276 0
M  V30 15334 O 1469.86 -3.53866 -0.407057 0
M  V30 15335 O 1468.72 -5.39474 -0.873522 0
M  V30 15336 H 1465.82 -0.80993 -0.167158 0
M  V30 15337 H 1468.36 -1.64405 0.420621 0
M  V30 15338 H 1467.13 -3.85955 0.644542 0
M  V30 15339 H 1466.76 -3.82926 -1.07021 0
M  V30 15340 N 1467.75 -0.0969077 -1.57302 0
M  V30 15341 C 1468.98 0.578086 -1.99181 0
M  V30 15342 C 1469.4 1.60818 -0.975667 0
M  V30 15343 O 1468.76 1.81215 0.0556054 0
M  V30 15344 C 1468.81 1.20076 -3.40021 0
M  V30 15345 O 1467.91 2.31656 -3.41188 0
M  V30 15346 H 1467.25 0.146506 -0.647636 0
M  V30 15347 H 1469.78 -0.178855 -2.03817 0
M  V30 15348 H 1469.79 1.54162 -3.77754 0
M  V30 15349 H 1468.47 0.446114 -4.135 0
M  V30 15350 H 1467.05 1.99175 -3.15252 0
M  V30 15351 N 1469.23 1.56605 0.176793 0
M  V30 15352 C 1470.48 1.81952 0.895627 0
M  V30 15353 C 1470.81 0.673893 1.82133 0
M  V30 15354 O 1470.09 -0.324494 1.91774 0
M  V30 15355 C 1470.37 3.17658 1.69604 0
M  V30 15356 C 1470.22 4.4274 0.793834 0
M  V30 15357 C 1471.54 3.50246 2.66488 0
M  V30 15358 H 1468.66 0.661884 0.324159 0
M  V30 15359 H 1471.3 1.89307 0.162092 0
M  V30 15360 H 1469.45 3.11518 2.3214 0
M  V30 15361 H 1471.12 4.60942 0.181775 0
M  V30 15362 H 1469.37 4.33681 0.101566 0
M  V30 15363 H 1470.04 5.34231 1.38927 0
M  V30 15364 H 1472.51 3.56804 2.1408 0
M  V30 15365 H 1471.39 4.46286 3.19562 0
M  V30 15366 H 1471.65 2.7467 3.46423 0
M  V30 15367 N 1470.71 -0.445159 1.51182 0
M  V30 15368 C 1471.66 -1.53975 1.71931 0
M  V30 15369 C 1472.63 -1.56344 0.560865 0
M  V30 15370 O 1473.81 -1.73475 0.794414 0
M  V30 15371 C 1470.95 -2.91756 1.84316 0
M  V30 15372 C 1470.06 -2.98976 3.11829 0
M  V30 15373 C 1469.2 -4.27831 3.14855 0
M  V30 15374 C 1468.24 -4.2889 4.36715 0
M  V30 15375 N 1467.38 -5.49257 4.37334 0
M  V30 15376 H 1472.22 -1.35586 2.65368 0
M  V30 15377 H 1469.75 -0.658787 1.31523 0
M  V30 15378 H 1471.71 -3.7169 1.89479 0
M  V30 15379 H 1470.34 -3.08721 0.942947 0
M  V30 15380 H 1469.39 -2.11753 3.16014 0
M  V30 15381 H 1470.7 -2.95619 4.01759 0
M  V30 15382 H 1469.86 -5.16134 3.1889 0
M  V30 15383 H 1468.6 -4.33833 2.228 0
M  V30 15384 H 1467.6 -3.38982 4.32864 0
M  V30 15385 H 1468.83 -4.24558 5.30026 0
M  V30 15386 H 1466.77 -5.55995 3.48145 0
M  V30 15387 H 1466.69 -5.47748 5.21064 0
M  V30 15388 H 1467.96 -6.39613 4.45551 0
M  V30 15389 N 1472.19 -1.41197 -0.700089 0
M  V30 15390 C 1473.44 -1.39611 -1.45574 0
M  V30 15391 C 1473.75 -0.00683378 -1.95599 0
M  V30 15392 O 1474.96 0.131643 -2.71181 0
M  V30 15393 C 1473.41 -2.45452 -2.63214 0
M  V30 15394 C 1473.02 -3.90265 -2.19993 0
M  V30 15395 C 1474.76 -2.52996 -3.40871 0
M  V30 15396 C 1472.67 -4.87668 -3.34565 0
M  V30 15397 H 1471.6 -0.51917 -0.546789 0
M  V30 15398 H 1474.25 -1.67001 -0.760456 0
M  V30 15399 H 1472.63 -2.11186 -3.34987 0
M  V30 15400 H 1473.81 -4.33756 -1.55539 0
M  V30 15401 H 1472.12 -3.86339 -1.55341 0
M  V30 15402 H 1474.72 -3.22952 -4.26153 0
M  V30 15403 H 1475.06 -1.56536 -3.85749 0
M  V30 15404 H 1475.6 -2.86331 -2.76151 0
M  V30 15405 H 1472.33 -5.85517 -2.94704 0
M  V30 15406 H 1471.85 -4.4883 -3.97884 0
M  V30 15407 H 1473.53 -5.08215 -4.00409 0
M  V30 15408 N 1473.67 0.933891 -1.2695 0
M  V30 15409 C 1474.91 1.68091 -1.12924 0
M  V30 15410 C 1475.24 1.91747 0.326088 0
M  V30 15411 O 1474.5 1.50126 1.25541 0
M  V30 15412 C 1474.79 3.05706 -1.85145 0
M  V30 15413 C 1474.46 3.01781 -3.35021 0
M  V30 15414 C 1473.12 3.00417 -3.75903 0
M  V30 15415 C 1475.47 2.93537 -4.3068 0
M  V30 15416 C 1472.8 2.88585 -5.10818 0
M  V30 15417 C 1475.15 2.83246 -5.65645 0
M  V30 15418 C 1473.82 2.80229 -6.05828 0
M  V30 15419 H 1473.09 0.615087 -0.413217 0
M  V30 15420 H 1475.74 1.08957 -1.57482 0
M  V30 15421 H 1474.04 3.68508 -1.33077 0
M  V30 15422 H 1475.74 3.62369 -1.71726 0
M  V30 15423 H 1472.33 3.03626 -3.02505 0
M  V30 15424 H 1476.51 2.93693 -4.00073 0
M  V30 15425 H 1471.77 2.84632 -5.41105 0
M  V30 15426 H 1475.94 2.75832 -6.39445 0
M  V30 15427 H 1473.57 2.70818 -7.10325 0
M  V30 15428 N 1475.14 1.08871 1.13951 0
M  V30 15429 C 1476.39 0.822504 1.85372 0
M  V30 15430 C 1476.72 -0.650183 1.82993 0
M  V30 15431 O 1476 -1.4783 1.26398 0
M  V30 15432 C 1476.28 1.35107 3.33793 0
M  V30 15433 C 1476.13 2.88945 3.44719 0
M  V30 15434 C 1477.45 0.980203 4.29045 0
M  V30 15435 H 1474.57 0.300255 0.673065 0
M  V30 15436 H 1477.21 1.34914 1.33784 0
M  V30 15437 H 1475.36 0.903108 3.77857 0
M  V30 15438 H 1477.04 3.42148 3.09407 0
M  V30 15439 H 1475.28 3.26365 2.85777 0
M  V30 15440 H 1475.95 3.21004 4.49066 0
M  V30 15441 H 1478.43 1.36646 3.93023 0
M  V30 15442 H 1477.3 1.37717 5.31343 0
M  V30 15443 H 1477.56 -0.112253 4.41957 0
M  V30 15444 N 1476.62 -1.31073 0.875073 0
M  V30 15445 C 1477.57 -2.28389 0.332718 0
M  V30 15446 C 1478.54 -1.55954 -0.571639 0
M  V30 15447 O 1479.72 -1.84073 -0.502185 0
M  V30 15448 C 1476.86 -3.42083 -0.455364 0
M  V30 15449 C 1475.98 -4.29358 0.477088 0
M  V30 15450 C 1475.11 -5.30201 -0.325619 0
M  V30 15451 C 1474.15 -6.09123 0.602935 0
M  V30 15452 N 1473.29 -7.01909 -0.163836 0
M  V30 15453 H 1478.13 -2.74166 1.16777 0
M  V30 15454 H 1475.66 -1.3487 0.587248 0
M  V30 15455 H 1477.62 -4.06746 -0.928104 0
M  V30 15456 H 1476.25 -2.97402 -1.25507 0
M  V30 15457 H 1475.3 -3.65091 1.06829 0
M  V30 15458 H 1476.62 -4.84425 1.18887 0
M  V30 15459 H 1475.77 -6.00565 -0.860647 0
M  V30 15460 H 1474.51 -4.75802 -1.07067 0
M  V30 15461 H 1473.51 -5.37645 1.14968 0
M  V30 15462 H 1474.74 -6.65609 1.34692 0
M  V30 15463 H 1472.69 -6.49913 -0.891604 0
M  V30 15464 H 1472.6 -7.5442 0.48851 0
M  V30 15465 H 1473.87 -7.76529 -0.679929 0
M  V30 15466 N 1478.1 -0.635022 -1.4424 0
M  V30 15467 C 1479.03 0.106038 -2.28955 0
M  V30 15468 C 1480.05 0.805076 -1.415 0
M  V30 15469 O 1481.23 0.665872 -1.65615 0
M  V30 15470 C 1478.33 1.17252 -3.1797 0
M  V30 15471 C 1477.51 0.555225 -4.33862 0
M  V30 15472 C 1476.57 1.51618 -5.03883 0
M  V30 15473 O 1475.59 1.03181 -5.5977 0
M  V30 15474 N 1476.79 2.85048 -5.05696 0
M  V30 15475 H 1479.56 -0.620999 -2.93196 0
M  V30 15476 H 1477.12 -0.476466 -1.5473 0
M  V30 15477 H 1479.11 1.81578 -3.61679 0
M  V30 15478 H 1477.68 1.80174 -2.55453 0
M  V30 15479 H 1476.9 -0.266745 -3.93296 0
M  V30 15480 H 1478.19 0.123529 -5.0865 0
M  V30 15481 H 1477.59 3.26977 -4.6163 0
M  V30 15482 H 1476.15 3.44724 -5.5318 0
M  V30 15483 N 1479.58 1.53054 -0.375806 0
M  V30 15484 C 1480.54 2.24666 0.453608 0
M  V30 15485 C 1481.54 1.25816 1.00135 0
M  V30 15486 O 1482.73 1.50016 0.885481 0
M  V30 15487 C 1479.86 2.99131 1.63503 0
M  V30 15488 H 1481.06 2.994 -0.173172 0
M  V30 15489 H 1478.61 1.55778 -0.127673 0
M  V30 15490 H 1479.34 2.28666 2.29962 0
M  V30 15491 H 1479.13 3.71671 1.24913 0
M  V30 15492 H 1480.62 3.53542 2.22256 0
M  V30 15493 N 1481.06 0.105248 1.57248 0
M  V30 15494 C 1482.47 -0.251385 1.57608 0
M  V30 15495 C 1482.67 -1.677 1.11709 0
M  V30 15496 O 1481.73 -2.39552 0.798182 0
M  V30 15497 C 1483.04 -0.0305755 3.00684 0
M  V30 15498 C 1484.59 -0.0975409 3.12848 0
M  V30 15499 C 1485.06 0.0954024 4.57901 0
M  V30 15500 N 1486.56 0.040908 4.63182 0
M  V30 15501 C 1487.29 0.165298 5.73162 0
M  V30 15502 N 1486.79 0.345091 6.9194 0
M  V30 15503 N 1488.58 0.105847 5.62 0
M  V30 15504 H 1480.73 1.03658 1.85388 0
M  V30 15505 H 1482.99 0.407074 0.856151 0
M  V30 15506 H 1482.7 0.954461 3.38501 0
M  V30 15507 H 1482.57 -0.768477 3.69289 0
M  V30 15508 H 1484.96 -1.07309 2.74898 0
M  V30 15509 H 1485.04 0.672017 2.46815 0
M  V30 15510 H 1484.69 1.06786 4.96547 0
M  V30 15511 H 1484.62 -0.693974 5.22007 0
M  V30 15512 H 1487.11 -0.0951009 3.7778 0
M  V30 15513 H 1487.42 0.431243 7.71596 0
M  V30 15514 H 1485.76 0.38089 6.93955 0
M  V30 15515 H 1488.96 -0.0335544 4.68088 0
M  V30 15516 H 1489.13 0.206235 6.47672 0
M  V30 15517 N 1482.53 -1.56697 -0.168486 0
M  V30 15518 C 1483.81 -1.73032 -0.912097 0
M  V30 15519 C 1484.19 -0.667424 -2.00271 0
M  V30 15520 O 1483.54 0.317307 -2.26286 0
M  V30 15521 C 1483.75 -3.16334 -1.47424 0
M  V30 15522 C 1485.1 -3.77378 -1.94606 0
M  V30 15523 O 1486.12 -3.19629 -1.57212 0
M  V30 15524 O 1484.98 -4.78781 -2.63497 0
M  V30 15525 H 1482.07 -0.706713 -0.429518 0
M  V30 15526 H 1484.62 -1.68981 -0.156093 0
M  V30 15527 H 1483.39 -3.85179 -0.689421 0
M  V30 15528 H 1483.02 -3.24723 -2.29435 0
M  V30 15529 N 1484.01 0.437135 -1.51416 0
M  V30 15530 C 1485.26 1.18831 -1.64338 0
M  V30 15531 C 1485.59 1.9086 -0.358638 0
M  V30 15532 O 1484.87 1.83607 0.641769 0
M  V30 15533 C 1485.15 2.20515 -2.84685 0
M  V30 15534 C 1485 1.52568 -4.23135 0
M  V30 15535 C 1486.32 3.21494 -3.00549 0
M  V30 15536 H 1483.44 0.430652 -0.598087 0
M  V30 15537 H 1486.08 0.47753 -1.83901 0
M  V30 15538 H 1484.23 2.81132 -2.68136 0
M  V30 15539 H 1485.9 0.952851 -4.51352 0
M  V30 15540 H 1484.15 0.828025 -4.25824 0
M  V30 15541 H 1484.82 2.26623 -5.03335 0
M  V30 15542 H 1487.29 2.7093 -3.1581 0
M  V30 15543 H 1486.17 3.89934 -3.86319 0
M  V30 15544 H 1486.43 3.8761 -2.12629 0
M  V30 15545 N 1485.49 1.41566 0.692592 0
M  V30 15546 C 1486.44 1.43648 1.80648 0
M  V30 15547 C 1487.41 0.290497 1.6354 0
M  V30 15548 O 1488.59 0.491979 1.84348 0
M  V30 15549 C 1485.73 1.32733 3.18553 0
M  V30 15550 C 1484.85 2.57224 3.47073 0
M  V30 15551 C 1483.98 2.38581 4.74608 0
M  V30 15552 C 1483.02 3.58534 4.96105 0
M  V30 15553 N 1482.16 3.38942 6.14868 0
M  V30 15554 H 1487 2.38847 1.78203 0
M  V30 15555 H 1484.53 1.186 0.870193 0
M  V30 15556 H 1486.49 1.24405 3.9822 0
M  V30 15557 H 1485.12 0.411407 3.20168 0
M  V30 15558 H 1484.17 2.7599 2.6179 0
M  V30 15559 H 1485.49 3.46443 3.58858 0
M  V30 15560 H 1484.64 2.27738 5.62335 0
M  V30 15561 H 1483.38 1.46824 4.65074 0
M  V30 15562 H 1482.38 3.69828 4.06826 0
M  V30 15563 H 1483.61 4.51248 5.07496 0
M  V30 15564 H 1481.55 2.49887 6.06541 0
M  V30 15565 H 1481.47 4.21737 6.27434 0
M  V30 15566 H 1482.74 3.31877 7.05321 0
M  V30 15567 N 1486.97 -0.927146 1.27443 0
M  V30 15568 C 1488.21 -1.67738 1.13982 0
M  V30 15569 C 1488.55 -1.91653 -0.313511 0
M  V30 15570 O 1487.82 -1.50729 -1.22926 0
M  V30 15571 C 1488.11 -3.04357 1.92454 0
M  V30 15572 C 1487.96 -2.8768 3.45775 0
M  V30 15573 C 1489.28 -4.04696 1.72944 0
M  V30 15574 H 1486.4 -0.608749 0.415444 0
M  V30 15575 H 1489.04 -1.07587 1.56605 0
M  V30 15576 H 1487.19 -3.55702 1.56232 0
M  V30 15577 H 1488.86 -2.43449 3.9183 0
M  V30 15578 H 1487.1 -2.23011 3.72087 0
M  V30 15579 H 1487.77 -3.8464 3.95924 0
M  V30 15580 H 1490.25 -3.62364 2.04528 0
M  V30 15581 H 1489.13 -4.98276 2.30243 0
M  V30 15582 H 1489.39 -4.36878 0.677505 0
M  V30 15583 N 1488.45 -1.09474 -1.13372 0
M  V30 15584 C 1489.38 -0.692446 -2.1849 0
M  V30 15585 C 1490.39 0.265942 -1.60613 0
M  V30 15586 O 1491.58 0.0519189 -1.78424 0
M  V30 15587 C 1488.68 0.000306083 -3.389 0
M  V30 15588 C 1487.85 -0.979745 -4.26286 0
M  V30 15589 C 1486.91 -0.320309 -5.25224 0
M  V30 15590 O 1485.94 -0.968089 -5.60907 0
M  V30 15591 N 1487.14 0.92536 -5.73077 0
M  V30 15592 H 1489.91 -1.59681 -2.53618 0
M  V30 15593 H 1487.47 -0.982256 -1.28699 0
M  V30 15594 H 1489.46 0.45268 -4.0216 0
M  V30 15595 H 1488.03 0.806927 -3.02006 0
M  V30 15596 H 1487.25 -1.61067 -3.59793 0
M  V30 15597 H 1488.54 -1.64348 -4.81526 0
M  V30 15598 H 1487.93 1.47119 -5.46235 0
M  V30 15599 H 1486.49 1.32105 -6.38272 0
M  V30 15600 N 1489.92 1.30607 -0.882012 0
M  V30 15601 C 1491.15 2.00128 -0.51307 0
M  V30 15602 C 1491.56 1.66307 0.902144 0
M  V30 15603 O 1490.91 0.894797 1.60434 0
M  V30 15604 C 1490.97 3.5438 -0.604547 0
M  V30 15605 C 1490.63 4.1171 -1.98354 0
M  V30 15606 C 1491.63 4.27924 -2.95257 0
M  V30 15607 C 1489.31 4.47158 -2.28812 0
M  V30 15608 C 1491.31 4.78795 -4.20755 0
M  V30 15609 C 1488.99 4.97728 -3.54556 0
M  V30 15610 C 1489.99 5.13499 -4.50342 0
M  V30 15611 O 1489.68 5.62978 -5.73856 0
M  V30 15612 H 1489.41 0.646608 -0.197165 0
M  V30 15613 H 1491.97 1.67532 -1.18837 0
M  V30 15614 H 1490.2 3.86489 0.127719 0
M  V30 15615 H 1491.89 4.05146 -0.247308 0
M  V30 15616 H 1492.65 4.00844 -2.73037 0
M  V30 15617 H 1488.53 4.34152 -1.55026 0
M  V30 15618 H 1492.07 4.91019 -4.95526 0
M  V30 15619 H 1487.97 5.24244 -3.76615 0
M  V30 15620 H 1488.74 5.81326 -5.76196 0
M  V30 15621 N 1491.4 0.642663 1.43901 0
M  V30 15622 C 1492.33 -0.0419756 2.33462 0
M  V30 15623 C 1493.31 -0.822923 1.48869 0
M  V30 15624 O 1494.5 -0.786508 1.7756 0
M  V30 15625 C 1491.63 -1.01631 3.32097 0
M  V30 15626 C 1490.58 -0.346206 4.26597 0
M  V30 15627 C 1489.91 -1.43125 5.15189 0
M  V30 15628 C 1491.21 0.754799 5.16817 0
M  V30 15629 H 1492.9 0.705929 2.90959 0
M  V30 15630 H 1490.45 0.340924 1.39906 0
M  V30 15631 H 1492.4 -1.5041 3.93643 0
M  V30 15632 H 1491.13 -1.79525 2.72834 0
M  V30 15633 H 1489.78 0.121038 3.664 0
M  V30 15634 H 1489.43 -2.20135 4.52271 0
M  V30 15635 H 1489.13 -0.988194 5.79231 0
M  V30 15636 H 1490.66 -1.92061 5.79607 0
M  V30 15637 H 1492.07 0.349624 5.72233 0
M  V30 15638 H 1490.47 1.12169 5.89524 0
M  V30 15639 H 1491.54 1.61718 4.57138 0
M  V30 15640 N 1492.88 -1.52852 0.383918 0
M  V30 15641 C 1494.12 -2.03421 -0.199832 0
M  V30 15642 C 1494.49 -1.26439 -1.44489 0
M  V30 15643 O 1495.69 -1.67105 -2.10545 0
M  V30 15644 C 1493.96 -3.54341 -0.466577 0
M  V30 15645 S 1495.52 -4.26747 -1.02138 0
M  V30 15646 H 1492.33 -0.70873 -0.0567636 0
M  V30 15647 H 1494.94 -1.8815 0.531022 0
M  V30 15648 H 1493.64 -4.07961 0.446772 0
M  V30 15649 H 1493.17 -3.73808 -1.226 0
M  V30 15650 H 1495.19 -4.39456 -2.3042 0
M  V30 15651 N 1494.36 -0.113586 -1.5719 0
M  V30 15652 C 1495.27 0.852428 -2.18565 0
M  V30 15653 C 1496.29 1.29668 -1.16026 0
M  V30 15654 O 1497.46 1.36079 -1.48474 0
M  V30 15655 C 1494.53 2.08675 -2.76867 0
M  V30 15656 C 1493.59 1.69493 -3.94424 0
M  V30 15657 C 1492.82 2.87042 -4.49936 0
M  V30 15658 O 1493.04 4.02311 -4.04354 0
M  V30 15659 O 1491.98 2.64439 -5.40699 0
M  V30 15660 H 1495.8 0.360144 -3.01557 0
M  V30 15661 H 1493.39 0.111744 -1.48982 0
M  V30 15662 H 1495.27 2.80976 -3.14054 0
M  V30 15663 H 1493.95 2.5692 -1.9691 0
M  V30 15664 H 1492.85 0.943161 -3.62016 0
M  V30 15665 H 1494.19 1.25995 -4.758 0
M  V30 15666 N 1495.84 1.56784 0.160173 0
M  V30 15667 C 1496.79 1.98199 1.21737 0
M  V30 15668 C 1497.78 0.872381 1.4521 0
M  V30 15669 O 1498.99 1.05753 1.45658 0
M  V30 15670 H 1495.36 0.630742 0.409474 0
M  V30 15671 H 1497.33 2.86295 0.841289 0
M  V30 15672 C 1496.08 2.36748 2.54648 0
M  V30 15673 H 1495.4 3.21676 2.37413 0
M  V30 15674 H 1496.84 2.69561 3.27281 0
M  V30 15675 C 1495.3 1.2151 3.14224 0
M  V30 15676 O 1495.83 0.508739 3.98465 0
M  V30 15677 N 1494.04 0.982766 2.73478 0
M  V30 15678 H 1493.59 1.55893 2.05073 0
M  V30 15679 H 1493.54 0.213589 3.13674 0
M  V30 15680 N 1497.32 -0.429099 1.51646 0
M  V30 15681 C 1498.54 -1.20006 1.68541 0
M  V30 15682 C 1498.96 -1.84806 0.386264 0
M  V30 15683 O 1498.32 -1.7106 -0.635988 0
M  V30 15684 C 1498.37 -2.27801 2.80694 0
M  V30 15685 O 1498.09 -1.65649 4.05576 0
M  V30 15686 C 1499.59 -3.17927 3.08929 0
M  V30 15687 H 1496.81 -0.361388 0.565367 0
M  V30 15688 H 1499.35 -0.507432 1.98104 0
M  V30 15689 H 1497.51 -2.92766 2.53706 0
M  V30 15690 H 1497.92 -2.36955 4.67924 0
M  V30 15691 H 1499.4 -3.8968 3.90965 0
M  V30 15692 H 1499.87 -3.79157 2.21668 0
M  V30 15693 H 1500.48 -2.58654 3.37606 0
M  V30 15694 N 1498.79 -1.41931 -0.685074 0
M  V30 15695 C 1499.73 -1.40545 -1.81052 0
M  V30 15696 C 1500.74 -0.306024 -1.59898 0
M  V30 15697 O 1501.93 -0.568444 -1.69207 0
M  V30 15698 C 1499.03 -1.17194 -3.17992 0
M  V30 15699 C 1498.2 -2.39376 -3.66084 0
M  V30 15700 C 1497.26 -2.11725 -4.81725 0
M  V30 15701 O 1496.29 -2.84847 -4.92799 0
M  V30 15702 N 1497.49 -1.11399 -5.69711 0
M  V30 15703 H 1500.25 -2.37549 -1.8273 0
M  V30 15704 H 1497.81 -1.36679 -0.86779 0
M  V30 15705 H 1499.81 -0.966307 -3.92994 0
M  V30 15706 H 1498.38 -0.287499 -3.11275 0
M  V30 15707 H 1497.6 -2.75575 -2.81873 0
M  V30 15708 H 1498.88 -3.2076 -3.94956 0
M  V30 15709 H 1498.28 -0.509008 -5.63405 0
M  V30 15710 H 1496.84 -0.968239 -6.44568 0
M  V30 15711 N 1500.27 0.920374 -1.27933 0
M  V30 15712 C 1501.5 1.70275 -1.17533 0
M  V30 15713 C 1501.91 1.86904 0.266903 0
M  V30 15714 O 1501.27 1.39131 1.18105 0
M  V30 15715 C 1501.32 3.09847 -1.86219 0
M  V30 15716 O 1501.04 2.93992 -3.24808 0
M  V30 15717 C 1502.54 4.042 -1.82037 0
M  V30 15718 H 1499.76 0.53248 -0.408297 0
M  V30 15719 H 1502.31 1.1524 -1.68938 0
M  V30 15720 H 1500.46 3.61719 -1.38701 0
M  V30 15721 H 1500.88 3.82281 -3.59112 0
M  V30 15722 H 1502.35 4.99621 -2.34697 0
M  V30 15723 H 1502.83 4.32013 -0.791295 0
M  V30 15724 H 1503.43 3.58254 -2.29203 0
M  V30 15725 N 1501.75 1.10074 1.1279 0
M  V30 15726 C 1502.97 0.863106 1.88587 0
M  V30 15727 C 1503.4 -0.580595 1.78915 0
M  V30 15728 O 1502.76 -1.40859 1.14142 0
M  V30 15729 C 1502.81 1.31142 3.35908 0
M  V30 15730 O 1501.91 0.474088 4.09666 0
M  V30 15731 H 1501.25 0.312034 0.586115 0
M  V30 15732 H 1503.78 1.46659 1.42662 0
M  V30 15733 H 1503.79 1.29974 3.86744 0
M  V30 15734 H 1502.47 2.36279 3.42265 0
M  V30 15735 H 1501.04 0.550665 3.68812 0
M  V30 15736 N 1503.23 -1.30138 0.888926 0
M  V30 15737 C 1504.46 -2.00143 0.524437 0
M  V30 15738 C 1504.87 -1.66608 -0.888093 0
M  V30 15739 O 1504.23 -0.905326 -1.58462 0
M  V30 15740 C 1504.28 -3.54769 0.694327 0
M  V30 15741 O 1504 -3.87112 2.05125 0
M  V30 15742 C 1505.5 -4.42045 0.333354 0
M  V30 15743 H 1502.72 -0.639775 0.202309 0
M  V30 15744 H 1505.26 -1.65929 1.19531 0
M  V30 15745 H 1503.42 -3.87335 0.0707712 0
M  V30 15746 H 1503.83 -4.81807 2.07275 0
M  V30 15747 H 1505.31 -5.49702 0.503107 0
M  V30 15748 H 1505.78 -4.33109 -0.728893 0
M  V30 15749 H 1506.39 -4.14931 0.933398 0
M  V30 15750 N 1504.71 -0.650285 -1.43559 0
M  V30 15751 C 1505.64 0.0817484 -2.29054 0
M  V30 15752 C 1506.65 0.790023 -1.42346 0
M  V30 15753 O 1507.84 0.648269 -1.66312 0
M  V30 15754 C 1504.94 1.13873 -3.19196 0
M  V30 15755 C 1504.11 0.509177 -4.34426 0
M  V30 15756 C 1503.17 1.46265 -5.05463 0
M  V30 15757 O 1502.2 0.972378 -5.60833 0
M  V30 15758 N 1503.4 2.79668 -5.08691 0
M  V30 15759 H 1506.16 -0.652062 -2.92521 0
M  V30 15760 H 1503.73 -0.49285 -1.54216 0
M  V30 15761 H 1505.72 1.77732 -3.63584 0
M  V30 15762 H 1504.29 1.77454 -2.5735 0
M  V30 15763 H 1503.51 -0.308444 -3.92991 0
M  V30 15764 H 1504.8 0.0695732 -5.08752 0
M  V30 15765 H 1504.19 3.22062 -4.65072 0
M  V30 15766 H 1502.75 3.38838 -5.56805 0
M  V30 15767 N 1506.18 1.52647 -0.392018 0
M  V30 15768 C 1507.09 2.30261 0.449093 0
M  V30 15769 C 1508.11 1.37286 1.06905 0
M  V30 15770 O 1509.29 1.70357 1.07427 0
M  V30 15771 C 1506.35 3.09636 1.55969 0
M  V30 15772 C 1505.41 4.18324 0.964566 0
M  V30 15773 C 1504.64 4.93904 2.02224 0
M  V30 15774 O 1504.87 4.69603 3.23773 0
M  V30 15775 O 1503.8 5.79183 1.63802 0
M  V30 15776 H 1507.63 3.03147 -0.183269 0
M  V30 15777 H 1505.21 1.48587 -0.155664 0
M  V30 15778 H 1507.09 3.59118 2.20482 0
M  V30 15779 H 1505.77 2.39561 2.17697 0
M  V30 15780 H 1504.68 3.73031 0.282618 0
M  V30 15781 H 1506.01 4.90641 0.391466 0
M  V30 15782 N 1507.66 0.121921 1.57128 0
M  V30 15783 C 1508.91 -0.535201 1.9447 0
M  V30 15784 C 1509.22 -1.67644 1.00772 0
M  V30 15785 O 1510.43 -2.39651 1.27592 0
M  V30 15786 C 1508.89 -1.00346 3.45628 0
M  V30 15787 C 1508.49 0.109473 4.47866 0
M  V30 15788 C 1510.24 -1.63179 3.91884 0
M  V30 15789 C 1508.15 -0.375651 5.90206 0
M  V30 15790 H 1507.08 -0.203702 0.725962 0
M  V30 15791 H 1509.73 0.202243 1.82382 0
M  V30 15792 H 1508.11 -1.79541 3.5296 0
M  V30 15793 H 1509.28 0.885815 4.52206 0
M  V30 15794 H 1507.6 0.644642 4.1138 0
M  V30 15795 H 1510.19 -2.00594 4.95647 0
M  V30 15796 H 1510.54 -2.5113 3.32023 0
M  V30 15797 H 1511.07 -0.905197 3.87364 0
M  V30 15798 H 1507.81 0.46788 6.53828 0
M  V30 15799 H 1507.33 -1.11841 5.89281 0
M  V30 15800 H 1509.01 -0.835921 6.41577 0
M  V30 15801 N 1509.14 -1.56867 -0.151857 0
M  V30 15802 C 1510.09 -1.97899 -1.18763 0
M  V30 15803 C 1511.06 -0.845833 -1.42951 0
M  V30 15804 O 1512.24 -1.10751 -1.55367 0
M  V30 15805 C 1509.38 -2.36063 -2.5173 0
M  V30 15806 C 1508.5 -3.62647 -2.34757 0
M  V30 15807 C 1507.63 -3.89936 -3.60726 0
M  V30 15808 C 1506.67 -5.09806 -3.38769 0
M  V30 15809 N 1505.81 -5.33129 -4.56856 0
M  V30 15810 H 1510.65 -2.86187 -0.830713 0
M  V30 15811 H 1508.18 -1.41592 -0.398745 0
M  V30 15812 H 1510.14 -2.56218 -3.29254 0
M  V30 15813 H 1508.77 -1.50861 -2.85379 0
M  V30 15814 H 1507.82 -3.50297 -1.48312 0
M  V30 15815 H 1509.14 -4.50328 -2.1449 0
M  V30 15816 H 1508.29 -4.10563 -4.4668 0
M  V30 15817 H 1507.03 -3.00668 -3.83993 0
M  V30 15818 H 1506.03 -4.89057 -2.51203 0
M  V30 15819 H 1507.26 -6.00623 -3.16906 0
M  V30 15820 H 1505.2 -4.46815 -4.80305 0
M  V30 15821 H 1505.12 -6.1507 -4.39574 0
M  V30 15822 H 1506.39 -5.5825 -5.44038 0
M  V30 15823 N 1510.62 0.421051 -1.51871 0
M  V30 15824 C 1511.87 1.16677 -1.65018 0
M  V30 15825 C 1512.19 1.91329 -0.376596 0
M  V30 15826 O 1511.46 1.86221 0.608146 0
M  V30 15827 H 1510.04 0.433698 -0.608206 0
M  V30 15828 H 1512.7 0.48115 -1.88868 0
M  V30 15829 H 1511.8 1.88742 -2.48562 0
M  V30 15830 N 1512.1 1.42293 0.677538 0
M  V30 15831 C 1513.04 1.45556 1.79114 0
M  V30 15832 C 1514.01 0.307826 1.63223 0
M  V30 15833 O 1515.2 0.511504 1.83816 0
M  V30 15834 C 1512.34 1.36104 3.17127 0
M  V30 15835 C 1511.45 2.60891 3.44325 0
M  V30 15836 C 1510.59 2.43601 4.72051 0
M  V30 15837 C 1509.63 3.63775 4.92274 0
M  V30 15838 N 1508.76 3.45444 6.11239 0
M  V30 15839 H 1513.6 2.40723 1.7566 0
M  V30 15840 H 1511.14 1.19517 0.857565 0
M  V30 15841 H 1513.1 1.28622 3.96878 0
M  V30 15842 H 1511.73 0.445342 3.19713 0
M  V30 15843 H 1510.78 2.78751 2.58848 0
M  V30 15844 H 1512.09 3.50229 3.55163 0
M  V30 15845 H 1511.25 2.33689 5.59888 0
M  V30 15846 H 1509.98 1.51748 4.63491 0
M  V30 15847 H 1508.99 3.74122 4.0288 0
M  V30 15848 H 1510.21 4.56605 5.02681 0
M  V30 15849 H 1508.16 2.56306 6.03857 0
M  V30 15850 H 1508.08 4.28368 6.22926 0
M  V30 15851 H 1509.35 3.39339 7.01762 0
M  V30 15852 N 1513.57 -0.913576 1.28419 0
M  V30 15853 C 1514.82 -1.66273 1.15584 0
M  V30 15854 C 1515.15 -1.92242 -0.295541 0
M  V30 15855 O 1514.4 -1.52104 -1.23137 0
M  V30 15856 C 1514.7 -3.02722 1.89985 0
M  V30 15857 C 1514.37 -2.96413 3.3978 0
M  V30 15858 C 1513.03 -2.94399 3.80635 0
M  V30 15859 C 1515.38 -2.86648 4.35296 0
M  V30 15860 C 1512.71 -2.80422 5.15345 0
M  V30 15861 C 1515.06 -2.74211 5.7008 0
M  V30 15862 C 1513.73 -2.70556 6.1021 0
M  V30 15863 H 1513 -0.608435 0.422951 0
M  V30 15864 H 1515.64 -1.06438 1.59196 0
M  V30 15865 H 1513.95 -3.66344 1.38923 0
M  V30 15866 H 1515.65 -3.59591 1.7747 0
M  V30 15867 H 1512.24 -2.98775 3.07297 0
M  V30 15868 H 1516.42 -2.87291 4.04695 0
M  V30 15869 H 1511.68 -2.75987 5.45565 0
M  V30 15870 H 1515.85 -2.65624 6.43752 0
M  V30 15871 H 1513.48 -2.59483 7.14544 0
M  V30 15872 N 1515.05 -1.1067 -1.12204 0
M  V30 15873 C 1516 -0.752659 -2.20086 0
M  V30 15874 C 1516.99 0.252284 -1.67511 0
M  V30 15875 O 1518.2 0.112398 -1.79649 0
M  V30 15876 H 1514.58 -0.225473 -0.717402 0
M  V30 15877 H 1516.55 -1.67136 -2.472 0
M  V30 15878 C 1515.3 -0.203345 -3.47105 0
M  V30 15879 H 1514.62 -0.967864 -3.87908 0
M  V30 15880 H 1516.06 0.00629123 -4.24 0
M  V30 15881 C 1514.52 1.06452 -3.1964 0
M  V30 15882 O 1515.05 2.14562 -3.39597 0
M  V30 15883 N 1513.25 0.984122 -2.73429 0
M  V30 15884 H 1512.8 0.104258 -2.57389 0
M  V30 15885 H 1512.76 1.83312 -2.55429 0
M  V30 15886 N 1516.53 1.29665 -0.895815 0
M  V30 15887 C 1517.78 1.94995 -0.515749 0
M  V30 15888 C 1518.09 1.71427 0.94192 0
M  V30 15889 O 1519.3 2.3083 1.42933 0
M  V30 15890 C 1517.75 3.4919 -0.871468 0
M  V30 15891 C 1517.36 3.81562 -2.34764 0
M  V30 15892 C 1519.11 4.20775 -0.561123 0
M  V30 15893 C 1517.01 5.28984 -2.64442 0
M  V30 15894 H 1515.94 0.729889 -0.189151 0
M  V30 15895 H 1518.59 1.4745 -1.09228 0
M  V30 15896 H 1516.98 3.95366 -0.223908 0
M  V30 15897 H 1518.15 3.46258 -3.04043 0
M  V30 15898 H 1516.47 3.23107 -2.62661 0
M  V30 15899 H 1519.06 5.29275 -0.759755 0
M  V30 15900 H 1519.41 4.13285 0.500129 0
M  V30 15901 H 1519.94 3.80317 -1.16635 0
M  V30 15902 H 1516.68 5.41535 -3.69351 0
M  V30 15903 H 1516.2 5.6555 -1.99784 0
M  V30 15904 H 1517.88 5.96536 -2.50506 0
M  V30 15905 N 1518.01 0.657889 1.43212 0
M  V30 15906 C 1519.25 0.173443 2.02057 0
M  V30 15907 C 1519.59 -1.21108 1.51811 0
M  V30 15908 O 1518.86 -1.80953 0.71317 0
M  V30 15909 C 1519.15 0.189429 3.59601 0
M  V30 15910 C 1519 1.6082 4.20068 0
M  V30 15911 C 1520.32 -0.471633 4.37566 0
M  V30 15912 H 1517.44 0.0644999 0.734172 0
M  V30 15913 H 1520.08 0.839462 1.7045 0
M  V30 15914 H 1518.23 -0.377689 3.8666 0
M  V30 15915 H 1519.9 2.22627 4.04024 0
M  V30 15916 H 1518.14 2.15407 3.7654 0
M  V30 15917 H 1518.81 1.5712 5.29167 0
M  V30 15918 H 1521.29 0.0109387 4.16099 0
M  V30 15919 H 1520.17 -0.429739 5.47215 0
M  V30 15920 H 1520.43 -1.54652 4.14168 0
M  V30 15921 N 1519.49 -1.52437 0.400108 0
M  V30 15922 C 1520.43 -2.28312 -0.444572 0
M  V30 15923 C 1521.43 -1.32641 -1.0537 0
M  V30 15924 O 1522.63 -1.50136 -0.99293 0
M  V30 15925 H 1519.01 -0.734313 -0.162137 0
M  V30 15926 H 1520.98 -2.97612 0.216702 0
M  V30 15927 C 1519.73 -3.11044 -1.55393 0
M  V30 15928 H 1519.05 -3.84525 -1.09455 0
M  V30 15929 H 1520.49 -3.67255 -2.11896 0
M  V30 15930 C 1518.95 -2.24035 -2.51614 0
M  V30 15931 O 1519.48 -1.87447 -3.55284 0
M  V30 15932 N 1517.69 -1.87982 -2.2161 0
M  V30 15933 H 1517.23 -2.17936 -1.37338 0
M  V30 15934 H 1517.19 -1.30058 -2.86238 0
M  V30 15935 N 1520.96 -0.130252 -1.57061 0
M  V30 15936 C 1522.19 0.532416 -1.99932 0
M  V30 15937 C 1522.61 1.59505 -1.01013 0
M  V30 15938 O 1521.96 1.82499 -0.00463158 0
M  V30 15939 C 1522.02 1.14833 -3.42776 0
M  V30 15940 O 1521.74 0.128163 -4.37912 0
M  V30 15941 C 1523.24 1.89324 -4.00838 0
M  V30 15942 H 1520.46 0.140046 -0.656223 0
M  V30 15943 H 1523 -0.219905 -2.03314 0
M  V30 15944 H 1521.16 1.85137 -3.40298 0
M  V30 15945 H 1521.57 0.577135 -5.21315 0
M  V30 15946 H 1523.04 2.27731 -5.02835 0
M  V30 15947 H 1523.52 2.77277 -3.40608 0
M  V30 15948 H 1524.13 1.23757 -4.06896 0
M  V30 15949 N 1522.44 1.56945 0.143535 0
M  V30 15950 C 1523.69 1.83176 0.853873 0
M  V30 15951 C 1524.01 0.71168 1.81549 0
M  V30 15952 O 1523.28 -0.266391 1.9408 0
M  V30 15953 H 1521.86 0.675785 0.318313 0
M  V30 15954 H 1524.52 1.9442 0.136712 0
M  V30 15955 H 1523.62 2.7823 1.41402 0
M  V30 15956 N 1523.92 -0.412991 1.52093 0
M  V30 15957 C 1524.87 -1.52347 1.75765 0
M  V30 15958 C 1525.86 -1.57463 0.624641 0
M  V30 15959 O 1527.07 -1.60916 0.806599 0
M  V30 15960 H 1523.44 -0.50659 0.555761 0
M  V30 15961 H 1525.42 -1.29564 2.68804 0
M  V30 15962 C 1524.16 -2.89757 1.92188 0
M  V30 15963 H 1523.49 -2.86561 2.78788 0
M  V30 15964 H 1524.93 -3.66759 2.12753 0
M  V30 15965 C 1523.39 -3.29801 0.687963 0
M  V30 15966 O 1523.92 -4.01435 -0.145984 0
M  V30 15967 N 1522.12 -2.85819 0.524978 0
M  V30 15968 H 1521.67 -2.27694 1.20471 0
M  V30 15969 H 1521.63 -3.12972 -0.299325 0
M  V30 15970 N 1525.4 -1.4265 -0.669982 0
M  V30 15971 C 1526.82 -1.25682 -0.983682 0
M  V30 15972 C 1527.02 -0.164456 -2.00828 0
M  V30 15973 O 1526.07 0.462711 -2.48224 0
M  V30 15974 C 1527.38 -2.61536 -1.4839 0
M  V30 15975 C 1528.93 -2.6893 -1.60143 0
M  V30 15976 C 1529.41 -4.05162 -2.1356 0
M  V30 15977 N 1530.9 -4.07141 -2.20886 0
M  V30 15978 C 1531.63 -5.09371 -2.63303 0
M  V30 15979 N 1531.13 -6.21983 -3.05137 0
M  V30 15980 N 1532.92 -4.96727 -2.63094 0
M  V30 15981 H 1525.07 -2.12398 0.0083059 0
M  V30 15982 H 1527.34 -0.946173 -0.058823 0
M  V30 15983 H 1527.04 -3.42351 -0.805527 0
M  V30 15984 H 1526.92 -2.85786 -2.46183 0
M  V30 15985 H 1529.3 -1.88457 -2.27085 0
M  V30 15986 H 1529.38 -2.48463 -0.608266 0
M  V30 15987 H 1529.03 -4.86094 -1.47224 0
M  V30 15988 H 1528.96 -4.22984 -3.13676 0
M  V30 15989 H 1531.45 -3.25846 -1.91396 0
M  V30 15990 H 1531.76 -6.95835 -3.36204 0
M  V30 15991 H 1530.11 -6.25481 -3.02983 0
M  V30 15992 H 1533.3 -4.07824 -2.29777 0
M  V30 15993 H 1533.47 -5.76531 -2.95831 0
M  V30 15994 N 1526.88 0.906753 -1.28902 0
M  V30 15995 C 1528.15 1.63637 -1.07155 0
M  V30 15996 C 1528.53 2.07527 0.386727 0
M  V30 15997 O 1527.88 1.82562 1.37417 0
M  V30 15998 C 1528.09 2.82256 -2.05263 0
M  V30 15999 C 1529.44 3.53109 -2.35794 0
M  V30 16000 O 1530.46 2.92414 -2.03402 0
M  V30 16001 O 1529.32 4.62512 -2.91109 0
M  V30 16002 H 1526.42 0.718194 -0.410032 0
M  V30 16003 H 1528.96 0.955442 -1.40248 0
M  V30 16004 H 1527.74 2.46968 -3.03517 0
M  V30 16005 H 1527.36 3.58059 -1.72857 0
M  V30 16006 N 1528.36 1.11264 1.11616 0
M  V30 16007 C 1529.59 0.881522 1.8685 0
M  V30 16008 C 1529.99 -0.572088 1.80344 0
M  V30 16009 O 1529.34 -1.40665 1.18148 0
M  V30 16010 C 1529.4 1.26245 3.36604 0
M  V30 16011 C 1529.06 2.72485 3.6688 0
M  V30 16012 C 1530.06 3.70708 3.64516 0
M  V30 16013 C 1527.74 3.09086 3.95943 0
M  V30 16014 C 1529.74 5.0355 3.90789 0
M  V30 16015 C 1527.43 4.42114 4.21875 0
M  V30 16016 C 1528.42 5.39155 4.19286 0
M  V30 16017 O 1528.11 6.69787 4.44568 0
M  V30 16018 H 1527.84 0.315647 0.597782 0
M  V30 16019 H 1530.4 1.48317 1.42095 0
M  V30 16020 H 1528.63 0.603938 3.81955 0
M  V30 16021 H 1530.32 1.00744 3.93199 0
M  V30 16022 H 1531.08 3.43776 3.42115 0
M  V30 16023 H 1526.96 2.34171 3.97095 0
M  V30 16024 H 1530.51 5.79285 3.88684 0
M  V30 16025 H 1526.4 4.6878 4.43751 0
M  V30 16026 H 1527.17 6.75548 4.62144 0
M  V30 16027 N 1529.83 -1.29188 0.902679 0
M  V30 16028 C 1531.06 -2.00113 0.544953 0
M  V30 16029 C 1531.48 -1.67093 -0.863805 0
M  V30 16030 O 1530.84 -0.897179 -1.57545 0
M  V30 16031 C 1530.89 -3.52762 0.747741 0
M  V30 16032 O 1529.99 -4.11923 -0.198388 0
M  V30 16033 H 1529.33 -0.629054 0.212572 0
M  V30 16034 H 1531.86 -1.64611 1.21508 0
M  V30 16035 H 1531.87 -4.02732 0.653546 0
M  V30 16036 H 1530.55 -3.76131 1.77478 0
M  V30 16037 H 1529.13 -3.72857 -0.0563959 0
M  V30 16038 N 1531.31 -0.665475 -1.42861 0
M  V30 16039 C 1532.24 0.00482845 -2.335 0
M  V30 16040 C 1533.22 0.799135 -1.50159 0
M  V30 16041 O 1534.41 0.75816 -1.78789 0
M  V30 16042 C 1531.54 0.963347 -3.33672 0
M  V30 16043 C 1530.49 0.278294 -4.27094 0
M  V30 16044 C 1529.82 1.34911 -5.174 0
M  V30 16045 C 1531.12 -0.836925 -5.15551 0
M  V30 16046 H 1532.81 -0.752129 -2.89799 0
M  V30 16047 H 1530.36 -0.363139 -1.39346 0
M  V30 16048 H 1532.31 1.44128 -3.95986 0
M  V30 16049 H 1531.03 1.75161 -2.75656 0
M  V30 16050 H 1529.69 -0.179314 -3.66161 0
M  V30 16051 H 1529.34 2.12912 -4.55716 0
M  V30 16052 H 1529.04 0.895919 -5.8073 0
M  V30 16053 H 1530.57 1.82816 -5.8259 0
M  V30 16054 H 1531.98 -0.440617 -5.71604 0
M  V30 16055 H 1530.38 -1.21533 -5.87665 0
M  V30 16056 H 1531.45 -1.6897 -4.54507 0
M  V30 16057 N 1532.79 1.52222 -0.408187 0
M  V30 16058 C 1533.74 2.26988 0.417767 0
M  V30 16059 C 1534.71 1.29362 1.04185 0
M  V30 16060 O 1535.89 1.58223 1.06631 0
M  V30 16061 C 1533.03 3.09379 1.52901 0
M  V30 16062 C 1532.14 4.2196 0.92593 0
M  V30 16063 C 1531.28 4.91712 2.00979 0
M  V30 16064 C 1530.32 5.96258 1.3836 0
M  V30 16065 N 1529.46 6.59531 2.40756 0
M  V30 16066 H 1534.3 2.9714 -0.226228 0
M  V30 16067 H 1531.83 1.46581 -0.123402 0
M  V30 16068 H 1533.79 3.55452 2.18425 0
M  V30 16069 H 1532.42 2.41399 2.14304 0
M  V30 16070 H 1531.47 3.80064 0.159765 0
M  V30 16071 H 1532.78 4.96956 0.428497 0
M  V30 16072 H 1531.94 5.41186 2.74231 0
M  V30 16073 H 1530.68 4.16282 2.54087 0
M  V30 16074 H 1529.68 5.46104 0.636402 0
M  V30 16075 H 1530.91 6.7363 0.860218 0
M  V30 16076 H 1528.85 5.86931 2.92999 0
M  V30 16077 H 1528.77 7.30198 1.95822 0
M  V30 16078 H 1530.04 7.13643 3.13581 0
M  V30 16079 N 1534.27 0.138579 1.5699 0
M  V30 16080 C 1535.54 -0.559239 1.87435 0
M  V30 16081 C 1535.92 -1.83527 1.04312 0
M  V30 16082 O 1535.27 -2.28144 0.127531 0
M  V30 16083 C 1535.48 -0.83282 3.38918 0
M  V30 16084 C 1536.83 -1.1773 4.07952 0
M  V30 16085 O 1537.85 -0.92245 3.44048 0
M  V30 16086 O 1536.71 -1.6565 5.2079 0
M  V30 16087 H 1533.81 -0.284318 0.77659 0
M  V30 16088 H 1536.35 0.174558 1.688 0
M  V30 16089 H 1535.13 0.0706054 3.91236 0
M  V30 16090 H 1534.75 -1.62109 3.63051 0
M  V30 16091 N 1535.75 -1.57019 -0.13521 0
M  V30 16092 C 1536.99 -1.83178 -0.844308 0
M  V30 16093 C 1537.31 -0.7217 -1.81799 0
M  V30 16094 O 1538.51 -0.869232 -2.57209 0
M  V30 16095 C 1536.97 -3.2471 -1.55214 0
M  V30 16096 C 1536.58 -4.43685 -0.620268 0
M  V30 16097 C 1538.32 -3.60133 -2.24732 0
M  V30 16098 C 1536.23 -5.76242 -1.3304 0
M  V30 16099 H 1535.16 -0.683175 -0.319041 0
M  V30 16100 H 1537.81 -1.83243 -0.0970242 0
M  V30 16101 H 1536.19 -3.19067 -2.34547 0
M  V30 16102 H 1537.37 -4.60591 0.138685 0
M  V30 16103 H 1535.68 -4.16387 -0.0328906 0
M  V30 16104 H 1538.28 -4.56431 -2.78522 0
M  V30 16105 H 1538.62 -2.86767 -3.01779 0
M  V30 16106 H 1539.15 -3.67489 -1.52305 0
M  V30 16107 H 1535.89 -6.52734 -0.60155 0
M  V30 16108 H 1535.41 -5.63251 -2.06176 0
M  V30 16109 H 1537.09 -6.19445 -1.86808 0
M  V30 16110 N 1537.22 0.404919 -1.52309 0
M  V30 16111 C 1538.47 1.15319 -1.66822 0
M  V30 16112 C 1538.8 1.90056 -0.399041 0
M  V30 16113 O 1538.08 1.84927 0.602679 0
M  V30 16114 C 1538.36 2.14426 -2.89298 0
M  V30 16115 C 1538.21 1.43558 -4.26276 0
M  V30 16116 C 1539.53 3.15046 -3.07301 0
M  V30 16117 H 1536.65 0.417869 -0.607087 0
M  V30 16118 H 1539.29 0.438414 -1.84873 0
M  V30 16119 H 1537.44 2.75382 -2.74039 0
M  V30 16120 H 1539.12 0.856899 -4.53271 0
M  V30 16121 H 1537.36 0.737515 -4.27485 0
M  V30 16122 H 1538.03 2.15895 -5.08029 0
M  V30 16123 H 1540.51 2.6417 -3.21486 0
M  V30 16124 H 1539.38 3.81652 -3.94503 0
M  V30 16125 H 1539.64 3.83012 -2.20803 0
M  V30 16126 N 1538.7 1.43003 0.662408 0
M  V30 16127 C 1539.63 1.50248 1.78739 0
M  V30 16128 C 1540.61 0.357934 1.66291 0
M  V30 16129 O 1541.8 0.573919 1.85526 0
M  V30 16130 C 1538.93 1.41618 3.17114 0
M  V30 16131 C 1537.88 2.54228 3.44314 0
M  V30 16132 C 1537.21 2.30653 4.82393 0
M  V30 16133 C 1538.51 3.96505 3.39972 0
M  V30 16134 H 1540.2 2.44406 1.72934 0
M  V30 16135 H 1537.75 1.17633 0.830569 0
M  V30 16136 H 1539.7 1.45293 3.9556 0
M  V30 16137 H 1538.43 0.439605 3.23628 0
M  V30 16138 H 1537.08 2.49891 2.68235 0
M  V30 16139 H 1536.73 1.3126 4.85572 0
M  V30 16140 H 1536.43 3.06134 5.01554 0
M  V30 16141 H 1537.96 2.36096 5.63108 0
M  V30 16142 H 1539.37 4.02378 4.08368 0
M  V30 16143 H 1537.77 4.71937 3.70668 0
M  V30 16144 H 1538.84 4.22295 2.38318 0
M  V30 16145 N 1540.18 -0.899904 1.29381 0
M  V30 16146 C 1541.6 -1.18067 1.07388 0
M  V30 16147 C 1541.8 -2.00739 -0.174951 0
M  V30 16148 O 1540.85 -2.36937 -0.872771 0
M  V30 16149 C 1542.17 -1.90182 2.32919 0
M  V30 16150 C 1543.71 -2.03009 2.38236 0
M  V30 16151 C 1544.19 -2.78533 3.6357 0
M  V30 16152 N 1545.68 -2.86088 3.64291 0
M  V30 16153 C 1546.41 -3.45062 4.57952 0
M  V30 16154 N 1545.91 -4.05204 5.61945 0
M  V30 16155 N 1547.7 -3.42734 4.45522 0
M  V30 16156 H 1539.85 -0.348306 2.09525 0
M  V30 16157 H 1542.12 -0.216796 0.922878 0
M  V30 16158 H 1541.82 -1.36871 3.23974 0
M  V30 16159 H 1541.7 -2.90658 2.40412 0
M  V30 16160 H 1544.08 -2.55495 1.47669 0
M  V30 16161 H 1544.17 -1.01666 2.34729 0
M  V30 16162 H 1543.81 -2.26723 4.54488 0
M  V30 16163 H 1543.74 -3.8022 3.64335 0
M  V30 16164 H 1546.23 -2.43372 2.891 0
M  V30 16165 H 1546.54 -4.48225 6.29535 0
M  V30 16166 H 1544.89 -4.03667 5.65755 0
M  V30 16167 H 1548.08 -2.94967 3.63472 0
M  V30 16168 H 1548.25 -3.884 5.187 0
M  V30 16169 N 1541.66 -1.11854 -1.11024 0
M  V30 16170 C 1542.89 -0.891419 -1.86379 0
M  V30 16171 C 1543.3 0.562516 -1.80644 0
M  V30 16172 O 1542.64 1.40037 -1.18893 0
M  V30 16173 C 1542.7 -1.28029 -3.3593 0
M  V30 16174 C 1542.37 -2.74427 -3.65429 0
M  V30 16175 C 1543.36 -3.72636 -3.62545 0
M  V30 16176 C 1541.05 -3.11182 -3.94298 0
M  V30 16177 C 1543.04 -5.05615 -3.88113 0
M  V30 16178 C 1540.73 -4.44345 -4.19524 0
M  V30 16179 C 1541.73 -5.41371 -4.16421 0
M  V30 16180 O 1541.41 -6.72135 -4.41009 0
M  V30 16181 H 1541.15 -0.318813 -0.596099 0
M  V30 16182 H 1543.7 -1.49069 -1.41307 0
M  V30 16183 H 1541.93 -0.624186 -3.81629 0
M  V30 16184 H 1543.62 -1.02827 -3.92659 0
M  V30 16185 H 1544.39 -3.45586 -3.40287 0
M  V30 16186 H 1540.26 -2.36274 -3.95848 0
M  V30 16187 H 1543.81 -5.81338 -3.85606 0
M  V30 16188 H 1539.71 -4.71127 -4.41259 0
M  V30 16189 H 1540.47 -6.77989 -4.58555 0
M  V30 16190 N 1543.14 1.28707 -0.909517 0
M  V30 16191 C 1544.37 1.98995 -0.555405 0
M  V30 16192 C 1544.77 1.68183 0.866665 0
M  V30 16193 O 1544.12 0.928626 1.585 0
M  V30 16194 C 1544.18 3.53018 -0.67958 0
M  V30 16195 C 1543.84 4.0741 -2.07042 0
M  V30 16196 C 1544.84 4.21565 -3.04268 0
M  V30 16197 C 1542.53 4.42204 -2.38245 0
M  V30 16198 C 1544.52 4.69762 -4.30816 0
M  V30 16199 C 1542.21 4.90095 -3.65034 0
M  V30 16200 C 1543.2 5.03831 -4.61133 0
M  V30 16201 O 1542.89 5.50679 -5.85668 0
M  V30 16202 H 1542.62 0.64228 -0.210836 0
M  V30 16203 H 1545.18 1.64974 -1.22364 0
M  V30 16204 H 1543.41 3.86673 0.0457104 0
M  V30 16205 H 1545.1 4.0453 -0.33319 0
M  V30 16206 H 1545.86 3.94962 -2.81478 0
M  V30 16207 H 1541.74 4.30766 -1.642 0
M  V30 16208 H 1545.29 4.80398 -5.0583 0
M  V30 16209 H 1541.18 5.16137 -3.8765 0
M  V30 16210 H 1541.95 5.68974 -5.88397 0
M  V30 16211 N 1544.61 0.673042 1.42506 0
M  V30 16212 C 1545.86 0.194576 2.01563 0
M  V30 16213 C 1546.19 -1.19829 1.53203 0
M  V30 16214 O 1545.44 -1.8181 0.724131 0
M  V30 16215 C 1545.74 0.175896 3.56967 0
M  V30 16216 C 1545.41 1.51319 4.24751 0
M  V30 16217 C 1544.07 1.87936 4.42983 0
M  V30 16218 C 1546.42 2.394 4.62965 0
M  V30 16219 C 1543.75 3.12261 4.96699 0
M  V30 16220 C 1546.1 3.63036 5.18061 0
M  V30 16221 C 1544.77 3.99824 5.34506 0
M  V30 16222 H 1544.04 0.0712004 0.737571 0
M  V30 16223 H 1546.68 0.867679 1.70715 0
M  V30 16224 H 1544.99 -0.580712 3.87473 0
M  V30 16225 H 1546.69 -0.211488 4.00442 0
M  V30 16226 H 1543.28 1.21834 4.10919 0
M  V30 16227 H 1547.46 2.12397 4.48555 0
M  V30 16228 H 1542.72 3.40787 5.07617 0
M  V30 16229 H 1546.89 4.31491 5.46616 0
M  V30 16230 H 1544.52 4.96236 5.75894 0
M  V30 16231 N 1546.09 -1.52004 0.416254 0
M  V30 16232 C 1547.32 -2.06307 -0.156491 0
M  V30 16233 C 1547.74 -1.28567 -1.3826 0
M  V30 16234 O 1547.09 -0.339447 -1.79315 0
M  V30 16235 C 1547.14 -3.58028 -0.499824 0
M  V30 16236 O 1546.86 -4.32828 0.677602 0
M  V30 16237 C 1548.37 -4.28773 -1.12553 0
M  V30 16238 H 1545.59 -0.670778 -0.0172483 0
M  V30 16239 H 1548.13 -1.95826 0.589262 0
M  V30 16240 H 1546.28 -3.68493 -1.19547 0
M  V30 16241 H 1546.7 -5.23053 0.389302 0
M  V30 16242 H 1548.17 -5.36085 -1.31592 0
M  V30 16243 H 1548.65 -3.85706 -2.10066 0
M  V30 16244 H 1549.26 -4.22696 -0.469881 0
M  V30 16245 N 1547.57 -0.146903 -1.56914 0
M  V30 16246 C 1548.52 0.792821 -2.16756 0
M  V30 16247 C 1549.49 1.2442 -1.1004 0
M  V30 16248 O 1550.67 1.31674 -1.38081 0
M  V30 16249 C 1547.81 2.02659 -2.79327 0
M  V30 16250 C 1546.93 1.62102 -4.00433 0
M  V30 16251 C 1546.06 2.80658 -4.51004 0
M  V30 16252 C 1545.1 2.36474 -5.64576 0
M  V30 16253 N 1544.24 3.48038 -6.09766 0
M  V30 16254 H 1549.08 0.275708 -2.96722 0
M  V30 16255 H 1546.61 0.124374 -1.46573 0
M  V30 16256 H 1548.57 2.74986 -3.13749 0
M  V30 16257 H 1547.2 2.51781 -2.02005 0
M  V30 16258 H 1546.25 0.795407 -3.71991 0
M  V30 16259 H 1547.57 1.25652 -4.82714 0
M  V30 16260 H 1546.72 3.61175 -4.87481 0
M  V30 16261 H 1545.46 3.20353 -3.6773 0
M  V30 16262 H 1544.46 1.54397 -5.27676 0
M  V30 16263 H 1545.69 1.97865 -6.49635 0
M  V30 16264 H 1543.63 3.87354 -5.29427 0
M  V30 16265 H 1543.55 3.15602 -6.86972 0
M  V30 16266 H 1544.82 4.28912 -6.50887 0
M  V30 16267 N 1549.05 1.57088 0.126881 0
M  V30 16268 C 1549.96 2.03053 1.17502 0
M  V30 16269 C 1550.97 0.949484 1.45811 0
M  V30 16270 O 1552.15 1.26043 1.57083 0
M  V30 16271 C 1549.22 2.41897 2.48368 0
M  V30 16272 C 1548.28 3.64047 2.27527 0
M  V30 16273 C 1547.51 4.01029 3.52153 0
M  V30 16274 O 1547.73 3.38441 4.59145 0
M  V30 16275 O 1546.67 4.94174 3.43622 0
M  V30 16276 H 1550.49 2.92568 0.814733 0
M  V30 16277 H 1548.08 1.45547 0.3371 0
M  V30 16278 H 1549.96 2.67652 3.25485 0
M  V30 16279 H 1548.63 1.55531 2.83887 0
M  V30 16280 H 1547.54 3.43452 1.48294 0
M  V30 16281 H 1548.87 4.51093 1.96916 0
M  V30 16282 N 1550.53 -0.396836 1.52522 0
M  V30 16283 C 1551.48 -1.48365 1.73123 0
M  V30 16284 C 1552.46 -1.4988 0.585224 0
M  V30 16285 O 1553.65 -1.55649 0.842763 0
M  V30 16286 C 1550.78 -2.86165 1.89644 0
M  V30 16287 C 1549.87 -2.8925 3.10153 0
M  V30 16288 N 1550.26 -2.62017 4.32644 0
M  V30 16289 C 1548.56 -3.20419 3.10238 0
M  V30 16290 C 1549.26 -2.71985 5.14197 0
M  V30 16291 N 1548.23 -3.05385 4.49712 0
M  V30 16292 H 1552.04 -1.26124 2.65462 0
M  V30 16293 H 1549.55 -0.604696 1.50722 0
M  V30 16294 H 1551.55 -3.64404 2.02522 0
M  V30 16295 H 1550.21 -3.09395 0.985134 0
M  V30 16296 H 1551.22 -2.36183 4.6091 0
M  V30 16297 H 1547.89 -3.49164 2.2889 0
M  V30 16298 H 1549.28 -2.54541 6.21819 0
M  V30 16299 N 1552.01 -1.43353 -0.654814 0
M  V30 16300 C 1552.95 -1.48652 -1.789 0
M  V30 16301 C 1553.95 -0.360274 -1.65525 0
M  V30 16302 O 1555.15 -0.534194 -1.71891 0
M  V30 16303 H 1551.53 -0.465987 -0.590221 0
M  V30 16304 H 1553.5 -2.44158 -1.7155 0
M  V30 16305 C 1552.25 -1.42512 -3.17152 0
M  V30 16306 H 1551.57 -2.28479 -3.28081 0
M  V30 16307 H 1553.01 -1.50282 -3.96474 0
M  V30 16308 C 1551.47 -0.142511 -3.36598 0
M  V30 16309 O 1552 0.796821 -3.93718 0
M  V30 16310 N 1550.21 -0.0532157 -2.90551 0
M  V30 16311 H 1549.75 -0.818421 -2.44253 0
M  V30 16312 H 1549.71 0.80427 -3.03939 0
M  V30 16313 N 1553.48 0.89303 -1.29857 0
M  V30 16314 C 1554.71 1.6827 -1.21243 0
M  V30 16315 C 1555.13 1.86778 0.222621 0
M  V30 16316 O 1554.49 1.39291 1.1605 0
M  V30 16317 C 1554.54 3.041 -1.93792 0
M  V30 16318 O 1553.64 3.92696 -1.25951 0
M  V30 16319 H 1552.98 0.514479 -0.419771 0
M  V30 16320 H 1555.51 1.11513 -1.7154 0
M  V30 16321 H 1555.52 3.54198 -2.02504 0
M  V30 16322 H 1554.2 2.89948 -2.98166 0
M  V30 16323 H 1552.78 3.51132 -1.25541 0
M  V30 16324 N 1554.96 1.12442 1.10429 0
M  V30 16325 C 1555.89 0.750131 2.16577 0
M  V30 16326 C 1556.91 -0.223265 1.61262 0
M  V30 16327 O 1558.1 -0.00459454 1.78499 0
M  V30 16328 C 1555.2 0.0895474 3.38782 0
M  V30 16329 C 1554.37 1.09242 4.23539 0
M  V30 16330 C 1553.43 0.45945 5.2419 0
M  V30 16331 O 1552.45 1.11646 5.58143 0
M  V30 16332 N 1553.66 -0.773093 5.75329 0
M  V30 16333 H 1556.42 1.66349 2.49295 0
M  V30 16334 H 1553.98 1.01603 1.26049 0
M  V30 16335 H 1555.97 -0.345895 4.03219 0
M  V30 16336 H 1554.54 -0.726572 3.04039 0
M  V30 16337 H 1553.76 1.70549 3.55396 0
M  V30 16338 H 1555.05 1.77057 4.76999 0
M  V30 16339 H 1554.45 -1.32585 5.49943 0
M  V30 16340 H 1553.01 -1.15135 6.41551 0
M  V30 16341 N 1556.44 -1.28223 0.91633 0
M  V30 16342 C 1557.37 -2.29623 0.423735 0
M  V30 16343 C 1558.35 -1.62274 -0.510016 0
M  V30 16344 O 1559.54 -1.89666 -0.4172 0
M  V30 16345 C 1556.67 -3.45684 -0.334686 0
M  V30 16346 C 1555.62 -4.24949 0.510169 0
M  V30 16347 C 1554.95 -5.33371 -0.376745 0
M  V30 16348 C 1556.25 -4.91438 1.76877 0
M  V30 16349 H 1557.94 -2.71076 1.27115 0
M  V30 16350 H 1555.49 -1.30316 0.612678 0
M  V30 16351 H 1557.44 -4.1571 -0.690154 0
M  V30 16352 H 1556.16 -3.03118 -1.21603 0
M  V30 16353 H 1554.82 -3.56653 0.848191 0
M  V30 16354 H 1554.47 -4.87048 -1.25671 0
M  V30 16355 H 1554.17 -5.87309 0.18496 0
M  V30 16356 H 1555.69 -6.06244 -0.728039 0
M  V30 16357 H 1557.11 -5.53812 1.48205 0
M  V30 16358 H 1555.5 -5.55384 2.27308 0
M  V30 16359 H 1556.57 -4.15783 2.49505 0
M  V30 16360 N 1557.92 -0.68059 -1.42147 0
M  V30 16361 C 1558.85 0.0331442 -2.29176 0
M  V30 16362 C 1559.86 0.759652 -1.4399 0
M  V30 16363 O 1561.05 0.612846 -1.6765 0
M  V30 16364 C 1558.15 1.07077 -3.2154 0
M  V30 16365 C 1557.32 0.416914 -4.35409 0
M  V30 16366 C 1556.38 1.3551 -5.08452 0
M  V30 16367 O 1555.41 0.853198 -5.62769 0
M  V30 16368 N 1556.61 2.68815 -5.14508 0
M  V30 16369 H 1559.38 -0.713963 -2.91072 0
M  V30 16370 H 1556.94 -0.525451 -1.53136 0
M  V30 16371 H 1558.93 1.6998 -3.67272 0
M  V30 16372 H 1557.5 1.71955 -2.61056 0
M  V30 16373 H 1556.72 -0.391734 -3.92249 0
M  V30 16374 H 1558.01 -0.0383564 -5.08786 0
M  V30 16375 H 1557.41 3.12125 -4.71799 0
M  V30 16376 H 1555.96 3.26951 -5.63867 0
M  V30 16377 N 1559.4 1.51781 -0.424309 0
M  V30 16378 C 1560.64 2.01969 0.146492 0
M  V30 16379 C 1560.97 1.30918 1.43843 0
M  V30 16380 O 1560.23 0.408705 1.91385 0
M  V30 16381 C 1560.52 3.54855 0.42574 0
M  V30 16382 C 1560.19 4.44123 -0.778814 0
M  V30 16383 C 1558.85 4.68242 -1.10918 0
M  V30 16384 C 1561.2 4.96579 -1.58299 0
M  V30 16385 C 1558.53 5.42063 -2.24464 0
M  V30 16386 C 1560.88 5.71645 -2.70934 0
M  V30 16387 C 1559.55 5.94031 -3.04439 0
M  V30 16388 H 1558.82 0.739059 0.0536052 0
M  V30 16389 H 1561.47 1.82856 -0.568838 0
M  V30 16390 H 1559.77 3.72229 1.22282 0
M  V30 16391 H 1561.47 3.91212 0.880598 0
M  V30 16392 H 1558.06 4.25539 -0.511363 0
M  V30 16393 H 1562.24 4.77841 -1.34098 0
M  V30 16394 H 1557.5 5.57614 -2.50753 0
M  V30 16395 H 1561.67 6.11284 -3.33624 0
M  V30 16396 H 1559.3 6.51014 -3.92537 0
M  V30 16397 N 1560.87 0.155222 1.56834 0
M  V30 16398 C 1562.12 -0.493831 1.95561 0
M  V30 16399 C 1562.44 -1.65468 1.04305 0
M  V30 16400 O 1563.64 -2.36891 1.32646 0
M  V30 16401 C 1562.1 -0.929923 3.47679 0
M  V30 16402 C 1561.71 0.204447 4.47533 0
M  V30 16403 C 1563.45 -1.5483 3.95257 0
M  V30 16404 C 1561.36 -0.250375 5.9087 0
M  V30 16405 H 1560.29 -0.188258 0.73012 0
M  V30 16406 H 1562.94 0.240883 1.81912 0
M  V30 16407 H 1561.32 -1.72014 3.56689 0
M  V30 16408 H 1562.49 0.981535 4.50225 0
M  V30 16409 H 1560.81 0.731756 4.0992 0
M  V30 16410 H 1563.41 -1.90036 4.9979 0
M  V30 16411 H 1563.75 -2.44031 3.37275 0
M  V30 16412 H 1564.28 -0.822828 3.89197 0
M  V30 16413 H 1561.02 0.606461 6.52689 0
M  V30 16414 H 1560.54 -0.993164 5.9152 0
M  V30 16415 H 1562.22 -0.699645 6.43206 0
M  V30 16416 N 1562.35 -1.57153 -0.118549 0
M  V30 16417 C 1563.59 -1.86694 -0.832141 0
M  V30 16418 C 1563.96 -0.743267 -1.7703 0
M  V30 16419 O 1565.16 -0.920457 -2.52549 0
M  V30 16420 C 1563.43 -3.21463 -1.56194 0
M  V30 16421 S 1564.99 -3.72637 -2.31704 0
M  V30 16422 H 1561.8 -0.654516 -0.277723 0
M  V30 16423 H 1564.41 -1.95291 -0.0904692 0
M  V30 16424 H 1563.11 -4.01187 -0.864718 0
M  V30 16425 H 1562.64 -3.15945 -2.34398 0
M  V30 16426 H 1564.66 -3.44175 -3.57433 0
M  V30 16427 N 1563.83 0.388742 -1.5273 0
M  V30 16428 C 1565.06 1.15328 -1.71415 0
M  V30 16429 C 1565.47 1.84193 -0.432366 0
M  V30 16430 O 1564.81 1.73522 0.602977 0
M  V30 16431 C 1564.87 2.24436 -2.80836 0
M  V30 16432 C 1564.54 1.75535 -4.21944 0
M  V30 16433 C 1565.53 1.23196 -5.05093 0
M  V30 16434 C 1563.22 1.8175 -4.68265 0
M  V30 16435 C 1565.21 0.777194 -6.32644 0
M  V30 16436 C 1562.9 1.35885 -5.95801 0
M  V30 16437 C 1563.9 0.839573 -6.7782 0
M  V30 16438 O 1563.59 0.387619 -8.02965 0
M  V30 16439 H 1563.32 0.351742 -0.577281 0
M  V30 16440 H 1565.87 0.460735 -2.00166 0
M  V30 16441 H 1564.1 2.97115 -2.47506 0
M  V30 16442 H 1565.79 2.86106 -2.87921 0
M  V30 16443 H 1566.56 1.17751 -4.70489 0
M  V30 16444 H 1562.44 2.21111 -4.04513 0
M  V30 16445 H 1565.98 0.371199 -6.96612 0
M  V30 16446 H 1561.88 1.41016 -6.29909 0
M  V30 16447 H 1562.64 0.509073 -8.16915 0
M  V30 16448 N 1565.31 1.43698 0.647203 0
M  V30 16449 C 1566.54 1.48869 1.43254 0
M  V30 16450 C 1566.95 0.107061 1.88897 0
M  V30 16451 O 1566.29 -0.894189 1.60468 0
M  V30 16452 C 1566.35 2.37755 2.69653 0
M  V30 16453 C 1566.01 3.85197 2.45911 0
M  V30 16454 C 1567.01 4.7615 2.08752 0
M  V30 16455 C 1564.7 4.29744 2.60049 0
M  V30 16456 C 1566.69 6.09647 1.86037 0
M  V30 16457 C 1564.38 5.63293 2.36949 0
M  V30 16458 C 1565.38 6.53061 1.99999 0
M  V30 16459 O 1565.06 7.8414 1.77144 0
M  V30 16460 H 1564.8 0.507694 0.446343 0
M  V30 16461 H 1567.35 1.89172 0.800205 0
M  V30 16462 H 1565.58 1.9235 3.35467 0
M  V30 16463 H 1567.27 2.3406 3.31618 0
M  V30 16464 H 1568.03 4.4301 1.974 0
M  V30 16465 H 1563.91 3.60142 2.87782 0
M  V30 16466 H 1567.46 6.79676 1.57121 0
M  V30 16467 H 1563.35 5.95998 2.47905 0
M  V30 16468 H 1564.12 7.95778 1.91521 0
M  V30 16469 N 1566.79 -0.886131 1.30328 0
M  V30 16470 C 1568.01 -1.67099 1.22007 0
M  V30 16471 C 1568.43 -1.87546 -0.217255 0
M  V30 16472 O 1567.79 -1.42213 -1.14375 0
M  V30 16473 C 1567.84 -3.048 1.94368 0
M  V30 16474 O 1567.56 -2.85277 3.32489 0
M  V30 16475 C 1569.06 -3.99231 1.9269 0
M  V30 16476 H 1566.28 -0.521467 0.422271 0
M  V30 16477 H 1568.82 -1.1072 1.71934 0
M  V30 16478 H 1566.98 -3.57915 1.48242 0
M  V30 16479 H 1567.39 -3.72626 3.69121 0
M  V30 16480 H 1568.87 -4.93223 2.47861 0
M  V30 16481 H 1569.34 -4.29763 0.905558 0
M  V30 16482 H 1569.95 -3.52051 2.38621 0
M  V30 16483 N 1568.26 -1.13026 -1.09832 0
M  V30 16484 C 1569.68 -0.902826 -1.6342 0
M  V30 16485 C 1570.03 0.561547 -1.87992 0
M  V30 16486 O 1569.15 1.42735 -1.62652 0
M  V30 16487 C 1569.75 -1.6324 -2.96881 0
M  V30 16488 C 1568.31 -1.45095 -3.4731 0
M  V30 16489 C 1567.45 -1.66431 -2.21802 0
M  V30 16490 H 1570.4 -1.28414 -0.932492 0
M  V30 16491 H 1570.42 -1.08706 -3.64641 0
M  V30 16492 H 1569.94 -2.69816 -2.78964 0
M  V30 16493 H 1568.04 -0.408031 -3.70359 0
M  V30 16494 H 1568.15 -2.21123 -4.25019 0
M  V30 16495 H 1566.51 -1.08885 -2.30252 0
M  V30 16496 H 1567.3 -2.74317 -2.0641 0
M  V30 16497 N 1569.74 1.27735 -0.923117 0
M  V30 16498 C 1570.99 1.93857 -0.556994 0
M  V30 16499 C 1571.3 1.73386 0.905346 0
M  V30 16500 O 1572.51 2.3381 1.38005 0
M  V30 16501 C 1570.97 3.47263 -0.94534 0
M  V30 16502 C 1570.57 3.76497 -2.42805 0
M  V30 16503 C 1572.32 4.1949 -0.65025 0
M  V30 16504 C 1570.23 5.23256 -2.75603 0
M  V30 16505 H 1569.16 0.725712 -0.204591 0
M  V30 16506 H 1571.81 1.451 -1.12331 0
M  V30 16507 H 1570.19 3.94803 -0.307721 0
M  V30 16508 H 1571.36 3.39731 -3.11319 0
M  V30 16509 H 1569.68 3.17463 -2.69456 0
M  V30 16510 H 1572.27 5.27544 -0.871851 0
M  V30 16511 H 1572.62 4.14253 0.412352 0
M  V30 16512 H 1573.15 3.77758 -1.24676 0
M  V30 16513 H 1569.89 5.33579 -3.80754 0
M  V30 16514 H 1569.41 5.61185 -2.11735 0
M  V30 16515 H 1571.09 5.91088 -2.63103 0
M  V30 16516 N 1571.22 0.688118 1.41784 0
M  V30 16517 C 1572.47 0.215517 2.00948 0
M  V30 16518 C 1572.79 -1.18656 1.54744 0
M  V30 16519 O 1572.06 -1.79925 0.774831 0
M  V30 16520 H 1570.64 0.0766876 0.743053 0
M  V30 16521 H 1573.3 0.88761 1.73515 0
M  V30 16522 H 1572.4 0.227139 3.11272 0
M  V30 16523 N 1572.7 -1.51554 0.432352 0
M  V30 16524 C 1573.92 -2.06947 -0.136995 0
M  V30 16525 C 1574.35 -1.29817 -1.36122 0
M  V30 16526 O 1573.71 -0.334733 -1.78183 0
M  V30 16527 C 1573.75 -3.57871 -0.442785 0
M  V30 16528 O 1572.86 -3.82966 -1.53007 0
M  V30 16529 H 1572.2 -0.663988 -0.00405152 0
M  V30 16530 H 1574.73 -1.95225 0.612249 0
M  V30 16531 H 1574.74 -4.02042 -0.694694 0
M  V30 16532 H 1573.41 -4.13436 0.452013 0
M  V30 16533 H 1571.99 -3.50661 -1.26851 0
M  V30 16534 N 1574.18 -0.163538 -1.56749 0
M  V30 16535 C 1575.42 0.482449 -1.96257 0
M  V30 16536 C 1575.75 1.64302 -1.05023 0
M  V30 16537 O 1575.02 1.95562 -0.115027 0
M  V30 16538 H 1573.6 0.181222 -0.724684 0
M  V30 16539 H 1576.26 -0.242903 -1.9338 0
M  V30 16540 H 1575.35 0.847634 -3.00369 0
M  V30 16541 N 1575.65 1.57214 0.110213 0
M  V30 16542 C 1576.6 2.01971 1.1537 0
M  V30 16543 C 1577.6 0.918137 1.42361 0
M  V30 16544 O 1578.8 1.10334 1.4222 0
M  V30 16545 H 1575.18 0.64345 0.3892 0
M  V30 16546 H 1577.15 2.88827 0.749781 0
M  V30 16547 C 1575.9 2.4473 2.46987 0
M  V30 16548 H 1575.22 3.29066 2.27059 0
M  V30 16549 H 1576.66 2.79836 3.1854 0
M  V30 16550 C 1575.12 1.31445 3.10199 0
M  V30 16551 O 1575.65 0.635251 3.96645 0
M  V30 16552 N 1573.86 1.06927 2.70213 0
M  V30 16553 H 1573.4 1.62339 2.0001 0
M  V30 16554 H 1573.36 0.313273 3.12835 0
M  V30 16555 N 1577.13 -0.380637 1.52934 0
M  V30 16556 C 1578.06 -1.47174 1.81279 0
M  V30 16557 C 1579.04 -1.56549 0.665319 0
M  V30 16558 O 1580.23 -1.71362 0.913722 0
M  V30 16559 C 1577.36 -2.84691 1.98918 0
M  V30 16560 C 1576.31 -2.90151 3.14637 0
M  V30 16561 C 1575.64 -4.30198 3.17544 0
M  V30 16562 C 1576.94 -2.59037 4.53539 0
M  V30 16563 H 1578.63 -1.23703 2.7265 0
M  V30 16564 H 1576.18 -0.593654 1.31194 0
M  V30 16565 H 1578.13 -3.61034 2.1733 0
M  V30 16566 H 1576.86 -3.09517 1.04244 0
M  V30 16567 H 1575.51 -2.16257 2.96021 0
M  V30 16568 H 1575.16 -4.52076 2.20536 0
M  V30 16569 H 1574.86 -4.3477 3.95284 0
M  V30 16570 H 1576.39 -5.08435 3.38121 0
M  V30 16571 H 1577.8 -3.25096 4.72214 0
M  V30 16572 H 1576.2 -2.74946 5.33408 0
M  V30 16573 H 1577.27 -1.54342 4.59681 0
M  V30 16574 N 1578.61 -1.44039 -0.639573 0
M  V30 16575 C 1579.86 -1.4566 -1.39521 0
M  V30 16576 C 1580.17 -0.0897878 -1.95394 0
M  V30 16577 O 1581.38 0.0165074 -2.71495 0
M  V30 16578 C 1579.83 -2.56395 -2.52566 0
M  V30 16579 C 1579.44 -3.99245 -2.03243 0
M  V30 16580 C 1581.19 -2.67226 -3.29834 0
M  V30 16581 C 1579.09 -5.01419 -3.1358 0
M  V30 16582 H 1578.02 -0.541894 -0.524277 0
M  V30 16583 H 1580.67 -1.70076 -0.688941 0
M  V30 16584 H 1579.06 -2.25204 -3.25729 0
M  V30 16585 H 1580.23 -4.39963 -1.37002 0
M  V30 16586 H 1578.55 -3.9258 -1.38816 0
M  V30 16587 H 1581.14 -3.40736 -4.12072 0
M  V30 16588 H 1581.49 -1.72756 -3.78763 0
M  V30 16589 H 1582.02 -2.97786 -2.63758 0
M  V30 16590 H 1578.76 -5.97489 -2.69605 0
M  V30 16591 H 1578.28 -4.65301 -3.7849 0
M  V30 16592 H 1579.96 -5.2474 -3.78493 0
M  V30 16593 N 1580.09 0.879207 -1.30796 0
M  V30 16594 C 1581.5 1.44705 -1.17972 0
M  V30 16595 C 1581.85 1.94992 0.217381 0
M  V30 16596 O 1580.98 1.85494 1.11449 0
M  V30 16597 C 1581.57 2.6302 -2.13555 0
M  V30 16598 C 1580.13 3.15877 -2.04692 0
M  V30 16599 C 1579.28 1.88576 -2.03309 0
M  V30 16600 H 1582.23 0.688604 -1.42982 0
M  V30 16601 H 1582.25 3.39418 -1.71976 0
M  V30 16602 H 1581.76 2.2639 -3.15229 0
M  V30 16603 H 1579.86 3.57151 -1.0618 0
M  V30 16604 H 1579.97 3.78786 -2.93357 0
M  V30 16605 H 1578.34 2.0715 -1.48192 0
M  V30 16606 H 1579.12 1.54195 -3.06723 0
M  V30 16607 N 1581.57 1.13606 1.09231 0
M  V30 16608 C 1582.79 0.922667 1.85746 0
M  V30 16609 C 1583.22 -0.523381 1.80672 0
M  V30 16610 O 1582.58 -1.37156 1.18566 0
M  V30 16611 C 1582.62 1.41762 3.31566 0
M  V30 16612 O 1581.73 0.60418 4.0795 0
M  V30 16613 H 1581.07 0.330523 0.575891 0
M  V30 16614 H 1583.6 1.51123 1.37924 0
M  V30 16615 H 1583.61 1.42212 3.82413 0
M  V30 16616 H 1582.28 2.47048 3.34574 0
M  V30 16617 H 1580.86 0.667721 3.66873 0
M  V30 16618 N 1583.05 -1.27244 0.929878 0
M  V30 16619 C 1584.29 -1.94269 0.57146 0
M  V30 16620 C 1584.62 -1.73064 -0.887639 0
M  V30 16621 O 1583.88 -1.05422 -1.64878 0
M  V30 16622 C 1584.17 -3.47233 0.846386 0
M  V30 16623 C 1583.84 -3.88563 2.28757 0
M  V30 16624 C 1582.5 -3.99557 2.68156 0
M  V30 16625 C 1584.85 -4.09468 3.22467 0
M  V30 16626 C 1582.18 -4.28846 4.00385 0
M  V30 16627 C 1584.53 -4.40242 4.54279 0
M  V30 16628 C 1583.2 -4.4945 4.93509 0
M  V30 16629 H 1582.47 -0.710882 0.209112 0
M  V30 16630 H 1585.12 -1.51273 1.17425 0
M  V30 16631 H 1583.42 -3.91469 0.160941 0
M  V30 16632 H 1585.12 -3.97238 0.548006 0
M  V30 16633 H 1581.71 -3.80544 1.97192 0
M  V30 16634 H 1585.89 -4.00412 2.9323 0
M  V30 16635 H 1581.15 -4.34184 4.30458 0
M  V30 16636 H 1585.32 -4.55365 5.26892 0
M  V30 16637 H 1582.95 -4.71899 5.95999 0
M  V30 16638 N 1584.52 -0.695628 -1.41417 0
M  V30 16639 C 1585.77 -0.226171 -2.0083 0
M  V30 16640 C 1586.09 1.17833 -1.55371 0
M  V30 16641 O 1585.36 1.79512 -0.784362 0
M  V30 16642 H 1583.94 -0.0806271 -0.742636 0
M  V30 16643 H 1586.6 -0.8968 -1.73042 0
M  V30 16644 H 1585.7 -0.243643 -3.11148 0
M  V30 16645 N 1586 1.51322 -0.440383 0
M  V30 16646 C 1587.25 2.01714 0.124815 0
M  V30 16647 C 1587.57 1.32634 1.42945 0
M  V30 16648 O 1586.84 0.461849 1.90378 0
M  V30 16649 H 1585.42 0.745384 0.049116 0
M  V30 16650 H 1588.08 1.85951 -0.583787 0
M  V30 16651 H 1587.18 3.10669 0.29853 0
M  V30 16652 N 1587.48 0.171848 1.5666 0
M  V30 16653 C 1588.7 -0.482396 2.01712 0
M  V30 16654 C 1589.13 -1.5598 1.05128 0
M  V30 16655 O 1588.49 -1.81274 0.0309178 0
M  V30 16656 C 1588.54 -1.03716 3.45363 0
M  V30 16657 O 1587.64 -2.15114 3.51852 0
M  V30 16658 H 1586.98 -0.115439 0.653888 0
M  V30 16659 H 1589.51 0.275895 2.02731 0
M  V30 16660 H 1589.52 -1.35964 3.84679 0
M  V30 16661 H 1588.2 -0.24832 4.15158 0
M  V30 16662 H 1586.77 -1.83907 3.24396 0
M  V30 16663 N 1588.96 -1.5727 -0.101874 0
M  V30 16664 C 1590.21 -1.85375 -0.805007 0
M  V30 16665 C 1590.53 -0.759564 -1.79599 0
M  V30 16666 O 1589.8 0.21484 -1.94718 0
M  V30 16667 H 1588.38 -0.683987 -0.300284 0
M  V30 16668 H 1591.04 -1.94714 -0.0851166 0
M  V30 16669 H 1590.13 -2.81881 -1.33976 0
M  V30 16670 N 1590.44 0.372521 -1.53134 0
M  V30 16671 C 1591.71 1.13113 -1.59577 0
M  V30 16672 C 1592.09 2.07294 -0.399027 0
M  V30 16673 O 1591.44 2.20171 0.611316 0
M  V30 16674 C 1591.65 1.87635 -2.94269 0
M  V30 16675 C 1593 2.42414 -3.48598 0
M  V30 16676 O 1594.02 1.9777 -2.96252 0
M  V30 16677 O 1592.88 3.24008 -4.40092 0
M  V30 16678 H 1589.98 0.518486 -0.644284 0
M  V30 16679 H 1592.52 0.376344 -1.65474 0
M  V30 16680 H 1591.29 1.18859 -3.72811 0
M  V30 16681 H 1590.92 2.70037 -2.91831 0
M  V30 16682 N 1591.91 1.44376 0.631925 0
M  V30 16683 C 1592.82 1.5367 1.77264 0
M  V30 16684 C 1593.84 0.422425 1.68794 0
M  V30 16685 O 1595.02 0.679656 1.89585 0
M  V30 16686 C 1592.08 1.47743 3.13644 0
M  V30 16687 C 1591.14 2.70015 3.33752 0
M  V30 16688 C 1590.37 2.64362 4.63626 0
M  V30 16689 O 1590.6 1.7032 5.44378 0
M  V30 16690 O 1589.53 3.55201 4.85918 0
M  V30 16691 H 1593.36 2.5004 1.72376 0
M  V30 16692 H 1590.94 1.26614 0.793052 0
M  V30 16693 H 1592.82 1.46958 3.94945 0
M  V30 16694 H 1591.5 0.545165 3.19076 0
M  V30 16695 H 1590.41 2.76369 2.52133 0
M  V30 16696 H 1591.74 3.62286 3.33181 0
M  V30 16697 N 1593.39 -0.872258 1.31261 0
M  V30 16698 C 1594.34 -1.96688 1.15317 0
M  V30 16699 C 1595.33 -1.60769 0.0647922 0
M  V30 16700 O 1596.52 -1.74617 0.289469 0
M  V30 16701 C 1593.65 -3.32347 0.860242 0
M  V30 16702 C 1592.73 -3.7454 1.98948 0
M  V30 16703 N 1593.12 -3.88715 3.23627 0
M  V30 16704 C 1591.42 -4.04035 1.88871 0
M  V30 16705 C 1592.12 -4.24718 3.97478 0
M  V30 16706 N 1591.1 -4.35278 3.25629 0
M  V30 16707 H 1594.9 -2.05755 2.09862 0
M  V30 16708 H 1592.41 -1.0629 1.22785 0
M  V30 16709 H 1594.41 -4.10512 0.727004 0
M  V30 16710 H 1593.07 -3.24609 -0.0770132 0
M  V30 16711 H 1594.08 -3.73504 3.58769 0
M  V30 16712 H 1590.76 -4.04698 1.02595 0
M  V30 16713 H 1592.15 -4.43302 5.04909 0
M  V30 16714 N 1594.87 -1.14184 -1.08627 0
M  V30 16715 C 1596.1 -0.930752 -1.84447 0
M  V30 16716 C 1596.51 0.524072 -1.81797 0
M  V30 16717 O 1595.85 1.37483 -1.21836 0
M  V30 16718 C 1595.91 -1.35125 -3.33139 0
M  V30 16719 C 1595.58 -2.82117 -3.59526 0
M  V30 16720 C 1596.57 -3.80242 -3.54559 0
M  V30 16721 C 1594.26 -3.19475 -3.87609 0
M  V30 16722 C 1596.25 -5.13734 -3.77301 0
M  V30 16723 C 1593.94 -4.53144 -4.10005 0
M  V30 16724 C 1594.94 -5.50082 -4.04844 0
M  V30 16725 O 1594.63 -6.81339 -4.26653 0
M  V30 16726 H 1594.36 -0.331385 -0.589203 0
M  V30 16727 H 1596.91 -1.52033 -1.38113 0
M  V30 16728 H 1595.14 -0.704995 -3.80219 0
M  V30 16729 H 1596.83 -1.11133 -3.9039 0
M  V30 16730 H 1597.6 -3.52726 -3.32881 0
M  V30 16731 H 1593.48 -2.44617 -3.90747 0
M  V30 16732 H 1597.02 -5.89386 -3.73188 0
M  V30 16733 H 1592.92 -4.80381 -4.31166 0
M  V30 16734 H 1593.68 -6.87563 -4.44071 0
M  V30 16735 N 1596.35 1.26749 -0.936613 0
M  V30 16736 C 1597.28 2.2892 -0.460213 0
M  V30 16737 C 1598.26 1.63065 0.484135 0
M  V30 16738 O 1599.44 1.90305 0.386973 0
M  V30 16739 C 1596.57 3.46172 0.279648 0
M  V30 16740 C 1595.53 4.24083 -0.57771 0
M  V30 16741 C 1594.85 5.33903 0.291843 0
M  V30 16742 C 1596.15 4.88562 -1.84673 0
M  V30 16743 H 1597.85 2.69019 -1.31412 0
M  V30 16744 H 1595.39 1.29325 -0.633333 0
M  V30 16745 H 1597.35 4.16755 0.623931 0
M  V30 16746 H 1596.07 3.05014 1.16765 0
M  V30 16747 H 1594.73 3.55258 -0.904824 0
M  V30 16748 H 1594.38 4.88986 1.17906 0
M  V30 16749 H 1594.08 5.8694 -0.278372 0
M  V30 16750 H 1595.6 6.07326 0.631498 0
M  V30 16751 H 1597.02 5.51384 -1.56997 0
M  V30 16752 H 1595.41 5.51697 -2.36115 0
M  V30 16753 H 1596.48 4.11761 -2.56088 0
M  V30 16754 N 1597.83 0.703118 1.41046 0
M  V30 16755 C 1598.76 0.00331992 2.292 0
M  V30 16756 C 1599.77 -0.736648 1.4518 0
M  V30 16757 O 1600.96 -0.586097 1.68604 0
M  V30 16758 C 1598.06 -1.01948 3.23203 0
M  V30 16759 C 1597.23 -0.347591 4.36017 0
M  V30 16760 C 1596.29 -1.27404 5.10543 0
M  V30 16761 O 1595.32 -0.763558 5.64055 0
M  V30 16762 N 1596.52 -2.60596 5.1872 0
M  V30 16763 H 1599.29 0.760179 2.89899 0
M  V30 16764 H 1596.85 0.549747 1.52281 0
M  V30 16765 H 1598.84 -1.64115 3.6993 0
M  V30 16766 H 1597.41 -1.6778 2.63758 0
M  V30 16767 H 1596.63 0.454088 3.91576 0
M  V30 16768 H 1597.92 0.119295 5.0866 0
M  V30 16769 H 1597.31 -3.0458 4.76705 0
M  V30 16770 H 1595.87 -3.17939 5.68998 0
M  V30 16771 N 1599.3 -1.51086 0.448402 0
M  V30 16772 C 1600.23 -2.30896 -0.347773 0
M  V30 16773 C 1601.22 -1.36792 -1.01104 0
M  V30 16774 O 1602.4 -1.65713 -1.01257 0
M  V30 16775 C 1599.53 -3.15901 -1.44304 0
M  V30 16776 C 1598.48 -4.18373 -0.90265 0
M  V30 16777 C 1597.81 -4.9197 -2.0945 0
M  V30 16778 C 1599.11 -5.22252 0.0705335 0
M  V30 16779 H 1600.8 -2.97704 0.318273 0
M  V30 16780 H 1598.35 -1.43169 0.154509 0
M  V30 16781 H 1600.3 -3.70519 -2.00733 0
M  V30 16782 H 1599.03 -2.46935 -2.13753 0
M  V30 16783 H 1597.69 -3.64823 -0.3605 0
M  V30 16784 H 1597.33 -4.19497 -2.77545 0
M  V30 16785 H 1597.03 -5.6127 -1.73926 0
M  V30 16786 H 1598.56 -5.49415 -2.66412 0
M  V30 16787 H 1599.97 -5.71876 -0.403814 0
M  V30 16788 H 1598.37 -5.99142 0.338905 0
M  V30 16789 H 1599.44 -4.74398 1.00373 0
M  V30 16790 N 1600.78 -0.180154 -1.56567 0
M  V30 16791 C 1601.69 0.758959 -2.21984 0
M  V30 16792 C 1602.71 1.24631 -1.21422 0
M  V30 16793 O 1603.88 1.29659 -1.54112 0
M  V30 16794 C 1600.95 1.96744 -2.85469 0
M  V30 16795 C 1600.01 1.52612 -4.01258 0
M  V30 16796 C 1599.24 2.677 -4.61706 0
M  V30 16797 O 1599.47 3.84799 -4.21054 0
M  V30 16798 O 1598.4 2.41269 -5.51428 0
M  V30 16799 H 1602.23 0.231919 -3.02813 0
M  V30 16800 H 1599.81 0.0484552 -1.49321 0
M  V30 16801 H 1601.69 2.67404 -3.25689 0
M  V30 16802 H 1600.37 2.48337 -2.0763 0
M  V30 16803 H 1599.28 0.78877 -3.6569 0
M  V30 16804 H 1600.61 1.05701 -4.80716 0
M  V30 16805 N 1602.26 1.57322 0.0935319 0
M  V30 16806 C 1603.51 1.86167 0.796739 0
M  V30 16807 C 1603.84 0.768893 1.78657 0
M  V30 16808 O 1603.09 -0.237358 1.94255 0
M  V30 16809 C 1603.39 3.21605 1.55901 0
M  V30 16810 C 1603.06 4.45256 0.711165 0
M  V30 16811 C 1601.72 4.78826 0.477442 0
M  V30 16812 C 1604.07 5.21058 0.121859 0
M  V30 16813 C 1601.4 5.85622 -0.355425 0
M  V30 16814 C 1603.75 6.28734 -0.69834 0
M  V30 16815 C 1602.41 6.60818 -0.94214 0
M  V30 16816 H 1601.68 0.681235 0.291547 0
M  V30 16817 H 1604.33 1.91412 0.0581736 0
M  V30 16818 H 1602.64 3.12052 2.36919 0
M  V30 16819 H 1604.33 3.41151 2.10753 0
M  V30 16820 H 1600.92 4.1897 0.903444 0
M  V30 16821 H 1605.11 4.95454 0.289588 0
M  V30 16822 H 1600.36 6.08891 -0.553277 0
M  V30 16823 H 1604.54 6.8664 -1.16183 0
M  V30 16824 H 1602.16 7.43401 -1.5893 0
M  V30 16825 N 1603.74 -0.364395 1.53329 0
M  V30 16826 C 1604.69 -1.44645 1.79851 0
M  V30 16827 C 1605.66 -1.53151 0.642951 0
M  V30 16828 O 1606.84 -1.6902 0.885252 0
M  V30 16829 C 1603.98 -2.81575 1.99523 0
M  V30 16830 C 1603.09 -2.82026 3.27239 0
M  V30 16831 C 1602.23 -4.1054 3.37091 0
M  V30 16832 C 1601.27 -4.05138 4.58835 0
M  V30 16833 N 1600.4 -5.25303 4.65834 0
M  V30 16834 H 1605.24 -1.21329 2.72182 0
M  V30 16835 H 1602.78 -0.588143 1.34831 0
M  V30 16836 H 1604.74 -3.61124 2.08915 0
M  V30 16837 H 1603.37 -3.03288 1.10527 0
M  V30 16838 H 1602.42 -1.94704 3.26794 0
M  V30 16839 H 1603.73 -2.73907 4.16865 0
M  V30 16840 H 1602.89 -4.98504 3.45801 0
M  V30 16841 H 1601.63 -4.21413 2.45483 0
M  V30 16842 H 1600.63 -3.1556 4.50224 0
M  V30 16843 H 1601.86 -3.95866 5.51785 0
M  V30 16844 H 1599.8 -5.36759 3.77128 0
M  V30 16845 H 1599.72 -5.19358 5.49367 0
M  V30 16846 H 1600.99 -6.15096 4.78829 0
M  V30 16847 N 1605.22 -1.44709 -0.62426 0
M  V30 16848 C 1606.49 -1.38328 -1.38292 0
M  V30 16849 C 1606.87 -0.0454388 -2.11051 0
M  V30 16850 O 1606.22 0.972183 -2.06787 0
M  V30 16851 C 1606.43 -2.58602 -2.34364 0
M  V30 16852 C 1607.78 -3.02966 -2.97484 0
M  V30 16853 O 1608.8 -2.58856 -2.44688 0
M  V30 16854 O 1607.66 -3.79466 -3.93278 0
M  V30 16855 H 1604.76 -0.54812 -0.619269 0
M  V30 16856 H 1607.3 -1.5681 -0.648741 0
M  V30 16857 H 1606.07 -3.47573 -1.79746 0
M  V30 16858 H 1605.7 -2.42368 -3.15188 0
M  V30 16859 N 1606.69 0.865285 -1.31722 0
M  V30 16860 C 1607.94 1.62108 -1.21855 0
M  V30 16861 C 1608.27 1.9293 0.221714 0
M  V30 16862 O 1607.55 1.56423 1.15595 0
M  V30 16863 C 1607.83 2.94828 -2.06756 0
M  V30 16864 C 1607.68 2.70855 -3.59107 0
M  V30 16865 C 1609 3.95983 -1.92055 0
M  V30 16866 H 1606.12 0.588234 -0.444015 0
M  V30 16867 H 1608.76 0.999922 -1.6156 0
M  V30 16868 H 1606.91 3.47843 -1.73025 0
M  V30 16869 H 1608.59 2.24477 -4.02999 0
M  V30 16870 H 1606.83 2.05004 -3.82303 0
M  V30 16871 H 1607.5 3.65312 -4.13825 0
M  V30 16872 H 1609.98 3.52193 -2.21584 0
M  V30 16873 H 1608.85 4.86724 -2.53754 0
M  V30 16874 H 1609.11 4.33148 -0.885174 0
M  V30 16875 N 1608.17 1.14759 1.0802 0
M  V30 16876 C 1609.12 0.838134 2.15044 0
M  V30 16877 C 1610.09 -0.206031 1.64817 0
M  V30 16878 O 1611.27 -0.0750812 1.90652 0
M  V30 16879 C 1608.41 0.326112 3.43556 0
M  V30 16880 C 1607.53 1.43104 4.07609 0
M  V30 16881 C 1606.66 0.875857 5.2393 0
M  V30 16882 C 1605.7 1.9582 5.79932 0
M  V30 16883 N 1604.84 1.41989 6.87593 0
M  V30 16884 H 1609.68 1.75478 2.40856 0
M  V30 16885 H 1607.22 0.875686 1.18195 0
M  V30 16886 H 1609.17 0.0110103 4.17199 0
M  V30 16887 H 1607.8 -0.55363 3.18017 0
M  V30 16888 H 1606.86 1.86247 3.31687 0
M  V30 16889 H 1608.17 2.24849 4.45246 0
M  V30 16890 H 1607.32 0.512893 6.04528 0
M  V30 16891 H 1606.06 0.0275017 4.87692 0
M  V30 16892 H 1605.07 2.33006 4.97984 0
M  V30 16893 H 1606.29 2.81021 6.18227 0
M  V30 16894 H 1604.24 0.593779 6.53307 0
M  V30 16895 H 1604.15 2.17367 7.24077 0
M  V30 16896 H 1605.42 1.08495 7.71913 0
M  V30 16897 N 1609.65 -1.26251 0.943322 0
M  V30 16898 C 1610.58 -2.28673 0.472347 0
M  V30 16899 C 1611.56 -1.63319 -0.475481 0
M  V30 16900 O 1612.75 -1.90508 -0.376875 0
M  V30 16901 C 1609.88 -3.46316 -0.261286 0
M  V30 16902 C 1608.83 -4.23771 0.600192 0
M  V30 16903 C 1608.16 -5.3405 -0.263525 0
M  V30 16904 C 1609.46 -4.87576 1.87262 0
M  V30 16905 H 1611.15 -2.68319 1.32836 0
M  V30 16906 H 1608.7 -1.28987 0.640182 0
M  V30 16907 H 1610.65 -4.1708 -0.601821 0
M  V30 16908 H 1609.37 -3.05629 -1.15146 0
M  V30 16909 H 1608.03 -3.54774 0.923651 0
M  V30 16910 H 1607.68 -4.89604 -1.15312 0
M  V30 16911 H 1607.38 -5.86784 0.309495 0
M  V30 16912 H 1608.9 -6.07652 -0.599281 0
M  V30 16913 H 1610.32 -5.50544 1.59919 0
M  V30 16914 H 1608.72 -5.50437 2.39038 0
M  V30 16915 H 1609.79 -4.10397 2.58268 0
M  V30 16916 N 1611.13 -0.710588 -1.40671 0
M  V30 16917 C 1612.54 -0.320926 -1.83921 0
M  V30 16918 C 1612.89 1.14358 -1.59426 0
M  V30 16919 O 1612.02 1.87952 -1.07252 0
M  V30 16920 C 1612.61 -0.5757 -3.33873 0
M  V30 16921 C 1611.17 -0.239799 -3.75635 0
M  V30 16922 C 1610.32 -0.850552 -2.63934 0
M  V30 16923 H 1613.27 -0.910118 -1.3001 0
M  V30 16924 H 1613.29 0.160707 -3.8016 0
M  V30 16925 H 1612.8 -1.64166 -3.51669 0
M  V30 16926 H 1610.9 0.821297 -3.63436 0
M  V30 16927 H 1611.02 -0.705306 -4.7388 0
M  V30 16928 H 1609.38 -0.278977 -2.53168 0
M  V30 16929 H 1610.16 -1.92068 -2.84543 0
M  V30 16930 N 1612.61 1.50847 -0.456408 0
M  V30 16931 C 1613.57 2.26755 0.33388 0
M  V30 16932 C 1614.57 1.30947 0.933247 0
M  V30 16933 O 1615.76 1.54499 0.804716 0
M  V30 16934 C 1612.89 3.07378 1.47417 0
M  V30 16935 H 1614.09 2.98061 -0.331634 0
M  V30 16936 H 1611.64 1.54882 -0.210067 0
M  V30 16937 H 1612.37 2.40534 2.17518 0
M  V30 16938 H 1612.16 3.7777 1.05036 0
M  V30 16939 H 1613.65 3.64826 2.03204 0
M  V30 16940 N 1614.09 0.188454 1.56469 0
M  V30 16941 C 1615.33 -0.451165 1.97 0
M  V30 16942 C 1615.65 -1.6261 1.07624 0
M  V30 16943 O 1614.92 -1.95354 0.146125 0
M  V30 16944 H 1613.5 -0.16967 0.727476 0
M  V30 16945 H 1616.17 0.273638 1.9297 0
M  V30 16946 H 1615.26 -0.799741 3.0168 0
M  V30 16947 N 1615.56 -1.5737 -0.0851874 0
M  V30 16948 C 1616.81 -1.86219 -0.7853 0
M  V30 16949 C 1617.13 -0.77857 -1.78783 0
M  V30 16950 O 1616.4 0.194176 -1.94935 0
M  V30 16951 H 1614.98 -0.687134 -0.293013 0
M  V30 16952 H 1617.64 -1.94793 -0.0644597 0
M  V30 16953 H 1616.74 -2.83286 -1.30978 0
M  V30 16954 N 1617.04 0.356258 -1.53521 0
M  V30 16955 C 1617.97 1.45722 -1.76912 0
M  V30 16956 C 1618.99 1.49257 -0.650091 0
M  V30 16957 O 1620.18 1.52569 -0.926557 0
M  V30 16958 C 1617.28 2.84444 -1.84241 0
M  V30 16959 C 1616.45 3.04497 -3.14007 0
M  V30 16960 C 1615.51 4.23387 -3.12458 0
M  V30 16961 O 1614.53 4.18113 -3.86225 0
M  V30 16962 N 1615.74 5.31278 -2.33931 0
M  V30 16963 H 1618.5 1.26031 -2.71912 0
M  V30 16964 H 1616.06 0.546052 -1.52414 0
M  V30 16965 H 1618.05 3.62133 -1.80671 0
M  V30 16966 H 1616.62 2.97338 -0.96484 0
M  V30 16967 H 1615.84 2.14387 -3.30805 0
M  V30 16968 H 1617.13 3.14769 -3.99747 0
M  V30 16969 H 1616.53 5.38428 -1.73527 0
M  V30 16970 H 1615.09 6.07508 -2.36171 0
M  V30 16971 N 1618.52 1.45038 0.616577 0
M  V30 16972 C 1619.75 1.52094 1.40267 0
M  V30 16973 C 1620.16 0.150558 1.88199 0
M  V30 16974 O 1619.52 -0.846258 1.61693 0
M  V30 16975 C 1619.57 2.49786 2.61322 0
M  V30 16976 O 1619.29 3.81498 2.15385 0
M  V30 16977 C 1620.79 2.66451 3.54286 0
M  V30 16978 H 1618.01 0.515378 0.429681 0
M  V30 16979 H 1620.56 1.90141 0.752768 0
M  V30 16980 H 1618.71 2.14835 3.22373 0
M  V30 16981 H 1619.13 4.34374 2.93972 0
M  V30 16982 H 1620.6 3.38802 4.35795 0
M  V30 16983 H 1621.08 1.72177 4.04044 0
M  V30 16984 H 1621.68 3.02362 2.99095 0
M  V30 16985 N 1620 -0.858287 1.32179 0
M  V30 16986 C 1621.25 -1.60902 1.2229 0
M  V30 16987 C 1621.57 -1.93797 -0.216227 0
M  V30 16988 O 1620.84 -1.59312 -1.14002 0
M  V30 16989 H 1619.42 -0.596529 0.449624 0
M  V30 16990 H 1622.08 -1.02686 1.65655 0
M  V30 16991 H 1621.17 -2.54755 1.80295 0
M  V30 16992 N 1621.48 -1.1533 -1.07409 0
M  V30 16993 C 1622.39 -0.863514 -2.1813 0
M  V30 16994 C 1623.4 0.159954 -1.73263 0
M  V30 16995 O 1624.58 -0.0139818 -2.01395 0
M  V30 16996 C 1621.64 -0.356271 -3.44865 0
M  V30 16997 C 1620.7 -1.44356 -4.04302 0
M  V30 16998 C 1619.94 -0.960429 -5.24987 0
M  V30 16999 O 1620.16 0.194227 -5.70069 0
M  V30 17000 O 1619.09 -1.74387 -5.76084 0
M  V30 17001 H 1622.92 -1.78909 -2.45408 0
M  V30 17002 H 1620.5 -0.932362 -1.16736 0
M  V30 17003 H 1622.39 -0.0798183 -4.21324 0
M  V30 17004 H 1621.06 0.541445 -3.1914 0
M  V30 17005 H 1619.97 -1.77361 -3.29384 0
M  V30 17006 H 1621.3 -2.31617 -4.34298 0
M  V30 17007 N 1622.95 1.25748 -0.950004 0
M  V30 17008 C 1624.2 1.92632 -0.597988 0
M  V30 17009 C 1624.52 1.75268 0.868365 0
M  V30 17010 O 1625.72 2.36684 1.33014 0
M  V30 17011 C 1624.18 3.45179 -1.01879 0
M  V30 17012 C 1623.79 3.71262 -2.50736 0
M  V30 17013 C 1625.53 4.18017 -0.739084 0
M  V30 17014 C 1623.44 5.17292 -2.8664 0
M  V30 17015 H 1622.37 0.72121 -0.219938 0
M  V30 17016 H 1625.02 1.42685 -1.15383 0
M  V30 17017 H 1623.4 3.94061 -0.391395 0
M  V30 17018 H 1624.57 3.33051 -3.18455 0
M  V30 17019 H 1622.89 3.11676 -2.76129 0
M  V30 17020 H 1625.49 5.25576 -0.983555 0
M  V30 17021 H 1625.83 4.15034 0.32439 0
M  V30 17022 H 1626.36 3.75028 -1.32661 0
M  V30 17023 H 1623.1 5.25383 -3.91987 0
M  V30 17024 H 1622.62 5.56567 -2.23591 0
M  V30 17025 H 1624.3 5.85375 -2.75582 0
M  V30 17026 N 1624.43 0.718038 1.40292 0
M  V30 17027 C 1625.36 0.0276294 2.29183 0
M  V30 17028 C 1626.38 -0.721208 1.45954 0
M  V30 17029 O 1627.57 -0.568181 1.69216 0
M  V30 17030 C 1624.67 -0.985139 3.24266 0
M  V30 17031 C 1623.84 -0.301327 4.36361 0
M  V30 17032 C 1622.9 -1.21982 5.11866 0
M  V30 17033 O 1621.92 -0.70369 5.64833 0
M  V30 17034 N 1623.13 -2.55079 5.21455 0
M  V30 17035 H 1625.89 0.790884 2.89076 0
M  V30 17036 H 1623.45 0.565867 1.51689 0
M  V30 17037 H 1625.44 -1.60183 3.7165 0
M  V30 17038 H 1624.01 -1.64973 2.65523 0
M  V30 17039 H 1623.23 0.495594 3.91072 0
M  V30 17040 H 1624.52 0.173238 5.08505 0
M  V30 17041 H 1623.92 -2.99506 4.79909 0
M  V30 17042 H 1622.48 -3.11886 5.72338 0
M  V30 17043 N 1625.91 -1.50602 0.464402 0
M  V30 17044 C 1627.16 -2.02287 -0.0928919 0
M  V30 17045 C 1627.49 -1.34685 -1.40321 0
M  V30 17046 O 1626.74 -0.459304 -1.90234 0
M  V30 17047 C 1627.04 -3.55859 -0.331507 0
M  V30 17048 C 1626.71 -4.41902 0.896292 0
M  V30 17049 C 1625.37 -4.65137 1.23294 0
M  V30 17050 C 1627.72 -4.92208 1.71409 0
M  V30 17051 C 1625.05 -5.35922 2.38757 0
M  V30 17052 C 1627.4 -5.6426 2.85995 0
M  V30 17053 C 1626.06 -5.85751 3.20082 0
M  V30 17054 H 1625.33 -0.74022 -0.0339916 0
M  V30 17055 H 1627.98 -1.81284 0.61712 0
M  V30 17056 H 1626.29 -3.7534 -1.1237 0
M  V30 17057 H 1627.98 -3.93409 -0.776566 0
M  V30 17058 H 1624.57 -4.24033 0.624007 0
M  V30 17059 H 1628.76 -4.74117 1.46719 0
M  V30 17060 H 1624.01 -5.50769 2.65449 0
M  V30 17061 H 1628.19 -6.02223 3.49714 0
M  V30 17062 H 1625.81 -6.40377 4.09659 0
M  V30 17063 N 1627.39 -0.19675 -1.56367 0
M  V30 17064 C 1628.63 0.442238 -1.97919 0
M  V30 17065 C 1628.97 1.61156 -1.08362 0
M  V30 17066 O 1628.24 1.94024 -0.135969 0
M  V30 17067 C 1628.53 0.90078 -3.48652 0
M  V30 17068 C 1628.38 -0.270471 -4.48986 0
M  V30 17069 C 1629.7 1.7657 -4.03126 0
M  V30 17070 H 1626.82 0.159276 -0.719583 0
M  V30 17071 H 1629.46 -0.288004 -1.87805 0
M  V30 17072 H 1627.61 1.52302 -3.57402 0
M  V30 17073 H 1629.28 -0.908176 -4.52272 0
M  V30 17074 H 1627.52 -0.921973 -4.23889 0
M  V30 17075 H 1628.19 0.0929101 -5.51922 0
M  V30 17076 H 1630.67 1.24091 -3.97166 0
M  V30 17077 H 1629.55 2.0555 -5.0896 0
M  V30 17078 H 1629.81 2.72047 -3.48486 0
M  V30 17079 N 1628.87 1.57413 0.0768405 0
M  V30 17080 C 1630.12 1.86186 0.775741 0
M  V30 17081 C 1630.43 0.788676 1.78995 0
M  V30 17082 O 1631.63 0.964095 2.53806 0
M  V30 17083 C 1630.09 3.30247 1.43055 0
M  V30 17084 C 1629.7 4.45682 0.45517 0
M  V30 17085 C 1631.44 3.68225 2.11211 0
M  V30 17086 C 1629.35 5.80782 1.11561 0
M  V30 17087 H 1628.28 0.694546 0.293466 0
M  V30 17088 H 1630.93 1.83477 0.0289478 0
M  V30 17089 H 1629.31 3.27552 2.22544 0
M  V30 17090 H 1630.49 4.59759 -0.309535 0
M  V30 17091 H 1628.8 4.16222 -0.121671 0
M  V30 17092 H 1631.4 4.66454 2.6139 0
M  V30 17093 H 1631.74 2.9777 2.90928 0
M  V30 17094 H 1632.27 3.72888 1.38561 0
M  V30 17095 H 1629.01 6.54517 0.358877 0
M  V30 17096 H 1628.53 5.70515 1.8513 0
M  V30 17097 H 1630.21 6.25951 1.63689 0
M  V30 17098 N 1630.34 -0.348112 1.53707 0
M  V30 17099 C 1631.76 -0.690926 1.43869 0
M  V30 17100 C 1631.96 -1.92614 0.59177 0
M  V30 17101 O 1631.02 -2.5237 0.0809797 0
M  V30 17102 C 1632.33 -0.887824 2.87295 0
M  V30 17103 C 1633.88 -0.986731 2.9704 0
M  V30 17104 C 1634.35 -1.21598 4.41563 0
M  V30 17105 N 1635.84 -1.28328 4.45069 0
M  V30 17106 C 1636.58 -1.47809 5.54022 0
M  V30 17107 N 1636.07 -1.64492 6.72989 0
M  V30 17108 N 1637.87 -1.5032 5.41628 0
M  V30 17109 H 1630.02 0.464101 2.07268 0
M  V30 17110 H 1632.28 0.145678 0.93674 0
M  V30 17111 H 1631.99 -0.0517672 3.51662 0
M  V30 17112 H 1631.86 -1.79089 3.31974 0
M  V30 17113 H 1634.25 -1.81331 2.32815 0
M  V30 17114 H 1634.33 -0.0606692 2.55728 0
M  V30 17115 H 1633.97 -0.394341 5.06367 0
M  V30 17116 H 1633.9 -2.15553 4.80463 0
M  V30 17117 H 1636.39 -1.16979 3.59339 0
M  V30 17118 H 1636.71 -1.78979 7.51789 0
M  V30 17119 H 1635.05 -1.61636 6.75943 0
M  V30 17120 H 1638.24 -1.36865 4.47644 0
M  V30 17121 H 1638.42 -1.6516 6.26599 0
M  V30 17122 N 1631.82 -1.45363 -0.608876 0
M  V30 17123 C 1633.05 -1.52614 -1.39257 0
M  V30 17124 C 1633.46 -0.157106 -1.88547 0
M  V30 17125 O 1632.8 0.851329 -1.62782 0
M  V30 17126 C 1632.87 -2.44821 -2.63255 0
M  V30 17127 C 1632.53 -3.91582 -2.35612 0
M  V30 17128 C 1633.53 -4.81517 -1.96054 0
M  V30 17129 C 1631.21 -4.36488 -2.48564 0
M  V30 17130 C 1633.21 -6.14365 -1.69808 0
M  V30 17131 C 1630.89 -5.69377 -2.21931 0
M  V30 17132 C 1631.89 -6.58135 -1.82614 0
M  V30 17133 O 1631.58 -7.88561 -1.56292 0
M  V30 17134 H 1631.31 -0.51935 -0.432726 0
M  V30 17135 H 1633.86 -1.91227 -0.749768 0
M  V30 17136 H 1632.09 -2.01177 -3.30249 0
M  V30 17137 H 1633.78 -2.4277 -3.25296 0
M  V30 17138 H 1634.55 -4.48088 -1.85585 0
M  V30 17139 H 1630.43 -3.67646 -2.78133 0
M  V30 17140 H 1633.97 -6.83602 -1.39045 0
M  V30 17141 H 1629.87 -6.02361 -2.32016 0
M  V30 17142 H 1630.64 -8.00576 -1.70355 0
M  V30 17143 N 1633.3 0.851265 -1.32632 0
M  V30 17144 C 1634.26 1.94168 -1.21785 0
M  V30 17145 C 1635.26 1.60189 -0.140023 0
M  V30 17146 O 1636.45 1.69763 -0.390671 0
M  V30 17147 C 1633.59 3.29513 -0.873717 0
M  V30 17148 H 1634.78 2.05214 -2.18695 0
M  V30 17149 H 1632.33 1.04186 -1.16512 0
M  V30 17150 H 1633.07 3.24165 0.0934202 0
M  V30 17151 H 1632.85 3.55552 -1.65302 0
M  V30 17152 H 1634.34 4.09425 -0.822231 0
M  V30 17153 N 1634.78 1.15898 1.06796 0
M  V30 17154 C 1636.06 0.847701 1.76276 0
M  V30 17155 C 1636.44 -0.655537 2.00664 0
M  V30 17156 O 1635.78 -1.60171 1.62964 0
M  V30 17157 C 1635.99 1.66475 3.06736 0
M  V30 17158 C 1637.34 1.87452 3.80982 0
M  V30 17159 O 1638.37 1.63298 3.16563 0
M  V30 17160 O 1637.22 2.27942 4.96694 0
M  V30 17161 H 1634.32 0.312308 0.765763 0
M  V30 17162 H 1636.86 1.26507 1.13111 0
M  V30 17163 H 1635.64 2.68508 2.84638 0
M  V30 17164 H 1635.26 1.24409 3.77635 0
M  V30 17165 N 1636.26 -1.25243 0.956659 0
M  V30 17166 C 1637.2 -2.2781 0.46963 0
M  V30 17167 C 1638.2 -1.63003 -0.461138 0
M  V30 17168 O 1639.4 -1.76805 -0.337644 0
M  V30 17169 H 1635.78 -0.740078 0.133374 0
M  V30 17170 H 1637.75 -2.66273 1.34689 0
M  V30 17171 C 1636.5 -3.46904 -0.235206 0
M  V30 17172 H 1635.82 -3.97006 0.471869 0
M  V30 17173 H 1637.26 -4.20548 -0.539969 0
M  V30 17174 C 1635.72 -3.03697 -1.45841 0
M  V30 17175 O 1636.25 -3.09887 -2.55603 0
M  V30 17176 N 1634.46 -2.58866 -1.32049 0
M  V30 17177 H 1634 -2.54029 -0.427428 0
M  V30 17178 H 1633.96 -2.30322 -2.14008 0
M  V30 17179 N 1637.73 -0.725468 -1.3991 0
M  V30 17180 C 1638.96 -0.277821 -2.05531 0
M  V30 17181 C 1639.38 1.07547 -1.54322 0
M  V30 17182 O 1638.74 1.6795 -0.682828 0
M  V30 17183 C 1638.79 -0.278676 -3.59522 0
M  V30 17184 O 1637.89 0.736864 -4.05764 0
M  V30 17185 H 1637.24 -0.128243 -0.651498 0
M  V30 17186 H 1639.77 -0.988721 -1.79124 0
M  V30 17187 H 1639.78 -0.119765 -4.07824 0
M  V30 17188 H 1638.45 -1.2662 -3.96157 0
M  V30 17189 H 1637.03 0.544869 -3.68898 0
M  V30 17190 N 1639.21 1.50354 -0.472382 0
M  V30 17191 C 1640.46 2.02333 0.0821629 0
M  V30 17192 C 1640.79 1.35428 1.39605 0
M  V30 17193 O 1640.04 0.469386 1.89988 0
M  V30 17194 C 1640.34 3.5603 0.31263 0
M  V30 17195 C 1640.01 4.41421 -0.919715 0
M  V30 17196 C 1638.67 4.64476 -1.25759 0
M  V30 17197 C 1641.02 4.91292 -1.74017 0
M  V30 17198 C 1638.35 5.34648 -2.41596 0
M  V30 17199 C 1640.7 5.62736 -2.88983 0
M  V30 17200 C 1639.37 5.84045 -3.23184 0
M  V30 17201 H 1638.64 0.74039 0.0300655 0
M  V30 17202 H 1641.28 1.80954 -0.626725 0
M  V30 17203 H 1639.59 3.75931 1.10378 0
M  V30 17204 H 1641.28 3.93815 0.755691 0
M  V30 17205 H 1637.87 4.23696 -0.646486 0
M  V30 17206 H 1642.06 4.73332 -1.49232 0
M  V30 17207 H 1637.31 5.49354 -2.68366 0
M  V30 17208 H 1641.49 6.0036 -3.52903 0
M  V30 17209 H 1639.12 6.38196 -4.1305 0
M  V30 17210 N 1640.69 0.205039 1.56261 0
M  V30 17211 C 1641.64 -0.724845 2.16171 0
M  V30 17212 C 1642.63 -1.16929 1.10528 0
M  V30 17213 O 1643.82 -1.12603 1.36564 0
M  V30 17214 C 1640.95 -1.93992 2.83235 0
M  V30 17215 C 1640.03 -1.51592 3.96082 0
M  V30 17216 N 1640.42 -0.80348 4.99377 0
M  V30 17217 C 1638.72 -1.80447 4.07866 0
M  V30 17218 C 1639.42 -0.58958 5.78704 0
M  V30 17219 N 1638.4 -1.14132 5.31484 0
M  V30 17220 H 1642.2 -0.171919 2.93397 0
M  V30 17221 H 1639.71 0.00563679 1.62399 0
M  V30 17222 H 1641.71 -2.61667 3.24555 0
M  V30 17223 H 1640.37 -2.49747 2.07501 0
M  V30 17224 H 1641.38 -0.457893 5.15872 0
M  V30 17225 H 1638.06 -2.3764 3.43269 0
M  V30 17226 H 1639.45 -0.0237117 6.71896 0
M  V30 17227 N 1642.17 -1.57451 -0.0684915 0
M  V30 17228 C 1643.45 -1.78483 -0.800209 0
M  V30 17229 C 1643.83 -0.793438 -1.95621 0
M  V30 17230 O 1643.17 0.172756 -2.27846 0
M  V30 17231 C 1643.38 -3.25069 -1.27008 0
M  V30 17232 C 1644.73 -3.8899 -1.70212 0
M  V30 17233 O 1645.76 -3.2898 -1.36566 0
M  V30 17234 O 1644.62 -4.94569 -2.32515 0
M  V30 17235 H 1641.71 -0.732598 -0.383704 0
M  V30 17236 H 1644.26 -1.69631 -0.0483117 0
M  V30 17237 H 1643.03 -3.88784 -0.443067 0
M  V30 17238 H 1642.65 -3.38657 -2.08319 0
M  V30 17239 N 1643.65 0.339955 -1.5389 0
M  V30 17240 C 1644.58 1.43837 -1.78448 0
M  V30 17241 C 1645.59 1.48559 -0.665885 0
M  V30 17242 O 1646.78 1.51577 -0.942686 0
M  V30 17243 C 1643.88 2.82474 -1.87248 0
M  V30 17244 C 1643.05 3.01149 -3.17219 0
M  V30 17245 C 1642.11 4.20049 -3.16931 0
M  V30 17246 O 1641.14 4.13994 -3.90638 0
M  V30 17247 N 1642.34 5.28767 -2.39553 0
M  V30 17248 H 1645.11 1.2314 -2.73234 0
M  V30 17249 H 1642.67 0.529855 -1.52984 0
M  V30 17250 H 1644.66 3.60196 -1.84502 0
M  V30 17251 H 1643.23 2.96297 -0.996322 0
M  V30 17252 H 1642.45 2.10867 -3.3306 0
M  V30 17253 H 1643.74 3.10511 -4.03063 0
M  V30 17254 H 1643.14 5.36557 -1.79228 0
M  V30 17255 H 1641.69 6.04969 -2.42601 0
M  V30 17256 N 1645.13 1.45684 0.601159 0
M  V30 17257 C 1646.35 1.53806 1.39135 0
M  V30 17258 C 1646.78 0.173625 1.87297 0
M  V30 17259 O 1646.13 -0.842931 1.60513 0
M  V30 17260 C 1646.18 2.53201 2.56752 0
M  V30 17261 O 1645.29 2.05427 3.57594 0
M  V30 17262 H 1644.63 0.51824 0.415118 0
M  V30 17263 H 1647.16 1.91095 0.731006 0
M  V30 17264 H 1647.17 2.72215 3.03912 0
M  V30 17265 H 1645.84 3.52294 2.21047 0
M  V30 17266 H 1644.42 1.96318 3.17039 0
M  V30 17267 N 1646.6 -0.84422 1.33082 0
M  V30 17268 C 1647.55 -1.97504 1.22862 0
M  V30 17269 C 1648.55 -1.68892 0.131141 0
M  V30 17270 O 1649.75 -1.7757 0.294753 0
M  V30 17271 H 1646.13 -0.648263 0.381129 0
M  V30 17272 H 1648.1 -2.03249 2.18478 0
M  V30 17273 C 1646.85 -3.33626 0.979228 0
M  V30 17274 H 1646.17 -3.56178 1.81596 0
M  V30 17275 H 1647.61 -4.13266 0.948007 0
M  V30 17276 C 1646.07 -3.35397 -0.317922 0
M  V30 17277 O 1646.6 -3.7917 -1.32638 0
M  V30 17278 N 1644.8 -2.88562 -0.343577 0
M  V30 17279 H 1644.35 -2.53133 0.477625 0
M  V30 17280 H 1644.31 -2.90129 -1.21131 0
M  V30 17281 N 1648.08 -1.16463 -1.0618 0
M  V30 17282 C 1649.36 -0.857038 -1.75824 0
M  V30 17283 C 1649.74 0.644886 -2.01009 0
M  V30 17284 O 1649.09 1.59305 -1.63812 0
M  V30 17285 C 1649.3 -1.681 -3.05849 0
M  V30 17286 C 1650.64 -1.8947 -3.79982 0
M  V30 17287 O 1651.67 -1.64975 -3.15692 0
M  V30 17288 O 1650.53 -2.30573 -4.95478 0
M  V30 17289 H 1647.62 -0.316364 -0.764096 0
M  V30 17290 H 1650.17 -1.27105 -1.12438 0
M  V30 17291 H 1648.94 -2.70014 -2.8321 0
M  V30 17292 H 1648.56 -1.2641 -3.7697 0
M  V30 17293 N 1649.56 1.24734 -0.963288 0
M  V30 17294 C 1650.79 1.9646 -0.639305 0
M  V30 17295 C 1651.2 1.71708 0.794553 0
M  V30 17296 O 1650.54 0.995015 1.54419 0
M  V30 17297 C 1650.6 3.49818 -0.828696 0
M  V30 17298 C 1650.27 3.98262 -2.24135 0
M  V30 17299 C 1651.26 4.08281 -3.21874 0
M  V30 17300 C 1648.95 4.31701 -2.56786 0
M  V30 17301 C 1650.94 4.51067 -4.50352 0
M  V30 17302 C 1648.63 4.74172 -3.85492 0
M  V30 17303 C 1649.63 4.83819 -4.82087 0
M  V30 17304 O 1649.32 5.25344 -6.08497 0
M  V30 17305 H 1649.05 0.63276 -0.237888 0
M  V30 17306 H 1651.6 1.59635 -1.29251 0
M  V30 17307 H 1649.83 3.86519 -0.118332 0
M  V30 17308 H 1651.52 4.02753 -0.504465 0
M  V30 17309 H 1652.29 3.82668 -2.97976 0
M  V30 17310 H 1648.17 4.23414 -1.82323 0
M  V30 17311 H 1651.71 4.58512 -5.2575 0
M  V30 17312 H 1647.61 4.99231 -4.09192 0
M  V30 17313 H 1648.37 5.43506 -6.12 0
M  V30 17314 N 1651.04 0.732878 1.39523 0
M  V30 17315 C 1652.26 0.288717 2.05381 0
M  V30 17316 C 1652.69 -1.06727 1.5489 0
M  V30 17317 O 1652.05 -1.67585 0.691726 0
M  V30 17318 C 1652.09 0.297738 3.59369 0
M  V30 17319 O 1651.2 -0.715335 4.06149 0
M  V30 17320 H 1650.54 0.131696 0.650809 0
M  V30 17321 H 1653.07 0.998206 1.78597 0
M  V30 17322 H 1653.08 0.141391 4.07755 0
M  V30 17323 H 1651.75 1.28719 3.9548 0
M  V30 17324 H 1650.33 -0.525298 3.69182 0
M  V30 17325 N 1652.52 -1.50101 0.480349 0
M  V30 17326 C 1653.76 -2.02374 -0.0714315 0
M  V30 17327 C 1654.09 -1.36166 -1.38885 0
M  V30 17328 O 1653.35 -0.479455 -1.89736 0
M  V30 17329 C 1653.64 -3.56191 -0.293745 0
M  V30 17330 C 1653.31 -4.40927 0.943111 0
M  V30 17331 C 1651.97 -4.63803 1.2822 0
M  V30 17332 C 1654.32 -4.90362 1.7662 0
M  V30 17333 C 1651.65 -5.33359 2.44428 0
M  V30 17334 C 1654 -5.61195 2.91963 0
M  V30 17335 C 1652.67 -5.82323 3.26276 0
M  V30 17336 H 1651.94 -0.740539 -0.0261386 0
M  V30 17337 H 1654.59 -1.80619 0.636313 0
M  V30 17338 H 1652.89 -3.76511 -1.08382 0
M  V30 17339 H 1654.59 -3.9421 -0.734796 0
M  V30 17340 H 1651.18 -4.23347 0.668947 0
M  V30 17341 H 1655.36 -4.72534 1.5174 0
M  V30 17342 H 1650.62 -5.47923 2.71275 0
M  V30 17343 H 1654.79 -5.9848 3.56082 0
M  V30 17344 H 1652.42 -6.35996 4.16428 0
M  V30 17345 N 1653.99 -0.213323 -1.5615 0
M  V30 17346 C 1655.27 0.469174 -1.8989 0
M  V30 17347 C 1655.65 1.78341 -1.1295 0
M  V30 17348 O 1655 2.27276 -0.236236 0
M  V30 17349 C 1655.21 0.67017 -3.42505 0
M  V30 17350 C 1656.56 0.981324 -4.13104 0
M  V30 17351 O 1657.58 0.757249 -3.48058 0
M  V30 17352 O 1656.44 1.40614 -5.281 0
M  V30 17353 H 1653.53 0.246943 -0.789271 0
M  V30 17354 H 1656.08 -0.254896 -1.67775 0
M  V30 17355 H 1654.85 -0.257189 -3.90454 0
M  V30 17356 H 1654.47 1.44603 -3.70372 0
M  V30 17357 N 1655.47 1.57485 0.0601405 0
M  V30 17358 C 1656.88 1.76433 0.610583 0
M  V30 17359 C 1657.23 0.840353 1.77292 0
M  V30 17360 O 1656.36 0.0273238 2.16383 0
M  V30 17361 C 1656.95 3.19947 1.11441 0
M  V30 17362 C 1655.51 3.402 1.61062 0
M  V30 17363 C 1654.66 2.72089 0.535055 0
M  V30 17364 H 1657.61 1.57829 -0.166062 0
M  V30 17365 H 1657.63 3.24749 1.98288 0
M  V30 17366 H 1657.14 3.87172 0.268233 0
M  V30 17367 H 1655.25 2.78106 2.47967 0
M  V30 17368 H 1655.36 4.48696 1.67954 0
M  V30 17369 H 1653.72 2.34972 0.982855 0
M  V30 17370 H 1654.51 3.41977 -0.301135 0
M  V30 17371 N 1656.95 -0.331789 1.54068 0
M  V30 17372 C 1658.18 -1.09044 1.75832 0
M  V30 17373 C 1658.59 -1.81976 0.503012 0
M  V30 17374 O 1657.95 -1.74758 -0.525913 0
M  V30 17375 C 1658 -2.09489 2.94613 0
M  V30 17376 O 1657.72 -1.39521 4.1529 0
M  V30 17377 C 1659.22 -2.97637 3.28522 0
M  V30 17378 H 1656.44 -0.324701 0.587205 0
M  V30 17379 H 1658.99 -0.380417 2.00931 0
M  V30 17380 H 1657.14 -2.76038 2.71812 0
M  V30 17381 H 1657.56 -2.06717 4.82046 0
M  V30 17382 H 1659.03 -3.64027 4.14956 0
M  V30 17383 H 1659.51 -3.64292 2.45332 0
M  V30 17384 H 1660.11 -2.3666 3.53372 0
M  V30 17385 N 1658.43 -1.46001 -0.593424 0
M  V30 17386 C 1659.68 -1.50025 -1.34816 0
M  V30 17387 C 1659.99 -0.151905 -1.95009 0
M  V30 17388 O 1661.2 -0.0698751 -2.7141 0
M  V30 17389 C 1659.65 -2.643 -2.44282 0
M  V30 17390 C 1659.26 -4.05509 -1.90438 0
M  V30 17391 C 1661 -2.77584 -3.21165 0
M  V30 17392 C 1658.91 -5.11142 -2.97469 0
M  V30 17393 H 1657.84 -0.558299 -0.506772 0
M  V30 17394 H 1660.49 -1.72182 -0.634484 0
M  V30 17395 H 1658.87 -2.35453 -3.18399 0
M  V30 17396 H 1660.05 -4.44099 -1.22935 0
M  V30 17397 H 1658.36 -3.96798 -1.26256 0
M  V30 17398 H 1660.96 -3.53673 -4.01023 0
M  V30 17399 H 1661.3 -1.84718 -3.73075 0
M  V30 17400 H 1661.84 -3.06026 -2.54151 0
M  V30 17401 H 1658.58 -6.05764 -2.5046 0
M  V30 17402 H 1658.1 -4.77107 -3.63495 0
M  V30 17403 H 1659.77 -5.36516 -3.61607 0
M  V30 17404 N 1659.91 0.83715 -1.33527 0
M  V30 17405 C 1660.85 1.94709 -1.23924 0
M  V30 17406 C 1661.82 1.65684 -0.117494 0
M  V30 17407 O 1663.01 1.88489 -0.296057 0
M  V30 17408 C 1660.15 3.3071 -0.986146 0
M  V30 17409 C 1659.26 3.72121 -2.19432 0
M  V30 17410 C 1658.4 4.96999 -1.87524 0
M  V30 17411 C 1657.44 5.3095 -3.04563 0
M  V30 17412 N 1656.57 6.47006 -2.72632 0
M  V30 17413 H 1661.41 2.02255 -2.18854 0
M  V30 17414 H 1658.95 0.989703 -1.08827 0
M  V30 17415 H 1660.91 4.09065 -0.819834 0
M  V30 17416 H 1659.54 3.22716 -0.0735786 0
M  V30 17417 H 1658.59 2.89274 -2.47032 0
M  V30 17418 H 1659.9 3.93192 -3.06923 0
M  V30 17419 H 1659.06 5.83107 -1.67546 0
M  V30 17420 H 1657.79 4.77901 -0.972714 0
M  V30 17421 H 1656.8 4.43346 -3.25153 0
M  V30 17422 H 1658.02 5.51995 -3.95573 0
M  V30 17423 H 1655.97 6.29391 -1.8494 0
M  V30 17424 H 1655.89 6.6818 -3.53654 0
M  V30 17425 H 1657.16 7.3622 -2.56125 0
M  V30 17426 N 1661.38 1.17024 1.05561 0
M  V30 17427 C 1662.35 0.885897 2.11387 0
M  V30 17428 C 1663.35 -0.122327 1.60334 0
M  V30 17429 O 1664.54 0.109416 1.73856 0
M  V30 17430 C 1661.67 0.32626 3.39335 0
M  V30 17431 H 1662.86 1.82414 2.38045 0
M  V30 17432 H 1660.42 0.980191 1.21745 0
M  V30 17433 H 1661.15 -0.619308 3.18332 0
M  V30 17434 H 1660.94 1.05285 3.777 0
M  V30 17435 H 1662.43 0.145513 4.17346 0
M  V30 17436 N 1662.86 -1.24221 0.969889 0
M  V30 17437 C 1664.11 -1.92353 0.632976 0
M  V30 17438 C 1664.44 -1.75801 -0.832131 0
M  V30 17439 O 1663.69 -1.10614 -1.6144 0
M  V30 17440 C 1663.99 -3.44365 0.956427 0
M  V30 17441 C 1663.66 -3.81088 2.41003 0
M  V30 17442 C 1662.32 -3.90823 2.80732 0
M  V30 17443 C 1664.67 -3.99002 3.35331 0
M  V30 17444 C 1662 -4.15891 4.13825 0
M  V30 17445 C 1664.35 -4.25567 4.68055 0
M  V30 17446 C 1663.02 -4.33522 5.07558 0
M  V30 17447 H 1662.29 -0.703869 0.231622 0
M  V30 17448 H 1664.93 -1.47461 1.22179 0
M  V30 17449 H 1663.24 -3.90759 0.285402 0
M  V30 17450 H 1664.93 -3.95293 0.674107 0
M  V30 17451 H 1661.52 -3.74077 2.09199 0
M  V30 17452 H 1665.71 -3.90881 3.0582 0
M  V30 17453 H 1660.96 -4.2027 4.44053 0
M  V30 17454 H 1665.14 -4.38372 5.41113 0
M  V30 17455 H 1662.77 -4.52699 6.10711 0
M  V30 17456 N 1664.34 -0.740267 -1.39132 0
M  V30 17457 C 1665.27 -0.064087 -2.2911 0
M  V30 17458 C 1666.29 0.697897 -1.47082 0
M  V30 17459 O 1667.47 0.541189 -1.70098 0
M  V30 17460 C 1664.57 0.933426 -3.25792 0
M  V30 17461 C 1663.75 0.231867 -4.36785 0
M  V30 17462 C 1662.81 1.13823 -5.13742 0
M  V30 17463 O 1661.83 0.613741 -5.65881 0
M  V30 17464 N 1663.03 2.46751 -5.25447 0
M  V30 17465 H 1665.8 -0.836774 -2.87781 0
M  V30 17466 H 1663.36 -0.589928 -1.5077 0
M  V30 17467 H 1665.35 1.5425 -3.74151 0
M  V30 17468 H 1663.92 1.60728 -2.68114 0
M  V30 17469 H 1663.14 -0.557747 -3.90234 0
M  V30 17470 H 1664.43 -0.254115 -5.08165 0
M  V30 17471 H 1663.83 2.91834 -4.84613 0
M  V30 17472 H 1662.39 3.02741 -5.77227 0
M  V30 17473 N 1665.82 1.49844 -0.488302 0
M  V30 17474 C 1667.1 1.95212 0.123105 0
M  V30 17475 C 1667.48 1.42936 1.55346 0
M  V30 17476 O 1666.82 0.637657 2.19422 0
M  V30 17477 C 1667.03 3.48966 0.0487846 0
M  V30 17478 C 1668.38 4.23982 0.229083 0
M  V30 17479 O 1669.41 3.55982 0.124569 0
M  V30 17480 O 1668.26 5.44709 0.442066 0
M  V30 17481 H 1665.36 0.820652 0.102268 0
M  V30 17482 H 1667.9 1.60542 -0.549935 0
M  V30 17483 H 1666.68 3.79613 -0.949203 0
M  V30 17484 H 1666.3 3.90219 0.76253 0
M  V30 17485 N 1667.3 0.221601 1.56034 0
M  V30 17486 C 1668.53 -0.414343 2.02402 0
M  V30 17487 C 1668.93 -1.5389 1.10066 0
M  V30 17488 O 1668.28 -1.83413 0.102587 0
M  V30 17489 C 1668.34 -1.00704 3.45107 0
M  V30 17490 C 1668 -0.0179259 4.56996 0
M  V30 17491 C 1669 0.782467 5.13978 0
M  V30 17492 C 1666.69 0.100842 5.02199 0
M  V30 17493 C 1668.68 1.68833 6.14633 0
M  V30 17494 C 1666.37 1.01024 6.02692 0
M  V30 17495 C 1667.36 1.80253 6.58785 0
M  V30 17496 O 1667.05 2.69664 7.57322 0
M  V30 17497 H 1666.78 -0.105645 0.667694 0
M  V30 17498 H 1669.34 0.335505 2.02641 0
M  V30 17499 H 1667.57 -1.80598 3.41937 0
M  V30 17500 H 1669.26 -1.5504 3.75123 0
M  V30 17501 H 1670.02 0.70116 4.79905 0
M  V30 17502 H 1665.9 -0.505723 4.58218 0
M  V30 17503 H 1669.45 2.30718 6.58343 0
M  V30 17504 H 1665.34 1.09256 6.36187 0
M  V30 17505 H 1666.11 2.6374 7.74844 0
M  V30 17506 N 1668.77 -1.57515 -0.0517878 0
M  V30 17507 C 1670.02 -1.87843 -0.745624 0
M  V30 17508 C 1670.34 -0.816318 -1.77091 0
M  V30 17509 O 1669.61 0.152784 -1.95303 0
M  V30 17510 H 1668.19 -0.693194 -0.278372 0
M  V30 17511 H 1670.86 -1.94886 -0.0231267 0
M  V30 17512 H 1669.95 -2.86001 -1.2494 0
M  V30 17513 N 1670.25 0.323614 -1.54242 0
M  V30 17514 C 1671.2 1.39826 -1.83623 0
M  V30 17515 C 1672.17 1.51393 -0.683331 0
M  V30 17516 O 1673.36 1.66614 -0.929754 0
M  V30 17517 C 1670.5 2.76187 -2.06918 0
M  V30 17518 C 1669.61 2.73251 -3.34601 0
M  V30 17519 C 1668.74 4.01458 -3.47857 0
M  V30 17520 C 1667.78 3.9283 -4.69415 0
M  V30 17521 N 1666.92 5.12767 -4.79598 0
M  V30 17522 H 1671.76 1.1407 -2.75303 0
M  V30 17523 H 1669.3 0.552188 -1.36343 0
M  V30 17524 H 1671.25 3.55458 -2.18416 0
M  V30 17525 H 1669.88 3.00251 -1.18529 0
M  V30 17526 H 1668.94 1.85971 -3.31842 0
M  V30 17527 H 1670.25 2.62759 -4.2398 0
M  V30 17528 H 1669.4 4.89161 -3.58897 0
M  V30 17529 H 1668.14 4.14757 -2.5657 0
M  V30 17530 H 1667.15 3.03512 -4.58433 0
M  V30 17531 H 1668.37 3.81097 -5.62087 0
M  V30 17532 H 1666.32 5.26572 -3.91227 0
M  V30 17533 H 1666.23 5.0461 -5.62943 0
M  V30 17534 H 1667.5 6.02184 -4.94969 0
M  V30 17535 N 1671.73 1.46313 0.585673 0
M  V30 17536 C 1672.98 1.51694 1.34598 0
M  V30 17537 C 1673.31 0.166889 1.93482 0
M  V30 17538 O 1672.59 -0.821331 1.76308 0
M  V30 17539 C 1672.87 2.61322 2.47755 0
M  V30 17540 C 1672.72 4.05848 1.93926 0
M  V30 17541 C 1674.04 2.67058 3.49812 0
M  V30 17542 H 1671.16 0.552253 0.488043 0
M  V30 17543 H 1673.8 1.78235 0.658201 0
M  V30 17544 H 1671.95 2.38822 3.06425 0
M  V30 17545 H 1673.62 4.39626 1.39736 0
M  V30 17546 H 1671.87 4.15468 1.24775 0
M  V30 17547 H 1672.54 4.78279 2.75596 0
M  V30 17548 H 1675.01 2.87276 3.01018 0
M  V30 17549 H 1673.89 3.45589 4.2645 0
M  V30 17550 H 1674.15 1.72993 4.06849 0
M  V30 17551 N 1673.21 -0.830057 1.33969 0
M  V30 17552 C 1674.44 -1.61774 1.28984 0
M  V30 17553 C 1674.85 -1.88299 -0.137515 0
M  V30 17554 O 1674.21 -1.46936 -1.0824 0
M  V30 17555 C 1674.26 -2.96282 2.07121 0
M  V30 17556 O 1673.98 -2.70918 3.44289 0
M  V30 17557 C 1675.48 -3.90699 2.09449 0
M  V30 17558 H 1672.7 -0.503088 0.444008 0
M  V30 17559 H 1675.25 -1.03328 1.76475 0
M  V30 17560 H 1673.4 -3.51305 1.63289 0
M  V30 17561 H 1673.82 -3.56635 3.84593 0
M  V30 17562 H 1675.29 -4.82266 2.68558 0
M  V30 17563 H 1675.77 -4.25536 1.08702 0
M  V30 17564 H 1676.37 -3.41614 2.53338 0
M  V30 17565 N 1674.69 -1.17582 -1.04939 0
M  V30 17566 C 1675.62 -0.918221 -2.14688 0
M  V30 17567 C 1676.6 0.140757 -1.69517 0
M  V30 17568 O 1677.78 -0.0100118 -1.94197 0
M  V30 17569 C 1674.91 -0.433531 -3.44584 0
M  V30 17570 C 1673.87 -1.43199 -4.03334 0
M  V30 17571 C 1673.19 -0.805154 -5.28603 0
M  V30 17572 C 1674.49 -2.80598 -4.40525 0
M  V30 17573 H 1676.19 -1.83604 -2.36495 0
M  V30 17574 H 1673.73 -0.884202 -1.13657 0
M  V30 17575 H 1675.69 -0.240722 -4.20712 0
M  V30 17576 H 1674.41 0.519832 -3.22437 0
M  V30 17577 H 1673.07 -1.61158 -3.29277 0
M  V30 17578 H 1672.72 0.155124 -5.02761 0
M  V30 17579 H 1672.42 -1.4717 -5.68871 0
M  V30 17580 H 1673.94 -0.622677 -6.07417 0
M  V30 17581 H 1675.36 -2.66341 -5.07676 0
M  V30 17582 H 1673.75 -3.43854 -4.91817 0
M  V30 17583 H 1674.82 -3.34815 -3.50752 0
M  V30 17584 N 1676.17 1.23705 -0.976463 0
M  V30 17585 C 1677.4 1.95771 -0.660107 0
M  V30 17586 C 1677.8 1.72541 0.776297 0
M  V30 17587 O 1677.15 1.01134 1.53355 0
M  V30 17588 C 1677.21 3.4892 -0.865752 0
M  V30 17589 C 1676.87 3.95862 -2.28347 0
M  V30 17590 C 1677.87 4.04844 -3.26186 0
M  V30 17591 C 1675.55 4.28953 -2.61351 0
M  V30 17592 C 1677.55 4.46265 -4.55111 0
M  V30 17593 C 1675.24 4.70057 -3.905 0
M  V30 17594 C 1676.23 4.78679 -4.87192 0
M  V30 17595 O 1675.92 5.1886 -6.14035 0
M  V30 17596 H 1675.65 0.630202 -0.244585 0
M  V30 17597 H 1678.21 1.58255 -1.30937 0
M  V30 17598 H 1676.44 3.86372 -0.159321 0
M  V30 17599 H 1678.13 4.02195 -0.547154 0
M  V30 17600 H 1678.89 3.79486 -3.02018 0
M  V30 17601 H 1674.77 4.21456 -1.86803 0
M  V30 17602 H 1678.32 4.5291 -5.30583 0
M  V30 17603 H 1674.21 4.94863 -4.14464 0
M  V30 17604 H 1674.98 5.36984 -6.1773 0
M  V30 17605 N 1677.64 0.747635 1.38738 0
M  V30 17606 C 1678.59 0.11597 2.30508 0
M  V30 17607 C 1679.56 -0.716088 1.49871 0
M  V30 17608 O 1680.75 -0.673446 1.7852 0
M  V30 17609 C 1677.89 -0.775765 3.36268 0
M  V30 17610 C 1677 0.070275 4.31943 0
M  V30 17611 C 1676.13 -0.823908 5.24772 0
M  V30 17612 C 1675.17 0.0261249 6.12094 0
M  V30 17613 N 1674.31 -0.824688 6.9724 0
M  V30 17614 H 1679.15 0.904158 2.83952 0
M  V30 17615 H 1676.69 0.457513 1.39804 0
M  V30 17616 H 1678.64 -1.30735 3.96187 0
M  V30 17617 H 1677.27 -1.5298 2.84248 0
M  V30 17618 H 1676.33 0.719421 3.73535 0
M  V30 17619 H 1677.64 0.726987 4.93474 0
M  V30 17620 H 1676.79 -1.42287 5.89779 0
M  V30 17621 H 1675.53 -1.51437 4.63593 0
M  V30 17622 H 1674.54 0.637803 5.46088 0
M  V30 17623 H 1675.76 0.713556 6.75341 0
M  V30 17624 H 1673.71 -1.50021 6.38616 0
M  V30 17625 H 1673.62 -0.22474 7.55666 0
M  V30 17626 H 1674.89 -1.40882 7.66663 0
M  V30 17627 N 1679.12 -1.49583 0.496242 0
M  V30 17628 C 1680.07 -2.30677 -0.298474 0
M  V30 17629 C 1681.06 -1.39074 -0.967207 0
M  V30 17630 O 1682.27 -1.56147 -0.895439 0
M  V30 17631 H 1678.64 -0.743138 -0.11511 0
M  V30 17632 H 1680.62 -2.95632 0.405533 0
M  V30 17633 C 1679.36 -3.20297 -1.35297 0
M  V30 17634 H 1678.69 -3.90708 -0.847789 0
M  V30 17635 H 1680.13 -3.79987 -1.88111 0
M  V30 17636 C 1678.59 -2.39584 -2.36857 0
M  V30 17637 O 1679.12 -2.09662 -3.42644 0
M  V30 17638 N 1677.32 -2.01695 -2.09206 0
M  V30 17639 H 1676.87 -2.26229 -1.23201 0
M  V30 17640 H 1676.83 -1.47998 -2.77388 0
M  V30 17641 N 1680.6 -0.229873 -1.55915 0
M  V30 17642 C 1681.85 0.398775 -1.98127 0
M  V30 17643 C 1682.17 1.597 -1.11897 0
M  V30 17644 O 1681.44 1.94898 -0.197868 0
M  V30 17645 H 1680.02 0.150323 -0.731719 0
M  V30 17646 H 1682.68 -0.324704 -1.92176 0
M  V30 17647 H 1681.78 0.719475 -3.03694 0
M  V30 17648 N 1682.08 1.5754 0.0434337 0
M  V30 17649 C 1682.99 2.08996 1.06574 0
M  V30 17650 C 1684 1.02544 1.40573 0
M  V30 17651 O 1685.18 1.34192 1.50181 0
M  V30 17652 C 1682.24 2.54723 2.35196 0
M  V30 17653 C 1681.31 3.75595 2.0791 0
M  V30 17654 C 1680.54 4.19132 3.304 0
M  V30 17655 O 1680.76 3.62303 4.40559 0
M  V30 17656 O 1679.7 5.11694 3.16944 0
M  V30 17657 H 1683.52 2.96475 0.658503 0
M  V30 17658 H 1681.11 1.47129 0.259475 0
M  V30 17659 H 1682.99 2.84529 3.1084 0
M  V30 17660 H 1681.66 1.70361 2.75243 0
M  V30 17661 H 1680.57 3.5083 1.2988 0
M  V30 17662 H 1681.9 4.60897 1.72727 0
M  V30 17663 N 1683.56 -0.31543 1.54411 0
M  V30 17664 C 1684.49 -1.39353 1.87358 0
M  V30 17665 C 1685.47 -1.53586 0.731118 0
M  V30 17666 O 1686.65 -1.67332 0.98558 0
M  V30 17667 C 1683.78 -2.75998 2.10814 0
M  V30 17668 C 1682.74 -2.76545 3.2666 0
M  V30 17669 C 1682.06 -4.16343 3.35504 0
M  V30 17670 C 1683.36 -2.39567 4.64117 0
M  V30 17671 H 1685.06 -1.12028 2.77651 0
M  V30 17672 H 1682.6 -0.537476 1.33593 0
M  V30 17673 H 1684.55 -3.51491 2.32447 0
M  V30 17674 H 1683.28 -3.04817 1.17278 0
M  V30 17675 H 1681.94 -2.03507 3.04927 0
M  V30 17676 H 1681.59 -4.42316 2.39512 0
M  V30 17677 H 1681.29 -4.17613 4.13368 0
M  V30 17678 H 1682.81 -4.93637 3.59381 0
M  V30 17679 H 1684.22 -3.04775 4.85577 0
M  V30 17680 H 1682.62 -2.52075 5.4459 0
M  V30 17681 H 1683.69 -1.34707 4.65813 0
M  V30 17682 N 1685.03 -1.46622 -0.577906 0
M  V30 17683 C 1686.28 -1.52406 -1.33792 0
M  V30 17684 C 1686.61 -0.177147 -1.9339 0
M  V30 17685 O 1685.89 0.81197 -1.76741 0
M  V30 17686 C 1686.17 -2.62633 -2.46366 0
M  V30 17687 C 1686.02 -4.06871 -1.91771 0
M  V30 17688 C 1687.34 -2.68909 -3.4839 0
M  V30 17689 H 1684.46 -0.554833 -0.485107 0
M  V30 17690 H 1687.1 -1.78582 -0.648739 0
M  V30 17691 H 1685.25 -2.40444 -3.05154 0
M  V30 17692 H 1686.93 -4.40361 -1.37403 0
M  V30 17693 H 1685.17 -4.16124 -1.2257 0
M  V30 17694 H 1685.84 -4.79734 -2.73056 0
M  V30 17695 H 1688.32 -2.88868 -2.9949 0
M  V30 17696 H 1687.19 -3.47846 -4.24611 0
M  V30 17697 H 1687.45 -1.75148 -4.05925 0
M  V30 17698 N 1686.51 0.822941 -1.34408 0
M  V30 17699 C 1687.76 1.58107 -1.2796 0
M  V30 17700 C 1688.11 1.91821 0.149148 0
M  V30 17701 O 1687.41 1.57198 1.09541 0
M  V30 17702 C 1687.6 2.88915 -2.10388 0
M  V30 17703 C 1687.43 2.67979 -3.61133 0
M  V30 17704 C 1686.2 2.64714 -4.30412 0
M  V30 17705 C 1688.4 2.39495 -4.55134 0
M  V30 17706 N 1686.38 2.35323 -5.67006 0
M  V30 17707 C 1687.75 2.19799 -5.79732 0
M  V30 17708 C 1689.81 2.25223 -4.44048 0
M  V30 17709 C 1688.51 1.87276 -6.94493 0
M  V30 17710 C 1690.53 1.94096 -5.58642 0
M  V30 17711 C 1689.9 1.75223 -6.82258 0
M  V30 17712 H 1686 0.580949 -0.523472 0
M  V30 17713 H 1688.58 0.964711 -1.6912 0
M  V30 17714 H 1686.75 3.48474 -1.71525 0
M  V30 17715 H 1688.48 3.543 -1.95585 0
M  V30 17716 H 1685.24 2.78787 -3.82851 0
M  V30 17717 H 1685.66 2.23468 -6.39055 0
M  V30 17718 H 1690.3 2.38519 -3.49097 0
M  V30 17719 H 1688.02 1.72717 -7.89427 0
M  V30 17720 H 1691.61 1.83784 -5.5201 0
M  V30 17721 H 1690.49 1.51485 -7.6943 0
M  V30 17722 N 1687.99 1.18137 1.04314 0
M  V30 17723 C 1689.24 0.973277 1.77121 0
M  V30 17724 C 1689.56 -0.498558 1.88519 0
M  V30 17725 O 1688.83 -1.36168 1.40837 0
M  V30 17726 H 1687.41 0.35712 0.656105 0
M  V30 17727 H 1690.07 1.48774 1.25906 0
M  V30 17728 H 1689.17 1.40917 2.78476 0
M  V30 17729 N 1689.47 -1.23186 0.98301 0
M  V30 17730 C 1690.7 -1.95702 0.671453 0
M  V30 17731 C 1691.11 -1.72737 -0.76206 0
M  V30 17732 O 1690.47 -1.02037 -1.5131 0
M  V30 17733 C 1690.52 -3.48642 0.955573 0
M  V30 17734 O 1690.24 -3.70829 2.33275 0
M  V30 17735 C 1691.74 -4.38354 0.660333 0
M  V30 17736 H 1688.96 -0.623006 0.249209 0
M  V30 17737 H 1691.51 -1.56606 1.3151 0
M  V30 17738 H 1689.66 -3.85743 0.357892 0
M  V30 17739 H 1690.07 -4.65104 2.42443 0
M  V30 17740 H 1691.55 -5.44456 0.909477 0
M  V30 17741 H 1692.03 -4.37323 -0.405615 0
M  V30 17742 H 1692.63 -4.06864 1.23861 0
M  V30 17743 N 1690.95 -0.754982 -1.38339 0
M  V30 17744 C 1692.36 -0.379276 -1.82807 0
M  V30 17745 C 1692.71 1.09228 -1.62984 0
M  V30 17746 O 1691.83 1.84445 -1.13177 0
M  V30 17747 C 1692.43 -0.681628 -3.31872 0
M  V30 17748 C 1690.99 -0.359183 -3.74682 0
M  V30 17749 C 1690.13 -0.93409 -2.61094 0
M  V30 17750 H 1693.09 -0.951019 -1.27048 0
M  V30 17751 H 1693.11 0.0396803 -3.80479 0
M  V30 17752 H 1692.62 -1.75271 -3.46268 0
M  V30 17753 H 1690.72 0.705257 -3.65865 0
M  V30 17754 H 1690.83 -0.85571 -4.71396 0
M  V30 17755 H 1689.2 -0.359379 -2.52152 0
M  V30 17756 H 1689.98 -2.01023 -2.78289 0
M  V30 17757 N 1692.42 1.49318 -0.504168 0
M  V30 17758 C 1693.84 1.86612 -0.0571729 0
M  V30 17759 C 1694.19 1.4162 1.35787 0
M  V30 17760 O 1693.31 0.79548 2.01249 0
M  V30 17761 C 1693.91 3.38661 -0.0969773 0
M  V30 17762 C 1692.47 3.75245 0.294692 0
M  V30 17763 C 1691.61 2.7332 -0.468125 0
M  V30 17764 H 1694.56 1.4159 -0.716788 0
M  V30 17765 H 1694.58 3.74051 0.697569 0
M  V30 17766 H 1694.1 3.71377 -1.12698 0
M  V30 17767 H 1692.2 3.48138 1.32781 0
M  V30 17768 H 1692.31 4.79092 -0.0269621 0
M  V30 17769 H 1690.67 2.54567 0.0824379 0
M  V30 17770 H 1691.46 3.0888 -1.49827 0
M  V30 17771 N 1693.9 0.238138 1.5579 0
M  V30 17772 C 1695.15 -0.388263 1.98335 0
M  V30 17773 C 1695.47 -1.59104 1.12743 0
M  V30 17774 O 1694.74 -1.9479 0.208201 0
M  V30 17775 H 1693.32 -0.14644 0.732505 0
M  V30 17776 H 1695.98 0.334891 1.92001 0
M  V30 17777 H 1695.08 -0.703359 3.04071 0
M  V30 17778 N 1695.38 -1.57561 -0.0350783 0
M  V30 17779 C 1696.63 -1.88623 -0.725659 0
M  V30 17780 C 1696.95 -0.835055 -1.76215 0
M  V30 17781 O 1696.22 0.13206 -1.95454 0
M  V30 17782 H 1694.8 -0.696108 -0.271004 0
M  V30 17783 H 1697.46 -1.949 -0.00245508 0
M  V30 17784 H 1696.56 -2.8731 -1.21899 0
M  V30 17785 N 1696.86 0.307236 -1.54576 0
M  V30 17786 C 1698.09 1.06233 -1.77545 0
M  V30 17787 C 1698.5 1.81153 -0.5319 0
M  V30 17788 O 1697.86 1.75573 0.498044 0
M  V30 17789 C 1697.91 2.04775 -2.97908 0
M  V30 17790 O 1697.63 1.32896 -4.17457 0
M  V30 17791 C 1699.13 2.92373 -3.33216 0
M  V30 17792 H 1696.35 0.315318 -0.592297 0
M  V30 17793 H 1698.9 0.348403 -2.0151 0
M  V30 17794 H 1697.05 2.71679 -2.76169 0
M  V30 17795 H 1697.46 1.99022 -4.85274 0
M  V30 17796 H 1698.94 3.5738 -4.20694 0
M  V30 17797 H 1699.42 3.60343 -2.51097 0
M  V30 17798 H 1700.02 2.31009 -3.57093 0
M  V30 17799 N 1698.34 1.46926 0.570122 0
M  V30 17800 C 1699.25 1.6105 1.70587 0
M  V30 17801 C 1700.26 0.493636 1.66851 0
M  V30 17802 O 1701.44 0.759454 1.86532 0
M  V30 17803 C 1698.5 1.60913 3.07096 0
M  V30 17804 C 1697.56 2.83928 3.21999 0
M  V30 17805 C 1696.8 2.83788 4.51996 0
M  V30 17806 O 1697.02 1.93256 5.36664 0
M  V30 17807 O 1695.95 3.75491 4.70415 0
M  V30 17808 H 1699.78 2.57126 1.61616 0
M  V30 17809 H 1697.37 1.29863 0.738637 0
M  V30 17810 H 1699.25 1.63576 3.88356 0
M  V30 17811 H 1697.92 0.680005 3.16477 0
M  V30 17812 H 1696.83 2.86814 2.40185 0
M  V30 17813 H 1698.16 3.76091 3.17516 0
M  V30 17814 N 1699.82 -0.815801 1.34842 0
M  V30 17815 C 1701.23 -1.38911 1.24742 0
M  V30 17816 C 1701.58 -1.95807 -0.124101 0
M  V30 17817 O 1700.7 -1.906 -1.02472 0
M  V30 17818 C 1701.3 -2.52532 2.25861 0
M  V30 17819 C 1699.86 -3.05751 2.1953 0
M  V30 17820 C 1699 -1.78661 2.12075 0
M  V30 17821 H 1701.95 -0.619601 1.46105 0
M  V30 17822 H 1701.98 -3.30826 1.87974 0
M  V30 17823 H 1701.49 -2.11092 3.25671 0
M  V30 17824 H 1699.59 -3.51678 1.23099 0
M  V30 17825 H 1699.7 -3.64358 3.11095 0
M  V30 17826 H 1698.07 -1.99844 1.57907 0
M  V30 17827 H 1698.85 -1.39385 3.1373 0
M  V30 17828 N 1701.29 -1.18689 -1.03686 0
M  V30 17829 C 1702.2 -0.932473 -2.15272 0
M  V30 17830 C 1703.22 0.104751 -1.73684 0
M  V30 17831 O 1704.4 -0.0780471 -2.01249 0
M  V30 17832 C 1701.46 -0.465807 -3.43557 0
M  V30 17833 C 1700.52 -1.57146 -3.99504 0
M  V30 17834 C 1699.75 -1.12696 -5.21666 0
M  V30 17835 O 1699.98 0.0127657 -5.70399 0
M  V30 17836 O 1698.91 -1.92627 -5.70244 0
M  V30 17837 H 1702.74 -1.86626 -2.39592 0
M  V30 17838 H 1700.32 -0.969029 -1.13711 0
M  V30 17839 H 1702.2 -0.213819 -4.20857 0
M  V30 17840 H 1700.88 0.43964 -3.20701 0
M  V30 17841 H 1699.79 -1.8775 -3.23575 0
M  V30 17842 H 1701.12 -2.45317 -4.26709 0
M  V30 17843 N 1702.77 1.22662 -0.989529 0
M  V30 17844 C 1703.68 2.28162 -0.545835 0
M  V30 17845 C 1704.7 1.69251 0.403762 0
M  V30 17846 O 1705.87 1.99563 0.271428 0
M  V30 17847 C 1702.94 3.46434 0.135808 0
M  V30 17848 C 1702 4.20673 -0.85633 0
M  V30 17849 C 1701.23 5.33298 -0.207121 0
M  V30 17850 O 1701.46 5.6157 0.99975 0
M  V30 17851 O 1700.39 5.94977 -0.910288 0
M  V30 17852 H 1704.22 2.68276 -1.42344 0
M  V30 17853 H 1701.8 1.28766 -0.757609 0
M  V30 17854 H 1703.68 4.18207 0.517776 0
M  V30 17855 H 1702.36 3.08252 0.988035 0
M  V30 17856 H 1701.26 3.51186 -1.28917 0
M  V30 17857 H 1702.6 4.62726 -1.67765 0
M  V30 17858 N 1704.25 0.762308 1.37937 0
M  V30 17859 C 1705.66 0.388966 1.82603 0
M  V30 17860 C 1706.01 -1.08362 1.63561 0
M  V30 17861 O 1705.14 -1.83842 1.14154 0
M  V30 17862 C 1705.73 0.699218 3.31506 0
M  V30 17863 C 1704.29 0.379048 3.74487 0
M  V30 17864 C 1703.44 0.947924 2.60595 0
M  V30 17865 H 1706.39 0.957743 1.26542 0
M  V30 17866 H 1706.41 -0.019502 3.80495 0
M  V30 17867 H 1705.92 1.77105 3.45334 0
M  V30 17868 H 1704.02 -0.685844 3.66233 0
M  V30 17869 H 1704.14 0.880697 4.70936 0
M  V30 17870 H 1702.5 0.372746 2.51958 0
M  V30 17871 H 1703.28 2.02496 2.77219 0
M  V30 17872 N 1705.73 -1.49049 0.51208 0
M  V30 17873 C 1706.64 -2.33102 -0.264695 0
M  V30 17874 C 1707.65 -1.45347 -0.956571 0
M  V30 17875 O 1708.83 -1.78355 -0.935501 0
M  V30 17876 C 1705.89 -3.21051 -1.30871 0
M  V30 17877 C 1704.96 -4.24666 -0.629094 0
M  V30 17878 C 1704.19 -5.08412 -1.62337 0
M  V30 17879 O 1704.41 -4.93847 -2.85432 0
M  V30 17880 O 1703.35 -5.90368 -1.17259 0
M  V30 17881 H 1707.17 -3.00732 0.423585 0
M  V30 17882 H 1704.76 -1.4688 0.273246 0
M  V30 17883 H 1706.64 -3.75503 -1.91248 0
M  V30 17884 H 1705.31 -2.56103 -1.97972 0
M  V30 17885 H 1704.22 -3.74097 0.0147056 0
M  V30 17886 H 1705.55 -4.922 -0.000339859 0
M  V30 17887 N 1707.21 -0.246397 -1.55662 0
M  V30 17888 C 1708.12 0.664125 -2.25003 0
M  V30 17889 C 1709.13 1.19368 -1.26598 0
M  V30 17890 O 1710.31 1.23006 -1.59473 0
M  V30 17891 C 1707.37 1.8446 -2.93557 0
M  V30 17892 C 1706.43 1.35456 -4.0737 0
M  V30 17893 C 1705.67 2.47877 -4.72645 0
M  V30 17894 O 1705.89 3.66594 -4.36995 0
M  V30 17895 O 1704.82 2.17663 -5.61165 0
M  V30 17896 H 1708.65 0.103277 -3.03524 0
M  V30 17897 H 1706.23 -0.0149207 -1.49393 0
M  V30 17898 H 1708.12 2.53349 -3.36737 0
M  V30 17899 H 1706.79 2.39308 -2.17976 0
M  V30 17900 H 1705.7 0.632958 -3.68706 0
M  V30 17901 H 1707.03 0.852175 -4.84767 0
M  V30 17902 N 1708.68 1.57577 0.026722 0
M  V30 17903 C 1710.09 1.77689 0.573022 0
M  V30 17904 C 1710.45 0.877771 1.7547 0
M  V30 17905 O 1709.57 0.0732156 2.16276 0
M  V30 17906 C 1710.17 3.22239 1.0463 0
M  V30 17907 C 1708.72 3.4354 1.5381 0
M  V30 17908 C 1707.87 2.73163 0.47722 0
M  V30 17909 H 1710.82 1.57441 -0.199502 0
M  V30 17910 H 1710.84 3.28882 1.91355 0
M  V30 17911 H 1710.36 3.87654 0.186047 0
M  V30 17912 H 1708.46 2.83304 2.42012 0
M  V30 17913 H 1708.57 4.52158 1.58398 0
M  V30 17914 H 1706.93 2.37004 0.932793 0
M  V30 17915 H 1707.72 3.41261 -0.373605 0
M  V30 17916 N 1710.16 -0.299034 1.54737 0
M  V30 17917 C 1711.07 -1.39141 1.88884 0
M  V30 17918 C 1712.09 -1.55377 0.783203 0
M  V30 17919 O 1713.26 -1.70003 1.07985 0
M  V30 17920 C 1710.33 -2.73487 2.13087 0
M  V30 17921 C 1709.39 -2.66219 3.36788 0
M  V30 17922 C 1708.62 -3.94158 3.59827 0
M  V30 17923 O 1708.85 -4.9361 2.85841 0
M  V30 17924 O 1707.78 -3.95933 4.53344 0
M  V30 17925 H 1711.61 -1.13184 2.81821 0
M  V30 17926 H 1709.19 -0.495271 1.40952 0
M  V30 17927 H 1711.07 -3.5297 2.30195 0
M  V30 17928 H 1709.75 -2.99283 1.23335 0
M  V30 17929 H 1708.65 -1.85201 3.25041 0
M  V30 17930 H 1709.99 -2.45376 4.26675 0
M  V30 17931 N 1711.64 -1.47227 -0.562322 0
M  V30 17932 C 1712.55 -1.61953 -1.69731 0
M  V30 17933 C 1713.57 -0.502478 -1.66587 0
M  V30 17934 O 1714.74 -0.769335 -1.86127 0
M  V30 17935 C 1711.81 -1.62539 -3.06238 0
M  V30 17936 C 1710.87 -2.85632 -3.20489 0
M  V30 17937 C 1710.1 -2.86181 -4.50485 0
M  V30 17938 O 1710.32 -1.96099 -5.35632 0
M  V30 17939 O 1709.26 -3.7798 -4.68417 0
M  V30 17940 H 1713.08 -2.5798 -1.6025 0
M  V30 17941 H 1710.67 -1.30253 -0.73174 0
M  V30 17942 H 1712.55 -1.65634 -3.87483 0
M  V30 17943 H 1711.23 -0.696779 -3.16112 0
M  V30 17944 H 1710.13 -2.88084 -2.3866 0
M  V30 17945 H 1711.47 -3.7777 -3.15517 0
M  V30 17946 N 1713.12 0.808639 -1.35273 0
M  V30 17947 C 1714.53 1.38248 -1.25477 0
M  V30 17948 C 1714.88 1.9587 0.113715 0
M  V30 17949 O 1714 1.91141 1.0146 0
M  V30 17950 C 1714.6 2.5133 -2.27197 0
M  V30 17951 C 1713.16 3.04582 -2.21148 0
M  V30 17952 C 1712.31 1.77534 -2.13019 0
M  V30 17953 H 1715.26 0.611844 -1.46431 0
M  V30 17954 H 1715.28 3.29825 -1.89726 0
M  V30 17955 H 1714.79 2.09362 -3.26786 0
M  V30 17956 H 1712.89 3.5102 -1.24963 0
M  V30 17957 H 1713 3.62703 -3.13023 0
M  V30 17958 H 1711.37 1.99004 -1.58964 0
M  V30 17959 H 1712.15 1.3772 -3.14465 0
M  V30 17960 N 1714.6 1.19237 1.03055 0
M  V30 17961 C 1715.51 0.943876 2.14775 0
M  V30 17962 C 1716.52 -0.0955384 1.73738 0
M  V30 17963 O 1717.7 0.0887187 2.01204 0
M  V30 17964 C 1714.76 0.48402 3.43305 0
M  V30 17965 C 1713.82 1.59262 3.98665 0
M  V30 17966 C 1713.06 1.15461 5.21061 0
M  V30 17967 O 1713.28 0.0174841 5.70397 0
M  V30 17968 O 1712.21 1.95648 5.69215 0
M  V30 17969 H 1716.04 1.87894 2.38599 0
M  V30 17970 H 1713.63 0.975046 1.13195 0
M  V30 17971 H 1715.51 0.236135 4.20738 0
M  V30 17972 H 1714.18 -0.422626 3.20929 0
M  V30 17973 H 1713.09 1.89464 3.22574 0
M  V30 17974 H 1714.42 2.47576 4.25402 0
M  V30 17975 N 1716.07 -1.22136 0.99602 0
M  V30 17976 C 1716.98 -2.27869 0.557927 0
M  V30 17977 C 1718 -1.69462 -0.394781 0
M  V30 17978 O 1719.18 -1.99704 -0.26084 0
M  V30 17979 C 1716.24 -3.46501 -0.117434 0
M  V30 17980 C 1715.3 -4.20213 0.878627 0
M  V30 17981 C 1714.54 -5.33181 0.2354 0
M  V30 17982 O 1714.76 -5.62093 -0.969954 0
M  V30 17983 O 1713.69 -5.94486 0.941828 0
M  V30 17984 H 1717.52 -2.67517 1.43765 0
M  V30 17985 H 1715.1 -1.28362 0.764428 0
M  V30 17986 H 1716.99 -4.18476 -0.49559 0
M  V30 17987 H 1715.66 -3.08772 -0.971674 0
M  V30 17988 H 1714.57 -3.50497 1.30777 0
M  V30 17989 H 1715.9 -4.6183 1.70217 0
M  V30 17990 N 1717.55 -0.769612 -1.37531 0
M  V30 17991 C 1718.96 -0.398644 -1.82394 0
M  V30 17992 C 1719.31 1.07493 -1.64133 0
M  V30 17993 O 1718.44 1.83234 -1.15127 0
M  V30 17994 C 1719.03 -0.716789 -3.31131 0
M  V30 17995 C 1717.59 -0.398903 -3.7428 0
M  V30 17996 C 1716.74 -0.96173 -2.60089 0
M  V30 17997 H 1719.69 -0.964441 -1.26033 0
M  V30 17998 H 1719.71 -0.00067688 -3.805 0
M  V30 17999 H 1719.22 -1.78933 -3.4439 0
M  V30 18000 H 1717.33 0.666412 -3.66592 0
M  V30 18001 H 1717.44 -0.90566 -4.70462 0
M  V30 18002 H 1715.8 -0.386103 -2.51757 0
M  V30 18003 H 1716.59 -2.03963 -2.76141 0
M  V30 18004 N 1719.03 1.48775 -0.519977 0
M  V30 18005 C 1719.99 2.27967 0.237405 0
M  V30 18006 C 1720.99 1.34787 0.876868 0
M  V30 18007 O 1722.18 1.57773 0.738463 0
M  V30 18008 C 1719.32 3.13353 1.34248 0
M  V30 18009 H 1720.51 2.96386 -0.457753 0
M  V30 18010 H 1718.06 1.53852 -0.275569 0
M  V30 18011 H 1718.8 2.49543 2.0712 0
M  V30 18012 H 1718.58 3.81885 0.889187 0
M  V30 18013 H 1720.07 3.73116 1.87547 0
M  V30 18014 N 1720.51 0.254649 1.55529 0
M  V30 18015 C 1721.76 -0.368461 1.98306 0
M  V30 18016 C 1722.07 -1.585 1.14617 0
M  V30 18017 O 1723.28 -2.27975 1.47443 0
M  V30 18018 C 1721.73 -0.70693 3.52889 0
M  V30 18019 C 1721.34 0.488648 4.45327 0
M  V30 18020 C 1723.08 -1.2938 4.04303 0
M  V30 18021 C 1720.99 0.125903 5.91266 0
M  V30 18022 H 1719.92 -0.141444 0.740614 0
M  V30 18023 H 1722.57 0.356085 1.80012 0
M  V30 18024 H 1720.95 -1.48982 3.66907 0
M  V30 18025 H 1722.13 1.26587 4.43071 0
M  V30 18026 H 1720.44 0.990969 4.04436 0
M  V30 18027 H 1723.04 -1.57866 5.10864 0
M  V30 18028 H 1723.38 -2.22088 3.52112 0
M  V30 18029 H 1723.92 -0.573647 3.93642 0
M  V30 18030 H 1720.66 1.02032 6.4751 0
M  V30 18031 H 1720.18 -0.614969 5.96639 0
M  V30 18032 H 1721.85 -0.289174 6.46353 0
M  V30 18033 N 1721.99 -1.57589 -0.0183649 0
M  V30 18034 C 1723.23 -1.90038 -0.708056 0
M  V30 18035 C 1723.57 -0.853686 -1.7443 0
M  V30 18036 O 1722.84 0.12994 -1.94065 0
M  V30 18037 C 1723.12 -3.33107 -1.3679 0
M  V30 18038 C 1722.98 -4.48479 -0.344448 0
M  V30 18039 C 1724.3 -3.75276 -2.29904 0
M  V30 18040 H 1721.41 -0.691134 -0.255934 0
M  V30 18041 H 1724.06 -1.89978 0.0291579 0
M  V30 18042 H 1722.21 -3.33289 -1.99626 0
M  V30 18043 H 1723.88 -4.60432 0.282816 0
M  V30 18044 H 1722.12 -4.32503 0.335196 0
M  V30 18045 H 1722.79 -5.45497 -0.844832 0
M  V30 18046 H 1725.27 -3.76529 -1.77103 0
M  V30 18047 H 1724.14 -4.76168 -2.73049 0
M  V30 18048 H 1724.41 -3.08124 -3.17036 0
M  V30 18049 N 1723.46 0.290824 -1.54893 0
M  V30 18050 C 1724.69 1.04193 -1.78402 0
M  V30 18051 C 1725.1 1.81071 -0.548631 0
M  V30 18052 O 1724.45 1.77005 0.491403 0
M  V30 18053 C 1724.51 2.06122 -2.94541 0
M  V30 18054 C 1724.17 1.48346 -4.32253 0
M  V30 18055 C 1725.17 0.908243 -5.11905 0
M  V30 18056 C 1722.85 1.51602 -4.78876 0
M  V30 18057 C 1724.85 0.373282 -6.36306 0
M  V30 18058 C 1722.53 0.977194 -6.03236 0
M  V30 18059 C 1723.53 0.406805 -6.81787 0
M  V30 18060 O 1723.22 -0.123821 -8.03805 0
M  V30 18061 H 1722.95 0.314317 -0.598482 0
M  V30 18062 H 1725.51 0.332504 -2.02691 0
M  V30 18063 H 1723.74 2.80773 -2.65901 0
M  V30 18064 H 1725.43 2.67216 -3.05533 0
M  V30 18065 H 1726.19 0.875912 -4.77025 0
M  V30 18066 H 1722.07 1.94938 -4.17756 0
M  V30 18067 H 1725.61 -0.0725714 -6.97562 0
M  V30 18068 H 1721.51 1.00671 -6.37602 0
M  V30 18069 H 1722.28 -0.0114852 -8.18499 0
M  V30 18070 N 1724.94 1.47523 0.554506 0
M  V30 18071 C 1726.19 1.53982 1.30897 0
M  V30 18072 C 1726.51 0.20487 1.93921 0
M  V30 18073 O 1725.78 -0.771422 1.80072 0
M  V30 18074 H 1724.36 0.567206 0.486092 0
M  V30 18075 H 1727.02 1.83838 0.647284 0
M  V30 18076 H 1726.12 2.30783 2.10109 0
M  V30 18077 N 1726.42 -0.801453 1.357 0
M  V30 18078 C 1727.7 -1.54605 1.19819 0
M  V30 18079 C 1728.08 -2.09944 -0.220593 0
M  V30 18080 O 1727.43 -1.92904 -1.22475 0
M  V30 18081 C 1727.64 -2.65052 2.27043 0
M  V30 18082 C 1728.98 -3.33255 2.63109 0
M  V30 18083 O 1730.01 -2.75326 2.25995 0
M  V30 18084 O 1728.87 -4.37917 3.26942 0
M  V30 18085 H 1725.96 -0.68334 0.465807 0
M  V30 18086 H 1728.51 -0.840972 1.47397 0
M  V30 18087 H 1727.28 -2.22068 3.22182 0
M  V30 18088 H 1726.9 -3.4319 2.00764 0
M  V30 18089 N 1727.9 -1.19782 -1.02421 0
M  V30 18090 C 1729.14 -1.0145 -1.77446 0
M  V30 18091 C 1729.5 0.44637 -1.86739 0
M  V30 18092 O 1730.7 0.749639 -2.58135 0
M  V30 18093 C 1728.97 -1.67055 -3.15955 0
M  V30 18094 S 1730.53 -1.63725 -4.07111 0
M  V30 18095 H 1727.35 -0.363945 -0.610791 0
M  V30 18096 H 1729.95 -1.52209 -1.2269 0
M  V30 18097 H 1728.66 -2.72571 -3.06811 0
M  V30 18098 H 1728.19 -1.16396 -3.75787 0
M  V30 18099 H 1730.2 -0.664732 -4.91727 0
M  V30 18100 N 1729.38 1.21606 -1.00248 0
M  V30 18101 C 1730.33 2.2591 -0.553856 0
M  V30 18102 C 1731.32 1.64602 0.400323 0
M  V30 18103 O 1732.53 1.77936 0.271792 0
M  V30 18104 H 1728.9 0.734618 -0.160749 0
M  V30 18105 H 1730.87 2.61091 -1.44479 0
M  V30 18106 C 1729.62 3.47537 0.106293 0
M  V30 18107 H 1728.94 3.94981 -0.61889 0
M  V30 18108 H 1730.38 4.22262 0.383514 0
M  V30 18109 C 1728.84 3.08901 1.34469 0
M  V30 18110 O 1729.37 3.1916 2.43926 0
M  V30 18111 N 1727.58 2.63588 1.2235 0
M  V30 18112 H 1727.13 2.55441 0.332852 0
M  V30 18113 H 1727.08 2.38106 2.05312 0
M  V30 18114 N 1730.86 0.776895 1.37121 0
M  V30 18115 C 1732.13 0.268067 1.93754 0
M  V30 18116 C 1732.51 -1.23774 1.71007 0
M  V30 18117 O 1731.86 -2.02331 1.0618 0
M  V30 18118 C 1732.07 0.647054 3.42949 0
M  V30 18119 C 1733.42 0.619737 4.20053 0
M  V30 18120 O 1734.44 0.586757 3.51334 0
M  V30 18121 O 1733.3 0.651412 5.42604 0
M  V30 18122 H 1730.4 0.0631883 0.824582 0
M  V30 18123 H 1732.94 0.858594 1.46377 0
M  V30 18124 H 1731.71 1.68608 3.5311 0
M  V30 18125 H 1731.34 0.0297448 3.97589 0
M  V30 18126 N 1732.33 -1.48497 0.527859 0
M  V30 18127 C 1733.61 -1.9547 -0.0713049 0
M  V30 18128 C 1733.99 -1.47005 -1.51502 0
M  V30 18129 O 1733.34 -0.695609 -2.17655 0
M  V30 18130 C 1733.55 -3.48973 0.0437547 0
M  V30 18131 C 1734.9 -4.2444 -0.116591 0
M  V30 18132 O 1735.92 -3.56187 -0.0301431 0
M  V30 18133 O 1734.78 -5.4569 -0.297491 0
M  V30 18134 H 1731.87 -0.823075 -0.080474 0
M  V30 18135 H 1734.42 -1.59028 0.592307 0
M  V30 18136 H 1733.19 -3.76963 1.04952 0
M  V30 18137 H 1732.81 -3.92104 -0.658803 0
M  V30 18138 N 1733.81 -0.262893 -1.55392 0
M  V30 18139 C 1735.06 0.35666 -1.98928 0
M  V30 18140 C 1735.38 1.5729 -1.1526 0
M  V30 18141 O 1734.65 1.94435 -0.239164 0
M  V30 18142 H 1733.23 0.134768 -0.734742 0
M  V30 18143 H 1735.89 -0.365394 -1.91444 0
M  V30 18144 H 1734.99 0.654895 -3.05152 0
M  V30 18145 N 1735.29 1.57597 0.0100073 0
M  V30 18146 C 1736.24 2.07788 1.00463 0
M  V30 18147 C 1737.21 0.971101 1.34755 0
M  V30 18148 O 1738.39 1.2429 1.44764 0
M  V30 18149 C 1735.53 2.57769 2.29454 0
M  V30 18150 C 1734.64 3.8231 2.01153 0
M  V30 18151 C 1733.78 4.2083 3.24154 0
M  V30 18152 C 1732.82 5.38236 2.91494 0
M  V30 18153 N 1731.96 5.72096 4.07001 0
M  V30 18154 H 1736.8 2.92504 0.569675 0
M  V30 18155 H 1734.33 1.44607 0.269645 0
M  V30 18156 H 1736.29 2.84821 3.04849 0
M  V30 18157 H 1734.92 1.75942 2.70637 0
M  V30 18158 H 1733.97 3.62227 1.16171 0
M  V30 18159 H 1735.28 4.67811 1.73074 0
M  V30 18160 H 1734.44 4.49111 4.07902 0
M  V30 18161 H 1733.18 3.34019 3.55363 0
M  V30 18162 H 1732.18 5.09688 2.06151 0
M  V30 18163 H 1733.41 6.26716 2.61543 0
M  V30 18164 H 1731.35 4.88243 4.38126 0
M  V30 18165 H 1731.27 6.52148 3.82411 0
M  V30 18166 H 1732.54 6.04964 4.91567 0
M  V30 18167 N 1736.77 -0.282606 1.55045 0
M  V30 18168 C 1738.01 -1.01698 1.75458 0
M  V30 18169 C 1738.35 -1.86284 0.548808 0
M  V30 18170 O 1737.62 -1.89131 -0.45382 0
M  V30 18171 C 1737.9 -1.90759 3.05423 0
M  V30 18172 C 1737.76 -1.0923 4.36336 0
M  V30 18173 C 1739.08 -2.8963 3.31364 0
M  V30 18174 H 1736.2 -0.368305 0.638373 0
M  V30 18175 H 1738.84 -0.290118 1.87772 0
M  V30 18176 H 1736.99 -2.52734 2.95055 0
M  V30 18177 H 1738.66 -0.493996 4.58647 0
M  V30 18178 H 1736.9 -0.395481 4.31994 0
M  V30 18179 H 1737.57 -1.74842 5.23578 0
M  V30 18180 H 1740.05 -2.37788 3.41462 0
M  V30 18181 H 1738.93 -3.49096 4.23584 0
M  V30 18182 H 1739.19 -3.64255 2.50541 0
M  V30 18183 N 1738.25 -1.47815 -0.546675 0
M  V30 18184 C 1739.19 -1.61513 -1.67381 0
M  V30 18185 C 1740.19 -0.482064 -1.62396 0
M  V30 18186 O 1741.39 -0.660227 -1.67454 0
M  V30 18187 H 1737.77 -0.508484 -0.554029 0
M  V30 18188 H 1739.74 -2.5621 -1.52967 0
M  V30 18189 C 1738.49 -1.65645 -3.05707 0
M  V30 18190 H 1737.81 -2.52186 -3.10229 0
M  V30 18191 H 1739.25 -1.79277 -3.84234 0
M  V30 18192 C 1737.71 -0.391799 -3.34614 0
M  V30 18193 O 1738.24 0.502576 -3.98544 0
M  V30 18194 N 1736.45 -0.268593 -2.89356 0
M  V30 18195 H 1735.99 -0.997347 -2.37509 0
M  V30 18196 H 1735.95 0.5766 -3.09067 0
M  V30 18197 N 1739.72 0.794246 -1.36123 0
M  V30 18198 C 1740.95 1.58813 -1.33391 0
M  V30 18199 C 1741.37 1.87915 0.0834599 0
M  V30 18200 O 1740.73 1.47516 1.05398 0
M  V30 18201 C 1740.78 2.88887 -2.15816 0
M  V30 18202 O 1739.88 3.82271 -1.54734 0
M  V30 18203 H 1739.22 0.481924 -0.456777 0
M  V30 18204 H 1741.75 0.984818 -1.79339 0
M  V30 18205 H 1741.76 3.38201 -2.2822 0
M  V30 18206 H 1740.44 2.67032 -3.18852 0
M  V30 18207 H 1739.02 3.40852 -1.51242 0
M  V30 18208 N 1741.2 1.20323 1.01785 0
M  V30 18209 C 1742.43 1.03821 1.78966 0
M  V30 18210 C 1742.84 -0.412622 1.84236 0
M  V30 18211 O 1742.2 -1.2865 1.29443 0
M  V30 18212 C 1742.25 1.61352 3.23493 0
M  V30 18213 O 1741.97 3.00758 3.18553 0
M  V30 18214 C 1743.47 1.49786 4.17228 0
M  V30 18215 H 1740.69 0.365291 0.562853 0
M  V30 18216 H 1743.24 1.59383 1.2813 0
M  V30 18217 H 1741.39 1.09913 3.71481 0
M  V30 18218 H 1741.81 3.28034 4.09261 0
M  V30 18219 H 1743.28 1.94802 5.16484 0
M  V30 18220 H 1743.76 0.450143 4.36887 0
M  V30 18221 H 1744.36 2.00409 3.75122 0
M  V30 18222 N 1742.68 -1.21073 1.00892 0
M  V30 18223 C 1743.96 -1.85871 0.609214 0
M  V30 18224 C 1744.34 -1.90334 -0.913023 0
M  V30 18225 O 1743.68 -1.40552 -1.80159 0
M  V30 18226 C 1743.89 -3.25918 1.24813 0
M  V30 18227 C 1745.24 -4.02274 1.35871 0
M  V30 18228 O 1746.27 -3.35244 1.20375 0
M  V30 18229 O 1745.13 -5.22296 1.60838 0
M  V30 18230 H 1742.22 -0.800105 0.20919 0
M  V30 18231 H 1744.77 -1.28724 1.10581 0
M  V30 18232 H 1743.54 -3.17392 2.28862 0
M  V30 18233 H 1743.16 -3.90688 0.738124 0
M  V30 18234 N 1744.16 -0.784156 -1.36707 0
M  V30 18235 C 1745.4 -0.354658 -1.99675 0
M  V30 18236 C 1745.74 1.06948 -1.62098 0
M  V30 18237 O 1745.01 1.73798 -0.873192 0
M  V30 18238 C 1745.3 -0.512421 -3.56435 0
M  V30 18239 C 1745.15 -1.97987 -4.03883 0
M  V30 18240 C 1746.47 0.075762 -4.40035 0
M  V30 18241 H 1743.59 -0.130338 -0.725383 0
M  V30 18242 H 1746.23 -0.989515 -1.62199 0
M  V30 18243 H 1744.38 0.0280323 -3.8849 0
M  V30 18244 H 1746.05 -2.58098 -3.82339 0
M  V30 18245 H 1744.29 -2.48433 -3.55617 0
M  V30 18246 H 1744.96 -2.04125 -5.12871 0
M  V30 18247 H 1747.44 -0.385522 -4.1431 0
M  V30 18248 H 1746.32 -0.0646832 -5.48862 0
M  V30 18249 H 1746.58 1.16735 -4.2641 0
M  V30 18250 N 1745.64 1.48215 -0.535727 0
M  V30 18251 C 1746.6 2.28206 0.213212 0
M  V30 18252 C 1747.6 1.3571 0.862522 0
M  V30 18253 O 1748.79 1.58547 0.721688 0
M  V30 18254 C 1745.92 3.1476 1.30917 0
M  V30 18255 H 1747.11 2.95884 -0.489163 0
M  V30 18256 H 1744.67 1.53551 -0.291872 0
M  V30 18257 H 1745.4 2.51726 2.04462 0
M  V30 18258 H 1745.19 3.82806 0.848633 0
M  V30 18259 H 1746.68 3.75085 1.83579 0
M  V30 18260 N 1747.11 0.27113 1.5525 0
M  V30 18261 C 1748.36 -0.347304 1.99804 0
M  V30 18262 C 1748.69 -1.55803 1.15928 0
M  V30 18263 O 1747.97 -1.93154 0.228386 0
M  V30 18264 C 1748.25 -0.733408 3.52552 0
M  V30 18265 C 1748.1 0.48438 4.47184 0
M  V30 18266 C 1749.42 -1.57136 4.11092 0
M  V30 18267 H 1746.54 -0.124762 0.726363 0
M  V30 18268 H 1749.18 0.37728 1.86217 0
M  V30 18269 H 1747.33 -1.35076 3.64262 0
M  V30 18270 H 1749.01 1.12293 4.47424 0
M  V30 18271 H 1747.25 1.12317 4.19008 0
M  V30 18272 H 1747.92 0.170525 5.51737 0
M  V30 18273 H 1750.4 -1.05001 4.02634 0
M  V30 18274 H 1749.27 -1.81033 5.18187 0
M  V30 18275 H 1749.53 -2.55111 3.61069 0
M  V30 18276 N 1748.59 -1.576 -0.00164943 0
M  V30 18277 C 1749.53 -2.0376 -1.02747 0
M  V30 18278 C 1750.5 -0.927146 -1.33577 0
M  V30 18279 O 1751.69 -1.19514 -1.45769 0
M  V30 18280 C 1748.81 -2.43381 -2.35549 0
M  V30 18281 C 1747.86 -3.65143 -2.20392 0
M  V30 18282 S 1748.69 -5.13132 -1.53151 0
M  V30 18283 C 1749.85 -5.56021 -2.87387 0
M  V30 18284 H 1750.08 -2.90452 -0.634417 0
M  V30 18285 H 1747.62 -1.52931 -0.212468 0
M  V30 18286 H 1749.57 -2.66877 -3.11909 0
M  V30 18287 H 1748.23 -1.57091 -2.71995 0
M  V30 18288 H 1747.43 -3.90611 -3.18495 0
M  V30 18289 H 1747.03 -3.41641 -1.52177 0
M  V30 18290 H 1749.32 -5.58381 -3.83689 0
M  V30 18291 H 1750.26 -6.55987 -2.6662 0
M  V30 18292 H 1750.67 -4.83582 -2.9122 0
M  V30 18293 N 1750.07 0.274379 -1.55193 0
M  V30 18294 C 1751.02 1.33913 -1.87978 0
M  V30 18295 C 1751.99 1.49142 -0.731149 0
M  V30 18296 O 1753.17 1.63572 -0.98229 0
M  V30 18297 C 1750.31 2.69464 -2.156 0
M  V30 18298 C 1749.43 2.62468 -3.43125 0
M  V30 18299 C 1748.56 3.90188 -3.60453 0
M  V30 18300 C 1747.6 3.77697 -4.81675 0
M  V30 18301 N 1746.74 4.97249 -4.95669 0
M  V30 18302 H 1751.58 1.05254 -2.78793 0
M  V30 18303 H 1749.11 0.508532 -1.3803 0
M  V30 18304 H 1751.07 3.48329 -2.29614 0
M  V30 18305 H 1749.7 2.96328 -1.28021 0
M  V30 18306 H 1748.75 1.7532 -3.3759 0
M  V30 18307 H 1750.07 2.49137 -4.32125 0
M  V30 18308 H 1749.22 4.77495 -3.74277 0
M  V30 18309 H 1747.96 4.06384 -2.69635 0
M  V30 18310 H 1746.96 2.88774 -4.67857 0
M  V30 18311 H 1748.19 3.63022 -5.73927 0
M  V30 18312 H 1746.13 5.13858 -4.07781 0
M  V30 18313 H 1746.05 4.86444 -5.78712 0
M  V30 18314 H 1747.32 5.86132 -5.13877 0
M  V30 18315 N 1751.55 1.48103 0.538828 0
M  V30 18316 C 1752.96 1.34028 0.866532 0
M  V30 18317 C 1753.16 0.3446 1.98531 0
M  V30 18318 O 1752.22 -0.237347 2.51382 0
M  V30 18319 C 1753.53 2.73833 1.24241 0
M  V30 18320 C 1755.08 2.82256 1.35279 0
M  V30 18321 C 1755.56 4.22744 1.76214 0
M  V30 18322 N 1757.05 4.25374 1.83332 0
M  V30 18323 C 1757.78 5.31009 2.16373 0
M  V30 18324 N 1757.28 6.4693 2.47899 0
M  V30 18325 N 1759.07 5.18397 2.17304 0
M  V30 18326 H 1751.22 2.11461 -0.199502 0
M  V30 18327 H 1753.49 0.947627 -0.0266031 0
M  V30 18328 H 1753.19 3.48213 0.494025 0
M  V30 18329 H 1753.07 3.0679 2.19453 0
M  V30 18330 H 1755.45 2.08137 2.09196 0
M  V30 18331 H 1755.53 2.5293 0.382096 0
M  V30 18332 H 1755.18 4.97375 1.02862 0
M  V30 18333 H 1755.11 4.49507 2.74319 0
M  V30 18334 H 1757.6 3.41755 1.61282 0
M  V30 18335 H 1757.91 7.23279 2.7219 0
M  V30 18336 H 1756.26 6.50219 2.45438 0
M  V30 18337 H 1759.45 4.26855 1.92126 0
M  V30 18338 H 1759.62 6.00824 2.42722 0
M  V30 18339 N 1753.03 -0.787016 1.36542 0
M  V30 18340 C 1754.26 -1.5736 1.33871 0
M  V30 18341 C 1754.66 -1.89024 -0.0814846 0
M  V30 18342 O 1754.01 -1.50771 -1.04947 0
M  V30 18343 C 1754.07 -2.91978 2.09735 0
M  V30 18344 C 1753.73 -2.8303 3.58808 0
M  V30 18345 C 1754.73 -2.55108 4.53008 0
M  V30 18346 C 1752.42 -3.01531 4.01727 0
M  V30 18347 C 1754.41 -2.45793 5.88103 0
M  V30 18348 C 1752.1 -2.91838 5.36911 0
M  V30 18349 C 1753.09 -2.64007 6.29912 0
M  V30 18350 O 1752.78 -2.54312 7.62614 0
M  V30 18351 H 1752.51 -0.494659 0.460748 0
M  V30 18352 H 1755.07 -0.984519 1.80268 0
M  V30 18353 H 1753.3 -3.52946 1.58005 0
M  V30 18354 H 1754.99 -3.53268 1.99891 0
M  V30 18355 H 1755.75 -2.40514 4.21163 0
M  V30 18356 H 1751.63 -3.22199 3.2971 0
M  V30 18357 H 1755.18 -2.23991 6.60662 0
M  V30 18358 H 1751.07 -3.05995 5.68364 0
M  V30 18359 H 1751.84 -2.69776 7.72763 0
M  V30 18360 N 1754.5 -1.20861 -1.01145 0
M  V30 18361 C 1755.43 -0.986058 -2.11658 0
M  V30 18362 C 1756.42 0.0867558 -1.69879 0
M  V30 18363 O 1757.6 -0.0717892 -1.94067 0
M  V30 18364 C 1754.73 -0.542938 -3.4303 0
M  V30 18365 C 1753.68 -1.55958 -3.98574 0
M  V30 18366 C 1753.01 -0.972917 -5.25774 0
M  V30 18367 C 1754.31 -2.94471 -4.31375 0
M  V30 18368 H 1756 -1.91035 -2.30534 0
M  V30 18369 H 1753.55 -0.919914 -1.10786 0
M  V30 18370 H 1755.5 -0.374446 -4.19733 0
M  V30 18371 H 1754.23 0.416988 -3.23927 0
M  V30 18372 H 1752.89 -1.71552 -3.23984 0
M  V30 18373 H 1752.53 -0.00490446 -5.03 0
M  V30 18374 H 1752.23 -1.65194 -5.63901 0
M  V30 18375 H 1753.76 -0.815607 -6.05128 0
M  V30 18376 H 1755.17 -2.82358 -4.98946 0
M  V30 18377 H 1753.57 -3.59327 -4.80629 0
M  V30 18378 H 1754.64 -3.45804 -3.39923 0
M  V30 18379 N 1755.98 1.20536 -1.01532 0
M  V30 18380 C 1756.93 2.23277 -0.584486 0
M  V30 18381 C 1757.9 1.6134 0.394773 0
M  V30 18382 O 1759.08 1.88514 0.294498 0
M  V30 18383 C 1756.22 3.45024 0.0723574 0
M  V30 18384 C 1755.34 4.21395 -0.951314 0
M  V30 18385 C 1754.47 5.30535 -0.265656 0
M  V30 18386 C 1753.51 5.98649 -1.27617 0
M  V30 18387 N 1752.65 6.99381 -0.61727 0
M  V30 18388 H 1757.49 2.59489 -1.46524 0
M  V30 18389 H 1755.03 1.27507 -0.733502 0
M  V30 18390 H 1756.98 4.14541 0.470303 0
M  V30 18391 H 1755.61 3.09508 0.916768 0
M  V30 18392 H 1754.67 3.50957 -1.46743 0
M  V30 18393 H 1755.98 4.68211 -1.71989 0
M  V30 18394 H 1755.13 6.06409 0.187857 0
M  V30 18395 H 1753.87 4.84754 0.535237 0
M  V30 18396 H 1752.88 5.21537 -1.74008 0
M  V30 18397 H 1754.1 6.46516 -2.07832 0
M  V30 18398 H 1752.05 6.55796 0.163777 0
M  V30 18399 H 1751.96 7.44317 -1.32393 0
M  V30 18400 H 1753.23 7.79275 -0.187306 0
M  V30 18401 N 1757.46 0.791395 1.36289 0
M  V30 18402 C 1758.41 0.189246 2.30023 0
M  V30 18403 C 1759.38 -0.668045 1.52074 0
M  V30 18404 O 1760.56 -0.61631 1.80572 0
M  V30 18405 C 1757.7 -0.668391 3.38565 0
M  V30 18406 C 1756.82 0.207659 4.31501 0
M  V30 18407 C 1755.95 -0.656539 5.27127 0
M  V30 18408 C 1754.99 0.220845 6.11701 0
M  V30 18409 N 1754.13 -0.602449 6.99511 0
M  V30 18410 H 1758.97 0.994038 2.80932 0
M  V30 18411 H 1756.5 0.501759 1.38278 0
M  V30 18412 H 1758.46 -1.18064 4.00146 0
M  V30 18413 H 1757.09 -1.43859 2.88971 0
M  V30 18414 H 1756.14 0.837894 3.71057 0
M  V30 18415 H 1757.46 0.883613 4.90911 0
M  V30 18416 H 1756.61 -1.23452 5.94007 0
M  V30 18417 H 1755.35 -1.36611 4.68176 0
M  V30 18418 H 1754.35 0.811214 5.43782 0
M  V30 18419 H 1755.58 0.928049 6.72729 0
M  V30 18420 H 1753.52 -1.29628 6.43065 0
M  V30 18421 H 1753.44 0.015783 7.55998 0
M  V30 18422 H 1754.71 -1.16419 7.70757 0
M  V30 18423 N 1758.94 -1.47929 0.54358 0
M  V30 18424 C 1759.85 -2.33611 -0.215191 0
M  V30 18425 C 1760.87 -1.47343 -0.925526 0
M  V30 18426 O 1762.04 -1.80299 -0.897459 0
M  V30 18427 C 1759.11 -3.23755 -1.24031 0
M  V30 18428 C 1758.17 -4.25904 -0.538874 0
M  V30 18429 C 1757.4 -5.11741 -1.51516 0
M  V30 18430 O 1757.62 -4.9979 -2.74893 0
M  V30 18431 O 1756.56 -5.92722 -1.0471 0
M  V30 18432 H 1760.38 -2.99765 0.487279 0
M  V30 18433 H 1757.97 -1.46267 0.30434 0
M  V30 18434 H 1759.85 -3.79475 -1.8324 0
M  V30 18435 H 1758.53 -2.60245 -1.92495 0
M  V30 18436 H 1757.43 -3.73982 0.0940539 0
M  V30 18437 H 1758.77 -4.9209 0.104063 0
M  V30 18438 N 1760.42 -0.27936 -1.55104 0
M  V30 18439 C 1761.37 0.62221 -2.24123 0
M  V30 18440 C 1762.36 1.15445 -1.23971 0
M  V30 18441 O 1763.57 1.10759 -1.41889 0
M  V30 18442 H 1759.94 0.219212 -0.71934 0
M  V30 18443 H 1761.91 0.0173061 -2.98395 0
M  V30 18444 C 1760.66 1.79301 -2.97903 0
M  V30 18445 H 1759.98 1.39266 -3.7476 0
M  V30 18446 H 1761.42 2.40038 -3.49511 0
M  V30 18447 C 1759.88 2.68405 -2.03618 0
M  V30 18448 O 1760.41 3.68887 -1.59014 0
M  V30 18449 N 1758.62 2.35666 -1.70028 0
M  V30 18450 H 1758.17 1.54003 -2.06497 0
M  V30 18451 H 1758.12 2.95554 -1.07215 0
M  V30 18452 N 1761.9 1.57599 -0.0067085 0
M  V30 18453 C 1763.14 1.9114 0.677733 0
M  V30 18454 C 1763.47 0.881328 1.7305 0
M  V30 18455 O 1762.75 -0.099049 1.94248 0
M  V30 18456 C 1763.03 3.35241 1.31474 0
M  V30 18457 C 1762.89 4.4897 0.273055 0
M  V30 18458 C 1764.2 3.78886 2.23905 0
M  V30 18459 H 1761.32 0.695119 0.244907 0
M  V30 18460 H 1763.97 1.89907 -0.059378 0
M  V30 18461 H 1762.12 3.36423 1.94299 0
M  V30 18462 H 1763.79 4.59924 -0.356031 0
M  V30 18463 H 1762.03 4.31915 -0.403961 0
M  V30 18464 H 1762.7 5.46772 0.757941 0
M  V30 18465 H 1765.18 3.79299 1.7109 0
M  V30 18466 H 1764.05 4.80451 2.65439 0
M  V30 18467 H 1764.31 3.13129 3.12094 0
M  V30 18468 N 1763.37 -0.266145 1.55336 0
M  V30 18469 C 1764.32 -1.349 1.89485 0
M  V30 18470 C 1765.32 -1.50792 0.771882 0
M  V30 18471 O 1766.52 -1.52495 0.956302 0
M  V30 18472 H 1762.9 -0.451312 0.601516 0
M  V30 18473 H 1764.87 -1.03354 2.7993 0
M  V30 18474 C 1763.62 -2.70119 2.18931 0
M  V30 18475 H 1762.94 -2.58684 3.04832 0
M  V30 18476 H 1764.38 -3.44811 2.46742 0
M  V30 18477 C 1762.84 -3.21742 0.999177 0
M  V30 18478 O 1763.37 -4.00998 0.237304 0
M  V30 18479 N 1761.57 -2.79514 0.795013 0
M  V30 18480 H 1761.12 -2.15175 1.41625 0
M  V30 18481 H 1761.08 -3.144 0.000343733 0
M  V30 18482 N 1764.85 -1.48386 -0.530967 0
M  V30 18483 C 1766.1 -1.55608 -1.28332 0
M  V30 18484 C 1766.41 -0.234479 -1.94189 0
M  V30 18485 O 1767.62 -0.184926 -2.70869 0
M  V30 18486 C 1766.08 -2.74423 -2.32852 0
M  V30 18487 C 1765.68 -4.13221 -1.73068 0
M  V30 18488 C 1767.43 -2.90956 -3.09103 0
M  V30 18489 C 1765.33 -5.23299 -2.75522 0
M  V30 18490 H 1764.26 -0.579291 -0.482637 0
M  V30 18491 H 1766.92 -1.74718 -0.560885 0
M  V30 18492 H 1765.3 -2.48745 -3.08126 0
M  V30 18493 H 1766.47 -4.48913 -1.03989 0
M  V30 18494 H 1764.79 -4.01796 -1.09312 0
M  V30 18495 H 1767.38 -3.70363 -3.85662 0
M  V30 18496 H 1767.73 -2.00376 -3.64905 0
M  V30 18497 H 1768.26 -3.1653 -2.40943 0
M  V30 18498 H 1765 -6.15842 -2.24542 0
M  V30 18499 H 1764.52 -4.92095 -3.42932 0
M  V30 18500 H 1766.2 -5.5137 -3.38526 0
M  V30 18501 N 1766.33 0.779763 -1.36958 0
M  V30 18502 C 1767.28 1.91417 -1.32145 0
M  V30 18503 C 1768.27 1.68074 -0.211572 0
M  V30 18504 O 1769.48 1.75962 -0.379139 0
M  V30 18505 H 1765.85 0.62934 -0.411624 0
M  V30 18506 H 1767.82 1.92594 -2.27926 0
M  V30 18507 C 1766.57 3.28574 -1.13729 0
M  V30 18508 H 1765.9 3.47109 -1.98383 0
M  V30 18509 H 1767.34 4.08272 -1.1441 0
M  V30 18510 C 1765.79 3.36531 0.157538 0
M  V30 18511 O 1766.32 3.85067 1.14397 0
M  V30 18512 N 1764.53 2.89872 0.205509 0
M  V30 18513 H 1764.08 2.50566 -0.597854 0
M  V30 18514 H 1764.04 2.95578 1.07151 0
M  V30 18515 N 1767.81 1.21396 1.00503 0
M  V30 18516 C 1768.74 0.997268 2.11132 0
M  V30 18517 C 1769.72 -0.0777455 1.69922 0
M  V30 18518 O 1770.9 0.08208 1.94026 0
M  V30 18519 C 1768.03 0.561122 3.42737 0
M  V30 18520 C 1766.99 1.58069 3.97741 0
M  V30 18521 C 1766.31 1.00079 5.25251 0
M  V30 18522 C 1767.61 2.96754 4.29807 0
M  V30 18523 H 1769.31 1.92255 2.29518 0
M  V30 18524 H 1766.85 0.925776 1.10297 0
M  V30 18525 H 1768.81 0.396701 4.19529 0
M  V30 18526 H 1767.53 -0.399804 3.24144 0
M  V30 18527 H 1766.19 1.73268 3.23069 0
M  V30 18528 H 1765.84 0.0315797 5.0299 0
M  V30 18529 H 1765.54 1.68182 5.63017 0
M  V30 18530 H 1767.06 0.847687 6.04687 0
M  V30 18531 H 1768.48 2.85 4.97441 0
M  V30 18532 H 1766.87 3.61871 4.78717 0
M  V30 18533 H 1767.94 3.47602 3.38084 0
M  V30 18534 N 1769.29 -1.19996 1.0217 0
M  V30 18535 C 1770.56 -1.85214 0.628894 0
M  V30 18536 C 1770.94 -1.91292 -0.892784 0
M  V30 18537 O 1770.29 -1.42455 -1.78658 0
M  V30 18538 C 1770.5 -3.24576 1.28262 0
M  V30 18539 C 1771.85 -4.0081 1.4013 0
M  V30 18540 O 1772.87 -3.33948 1.23923 0
M  V30 18541 O 1771.73 -5.20561 1.66368 0
M  V30 18542 H 1768.83 -0.797842 0.217664 0
M  V30 18543 H 1771.37 -1.27544 1.1194 0
M  V30 18544 H 1770.14 -3.14947 2.32216 0
M  V30 18545 H 1769.77 -3.89884 0.77952 0
M  V30 18546 N 1770.76 -0.798611 -1.35867 0
M  V30 18547 C 1771.71 -0.191425 -2.31811 0
M  V30 18548 C 1772.71 0.65438 -1.56251 0
M  V30 18549 O 1773.91 0.548435 -1.71441 0
M  V30 18550 H 1770.29 -0.0431343 -0.750762 0
M  V30 18551 H 1772.26 -1.01589 -2.80575 0
M  V30 18552 C 1771.01 0.651912 -3.41534 0
M  V30 18553 H 1770.33 0.0104309 -3.99799 0
M  V30 18554 H 1771.77 1.04328 -4.10964 0
M  V30 18555 C 1770.23 1.81407 -2.83889 0
M  V30 18556 O 1770.76 2.91115 -2.76794 0
M  V30 18557 N 1768.96 1.62308 -2.41049 0
M  V30 18558 H 1768.51 0.730709 -2.47019 0
M  V30 18559 H 1768.47 2.40226 -2.02827 0
M  V30 18560 N 1772.24 1.47639 -0.551417 0
M  V30 18561 C 1773.2 2.28419 0.188996 0
M  V30 18562 C 1774.2 1.36617 0.84808 0
M  V30 18563 O 1775.39 1.59304 0.704831 0
M  V30 18564 C 1772.53 3.16131 1.27571 0
M  V30 18565 H 1773.72 2.95348 -0.520518 0
M  V30 18566 H 1771.27 1.53232 -0.308141 0
M  V30 18567 H 1772.01 2.5388 2.0178 0
M  V30 18568 H 1771.79 3.83685 0.807984 0
M  V30 18569 H 1773.28 3.77011 1.79591 0
M  V30 18570 N 1773.72 0.287581 1.54954 0
M  V30 18571 C 1775 -0.378041 1.91912 0
M  V30 18572 C 1775.38 -1.72749 1.2133 0
M  V30 18573 O 1774.73 -2.2589 0.344403 0
M  V30 18574 C 1774.94 -0.505993 3.45312 0
M  V30 18575 C 1776.28 -0.783109 4.17316 0
M  V30 18576 O 1777.31 -0.590324 3.51274 0
M  V30 18577 O 1776.17 -1.15257 5.34208 0
M  V30 18578 H 1773.26 -0.209004 0.800154 0
M  V30 18579 H 1775.81 0.334653 1.66368 0
M  V30 18580 H 1774.58 0.443187 3.88782 0
M  V30 18581 H 1774.2 -1.26767 3.7685 0
M  V30 18582 N 1775.2 -1.57593 0.0150662 0
M  V30 18583 C 1776.44 -1.91497 -0.667587 0
M  V30 18584 C 1776.78 -0.890493 -1.7258 0
M  V30 18585 O 1776.05 0.0887462 -1.94297 0
M  V30 18586 C 1776.34 -3.35934 -1.29694 0
M  V30 18587 C 1776.19 -4.49109 -0.249242 0
M  V30 18588 C 1777.51 -3.80068 -2.21893 0
M  V30 18589 H 1774.63 -0.696408 -0.241217 0
M  V30 18590 H 1777.27 -1.89873 0.0694484 0
M  V30 18591 H 1775.42 -3.37448 -1.92512 0
M  V30 18592 H 1777.09 -4.59729 0.380417 0
M  V30 18593 H 1775.33 -4.31695 0.426861 0
M  V30 18594 H 1776 -5.47166 -0.728934 0
M  V30 18595 H 1778.48 -3.80201 -1.69076 0
M  V30 18596 H 1777.36 -4.81852 -2.62887 0
M  V30 18597 H 1777.62 -3.1478 -3.10429 0
M  V30 18598 N 1776.68 0.257904 -1.55475 0
M  V30 18599 C 1777.62 1.33893 -1.90198 0
M  V30 18600 C 1778.62 1.50381 -0.779868 0
M  V30 18601 O 1779.82 1.51986 -0.964376 0
M  V30 18602 H 1776.2 0.448115 -0.603901 0
M  V30 18603 H 1778.17 1.01868 -2.80474 0
M  V30 18604 C 1776.92 2.68954 -2.20361 0
M  V30 18605 H 1776.24 2.57064 -3.062 0
M  V30 18606 H 1777.68 3.43498 -2.48567 0
M  V30 18607 C 1776.14 3.21208 -1.01623 0
M  V30 18608 O 1776.67 4.00867 -0.258567 0
M  V30 18609 N 1774.88 2.79088 -0.809825 0
M  V30 18610 H 1774.42 2.1442 -1.42764 0
M  V30 18611 H 1774.38 3.14395 -0.0170171 0
M  V30 18612 N 1778.15 1.48666 0.52309 0
M  V30 18613 C 1779.12 1.63211 1.60919 0
M  V30 18614 C 1780.12 0.505012 1.52664 0
M  V30 18615 O 1781.31 0.770967 1.56211 0
M  V30 18616 C 1778.44 1.60878 3.00551 0
M  V30 18617 H 1779.63 2.60061 1.4936 0
M  V30 18618 H 1777.19 1.37366 0.745674 0
M  V30 18619 H 1777.92 0.655306 3.1761 0
M  V30 18620 H 1777.71 2.4271 3.07952 0
M  V30 18621 H 1779.2 1.74263 3.79502 0
M  V30 18622 N 1779.63 -0.772489 1.37369 0
M  V30 18623 C 1780.91 -1.52029 1.23072 0
M  V30 18624 C 1781.29 -2.10365 -0.176011 0
M  V30 18625 O 1780.64 -1.95459 -1.18356 0
M  V30 18626 C 1780.85 -2.60176 2.32614 0
M  V30 18627 C 1782.2 -3.27599 2.70118 0
M  V30 18628 O 1783.22 -2.70471 2.31785 0
M  V30 18629 O 1782.08 -4.30883 3.36158 0
M  V30 18630 H 1779.17 -0.673306 0.480196 0
M  V30 18631 H 1781.72 -0.809518 1.49147 0
M  V30 18632 H 1780.49 -2.15185 3.2682 0
M  V30 18633 H 1780.11 -3.38855 2.07998 0
M  V30 18634 N 1781.11 -1.21927 -0.998575 0
M  V30 18635 C 1782.36 -1.03834 -1.73386 0
M  V30 18636 C 1782.68 0.428247 -1.90239 0
M  V30 18637 O 1781.95 1.30847 -1.45794 0
M  V30 18638 H 1780.53 -0.381225 -0.642399 0
M  V30 18639 H 1783.19 -1.53344 -1.20298 0
M  V30 18640 H 1782.29 -1.51155 -2.73054 0
M  V30 18641 N 1782.59 1.19452 -1.02805 0
M  V30 18642 C 1783.54 2.22644 -0.608134 0
M  V30 18643 C 1784.51 1.6175 0.377639 0
M  V30 18644 O 1785.69 1.88815 0.274487 0
M  V30 18645 C 1782.83 3.45081 0.0357589 0
M  V30 18646 C 1781.94 4.20363 -0.995955 0
M  V30 18647 C 1781.08 5.30224 -0.321911 0
M  V30 18648 C 1780.12 5.97261 -1.33959 0
M  V30 18649 N 1779.25 6.98687 -0.691414 0
M  V30 18650 H 1784.09 2.57921 -1.49268 0
M  V30 18651 H 1781.63 1.26722 -0.746985 0
M  V30 18652 H 1783.59 4.15016 0.426309 0
M  V30 18653 H 1782.22 3.10463 0.883889 0
M  V30 18654 H 1781.27 3.49381 -1.50457 0
M  V30 18655 H 1782.58 4.6636 -1.76945 0
M  V30 18656 H 1781.74 6.06574 0.123528 0
M  V30 18657 H 1780.48 4.85294 0.483792 0
M  V30 18658 H 1779.48 5.19662 -1.7953 0
M  V30 18659 H 1780.71 6.44275 -2.14678 0
M  V30 18660 H 1778.65 6.55932 0.0942121 0
M  V30 18661 H 1778.57 7.42871 -1.40281 0
M  V30 18662 H 1779.84 7.79032 -0.269948 0
M  V30 18663 N 1784.07 0.805805 1.35442 0
M  V30 18664 C 1785.31 0.386379 1.99085 0
M  V30 18665 C 1785.65 -1.04356 1.63779 0
M  V30 18666 O 1784.92 -1.72386 0.900731 0
M  V30 18667 C 1785.2 0.569062 3.55575 0
M  V30 18668 C 1785.06 2.04387 4.00682 0
M  V30 18669 C 1786.38 -0.00574668 4.401 0
M  V30 18670 H 1783.49 0.141862 0.723218 0
M  V30 18671 H 1786.14 1.01519 1.60605 0
M  V30 18672 H 1784.29 0.0337767 3.88485 0
M  V30 18673 H 1785.96 2.64148 3.78184 0
M  V30 18674 H 1784.2 2.54059 3.5162 0
M  V30 18675 H 1784.87 2.12258 5.09559 0
M  V30 18676 H 1787.35 0.451387 4.13644 0
M  V30 18677 H 1786.22 0.151994 5.4869 0
M  V30 18678 H 1786.49 -1.09937 4.28213 0
M  V30 18679 N 1785.54 -1.47344 0.559239 0
M  V30 18680 C 1786.49 -2.31735 -0.200368 0
M  V30 18681 C 1787.49 -1.43051 -0.907351 0
M  V30 18682 O 1788.69 -1.59804 -0.828406 0
M  V30 18683 H 1785.07 -0.747351 -0.0834871 0
M  V30 18684 H 1787.04 -2.93645 0.530556 0
M  V30 18685 C 1785.79 -3.25747 -1.2159 0
M  V30 18686 H 1785.11 -3.93952 -0.681314 0
M  V30 18687 H 1786.55 -3.87624 -1.71825 0
M  V30 18688 C 1785.01 -2.49414 -2.26482 0
M  V30 18689 O 1785.54 -2.24006 -3.33443 0
M  V30 18690 N 1783.75 -2.10387 -2.00464 0
M  V30 18691 H 1783.29 -2.3125 -1.13495 0
M  V30 18692 H 1783.25 -1.5963 -2.70861 0
M  V30 18693 N 1787.02 -0.295795 -1.54799 0
M  V30 18694 C 1788.25 0.32058 -2.04907 0
M  V30 18695 C 1788.67 1.47132 -1.17191 0
M  V30 18696 O 1788.03 1.80455 -0.174869 0
M  V30 18697 C 1788.08 0.759439 -3.52512 0
M  V30 18698 O 1787.18 1.86474 -3.67833 0
M  V30 18699 H 1786.52 0.0631128 -0.660994 0
M  V30 18700 H 1789.05 -0.436123 -1.99898 0
M  V30 18701 H 1789.06 1.04965 -3.94267 0
M  V30 18702 H 1787.74 -0.0823715 -4.15818 0
M  V30 18703 H 1786.32 1.57547 -3.37984 0
M  V30 18704 N 1788.5 1.57583 -0.0234236 0
M  V30 18705 C 1789.73 1.95861 0.666797 0
M  V30 18706 C 1790.14 0.899616 1.65989 0
M  V30 18707 O 1789.5 -0.119162 1.82111 0
M  V30 18708 C 1789.55 3.34198 1.37818 0
M  V30 18709 O 1789.27 4.36035 0.424887 0
M  V30 18710 C 1790.77 3.87074 2.16075 0
M  V30 18711 H 1787.99 0.645213 0.184233 0
M  V30 18712 H 1790.54 2.04338 -0.0814987 0
M  V30 18713 H 1788.69 3.26958 2.07792 0
M  V30 18714 H 1789.11 5.162 0.929394 0
M  V30 18715 H 1790.58 4.8623 2.61312 0
M  V30 18716 H 1791.06 3.21017 2.99741 0
M  V30 18717 H 1791.66 3.97565 1.5107 0
M  V30 18718 N 1789.98 -0.249655 1.5561 0
M  V30 18719 C 1791.26 -1.00075 1.68061 0
M  V30 18720 C 1791.64 -2.03468 0.562492 0
M  V30 18721 O 1790.98 -2.24332 -0.434424 0
M  V30 18722 C 1791.19 -1.63657 3.08249 0
M  V30 18723 C 1792.54 -2.13946 3.66759 0
M  V30 18724 O 1793.57 -1.73603 3.11031 0
M  V30 18725 O 1792.43 -2.88012 4.64447 0
M  V30 18726 H 1789.52 -0.465648 0.683448 0
M  V30 18727 H 1792.07 -0.243659 1.67942 0
M  V30 18728 H 1790.84 -0.888572 3.81078 0
M  V30 18729 H 1790.46 -2.45993 3.12367 0
M  V30 18730 N 1791.46 -1.48941 -0.515198 0
M  V30 18731 C 1792.7 -1.5771 -1.27019 0
M  V30 18732 C 1793.03 -0.257484 -1.92788 0
M  V30 18733 O 1792.29 0.753481 -1.80613 0
M  V30 18734 C 1792.59 -2.67508 -2.37011 0
M  V30 18735 C 1792.25 -4.09471 -1.88796 0
M  V30 18736 C 1790.91 -4.48108 -1.75365 0
M  V30 18737 C 1793.27 -4.98378 -1.52543 0
M  V30 18738 C 1790.59 -5.73438 -1.24038 0
M  V30 18739 C 1792.95 -6.24212 -1.02673 0
M  V30 18740 C 1791.61 -6.61691 -0.878703 0
M  V30 18741 H 1790.88 -0.577101 -0.464796 0
M  V30 18742 H 1793.53 -1.82718 -0.573279 0
M  V30 18743 H 1791.83 -2.36417 -3.12433 0
M  V30 18744 H 1793.53 -2.71505 -2.95104 0
M  V30 18745 H 1790.12 -3.78967 -2.00205 0
M  V30 18746 H 1794.3 -4.69194 -1.61773 0
M  V30 18747 H 1789.56 -6.01188 -1.11277 0
M  V30 18748 H 1793.73 -6.9249 -0.73697 0
M  V30 18749 H 1791.36 -7.58691 -0.478792 0
M  V30 18750 N 1792.94 0.765193 -1.37777 0
M  V30 18751 C 1794.16 1.55948 -1.3673 0
M  V30 18752 C 1794.59 1.8805 0.0435817 0
M  V30 18753 O 1793.94 1.49718 1.02246 0
M  V30 18754 C 1793.99 2.84245 -2.21895 0
M  V30 18755 O 1793.1 3.78903 -1.62807 0
M  V30 18756 H 1792.44 0.472127 -0.466897 0
M  V30 18757 H 1794.97 0.946556 -1.81388 0
M  V30 18758 H 1794.98 3.33284 -2.35342 0
M  V30 18759 H 1793.65 2.60209 -3.24444 0
M  V30 18760 H 1792.23 3.37568 -1.58437 0
M  V30 18761 N 1794.41 1.22455 0.992094 0
M  V30 18762 C 1795.66 1.04373 1.72596 0
M  V30 18763 C 1795.98 -0.421349 1.91008 0
M  V30 18764 O 1797.18 -0.72186 2.61728 0
M  V30 18765 C 1795.64 1.81906 3.10545 0
M  V30 18766 C 1795.25 3.32667 3.00061 0
M  V30 18767 C 1796.99 1.72274 3.87972 0
M  V30 18768 C 1794.9 4.02638 4.3317 0
M  V30 18769 H 1793.83 0.386937 0.647144 0
M  V30 18770 H 1796.48 1.46313 1.10746 0
M  V30 18771 H 1794.86 1.32764 3.73081 0
M  V30 18772 H 1796.03 3.89208 2.46685 0
M  V30 18773 H 1794.35 3.42984 2.36117 0
M  V30 18774 H 1796.95 2.21872 4.86494 0
M  V30 18775 H 1797.29 0.68331 4.10654 0
M  V30 18776 H 1797.82 2.18963 3.32115 0
M  V30 18777 H 1794.56 5.06838 4.15687 0
M  V30 18778 H 1794.08 3.50885 4.86456 0
M  V30 18779 H 1795.76 4.08279 5.01914 0
M  V30 18780 N 1795.89 -1.18905 1.03437 0
M  V30 18781 C 1796.82 -2.24539 0.640669 0
M  V30 18782 C 1797.8 -1.66396 -0.353024 0
M  V30 18783 O 1798.99 -1.92779 -0.234522 0
M  V30 18784 C 1796.12 -3.473 -0.00367731 0
M  V30 18785 C 1795.07 -4.18151 0.912881 0
M  V30 18786 C 1794.4 -5.34534 0.133347 0
M  V30 18787 C 1795.7 -4.72342 2.22913 0
M  V30 18788 H 1797.39 -2.57726 1.52374 0
M  V30 18789 H 1794.94 -1.23883 0.734098 0
M  V30 18790 H 1796.89 -4.20396 -0.290783 0
M  V30 18791 H 1795.61 -3.13328 -0.921578 0
M  V30 18792 H 1794.27 -3.46945 1.18427 0
M  V30 18793 H 1793.92 -4.96809 -0.786762 0
M  V30 18794 H 1793.62 -5.82872 0.743905 0
M  V30 18795 H 1795.15 -6.10423 -0.146889 0
M  V30 18796 H 1796.56 -5.37165 2.00317 0
M  V30 18797 H 1794.96 -5.31189 2.79209 0
M  V30 18798 H 1796.03 -3.90108 2.87999 0
M  V30 18799 N 1797.37 -0.812977 -1.35013 0
M  V30 18800 C 1798.32 -0.225816 -2.29693 0
M  V30 18801 C 1799.29 0.643767 -1.53117 0
M  V30 18802 O 1800.47 0.587505 -1.8153 0
M  V30 18803 C 1797.61 0.614444 -3.39586 0
M  V30 18804 C 1796.72 -0.276281 -4.31116 0
M  V30 18805 C 1795.86 0.572595 -5.28105 0
M  V30 18806 C 1794.9 -0.318133 -6.11273 0
M  V30 18807 N 1794.04 0.491086 -7.0038 0
M  V30 18808 H 1798.88 -1.03861 -2.79315 0
M  V30 18809 H 1796.41 -0.523695 -1.37462 0
M  V30 18810 H 1798.37 1.11683 -4.01973 0
M  V30 18811 H 1797 1.39244 -2.91223 0
M  V30 18812 H 1796.05 -0.89682 -3.69677 0
M  V30 18813 H 1797.36 -0.961601 -4.89443 0
M  V30 18814 H 1796.52 1.13986 -5.95896 0
M  V30 18815 H 1795.26 1.29146 -4.7029 0
M  V30 18816 H 1794.26 -0.897622 -5.42423 0
M  V30 18817 H 1795.49 -1.03496 -6.71167 0
M  V30 18818 H 1793.43 1.19381 -6.45046 0
M  V30 18819 H 1793.35 -0.136054 -7.55878 0
M  V30 18820 H 1794.62 1.04143 -7.72512 0
M  V30 18821 N 1798.85 1.47045 -0.567045 0
M  V30 18822 C 1800.26 1.5797 -0.227536 0
M  V30 18823 C 1800.46 1.56434 1.27006 0
M  V30 18824 O 1799.52 1.47297 2.05085 0
M  V30 18825 C 1800.83 2.88053 -0.862894 0
M  V30 18826 C 1802.38 3.01656 -0.835032 0
M  V30 18827 C 1802.86 4.34453 -1.44964 0
M  V30 18828 N 1804.35 4.41113 -1.41327 0
M  V30 18829 C 1805.08 5.42451 -1.85835 0
M  V30 18830 N 1804.58 6.50547 -2.38245 0
M  V30 18831 N 1806.37 5.33556 -1.76847 0
M  V30 18832 H 1798.52 1.46287 -1.53993 0
M  V30 18833 H 1800.78 0.696829 -0.642755 0
M  V30 18834 H 1800.49 2.94942 -1.91578 0
M  V30 18835 H 1800.36 3.75461 -0.361758 0
M  V30 18836 H 1802.75 2.94358 0.209187 0
M  V30 18837 H 1802.83 2.15764 -1.37403 0
M  V30 18838 H 1802.48 4.42508 -2.49298 0
M  V30 18839 H 1802.41 5.19093 -0.886003 0
M  V30 18840 H 1804.9 3.63592 -1.03001 0
M  V30 18841 H 1805.21 7.2406 -2.70105 0
M  V30 18842 H 1803.56 6.51409 -2.42262 0
M  V30 18843 H 1806.75 4.48008 -1.35671 0
M  V30 18844 H 1806.92 6.12391 -2.11851 0
M  V30 18845 N 1800.33 0.304 1.5464 0
M  V30 18846 C 1801.56 -0.306471 2.04314 0
M  V30 18847 C 1801.96 -1.47839 1.18069 0
M  V30 18848 O 1801.31 -1.82612 0.199666 0
M  V30 18849 C 1801.37 -0.822694 3.4996 0
M  V30 18850 C 1801.03 0.224343 4.56449 0
M  V30 18851 C 1802.03 1.05382 5.09108 0
M  V30 18852 C 1799.71 0.366905 5.00958 0
M  V30 18853 C 1801.71 2.01176 6.0482 0
M  V30 18854 C 1799.4 1.32829 5.96489 0
M  V30 18855 C 1800.39 2.1492 6.48304 0
M  V30 18856 O 1800.08 3.09429 7.41963 0
M  V30 18857 H 1799.81 -0.0701033 0.672355 0
M  V30 18858 H 1802.37 0.442449 2.00578 0
M  V30 18859 H 1800.6 -1.62219 3.5103 0
M  V30 18860 H 1802.29 -1.34938 3.82814 0
M  V30 18861 H 1803.05 0.954561 4.75514 0
M  V30 18862 H 1798.93 -0.262121 4.60254 0
M  V30 18863 H 1802.48 2.65291 6.45187 0
M  V30 18864 H 1798.37 1.42826 6.29501 0
M  V30 18865 H 1799.14 3.04442 7.59774 0
M  V30 18866 N 1801.8 -1.57568 0.0317802 0
M  V30 18867 C 1803.05 -1.92194 -0.647238 0
M  V30 18868 C 1803.38 -0.908747 -1.71626 0
M  V30 18869 O 1802.66 0.0681334 -1.94381 0
M  V30 18870 C 1802.94 -3.3729 -1.26124 0
M  V30 18871 C 1802.79 -4.49348 -0.201594 0
M  V30 18872 C 1804.11 -3.824 -2.17849 0
M  V30 18873 H 1801.23 -0.698927 -0.233817 0
M  V30 18874 H 1803.87 -1.89789 0.0895831 0
M  V30 18875 H 1802.02 -3.39471 -1.88922 0
M  V30 18876 H 1803.7 -4.59299 0.429155 0
M  V30 18877 H 1801.94 -4.31218 0.472624 0
M  V30 18878 H 1802.61 -5.47908 -0.670859 0
M  V30 18879 H 1805.09 -3.81972 -1.65034 0
M  V30 18880 H 1803.96 -4.84614 -2.57761 0
M  V30 18881 H 1804.22 -3.18054 -3.07073 0
M  V30 18882 N 1803.28 0.241399 -1.5574 0
M  V30 18883 C 1804.22 1.32551 -1.85757 0
M  V30 18884 C 1805.19 1.46127 -0.713133 0
M  V30 18885 O 1806.38 1.62255 -0.959459 0
M  V30 18886 C 1803.5 2.69835 -2.04712 0
M  V30 18887 C 1802.55 2.73379 -3.27363 0
M  V30 18888 S 1803.38 2.29435 -4.83859 0
M  V30 18889 C 1804.54 3.68633 -5.05827 0
M  V30 18890 H 1804.77 1.06892 -2.77419 0
M  V30 18891 H 1802.31 0.44266 -1.47918 0
M  V30 18892 H 1804.26 3.4888 -2.16317 0
M  V30 18893 H 1802.92 2.92728 -1.13882 0
M  V30 18894 H 1802.12 3.74214 -3.37609 0
M  V30 18895 H 1801.72 2.02382 -3.14512 0
M  V30 18896 H 1804.01 4.64173 -4.93507 0
M  V30 18897 H 1804.95 3.63317 -6.07788 0
M  V30 18898 H 1805.36 3.61401 -4.33647 0
M  V30 18899 N 1804.76 1.49212 0.507292 0
M  V30 18900 C 1805.71 1.65417 1.60953 0
M  V30 18901 C 1806.68 0.495737 1.5853 0
M  V30 18902 O 1807.86 0.722002 1.76612 0
M  V30 18903 C 1805 1.72095 2.99128 0
M  V30 18904 C 1804.12 2.99199 3.11615 0
M  V30 18905 C 1803.25 2.96895 4.40485 0
M  V30 18906 C 1802.29 4.18607 4.46581 0
M  V30 18907 N 1801.43 4.14248 5.66871 0
M  V30 18908 H 1806.27 2.59535 1.46444 0
M  V30 18909 H 1803.8 1.28687 0.712609 0
M  V30 18910 H 1805.76 1.73947 3.79207 0
M  V30 18911 H 1804.39 0.814484 3.12356 0
M  V30 18912 H 1803.44 3.06988 2.24639 0
M  V30 18913 H 1804.76 3.89192 3.11979 0
M  V30 18914 H 1803.91 2.97275 5.28878 0
M  V30 18915 H 1802.65 2.0467 4.42675 0
M  V30 18916 H 1801.65 4.18477 3.56591 0
M  V30 18917 H 1802.88 5.12017 4.46112 0
M  V30 18918 H 1800.82 3.24857 5.69916 0
M  V30 18919 H 1800.74 4.97969 5.68826 0
M  V30 18920 H 1802.01 4.18722 6.57489 0
M  V30 18921 N 1806.24 -0.757876 1.38181 0
M  V30 18922 C 1807.19 -1.8929 1.35174 0
M  V30 18923 C 1808.18 -1.67716 0.238284 0
M  V30 18924 O 1809.39 -1.75336 0.407085 0
M  V30 18925 H 1805.76 -0.622712 0.421585 0
M  V30 18926 H 1807.73 -1.88943 2.30961 0
M  V30 18927 C 1806.48 -3.26723 1.18942 0
M  V30 18928 H 1805.8 -3.43909 2.0388 0
M  V30 18929 H 1807.24 -4.06401 1.20891 0
M  V30 18930 C 1805.7 -3.3674 -0.103978 0
M  V30 18931 O 1806.23 -3.86838 -1.08256 0
M  V30 18932 N 1804.44 -2.90163 -0.159367 0
M  V30 18933 H 1803.99 -2.49583 0.637642 0
M  V30 18934 H 1803.94 -2.97245 -1.02435 0
M  V30 18935 N 1807.72 -1.22979 -0.985586 0
M  V30 18936 C 1808.97 -1.05286 -1.7204 0
M  V30 18937 C 1809.28 0.411213 -1.91229 0
M  V30 18938 O 1810.48 0.70797 -2.62107 0
M  V30 18939 C 1808.94 -1.8355 -3.09576 0
M  V30 18940 C 1808.55 -3.34254 -2.98293 0
M  V30 18941 C 1810.29 -1.74329 -3.87052 0
M  V30 18942 C 1808.2 -4.0493 -4.31029 0
M  V30 18943 H 1807.13 -0.390364 -0.645083 0
M  V30 18944 H 1809.78 -1.46898 -1.09969 0
M  V30 18945 H 1808.16 -1.34741 -3.72372 0
M  V30 18946 H 1809.34 -3.90511 -2.44618 0
M  V30 18947 H 1807.65 -3.44231 -2.34294 0
M  V30 18948 H 1810.25 -2.24449 -4.85311 0
M  V30 18949 H 1810.59 -0.705078 -4.10286 0
M  V30 18950 H 1811.12 -2.20721 -3.30949 0
M  V30 18951 H 1807.86 -5.09035 -4.12993 0
M  V30 18952 H 1807.38 -3.5346 -4.84588 0
M  V30 18953 H 1809.06 -4.10935 -4.99742 0
M  V30 18954 N 1809.19 1.18355 -1.04066 0
M  V30 18955 C 1810.1 2.25641 -0.642115 0
M  V30 18956 C 1811.12 1.70811 0.331614 0
M  V30 18957 O 1812.3 2.00534 0.186542 0
M  V30 18958 C 1809.36 3.46698 -0.0112485 0
M  V30 18959 C 1808.42 4.16662 -1.03398 0
M  V30 18960 C 1807.66 5.3194 -0.433125 0
M  V30 18961 O 1807.88 5.65305 0.760669 0
M  V30 18962 O 1806.81 5.90581 -1.16182 0
M  V30 18963 H 1810.64 2.61997 -1.53595 0
M  V30 18964 H 1808.22 1.25437 -0.811542 0
M  V30 18965 H 1810.11 4.20027 0.339934 0
M  V30 18966 H 1808.78 3.12166 0.856405 0
M  V30 18967 H 1807.69 3.45402 -1.43696 0
M  V30 18968 H 1809.02 4.55194 -1.8724 0
M  V30 18969 N 1810.67 0.820125 1.3458 0
M  V30 18970 C 1811.58 0.241913 2.33349 0
M  V30 18971 C 1812.6 -0.622228 1.62494 0
M  V30 18972 O 1813.77 -0.530787 1.9428 0
M  V30 18973 C 1810.84 -0.588944 3.41661 0
M  V30 18974 C 1809.9 0.29727 4.2827 0
M  V30 18975 C 1809.13 -0.494028 5.31409 0
M  V30 18976 O 1809.36 -1.72755 5.4361 0
M  V30 18977 O 1808.29 0.122182 6.01776 0
M  V30 18978 H 1812.12 1.05934 2.84626 0
M  V30 18979 H 1809.7 0.582205 1.37589 0
M  V30 18980 H 1811.58 -1.06174 4.07805 0
M  V30 18981 H 1810.26 -1.38374 2.92633 0
M  V30 18982 H 1809.17 0.817495 3.65059 0
M  V30 18983 H 1810.5 1.05635 4.80731 0
M  V30 18984 N 1812.15 -1.46743 0.574835 0
M  V30 18985 C 1813.08 -2.33012 -0.150836 0
M  V30 18986 C 1814.06 -1.44868 -0.891472 0
M  V30 18987 O 1815.25 -1.73698 -0.868481 0
M  V30 18988 C 1812.38 -3.26995 -1.17012 0
M  V30 18989 C 1811.33 -4.24518 -0.544829 0
M  V30 18990 C 1810.66 -5.07951 -1.67002 0
M  V30 18991 C 1811.96 -5.19776 0.512891 0
M  V30 18992 H 1813.65 -2.93935 0.569433 0
M  V30 18993 H 1811.2 -1.41344 0.275289 0
M  V30 18994 H 1813.15 -3.86198 -1.68609 0
M  V30 18995 H 1811.87 -2.64163 -1.92056 0
M  V30 18996 H 1810.53 -3.66566 -0.0500133 0
M  V30 18997 H 1810.18 -4.4151 -2.40993 0
M  V30 18998 H 1809.88 -5.73991 -1.25732 0
M  V30 18999 H 1811.4 -5.70017 -2.1889 0
M  V30 19000 H 1812.82 -5.73241 0.0823064 0
M  V30 19001 H 1811.22 -5.94114 0.845462 0
M  V30 19002 H 1812.29 -4.64184 1.40217 0
M  V30 19003 N 1813.63 -0.312197 -1.54477 0
M  V30 19004 C 1815.04 0.178189 -1.85848 0
M  V30 19005 C 1815.39 1.52534 -1.23401 0
M  V30 19006 O 1814.52 2.09661 -0.535822 0
M  V30 19007 C 1815.11 0.330099 -3.37188 0
M  V30 19008 C 1813.67 0.764703 -3.6855 0
M  V30 19009 C 1812.82 -0.120348 -2.77039 0
M  V30 19010 H 1815.77 -0.532853 -1.49487 0
M  V30 19011 H 1815.79 1.16287 -3.62295 0
M  V30 19012 H 1815.3 -0.650527 -3.82609 0
M  V30 19013 H 1813.4 1.75548 -3.28654 0
M  V30 19014 H 1813.51 0.576331 -4.75621 0
M  V30 19015 H 1811.88 0.402229 -2.51504 0
M  V30 19016 H 1812.66 -1.09753 -3.25283 0
M  V30 19017 N 1815.11 1.57549 -0.040136 0
M  V30 19018 C 1816.34 1.96272 0.645049 0
M  V30 19019 C 1816.74 0.915804 1.65559 0
M  V30 19020 O 1816.09 -0.109666 1.83372 0
M  V30 19021 C 1816.15 3.31187 1.3984 0
M  V30 19022 C 1815.81 4.53739 0.544953 0
M  V30 19023 C 1816.81 5.19573 -0.184369 0
M  V30 19024 C 1814.5 5.0001 0.479119 0
M  V30 19025 C 1816.49 6.30006 -0.968081 0
M  V30 19026 C 1814.18 6.10322 -0.30829 0
M  V30 19027 C 1815.17 6.7518 -1.03059 0
M  V30 19028 O 1814.86 7.83373 -1.80507 0
M  V30 19029 H 1814.59 0.651051 0.181958 0
M  V30 19030 H 1817.15 2.05159 -0.0995179 0
M  V30 19031 H 1815.38 3.18823 2.18835 0
M  V30 19032 H 1817.07 3.54735 1.97276 0
M  V30 19033 H 1817.83 4.84789 -0.142908 0
M  V30 19034 H 1813.71 4.49325 1.0309 0
M  V30 19035 H 1817.26 6.80562 -1.53237 0
M  V30 19036 H 1813.15 6.44543 -0.351428 0
M  V30 19037 H 1813.92 8.00094 -1.72601 0
M  V30 19038 N 1816.58 -0.233136 1.55866 0
M  V30 19039 C 1818 -0.582304 1.48598 0
M  V30 19040 C 1818.2 -1.87694 0.733016 0
M  V30 19041 O 1817.26 -2.51074 0.267959 0
M  V30 19042 C 1818.57 -0.67227 2.93089 0
M  V30 19043 C 1820.12 -0.763676 3.03541 0
M  V30 19044 C 1820.59 -0.885087 4.49366 0
M  V30 19045 N 1822.08 -0.949606 4.53362 0
M  V30 19046 C 1822.82 -1.06306 5.6346 0
M  V30 19047 N 1822.31 -1.14118 6.83337 0
M  V30 19048 N 1824.11 -1.09729 5.51286 0
M  V30 19049 H 1816.26 0.616568 2.03254 0
M  V30 19050 H 1818.52 0.214762 0.923353 0
M  V30 19051 H 1818.23 0.20923 3.51077 0
M  V30 19052 H 1818.1 -1.5397 3.44344 0
M  V30 19053 H 1820.49 -1.63562 2.45625 0
M  V30 19054 H 1820.57 0.129191 2.55474 0
M  V30 19055 H 1820.21 -0.017644 5.07897 0
M  V30 19056 H 1820.14 -1.7932 4.95128 0
M  V30 19057 H 1822.63 -0.900018 3.67026 0
M  V30 19058 H 1822.95 -1.2272 7.62994 0
M  V30 19059 H 1821.29 -1.11051 6.8607 0
M  V30 19060 H 1824.48 -1.03283 4.56563 0
M  V30 19061 H 1824.66 -1.18225 6.37124 0
M  V30 19062 O 1818.1 -1.56998 -0.378676 0
M  V30 19063 H 1818.79 -1.64044 -1.03002 0
M  V30 END ATOM
M  V30 BEGIN BOND
M  V30 END BOND
M  V30 END CTAB
M  END
$$$$
