drugbank_target|Q59721 Glutathione S-transferase (DB07914)
 OpenBabel12092120473D

  0  0  0     0  0            999 V3000
M  V30 BEGIN CTAB
M  V30 COUNTS 3142 3181 0 0 0
M  V30 BEGIN ATOM
M  V30 1 H -0.908 1.98254 -0.117106 0
M  V30 2 N 0 1.576 0 0
M  V30 3 C 0.933 2.03868 1.02534 0
M  V30 4 C 1.911 0.928543 1.3348 0
M  V30 5 O 3.095 1.19667 1.45644 0
M  V30 6 C 0.222 2.43627 2.35294 0
M  V30 7 C -0.732 3.65373 2.2001 0
M  V30 8 S 0.101 5.13292 1.52614 0
M  V30 9 C 1.257 5.56322 2.86805 0
M  V30 10 H 1.49 2.90518 0.631377 0
M  V30 11 H -0.977 1.52953 0.210867 0
M  V30 12 H 0.981 2.67203 3.11629 0
M  V30 13 H -0.358 1.57376 2.7183 0
M  V30 14 H -1.165 3.90944 3.18086 0
M  V30 15 H -1.563 3.418 1.51819 0
M  V30 16 H 0.729 5.58782 3.83104 0
M  V30 17 H 1.672 6.56266 2.65933 0
M  V30 18 H 2.08 4.83886 2.90714 0
M  V30 19 N 1.4781 -0.272755 1.55222 0
M  V30 20 C 2.4251 -1.33716 1.88119 0
M  V30 21 C 3.3951 -1.49066 0.73271 0
M  V30 22 O 4.5801 -1.63469 0.984002 0
M  V30 23 C 1.7201 -2.69238 2.15882 0
M  V30 24 C 0.8331 -2.62108 3.43399 0
M  V30 25 C -0.0319 -3.89811 3.60861 0
M  V30 26 C -0.9929 -3.77193 4.8207 0
M  V30 27 N -1.8559 -4.9673 4.96189 0
M  V30 28 H 2.9841 -1.04962 2.78903 0
M  V30 29 H 0.5211 -0.507088 1.38083 0
M  V30 30 H 2.4791 -3.48089 2.29978 0
M  V30 31 H 1.1091 -2.96194 1.28331 0
M  V30 32 H 0.1611 -1.74967 3.37773 0
M  V30 33 H 1.4731 -2.48685 4.32386 0
M  V30 34 H 0.6271 -4.77103 3.74777 0
M  V30 35 H -0.6339 -4.06102 2.7006 0
M  V30 36 H -1.6289 -2.88284 4.68159 0
M  V30 37 H -0.4039 -3.62421 5.74307 0
M  V30 38 H -2.4579 -5.13431 4.08319 0
M  V30 39 H -2.5409 -4.85839 5.79221 0
M  V30 40 H -1.2729 -5.85594 5.1449 0
M  V30 41 N 2.9562 -1.48159 -0.537278 0
M  V30 42 C 3.8862 -1.65029 -1.6519 0
M  V30 43 C 4.8672 -0.499281 -1.62607 0
M  V30 44 O 6.0522 -0.730972 -1.79918 0
M  V30 45 C 3.1822 -1.68303 -3.03795 0
M  V30 46 C 2.1362 -2.8283 -3.21234 0
M  V30 47 C 1.4622 -2.71189 -4.60826 0
M  V30 48 C 2.7622 -4.24211 -3.04701 0
M  V30 49 H 4.4562 -2.58341 -1.51328 0
M  V30 50 H 2.0022 -1.24325 -0.726585 0
M  V30 51 H 3.9552 -1.78693 -3.81637 0
M  V30 52 H 2.6792 -0.715635 -3.18663 0
M  V30 53 H 1.3382 -2.71983 -2.45807 0
M  V30 54 H 0.9862 -1.72435 -4.7252 0
M  V30 55 H 0.6862 -3.48035 -4.7344 0
M  V30 56 H 2.2102 -2.83537 -5.40777 0
M  V30 57 H 3.6242 -4.3593 -3.72341 0
M  V30 58 H 2.0212 -5.01998 -3.28813 0
M  V30 59 H 3.0912 -4.41184 -2.01209 0
M  V30 60 N 4.4343 0.785586 -1.36625 0
M  V30 61 C 5.6643 1.5722 -1.34036 0
M  V30 62 C 6.0723 1.89033 0.0795062 0
M  V30 63 O 5.4153 1.50881 1.04789 0
M  V30 64 C 5.4773 2.91759 -2.10041 0
M  V30 65 C 5.1413 2.82654 -3.59104 0
M  V30 66 C 6.1383 2.54634 -4.53274 0
M  V30 67 C 3.8233 3.01111 -4.02042 0
M  V30 68 C 5.8173 2.45177 -5.88359 0
M  V30 69 C 3.5043 2.91276 -5.37216 0
M  V30 70 C 4.5023 2.63348 -6.30188 0
M  V30 71 O 4.1903 2.53514 -7.6288 0
M  V30 72 H 3.9223 0.494177 -0.461265 0
M  V30 73 H 6.4763 0.982632 -1.8037 0
M  V30 74 H 4.7063 3.52781 -1.58375 0
M  V30 75 H 6.3953 3.53059 -2.00261 0
M  V30 76 H 7.1613 2.40073 -4.21414 0
M  V30 77 H 3.0403 3.21854 -3.30047 0
M  V30 78 H 6.5843 2.23299 -6.60896 0
M  V30 79 H 2.4813 3.054 -5.68684 0
M  V30 80 H 3.2493 2.68967 -7.73045 0
M  V30 81 N 5.9124 1.20967 1.01018 0
M  V30 82 C 7.1424 1.04803 1.78044 0
M  V30 83 C 7.5504 -0.405462 1.84804 0
M  V30 84 O 6.8934 -1.2932 1.30468 0
M  V30 85 C 6.9554 1.56377 3.23707 0
M  V30 86 C 6.6194 3.04767 3.40538 0
M  V30 87 C 7.6164 4.02366 3.29239 0
M  V30 88 C 5.3014 3.43862 3.66147 0
M  V30 89 C 7.2954 5.37049 3.43304 0
M  V30 90 C 4.9824 4.78699 3.79855 0
M  V30 91 C 5.9804 5.75101 3.68439 0
M  V30 92 O 5.6684 7.07493 3.81719 0
M  V30 93 H 5.4004 0.368778 0.56655 0
M  V30 94 H 7.9544 1.60642 1.27997 0
M  V30 95 H 6.1844 0.949297 3.74867 0
M  V30 96 H 7.8734 1.36136 3.8239 0
M  V30 97 H 8.6394 3.73506 3.09384 0
M  V30 98 H 4.5184 2.69364 3.74118 0
M  V30 99 H 8.0624 6.12277 3.34309 0
M  V30 100 H 3.9594 5.07247 3.99213 0
M  V30 101 H 4.7274 7.1483 3.98697 0
M  V30 102 N 7.3905 -1.2043 1.01659 0
M  V30 103 C 8.6155 -1.94318 0.724942 0
M  V30 104 C 9.0405 -1.74266 -0.708034 0
M  V30 105 O 8.3985 -1.03694 -1.48719 0
M  V30 106 C 8.4465 -3.44486 1.06591 0
M  V30 107 O 7.5505 -4.12017 0.177599 0
M  V30 108 H 6.8915 -0.60708 0.26898 0
M  V30 109 H 9.4215 -1.52861 1.35995 0
M  V30 110 H 9.4315 -3.95106 1.01762 0
M  V30 111 H 8.1065 -3.58404 2.10997 0
M  V30 112 H 6.6835 -3.71821 0.283421 0
M  V30 113 N 8.8686 -0.792821 -1.36206 0
M  V30 114 C 10.2796 -0.429513 -1.81692 0
M  V30 115 C 10.6306 1.04695 -1.65932 0
M  V30 116 O 9.7556 1.81256 -1.18218 0
M  V30 117 C 10.3506 -0.772831 -3.29868 0
M  V30 118 C 8.9096 -0.462307 -3.7355 0
M  V30 119 C 8.0566 -1.00569 -2.5842 0
M  V30 120 H 11.0076 -0.985672 -1.24379 0
M  V30 121 H 11.0286 -0.0651928 -3.80444 0
M  V30 122 H 10.5406 -1.84747 -3.41307 0
M  V30 123 H 8.6416 0.604158 -3.67669 0
M  V30 124 H 8.7546 -0.985299 -4.68859 0
M  V30 125 H 7.1186 -0.428734 -2.51066 0
M  V30 126 H 7.9016 -2.08616 -2.72643 0
M  V30 127 N 10.3467 1.47872 -0.545128 0
M  V30 128 C 11.5947 2.02093 -0.016553 0
M  V30 129 C 11.9157 1.42305 1.3332 0
M  V30 130 O 11.1857 0.593853 1.86682 0
M  V30 131 H 9.7657 0.746993 -0.00313038 0
M  V30 132 H 12.4277 1.81414 -0.712397 0
M  V30 133 H 11.5237 3.11996 0.0805422 0
M  V30 134 N 11.8248 0.280983 1.55075 0
M  V30 135 C 12.7878 -0.590896 2.21452 0
M  V30 136 C 13.7878 -1.07682 1.19421 0
M  V30 137 O 14.9778 -0.97605 1.44288 0
M  V30 138 C 12.1098 -1.81587 2.88511 0
M  V30 139 H 13.3028 -0.0112554 2.99898 0
M  V30 140 H 10.8558 0.0316438 1.56268 0
M  V30 141 H 11.5908 -2.43587 2.14093 0
M  V30 142 H 11.3758 -1.4753 3.63287 0
M  V30 143 H 12.8658 -2.43575 3.39206 0
M  V30 144 N 13.3029 -1.57598 0.00835791 0
M  V30 145 C 14.5429 -1.92788 -0.679136 0
M  V30 146 C 14.9069 -0.883378 -1.70471 0
M  V30 147 O 16.1079 -1.12079 -2.44319 0
M  V30 148 C 14.3789 -3.32994 -1.29807 0
M  V30 149 S 15.9379 -3.90082 -2.00952 0
M  V30 150 H 12.7559 -0.67475 -0.224127 0
M  V30 151 H 15.3579 -1.95385 0.0670497 0
M  V30 152 H 14.0619 -4.06846 -0.538922 0
M  V30 153 H 13.5929 -3.33791 -2.082 0
M  V30 154 H 15.6079 -3.71834 -3.28563 0
M  V30 155 N 14.781 0.264519 -1.55364 0
M  V30 156 C 16.006 1.01726 -1.80739 0
M  V30 157 C 16.431 1.78836 -0.583044 0
M  V30 158 O 15.789 1.75167 0.467566 0
M  V30 159 C 15.837 1.94482 -3.03659 0
M  V30 160 O 14.941 3.03386 -2.7934 0
M  V30 161 H 14.282 0.290395 -0.597132 0
M  V30 162 H 16.812 0.290854 -2.02522 0
M  V30 163 H 16.822 2.36278 -3.32621 0
M  V30 164 H 15.497 1.37772 -3.92418 0
M  V30 165 H 14.074 2.65844 -2.61498 0
M  V30 166 N 16.2591 1.48442 0.529413 0
M  V30 167 C 17.1891 1.65902 1.64313 0
M  V30 168 C 18.1701 0.507897 1.6234 0
M  V30 169 O 19.3551 0.740503 1.79528 0
M  V30 170 C 16.4851 1.69911 3.02898 0
M  V30 171 C 15.4391 2.8453 3.19729 0
M  V30 172 C 14.7651 2.73629 4.59381 0
M  V30 173 C 16.0651 4.25821 3.02447 0
M  V30 174 H 17.7591 2.5914 1.49955 0
M  V30 175 H 15.3051 1.24709 0.719982 0
M  V30 176 H 17.2581 1.80715 3.80684 0
M  V30 177 H 15.9821 0.732524 3.18279 0
M  V30 178 H 14.6411 2.73283 2.44361 0
M  V30 179 H 14.2891 1.74938 4.71599 0
M  V30 180 H 13.9891 3.50541 4.71588 0
M  V30 181 H 15.5131 2.86401 5.39265 0
M  V30 182 H 16.9271 4.37898 3.70024 0
M  V30 183 H 15.3241 5.03735 3.26146 0
M  V30 184 H 16.3941 4.42244 1.98867 0
M  V30 185 N 17.7372 -0.778329 1.37039 0
M  V30 186 C 18.9622 -1.57248 1.35233 0
M  V30 187 C 19.3872 -1.87999 -0.0615568 0
M  V30 188 O 18.7452 -1.48734 -1.03672 0
M  V30 189 C 18.7932 -2.86353 2.19167 0
M  V30 190 O 17.8972 -3.80442 1.59178 0
M  V30 191 H 17.2382 -0.476569 0.462362 0
M  V30 192 H 19.7682 -0.963853 1.80474 0
M  V30 193 H 19.7782 -3.35519 2.32145 0
M  V30 194 H 18.4532 -2.63299 3.21942 0
M  V30 195 H 17.0302 -3.39067 1.55203 0
M  V30 196 N 19.2153 -1.21501 -1.00376 0
M  V30 197 C 20.6263 -1.03146 -1.55621 0
M  V30 198 C 20.9773 0.408375 -1.91903 0
M  V30 199 O 20.1023 1.29177 -1.73616 0
M  V30 200 C 20.6973 -1.86612 -2.82775 0
M  V30 201 C 19.2563 -1.72586 -3.34501 0
M  V30 202 C 18.4033 -1.83747 -2.07683 0
M  V30 203 H 21.3543 -1.35505 -0.826081 0
M  V30 204 H 21.3753 -1.3771 -3.54706 0
M  V30 205 H 20.8873 -2.91399 -2.56336 0
M  V30 206 H 18.9883 -0.704877 -3.65872 0
M  V30 207 H 19.1013 -2.54623 -4.05837 0
M  V30 208 H 17.4653 -1.27069 -2.20739 0
M  V30 209 H 18.2483 -2.90044 -1.83655 0
M  V30 210 N 20.6934 1.19889 -1.02296 0
M  V30 211 C 21.6434 2.20777 -0.56934 0
M  V30 212 C 22.6274 1.56379 0.378741 0
M  V30 213 O 23.8194 1.75859 0.200673 0
M  V30 214 C 20.9484 3.43196 0.0845077 0
M  V30 215 C 20.0344 4.14749 -0.88566 0
M  V30 216 N 20.4254 4.62584 -2.04573 0
M  V30 217 C 18.7234 4.40347 -0.707835 0
M  V30 218 C 19.4244 5.17466 -2.65714 0
M  V30 219 N 18.4004 5.0791 -1.93723 0
M  V30 220 H 22.2024 2.55434 -1.45365 0
M  V30 221 H 19.7164 1.35897 -0.88915 0
M  V30 222 H 21.7134 4.14707 0.427067 0
M  V30 223 H 20.3734 3.10042 0.964574 0
M  V30 224 H 21.3844 4.57597 -2.4254 0
M  V30 225 H 18.0614 4.17317 0.12364 0
M  V30 226 H 19.4514 5.64808 -3.63925 0
M  V30 227 N 22.1715 0.800033 1.35784 0
M  V30 228 C 23.4205 0.37387 1.98205 0
M  V30 229 C 23.7335 -1.06302 1.64193 0
M  V30 230 O 24.9395 -1.59198 2.19928 0
M  V30 231 C 23.3955 0.617532 3.54562 0
M  V30 232 C 23.0035 2.06654 3.9749 0
M  V30 233 C 24.7475 0.256401 4.23725 0
M  V30 234 C 22.6545 2.2563 5.46667 0
M  V30 235 H 21.5845 0.136055 0.741623 0
M  V30 236 H 24.2355 0.983166 1.54939 0
M  V30 237 H 22.6175 -0.0616248 3.95952 0
M  V30 238 H 23.7915 2.78296 3.67271 0
M  V30 239 H 22.1065 2.38691 3.41197 0
M  V30 240 H 24.7035 0.376318 5.33374 0
M  V30 241 H 25.0465 -0.796692 4.08606 0
M  V30 242 H 25.5795 0.889214 3.87734 0
M  V30 243 H 22.3185 3.2936 5.66747 0
M  V30 244 H 21.8385 1.58504 5.78478 0
M  V30 245 H 23.5175 2.06861 6.1304 0
M  V30 246 N 23.6496 -1.47581 0.552962 0
M  V30 247 C 24.6126 -2.28439 -0.186605 0
M  V30 248 C 25.6126 -1.36706 -0.84665 0
M  V30 249 O 26.8026 -1.59378 -0.703164 0
M  V30 250 C 23.9346 -3.16264 -1.2724 0
M  V30 251 H 25.1276 -2.95294 0.523609 0
M  V30 252 H 22.6806 -1.532 0.309745 0
M  V30 253 H 23.4156 -2.54091 -2.01514 0
M  V30 254 H 23.2006 -3.83769 -0.803968 0
M  V30 255 H 24.6906 -3.77198 -1.79196 0
M  V30 256 N 25.1277 -0.289203 -1.54924 0
M  V30 257 C 26.0577 0.58549 -2.2604 0
M  V30 258 C 27.0387 1.14753 -1.25562 0
M  V30 259 O 28.2237 1.17906 -1.54311 0
M  V30 260 C 25.3537 1.76305 -2.99222 0
M  V30 261 C 24.3077 1.33191 -4.06748 0
M  V30 262 C 23.6337 2.5937 -4.6758 0
M  V30 263 C 24.9337 0.471775 -5.20165 0
M  V30 264 H 26.6277 -0.00763532 -2.99399 0
M  V30 265 H 24.1737 -0.00511229 -1.43999 0
M  V30 266 H 26.1267 2.38097 -3.47689 0
M  V30 267 H 24.8507 2.38223 -2.23422 0
M  V30 268 H 23.5097 0.737121 -3.59113 0
M  V30 269 H 23.1577 3.19576 -3.88433 0
M  V30 270 H 22.8577 2.31228 -5.40192 0
M  V30 271 H 24.3817 3.21985 -5.18804 0
M  V30 272 H 25.7957 0.995056 -5.64599 0
M  V30 273 H 24.1927 0.284639 -5.99425 0
M  V30 274 H 25.2627 -0.506041 -4.82252 0
M  V30 275 N 26.6058 1.57591 -0.0167156 0
M  V30 276 C 28.0218 1.55946 0.339557 0
M  V30 277 C 28.2218 1.02109 1.73713 0
M  V30 278 O 27.2778 0.662303 2.43659 0
M  V30 279 C 28.5908 3.00037 0.199499 0
M  V30 280 C 30.1388 3.11805 0.273193 0
M  V30 281 C 30.6138 4.57713 0.162068 0
M  V30 282 N 32.1048 4.6268 0.219444 0
M  V30 283 C 32.8398 5.73185 0.157054 0
M  V30 284 N 32.3358 6.92786 0.0442936 0
M  V30 285 N 34.1288 5.61707 0.21014 0
M  V30 286 H 26.2798 1.90921 -0.930758 0
M  V30 287 H 28.5428 0.877674 -0.358319 0
M  V30 288 H 28.2488 3.4333 -0.76273 0
M  V30 289 H 28.1228 3.64387 0.974786 0
M  V30 290 H 30.5098 2.68433 1.22587 0
M  V30 291 H 30.5908 2.50201 -0.532256 0
M  V30 292 H 30.2348 5.01763 -0.78714 0
M  V30 293 H 30.1648 5.17283 0.986222 0
M  V30 294 H 32.6558 3.76649 0.307246 0
M  V30 295 H 32.9688 7.728 0.00304069 0
M  V30 296 H 31.3138 6.94999 0.00968457 0
M  V30 297 H 34.5048 4.6716 0.296546 0
M  V30 298 H 34.6778 6.47807 0.158054 0
M  V30 299 N 28.0839 -0.256276 1.55502 0
M  V30 300 C 28.9939 -1.33882 1.92647 0
M  V30 301 C 30.0099 -1.53159 0.825727 0
M  V30 302 O 31.1859 -1.66963 1.12629 0
M  V30 303 C 28.2509 -2.6751 2.20543 0
M  V30 304 C 27.3119 -2.56836 3.43997 0
M  V30 305 C 26.5449 -3.84092 3.70553 0
M  V30 306 O 26.7679 -4.85545 2.99336 0
M  V30 307 O 25.7019 -3.83288 4.64084 0
M  V30 308 H 29.5279 -1.05374 2.84833 0
M  V30 309 H 27.1129 -0.456237 1.42263 0
M  V30 310 H 28.9949 -3.46492 2.39835 0
M  V30 311 H 27.6699 -2.9577 1.31536 0
M  V30 312 H 26.5769 -1.76172 3.30021 0
M  V30 313 H 27.9099 -2.33523 4.33275 0
M  V30 314 N 29.562 -1.4872 -0.521534 0
M  V30 315 C 30.525 -1.63379 -1.60748 0
M  V30 316 C 31.525 -0.50661 -1.52611 0
M  V30 317 O 32.715 -0.772601 -1.5613 0
M  V30 318 C 29.847 -1.61192 -3.00383 0
M  V30 319 H 31.04 -2.60217 -1.49087 0
M  V30 320 H 28.593 -1.37444 -0.744235 0
M  V30 321 H 29.328 -0.65863 -3.17541 0
M  V30 322 H 29.113 -2.43032 -3.07698 0
M  V30 323 H 30.603 -1.7466 -3.7932 0
M  V30 324 N 31.0401 0.771051 -1.3745 0
M  V30 325 C 32.2881 1.52661 -1.32435 0
M  V30 326 C 32.6091 1.9479 0.0905024 0
M  V30 327 O 31.8791 1.66348 1.03466 0
M  V30 328 H 30.4591 0.566218 -0.487244 0
M  V30 329 H 33.1211 0.917636 -1.71946 0
M  V30 330 H 32.2171 2.42568 -1.96385 0
M  V30 331 N 32.5182 1.22032 0.997298 0
M  V30 332 C 33.4482 1.01065 2.10495 0
M  V30 333 C 34.4292 -0.0669542 1.69968 0
M  V30 334 O 35.6142 0.0943987 1.9397 0
M  V30 335 C 32.7442 0.582874 3.42374 0
M  V30 336 C 31.6982 1.60592 3.96729 0
M  V30 337 C 31.0242 1.03412 5.24605 0
M  V30 338 C 32.3242 2.99478 4.27914 0
M  V30 339 H 34.0182 1.93708 2.28292 0
M  V30 340 H 31.5642 0.932761 1.09707 0
M  V30 341 H 33.5172 0.423332 4.19268 0
M  V30 342 H 32.2412 -0.379213 3.24391 0
M  V30 343 H 30.9002 1.75316 3.21963 0
M  V30 344 H 30.5482 0.063518 5.0296 0
M  V30 345 H 30.2482 1.71754 5.61938 0
M  V30 346 H 31.7722 0.886066 6.04137 0
M  V30 347 H 33.1862 2.88153 4.95622 0
M  V30 348 H 31.5832 3.64903 4.76409 0
M  V30 349 H 32.6532 3.49742 3.3587 0
M  V30 350 N 33.9963 -1.19345 1.0293 0
M  V30 351 C 34.9443 -2.24621 0.604001 0
M  V30 352 C 35.9383 -1.65452 -0.363587 0
M  V30 353 O 37.1443 -1.78497 -0.23212 0
M  V30 354 H 33.5193 -0.730858 0.177061 0
M  V30 355 H 35.4903 -2.5781 1.50255 0
M  V30 356 C 34.2393 -3.47688 -0.0289127 0
M  V30 357 H 33.5623 -3.93505 0.706651 0
M  V30 358 H 35.0023 -4.23011 -0.289432 0
M  V30 359 C 33.4613 -3.11817 -1.2756 0
M  V30 360 O 33.9913 -3.2451 -2.36762 0
M  V30 361 N 32.1973 -2.66246 -1.16453 0
M  V30 362 H 31.7443 -2.56118 -0.275914 0
M  V30 363 H 31.7023 -2.42617 -1.99961 0
M  V30 364 N 35.4744 -0.807222 -1.35358 0
M  V30 365 C 36.7214 -0.387888 -1.9875 0
M  V30 366 C 37.0494 1.04509 -1.64037 0
M  V30 367 O 36.3044 1.73986 -0.895946 0
M  V30 368 C 36.6034 -0.519036 -3.53611 0
M  V30 369 C 36.2694 -1.91542 -4.08194 0
M  V30 370 C 34.9314 -2.29745 -4.22813 0
M  V30 371 C 37.2834 -2.82896 -4.37744 0
M  V30 372 C 34.6114 -3.58668 -4.643 0
M  V30 373 C 36.9634 -4.11265 -4.8067 0
M  V30 374 C 35.6274 -4.49466 -4.93494 0
M  V30 375 H 34.8974 -0.141938 -0.727279 0
M  V30 376 H 37.5444 -1.02814 -1.6156 0
M  V30 377 H 35.8494 0.204658 -3.91265 0
M  V30 378 H 37.5464 -0.175345 -4.00616 0
M  V30 379 H 34.1364 -1.60862 -3.97268 0
M  V30 380 H 38.3204 -2.54629 -4.26002 0
M  V30 381 H 33.5764 -3.88113 -4.72418 0
M  V30 382 H 37.7504 -4.82153 -5.02496 0
M  V30 383 H 35.3774 -5.49418 -5.25399 0
M  V30 384 N 36.9525 1.47285 -0.560781 0
M  V30 385 C 37.8625 2.33846 0.187954 0
M  V30 386 C 38.8785 1.48412 0.908293 0
M  V30 387 O 40.0545 1.81332 0.876388 0
M  V30 388 C 37.1195 3.25178 1.2025 0
M  V30 389 C 36.1805 4.26504 0.489208 0
M  V30 390 C 35.4135 5.13472 1.45542 0
M  V30 391 O 35.6365 5.02959 2.6905 0
M  V30 392 O 34.5705 5.93902 0.977963 0
M  V30 393 H 38.3965 2.99177 -0.522177 0
M  V30 394 H 35.9815 1.45903 -0.321364 0
M  V30 395 H 37.8635 3.81584 1.78805 0
M  V30 396 H 36.5385 2.6247 1.89449 0
M  V30 397 H 35.4455 3.73847 -0.137627 0
M  V30 398 H 36.7785 4.91935 -0.161399 0
M  V30 399 N 38.4306 0.297415 1.54768 0
M  V30 400 C 39.3606 -0.573494 2.26348 0
M  V30 401 C 40.3416 -1.14085 1.26169 0
M  V30 402 O 41.5266 -1.17086 1.54934 0
M  V30 403 C 38.6566 -1.74716 3.00153 0
M  V30 404 C 37.6106 -1.31032 4.07449 0
M  V30 405 C 36.9366 -2.56887 4.68949 0
M  V30 406 C 38.2366 -0.444183 5.20408 0
M  V30 407 H 39.9306 0.0235131 2.99391 0
M  V30 408 H 37.4766 0.0127488 1.43994 0
M  V30 409 H 39.4296 -2.3625 3.48947 0
M  V30 410 H 38.1536 -2.37035 2.24682 0
M  V30 411 H 36.8126 -0.718066 3.59499 0
M  V30 412 H 36.4606 -3.17512 3.90122 0
M  V30 413 H 36.1606 -2.2836 5.41411 0
M  V30 414 H 37.6846 -3.19229 5.20505 0
M  V30 415 H 39.0986 -0.9651 5.65118 0
M  V30 416 H 37.4956 -0.252846 5.99567 0
M  V30 417 H 38.5656 0.531609 4.81977 0
M  V30 418 N 39.9087 -1.5758 0.0250728 0
M  V30 419 C 41.1547 -1.91917 -0.655413 0
M  V30 420 C 41.4877 -0.901433 -1.72011 0
M  V30 421 O 40.7627 0.0764069 -1.9435 0
M  V30 422 C 41.0457 -3.36751 -1.27558 0
M  V30 423 C 40.8987 -4.49258 -0.220719 0
M  V30 424 C 42.2177 -3.81469 -2.19475 0
M  V30 425 H 39.3367 -0.697925 -0.23679 0
M  V30 426 H 41.9787 -1.89825 0.0815036 0
M  V30 427 H 40.1287 -3.38664 -1.90365 0
M  V30 428 H 41.8007 -4.59478 0.409601 0
M  V30 429 H 40.0437 -4.31415 0.454264 0
M  V30 430 H 40.7147 -5.47618 -0.694175 0
M  V30 431 H 43.1907 -3.81266 -1.66659 0
M  V30 432 H 42.0667 -4.83512 -2.59822 0
M  V30 433 H 42.3277 -3.16744 -3.08424 0
M  V30 434 N 41.3868 0.248026 -1.55636 0
M  V30 435 C 42.3188 1.32993 -1.8667 0
M  V30 436 C 43.3318 1.44345 -0.752877 0
M  V30 437 O 44.5208 1.45715 -1.03098 0
M  V30 438 C 41.6208 2.70863 -2.03682 0
M  V30 439 C 40.7938 2.81792 -3.34532 0
M  V30 440 C 39.8528 4.005 -3.41301 0
M  V30 441 O 38.8788 3.9008 -4.14519 0
M  V30 442 N 40.0808 5.13618 -2.70512 0
M  V30 443 H 42.8458 1.06707 -2.8006 0
M  V30 444 H 40.4068 0.438129 -1.55859 0
M  V30 445 H 42.3988 3.48612 -2.05553 0
M  V30 446 H 40.9688 2.89862 -1.17041 0
M  V30 447 H 40.1888 1.90729 -3.44987 0
M  V30 448 H 41.4768 2.86043 -4.20781 0
M  V30 449 H 40.8748 5.24975 -2.10755 0
M  V30 450 H 39.4318 5.89505 -2.78077 0
M  V30 451 N 42.8649 1.48995 0.513639 0
M  V30 452 C 44.1109 1.58076 1.27042 0
M  V30 453 C 44.4439 0.261026 1.92438 0
M  V30 454 O 43.7189 -0.734393 1.80103 0
M  V30 455 C 44.0019 2.73091 2.34719 0
M  V30 456 C 43.8549 4.14821 1.73907 0
M  V30 457 C 45.1739 2.83796 3.36375 0
M  V30 458 H 42.2929 0.575391 0.460536 0
M  V30 459 H 44.9349 1.81232 0.570516 0
M  V30 460 H 43.0849 2.53479 2.94416 0
M  V30 461 H 44.7569 4.45917 1.18135 0
M  V30 462 H 42.9999 4.21058 1.0437 0
M  V30 463 H 43.6709 4.91147 2.51949 0
M  V30 464 H 46.1469 3.01611 2.86653 0
M  V30 465 H 45.0229 3.65971 4.09093 0
M  V30 466 H 45.2839 1.92624 3.9793 0
M  V30 467 N 44.343 -0.763751 1.37857 0
M  V30 468 C 45.62 -1.51244 1.24035 0
M  V30 469 C 46 -2.10472 -0.162649 0
M  V30 470 O 45.348 -1.96206 -1.17112 0
M  V30 471 C 45.558 -2.58694 2.34261 0
M  V30 472 C 46.906 -3.25878 2.72193 0
M  V30 473 O 47.93 -2.68993 2.33497 0
M  V30 474 O 46.789 -4.2874 3.38887 0
M  V30 475 H 43.883 -0.670243 0.484462 0
M  V30 476 H 46.429 -0.800031 1.49658 0
M  V30 477 H 45.201 -2.13105 3.2818 0
M  V30 478 H 44.824 -3.37527 2.10146 0
M  V30 479 N 45.8211 -1.22559 -0.990812 0
M  V30 480 C 46.7511 -1.0218 -2.09956 0
M  V30 481 C 47.7321 0.0579394 -1.70001 0
M  V30 482 O 48.9171 -0.104684 -1.93918 0
M  V30 483 C 46.0471 -0.601023 -3.4206 0
M  V30 484 C 45.0011 -1.62694 -3.95872 0
M  V30 485 C 44.3271 -1.06193 -5.24049 0
M  V30 486 C 45.6271 -3.01743 -4.2632 0
M  V30 487 H 47.3211 -1.94916 -2.27262 0
M  V30 488 H 44.8671 -0.938566 -1.09211 0
M  V30 489 H 46.8201 -0.445561 -4.19038 0
M  V30 490 H 45.5441 0.362005 -3.24588 0
M  V30 491 H 44.2031 -1.77021 -3.21028 0
M  V30 492 H 43.8511 -0.0901903 -5.02919 0
M  V30 493 H 43.5511 -1.74732 -5.61019 0
M  V30 494 H 45.0751 -0.918092 -6.03658 0
M  V30 495 H 46.4891 -2.90777 -4.94087 0
M  V30 496 H 44.8861 -3.67425 -4.74467 0
M  V30 497 H 45.9561 -3.51518 -3.34011 0
M  V30 498 N 47.2992 1.18797 -1.03562 0
M  V30 499 C 48.2622 2.20464 -0.626769 0
M  V30 500 C 49.2622 1.57721 0.313173 0
M  V30 501 O 50.4522 1.73917 0.0992615 0
M  V30 502 C 47.5842 3.40802 0.0818498 0
M  V30 503 H 48.7772 2.58149 -1.5264 0
M  V30 504 H 46.3302 1.32593 -0.827578 0
M  V30 505 H 47.0652 3.08642 0.995518 0
M  V30 506 H 46.8502 3.8758 -0.593652 0
M  V30 507 H 48.3402 4.16092 0.354584 0
M  V30 508 N 48.7773 0.814389 1.34928 0
M  V30 509 C 50.0023 0.410097 2.03305 0
M  V30 510 C 50.4273 -0.973464 1.60951 0
M  V30 511 O 49.7853 -1.63185 0.789964 0
M  V30 512 C 49.8333 0.51049 3.56968 0
M  V30 513 O 48.9373 -0.473035 4.09678 0
M  V30 514 H 48.2783 0.170088 0.641846 0
M  V30 515 H 50.8083 1.10244 1.72358 0
M  V30 516 H 50.8183 0.383135 4.06197 0
M  V30 517 H 49.4933 1.51963 3.87144 0
M  V30 518 H 48.0703 -0.305272 3.71648 0
M  V30 519 N 50.2554 -1.46986 0.568584 0
M  V30 520 C 51.2024 -2.30153 -0.172707 0
M  V30 521 C 52.1724 -1.39759 -0.897586 0
M  V30 522 O 53.3574 -1.68716 -0.891044 0
M  V30 523 C 50.4974 -3.23952 -1.1895 0
M  V30 524 C 49.6104 -4.29441 -0.469517 0
M  V30 525 C 48.7454 -5.1038 -1.47259 0
M  V30 526 C 47.7844 -6.07632 -0.738225 0
M  V30 527 N 46.9214 -6.8149 -1.68868 0
M  V30 528 H 51.7614 -2.93019 0.542596 0
M  V30 529 H 49.2984 -1.44422 0.279401 0
M  V30 530 H 51.2564 -3.76767 -1.79173 0
M  V30 531 H 49.8864 -2.62926 -1.87269 0
M  V30 532 H 48.9384 -3.79594 0.247467 0
M  V30 533 H 50.2504 -4.98689 0.105241 0
M  V30 534 H 49.4044 -5.67402 -2.14803 0
M  V30 535 H 48.1434 -4.4106 -2.08128 0
M  V30 536 H 47.1484 -5.49778 -0.0489293 0
M  V30 537 H 48.3734 -6.78966 -0.135129 0
M  V30 538 H 46.3194 -6.14891 -2.28573 0
M  V30 539 H 46.2364 -7.46948 -1.16636 0
M  V30 540 H 47.5044 -7.43078 -2.3549 0
M  V30 541 N 51.7335 -0.305618 -1.54608 0
M  V30 542 C 52.6805 0.568421 -2.23691 0
M  V30 543 C 53.6505 1.12592 -1.22116 0
M  V30 544 O 54.8355 1.16959 -1.50749 0
M  V30 545 C 51.9755 1.7322 -2.98477 0
M  V30 546 C 51.0885 1.20566 -4.14835 0
M  V30 547 C 50.2235 2.33368 -4.77193 0
M  V30 548 C 49.2625 1.7787 -5.85686 0
M  V30 549 N 48.3995 2.84263 -6.4198 0
M  V30 550 H 53.2395 -0.0272867 -2.97988 0
M  V30 551 H 50.7765 -0.0252363 -1.47078 0
M  V30 552 H 52.7345 2.41675 -3.40072 0
M  V30 553 H 51.3645 2.29947 -2.26548 0
M  V30 554 H 50.4165 0.413223 -3.78149 0
M  V30 555 H 51.7285 0.759417 -4.92985 0
M  V30 556 H 50.8825 3.09761 -5.21664 0
M  V30 557 H 49.6215 2.8132 -3.98385 0
M  V30 558 H 48.6265 0.99968 -5.40635 0
M  V30 559 H 49.8515 1.30816 -6.66381 0
M  V30 560 H 47.7975 3.31541 -5.66053 0
M  V30 561 H 47.7145 2.44149 -7.15491 0
M  V30 562 H 48.9825 3.6054 -6.91109 0
M  V30 563 N 53.2116 1.57565 -0.0334293 0
M  V30 564 C 54.4396 1.9628 0.654347 0
M  V30 565 C 54.8546 0.910138 1.65414 0
M  V30 566 O 54.2116 -0.107595 1.82183 0
M  V30 567 C 54.2626 3.35067 1.35693 0
M  V30 568 O 53.9836 4.36296 0.397191 0
M  V30 569 C 55.4846 3.88439 2.13613 0
M  V30 570 H 52.7046 0.646369 0.180132 0
M  V30 571 H 55.2486 2.04282 -0.0944721 0
M  V30 572 H 53.4036 3.2827 2.05712 0
M  V30 573 H 53.8176 5.1678 0.896597 0
M  V30 574 H 55.2916 4.8788 2.58219 0
M  V30 575 H 55.7686 3.22914 2.97696 0
M  V30 576 H 56.3746 3.98516 1.48543 0
M  V30 577 N 54.6897 -0.239769 1.55765 0
M  V30 578 C 55.6527 -1.28038 1.90103 0
M  V30 579 C 56.6527 -1.40723 0.778055 0
M  V30 580 O 57.8427 -1.39301 1.04599 0
M  V30 581 C 54.9747 -2.65702 2.13577 0
M  V30 582 H 56.1677 -0.988048 2.83157 0
M  V30 583 H 53.7207 -0.479382 1.48767 0
M  V30 584 H 54.4557 -3.00063 1.23015 0
M  V30 585 H 54.2407 -2.57875 2.95369 0
M  V30 586 H 55.7307 -3.40828 2.41301 0
M  V30 587 N 56.1678 -1.49265 -0.50573 0
M  V30 588 C 57.3928 -1.62478 -1.28902 0
M  V30 589 C 57.8178 -0.294332 -1.85783 0
M  V30 590 O 57.1758 0.737412 -1.65626 0
M  V30 591 C 57.2238 -2.69268 -2.39848 0
M  V30 592 O 56.3278 -2.28113 -3.43567 0
M  V30 593 H 55.6688 -0.54399 -0.380751 0
M  V30 594 H 58.1988 -1.95421 -0.605952 0
M  V30 595 H 58.2088 -2.91291 -2.85681 0
M  V30 596 H 56.8838 -3.65846 -1.97812 0
M  V30 597 H 55.4608 -2.16401 -3.03685 0
M  V30 598 N 57.6459 0.756429 -1.3826 0
M  V30 599 C 58.8939 1.51248 -1.34047 0
M  V30 600 C 59.2149 1.94875 0.0698372 0
M  V30 601 O 58.4849 1.67436 1.01696 0
M  V30 602 H 57.0649 0.561018 -0.493222 0
M  V30 603 H 59.7269 0.899347 -1.7291 0
M  V30 604 H 58.8229 2.40472 -1.98947 0
M  V30 605 N 59.124 1.23083 0.984299 0
M  V30 606 C 60.056 0.96636 2.07832 0
M  V30 607 C 61.069 -0.0582135 1.62696 0
M  V30 608 O 62.258 0.176843 1.77622 0
M  V30 609 C 59.358 0.433397 3.36117 0
M  V30 610 C 58.531 1.51722 4.10243 0
M  V30 611 C 57.59 0.989821 5.16807 0
M  V30 612 O 56.616 1.67794 5.43906 0
M  V30 613 N 57.818 -0.184367 5.80207 0
M  V30 614 H 60.583 1.90824 2.31098 0
M  V30 615 H 58.144 1.13888 1.1507 0
M  V30 616 H 60.136 0.065699 4.04647 0
M  V30 617 H 58.706 -0.413806 3.09849 0
M  V30 618 H 57.926 2.05786 3.36223 0
M  V30 619 H 59.214 2.24619 4.56534 0
M  V30 620 H 58.612 -0.760062 5.60571 0
M  V30 621 H 57.169 -0.493366 6.4993 0
M  V30 622 N 60.6021 -1.18246 1.0419 0
M  V30 623 C 61.8791 -1.84121 0.660208 0
M  V30 624 C 62.2591 -1.92778 -0.860221 0
M  V30 625 O 61.6071 -1.45464 -1.76217 0
M  V30 626 C 61.8171 -3.22355 1.33747 0
M  V30 627 C 63.1651 -3.98376 1.46906 0
M  V30 628 O 64.1891 -3.31799 1.29568 0
M  V30 629 O 63.0481 -5.17665 1.75171 0
M  V30 630 H 60.1421 -0.794036 0.231161 0
M  V30 631 H 62.6881 -1.25628 1.14087 0
M  V30 632 H 61.4601 -3.10964 2.37522 0
M  V30 633 H 61.0831 -3.88506 0.845515 0
M  V30 634 N 62.0802 -0.821533 -1.34494 0
M  V30 635 C 63.3102 -0.421272 -2.02259 0
M  V30 636 C 63.7182 0.977047 -1.6202 0
M  V30 637 O 63.0612 1.64348 -0.820703 0
M  V30 638 C 63.1232 -0.44231 -3.56769 0
M  V30 639 C 62.7872 -1.79372 -4.20327 0
M  V30 640 C 63.7842 -2.75435 -4.40944 0
M  V30 641 C 61.4692 -2.08182 -4.57127 0
M  V30 642 C 63.4632 -3.98482 -4.97484 0
M  V30 643 C 61.1502 -3.31489 -5.13379 0
M  V30 644 C 62.1482 -4.26457 -5.33501 0
M  V30 645 O 61.8362 -5.47585 -5.88562 0
M  V30 646 H 61.5682 -0.167473 -0.654927 0
M  V30 647 H 64.1222 -1.11073 -1.72777 0
M  V30 648 H 62.3522 0.303836 -3.85505 0
M  V30 649 H 64.0412 -0.0622925 -4.05852 0
M  V30 650 H 64.8072 -2.54473 -4.12878 0
M  V30 651 H 60.6862 -1.35066 -4.4077 0
M  V30 652 H 64.2302 -4.72618 -5.13106 0
M  V30 653 H 60.1272 -3.52316 -5.40873 0
M  V30 654 H 60.8952 -5.49086 -6.06998 0
M  V30 655 N 63.5583 1.46682 -0.576371 0
M  V30 656 C 64.4883 2.33028 0.148397 0
M  V30 657 C 65.4693 1.44961 0.889956 0
M  V30 658 O 66.6543 1.73789 0.866662 0
M  V30 659 C 63.7843 3.27117 1.1667 0
M  V30 660 C 62.7383 4.24575 0.540386 0
M  V30 661 C 62.0643 5.08126 1.6647 0
M  V30 662 C 63.3643 5.19722 -0.518331 0
M  V30 663 H 65.0583 2.93875 -0.572509 0
M  V30 664 H 62.6043 1.41315 -0.276768 0
M  V30 665 H 64.5573 3.86374 1.68204 0
M  V30 666 H 63.2813 2.64364 1.9178 0
M  V30 667 H 61.9403 3.66571 0.0461769 0
M  V30 668 H 61.5883 4.41762 2.40531 0
M  V30 669 H 61.2883 5.74122 1.25131 0
M  V30 670 H 62.8123 5.70246 2.18293 0
M  V30 671 H 64.2263 5.73232 -0.0883058 0
M  V30 672 H 62.6233 5.94026 -0.851679 0
M  V30 673 H 63.6933 4.64037 -1.40703 0
M  V30 674 N 65.0364 0.313813 1.54444 0
M  V30 675 C 65.9464 -0.565714 2.27677 0
M  V30 676 C 66.9624 -1.13754 1.31666 0
M  V30 677 O 68.1384 -1.15959 1.64668 0
M  V30 678 C 65.2034 -1.71528 3.01296 0
M  V30 679 C 64.2644 -1.17624 4.12872 0
M  V30 680 C 63.4974 -2.27102 4.8297 0
M  V30 681 O 63.7204 -3.47256 4.52514 0
M  V30 682 O 62.6544 -1.9307 5.70094 0
M  V30 683 H 66.4804 0.0287296 3.03686 0
M  V30 684 H 64.0654 0.0798312 1.49187 0
M  V30 685 H 65.9474 -2.38476 3.4743 0
M  V30 686 H 64.6224 -2.29608 2.2817 0
M  V30 687 H 63.5294 -0.472124 3.71109 0
M  V30 688 H 64.8624 -0.640695 4.88012 0
M  V30 689 N 66.5145 -1.57545 0.0417849 0
M  V30 690 C 67.7635 -1.91494 -0.633492 0
M  V30 691 C 68.0765 -0.921084 -1.72556 0
M  V30 692 O 69.2825 -1.15228 -2.45835 0
M  V30 693 C 67.7385 -3.40072 -1.17808 0
M  V30 694 C 67.3465 -4.47843 -0.118633 0
M  V30 695 C 69.0905 -3.8307 -1.82915 0
M  V30 696 C 66.9975 -5.87529 -0.675578 0
M  V30 697 H 65.9275 -0.714653 -0.24039 0
M  V30 698 H 68.5785 -1.83175 0.109148 0
M  V30 699 H 66.9605 -3.43364 -1.97274 0
M  V30 700 H 68.1345 -4.56128 0.654494 0
M  V30 701 H 66.4495 -4.14128 0.434414 0
M  V30 702 H 69.0465 -4.84794 -2.25563 0
M  V30 703 H 69.3895 -3.1881 -2.67705 0
M  V30 704 H 69.9225 -3.82255 -1.10119 0
M  V30 705 H 66.6615 -6.55362 0.134475 0
M  V30 706 H 66.1815 -5.82824 -1.4169 0
M  V30 707 H 67.8605 -6.36491 -1.1614 0
M  V30 708 N 67.9926 0.231505 -1.5589 0
M  V30 709 C 68.9406 1.30649 -1.92441 0
M  V30 710 C 69.9346 1.49037 -0.805254 0
M  V30 711 O 71.1406 1.50329 -0.990007 0
M  V30 712 H 67.5156 0.437812 -0.611412 0
M  V30 713 H 69.4866 0.970973 -2.82161 0
M  V30 714 C 68.2356 2.65179 -2.24889 0
M  V30 715 H 67.5586 2.51835 -3.10514 0
M  V30 716 H 68.9986 3.39234 -2.54355 0
M  V30 717 C 67.4576 3.19439 -1.07054 0
M  V30 718 O 67.9876 4.00371 -0.326499 0
M  V30 719 N 66.1936 2.77675 -0.85703 0
M  V30 720 H 65.7406 2.11969 -1.46379 0
M  V30 721 H 65.6986 3.14321 -0.0703223 0
M  V30 722 N 69.4707 1.49531 0.497807 0
M  V30 723 C 70.8817 1.52344 1.07927 0
M  V30 724 C 71.2327 0.311469 1.93712 0
M  V30 725 O 70.3577 -0.578405 2.08527 0
M  V30 726 C 70.9527 2.76062 1.96405 0
M  V30 727 C 69.5117 2.81643 2.49709 0
M  V30 728 C 68.6587 2.46299 1.27404 0
M  V30 729 H 71.6097 1.56182 0.281576 0
M  V30 730 H 71.6307 2.56405 2.81135 0
M  V30 731 H 71.1427 3.64254 1.33943 0
M  V30 732 H 69.2437 1.97739 3.15801 0
M  V30 733 H 69.3567 3.83891 2.86643 0
M  V30 734 H 67.7207 1.98148 1.60029 0
M  V30 735 H 68.5037 3.36769 0.66645 0
M  V30 736 N 70.9488 -0.749086 1.3866 0
M  V30 737 C 71.9118 -1.84457 1.36045 0
M  V30 738 C 72.9118 -1.58682 0.260122 0
M  V30 739 O 74.1018 -1.66343 0.517261 0
M  V30 740 C 71.2338 -3.22008 1.11911 0
M  V30 741 H 72.4268 -1.88182 2.33512 0
M  V30 742 H 69.9798 -0.951266 1.24019 0
M  V30 743 H 70.7148 -3.2395 0.150686 0
M  V30 744 H 70.4998 -3.42111 1.91579 0
M  V30 745 H 71.9898 -4.0208 1.12788 0
M  V30 746 N 72.4269 -1.23603 -0.977757 0
M  V30 747 C 73.6749 -1.06759 -1.71601 0
M  V30 748 C 73.9959 0.395929 -1.90938 0
M  V30 749 O 73.2659 1.28356 -1.47992 0
M  V30 750 H 71.8459 -0.392062 -0.635843 0
M  V30 751 H 74.5079 -1.55362 -1.1768 0
M  V30 752 H 73.6039 -1.55763 -2.70452 0
M  V30 753 N 73.905 1.17692 -1.04816 0
M  V30 754 C 75.135 1.91508 -0.775128 0
M  V30 755 C 75.543 1.76844 0.67253 0
M  V30 756 O 74.886 1.10057 1.47082 0
M  V30 757 C 74.948 3.43167 -1.0713 0
M  V30 758 C 74.612 3.81612 -2.51438 0
M  V30 759 C 75.609 3.84772 -3.49638 0
M  V30 760 C 73.294 4.12687 -2.86348 0
M  V30 761 C 75.288 4.18469 -4.80794 0
M  V30 762 C 72.975 4.46053 -4.17708 0
M  V30 763 C 73.973 4.48921 -5.14741 0
M  V30 764 O 73.661 4.81504 -6.43746 0
M  V30 765 H 73.393 0.614575 -0.281555 0
M  V30 766 H 75.947 1.50206 -1.40098 0
M  V30 767 H 74.177 3.84745 -0.388342 0
M  V30 768 H 75.866 3.98239 -0.784883 0
M  V30 769 H 76.632 3.60893 -3.24008 0
M  V30 770 H 72.511 4.09627 -2.11486 0
M  V30 771 H 76.055 4.20623 -5.56527 0
M  V30 772 H 71.952 4.69393 -4.43103 0
M  V30 773 H 72.72 4.99377 -6.4851 0
M  V30 774 N 75.3831 0.828654 1.34056 0
M  V30 775 C 76.6291 0.42008 1.98402 0
M  V30 776 C 76.9621 -1.01564 1.65525 0
M  V30 777 O 76.2371 -1.70834 0.929831 0
M  V30 778 C 76.5201 0.62927 3.54559 0
M  V30 779 C 76.3731 2.11152 3.97159 0
M  V30 780 C 77.6921 0.0688756 4.40046 0
M  V30 781 H 74.8111 0.154104 0.720709 0
M  V30 782 H 77.4531 1.04228 1.5886 0
M  V30 783 H 75.6031 0.0996418 3.88372 0
M  V30 784 H 77.2751 2.70522 3.73651 0
M  V30 785 H 75.5181 2.59985 3.47261 0
M  V30 786 H 76.1891 2.20868 5.05887 0
M  V30 787 H 78.6651 0.521458 4.1282 0
M  V30 788 H 77.5411 0.245006 5.48353 0
M  V30 789 H 77.8021 -1.0266 4.30015 0
M  V30 790 N 76.8612 -1.46375 0.584142 0
M  V30 791 C 78.2722 -1.86031 0.157959 0
M  V30 792 C 78.6232 -1.48753 -1.27933 0
M  V30 793 O 77.7482 -0.903098 -1.96655 0
M  V30 794 C 78.3432 -3.37642 0.279892 0
M  V30 795 C 76.9022 -3.76289 -0.09143 0
M  V30 796 C 76.0492 -2.7039 0.615178 0
M  V30 797 H 79.0002 -1.37509 0.792274 0
M  V30 798 H 79.0212 -3.77275 -0.494364 0
M  V30 799 H 78.5332 -3.64742 1.32607 0
M  V30 800 H 76.6342 -3.54806 -1.13769 0
M  V30 801 H 76.7472 -4.78246 0.285886 0
M  V30 802 H 75.1112 -2.5464 0.0552833 0
M  V30 803 H 75.8942 -3.0033 1.66303 0
M  V30 804 N 78.3393 -0.321999 -1.54275 0
M  V30 805 C 79.5793 0.281657 -2.0245 0
M  V30 806 C 79.9433 1.49468 -1.20513 0
M  V30 807 O 81.1443 2.17109 -1.58484 0
M  V30 808 C 79.4153 0.609014 -3.52173 0
M  V30 809 S 80.9743 1.19255 -4.22284 0
M  V30 810 H 77.7923 0.0852825 -0.705867 0
M  V30 811 H 80.3943 -0.454758 -1.90137 0
M  V30 812 H 79.0983 -0.281982 -4.0943 0
M  V30 813 H 78.6293 1.37567 -3.68563 0
M  V30 814 H 80.6443 2.47944 -4.29812 0
M  V30 815 N 79.8174 1.5752 -0.0501392 0
M  V30 816 C 80.7474 2.14502 0.922566 0
M  V30 817 C 81.7284 1.06642 1.3252 0
M  V30 818 O 82.9134 1.34577 1.4001 0
M  V30 819 C 80.0434 2.68916 2.19776 0
M  V30 820 C 78.9974 3.8175 1.93523 0
M  V30 821 C 78.3234 4.22677 3.27487 0
M  V30 822 C 79.6234 5.06932 1.25765 0
M  V30 823 H 81.3174 2.9603 0.447952 0
M  V30 824 H 78.8634 1.42401 0.214024 0
M  V30 825 H 80.8164 3.07419 2.88222 0
M  V30 826 H 79.5404 1.84578 2.69441 0
M  V30 827 H 78.1994 3.43718 1.27489 0
M  V30 828 H 77.8474 3.35291 3.74952 0
M  V30 829 H 77.5474 4.98725 3.1072 0
M  V30 830 H 79.0714 4.63779 3.97166 0
M  V30 831 H 80.4854 5.42888 1.84244 0
M  V30 832 H 78.8824 5.88116 1.19328 0
M  V30 833 H 79.9524 4.84337 0.233536 0
M  V30 834 N 81.2955 -0.223234 1.56011 0
M  V30 835 C 82.2275 -1.30006 1.88762 0
M  V30 836 C 83.2405 -1.43129 0.775746 0
M  V30 837 O 84.4295 -1.44057 1.05403 0
M  V30 838 C 81.5295 -2.67589 2.07965 0
M  V30 839 C 80.7025 -2.76434 3.38973 0
M  V30 840 C 79.7615 -3.95019 3.47629 0
M  V30 841 O 78.7875 -3.83436 4.20672 0
M  V30 842 N 79.9895 -5.09249 2.78649 0
M  V30 843 H 82.7545 -1.02238 2.81722 0
M  V30 844 H 80.3155 -0.413278 1.56536 0
M  V30 845 H 82.3075 -3.45297 2.11073 0
M  V30 846 H 80.8775 -2.87964 1.21638 0
M  V30 847 H 80.0975 -1.85216 3.47978 0
M  V30 848 H 81.3855 -2.79313 4.25278 0
M  V30 849 H 80.7835 -5.21556 2.19081 0
M  V30 850 H 79.3405 -5.85007 2.8742 0
M  V30 851 N 82.7736 -1.49793 -0.48987 0
M  V30 852 C 83.7036 -1.70201 -1.59856 0
M  V30 853 C 84.6846 -0.55076 -1.60937 0
M  V30 854 O 85.8696 -0.787841 -1.77501 0
M  V30 855 C 82.9996 -1.77882 -2.98287 0
M  V30 856 C 81.9536 -2.92907 -3.12073 0
M  V30 857 C 81.2796 -2.85712 -4.51965 0
M  V30 858 C 82.5796 -4.3369 -2.91051 0
M  V30 859 H 84.2736 -2.63025 -1.43032 0
M  V30 860 H 81.8196 -1.26574 -0.686664 0
M  V30 861 H 83.7726 -1.90744 -3.75759 0
M  V30 862 H 82.4966 -0.816653 -3.16225 0
M  V30 863 H 81.1556 -2.79665 -2.37029 0
M  V30 864 H 80.8036 -1.8738 -4.66795 0
M  V30 865 H 80.5036 -3.62921 -4.62128 0
M  V30 866 H 82.0276 -3.00598 -5.31482 0
M  V30 867 H 83.4416 -4.47555 -3.58284 0
M  V30 868 H 81.8386 -5.12205 -3.12675 0
M  V30 869 H 82.9086 -4.47362 -1.87071 0
M  V30 870 N 84.2517 0.741722 -1.39055 0
M  V30 871 C 85.5287 1.49252 -1.26425 0
M  V30 872 C 85.9087 2.10705 0.129144 0
M  V30 873 O 85.2567 1.98045 1.13976 0
M  V30 874 C 85.4667 2.54934 -2.38347 0
M  V30 875 C 86.8147 3.21506 -2.77343 0
M  V30 876 O 87.8387 2.65245 -2.37747 0
M  V30 877 O 86.6977 4.23294 -3.45665 0
M  V30 878 H 83.7917 0.662451 -0.495064 0
M  V30 879 H 86.3377 0.776121 -1.50912 0
M  V30 880 H 85.1097 2.07857 -3.31529 0
M  V30 881 H 84.7327 3.34141 -2.15489 0
M  V30 882 N 85.7298 1.2412 0.971189 0
M  V30 883 C 87.0068 0.986867 1.6888 0
M  V30 884 C 87.3868 -0.491857 2.0529 0
M  V30 885 O 86.7348 -1.46531 1.75331 0
M  V30 886 C 86.9448 1.9063 2.92338 0
M  V30 887 C 88.2928 2.17515 3.64654 0
M  V30 888 O 89.3168 1.88254 3.02388 0
M  V30 889 O 88.1758 2.6719 4.7673 0
M  V30 890 H 85.2698 0.372944 0.738134 0
M  V30 891 H 87.8158 1.35203 1.02559 0
M  V30 892 H 86.5878 2.90552 2.62097 0
M  V30 893 H 86.2108 1.54408 3.66393 0
M  V30 894 N 87.2079 -1.17134 1.05439 0
M  V30 895 C 88.4559 -1.87085 0.764429 0
M  V30 896 C 88.7769 -1.81584 -0.710787 0
M  V30 897 O 88.0469 -1.24349 -1.51374 0
M  V30 898 H 86.6269 -0.692627 0.279779 0
M  V30 899 H 89.2889 -1.42087 1.33406 0
M  V30 900 H 88.3849 -2.92759 1.0816 0
M  V30 901 N 88.686 -0.835752 -1.33615 0
M  V30 902 C 90.102 -0.523139 -1.50783 0
M  V30 903 C 90.302 0.950171 -1.77691 0
M  V30 904 O 89.358 1.73411 -1.83534 0
M  V30 905 C 90.671 -1.39378 -2.66448 0
M  V30 906 C 92.219 -1.39223 -2.80332 0
M  V30 907 C 92.694 -2.24765 -3.99055 0
M  V30 908 N 94.185 -2.22458 -4.06284 0
M  V30 909 C 94.92 -2.85386 -4.97336 0
M  V30 910 N 94.416 -3.57354 -5.93523 0
M  V30 911 N 96.209 -2.74872 -4.90308 0
M  V30 912 H 88.36 -1.78952 -1.14411 0
M  V30 913 H 90.623 -0.763297 -0.562212 0
M  V30 914 H 90.329 -2.44061 -2.53234 0
M  V30 915 H 90.203 -1.0676 -3.61776 0
M  V30 916 H 92.59 -0.353136 -2.92979 0
M  V30 917 H 92.671 -1.75846 -1.85773 0
M  V30 918 H 92.315 -3.28732 -3.87167 0
M  V30 919 H 92.245 -1.85485 -4.92852 0
M  V30 920 H 94.736 -1.70119 -3.37443 0
M  V30 921 H 95.049 -4.02584 -6.59656 0
M  V30 922 H 93.394 -3.61461 -5.93608 0
M  V30 923 H 96.585 -2.18213 -4.14126 0
M  V30 924 H 96.758 -3.24199 -5.61069 0
M  V30 925 N 90.1641 1.46063 -0.591896 0
M  V30 926 C 91.3921 2.06717 -0.0868936 0
M  V30 927 C 91.8071 1.43916 1.22203 0
M  V30 928 O 91.1641 0.547698 1.74088 0
M  V30 929 C 91.2151 3.6142 0.0758725 0
M  V30 930 O 90.9361 4.21874 -1.18126 0
M  V30 931 C 92.4371 4.39025 0.61416 0
M  V30 932 H 89.6571 0.668162 -0.0616518 0
M  V30 933 H 92.2011 1.8755 -0.815175 0
M  V30 934 H 90.3561 3.79983 0.754413 0
M  V30 935 H 90.7701 5.14861 -1.00092 0
M  V30 936 H 92.2441 5.4783 0.677193 0
M  V30 937 H 92.7211 4.07708 1.63312 0
M  V30 938 H 93.3271 4.2529 -0.0298142 0
M  V30 939 N 91.6422 0.330177 1.54103 0
M  V30 940 C 92.5722 -0.525353 2.27513 0
M  V30 941 C 93.5532 -1.11383 1.2856 0
M  V30 942 O 94.7382 -1.13773 1.57383 0
M  V30 943 C 91.8682 -1.6831 3.03791 0
M  V30 944 C 90.8222 -1.2236 4.10137 0
M  V30 945 C 90.1482 -2.46882 4.74293 0
M  V30 946 C 91.4482 -0.333697 5.21233 0
M  V30 947 H 93.1422 0.087013 2.99274 0
M  V30 948 H 90.6882 0.0432893 1.43935 0
M  V30 949 H 92.6412 -2.28795 3.5388 0
M  V30 950 H 91.3652 -2.32216 2.29659 0
M  V30 951 H 90.0242 -0.64165 3.60941 0
M  V30 952 H 89.6722 -3.09165 3.96769 0
M  V30 953 H 89.3722 -2.16825 5.46133 0
M  V30 954 H 90.8962 -3.08117 5.27159 0
M  V30 955 H 92.3102 -0.845013 5.67038 0
M  V30 956 H 90.7072 -0.125612 5.99969 0
M  V30 957 H 91.7772 0.633724 4.80741 0
M  V30 958 N 93.1203 -1.57491 0.0584922 0
M  V30 959 C 94.3483 -1.97296 -0.623037 0
M  V30 960 C 94.7633 -0.936338 -1.63946 0
M  V30 961 O 94.1203 0.0785981 -1.82331 0
M  V30 962 C 94.1713 -3.37183 -1.30345 0
M  V30 963 O 93.8923 -4.36872 -0.32773 0
M  V30 964 C 95.3933 -3.91788 -2.07406 0
M  V30 965 H 92.6133 -0.649153 -0.169826 0
M  V30 966 H 95.1573 -2.04106 0.12696 0
M  V30 967 H 93.3123 -3.31502 -2.00463 0
M  V30 968 H 93.7263 -5.18141 -0.814269 0
M  V30 969 H 95.2003 -4.91926 -2.50425 0
M  V30 970 H 95.6773 -3.27609 -2.92521 0
M  V30 971 H 96.2833 -4.00829 -1.42184 0
M  V30 972 N 94.5984 0.214957 -1.56127 0
M  V30 973 C 95.5084 1.28727 -1.96129 0
M  V30 974 C 96.5244 1.50916 -0.866044 0
M  V30 975 O 97.7004 1.63918 -1.17016 0
M  V30 976 C 94.7654 2.61569 -2.27558 0
M  V30 977 C 93.8264 2.47625 -3.50685 0
M  V30 978 C 93.0594 3.74132 -3.80606 0
M  V30 979 O 93.2824 4.77438 -3.12104 0
M  V30 980 O 92.2164 3.70849 -4.74083 0
M  V30 981 H 96.0424 0.977855 -2.87527 0
M  V30 982 H 93.6274 0.418358 -1.43423 0
M  V30 983 H 95.5094 3.40012 -2.48938 0
M  V30 984 H 94.1844 2.92178 -1.39332 0
M  V30 985 H 93.0914 1.67361 -3.34576 0
M  V30 986 H 94.4244 2.21954 -4.39315 0
M  V30 987 N 96.0765 1.50051 0.48192 0
M  V30 988 C 97.3245 1.60181 1.23234 0
M  V30 989 C 97.6455 0.299176 1.92691 0
M  V30 990 O 96.9155 -0.682708 1.83619 0
M  V30 991 H 95.4955 0.590232 0.457859 0
M  V30 992 H 98.1575 1.86775 0.556881 0
M  V30 993 H 97.2535 2.40753 1.98607 0
M  V30 994 N 97.5546 -0.734337 1.39446 0
M  V30 995 C 98.9656 -1.31264 1.32766 0
M  V30 996 C 99.3166 -1.96198 -0.00767497 0
M  V30 997 O 98.4416 -1.96346 -0.909796 0
M  V30 998 C 99.0366 -2.38682 2.4045 0
M  V30 999 C 97.5956 -2.92184 2.37288 0
M  V30 1000 C 96.7426 -1.6576 2.22304 0
M  V30 1001 H 99.6936 -0.531799 1.49525 0
M  V30 1002 H 99.7146 -3.19087 2.07276 0
M  V30 1003 H 99.2266 -1.91392 3.37625 0
M  V30 1004 H 97.3276 -3.43752 1.43754 0
M  V30 1005 H 97.4406 -3.45253 3.3217 0
M  V30 1006 H 95.8046 -1.9012 1.69489 0
M  V30 1007 H 96.5876 -1.20521 3.21449 0
M  V30 1008 N 99.0327 -1.24633 -0.964593 0
M  V30 1009 C 99.9957 -1.0424 -2.04124 0
M  V30 1010 C 100.996 0.00137563 -1.608 0
M  V30 1011 O 102.186 -0.239883 -1.7254 0
M  V30 1012 C 99.3177 -0.580588 -3.3592 0
M  V30 1013 H 100.511 -1.99803 -2.23649 0
M  V30 1014 H 98.0637 -1.06899 -1.14027 0
M  V30 1015 H 98.7987 0.3781 -3.22088 0
M  V30 1016 H 98.5837 -1.33398 -3.6871 0
M  V30 1017 H 100.074 -0.459034 -4.15069 0
M  V30 1018 N 100.511 1.16574 -1.06058 0
M  V30 1019 C 101.76 1.86385 -0.770944 0
M  V30 1020 C 102.073 1.82448 0.705129 0
M  V30 1021 O 103.279 2.47815 1.10905 0
M  V30 1022 C 101.735 3.34466 -1.32893 0
M  V30 1023 C 101.343 3.46883 -2.83507 0
M  V30 1024 C 103.087 4.09548 -1.11672 0
M  V30 1025 C 100.994 4.89036 -3.32562 0
M  V30 1026 H 99.9238 0.698181 -0.284709 0
M  V30 1027 H 102.575 1.31583 -1.27899 0
M  V30 1028 H 100.957 3.88859 -0.748662 0
M  V30 1029 H 102.131 3.02663 -3.47465 0
M  V30 1030 H 100.446 2.85232 -3.03368 0
M  V30 1031 H 103.043 5.14434 -1.45814 0
M  V30 1032 H 103.386 4.16264 -0.0549535 0
M  V30 1033 H 103.919 3.61387 -1.66265 0
M  V30 1034 H 100.658 4.87499 -4.38207 0
M  V30 1035 H 100.178 5.3389 -2.73351 0
M  V30 1036 H 101.857 5.57843 -3.2775 0
M  V30 1037 N 101.989 0.842826 1.3317 0
M  V30 1038 C 103.235 0.441099 1.97945 0
M  V30 1039 C 103.568 -0.998024 1.66593 0
M  V30 1040 O 102.843 -1.69839 0.947898 0
M  V30 1041 C 103.126 0.666841 3.53872 0
M  V30 1042 C 102.979 2.15352 3.94897 0
M  V30 1043 C 104.298 0.115544 4.39948 0
M  V30 1044 H 101.417 0.161739 0.719034 0
M  V30 1045 H 104.059 1.05907 1.57746 0
M  V30 1046 H 102.209 0.140828 3.88245 0
M  V30 1047 H 103.881 2.7447 3.70761 0
M  V30 1048 H 102.124 2.63653 3.44484 0
M  V30 1049 H 102.795 2.26221 5.03516 0
M  V30 1050 H 105.271 0.565213 4.12243 0
M  V30 1051 H 104.147 0.303152 5.48062 0
M  V30 1052 H 104.408 -0.980935 4.3108 0
M  V30 1053 N 103.467 -1.45747 0.599634 0
M  V30 1054 C 104.399 -2.28628 -0.161879 0
M  V30 1055 C 105.412 -1.39494 -0.839367 0
M  V30 1056 O 106.601 -1.63941 -0.706089 0
M  V30 1057 C 103.701 -3.15014 -1.24976 0
M  V30 1058 C 102.874 -4.32378 -0.660935 0
M  V30 1059 C 101.933 -5.00033 -1.63869 0
M  V30 1060 O 100.959 -5.57085 -1.1681 0
M  V30 1061 N 102.161 -4.98589 -2.97303 0
M  V30 1062 H 104.926 -2.94624 0.549265 0
M  V30 1063 H 102.487 -1.55847 0.438565 0
M  V30 1064 H 104.479 -3.5714 -1.9035 0
M  V30 1065 H 103.049 -2.5098 -1.86354 0
M  V30 1066 H 102.269 -3.9383 0.170688 0
M  V30 1067 H 103.557 -5.08197 -0.247619 0
M  V30 1068 H 102.955 -4.53514 -3.38145 0
M  V30 1069 H 101.512 -5.44603 -3.58121 0
M  V30 1070 N 104.945 -0.338344 -1.53925 0
M  V30 1071 C 106.175 0.260919 -2.04946 0
M  V30 1072 C 106.583 1.45174 -1.2133 0
M  V30 1073 O 105.926 1.82122 -0.240262 0
M  V30 1074 C 105.988 0.744596 -3.51704 0
M  V30 1075 C 105.652 -0.325883 -4.55837 0
M  V30 1076 C 106.649 -1.16687 -5.06636 0
M  V30 1077 C 104.334 -0.478317 -5.00017 0
M  V30 1078 C 106.328 -2.14588 -6.00192 0
M  V30 1079 C 104.015 -1.46073 -5.93385 0
M  V30 1080 C 105.013 -2.29297 -6.4336 0
M  V30 1081 O 104.701 -3.25867 -7.34892 0
M  V30 1082 H 104.433 0.0551207 -0.673749 0
M  V30 1083 H 106.987 -0.486984 -1.99544 0
M  V30 1084 H 105.217 1.54366 -3.54553 0
M  V30 1085 H 106.906 1.26383 -3.85723 0
M  V30 1086 H 107.672 -1.06016 -4.73271 0
M  V30 1087 H 103.551 0.159613 -4.60724 0
M  V30 1088 H 107.095 -2.79585 -6.39123 0
M  V30 1089 H 102.992 -1.56802 -6.26166 0
M  V30 1090 H 103.76 -3.21278 -7.5281 0
M  V30 1091 N 106.423 1.57458 -0.0668435 0
M  V30 1092 C 107.669 1.93587 0.6043 0
M  V30 1093 C 108.002 0.946722 1.69561 0
M  V30 1094 O 107.277 -0.0248516 1.94484 0
M  V30 1095 C 107.56 3.40014 1.18585 0
M  V30 1096 C 107.413 4.49685 0.101529 0
M  V30 1097 C 108.732 3.87154 2.09284 0
M  V30 1098 H 105.851 0.703958 0.218202 0
M  V30 1099 H 108.493 1.89542 -0.131804 0
M  V30 1100 H 106.643 3.43592 1.81319 0
M  V30 1101 H 108.315 4.5823 -0.531279 0
M  V30 1102 H 106.558 4.30059 -0.568487 0
M  V30 1103 H 107.229 5.49266 0.54874 0
M  V30 1104 H 109.705 3.85551 1.56491 0
M  V30 1105 H 108.581 4.90231 2.46911 0
M  V30 1106 H 108.842 3.2481 2.99918 0
M  V30 1107 N 107.901 -0.206675 1.56239 0
M  V30 1108 C 108.864 -1.23976 1.92776 0
M  V30 1109 C 109.864 -1.39041 0.807729 0
M  V30 1110 O 111.054 -1.37051 1.0753 0
M  V30 1111 C 108.186 -2.61112 2.19165 0
M  V30 1112 H 109.379 -0.927764 2.85189 0
M  V30 1113 H 106.932 -0.447718 1.4975 0
M  V30 1114 H 107.667 -2.97386 1.29352 0
M  V30 1115 H 107.452 -2.51552 3.00772 0
M  V30 1116 H 108.942 -3.35633 2.48476 0
M  V30 1117 N 109.379 -1.50304 -0.473955 0
M  V30 1118 C 110.656 -1.51667 -1.23518 0
M  V30 1119 C 111.036 -0.259701 -2.09496 0
M  V30 1120 O 110.384 0.756986 -2.15597 0
M  V30 1121 C 110.594 -2.81082 -2.06868 0
M  V30 1122 C 111.942 -3.31631 -2.65153 0
M  V30 1123 O 112.966 -2.82384 -2.17113 0
M  V30 1124 O 111.825 -4.17471 -3.52675 0
M  V30 1125 H 108.919 -0.60822 -0.560355 0
M  V30 1126 H 111.465 -1.62592 -0.486011 0
M  V30 1127 H 110.237 -3.64041 -1.4349 0
M  V30 1128 H 109.86 -2.73146 -2.88924 0
M  V30 1129 N 110.857 0.726932 -1.39834 0
M  V30 1130 C 111.789 1.85147 -1.35104 0
M  V30 1131 C 112.802 1.60736 -0.258392 0
M  V30 1132 O 113.991 1.70821 -0.517931 0
M  V30 1133 C 111.091 3.21332 -1.07697 0
M  V30 1134 C 110.264 3.73033 -2.28396 0
M  V30 1135 C 109.323 4.87802 -1.97322 0
M  V30 1136 O 108.349 5.01043 -2.70083 0
M  V30 1137 N 109.551 5.72768 -0.944273 0
M  V30 1138 H 112.316 1.89706 -2.32017 0
M  V30 1139 H 109.877 0.908006 -1.3404 0
M  V30 1140 H 111.869 3.95691 -0.849144 0
M  V30 1141 H 110.439 3.11992 -0.194909 0
M  V30 1142 H 109.659 2.89934 -2.6708 0
M  V30 1143 H 110.947 4.0431 -3.08887 0
M  V30 1144 H 110.345 5.64669 -0.341427 0
M  V30 1145 H 108.902 6.4716 -0.776346 0
M  V30 1146 N 112.336 1.25143 0.95797 0
M  V30 1147 C 113.582 1.09855 1.70469 0
M  V30 1148 C 113.915 -0.360187 1.90831 0
M  V30 1149 O 113.19 -1.26568 1.47685 0
M  V30 1150 C 113.473 1.8497 3.08963 0
M  V30 1151 C 113.326 3.38652 2.96032 0
M  V30 1152 C 114.645 1.63016 4.08795 0
M  V30 1153 H 111.764 0.400465 0.618706 0
M  V30 1154 H 114.406 1.53933 1.11376 0
M  V30 1155 H 112.556 1.47505 3.59409 0
M  V30 1156 H 114.228 3.85772 2.52938 0
M  V30 1157 H 112.471 3.66534 2.32025 0
M  V30 1158 H 113.142 3.8642 3.94187 0
M  V30 1159 H 115.618 1.95625 3.67247 0
M  V30 1160 H 114.494 2.18015 5.03747 0
M  V30 1161 H 114.755 0.570692 4.38401 0
M  V30 1162 N 113.814 -1.1601 1.06675 0
M  V30 1163 C 115.225 -1.68235 0.809565 0
M  V30 1164 C 115.576 -1.8454 -0.666303 0
M  V30 1165 O 114.701 -1.54374 -1.5165 0
M  V30 1166 C 115.296 -3.05585 1.46299 0
M  V30 1167 C 113.855 -3.54915 1.25349 0
M  V30 1168 C 113.002 -2.30804 1.53703 0
M  V30 1169 H 115.953 -1.00318 1.22971 0
M  V30 1170 H 115.974 -3.70174 0.880431 0
M  V30 1171 H 115.486 -2.93686 2.53713 0
M  V30 1172 H 113.587 -3.72067 0.199261 0
M  V30 1173 H 113.7 -4.36774 1.9689 0
M  V30 1174 H 112.064 -2.36007 0.957739 0
M  V30 1175 H 112.847 -2.21499 2.62284 0
M  V30 1176 N 115.292 -0.849877 -1.32721 0
M  V30 1177 C 116.54 -0.450032 -1.97026 0
M  V30 1178 C 116.861 0.996604 -1.67609 0
M  V30 1179 O 116.131 1.6958 -0.980786 0
M  V30 1180 H 114.711 -0.163426 -0.728904 0
M  V30 1181 H 117.373 -1.08526 -1.6189 0
M  V30 1182 H 116.469 -0.591146 -3.0645 0
M  V30 1183 N 116.77 1.45427 -0.607355 0
M  V30 1184 C 117.717 2.3053 0.111625 0
M  V30 1185 C 118.687 1.4209 0.860216 0
M  V30 1186 O 119.872 1.71019 0.845998 0
M  V30 1187 C 117.012 3.26992 1.10319 0
M  V30 1188 C 116.125 4.30535 0.355493 0
M  V30 1189 C 115.26 5.14105 1.33676 0
M  V30 1190 C 114.299 6.09376 0.576862 0
M  V30 1191 N 113.436 6.85727 1.5074 0
M  V30 1192 H 118.276 2.91477 -0.620093 0
M  V30 1193 H 115.813 1.43631 -0.317594 0
M  V30 1194 H 117.771 3.81385 1.6912 0
M  V30 1195 H 116.401 2.67799 1.80232 0
M  V30 1196 H 115.453 3.78805 -0.348023 0
M  V30 1197 H 116.765 4.98235 -0.237423 0
M  V30 1198 H 115.919 5.72897 1.99684 0
M  V30 1199 H 114.658 4.46423 1.9636 0
M  V30 1200 H 113.663 5.49715 -0.0968519 0
M  V30 1201 H 114.888 6.79085 -0.0449341 0
M  V30 1202 H 112.834 6.20735 2.12189 0
M  V30 1203 H 112.751 7.49778 0.967913 0
M  V30 1204 H 114.019 7.4906 2.15706 0
M  V30 1205 N 118.248 0.346503 1.53744 0
M  V30 1206 C 119.18 -0.543316 2.22667 0
M  V30 1207 C 120.193 -1.06159 1.23427 0
M  V30 1208 O 121.382 -0.971235 1.49764 0
M  V30 1209 C 118.482 -1.76076 2.89569 0
M  V30 1210 C 117.655 -1.37727 4.15151 0
M  V30 1211 C 116.714 -2.45471 4.65436 0
M  V30 1212 O 115.74 -2.08655 5.29577 0
M  V30 1213 N 116.942 -3.7677 4.41616 0
M  V30 1214 H 119.707 0.0469703 2.99663 0
M  V30 1215 H 117.268 0.170766 1.60997 0
M  V30 1216 H 119.26 -2.47593 3.20125 0
M  V30 1217 H 117.83 -2.25835 2.16142 0
M  V30 1218 H 117.05 -0.492746 3.91108 0
M  V30 1219 H 118.338 -1.09708 4.96832 0
M  V30 1220 H 117.736 -4.09467 3.90325 0
M  V30 1221 H 116.293 -4.44448 4.7677 0
M  V30 1222 N 119.726 -1.57421 0.075193 0
M  V30 1223 C 120.656 -2.15942 -0.888324 0
M  V30 1224 C 121.637 -1.08737 -1.30806 0
M  V30 1225 O 122.822 -1.36787 -1.37851 0
M  V30 1226 C 119.952 -2.72379 -2.1547 0
M  V30 1227 C 118.906 -3.8478 -1.87425 0
M  V30 1228 C 118.232 -4.27834 -3.20721 0
M  V30 1229 C 119.532 -5.08869 -1.17684 0
M  V30 1230 H 121.226 -2.96705 -0.400799 0
M  V30 1231 H 118.772 -1.42723 -0.191342 0
M  V30 1232 H 120.725 -3.11965 -2.83295 0
M  V30 1233 H 119.449 -1.88841 -2.6647 0
M  V30 1234 H 118.108 -3.45703 -1.22004 0
M  V30 1235 H 117.756 -3.41214 -3.6957 0
M  V30 1236 H 117.456 -5.03605 -3.02746 0
M  V30 1237 H 118.98 -4.70039 -3.89738 0
M  V30 1238 H 120.394 -5.4575 -1.75584 0
M  V30 1239 H 118.791 -5.8994 -1.09956 0
M  V30 1240 H 119.861 -4.84648 -0.156453 0
M  V30 1241 N 121.204 0.198386 -1.56346 0
M  V30 1242 C 122.167 1.22952 -1.93431 0
M  V30 1243 C 123.167 1.38611 -0.815092 0
M  V30 1244 O 124.357 1.36479 -1.08255 0
M  V30 1245 C 121.489 2.59946 -2.20546 0
M  V30 1246 H 122.682 0.912626 -2.85677 0
M  V30 1247 H 120.235 0.43977 -1.49986 0
M  V30 1248 H 120.97 2.96696 -1.30927 0
M  V30 1249 H 120.755 2.49953 -3.02102 0
M  V30 1250 H 122.245 3.3431 -2.50253 0
M  V30 1251 N 122.682 1.50554 0.465978 0
M  V30 1252 C 124.093 1.54599 1.04671 0
M  V30 1253 C 124.444 0.352488 1.93008 0
M  V30 1254 O 123.569 -0.534044 2.09707 0
M  V30 1255 C 124.164 2.80166 1.90505 0
M  V30 1256 C 122.723 2.86876 2.43678 0
M  V30 1257 C 121.87 2.48947 1.22151 0
M  V30 1258 H 124.821 1.56744 0.248384 0
M  V30 1259 H 124.842 2.62311 2.75633 0
M  V30 1260 H 124.354 3.67013 1.26186 0
M  V30 1261 H 122.455 2.04393 3.11536 0
M  V30 1262 H 122.568 3.89885 2.78436 0
M  V30 1263 H 120.932 2.01498 1.5579 0
M  V30 1264 H 121.715 3.38107 0.594866 0
M  V30 1265 N 124.16 -0.719506 1.40217 0
M  V30 1266 C 125.123 -1.8153 1.39927 0
M  V30 1267 C 126.123 -1.58095 0.293723 0
M  V30 1268 O 127.313 -1.65209 0.552429 0
M  V30 1269 C 124.445 -3.19561 1.18716 0
M  V30 1270 H 125.638 -1.83186 2.37451 0
M  V30 1271 H 123.191 -0.924746 1.26008 0
M  V30 1272 H 123.926 -3.23557 0.219366 0
M  V30 1273 H 123.711 -3.3797 1.98793 0
M  V30 1274 H 125.201 -3.99598 1.21291 0
M  V30 1275 N 125.638 -1.25649 -0.95132 0
M  V30 1276 C 126.586 -1.06118 -2.06982 0
M  V30 1277 C 127.58 0.00889169 -1.69398 0
M  V30 1278 O 128.786 -0.146988 -1.79399 0
M  V30 1279 H 125.161 -0.326248 -0.677544 0
M  V30 1280 H 127.132 -2.00932 -2.2061 0
M  V30 1281 C 125.881 -0.700145 -3.40578 0
M  V30 1282 H 125.204 -1.51537 -3.69968 0
M  V30 1283 H 126.644 -0.603211 -4.19687 0
M  V30 1284 C 125.103 0.59403 -3.31622 0
M  V30 1285 O 125.633 1.63522 -3.66911 0
M  V30 1286 N 123.839 0.58089 -2.84735 0
M  V30 1287 H 123.386 -0.266783 -2.56215 0
M  V30 1288 H 123.344 1.44695 -2.79125 0
M  V30 1289 N 127.117 1.15442 -1.07289 0
M  V30 1290 C 128.365 1.85845 -0.794096 0
M  V30 1291 C 128.686 1.82692 0.681809 0
M  V30 1292 O 127.956 1.26741 1.49377 0
M  V30 1293 H 126.536 0.688089 -0.290763 0
M  V30 1294 H 129.198 1.39947 -1.3565 0
M  V30 1295 H 128.294 2.91001 -1.12804 0
M  V30 1296 N 128.595 0.856903 1.32268 0
M  V30 1297 C 129.82 0.474569 2.01897 0
M  V30 1298 C 130.245 -0.921766 1.63967 0
M  V30 1299 O 129.603 -1.60589 0.84148 0
M  V30 1300 C 129.651 0.623799 3.55164 0
M  V30 1301 O 128.755 -0.342459 4.10976 0
M  V30 1302 H 128.096 0.190422 0.63611 0
M  V30 1303 H 130.626 1.15672 1.68764 0
M  V30 1304 H 130.636 0.512169 4.04773 0
M  V30 1305 H 129.311 1.64202 3.82113 0
M  V30 1306 H 127.888 -0.18688 3.72431 0
M  V30 1307 N 130.073 -1.45103 0.615059 0
M  V30 1308 C 131.32 -2.02183 0.113179 0
M  V30 1309 C 131.648 -1.48249 -1.25906 0
M  V30 1310 O 130.903 -0.650265 -1.84581 0
M  V30 1311 C 131.202 -3.57386 0.0318797 0
M  V30 1312 C 130.868 -4.30505 1.34077 0
M  V30 1313 C 129.53 -4.50197 1.69929 0
M  V30 1314 C 131.882 -4.72238 2.20546 0
M  V30 1315 C 129.21 -5.08881 2.91988 0
M  V30 1316 C 131.562 -5.32272 3.41861 0
M  V30 1317 C 130.226 -5.50187 3.77956 0
M  V30 1318 H 129.496 -0.739842 0.0414151 0
M  V30 1319 H 132.143 -1.74073 0.798168 0
M  V30 1320 H 130.448 -3.84817 -0.736409 0
M  V30 1321 H 132.145 -3.99264 -0.372712 0
M  V30 1322 H 128.735 -4.15496 1.05173 0
M  V30 1323 H 132.919 -4.56751 1.94146 0
M  V30 1324 H 128.175 -5.20939 3.2005 0
M  V30 1325 H 132.349 -5.63563 4.09109 0
M  V30 1326 H 129.976 -5.95427 4.72622 0
M  V30 1327 N 131.551 -0.354651 -1.53558 0
M  V30 1328 C 132.461 0.50515 -2.29097 0
M  V30 1329 C 133.477 1.10223 -1.34636 0
M  V30 1330 O 134.653 1.11553 -1.67684 0
M  V30 1331 C 131.718 1.63479 -3.05738 0
M  V30 1332 C 130.779 1.06636 -4.15845 0
M  V30 1333 C 130.012 2.14217 -4.88822 0
M  V30 1334 O 130.235 3.35137 -4.61562 0
M  V30 1335 O 129.169 1.77887 -5.75013 0
M  V30 1336 H 132.995 -0.109237 -3.03503 0
M  V30 1337 H 130.58 -0.119357 -1.48922 0
M  V30 1338 H 132.462 2.2918 -3.5363 0
M  V30 1339 H 131.137 2.23478 -2.34178 0
M  V30 1340 H 130.044 0.373565 -3.7223 0
M  V30 1341 H 131.377 0.511081 -4.89539 0
M  V30 1342 N 133.029 1.57378 -0.0835403 0
M  V30 1343 C 134.445 1.57246 0.273109 0
M  V30 1344 C 134.645 1.09385 1.69225 0
M  V30 1345 O 133.701 0.765051 2.40631 0
M  V30 1346 C 135.014 3.00614 0.0720628 0
M  V30 1347 C 136.562 3.12684 0.1407 0
M  V30 1348 C 137.037 4.57989 -0.0322094 0
M  V30 1349 N 138.528 4.63194 0.0230085 0
M  V30 1350 C 139.263 5.73335 -0.0861941 0
M  V30 1351 N 138.759 6.9235 -0.24958 0
M  V30 1352 N 140.552 5.62093 -0.0282886 0
M  V30 1353 H 132.703 1.86801 -1.0109 0
M  V30 1354 H 134.966 0.861687 -0.395222 0
M  V30 1355 H 134.672 3.39786 -0.907662 0
M  V30 1356 H 134.546 3.68193 0.81936 0
M  V30 1357 H 136.933 2.73391 1.11092 0
M  V30 1358 H 137.014 2.47719 -0.637896 0
M  V30 1359 H 136.658 4.97973 -0.999247 0
M  V30 1360 H 136.588 5.21 0.765937 0
M  V30 1361 H 139.079 3.77613 0.14722 0
M  V30 1362 H 139.392 7.72117 -0.324733 0
M  V30 1363 H 137.737 6.94415 -0.285097 0
M  V30 1364 H 140.928 4.67997 0.0981408 0
M  V30 1365 H 141.101 6.47895 -0.116845 0
M  V30 1366 N 134.507 -0.190092 1.56449 0
M  V30 1367 C 135.737 -0.92443 1.84764 0
M  V30 1368 C 136.145 -1.77146 0.664529 0
M  V30 1369 O 135.488 -1.79812 -0.375957 0
M  V30 1370 C 135.55 -1.86651 3.07248 0
M  V30 1371 C 135.214 -1.20094 4.40938 0
M  V30 1372 C 136.211 -0.575445 5.16706 0
M  V30 1373 C 133.896 -1.2033 4.87674 0
M  V30 1374 C 135.89 0.0388111 6.37388 0
M  V30 1375 C 133.577 -0.585214 6.08291 0
M  V30 1376 C 134.575 0.0347578 6.82991 0
M  V30 1377 O 134.263 0.643147 8.01323 0
M  V30 1378 H 133.995 -0.274974 0.617548 0
M  V30 1379 H 136.549 -0.200788 2.04416 0
M  V30 1380 H 134.779 -2.62998 2.83494 0
M  V30 1381 H 136.468 -2.46907 3.22167 0
M  V30 1382 H 137.234 -0.565728 4.81689 0
M  V30 1383 H 133.113 -1.67526 4.29484 0
M  V30 1384 H 136.657 0.523329 6.95634 0
M  V30 1385 H 132.554 -0.592451 6.42775 0
M  V30 1386 H 133.322 0.540545 8.16713 0
M  V30 1387 N 135.985 -1.50799 -0.457987 0
M  V30 1388 C 136.935 -1.67003 -1.55222 0
M  V30 1389 C 137.919 -0.52434 -1.52117 0
M  V30 1390 O 139.111 -0.779345 -1.58919 0
M  V30 1391 C 136.24 -1.77956 -2.93576 0
M  V30 1392 C 135.326 -2.98243 -3.01516 0
M  V30 1393 N 135.717 -4.21732 -2.79241 0
M  V30 1394 C 134.015 -2.97072 -3.32662 0
M  V30 1395 C 134.716 -5.02817 -2.92489 0
M  V30 1396 N 133.692 -4.37038 -3.23262 0
M  V30 1397 H 137.494 -2.60163 -1.36721 0
M  V30 1398 H 135.008 -1.48163 -0.664952 0
M  V30 1399 H 137.005 -1.87671 -3.72271 0
M  V30 1400 H 135.665 -0.859634 -3.13114 0
M  V30 1401 H 136.676 -4.51016 -2.54567 0
M  V30 1402 H 133.353 -2.14631 -3.58106 0
M  V30 1403 H 134.743 -6.11054 -2.79396 0
M  V30 1404 N 137.463 0.71206 -1.40597 0
M  V30 1405 C 138.393 1.83889 -1.43899 0
M  V30 1406 C 139.374 1.67442 -0.299504 0
M  V30 1407 O 140.559 1.87421 -0.508624 0
M  V30 1408 C 137.689 3.21877 -1.30431 0
M  V30 1409 C 136.643 3.53002 -2.42019 0
M  V30 1410 C 135.969 4.90172 -2.13626 0
M  V30 1411 C 137.269 3.53643 -3.84362 0
M  V30 1412 H 138.963 1.81383 -2.38203 0
M  V30 1413 H 136.509 0.871237 -1.14654 0
M  V30 1414 H 138.462 4.00404 -1.31357 0
M  V30 1415 H 137.186 3.24968 -0.326049 0
M  V30 1416 H 135.845 2.76818 -2.40349 0
M  V30 1417 H 135.493 4.89869 -1.14182 0
M  V30 1418 H 135.193 5.11962 -2.88389 0
M  V30 1419 H 136.717 5.71028 -2.1624 0
M  V30 1420 H 138.131 4.22203 -3.87837 0
M  V30 1421 H 136.528 3.86961 -4.58673 0
M  V30 1422 H 137.598 2.52954 -4.13693 0
M  V30 1423 N 138.941 1.26152 0.944643 0
M  V30 1424 C 139.873 1.03199 2.04652 0
M  V30 1425 C 140.886 -0.00642356 1.62799 0
M  V30 1426 O 142.075 0.233263 1.76969 0
M  V30 1427 C 139.175 0.540111 3.34568 0
M  V30 1428 C 138.348 1.64697 4.05208 0
M  V30 1429 C 137.407 1.15374 5.13396 0
M  V30 1430 O 136.433 1.85013 5.38293 0
M  V30 1431 N 137.635 0.00031529 5.805 0
M  V30 1432 H 140.4 1.9808 2.2491 0
M  V30 1433 H 137.961 1.17491 1.11389 0
M  V30 1434 H 139.953 0.194401 4.04233 0
M  V30 1435 H 138.523 -0.315021 3.11009 0
M  V30 1436 H 137.743 2.16379 3.29506 0
M  V30 1437 H 139.031 2.3903 4.49157 0
M  V30 1438 H 138.429 -0.581336 5.62705 0
M  V30 1439 H 136.986 -0.286346 6.51171 0
M  V30 1440 N 140.419 -1.14872 1.07899 0
M  V30 1441 C 141.351 -2.19425 0.662231 0
M  V30 1442 C 142.364 -1.60231 -0.288079 0
M  V30 1443 O 143.553 -1.78336 -0.076534 0
M  V30 1444 C 140.653 -3.38867 -0.0470695 0
M  V30 1445 C 139.826 -4.27597 0.920831 0
M  V30 1446 C 138.885 -5.25616 0.247805 0
M  V30 1447 O 137.911 -5.62189 0.890599 0
M  V30 1448 N 139.113 -5.71746 -1.00435 0
M  V30 1449 H 141.878 -2.55797 1.56166 0
M  V30 1450 H 139.439 -1.30042 0.964404 0
M  V30 1451 H 141.431 -4.01497 -0.50813 0
M  V30 1452 H 140.001 -3.00864 -0.848523 0
M  V30 1453 H 139.221 -3.61982 1.56087 0
M  V30 1454 H 140.509 -4.83748 1.57688 0
M  V30 1455 H 139.907 -5.44153 -1.54642 0
M  V30 1456 H 138.464 -6.36389 -1.40899 0
M  V30 1457 N 141.898 -0.863906 -1.31812 0
M  V30 1458 C 143.144 -0.481841 -1.9761 0
M  V30 1459 C 143.499 0.954048 -1.6708 0
M  V30 1460 O 142.792 1.66182 -0.953624 0
M  V30 1461 C 142.986 -0.668547 -3.51091 0
M  V30 1462 C 142.815 -2.12103 -3.96538 0
M  V30 1463 C 141.585 -2.76141 -4.23171 0
M  V30 1464 C 143.783 -3.09265 -4.10925 0
M  V30 1465 N 141.765 -4.12205 -4.54929 0
M  V30 1466 C 143.136 -4.30341 -4.46326 0
M  V30 1467 C 145.191 -3.05337 -3.93286 0
M  V30 1468 C 143.894 -5.48 -4.65928 0
M  V30 1469 C 145.92 -4.22248 -4.14078 0
M  V30 1470 C 145.282 -5.42085 -4.49804 0
M  V30 1471 H 141.381 -0.225238 -0.74886 0
M  V30 1472 H 143.965 -1.11723 -1.59455 0
M  V30 1473 H 142.136 -0.0627898 -3.88349 0
M  V30 1474 H 143.868 -0.255467 -4.03893 0
M  V30 1475 H 140.623 -2.27125 -4.15585 0
M  V30 1476 H 141.047 -4.82416 -4.74978 0
M  V30 1477 H 145.689 -2.138 -3.64759 0
M  V30 1478 H 143.407 -6.40059 -4.93305 0
M  V30 1479 H 146.993 -4.20654 -4.01922 0
M  V30 1480 H 145.873 -6.31044 -4.65567 0
M  V30 1481 N 143.376 1.44774 -0.622745 0
M  V30 1482 C 144.306 2.33382 0.0741861 0
M  V30 1483 C 145.287 1.47719 0.843387 0
M  V30 1484 O 146.472 1.76458 0.810934 0
M  V30 1485 C 143.602 3.30663 1.06204 0
M  V30 1486 C 142.556 4.26079 0.405037 0
M  V30 1487 C 141.882 5.13165 1.5022 0
M  V30 1488 C 143.182 5.1781 -0.683414 0
M  V30 1489 H 144.876 2.91905 -0.665713 0
M  V30 1490 H 142.422 1.40363 -0.321587 0
M  V30 1491 H 144.375 3.9153 1.55827 0
M  V30 1492 H 143.099 2.70331 1.83272 0
M  V30 1493 H 141.758 3.66532 -0.0704683 0
M  V30 1494 H 141.406 4.49191 2.26355 0
M  V30 1495 H 141.106 5.77812 1.06803 0
M  V30 1496 H 142.63 5.76902 2.00041 0
M  V30 1497 H 144.044 5.72661 -0.270631 0
M  V30 1498 H 142.441 5.91015 -1.04023 0
M  V30 1499 H 143.511 4.59326 -1.55395 0
M  V30 1500 N 144.854 0.36279 1.53368 0
M  V30 1501 C 145.802 -0.500155 2.27159 0
M  V30 1502 C 146.796 -1.08575 1.3003 0
M  V30 1503 O 148.002 -1.02927 1.47668 0
M  V30 1504 H 144.377 -0.180009 0.730138 0
M  V30 1505 H 146.348 0.14401 2.98052 0
M  V30 1506 C 145.097 -1.62937 3.07159 0
M  V30 1507 H 144.42 -1.18806 3.8174 0
M  V30 1508 H 145.86 -2.20795 3.61975 0
M  V30 1509 C 144.319 -2.57007 2.17829 0
M  V30 1510 O 144.849 -3.59752 1.78721 0
M  V30 1511 N 143.055 -2.26131 1.82518 0
M  V30 1512 H 142.602 -1.42616 2.14519 0
M  V30 1513 H 142.56 -2.89327 1.23034 0
M  V30 1514 N 146.332 -1.57332 0.0918853 0
M  V30 1515 C 147.579 -1.94236 -0.572577 0
M  V30 1516 C 147.907 -0.973398 -1.6839 0
M  V30 1517 O 147.162 0.00756912 -1.95699 0
M  V30 1518 C 147.461 -3.37689 -1.17051 0
M  V30 1519 C 147.127 -4.50527 -0.183304 0
M  V30 1520 C 145.789 -4.81119 0.0882276 0
M  V30 1521 C 148.141 -5.18883 0.49095 0
M  V30 1522 C 145.469 -5.77395 1.04076 0
M  V30 1523 C 147.821 -6.1618 1.43193 0
M  V30 1524 C 146.485 -6.45179 1.71173 0
M  V30 1525 H 145.755 -0.710762 -0.209521 0
M  V30 1526 H 148.402 -1.9077 0.167036 0
M  V30 1527 H 146.707 -3.37718 -1.9863 0
M  V30 1528 H 148.404 -3.63543 -1.69227 0
M  V30 1529 H 144.994 -4.26681 -0.405124 0
M  V30 1530 H 149.178 -4.95427 0.294312 0
M  V30 1531 H 144.434 -5.98179 1.26457 0
M  V30 1532 H 148.608 -6.68243 1.96023 0
M  V30 1533 H 146.235 -7.1959 2.4514 0
M  V30 1534 N 147.81 0.181792 -1.56548 0
M  V30 1535 C 149.059 0.898348 -1.8059 0
M  V30 1536 C 149.372 1.83862 -0.667379 0
M  V30 1537 O 150.578 2.59678 -0.792446 0
M  V30 1538 C 149.034 1.64791 -3.19956 0
M  V30 1539 C 148.642 0.751789 -4.41647 0
M  V30 1540 C 150.386 2.35331 -3.53298 0
M  V30 1541 C 148.293 1.50098 -5.72035 0
M  V30 1542 H 147.223 0.339194 -0.673397 0
M  V30 1543 H 149.874 0.151413 -1.82874 0
M  V30 1544 H 148.256 2.43921 -3.11959 0
M  V30 1545 H 149.43 -0.0018076 -4.608 0
M  V30 1546 H 147.745 0.156562 -4.16106 0
M  V30 1547 H 150.342 2.91958 -4.47956 0
M  V30 1548 H 150.685 3.10164 -2.77676 0
M  V30 1549 H 151.218 1.63154 -3.62803 0
M  V30 1550 H 147.957 0.795175 -6.50659 0
M  V30 1551 H 147.477 2.22817 -5.56878 0
M  V30 1552 H 149.156 2.05125 -6.13622 0
M  V30 1553 N 149.288 1.51039 0.449983 0
M  V30 1554 C 150.513 1.6715 1.22783 0
M  V30 1555 C 150.938 0.363081 1.84563 0
M  V30 1556 O 150.296 -0.675433 1.68249 0
M  V30 1557 C 150.344 2.77985 2.29689 0
M  V30 1558 O 149.448 2.40707 3.34864 0
M  V30 1559 H 148.789 0.557746 0.360299 0
M  V30 1560 H 151.319 1.97535 0.533005 0
M  V30 1561 H 151.329 3.01693 2.74673 0
M  V30 1562 H 150.004 3.72935 1.84098 0
M  V30 1563 H 148.581 2.27523 2.95445 0
M  V30 1564 N 150.766 -0.704594 1.40972 0
M  V30 1565 C 151.991 -1.49858 1.43378 0
M  V30 1566 C 152.416 -1.88061 0.038184 0
M  V30 1567 O 151.774 -1.5402 -0.956425 0
M  V30 1568 C 151.822 -2.74333 2.34038 0
M  V30 1569 O 150.926 -3.7147 1.7912 0
M  V30 1570 H 150.267 -0.45139 0.486974 0
M  V30 1571 H 152.797 -0.866832 1.8533 0
M  V30 1572 H 152.807 -3.22741 2.49604 0
M  V30 1573 H 151.482 -2.45863 3.35446 0
M  V30 1574 H 150.059 -3.30363 1.72958 0
M  V30 1575 N 152.244 -1.26651 -0.937939 0
M  V30 1576 C 153.154 -1.10276 -2.07066 0
M  V30 1577 C 154.17 -0.0354197 -1.73964 0
M  V30 1578 O 155.346 -0.239816 -1.99967 0
M  V30 1579 C 152.411 -0.740887 -3.38691 0
M  V30 1580 C 151.472 -1.88799 -3.85556 0
M  V30 1581 C 150.705 -1.54329 -5.10899 0
M  V30 1582 O 150.928 -0.446494 -5.6865 0
M  V30 1583 O 149.862 -2.37911 -5.52885 0
M  V30 1584 H 153.688 -2.05309 -2.23789 0
M  V30 1585 H 151.273 -1.05743 -1.0554 0
M  V30 1586 H 153.155 -0.55195 -4.1777 0
M  V30 1587 H 151.83 0.180022 -3.23199 0
M  V30 1588 H 150.737 -2.13191 -3.07409 0
M  V30 1589 H 152.07 -2.78874 -4.05574 0
M  V30 1590 N 153.722 1.14298 -1.08507 0
M  V30 1591 C 154.652 2.21542 -0.737646 0
M  V30 1592 C 155.633 1.67773 0.280377 0
M  V30 1593 O 156.818 1.93616 0.150521 0
M  V30 1594 C 153.948 3.46988 -0.147259 0
M  V30 1595 C 152.902 4.13789 -1.09374 0
M  V30 1596 C 152.228 5.33449 -0.365524 0
M  V30 1597 C 153.528 4.62208 -2.4323 0
M  V30 1598 H 155.222 2.5086 -1.6343 0
M  V30 1599 H 152.768 1.20576 -0.787243 0
M  V30 1600 H 154.721 4.21262 0.107808 0
M  V30 1601 H 153.445 3.17037 0.784538 0
M  V30 1602 H 152.104 3.4147 -1.33393 0
M  V30 1603 H 151.752 4.99759 0.57011 0
M  V30 1604 H 151.452 5.79088 -0.996512 0
M  V30 1605 H 152.976 6.10485 -0.118534 0
M  V30 1606 H 154.39 5.27952 -2.23472 0
M  V30 1607 H 152.787 5.18553 -3.02031 0
M  V30 1608 H 153.857 3.77224 -3.04681 0
M  V30 1609 N 155.201 0.870884 1.31352 0
M  V30 1610 C 156.151 0.298889 2.26032 0
M  V30 1611 C 157.135 -0.564595 1.50669 0
M  V30 1612 O 158.327 -0.411323 1.72154 0
M  V30 1613 C 155.456 -0.497842 3.39671 0
M  V30 1614 C 154.542 0.378937 4.22404 0
M  V30 1615 N 154.933 1.47284 4.83881 0
M  V30 1616 C 153.231 0.171535 4.4567 0
M  V30 1617 C 153.932 2.01359 5.45738 0
M  V30 1618 N 152.908 1.31047 5.27568 0
M  V30 1619 H 156.71 1.13494 2.71102 0
M  V30 1620 H 154.224 0.718745 1.45629 0
M  V30 1621 H 156.221 -0.924155 4.06528 0
M  V30 1622 H 154.881 -1.33149 2.96144 0
M  V30 1623 H 155.892 1.85575 4.8351 0
M  V30 1624 H 152.569 -0.626091 4.12779 0
M  V30 1625 H 153.959 2.93143 6.0458 0
M  V30 1626 N 156.679 -1.44442 0.630414 0
M  V30 1627 C 157.626 -2.30678 -0.0749355 0
M  V30 1628 C 158.596 -1.4344 -0.837502 0
M  V30 1629 O 159.781 -1.72343 -0.818684 0
M  V30 1630 C 156.921 -3.28706 -1.05103 0
M  V30 1631 C 156.034 -4.31046 -0.286954 0
M  V30 1632 C 155.169 -5.16167 -1.2548 0
M  V30 1633 C 154.208 -6.10216 -0.479843 0
M  V30 1634 N 153.345 -6.88039 -1.39811 0
M  V30 1635 H 158.185 -2.90454 0.666386 0
M  V30 1636 H 155.722 -1.43107 0.340404 0
M  V30 1637 H 157.68 -3.84027 -1.63031 0
M  V30 1638 H 156.31 -2.70632 -1.75949 0
M  V30 1639 H 155.362 -3.78203 0.408243 0
M  V30 1640 H 156.674 -4.97794 0.316657 0
M  V30 1641 H 155.828 -5.76002 -1.90544 0
M  V30 1642 H 154.567 -4.49491 -1.89233 0
M  V30 1643 H 153.572 -5.49491 0.184295 0
M  V30 1644 H 154.797 -6.78928 0.152965 0
M  V30 1645 H 152.743 -6.24032 -2.02287 0
M  V30 1646 H 152.66 -7.51223 -0.848508 0
M  V30 1647 H 153.928 -7.52397 -2.03762 0
M  V30 1648 N 158.157 -0.370918 -1.53173 0
M  V30 1649 C 159.382 0.220293 -2.06227 0
M  V30 1650 C 159.807 1.41243 -1.24225 0
M  V30 1651 O 159.165 1.79387 -0.262645 0
M  V30 1652 C 159.213 0.586663 -3.55796 0
M  V30 1653 O 158.317 1.68317 -3.76488 0
M  V30 1654 H 157.658 0.0308099 -0.663285 0
M  V30 1655 H 160.188 -0.533068 -1.97534 0
M  V30 1656 H 160.198 0.85617 -3.98916 0
M  V30 1657 H 158.873 -0.285013 -4.14922 0
M  V30 1658 H 157.45 1.40881 -3.45264 0
M  V30 1659 N 159.635 1.57281 -0.100228 0
M  V30 1660 C 160.882 1.94537 0.562268 0
M  V30 1661 C 161.21 0.982315 1.67871 0
M  V30 1662 O 160.465 0.00280936 1.957 0
M  V30 1663 C 160.764 3.38305 1.15259 0
M  V30 1664 C 160.43 4.50618 0.159409 0
M  V30 1665 C 159.092 4.81066 -0.113741 0
M  V30 1666 C 161.444 5.18615 -0.518461 0
M  V30 1667 C 158.772 5.76835 -1.07137 0
M  V30 1668 C 161.124 6.15412 -1.46459 0
M  V30 1669 C 159.788 6.44262 -1.74592 0
M  V30 1670 H 159.058 0.711863 0.205748 0
M  V30 1671 H 161.705 1.90679 -0.17715 0
M  V30 1672 H 160.01 3.38766 1.96836 0
M  V30 1673 H 161.707 3.64435 1.67297 0
M  V30 1674 H 158.297 4.2689 0.382491 0
M  V30 1675 H 162.481 4.95264 -0.320581 0
M  V30 1676 H 157.737 5.975 -1.29628 0
M  V30 1677 H 161.911 6.67194 -1.99564 0
M  V30 1678 H 159.538 7.1828 -2.48953 0
M  V30 1679 N 161.113 -0.173488 1.56642 0
M  V30 1680 C 162.338 -0.910149 1.86363 0
M  V30 1681 C 162.763 -1.75132 0.686318 0
M  V30 1682 O 162.121 -1.77595 -0.364643 0
M  V30 1683 C 162.169 -1.76447 3.14482 0
M  V30 1684 O 161.273 -2.86584 2.96553 0
M  V30 1685 H 160.614 -0.255086 0.613047 0
M  V30 1686 H 163.144 -0.172283 2.03873 0
M  V30 1687 H 163.154 -2.16483 3.45831 0
M  V30 1688 H 161.829 -1.14658 3.99783 0
M  V30 1689 H 160.406 -2.50146 2.76553 0
M  V30 1690 N 162.591 -1.51276 -0.441967 0
M  V30 1691 C 164.002 -1.56244 -1.02199 0
M  V30 1692 C 164.353 -0.383149 -1.92422 0
M  V30 1693 O 163.478 0.500613 -2.1053 0
M  V30 1694 C 164.073 -2.83162 -1.86024 0
M  V30 1695 C 162.632 -2.90716 -2.39084 0
M  V30 1696 C 161.779 -2.50858 -1.18175 0
M  V30 1697 H 164.73 -1.5712 -0.223416 0
M  V30 1698 H 164.751 -2.66663 -2.71425 0
M  V30 1699 H 164.263 -3.68974 -1.20331 0
M  V30 1700 H 162.364 -2.09323 -3.08244 0
M  V30 1701 H 162.477 -3.94266 -2.72198 0
M  V30 1702 H 160.841 -2.03951 -1.52565 0
M  V30 1703 H 161.624 -3.3901 -0.541001 0
M  V30 1704 N 164.069 0.697108 -1.41344 0
M  V30 1705 C 164.999 1.82353 -1.45841 0
M  V30 1706 C 165.98 1.67115 -0.317247 0
M  V30 1707 O 167.165 1.86871 -0.528474 0
M  V30 1708 C 164.295 3.20476 -1.33838 0
M  V30 1709 C 163.249 3.50415 -2.4575 0
M  V30 1710 C 162.575 4.87878 -2.18813 0
M  V30 1711 C 163.875 3.49546 -3.88091 0
M  V30 1712 H 165.569 1.78846 -2.40113 0
M  V30 1713 H 163.115 0.859028 -1.15571 0
M  V30 1714 H 165.068 3.98988 -1.35596 0
M  V30 1715 H 163.792 3.24604 -0.360498 0
M  V30 1716 H 162.451 2.74253 -2.43271 0
M  V30 1717 H 162.099 4.8863 -1.19371 0
M  V30 1718 H 161.799 5.08875 -2.93803 0
M  V30 1719 H 163.323 5.68702 -2.22284 0
M  V30 1720 H 164.737 4.18066 -3.92293 0
M  V30 1721 H 163.134 3.82075 -4.62751 0
M  V30 1722 H 164.204 2.48552 -4.16353 0
M  V30 1723 N 165.547 1.27147 0.931209 0
M  V30 1724 C 166.794 1.13278 1.67852 0
M  V30 1725 C 167.122 -0.32204 1.91815 0
M  V30 1726 O 166.377 -1.25224 1.50391 0
M  V30 1727 C 166.676 1.8579 3.05314 0
M  V30 1728 C 166.342 3.35657 3.01073 0
M  V30 1729 C 165.004 3.76536 2.99623 0
M  V30 1730 C 167.356 4.31299 2.92627 0
M  V30 1731 C 164.684 5.11426 2.87506 0
M  V30 1732 C 167.036 5.66242 2.82051 0
M  V30 1733 C 165.7 6.06418 2.7895 0
M  V30 1734 H 164.97 0.414515 0.614214 0
M  V30 1735 H 167.617 1.57712 1.08624 0
M  V30 1736 H 165.922 1.33854 3.68226 0
M  V30 1737 H 167.619 1.72491 3.62005 0
M  V30 1738 H 164.209 3.03146 3.02986 0
M  V30 1739 H 168.393 4.00692 2.92848 0
M  V30 1740 H 163.649 5.41705 2.83489 0
M  V30 1741 H 167.823 6.40026 2.74481 0
M  V30 1742 H 165.45 7.10895 2.69318 0
M  V30 1743 N 167.025 -1.13721 1.09112 0
M  V30 1744 C 167.973 -2.21103 0.722219 0
M  V30 1745 C 168.967 -1.67147 -0.275374 0
M  V30 1746 O 170.173 -1.79477 -0.137176 0
M  V30 1747 H 166.548 -0.720445 0.215553 0
M  V30 1748 H 168.519 -2.49483 1.63709 0
M  V30 1749 C 167.268 -3.47352 0.15543 0
M  V30 1750 H 166.591 -3.89206 0.914246 0
M  V30 1751 H 168.031 -4.2395 -0.0647967 0
M  V30 1752 C 166.49 -3.1814 -1.10852 0
M  V30 1753 O 167.02 -3.36604 -2.19227 0
M  V30 1754 N 165.226 -2.72045 -1.02176 0
M  V30 1755 H 164.773 -2.57221 -0.139764 0
M  V30 1756 H 164.731 -2.52875 -1.8682 0
M  V30 1757 N 168.503 -0.877838 -1.30888 0
M  V30 1758 C 169.914 -0.544193 -1.78593 0
M  V30 1759 C 170.265 0.939301 -1.72254 0
M  V30 1760 O 169.39 1.7337 -1.29505 0
M  V30 1761 C 169.985 -0.98105 -3.24285 0
M  V30 1762 C 168.544 -0.698935 -3.69854 0
M  V30 1763 C 167.691 -1.168 -2.51502 0
M  V30 1764 H 170.642 -1.06278 -1.17859 0
M  V30 1765 H 170.663 -0.307009 -3.79259 0
M  V30 1766 H 170.175 -2.06079 -3.28866 0
M  V30 1767 H 168.276 0.369112 -3.70767 0
M  V30 1768 H 168.389 -1.28148 -4.61644 0
M  V30 1769 H 166.753 -0.587535 -2.47831 0
M  V30 1770 H 167.536 -2.25533 -2.58824 0
M  V30 1771 N 169.982 1.44106 -0.638065 0
M  V30 1772 C 170.945 2.29138 0.0531013 0
M  V30 1773 C 171.945 1.41409 0.765506 0
M  V30 1774 O 173.135 1.63206 0.609046 0
M  V30 1775 C 170.267 3.23144 1.08584 0
M  V30 1776 H 171.46 2.91739 -0.694883 0
M  V30 1777 H 169.013 1.51134 -0.398538 0
M  V30 1778 H 169.748 2.65408 1.86357 0
M  V30 1779 H 169.533 3.87804 0.578852 0
M  V30 1780 H 171.023 3.87004 1.56899 0
M  V30 1781 N 171.46 0.379036 1.52974 0
M  V30 1782 C 172.685 -0.209353 2.06341 0
M  V30 1783 C 173.11 -1.40583 1.24972 0
M  V30 1784 O 172.468 -1.79246 0.272155 0
M  V30 1785 C 172.516 -0.567786 3.56102 0
M  V30 1786 O 171.62 -1.66318 3.77375 0
M  V30 1787 H 170.961 -0.0272919 0.663439 0
M  V30 1788 H 173.491 0.543536 1.97248 0
M  V30 1789 H 173.501 -0.835003 3.99364 0
M  V30 1790 H 172.176 0.307013 4.14765 0
M  V30 1791 H 170.753 -1.39048 3.46006 0
M  V30 1792 N 172.938 -1.57226 0.108567 0
M  V30 1793 C 174.163 -1.99604 -0.563303 0
M  V30 1794 C 174.588 -0.987563 -1.6009 0
M  V30 1795 O 173.946 0.0421687 -1.81251 0
M  V30 1796 C 173.994 -3.40902 -1.17552 0
M  V30 1797 O 173.098 -3.42896 -2.2912 0
M  V30 1798 H 172.439 -0.648704 -0.1417 0
M  V30 1799 H 174.969 -2.03679 0.193961 0
M  V30 1800 H 174.979 -3.78886 -1.51357 0
M  V30 1801 H 173.654 -4.1382 -0.415445 0
M  V30 1802 H 172.231 -3.1672 -1.96832 0
M  V30 1803 N 174.416 0.165178 -1.56732 0
M  V30 1804 C 175.693 0.908443 -1.73224 0
M  V30 1805 C 176.073 2.0013 -0.67165 0
M  V30 1806 O 175.421 2.26353 0.31253 0
M  V30 1807 C 175.631 1.46756 -3.16644 0
M  V30 1808 C 176.979 1.93809 -3.77787 0
M  V30 1809 O 178.003 1.56537 -3.1996 0
M  V30 1810 O 176.862 2.62486 -4.79336 0
M  V30 1811 H 173.956 0.428025 -0.707618 0
M  V30 1812 H 176.502 0.152526 -1.69013 0
M  V30 1813 H 175.274 0.68129 -3.85323 0
M  V30 1814 H 174.897 2.28749 -3.25207 0
M  V30 1815 N 175.894 1.51508 0.433938 0
M  V30 1816 C 176.804 1.75917 1.5521 0
M  V30 1817 C 177.82 0.643545 1.61662 0
M  V30 1818 O 178.996 0.926183 1.7884 0
M  V30 1819 C 176.061 1.88213 2.91164 0
M  V30 1820 C 175.122 3.12074 2.94802 0
M  V30 1821 C 174.355 3.23774 4.24271 0
M  V30 1822 O 174.578 2.4133 5.16833 0
M  V30 1823 O 173.512 4.16774 4.34262 0
M  V30 1824 H 177.338 2.70777 1.37527 0
M  V30 1825 H 174.923 1.36051 0.617293 0
M  V30 1826 H 176.805 1.98267 3.71845 0
M  V30 1827 H 175.48 0.965413 3.08968 0
M  V30 1828 H 174.387 3.07497 2.13065 0
M  V30 1829 H 175.72 4.03446 2.81943 0
M  V30 1830 N 177.372 -0.689602 1.41712 0
M  V30 1831 C 178.618 -1.45041 1.42599 0
M  V30 1832 C 178.973 -1.92366 0.0363764 0
M  V30 1833 O 178.266 -1.67022 -0.938844 0
M  V30 1834 C 178.46 -2.67298 2.37247 0
M  V30 1835 C 178.289 -2.31935 3.85274 0
M  V30 1836 C 177.059 -2.2201 4.53916 0
M  V30 1837 C 179.257 -1.94526 4.76093 0
M  V30 1838 N 177.239 -1.79594 5.87043 0
M  V30 1839 C 178.61 -1.62915 5.98213 0
M  V30 1840 C 180.665 -1.81388 4.63684 0
M  V30 1841 C 179.368 -1.19486 7.09306 0
M  V30 1842 C 181.394 -1.39364 5.74745 0
M  V30 1843 C 180.756 -1.08668 6.95967 0
M  V30 1844 H 176.855 -0.527806 0.577014 0
M  V30 1845 H 179.439 -0.797266 1.77628 0
M  V30 1846 H 177.61 -3.30325 2.04304 0
M  V30 1847 H 179.342 -3.33806 2.28814 0
M  V30 1848 H 176.097 -2.406 4.07932 0
M  V30 1849 H 176.521 -1.60851 6.57614 0
M  V30 1850 H 181.163 -2.03772 3.70455 0
M  V30 1851 H 178.881 -0.958477 8.02396 0
M  V30 1852 H 182.467 -1.2974 5.6715 0
M  V30 1853 H 181.347 -0.766417 7.80446 0
M  V30 1854 N 178.85 -1.27639 -0.924453 0
M  V30 1855 C 179.797 -1.10644 -2.0255 0
M  V30 1856 C 180.767 -0.00658438 -1.66099 0
M  V30 1857 O 181.952 -0.16952 -1.90045 0
M  V30 1858 C 179.092 -0.76309 -3.36557 0
M  V30 1859 C 178.205 -1.94091 -3.85944 0
M  V30 1860 C 177.34 -1.53914 -5.08413 0
M  V30 1861 C 176.379 -2.68425 -5.50104 0
M  V30 1862 N 175.516 -2.28815 -6.63768 0
M  V30 1863 H 180.356 -2.04858 -2.16419 0
M  V30 1864 H 177.893 -1.01974 -1.06017 0
M  V30 1865 H 179.851 -0.544822 -4.13627 0
M  V30 1866 H 178.481 0.142102 -3.22487 0
M  V30 1867 H 177.533 -2.27162 -3.05125 0
M  V30 1868 H 178.845 -2.7998 -4.12811 0
M  V30 1869 H 177.999 -1.28231 -5.92994 0
M  V30 1870 H 176.738 -0.651391 -4.8333 0
M  V30 1871 H 175.743 -2.94819 -4.64071 0
M  V30 1872 H 176.968 -3.57826 -5.7718 0
M  V30 1873 H 174.914 -1.42495 -6.40337 0
M  V30 1874 H 174.831 -3.08242 -6.90306 0
M  V30 1875 H 176.099 -2.06387 -7.51681 0
M  V30 1876 N 180.328 1.1314 -1.09713 0
M  V30 1877 C 181.276 2.20717 -0.733934 0
M  V30 1878 C 182.27 1.6729 0.266506 0
M  V30 1879 O 183.476 1.79547 0.127656 0
M  V30 1880 H 179.851 0.719292 -0.21937 0
M  V30 1881 H 181.822 2.48611 -1.6503 0
M  V30 1882 C 180.571 3.47265 -0.173849 0
M  V30 1883 H 179.894 3.88716 -0.934873 0
M  V30 1884 H 181.334 4.23979 0.0423126 0
M  V30 1885 C 179.793 3.18724 1.09164 0
M  V30 1886 O 180.323 3.37762 2.17439 0
M  V30 1887 N 178.529 2.72583 1.00732 0
M  V30 1888 H 178.076 2.57291 0.126121 0
M  V30 1889 H 178.034 2.53862 1.85476 0
M  V30 1890 N 181.806 0.884767 1.30421 0
M  V30 1891 C 182.769 0.356277 2.26414 0
M  V30 1892 C 183.769 -0.501124 1.52792 0
M  V30 1893 O 184.959 -0.30831 1.7145 0
M  V30 1894 C 182.091 -0.492316 3.37326 0
M  V30 1895 H 183.284 1.20389 2.74675 0
M  V30 1896 H 180.837 0.661607 1.41607 0
M  V30 1897 H 181.572 -1.36052 2.94381 0
M  V30 1898 H 181.357 0.121832 3.91911 0
M  V30 1899 H 182.847 -0.853871 4.08777 0
M  V30 1900 N 183.284 -1.43765 0.645699 0
M  V30 1901 C 184.53 -2.02197 0.156271 0
M  V30 1902 C 184.863 -1.50776 -1.22393 0
M  V30 1903 O 184.138 -0.697771 -1.81553 0
M  V30 1904 C 184.421 -3.59749 0.158872 0
M  V30 1905 C 184.274 -4.21419 1.57245 0
M  V30 1906 C 185.593 -4.37149 -0.50879 0
M  V30 1907 H 182.712 -0.734694 0.0582602 0
M  V30 1908 H 185.354 -1.71157 0.824951 0
M  V30 1909 H 183.504 -3.86325 -0.410525 0
M  V30 1910 H 185.176 -4.059 2.19186 0
M  V30 1911 H 183.419 -3.78356 2.122 0
M  V30 1912 H 184.09 -5.30482 1.52619 0
M  V30 1913 H 186.566 -4.16093 -0.024412 0
M  V30 1914 H 185.442 -5.4683 -0.476213 0
M  V30 1915 H 185.703 -4.12839 -1.58165 0
M  V30 1916 N 184.763 -0.387143 -1.52771 0
M  V30 1917 C 186.179 -0.037007 -1.59557 0
M  V30 1918 C 186.379 1.44801 -1.40124 0
M  V30 1919 O 185.435 2.21227 -1.21716 0
M  V30 1920 C 186.748 -0.512256 -2.96305 0
M  V30 1921 C 188.296 -0.468328 -3.09476 0
M  V30 1922 C 188.771 -0.919731 -4.4867 0
M  V30 1923 N 190.262 -0.875656 -4.54848 0
M  V30 1924 C 190.997 -1.19637 -5.6078 0
M  V30 1925 N 190.493 -1.58745 -6.74368 0
M  V30 1926 N 192.286 -1.11776 -5.50874 0
M  V30 1927 H 184.437 -1.35395 -1.63652 0
M  V30 1928 H 186.7 -0.554818 -0.768688 0
M  V30 1929 H 186.406 -1.54935 -3.15734 0
M  V30 1930 H 186.28 0.089805 -3.77093 0
M  V30 1931 H 188.667 0.559671 -2.89744 0
M  V30 1932 H 188.748 -1.10616 -2.30646 0
M  V30 1933 H 188.392 -1.94595 -4.69143 0
M  V30 1934 H 188.322 -0.258927 -5.25963 0
M  V30 1935 H 190.813 -0.587843 -3.733 0
M  V30 1936 H 191.126 -1.81586 -7.51163 0
M  V30 1937 H 189.471 -1.6263 -6.75705 0
M  V30 1938 H 192.662 -0.811264 -4.61016 0
M  V30 1939 H 192.835 -1.37103 -6.3333 0
M  V30 1940 N 186.241 1.57166 -0.116904 0
M  V30 1941 C 187.173 2.12271 0.864507 0
M  V30 1942 C 188.186 1.06494 1.23138 0
M  V30 1943 O 189.375 1.33873 1.18069 0
M  V30 1944 C 186.475 2.60564 2.16702 0
M  V30 1945 C 185.648 3.90416 1.97216 0
M  V30 1946 C 184.707 4.24329 3.11178 0
M  V30 1947 O 183.733 4.93182 2.84184 0
M  V30 1948 N 184.935 3.8148 4.37554 0
M  V30 1949 H 187.7 2.97102 0.393726 0
M  V30 1950 H 185.261 1.61759 0.0675805 0
M  V30 1951 H 187.253 2.80282 2.91932 0
M  V30 1952 H 185.823 1.80623 2.55135 0
M  V30 1953 H 185.043 3.79627 1.06192 0
M  V30 1954 H 186.331 4.75327 1.81499 0
M  V30 1955 H 185.729 3.25943 4.62361 0
M  V30 1956 H 184.286 4.06311 5.09661 0
M  V30 1957 N 187.719 -0.156864 1.56817 0
M  V30 1958 C 188.944 -0.890331 1.87318 0
M  V30 1959 C 189.369 -1.74394 0.704855 0
M  V30 1960 O 188.727 -1.77972 -0.345786 0
M  V30 1961 C 188.775 -1.73102 3.16336 0
M  V30 1962 O 187.879 -2.83422 2.99576 0
M  V30 1963 H 187.22 -0.24857 0.615718 0
M  V30 1964 H 189.75 -0.150649 2.04045 0
M  V30 1965 H 189.76 -2.12803 3.48107 0
M  V30 1966 H 188.435 -1.10412 4.00976 0
M  V30 1967 H 187.012 -2.47199 2.7919 0
M  V30 1968 N 189.197 -1.51736 -0.425897 0
M  V30 1969 C 190.127 -1.76827 -1.52494 0
M  V30 1970 C 191.108 -0.618524 -1.58456 0
M  V30 1971 O 192.293 -0.862416 -1.74 0
M  V30 1972 C 189.423 -1.90374 -2.90474 0
M  V30 1973 C 188.377 -3.0588 -2.99369 0
M  V30 1974 C 187.703 -3.04625 -4.3944 0
M  V30 1975 C 189.003 -4.45644 -2.72394 0
M  V30 1976 H 190.697 -2.68855 -1.31748 0
M  V30 1977 H 188.243 -1.29372 -0.632362 0
M  V30 1978 H 190.196 -2.0651 -3.6733 0
M  V30 1979 H 188.92 -0.95004 -3.12477 0
M  V30 1980 H 187.579 -2.89467 -2.24954 0
M  V30 1981 H 187.227 -2.0701 -4.58428 0
M  V30 1982 H 186.927 -3.82195 -4.46319 0
M  V30 1983 H 188.451 -3.22869 -5.18255 0
M  V30 1984 H 189.865 -4.62348 -3.38979 0
M  V30 1985 H 188.262 -5.25006 -2.9067 0
M  V30 1986 H 189.332 -4.54893 -1.67929 0
M  V30 1987 N 190.675 0.682077 -1.42076 0
M  V30 1988 C 191.623 1.81707 -1.45208 0
M  V30 1989 C 192.617 1.66183 -0.328591 0
M  V30 1990 O 193.823 1.7288 -0.501264 0
M  V30 1991 H 190.198 0.599014 -0.454628 0
M  V30 1992 H 192.169 1.76183 -2.40836 0
M  V30 1993 C 190.918 3.19816 -1.36428 0
M  V30 1994 H 190.241 3.32385 -2.22171 0
M  V30 1995 H 191.681 3.99272 -1.42681 0
M  V30 1996 C 190.14 3.36809 -0.078191 0
M  V30 1997 O 190.67 3.92124 0.87188 0
M  V30 1998 N 188.876 2.906 0.00229266 0
M  V30 1999 H 188.423 2.45772 -0.771616 0
M  V30 2000 H 188.381 3.02347 0.862179 0
M  V30 2001 N 192.153 1.28127 0.917671 0
M  V30 2002 C 193.381 1.17892 1.70026 0
M  V30 2003 C 193.796 -0.262958 1.8696 0
M  V30 2004 O 193.153 -1.17811 1.3938 0
M  V30 2005 C 193.204 1.86872 3.09453 0
M  V30 2006 O 192.925 3.25428 2.93306 0
M  V30 2007 C 194.426 1.8289 4.03815 0
M  V30 2008 H 191.646 0.40942 0.531617 0
M  V30 2009 H 194.19 1.69181 1.14883 0
M  V30 2010 H 192.345 1.39464 3.61426 0
M  V30 2011 H 192.759 3.59918 3.81523 0
M  V30 2012 H 194.233 2.35751 4.99125 0
M  V30 2013 H 194.71 0.800412 4.31845 0
M  V30 2014 H 195.316 2.29959 3.57769 0
M  V30 2015 N 193.631 -1.12557 1.10312 0
M  V30 2016 C 195.047 -1.36036 0.834649 0
M  V30 2017 C 195.247 -1.93946 -0.546539 0
M  V30 2018 O 194.303 -2.16484 -1.29966 0
M  V30 2019 C 195.616 -2.30312 1.9333 0
M  V30 2020 C 197.164 -2.43906 1.9616 0
M  V30 2021 C 197.639 -3.41496 3.05195 0
M  V30 2022 N 199.13 -3.49053 3.04494 0
M  V30 2023 C 199.865 -4.24471 3.85502 0
M  V30 2024 N 199.361 -5.02966 4.76442 0
M  V30 2025 N 201.154 -4.19864 3.73725 0
M  V30 2026 H 193.305 -0.733246 1.99342 0
M  V30 2027 H 195.568 -0.385234 0.866198 0
M  V30 2028 H 195.274 -1.94933 2.92735 0
M  V30 2029 H 195.148 -3.30421 1.81939 0
M  V30 2030 H 197.535 -2.78567 0.973886 0
M  V30 2031 H 197.616 -1.4369 2.11629 0
M  V30 2032 H 197.26 -3.07565 4.04186 0
M  V30 2033 H 197.19 -4.41539 2.86968 0
M  V30 2034 H 199.681 -2.93053 2.38596 0
M  V30 2035 H 199.994 -5.57846 5.34815 0
M  V30 2036 H 198.339 -5.02167 4.80472 0
M  V30 2037 H 201.53 -3.57623 3.02032 0
M  V30 2038 H 201.703 -4.78386 4.37093 0
M  V30 2039 N 195.109 -0.891671 -1.2995 0
M  V30 2040 C 196.039 -0.379797 -2.30391 0
M  V30 2041 C 197.02 0.540919 -1.6127 0
M  V30 2042 O 198.205 0.453352 -1.88834 0
M  V30 2043 C 195.335 0.400654 -3.44981 0
M  V30 2044 C 194.289 -0.428905 -4.25846 0
M  V30 2045 C 193.615 0.478557 -5.32554 0
M  V30 2046 C 194.915 -1.67458 -4.94727 0
M  V30 2047 H 196.609 -1.21914 -2.73454 0
M  V30 2048 H 194.155 -0.587675 -1.31462 0
M  V30 2049 H 196.108 0.769434 -4.14316 0
M  V30 2050 H 194.832 1.27371 -3.0074 0
M  V30 2051 H 193.491 -0.779911 -3.58208 0
M  V30 2052 H 193.139 1.34951 -4.84559 0
M  V30 2053 H 192.839 -0.0727433 -5.87555 0
M  V30 2054 H 194.363 0.843705 -6.04743 0
M  V30 2055 H 195.777 -1.376 -5.56542 0
M  V30 2056 H 194.174 -2.16659 -5.59624 0
M  V30 2057 H 195.244 -2.41518 -4.20473 0
M  V30 2058 N 196.587 1.43421 -0.653314 0
M  V30 2059 C 197.835 2.01414 -0.166415 0
M  V30 2060 C 198.156 1.51803 1.22397 0
M  V30 2061 O 197.426 0.730693 1.81763 0
M  V30 2062 H 196.006 0.744703 -0.0585319 0
M  V30 2063 H 198.668 1.75629 -0.845003 0
M  V30 2064 H 197.764 3.11734 -0.151111 0
M  V30 2065 N 198.065 0.39524 1.52563 0
M  V30 2066 C 198.997 -0.472201 2.24283 0
M  V30 2067 C 200.01 -1.02178 1.26742 0
M  V30 2068 O 201.199 -0.923097 1.52778 0
M  V30 2069 C 198.299 -1.66775 2.95024 0
M  V30 2070 C 197.472 -1.2445 4.19322 0
M  V30 2071 C 196.531 -2.30539 4.7301 0
M  V30 2072 O 195.557 -1.91702 5.35947 0
M  V30 2073 N 196.759 -3.6253 4.53379 0
M  V30 2074 H 199.524 0.142282 2.99362 0
M  V30 2075 H 197.085 0.2219 1.60372 0
M  V30 2076 H 199.077 -2.37283 3.27839 0
M  V30 2077 H 197.647 -2.18845 2.23217 0
M  V30 2078 H 196.867 -0.368069 3.92478 0
M  V30 2079 H 198.155 -0.938457 5.0007 0
M  V30 2080 H 197.553 -3.96841 4.03154 0
M  V30 2081 H 196.11 -4.29055 4.90668 0
M  V30 2082 N 199.544 -1.57102 0.125237 0
M  V30 2083 C 200.79 -1.95697 -0.532035 0
M  V30 2084 C 201.123 -1.009 -1.6593 0
M  V30 2085 O 200.398 -0.047347 -1.94442 0
M  V30 2086 C 200.681 -3.44181 -1.05884 0
M  V30 2087 C 200.534 -4.49752 0.0654392 0
M  V30 2088 C 201.853 -3.94655 -1.9477 0
M  V30 2089 H 198.972 -0.711571 -0.191925 0
M  V30 2090 H 201.614 -1.88923 0.20206 0
M  V30 2091 H 199.764 -3.50085 -1.68442 0
M  V30 2092 H 201.436 -4.55943 0.700982 0
M  V30 2093 H 199.679 -4.27653 0.727709 0
M  V30 2094 H 200.35 -5.50924 -0.344505 0
M  V30 2095 H 202.826 -3.91094 -1.42074 0
M  V30 2096 H 201.702 -4.99057 -2.28546 0
M  V30 2097 H 201.963 -3.35718 -2.87656 0
M  V30 2098 N 201.022 0.148545 -1.56898 0
M  V30 2099 C 201.985 1.16736 -1.97244 0
M  V30 2100 C 202.985 1.35947 -0.858777 0
M  V30 2101 O 204.175 1.32966 -1.12542 0
M  V30 2102 C 201.307 2.52798 -2.28705 0
M  V30 2103 H 202.5 0.821279 -2.88435 0
M  V30 2104 H 200.053 0.391831 -1.51309 0
M  V30 2105 H 200.788 2.92381 -1.403 0
M  V30 2106 H 200.573 2.40216 -3.09901 0
M  V30 2107 H 202.063 3.26179 -2.60762 0
M  V30 2108 N 202.5 1.5196 0.417844 0
M  V30 2109 C 203.916 1.40569 0.755816 0
M  V30 2110 C 204.116 0.503316 1.95113 0
M  V30 2111 O 203.172 -0.0341925 2.52477 0
M  V30 2112 C 204.485 2.82947 1.01791 0
M  V30 2113 C 206.033 2.92231 1.12116 0
M  V30 2114 C 206.508 4.35559 1.41608 0
M  V30 2115 N 207.999 4.38753 1.48491 0
M  V30 2116 C 208.734 5.46705 1.7292 0
M  V30 2117 N 208.23 6.64788 1.95011 0
M  V30 2118 N 210.023 5.34209 1.74863 0
M  V30 2119 H 202.174 2.09168 -0.369098 0
M  V30 2120 H 204.437 0.942409 -0.102809 0
M  V30 2121 H 204.143 3.5106 0.212081 0
M  V30 2122 H 204.017 3.23462 1.94042 0
M  V30 2123 H 206.404 2.24304 1.9176 0
M  V30 2124 H 206.485 2.55185 0.177225 0
M  V30 2125 H 206.129 5.04042 0.624848 0
M  V30 2126 H 206.059 4.70133 2.37239 0
M  V30 2127 H 208.55 3.5363 1.33244 0
M  V30 2128 H 208.863 7.42845 2.13076 0
M  V30 2129 H 207.208 6.67869 1.92293 0
M  V30 2130 H 210.399 4.40937 1.57137 0
M  V30 2131 H 210.572 6.18415 1.93563 0
M  V30 2132 N 203.978 -0.674533 1.42435 0
M  V30 2133 C 204.91 -1.80005 1.41883 0
M  V30 2134 C 205.923 -1.59667 0.31787 0
M  V30 2135 O 207.112 -1.68781 0.580973 0
M  V30 2136 C 204.212 -3.17114 1.19549 0
M  V30 2137 C 203.385 -3.64299 2.42084 0
M  V30 2138 C 202.444 -4.80142 2.15291 0
M  V30 2139 O 201.47 -4.90673 2.88493 0
M  V30 2140 N 202.672 -5.68869 1.1562 0
M  V30 2141 H 205.437 -1.80964 2.38898 0
M  V30 2142 H 202.998 -0.857633 1.37318 0
M  V30 2143 H 204.99 -3.92267 0.995417 0
M  V30 2144 H 203.56 -3.11053 0.310569 0
M  V30 2145 H 202.78 -2.79822 2.77657 0
M  V30 2146 H 204.068 -3.92567 3.23679 0
M  V30 2147 H 203.466 -5.63012 0.550765 0
M  V30 2148 H 202.023 -6.43833 1.016 0
M  V30 2149 N 205.456 -1.28612 -0.910864 0
M  V30 2150 C 206.386 -1.15326 -2.03032 0
M  V30 2151 C 207.367 -0.0502924 -1.70026 0
M  V30 2152 O 208.552 -0.227797 -1.92859 0
M  V30 2153 C 205.682 -0.817343 -3.37545 0
M  V30 2154 C 204.636 -1.8754 -3.84724 0
M  V30 2155 C 203.962 -1.39305 -5.16235 0
M  V30 2156 C 205.262 -3.28244 -4.06267 0
M  V30 2157 H 206.956 -2.08975 -2.14406 0
M  V30 2158 H 204.502 -1.00612 -1.03021 0
M  V30 2159 H 206.455 -0.711151 -4.15356 0
M  V30 2160 H 205.179 0.154846 -3.26233 0
M  V30 2161 H 203.838 -1.97079 -3.09121 0
M  V30 2162 H 203.486 -0.409846 -5.01328 0
M  V30 2163 H 203.186 -2.10057 -5.48771 0
M  V30 2164 H 204.71 -1.30014 -5.96598 0
M  V30 2165 H 206.124 -3.21611 -4.74594 0
M  V30 2166 H 204.521 -3.96855 -4.5014 0
M  V30 2167 H 205.591 -3.72048 -3.10979 0
M  V30 2168 N 206.934 1.1197 -1.10907 0
M  V30 2169 C 207.844 2.21433 -0.774896 0
M  V30 2170 C 208.86 1.72478 0.229657 0
M  V30 2171 O 210.036 2.01288 0.0672008 0
M  V30 2172 C 207.101 3.4602 -0.216986 0
M  V30 2173 C 206.162 4.09791 -1.27944 0
M  V30 2174 C 205.395 5.28431 -0.748055 0
M  V30 2175 O 205.618 5.68823 0.423833 0
M  V30 2176 O 204.552 5.82644 -1.51027 0
M  V30 2177 H 208.378 2.5242 -1.68873 0
M  V30 2178 H 205.963 1.20399 -0.884555 0
M  V30 2179 H 207.845 4.21304 0.090059 0
M  V30 2180 H 206.52 3.16698 0.669633 0
M  V30 2181 H 205.427 3.36265 -1.63941 0
M  V30 2182 H 206.76 4.4328 -2.13925 0
M  V30 2183 N 208.412 0.89855 1.29475 0
M  V30 2184 C 209.362 0.346767 2.25348 0
M  V30 2185 C 210.346 -0.532509 1.51833 0
M  V30 2186 O 211.538 -0.374714 1.72988 0
M  V30 2187 C 208.667 -0.425681 3.40651 0
M  V30 2188 C 207.753 0.46845 4.21505 0
M  V30 2189 N 208.144 1.57514 4.80648 0
M  V30 2190 C 206.442 0.26603 4.45206 0
M  V30 2191 C 207.143 2.12889 5.41344 0
M  V30 2192 N 206.119 1.42208 5.24669 0
M  V30 2193 H 209.921 1.19219 2.68634 0
M  V30 2194 H 207.435 0.749473 1.44072 0
M  V30 2195 H 209.432 -0.837716 4.08397 0
M  V30 2196 H 208.092 -1.26838 2.98902 0
M  V30 2197 H 209.103 1.95789 4.79465 0
M  V30 2198 H 205.78 -0.538394 4.14014 0
M  V30 2199 H 207.17 3.05901 5.98226 0
M  V30 2200 N 209.89 -1.43072 0.660911 0
M  V30 2201 C 210.853 -2.29194 -0.0166406 0
M  V30 2202 C 211.853 -1.42609 -0.742912 0
M  V30 2203 O 213.043 -1.64155 -0.583004 0
M  V30 2204 C 210.175 -3.24831 -1.0343 0
M  V30 2205 H 211.368 -2.90596 0.741208 0
M  V30 2206 H 208.921 -1.5048 0.422532 0
M  V30 2207 H 209.656 -2.68339 -1.82111 0
M  V30 2208 H 209.441 -3.88676 -0.517082 0
M  V30 2209 H 210.931 -3.89451 -1.50723 0
M  V30 2210 N 211.368 -0.403325 -1.52352 0
M  V30 2211 C 212.779 0.0675782 -1.86578 0
M  V30 2212 C 213.13 1.44941 -1.32236 0
M  V30 2213 O 212.255 2.06112 -0.659307 0
M  V30 2214 C 212.85 0.129404 -3.38553 0
M  V30 2215 C 211.409 0.544629 -3.72439 0
M  V30 2216 C 210.556 -0.284551 -2.75836 0
M  V30 2217 H 213.507 -0.620631 -1.46061 0
M  V30 2218 H 213.528 0.94581 -3.68558 0
M  V30 2219 H 213.04 -0.87645 -3.78074 0
M  V30 2220 H 211.141 1.55734 -3.38493 0
M  V30 2221 H 211.254 0.293046 -4.78203 0
M  V30 2222 H 209.618 0.252258 -2.53448 0
M  V30 2223 H 210.401 -1.28865 -3.18196 0
M  V30 2224 N 212.846 1.57033 -0.133567 0
M  V30 2225 C 214.076 1.99754 0.527429 0
M  V30 2226 C 214.484 1.01245 1.59832 0
M  V30 2227 O 213.827 -0.000645496 1.837 0
M  V30 2228 C 213.889 3.38903 1.19939 0
M  V30 2229 C 213.553 4.56174 0.274709 0
M  V30 2230 C 214.55 5.17563 -0.492398 0
M  V30 2231 C 212.235 5.01972 0.18153 0
M  V30 2232 C 214.229 6.2315 -1.34027 0
M  V30 2233 C 211.916 6.07416 -0.669958 0
M  V30 2234 C 212.914 6.67874 -1.42947 0
M  V30 2235 O 212.602 7.71279 -2.2668 0
M  V30 2236 H 212.334 0.660702 0.142999 0
M  V30 2237 H 214.888 2.04207 -0.221099 0
M  V30 2238 H 213.118 3.31248 1.99528 0
M  V30 2239 H 214.807 3.65818 1.75875 0
M  V30 2240 H 215.573 4.83087 -0.430367 0
M  V30 2241 H 211.452 4.54652 0.762422 0
M  V30 2242 H 214.996 6.70268 -1.93357 0
M  V30 2243 H 210.893 6.41321 -0.73333 0
M  V30 2244 H 211.661 7.88441 -2.1978 0
M  V30 2245 N 214.325 -0.140222 1.56975 0
M  V30 2246 C 215.255 -1.17456 2.01808 0
M  V30 2247 C 216.236 -1.44415 0.898794 0
M  V30 2248 O 217.421 -1.5522 1.16707 0
M  V30 2249 C 214.551 -2.50607 2.40444 0
M  V30 2250 C 213.505 -2.38155 3.55621 0
M  V30 2251 C 212.831 -3.76078 3.80091 0
M  V30 2252 C 214.131 -1.85991 4.88062 0
M  V30 2253 H 215.825 -0.801743 2.88466 0
M  V30 2254 H 213.371 -0.38422 1.38779 0
M  V30 2255 H 215.324 -3.23197 2.7041 0
M  V30 2256 H 214.048 -2.89737 1.50732 0
M  V30 2257 H 212.707 -1.68016 3.25832 0
M  V30 2258 H 212.355 -4.12656 2.87618 0
M  V30 2259 H 212.055 -3.68606 4.57606 0
M  V30 2260 H 213.579 -4.50206 4.12488 0
M  V30 2261 H 214.993 -2.4838 5.16701 0
M  V30 2262 H 213.39 -1.89393 5.6943 0
M  V30 2263 H 214.46 -0.816023 4.77984 0
M  V30 2264 N 215.803 -1.52179 -0.40978 0
M  V30 2265 C 216.733 -1.78435 -1.5061 0
M  V30 2266 C 217.714 -0.635295 -1.57791 0
M  V30 2267 O 218.899 -0.880823 -1.73076 0
M  V30 2268 C 216.029 -1.93444 -2.88439 0
M  V30 2269 C 214.983 -3.09038 -2.96108 0
M  V30 2270 C 214.309 -3.09268 -4.36185 0
M  V30 2271 C 215.609 -4.48508 -2.67652 0
M  V30 2272 H 217.303 -2.70237 -1.28889 0
M  V30 2273 H 214.849 -1.30036 -0.618605 0
M  V30 2274 H 216.802 -2.10394 -3.65119 0
M  V30 2275 H 215.526 -0.983129 -3.11452 0
M  V30 2276 H 214.185 -2.91837 -2.21872 0
M  V30 2277 H 213.833 -2.11861 -4.56206 0
M  V30 2278 H 213.533 -3.86907 -4.42241 0
M  V30 2279 H 215.057 -3.28348 -5.14801 0
M  V30 2280 H 216.471 -4.65918 -3.34056 0
M  V30 2281 H 214.868 -5.28059 -2.85085 0
M  V30 2282 H 215.938 -4.56649 -1.63095 0
M  V30 2283 N 217.281 0.66697 -1.42791 0
M  V30 2284 C 218.529 1.42417 -1.43394 0
M  V30 2285 C 218.85 1.94925 -0.0542373 0
M  V30 2286 O 218.12 1.73564 0.908415 0
M  V30 2287 H 216.7 0.528515 -0.527902 0
M  V30 2288 H 219.362 0.787562 -1.78279 0
M  V30 2289 H 218.458 2.27333 -2.13837 0
M  V30 2290 N 218.759 1.29093 0.90403 0
M  V30 2291 C 220.036 1.075 1.63411 0
M  V30 2292 C 220.416 -0.382346 2.07609 0
M  V30 2293 O 219.764 -1.37031 1.82851 0
M  V30 2294 C 219.974 2.05858 2.81822 0
M  V30 2295 C 221.322 2.36539 3.52611 0
M  V30 2296 O 222.346 2.04019 2.91984 0
M  V30 2297 O 221.205 2.92085 4.61897 0
M  V30 2298 H 218.299 0.411547 0.717327 0
M  V30 2299 H 220.845 1.40449 0.952479 0
M  V30 2300 H 219.617 3.04037 2.46327 0
M  V30 2301 H 219.24 1.73613 3.57693 0
M  V30 2302 N 220.237 -1.11381 1.11499 0
M  V30 2303 C 221.169 -2.17207 0.731704 0
M  V30 2304 C 222.182 -1.61066 -0.236957 0
M  V30 2305 O 223.371 -1.78489 -0.0197591 0
M  V30 2306 C 220.471 -3.38846 0.0607624 0
M  V30 2307 C 219.644 -4.24451 1.0564 0
M  V30 2308 C 218.703 -5.24562 0.4149 0
M  V30 2309 O 217.729 -5.59071 1.069 0
M  V30 2310 N 218.931 -5.74651 -0.821943 0
M  V30 2311 H 221.696 -2.50699 1.64225 0
M  V30 2312 H 219.257 -1.26908 1.00529 0
M  V30 2313 H 221.249 -4.02911 -0.380139 0
M  V30 2314 H 219.819 -3.03411 -0.752376 0
M  V30 2315 H 219.039 -3.56833 1.67524 0
M  V30 2316 H 220.327 -4.78486 1.72998 0
M  V30 2317 H 219.725 -5.48797 -1.37252 0
M  V30 2318 H 218.282 -6.40549 -1.20582 0
M  V30 2319 N 221.715 -0.905404 -1.28997 0
M  V30 2320 C 222.645 -0.404212 -2.29975 0
M  V30 2321 C 223.626 0.523784 -1.61835 0
M  V30 2322 O 224.811 0.433298 -1.89304 0
M  V30 2323 C 221.941 0.364042 -3.45387 0
M  V30 2324 C 220.895 -0.474048 -4.25367 0
M  V30 2325 C 220.221 0.422045 -5.33032 0
M  V30 2326 C 221.521 -1.72696 -4.92923 0
M  V30 2327 H 223.215 -1.24807 -2.72146 0
M  V30 2328 H 220.761 -0.601585 -1.30832 0
M  V30 2329 H 222.714 0.725447 -4.15109 0
M  V30 2330 H 221.438 1.24174 -3.02074 0
M  V30 2331 H 220.097 -0.81786 -3.57361 0
M  V30 2332 H 219.745 1.29804 -4.85963 0
M  V30 2333 H 219.445 -0.135057 -5.87445 0
M  V30 2334 H 220.969 0.779517 -6.05604 0
M  V30 2335 H 222.383 -1.43495 -5.55051 0
M  V30 2336 H 220.78 -2.22582 -5.57295 0
M  V30 2337 H 221.85 -2.45964 -4.17887 0
M  V30 2338 N 223.193 1.4272 -0.668489 0
M  V30 2339 C 224.418 2.06484 -0.194758 0
M  V30 2340 C 224.843 1.49862 1.13679 0
M  V30 2341 O 224.201 0.614582 1.70565 0
M  V30 2342 C 224.249 3.60353 -0.133546 0
M  V30 2343 O 223.353 4.02464 0.899806 0
M  V30 2344 H 222.694 0.656137 -0.10188 0
M  V30 2345 H 225.224 1.82964 -0.915722 0
M  V30 2346 H 225.234 4.07976 0.0447041 0
M  V30 2347 H 223.909 4.00938 -1.1055 0
M  V30 2348 H 222.486 3.66402 0.693109 0
M  V30 2349 N 224.671 0.411399 1.52136 0
M  V30 2350 C 225.917 -0.163888 2.02137 0
M  V30 2351 C 226.25 -1.44597 1.29636 0
M  V30 2352 O 225.525 -1.90272 0.403353 0
M  V30 2353 C 225.808 -0.40927 3.57767 0
M  V30 2354 C 225.661 0.889643 4.40914 0
M  V30 2355 C 226.98 -1.19042 4.23694 0
M  V30 2356 H 224.099 -0.0580896 0.734707 0
M  V30 2357 H 226.741 0.54531 1.82007 0
M  V30 2358 H 224.891 -1.0134 3.7505 0
M  V30 2359 H 226.563 1.52575 4.35337 0
M  V30 2360 H 224.806 1.50011 4.07037 0
M  V30 2361 H 225.477 0.672314 5.4789 0
M  V30 2362 H 227.953 -0.678942 4.10524 0
M  V30 2363 H 226.829 -1.33086 5.32522 0
M  V30 2364 H 227.09 -2.21166 3.82803 0
M  V30 2365 N 226.149 -1.5696 0.141893 0
M  V30 2366 C 227.112 -2.15316 -0.785587 0
M  V30 2367 C 228.112 -1.09366 -1.1788 0
M  V30 2368 O 229.302 -1.35031 -1.10056 0
M  V30 2369 C 226.434 -2.71211 -2.06537 0
M  V30 2370 H 227.627 -2.98608 -0.278041 0
M  V30 2371 H 225.18 -1.5593 -0.107519 0
M  V30 2372 H 225.915 -1.91571 -2.6167 0
M  V30 2373 H 225.7 -3.4872 -1.79268 0
M  V30 2374 H 227.19 -3.16189 -2.72789 0
M  V30 2375 N 227.627 0.131896 -1.57047 0
M  V30 2376 C 228.904 0.871495 -1.75112 0
M  V30 2377 C 229.284 1.9866 -0.713949 0
M  V30 2378 O 228.632 2.26965 0.264447 0
M  V30 2379 C 228.842 1.40007 -3.19686 0
M  V30 2380 C 230.19 1.85752 -3.81813 0
M  V30 2381 O 231.214 1.49715 -3.23209 0
M  V30 2382 O 230.073 2.5226 -4.84796 0
M  V30 2383 H 227.167 0.412919 -0.716538 0
M  V30 2384 H 229.713 0.116641 -1.69299 0
M  V30 2385 H 228.485 0.599404 -3.86682 0
M  V30 2386 H 228.108 2.218 -3.29986 0
M  V30 2387 N 229.106 1.52395 0.401703 0
M  V30 2388 C 230.355 1.66044 1.14509 0
M  V30 2389 C 230.668 0.400216 1.91462 0
M  V30 2390 O 231.874 0.416632 2.68284 0
M  V30 2391 C 230.33 2.93388 2.0845 0
M  V30 2392 C 229.938 4.26545 1.36978 0
M  V30 2393 C 231.682 3.16402 2.83001 0
M  V30 2394 C 229.589 5.45007 2.29611 0
M  V30 2395 H 228.519 0.618562 0.431158 0
M  V30 2396 H 231.17 1.78886 0.40892 0
M  V30 2397 H 229.552 2.74263 2.8565 0
M  V30 2398 H 230.726 4.56179 0.650916 0
M  V30 2399 H 229.041 4.09692 0.74438 0
M  V30 2400 H 231.638 4.02085 3.52465 0
M  V30 2401 H 231.981 2.30943 3.46368 0
M  V30 2402 H 232.514 3.36034 2.12898 0
M  V30 2403 H 229.253 6.32835 1.70879 0
M  V30 2404 H 228.773 5.19702 2.9945 0
M  V30 2405 H 230.452 5.7838 2.89974 0
M  V30 2406 N 230.584 -0.659388 1.43143 0
M  V30 2407 C 231.814 -1.44513 1.47646 0
M  V30 2408 C 232.222 -1.88981 0.0910095 0
M  V30 2409 O 231.565 -1.59702 -0.907789 0
M  V30 2410 C 231.627 -2.71663 2.35456 0
M  V30 2411 C 231.291 -2.49175 3.83094 0
M  V30 2412 C 232.288 -2.1279 4.74359 0
M  V30 2413 C 229.973 -2.63691 4.27519 0
M  V30 2414 C 231.967 -1.9121 6.08044 0
M  V30 2415 C 229.654 -2.41726 5.61259 0
M  V30 2416 C 230.652 -2.0554 6.51339 0
M  V30 2417 O 230.34 -1.838 7.82606 0
M  V30 2418 H 230.072 -0.45064 0.503884 0
M  V30 2419 H 232.626 -0.816248 1.88485 0
M  V30 2420 H 230.856 -3.37089 1.89493 0
M  V30 2421 H 232.545 -3.33595 2.31235 0
M  V30 2422 H 233.311 -2.01157 4.41317 0
M  V30 2423 H 229.19 -2.90832 3.57684 0
M  V30 2424 H 232.734 -1.62889 6.78316 0
M  V30 2425 H 228.631 -2.52959 5.9387 0
M  V30 2426 H 229.399 -1.98275 7.94122 0
M  V30 2427 N 232.062 -1.29571 -0.897171 0
M  V30 2428 C 232.992 -1.17473 -2.01798 0
M  V30 2429 C 233.973 -0.068323 -1.69963 0
M  V30 2430 O 235.158 -0.248239 -1.92607 0
M  V30 2431 C 232.288 -0.853099 -3.36659 0
M  V30 2432 C 231.242 -1.9161 -3.82713 0
M  V30 2433 C 230.568 -1.44773 -5.14728 0
M  V30 2434 C 231.868 -3.32535 -4.02763 0
M  V30 2435 H 233.562 -2.11237 -2.12177 0
M  V30 2436 H 231.108 -1.01699 -1.01948 0
M  V30 2437 H 233.061 -0.755165 -4.14578 0
M  V30 2438 H 231.785 0.120236 -3.26379 0
M  V30 2439 H 230.444 -2.00346 -3.07013 0
M  V30 2440 H 230.092 -0.462995 -5.00865 0
M  V30 2441 H 229.792 -2.15865 -5.46513 0
M  V30 2442 H 231.316 -1.36334 -5.95185 0
M  V30 2443 H 232.73 -3.26626 -4.71156 0
M  V30 2444 H 231.127 -4.01607 -4.45905 0
M  V30 2445 H 232.197 -3.75326 -3.07016 0
M  V30 2446 N 233.54 1.10788 -1.12088 0
M  V30 2447 C 234.787 1.82671 -0.873931 0
M  V30 2448 C 235.115 1.85004 0.600311 0
M  V30 2449 O 234.37 1.30365 1.45957 0
M  V30 2450 C 234.669 3.29294 -1.38926 0
M  V30 2451 C 234.335 3.47113 -2.87791 0
M  V30 2452 C 232.997 3.51684 -3.28439 0
M  V30 2453 C 235.349 3.52808 -3.83635 0
M  V30 2454 C 232.677 3.59513 -4.63646 0
M  V30 2455 C 235.029 3.62169 -5.18668 0
M  V30 2456 C 233.693 3.65003 -5.58864 0
M  V30 2457 H 232.963 0.668441 -0.319794 0
M  V30 2458 H 235.61 1.30613 -1.40045 0
M  V30 2459 H 233.915 3.83894 -0.783122 0
M  V30 2460 H 235.612 3.83416 -1.17443 0
M  V30 2461 H 232.202 3.4423 -2.5535 0
M  V30 2462 H 236.386 3.4853 -3.53328 0
M  V30 2463 H 231.642 3.59987 -4.94185 0
M  V30 2464 H 235.816 3.6552 -5.92763 0
M  V30 2465 H 233.443 3.70822 -6.63623 0
M  V30 2466 N 235.018 0.912232 1.28515 0
M  V30 2467 C 236.264 0.545405 1.95328 0
M  V30 2468 C 236.597 -0.908313 1.71649 0
M  V30 2469 O 235.872 -1.64575 1.03659 0
M  V30 2470 C 236.155 0.853483 3.4984 0
M  V30 2471 C 236.008 2.35982 3.82926 0
M  V30 2472 C 237.327 0.348589 4.38717 0
M  V30 2473 H 234.446 0.199626 0.709449 0
M  V30 2474 H 237.088 1.1412 1.5191 0
M  V30 2475 H 235.238 0.34643 3.86952 0
M  V30 2476 H 236.91 2.93738 3.55691 0
M  V30 2477 H 235.153 2.81543 3.30024 0
M  V30 2478 H 235.824 2.52593 4.90816 0
M  V30 2479 H 238.3 0.78294 4.08668 0
M  V30 2480 H 237.176 0.593242 5.45685 0
M  V30 2481 H 237.437 -0.751049 4.35674 0
M  V30 2482 N 236.496 -1.42363 0.676048 0
M  V30 2483 C 237.742 -2.0182 0.199125 0
M  V30 2484 C 238.075 -1.53339 -1.19168 0
M  V30 2485 O 237.35 -0.736124 -1.80032 0
M  V30 2486 C 237.633 -3.59331 0.235144 0
M  V30 2487 C 237.486 -4.17989 1.66149 0
M  V30 2488 C 238.805 -4.3813 -0.41595 0
M  V30 2489 H 235.924 -0.733293 0.0738311 0
M  V30 2490 H 238.566 -1.69368 0.86107 0
M  V30 2491 H 236.716 -3.87109 -0.328487 0
M  V30 2492 H 238.388 -4.0116 2.27747 0
M  V30 2493 H 236.631 -3.7377 2.20178 0
M  V30 2494 H 237.302 -5.27126 1.63837 0
M  V30 2495 H 239.778 -4.16051 0.0638529 0
M  V30 2496 H 238.654 -5.47717 -0.360115 0
M  V30 2497 H 238.915 -4.16101 -1.49373 0
M  V30 2498 N 237.974 -0.419461 -1.51915 0
M  V30 2499 C 238.904 0.391813 -2.30189 0
M  V30 2500 C 239.885 1.03699 -1.34836 0
M  V30 2501 O 241.07 1.04403 -1.63748 0
M  V30 2502 C 238.2 1.50312 -3.13087 0
M  V30 2503 C 237.154 0.9824 -4.16573 0
M  V30 2504 C 236.48 2.18809 -4.8788 0
M  V30 2505 C 237.78 0.0292356 -5.22292 0
M  V30 2506 H 239.474 -0.26135 -2.98257 0
M  V30 2507 H 237.02 -0.127134 -1.43438 0
M  V30 2508 H 238.973 2.07773 -3.66617 0
M  V30 2509 H 237.697 2.18431 -2.42807 0
M  V30 2510 H 236.356 0.430119 -3.64068 0
M  V30 2511 H 236.004 2.85507 -4.14119 0
M  V30 2512 H 235.704 1.84615 -5.57845 0
M  V30 2513 H 237.228 2.76858 -5.44226 0
M  V30 2514 H 238.642 0.512976 -5.71 0
M  V30 2515 H 237.039 -0.2244 -5.9968 0
M  V30 2516 H 238.109 -0.912931 -4.76228 0
M  V30 2517 N 239.452 1.56882 -0.150215 0
M  V30 2518 C 240.7 1.9584 0.499105 0
M  V30 2519 C 241.021 1.03623 1.65188 0
M  V30 2520 O 240.291 0.0984084 1.95653 0
M  V30 2521 H 238.871 0.723119 0.187373 0
M  V30 2522 H 241.533 1.9358 -0.226466 0
M  V30 2523 H 240.629 2.99638 0.873122 0
M  V30 2524 N 240.93 -0.123565 1.57115 0
M  V30 2525 C 242.176 -0.828428 1.85765 0
M  V30 2526 C 242.531 -1.77709 0.737371 0
M  V30 2527 O 241.824 -1.89787 -0.262978 0
M  V30 2528 C 242.018 -1.62016 3.18568 0
M  V30 2529 C 241.847 -0.749663 4.43407 0
M  V30 2530 C 240.617 -0.406251 5.03664 0
M  V30 2531 C 242.815 -0.0693505 5.14253 0
M  V30 2532 N 240.797 0.475389 6.12057 0
M  V30 2533 C 242.168 0.671474 6.16353 0
M  V30 2534 C 244.223 0.00754393 4.97899 0
M  V30 2535 C 242.926 1.48197 7.03868 0
M  V30 2536 C 244.952 0.804845 5.85898 0
M  V30 2537 C 244.314 1.53388 6.87497 0
M  V30 2538 H 240.413 -0.280219 0.73007 0
M  V30 2539 H 242.997 -0.0924183 1.94481 0
M  V30 2540 H 241.168 -2.32724 3.10957 0
M  V30 2541 H 242.9 -2.27 3.35042 0
M  V30 2542 H 239.655 -0.747446 4.67665 0
M  V30 2543 H 240.079 0.907924 6.70884 0
M  V30 2544 H 244.721 -0.541741 4.19315 0
M  V30 2545 H 242.439 2.04242 7.81864 0
M  V30 2546 H 246.025 0.866642 5.75309 0
M  V30 2547 H 244.905 2.1409 7.5441 0
M  V30 2548 N 242.408 -1.52605 -0.393616 0
M  V30 2549 C 243.633 -1.71592 -1.16495 0
M  V30 2550 C 244.058 -0.43133 -1.83088 0
M  V30 2551 O 243.416 0.612523 -1.7064 0
M  V30 2552 C 243.464 -2.86318 -2.19213 0
M  V30 2553 O 242.568 -2.52969 -3.257 0
M  V30 2554 H 241.909 -0.570734 -0.33935 0
M  V30 2555 H 244.439 -1.99377 -0.459324 0
M  V30 2556 H 244.449 -3.1168 -2.63286 0
M  V30 2557 H 243.124 -3.79511 -1.7013 0
M  V30 2558 H 241.701 -2.38332 -2.86797 0
M  V30 2559 N 243.887 0.651787 -1.4349 0
M  V30 2560 C 244.85 1.74647 -1.48429 0
M  V30 2561 C 245.85 1.56513 -0.368817 0
M  V30 2562 O 247.04 1.62385 -0.630623 0
M  V30 2563 C 244.172 3.13533 -1.33827 0
M  V30 2564 H 245.365 1.71649 -2.4592 0
M  V30 2565 H 242.918 0.863573 -1.30277 0
M  V30 2566 H 243.653 3.22142 -0.37349 0
M  V30 2567 H 243.438 3.28101 -2.14691 0
M  V30 2568 H 244.928 3.93356 -1.40218 0
M  V30 2569 N 245.365 1.30045 0.890287 0
M  V30 2570 C 246.595 1.21296 1.67245 0
M  V30 2571 C 247.003 -0.227471 1.87828 0
M  V30 2572 O 246.346 -1.16296 1.422 0
M  V30 2573 C 246.408 1.86519 3.07329 0
M  V30 2574 C 246.072 3.35837 3.09939 0
M  V30 2575 C 247.069 4.31915 2.89389 0
M  V30 2576 C 244.754 3.77196 3.31706 0
M  V30 2577 C 246.748 5.67325 2.90552 0
M  V30 2578 C 244.435 5.12725 3.32499 0
M  V30 2579 C 245.433 6.076 3.11947 0
M  V30 2580 O 245.121 7.40655 3.12547 0
M  V30 2581 H 244.853 0.4211 0.528821 0
M  V30 2582 H 247.407 1.72111 1.12103 0
M  V30 2583 H 245.637 1.30228 3.64112 0
M  V30 2584 H 247.326 1.71963 3.67673 0
M  V30 2585 H 248.092 4.01294 2.72375 0
M  V30 2586 H 243.971 3.03796 3.4674 0
M  V30 2587 H 247.515 6.41354 2.74429 0
M  V30 2588 H 243.412 5.42988 3.49047 0
M  V30 2589 H 244.18 7.49577 3.28749 0
M  V30 2590 N 246.843 -1.10192 1.12674 0
M  V30 2591 C 248.089 -1.82475 0.884915 0
M  V30 2592 C 248.422 -1.85093 -0.58773 0
M  V30 2593 O 247.697 -1.3134 -1.43457 0
M  V30 2594 C 247.98 -3.29018 1.46353 0
M  V30 2595 C 247.833 -3.34718 3.00473 0
M  V30 2596 C 249.152 -4.25473 1.12519 0
M  V30 2597 H 246.271 -0.662492 0.322915 0
M  V30 2598 H 248.913 -1.2913 1.39375 0
M  V30 2599 H 247.063 -3.74576 1.03077 0
M  V30 2600 H 248.735 -2.97622 3.52447 0
M  V30 2601 H 246.978 -2.74541 3.35872 0
M  V30 2602 H 247.649 -4.37918 3.36053 0
M  V30 2603 H 250.125 -3.88161 1.499 0
M  V30 2604 H 249.001 -5.26365 1.55663 0
M  V30 2605 H 249.262 -4.42084 0.0377407 0
M  V30 2606 N 248.321 -0.919034 -1.28029 0
M  V30 2607 C 249.269 -0.401753 -2.29104 0
M  V30 2608 C 250.263 0.509354 -1.61561 0
M  V30 2609 O 251.469 0.390014 -1.75724 0
M  V30 2610 H 247.844 -0.111331 -0.743713 0
M  V30 2611 H 249.815 -1.2672 -2.70156 0
M  V30 2612 C 248.564 0.338148 -3.46052 0
M  V30 2613 H 247.887 -0.353732 -3.98232 0
M  V30 2614 H 249.327 0.664653 -4.18758 0
M  V30 2615 C 247.786 1.54798 -2.99231 0
M  V30 2616 O 248.316 2.64696 -3.02157 0
M  V30 2617 N 246.522 1.3968 -2.54829 0
M  V30 2618 H 246.069 0.502698 -2.52647 0
M  V30 2619 H 246.027 2.20755 -2.23863 0
M  V30 2620 N 249.799 1.42003 -0.683588 0
M  V30 2621 C 251.048 2.00638 -0.206681 0
M  V30 2622 C 251.361 1.5472 1.19671 0
M  V30 2623 O 252.567 2.05833 1.77045 0
M  V30 2624 C 251.023 3.58487 -0.318632 0
M  V30 2625 C 250.631 4.1339 -1.72663 0
M  V30 2626 C 252.375 4.24384 0.0991141 0
M  V30 2627 C 250.282 5.63633 -1.79087 0
M  V30 2628 H 249.212 0.750408 -0.0735107 0
M  V30 2629 H 251.863 1.62624 -0.850048 0
M  V30 2630 H 250.245 3.94047 0.392781 0
M  V30 2631 H 251.419 3.89273 -2.46583 0
M  V30 2632 H 249.734 3.59976 -2.09299 0
M  V30 2633 H 252.331 5.34652 0.0713833 0
M  V30 2634 H 252.674 4.00505 1.13586 0
M  V30 2635 H 253.207 3.93816 -0.561599 0
M  V30 2636 H 249.946 5.92323 -2.80774 0
M  V30 2637 H 249.466 5.89714 -1.09535 0
M  V30 2638 H 251.145 6.28201 -1.5483 0
M  V30 2639 N 251.277 0.427512 1.51691 0
M  V30 2640 C 252.554 -0.201684 1.94557 0
M  V30 2641 C 252.934 -1.60981 1.36559 0
M  V30 2642 O 252.282 -2.21814 0.548702 0
M  V30 2643 C 252.492 -0.189394 3.48486 0
M  V30 2644 C 253.84 -0.39978 4.22714 0
M  V30 2645 O 254.864 -0.267945 3.55191 0
M  V30 2646 O 253.723 -0.661249 5.42485 0
M  V30 2647 H 250.817 -0.135261 0.815864 0
M  V30 2648 H 253.363 0.484782 1.62628 0
M  V30 2649 H 252.135 0.795431 3.8313 0
M  V30 2650 H 251.758 -0.919187 3.86829 0
M  V30 2651 N 252.755 -1.56801 0.158532 0
M  V30 2652 C 253.685 -2.20347 -0.772609 0
M  V30 2653 C 254.666 -1.15518 -1.24859 0
M  V30 2654 O 255.851 -1.43902 -1.30406 0
M  V30 2655 C 252.981 -2.83417 -2.00729 0
M  V30 2656 C 251.935 -3.94174 -1.66765 0
M  V30 2657 C 251.261 -4.44233 -2.97592 0
M  V30 2658 C 252.561 -5.14392 -0.905447 0
M  V30 2659 H 254.255 -2.98413 -0.242959 0
M  V30 2660 H 251.801 -1.43537 -0.115419 0
M  V30 2661 H 253.754 -3.26543 -2.6636 0
M  V30 2662 H 252.478 -2.02701 -2.56086 0
M  V30 2663 H 251.137 -3.51684 -1.03508 0
M  V30 2664 H 250.785 -3.60325 -3.50963 0
M  V30 2665 H 250.485 -5.18945 -2.75626 0
M  V30 2666 H 252.009 -4.90037 -3.64274 0
M  V30 2667 H 253.423 -5.5429 -1.46408 0
M  V30 2668 H 251.82 -5.9494 -0.7853 0
M  V30 2669 H 252.89 -4.84795 0.100668 0
M  V30 2670 N 254.233 0.115231 -1.57178 0
M  V30 2671 C 255.458 0.840354 -1.89612 0
M  V30 2672 C 255.883 1.72464 -0.750845 0
M  V30 2673 O 255.241 1.78826 0.298478 0
M  V30 2674 C 255.289 1.64654 -3.20814 0
M  V30 2675 O 254.393 2.7538 -3.06985 0
M  V30 2676 H 253.734 0.232158 -0.622092 0
M  V30 2677 H 256.264 0.0964977 -2.04372 0
M  V30 2678 H 256.274 2.03499 -3.53627 0
M  V30 2679 H 254.949 0.997416 -4.03763 0
M  V30 2680 H 253.526 2.3971 -2.85646 0
M  V30 2681 N 255.711 1.52812 0.385517 0
M  V30 2682 C 257.122 1.5993 0.963293 0
M  V30 2683 C 257.473 0.454302 1.90868 0
M  V30 2684 O 256.598 -0.422132 2.12243 0
M  V30 2685 C 257.193 2.89871 1.75387 0
M  V30 2686 C 255.752 2.99389 2.28129 0
M  V30 2687 C 254.899 2.55071 1.08783 0
M  V30 2688 H 257.85 1.5784 0.164948 0
M  V30 2689 H 257.871 2.76553 2.61341 0
M  V30 2690 H 257.383 3.73186 1.06554 0
M  V30 2691 H 255.484 2.20619 3.00263 0
M  V30 2692 H 255.597 4.04096 2.57377 0
M  V30 2693 H 253.961 2.09473 1.4489 0
M  V30 2694 H 254.744 3.40785 0.414807 0
M  V30 2695 N 257.189 -0.644168 1.43834 0
M  V30 2696 C 258.435 -1.40431 1.47141 0
M  V30 2697 C 258.79 -1.92153 0.0975577 0
M  V30 2698 O 258.083 -1.69924 -0.885232 0
M  V30 2699 C 258.277 -2.59615 2.45631 0
M  V30 2700 C 258.106 -2.1956 3.92458 0
M  V30 2701 C 256.876 -2.07456 4.60749 0
M  V30 2702 C 259.074 -1.79281 4.8204 0
M  V30 2703 N 257.056 -1.60827 5.92459 0
M  V30 2704 C 258.427 -1.43801 6.03093 0
M  V30 2705 C 260.482 -1.66545 4.6922 0
M  V30 2706 C 259.185 -0.968599 7.12749 0
M  V30 2707 C 261.211 -1.21008 5.78888 0
M  V30 2708 C 260.573 -0.864711 6.99072 0
M  V30 2709 H 256.672 -0.509182 0.593513 0
M  V30 2710 H 259.256 -0.740351 1.80075 0
M  V30 2711 H 257.427 -3.23658 2.1471 0
M  V30 2712 H 259.159 -3.26357 2.39318 0
M  V30 2713 H 255.914 -2.275 4.1538 0
M  V30 2714 H 256.338 -1.39848 6.62398 0
M  V30 2715 H 260.98 -1.91883 3.7675 0
M  V30 2716 H 258.698 -0.702715 8.05039 0
M  V30 2717 H 262.284 -1.11631 5.7099 0
M  V30 2718 H 261.164 -0.517736 7.82489 0
M  V30 2719 N 258.668 -1.30515 -0.883378 0
M  V30 2720 C 260.079 -1.17509 -1.45081 0
M  V30 2721 C 260.43 0.223605 -1.94922 0
M  V30 2722 O 259.555 1.12041 -1.85137 0
M  V30 2723 C 260.15 -2.12715 -2.63701 0
M  V30 2724 C 258.709 -2.03682 -3.16529 0
M  V30 2725 C 257.856 -2.02706 -1.89224 0
M  V30 2726 H 260.807 -1.42762 -0.693165 0
M  V30 2727 H 260.828 -1.70891 -3.39965 0
M  V30 2728 H 260.34 -3.14505 -2.27395 0
M  V30 2729 H 258.441 -1.05039 -3.57488 0
M  V30 2730 H 258.554 -2.92146 -3.7972 0
M  V30 2731 H 256.918 -1.4753 -2.07622 0
M  V30 2732 H 257.701 -3.06229 -1.55174 0
M  V30 2733 N 260.146 1.09593 -1.13257 0
M  V30 2734 C 261.371 1.8604 -0.916732 0
M  V30 2735 C 261.796 1.80504 0.529146 0
M  V30 2736 O 261.154 1.18127 1.37534 0
M  V30 2737 C 261.202 3.32017 -1.40703 0
M  V30 2738 O 260.306 4.08141 -0.591153 0
M  V30 2739 H 259.647 0.576943 -0.328683 0
M  V30 2740 H 262.177 1.38405 -1.50682 0
M  V30 2741 H 262.187 3.82865 -1.4099 0
M  V30 2742 H 260.862 3.35361 -2.45979 0
M  V30 2743 H 259.439 3.67084 -0.656005 0
M  V30 2744 N 261.624 0.925811 1.2754 0
M  V30 2745 C 262.554 0.440748 2.29303 0
M  V30 2746 C 263.535 -0.497971 1.62648 0
M  V30 2747 O 264.72 -0.403126 1.8997 0
M  V30 2748 C 261.85 -0.309048 3.45922 0
M  V30 2749 C 260.804 0.54166 4.24559 0
M  V30 2750 C 260.13 -0.337191 5.33636 0
M  V30 2751 C 261.43 1.80516 4.90114 0
M  V30 2752 H 263.124 1.29121 2.70126 0
M  V30 2753 H 260.67 0.622323 1.29858 0
M  V30 2754 H 262.623 -0.659315 4.1621 0
M  V30 2755 H 261.347 -1.19352 3.04011 0
M  V30 2756 H 260.006 0.874609 3.56014 0
M  V30 2757 H 259.654 -1.22056 4.87966 0
M  V30 2758 H 259.354 0.228497 5.87156 0
M  V30 2759 H 260.878 -0.683072 6.06767 0
M  V30 2760 H 262.292 1.52307 5.52698 0
M  V30 2761 H 260.689 2.3142 5.53683 0
M  V30 2762 H 261.759 2.52581 4.13921 0
M  V30 2763 N 263.102 -1.41638 0.69111 0
M  V30 2764 C 264.034 -2.29194 -0.0161523 0
M  V30 2765 C 265.047 -1.44549 -0.748955 0
M  V30 2766 O 266.236 -1.681 -0.6004 0
M  V30 2767 C 263.336 -3.22325 -1.0469 0
M  V30 2768 C 262.509 -4.35706 -0.384621 0
M  V30 2769 C 261.568 -5.09443 -1.31737 0
M  V30 2770 O 260.594 -5.63386 -0.811451 0
M  V30 2771 N 261.796 -5.16487 -2.64993 0
M  V30 2772 H 264.561 -2.90534 0.735523 0
M  V30 2773 H 262.122 -1.52742 0.53679 0
M  V30 2774 H 264.114 -3.68522 -1.67252 0
M  V30 2775 H 262.684 -2.62323 -1.70015 0
M  V30 2776 H 261.904 -3.91948 0.420804 0
M  V30 2777 H 263.192 -5.08743 0.0760765 0
M  V30 2778 H 262.59 -4.741 -3.08619 0
M  V30 2779 H 261.147 -5.66276 -3.22761 0
M  V30 2780 N 264.58 -0.43555 -1.51462 0
M  V30 2781 C 265.543 0.365137 -2.26273 0
M  V30 2782 C 266.543 0.951227 -1.29647 0
M  V30 2783 O 267.733 0.825958 -1.53374 0
M  V30 2784 C 264.865 1.51645 -3.05314 0
M  V30 2785 H 266.058 -0.290474 -2.9849 0
M  V30 2786 H 263.611 -0.188676 -1.55157 0
M  V30 2787 H 264.346 2.20816 -2.3751 0
M  V30 2788 H 264.131 1.10238 -3.76284 0
M  V30 2789 H 265.621 2.08218 -3.61987 0
M  V30 2790 N 266.058 1.56714 -0.166846 0
M  V30 2791 C 267.305 1.96747 0.479252 0
M  V30 2792 C 267.633 1.05263 1.63554 0
M  V30 2793 O 266.888 0.0858098 1.95512 0
M  V30 2794 C 267.187 3.42889 1.00806 0
M  V30 2795 C 266.853 4.50889 -0.0318574 0
M  V30 2796 C 265.515 4.8015 -0.317675 0
M  V30 2797 C 267.867 5.15949 -0.737956 0
M  V30 2798 C 265.195 5.71772 -1.31506 0
M  V30 2799 C 267.547 6.08647 -1.72429 0
M  V30 2800 C 266.211 6.36277 -2.0176 0
M  V30 2801 H 265.481 0.719949 0.175371 0
M  V30 2802 H 268.128 1.89756 -0.257864 0
M  V30 2803 H 266.433 3.4681 1.82291 0
M  V30 2804 H 268.13 3.71203 1.51689 0
M  V30 2805 H 264.72 4.28128 0.201088 0
M  V30 2806 H 268.904 4.93458 -0.530351 0
M  V30 2807 H 264.16 5.91465 -1.54853 0
M  V30 2808 H 268.334 6.58129 -2.27682 0
M  V30 2809 H 265.961 7.07075 -2.79194 0
M  V30 2810 N 267.536 -0.106894 1.57237 0
M  V30 2811 C 268.468 -1.15646 1.97885 0
M  V30 2812 C 269.481 -1.36981 0.879779 0
M  V30 2813 O 270.67 -1.35841 1.15799 0
M  V30 2814 C 267.77 -2.51425 2.27241 0
M  V30 2815 C 266.943 -2.50529 3.58545 0
M  V30 2816 C 266.002 -3.68145 3.75973 0
M  V30 2817 O 265.028 -3.51176 4.47956 0
M  V30 2818 N 266.23 -4.87177 3.15656 0
M  V30 2819 H 268.995 -0.81059 2.8853 0
M  V30 2820 H 266.556 -0.296024 1.59171 0
M  V30 2821 H 268.548 -3.28689 2.36105 0
M  V30 2822 H 267.118 -2.78147 1.42663 0
M  V30 2823 H 266.338 -1.58894 3.60758 0
M  V30 2824 H 267.626 -2.46997 4.44826 0
M  V30 2825 H 267.024 -5.03868 2.57165 0
M  V30 2826 H 265.581 -5.62075 3.30023 0
M  V30 2827 N 269.014 -1.53014 -0.377408 0
M  V30 2828 C 270.262 -1.6829 -1.11906 0
M  V30 2829 C 270.583 -0.431206 -1.90173 0
M  V30 2830 O 269.853 0.554595 -1.87886 0
M  V30 2831 H 268.433 -0.620371 -0.416112 0
M  V30 2832 H 271.095 -1.90167 -0.426893 0
M  V30 2833 H 270.191 -2.53862 -1.8155 0
M  V30 2834 N 270.492 0.636531 -1.44174 0
M  V30 2835 C 271.908 0.954104 -1.27941 0
M  V30 2836 C 272.108 2.0039 -0.211248 0
M  V30 2837 O 271.164 2.49236 0.404695 0
M  V30 2838 C 272.477 1.4225 -2.64925 0
M  V30 2839 C 274.025 1.53827 -2.72592 0
M  V30 2840 C 274.5 2.04053 -4.10032 0
M  V30 2841 N 275.991 2.11331 -4.12182 0
M  V30 2842 C 276.726 2.51352 -5.15374 0
M  V30 2843 N 276.222 2.90549 -6.2893 0
M  V30 2844 N 278.015 2.51438 -5.02728 0
M  V30 2845 H 270.166 -0.0578386 -2.12321 0
M  V30 2846 H 272.429 0.0367406 -0.947288 0
M  V30 2847 H 272.135 0.725466 -3.44136 0
M  V30 2848 H 272.009 2.39451 -2.9145 0
M  V30 2849 H 274.396 2.22628 -1.93702 0
M  V30 2850 H 274.477 0.550154 -2.49814 0
M  V30 2851 H 274.121 1.35848 -4.89395 0
M  V30 2852 H 274.051 3.03726 -4.30184 0
M  V30 2853 H 276.542 1.83745 -3.30222 0
M  V30 2854 H 276.855 3.19884 -7.03487 0
M  V30 2855 H 275.2 2.88313 -6.32377 0
M  V30 2856 H 278.391 2.20203 -4.13072 0
M  V30 2857 H 278.564 2.82304 -5.83274 0
M  V30 2858 N 271.97 1.30982 0.876444 0
M  V30 2859 C 273.216 1.20474 1.63138 0
M  V30 2860 C 273.549 -0.238096 1.92735 0
M  V30 2861 O 272.824 -1.1692 1.55435 0
M  V30 2862 C 273.107 2.04244 2.96574 0
M  V30 2863 C 272.96 3.56793 2.73896 0
M  V30 2864 C 274.279 1.88684 3.97601 0
M  V30 2865 H 271.398 0.439001 0.591985 0
M  V30 2866 H 274.04 1.60704 1.01361 0
M  V30 2867 H 272.19 1.70063 3.493 0
M  V30 2868 H 273.862 4.01077 2.27892 0
M  V30 2869 H 272.105 3.80548 2.08245 0
M  V30 2870 H 272.776 4.10706 3.68815 0
M  V30 2871 H 275.252 2.18584 3.54062 0
M  V30 2872 H 274.128 2.4961 4.88862 0
M  V30 2873 H 274.389 0.848343 4.33884 0
M  V30 2874 N 273.449 -1.08991 1.13837 0
M  V30 2875 C 274.697 -1.80899 0.901098 0
M  V30 2876 C 275.018 -1.86356 -0.574134 0
M  V30 2877 O 274.288 -1.35235 -1.41733 0
M  V30 2878 H 272.868 -0.669966 0.330386 0
M  V30 2879 H 275.53 -1.318 1.43578 0
M  V30 2880 H 274.626 -2.83929 1.29578 0
M  V30 2881 N 274.927 -0.932562 -1.27047 0
M  V30 2882 C 276.175 -0.574422 -1.93765 0
M  V30 2883 C 276.496 0.887993 -1.73608 0
M  V30 2884 O 275.766 1.62999 -1.08665 0
M  V30 2885 H 274.346 -0.209451 -0.717035 0
M  V30 2886 H 277.008 -1.18601 -1.5466 0
M  V30 2887 H 276.104 -0.784841 -3.02071 0
M  V30 2888 N 276.405 1.4127 -0.698611 0
M  V30 2889 C 277.821 1.55241 -0.370462 0
M  V30 2890 C 278.021 1.67351 1.12231 0
M  V30 2891 O 277.077 1.65363 1.90818 0
M  V30 2892 C 278.39 2.78997 -1.12165 0
M  V30 2893 C 279.938 2.92797 -1.1063 0
M  V30 2894 C 280.413 4.19445 -1.8393 0
M  V30 2895 N 281.904 4.26409 -1.80914 0
M  V30 2896 C 282.639 5.23271 -2.34467 0
M  V30 2897 N 282.135 6.26145 -2.96504 0
M  V30 2898 N 283.928 5.15232 -2.24706 0
M  V30 2899 H 276.079 1.31654 -1.66676 0
M  V30 2900 H 278.342 0.635393 -0.703548 0
M  V30 2901 H 278.048 2.76268 -2.17644 0
M  V30 2902 H 277.922 3.70606 -0.702209 0
M  V30 2903 H 280.309 2.95039 -0.0597713 0
M  V30 2904 H 280.39 2.02353 -1.56483 0
M  V30 2905 H 280.034 4.17964 -2.88563 0
M  V30 2906 H 279.964 5.08866 -1.35509 0
M  V30 2907 H 282.455 3.527 -1.35687 0
M  V30 2908 H 282.768 6.96451 -3.34927 0
M  V30 2909 H 281.113 6.26638 -3.00583 0
M  V30 2910 H 284.304 4.33789 -1.7591 0
M  V30 2911 H 284.477 5.90552 -2.66745 0
M  V30 2912 N 277.883 0.443576 1.51229 0
M  V30 2913 C 278.793 -0.370721 2.31652 0
M  V30 2914 C 279.809 -1.02186 1.40833 0
M  V30 2915 O 280.985 -1.01586 1.73903 0
M  V30 2916 C 278.05 -1.45376 3.14749 0
M  V30 2917 C 277.111 -0.822099 4.21355 0
M  V30 2918 C 276.344 -1.85353 5.0048 0
M  V30 2919 O 276.567 -3.07656 4.80316 0
M  V30 2920 O 275.501 -1.4406 5.84406 0
M  V30 2921 H 279.327 0.286002 3.0235 0
M  V30 2922 H 276.912 0.20598 1.47973 0
M  V30 2923 H 278.794 -2.08173 3.66391 0
M  V30 2924 H 277.469 -2.09445 2.46809 0
M  V30 2925 H 276.376 -0.155909 3.73775 0
M  V30 2926 H 277.709 -0.224797 4.91686 0
M  V30 2927 N 279.361 -1.56624 0.175154 0
M  V30 2928 C 280.324 -2.16934 -0.739738 0
M  V30 2929 C 281.324 -1.11842 -1.15533 0
M  V30 2930 O 282.514 -1.37335 -1.07167 0
M  V30 2931 C 279.646 -2.75531 -2.00738 0
M  V30 2932 H 280.839 -2.99131 -0.214639 0
M  V30 2933 H 278.392 -1.56123 -0.0744197 0
M  V30 2934 H 279.127 -1.97078 -2.57548 0
M  V30 2935 H 278.912 -3.52444 -1.71831 0
M  V30 2936 H 280.402 -3.21904 -2.66021 0
M  V30 2937 N 280.839 0.0985539 -1.57292 0
M  V30 2938 C 282.085 0.803867 -1.86188 0
M  V30 2939 C 282.418 1.78549 -0.763794 0
M  V30 2940 O 281.693 1.93153 0.22855 0
M  V30 2941 C 281.976 1.53568 -3.25713 0
M  V30 2942 C 281.829 0.572277 -4.46145 0
M  V30 2943 C 283.148 2.48708 -3.63087 0
M  V30 2944 H 280.267 0.290781 -0.677211 0
M  V30 2945 H 282.909 0.0675783 -1.8988 0
M  V30 2946 H 281.059 2.16332 -3.22696 0
M  V30 2947 H 282.731 -0.0480894 -4.61275 0
M  V30 2948 H 280.974 -0.114618 -4.33649 0
M  V30 2949 H 281.645 1.12139 -5.40489 0
M  V30 2950 H 284.121 1.96039 -3.67026 0
M  V30 2951 H 282.997 2.96932 -4.61652 0
M  V30 2952 H 283.258 3.32309 -2.91588 0
M  V30 2953 N 282.317 1.53212 0.369288 0
M  V30 2954 C 283.249 1.75668 1.47219 0
M  V30 2955 C 284.262 0.637387 1.49804 0
M  V30 2956 O 285.451 0.913561 1.5335 0
M  V30 2957 C 282.551 1.81818 2.85999 0
M  V30 2958 C 281.724 3.11409 3.07153 0
M  V30 2959 C 280.783 3.08849 4.26026 0
M  V30 2960 O 279.809 3.82659 4.2138 0
M  V30 2961 N 281.011 2.29409 5.33246 0
M  V30 2962 H 283.776 2.70832 1.28337 0
M  V30 2963 H 281.337 1.51944 0.55898 0
M  V30 2964 H 283.329 1.77588 3.63655 0
M  V30 2965 H 281.899 0.939544 2.98146 0
M  V30 2966 H 281.119 3.28971 2.1719 0
M  V30 2967 H 282.407 3.97059 3.18154 0
M  V30 2968 H 281.805 1.68946 5.39883 0
M  V30 2969 H 280.362 2.31001 6.09493 0
M  V30 2970 N 283.795 -0.628877 1.44509 0
M  V30 2971 C 285.02 -1.42048 1.5112 0
M  V30 2972 C 285.445 -1.87594 0.137818 0
M  V30 2973 O 284.803 -1.58873 -0.873437 0
M  V30 2974 C 284.851 -2.61541 2.48251 0
M  V30 2975 O 283.955 -3.61453 1.98559 0
M  V30 2976 H 283.296 -0.424942 0.510216 0
M  V30 2977 H 285.826 -0.767374 1.89664 0
M  V30 2978 H 285.836 -3.09057 2.66361 0
M  V30 2979 H 284.511 -2.27736 3.48007 0
M  V30 2980 H 283.088 -3.20731 1.90227 0
M  V30 2981 N 285.273 -1.31445 -0.869486 0
M  V30 2982 C 286.236 -1.19094 -1.9583 0
M  V30 2983 C 287.236 -0.117906 -1.60367 0
M  V30 2984 O 288.426 -0.367208 -1.70286 0
M  V30 2985 C 285.558 -0.828165 -3.30688 0
M  V30 2986 H 286.751 -2.15842 -2.08212 0
M  V30 2987 H 284.304 -1.15063 -1.05784 0
M  V30 2988 H 285.039 0.138142 -3.24006 0
M  V30 2989 H 284.824 -1.6038 -3.578 0
M  V30 2990 H 286.314 -0.765658 -4.10521 0
M  V30 2991 N 286.751 1.08385 -1.14413 0
M  V30 2992 C 287.681 2.17321 -0.854044 0
M  V30 2993 C 288.662 1.69024 0.191049 0
M  V30 2994 O 289.847 1.94141 0.0476779 0
M  V30 2995 C 286.977 3.45719 -0.330983 0
M  V30 2996 C 285.931 4.07409 -1.31155 0
M  V30 2997 C 285.257 5.30762 -0.64778 0
M  V30 2998 C 286.557 4.48665 -2.67388 0
M  V30 2999 H 288.251 2.41845 -1.76498 0
M  V30 3000 H 285.797 1.16233 -0.850051 0
M  V30 3001 H 287.75 4.21241 -0.115645 0
M  V30 3002 H 286.474 3.2075 0.615381 0
M  V30 3003 H 285.133 3.33919 -1.51306 0
M  V30 3004 H 284.781 5.02078 0.304398 0
M  V30 3005 H 284.481 5.72992 -1.30207 0
M  V30 3006 H 286.005 6.08998 -0.441972 0
M  V30 3007 H 287.419 5.15364 -2.51143 0
M  V30 3008 H 285.816 5.01814 -3.29093 0
M  V30 3009 H 286.886 3.60543 -3.24248 0
M  V30 3010 N 288.23 0.939286 1.26551 0
M  V30 3011 C 289.646 0.641304 1.46149 0
M  V30 3012 C 289.846 -0.805964 1.84679 0
M  V30 3013 O 288.902 -1.58278 1.96734 0
M  V30 3014 C 290.215 1.6011 2.54529 0
M  V30 3015 C 291.763 1.6106 2.68382 0
M  V30 3016 C 292.238 2.55765 3.79932 0
M  V30 3017 N 293.729 2.5404 3.87322 0
M  V30 3018 C 294.464 3.24004 4.73085 0
M  V30 3019 N 293.96 4.03388 5.63249 0
M  V30 3020 N 295.753 3.12965 4.66914 0
M  V30 3021 H 287.904 1.87478 0.998285 0
M  V30 3022 H 290.167 0.805559 0.499779 0
M  V30 3023 H 289.873 2.63412 2.33039 0
M  V30 3024 H 289.747 1.35171 3.52149 0
M  V30 3025 H 292.134 0.584835 2.89247 0
M  V30 3026 H 292.215 1.90053 1.71212 0
M  V30 3027 H 291.859 3.58458 3.5982 0
M  V30 3028 H 291.789 2.24063 4.76554 0
M  V30 3029 H 294.28 1.96396 3.22858 0
M  V30 3030 H 294.593 4.5373 6.25579 0
M  V30 3031 H 292.938 4.07489 5.63008 0
M  V30 3032 H 296.129 2.50432 3.95476 0
M  V30 3033 H 296.302 3.67759 5.33533 0
M  V30 3034 N 289.708 -1.40897 0.706093 0
M  V30 3035 C 290.671 -2.29131 0.0562841 0
M  V30 3036 C 291.671 -1.44901 -0.697166 0
M  V30 3037 O 292.861 -1.65926 -0.530484 0
M  V30 3038 C 289.993 -3.27957 -0.93043 0
M  V30 3039 H 291.186 -2.88091 0.833284 0
M  V30 3040 H 288.739 -1.4906 0.470192 0
M  V30 3041 H 289.474 -2.73997 -1.73482 0
M  V30 3042 H 289.259 -3.90124 -0.393166 0
M  V30 3043 H 290.749 -3.94049 -1.38256 0
M  V30 3044 N 291.186 -0.45159 -1.50991 0
M  V30 3045 C 292.096 0.358431 -2.31846 0
M  V30 3046 C 293.112 1.01438 -1.41373 0
M  V30 3047 O 294.288 1.00663 -1.74439 0
M  V30 3048 C 291.353 1.43704 -3.15515 0
M  V30 3049 C 290.414 0.799742 -4.21785 0
M  V30 3050 C 289.647 1.82696 -5.01456 0
M  V30 3051 O 289.87 3.05105 -4.81941 0
M  V30 3052 O 288.804 1.40958 -5.85162 0
M  V30 3053 H 292.63 -0.302032 -3.02194 0
M  V30 3054 H 290.215 -0.213825 -1.47862 0
M  V30 3055 H 292.097 2.06227 -3.67489 0
M  V30 3056 H 290.772 2.08133 -2.47916 0
M  V30 3057 H 289.679 0.136084 -3.73852 0
M  V30 3058 H 291.012 0.198718 -4.91799 0
M  V30 3059 N 292.664 1.56529 -0.183458 0
M  V30 3060 C 293.912 1.96855 0.457452 0
M  V30 3061 C 294.233 1.07104 1.62953 0
M  V30 3062 O 293.503 0.139887 1.954 0
M  V30 3063 H 292.083 0.72693 0.171992 0
M  V30 3064 H 294.745 1.93056 -0.267476 0
M  V30 3065 H 293.841 3.01423 0.809368 0
M  V30 3066 N 294.142 -0.090211 1.57342 0
M  V30 3067 C 295.072 -1.10976 2.05443 0
M  V30 3068 C 296.053 -1.41482 0.944284 0
M  V30 3069 O 297.238 -1.51428 1.21586 0
M  V30 3070 C 294.368 -2.42831 2.48295 0
M  V30 3071 C 293.322 -2.26721 3.63018 0
M  V30 3072 C 292.648 -3.63796 3.91863 0
M  V30 3073 C 293.948 -1.7037 4.93732 0
M  V30 3074 H 295.642 -0.709564 2.9087 0
M  V30 3075 H 293.188 -0.339874 1.39932 0
M  V30 3076 H 295.141 -3.14431 2.80555 0
M  V30 3077 H 293.865 -2.84795 1.59873 0
M  V30 3078 H 292.524 -1.57565 3.31012 0
M  V30 3079 H 292.172 -4.03297 3.00601 0
M  V30 3080 H 291.872 -3.53861 4.69101 0
M  V30 3081 H 293.396 -4.36855 4.26603 0
M  V30 3082 H 294.81 -2.31816 5.24342 0
M  V30 3083 H 293.207 -1.71181 5.75167 0
M  V30 3084 H 294.277 -0.663542 4.80339 0
M  V30 3085 N 295.62 -1.53406 -0.361157 0
M  V30 3086 C 296.869 -1.69022 -1.10066 0
M  V30 3087 C 297.182 -0.450838 -1.90333 0
M  V30 3088 O 298.388 -0.487617 -2.67085 0
M  V30 3089 C 296.844 -2.98812 -2.00598 0
M  V30 3090 C 296.452 -4.30027 -1.25621 0
M  V30 3091 C 298.196 -3.23795 -2.74513 0
M  V30 3092 C 296.103 -5.50903 -2.1508 0
M  V30 3093 H 295.033 -0.629776 -0.414606 0
M  V30 3094 H 297.684 -1.79907 -0.361348 0
M  V30 3095 H 296.066 -2.8174 -2.78278 0
M  V30 3096 H 297.24 -4.57745 -0.529739 0
M  V30 3097 H 295.555 -4.11522 -0.635496 0
M  V30 3098 H 298.152 -4.11289 -3.41681 0
M  V30 3099 H 298.495 -2.40045 -3.40123 0
M  V30 3100 H 299.028 -3.41561 -2.03914 0
M  V30 3101 H 295.767 -6.37143 -1.54041 0
M  V30 3102 H 295.287 -5.27459 -2.85565 0
M  V30 3103 H 296.966 -5.85865 -2.74538 0
M  V30 3104 N 297.098 0.621204 -1.44841 0
M  V30 3105 C 298.045 1.73267 -1.5247 0
M  V30 3106 C 299.015 1.6189 -0.371611 0
M  V30 3107 O 300.2 1.81668 -0.58321 0
M  V30 3108 C 297.34 3.11545 -1.48438 0
M  V30 3109 C 296.453 3.33827 -2.74196 0
M  V30 3110 C 295.588 4.62133 -2.61929 0
M  V30 3111 C 294.627 4.77627 -3.82804 0
M  V30 3112 N 293.764 5.97219 -3.69153 0
M  V30 3113 H 298.604 1.66082 -2.47428 0
M  V30 3114 H 296.141 0.810026 -1.22788 0
M  V30 3115 H 298.099 3.91528 -1.4409 0
M  V30 3116 H 296.729 3.1772 -0.570402 0
M  V30 3117 H 295.781 2.47715 -2.88689 0
M  V30 3118 H 297.093 3.41153 -3.6389 0
M  V30 3119 H 296.247 5.50291 -2.5547 0
M  V30 3120 H 294.986 4.57182 -1.69811 0
M  V30 3121 H 293.991 3.87896 -3.89637 0
M  V30 3122 H 295.216 4.84385 -4.75971 0
M  V30 3123 H 293.162 5.93339 -2.79794 0
M  V30 3124 H 293.079 6.05644 -4.52472 0
M  V30 3125 H 294.347 6.87912 -3.66603 0
M  V30 3126 N 298.576 1.31904 0.862503 0
M  V30 3127 C 299.486 1.22161 2.00285 0
M  V30 3128 C 300.502 0.136785 1.73462 0
M  V30 3129 O 301.678 0.355994 1.98229 0
M  V30 3130 C 298.743 0.937093 3.33796 0
M  V30 3131 C 297.804 2.10957 3.73893 0
M  V30 3132 C 297.037 1.83853 5.01033 0
M  V30 3133 O 297.26 0.777274 5.65079 0
M  V30 3134 O 296.194 2.69741 5.38074 0
M  V30 3135 H 300.02 2.18008 2.11439 0
M  V30 3136 H 297.605 1.11716 0.991957 0
M  V30 3137 H 299.487 0.794583 4.13841 0
M  V30 3138 H 298.162 0.00871894 3.23699 0
M  V30 3139 H 297.069 2.30752 2.94456 0
M  V30 3140 H 298.402 3.02046 3.88625 0
M  V30 3141 O 300.093 -0.999479 1.26857 0
M  V30 3142 H 300.784 -1.62077 1.0607 0
M  V30 END ATOM
M  V30 BEGIN BOND
M  V30 END BOND
M  V30 END CTAB
M  END
$$$$
