drugbank_target|Q59EB3 Met proto-oncogene variant (DB08111)
 OpenBabel12092120473D

  0  0  0     0  0            999 V3000
M  V30 BEGIN CTAB
M  V30 COUNTS 27399 29352 0 0 0
M  V30 BEGIN ATOM
M  V30 1 H -1.547 9.37743 -1.21644 0
M  V30 2 O -1.44 8.89599 -0.40059 0
M  V30 3 P 0 8.91 0 0
M  V30 4 O 0.22 10.1726 0.733694 0
M  V30 5 O 0.79 8.73148 -1.23936 0
M  V30 6 O 0.25 7.66872 0.971405 0
M  V30 7 C -0.69 7.42309 2.04641 0
M  V30 8 C 0.04 6.86059 3.24661 0
M  V30 9 O 0.25 5.42847 3.03646 0
M  V30 10 C 1.44 7.41196 3.50753 0
M  V30 11 O 1.83 7.27073 4.86816 0
M  V30 12 C 2.32 6.5273 2.63741 0
M  V30 13 C 1.61 5.1842 2.73198 0
M  V30 14 N 1.66 4.38762 1.4784 0
M  V30 15 H -1.179 8.36803 2.32493 0
M  V30 16 H -1.449 6.70197 1.71129 0
M  V30 17 H -0.582 7.03551 4.13168 0
M  V30 18 P 3.37998 7.20834 5.23717 0
M  V30 19 O 3.59998 7.79853 6.57286 0
M  V30 20 O 4.16998 7.79239 4.12957 0
M  V30 21 O 3.62998 5.63315 5.29344 0
M  V30 22 C 2.68998 4.80255 6.01876 0
M  V30 23 C 3.41998 3.64202 6.65911 0
M  V30 24 O 3.62998 2.60694 5.64732 0
M  V30 25 C 4.81998 3.93473 7.1943 0
M  V30 26 O 5.20998 3.02071 8.21205 0
M  V30 27 C 5.69998 3.73047 5.97036 0
M  V30 28 C 4.98998 2.58828 5.25741 0
M  V30 29 N 5.03998 2.68068 3.77503 0
M  V30 30 H 2.20098 5.40332 6.79951 0
M  V30 31 H 1.93098 4.41613 5.32378 0
M  V30 32 H 2.79798 3.26331 7.47797 0
M  V30 33 P 6.75996 2.75334 8.47391 0
M  V30 34 O 6.97996 2.44595 9.90239 0
M  V30 35 O 7.54996 3.87732 7.92204 0
M  V30 36 O 7.00996 1.4459 7.59357 0
M  V30 37 C 6.06996 0.347563 7.69115 0
M  V30 38 C 6.79996 -0.96767 7.52806 0
M  V30 39 O 7.00996 -1.21036 6.1011 0
M  V30 40 C 8.19996 -1.04544 8.13308 0
M  V30 41 O 8.58996 -2.38311 8.41922 0
M  V30 42 C 9.07996 -0.491279 7.02284 0
M  V30 43 C 8.36996 -0.996264 5.77469 0
M  V30 44 N 8.41996 -0.0501808 4.62873 0
M  V30 45 C 8.56996 -0.588177 3.36904 0
M  V30 46 O 8.65996 -1.78598 3.17173 0
M  V30 47 N 8.60996 0.329694 2.33686 0
M  V30 48 C 8.51996 1.6953 2.45079 0
M  V30 49 C 8.36996 2.16933 3.80505 0
M  V30 50 C 8.31996 1.30326 4.83752 0
M  V30 51 H 5.57996 0.374722 8.67691 0
M  V30 52 H 5.31096 0.443421 6.90177 0
M  V30 53 H 6.17796 -1.75537 7.96793 0
M  V30 54 H 8.83296 -1.94496 5.46629 0
M  V30 55 H 9.11196 0.608651 7.04676 0
M  V30 56 H 10.104 -0.889672 7.08939 0
M  V30 57 H 8.26996 -0.43308 9.04564 0
M  V30 58 H 8.19896 1.68366 5.8516 0
M  V30 59 P 10.1399 -2.75334 8.47391 0
M  V30 60 O 10.3599 -3.84128 9.44797 0
M  V30 61 O 10.9299 -1.51947 8.68712 0
M  V30 62 O 10.3899 -3.29363 6.99321 0
M  V30 63 C 9.44994 -4.24011 6.4274 0
M  V30 64 C 10.1799 -5.20775 5.52155 0
M  V30 65 O 10.3899 -4.56534 4.22446 0
M  V30 66 C 11.5799 -5.62629 5.96531 0
M  V30 67 O 11.9699 -6.87667 5.41053 0
M  V30 68 C 12.4599 -4.52537 5.39283 0
M  V30 69 C 11.7499 -4.20027 4.08623 0
M  V30 70 N 11.7999 -2.76189 3.71603 0
M  V30 71 H 8.96094 -4.797 7.24003 0
M  V30 72 H 8.69094 -3.69856 5.84513 0
M  V30 73 H 9.55794 -6.10356 5.41441 0
M  V30 74 P 13.5199 -7.20834 5.23717 0
M  V30 75 O 13.7399 -8.66104 5.38572 0
M  V30 76 O 14.3099 -6.33544 6.1349 0
M  V30 77 O 13.7699 -6.7751 3.72168 0
M  V30 78 C 12.8299 -7.20825 2.7076 0
M  V30 79 C 13.5599 -7.45864 1.40599 0
M  V30 80 O 13.7699 -6.17651 0.734225 0
M  V30 81 C 14.9599 -8.05808 1.51899 0
M  V30 82 O 15.3499 -8.74358 0.335205 0
M  V30 83 C 15.8399 -6.83093 1.70294 0
M  V30 84 C 15.1299 -5.79992 0.836974 0
M  V30 85 N 15.1799 -4.41864 1.38293 0
M  V30 86 H 12.3409 -8.13644 3.0377 0
M  V30 87 H 12.0709 -6.42788 2.55485 0
M  V30 88 H 12.9379 -8.12039 0.792769 0
M  V30 89 P 16.8999 -8.91 1.09116e-15 0
M  V30 90 O 17.1199 -10.1726 -0.733694 0
M  V30 91 O 17.6899 -8.73148 1.23936 0
M  V30 92 O 17.1499 -7.66872 -0.971405 0
M  V30 93 C 16.2099 -7.42309 -2.04641 0
M  V30 94 C 16.9399 -6.86059 -3.24661 0
M  V30 95 O 17.1499 -5.42847 -3.03646 0
M  V30 96 C 18.3399 -7.41196 -3.50753 0
M  V30 97 O 18.7299 -7.27073 -4.86816 0
M  V30 98 C 19.2199 -6.5273 -2.63741 0
M  V30 99 C 18.5099 -5.1842 -2.73198 0
M  V30 100 N 18.5599 -4.38762 -1.4784 0
M  V30 101 H 15.7209 -8.36803 -2.32493 0
M  V30 102 H 15.4509 -6.70197 -1.71129 0
M  V30 103 H 16.3179 -7.03551 -4.13168 0
M  V30 104 P 20.2799 -7.20834 -5.23717 0
M  V30 105 O 20.4999 -7.79853 -6.57286 0
M  V30 106 O 21.0699 -7.79239 -4.12957 0
M  V30 107 O 20.5299 -5.63315 -5.29344 0
M  V30 108 C 19.5899 -4.80255 -6.01876 0
M  V30 109 C 20.3199 -3.64202 -6.65911 0
M  V30 110 O 20.5299 -2.60694 -5.64732 0
M  V30 111 C 21.7199 -3.93473 -7.1943 0
M  V30 112 O 22.1099 -3.02071 -8.21205 0
M  V30 113 C 22.5999 -3.73047 -5.97036 0
M  V30 114 C 21.8899 -2.58828 -5.25741 0
M  V30 115 N 21.9399 -2.68068 -3.77503 0
M  V30 116 C 21.8599 -3.79715 -2.96723 0
M  V30 117 N 21.9399 -3.5377 -1.68852 0
M  V30 118 C 22.0799 -2.15054 -1.63254 0
M  V30 119 C 22.2099 -1.28964 -0.518571 0
M  V30 120 O 22.2299 -1.56826 0.679156 0
M  V30 121 N 22.3299 0.0538097 -0.918425 0
M  V30 122 C 22.3299 0.494275 -2.22578 0
M  V30 123 N 22.4599 1.81086 -2.40434 0
M  V30 124 N 22.1999 -0.313645 -3.27502 0
M  V30 125 C 22.0799 -1.61829 -2.91033 0
M  V30 126 H 19.1009 -5.40332 -6.79951 0
M  V30 127 H 18.8309 -4.41613 -5.32378 0
M  V30 128 H 19.6979 -3.26331 -7.47797 0
M  V30 129 H 22.3529 -1.63422 -5.56814 0
M  V30 130 H 22.6319 -4.63374 -5.34244 0
M  V30 131 H 23.6239 -3.44728 -6.25838 0
M  V30 132 H 21.7899 -4.96652 -7.57263 0
M  V30 133 H 21.7409 -4.80617 -3.3614 0
M  V30 134 H 22.4229 0.742702 -0.199384 0
M  V30 135 H 22.4599 2.20598 -3.35588 0
M  V30 136 H 22.5609 2.43518 -1.58945 0
M  V30 137 P 23.6599 -2.75334 -8.47391 0
M  V30 138 O 23.8799 -2.44571 -9.90142 0
M  V30 139 O 24.4499 -3.87688 -7.92115 0
M  V30 140 O 23.9099 -1.4459 -7.59357 0
M  V30 141 C 22.9699 -0.347608 -7.69215 0
M  V30 142 C 23.6999 0.96767 -7.52806 0
M  V30 143 O 23.9099 1.21036 -6.1011 0
M  V30 144 C 25.0999 1.04544 -8.13308 0
M  V30 145 O 25.4899 2.38311 -8.41922 0
M  V30 146 C 25.9799 0.491279 -7.02284 0
M  V30 147 C 25.2699 0.996264 -5.77469 0
M  V30 148 N 25.3199 0.0501916 -4.62973 0
M  V30 149 H 22.4809 -0.374722 -8.67691 0
M  V30 150 H 22.2109 -0.443485 -6.90277 0
M  V30 151 H 23.0779 1.75537 -7.96793 0
M  V30 152 P 27.0398 2.75334 -8.47391 0
M  V30 153 O 27.2598 3.84128 -9.44797 0
M  V30 154 O 27.8298 1.51947 -8.68712 0
M  V30 155 O 27.2898 3.29363 -6.99321 0
M  V30 156 C 26.3498 4.24011 -6.4274 0
M  V30 157 C 27.0798 5.20775 -5.52155 0
M  V30 158 O 27.2898 4.56534 -4.22446 0
M  V30 159 C 28.4798 5.62629 -5.96531 0
M  V30 160 O 28.8698 6.87667 -5.41053 0
M  V30 161 C 29.3598 4.52537 -5.39283 0
M  V30 162 C 28.6498 4.20027 -4.08623 0
M  V30 163 N 28.6998 2.76189 -3.71603 0
M  V30 164 H 25.8608 4.797 -7.24003 0
M  V30 165 H 25.5908 3.69856 -5.84513 0
M  V30 166 H 26.4578 6.10356 -5.41441 0
M  V30 167 P 30.4198 7.20834 -5.23717 0
M  V30 168 O 30.6398 8.66104 -5.38572 0
M  V30 169 O 31.2098 6.33544 -6.1349 0
M  V30 170 O 30.6698 6.7751 -3.72168 0
M  V30 171 C 29.7298 7.20825 -2.7076 0
M  V30 172 C 30.4598 7.45864 -1.40599 0
M  V30 173 O 30.6698 6.17651 -0.734225 0
M  V30 174 C 31.8598 8.05808 -1.51899 0
M  V30 175 O 32.2498 8.74358 -0.335205 0
M  V30 176 C 32.7398 6.83093 -1.70294 0
M  V30 177 C 32.0298 5.79992 -0.836974 0
M  V30 178 N 32.0798 4.41864 -1.38293 0
M  V30 179 C 31.9998 3.99538 -2.69438 0
M  V30 180 N 32.0798 2.69909 -2.84277 0
M  V30 181 C 32.2198 2.21719 -1.5408 0
M  V30 182 C 32.3498 0.891712 -1.06628 0
M  V30 183 N 32.4698 0.856846 0.334985 0
M  V30 184 C 32.4698 1.9641 1.15789 0
M  V30 185 N 32.5998 1.72708 2.46522 0
M  V30 186 N 32.3398 3.21165 0.713741 0
M  V30 187 C 32.2198 3.26797 -0.639748 0
M  V30 188 H 29.2408 8.13644 -3.0377 0
M  V30 189 H 28.9708 6.42788 -2.55485 0
M  V30 190 H 29.8378 8.12039 -0.792769 0
M  V30 191 P 33.7998 8.91 -2.18232e-15 0
M  V30 192 O 34.0198 10.1746 0.733838 0
M  V30 193 O 34.5898 8.73346 -1.23964 0
M  V30 194 O 34.0498 7.66872 0.971405 0
M  V30 195 C 33.1098 7.42405 2.04668 0
M  V30 196 C 33.8398 6.86059 3.24661 0
M  V30 197 O 34.0498 5.42934 3.03695 0
M  V30 198 C 35.2398 7.41287 3.50796 0
M  V30 199 O 35.6298 7.27073 4.86816 0
M  V30 200 C 36.1198 6.5273 2.63741 0
M  V30 201 C 35.4098 5.1842 2.73198 0
M  V30 202 N 35.4598 4.38762 1.4784 0
M  V30 203 H 32.6218 8.36899 2.3252 0
M  V30 204 H 32.3498 6.70391 1.71179 0
M  V30 205 H 33.2178 7.03638 4.13219 0
M  V30 206 H 35.8728 4.59931 3.54016 0
M  V30 207 H 36.1528 6.88995 1.59871 0
M  V30 208 H 37.1438 6.4684 3.0373 0
M  V30 209 H 35.3098 8.47002 3.20749 0
M  V30 210 P 37.1798 7.20834 5.23717 0
M  V30 211 O 37.3998 7.79853 6.57286 0
M  V30 212 O 37.9698 7.79239 4.12957 0
M  V30 213 O 37.4298 5.63315 5.29344 0
M  V30 214 C 36.4898 4.80255 6.01876 0
M  V30 215 C 37.2198 3.64202 6.65911 0
M  V30 216 O 37.4298 2.60694 5.64732 0
M  V30 217 C 38.6198 3.93473 7.1943 0
M  V30 218 O 39.0098 3.02071 8.21205 0
M  V30 219 C 39.4998 3.73047 5.97036 0
M  V30 220 C 38.7898 2.58828 5.25741 0
M  V30 221 N 38.8398 2.68068 3.77503 0
M  V30 222 H 36.0008 5.40332 6.79951 0
M  V30 223 H 35.7308 4.41613 5.32378 0
M  V30 224 H 36.5978 3.26331 7.47797 0
M  V30 225 P 40.5598 2.75334 8.47391 0
M  V30 226 O 40.7798 2.44571 9.90142 0
M  V30 227 O 41.3498 3.87688 7.92115 0
M  V30 228 O 40.8098 1.4459 7.59357 0
M  V30 229 C 39.8698 0.347608 7.69215 0
M  V30 230 C 40.5998 -0.96767 7.52806 0
M  V30 231 O 40.8098 -1.21036 6.1011 0
M  V30 232 C 41.9998 -1.04544 8.13308 0
M  V30 233 O 42.3898 -2.38311 8.41922 0
M  V30 234 C 42.8798 -0.491279 7.02284 0
M  V30 235 C 42.1698 -0.996264 5.77469 0
M  V30 236 N 42.2198 -0.0501916 4.62973 0
M  V30 237 H 39.3808 0.374722 8.67691 0
M  V30 238 H 39.1108 0.443485 6.90277 0
M  V30 239 H 39.9778 -1.75537 7.96793 0
M  V30 240 P 43.9397 -2.75334 8.47391 0
M  V30 241 O 44.1597 -3.84128 9.44797 0
M  V30 242 O 44.7297 -1.51947 8.68712 0
M  V30 243 O 44.1897 -3.29363 6.99321 0
M  V30 244 C 43.2497 -4.24011 6.4274 0
M  V30 245 C 43.9797 -5.20775 5.52155 0
M  V30 246 O 44.1897 -4.56534 4.22446 0
M  V30 247 C 45.3797 -5.62629 5.96531 0
M  V30 248 O 45.7697 -6.87667 5.41053 0
M  V30 249 C 46.2597 -4.52537 5.39283 0
M  V30 250 C 45.5497 -4.20027 4.08623 0
M  V30 251 N 45.5997 -2.76189 3.71603 0
M  V30 252 H 42.7607 -4.797 7.24003 0
M  V30 253 H 42.4907 -3.69856 5.84513 0
M  V30 254 H 43.3577 -6.10356 5.41441 0
M  V30 255 P 47.3197 -7.20834 5.23717 0
M  V30 256 O 47.5397 -8.66104 5.38572 0
M  V30 257 O 48.1097 -6.33544 6.1349 0
M  V30 258 O 47.5697 -6.7751 3.72168 0
M  V30 259 C 46.6297 -7.20825 2.7076 0
M  V30 260 C 47.3597 -7.45864 1.40599 0
M  V30 261 O 47.5697 -6.17651 0.734225 0
M  V30 262 C 48.7597 -8.05808 1.51899 0
M  V30 263 O 49.1497 -8.74358 0.335205 0
M  V30 264 C 49.6397 -6.83093 1.70294 0
M  V30 265 C 48.9297 -5.79992 0.836974 0
M  V30 266 N 48.9797 -4.41864 1.38293 0
M  V30 267 C 48.8997 -3.99538 2.69438 0
M  V30 268 N 48.9797 -2.69909 2.84277 0
M  V30 269 C 49.1197 -2.21719 1.5408 0
M  V30 270 C 49.2497 -0.891712 1.06628 0
M  V30 271 O 49.2697 0.161298 1.70137 0
M  V30 272 N 49.3697 -0.856846 -0.334985 0
M  V30 273 C 49.3697 -1.9641 -1.15789 0
M  V30 274 N 49.4997 -1.72708 -2.46522 0
M  V30 275 N 49.2397 -3.21165 -0.713741 0
M  V30 276 C 49.1197 -3.26797 0.639748 0
M  V30 277 H 46.1407 -8.13644 3.0377 0
M  V30 278 H 45.8707 -6.42788 2.55485 0
M  V30 279 H 46.7377 -8.12039 0.792769 0
M  V30 280 H 49.3927 -5.80061 -0.166416 0
M  V30 281 H 49.6717 -6.51287 2.75604 0
M  V30 282 H 50.6637 -7.01734 1.34462 0
M  V30 283 H 48.8297 -8.73674 2.38337 0
M  V30 284 H 48.7807 -4.68207 3.53221 0
M  V30 285 H 49.4627 0.0398818 -0.767965 0
M  V30 286 H 49.4997 -2.50995 -3.13503 0
M  V30 287 H 49.6007 -0.759148 -2.80716 0
M  V30 288 P 50.6997 -8.91 3.27348e-15 0
M  V30 289 O 50.9197 -10.1726 -0.733694 0
M  V30 290 O 51.4897 -8.73148 1.23936 0
M  V30 291 O 50.9497 -7.66872 -0.971405 0
M  V30 292 C 50.0097 -7.42309 -2.04641 0
M  V30 293 C 50.7397 -6.86059 -3.24661 0
M  V30 294 O 50.9497 -5.42847 -3.03646 0
M  V30 295 C 52.1397 -7.41196 -3.50753 0
M  V30 296 O 52.5297 -7.27073 -4.86816 0
M  V30 297 C 53.0197 -6.5273 -2.63741 0
M  V30 298 C 52.3097 -5.1842 -2.73198 0
M  V30 299 N 52.3597 -4.38762 -1.4784 0
M  V30 300 C 52.2797 -4.81605 -0.168631 0
M  V30 301 N 52.3597 -3.85454 0.713363 0
M  V30 302 C 52.4997 -2.6994 -0.0566958 0
M  V30 303 C 52.6297 -1.34815 0.338502 0
M  V30 304 O 52.6497 -0.869548 1.47125 0
M  V30 305 N 52.7497 -0.496304 -0.77465 0
M  V30 306 C 52.7497 -0.908403 -2.09122 0
M  V30 307 N 52.8797 0.0517805 -3.00955 0
M  V30 308 N 52.6197 -2.17875 -2.46519 0
M  V30 309 C 52.4997 -3.01988 -1.4033 0
M  V30 310 H 49.5207 -8.36803 -2.32493 0
M  V30 311 H 49.2507 -6.70197 -1.71129 0
M  V30 312 H 50.1177 -7.03551 -4.13168 0
M  V30 313 H 52.7727 -4.59498 -3.54415 0
M  V30 314 H 53.0517 -6.88898 -1.59848 0
M  V30 315 H 54.0437 -6.46749 -3.03687 0
M  V30 316 H 52.2097 -8.46908 -3.20714 0
M  V30 317 H 52.1607 -5.86405 0.105564 0
M  V30 318 H 52.8427 0.483664 -0.597855 0
M  V30 319 H 52.8797 -0.187865 -4.0116 0
M  V30 320 H 52.9807 1.03585 -2.71726 0
M  V30 321 P 54.0797 -7.20834 -5.23717 0
M  V30 322 O 54.2997 -7.79853 -6.57286 0
M  V30 323 O 54.8697 -7.79239 -4.12957 0
M  V30 324 O 54.3297 -5.63315 -5.29344 0
M  V30 325 C 53.3897 -4.80255 -6.01876 0
M  V30 326 C 54.1197 -3.64202 -6.65911 0
M  V30 327 O 54.3297 -2.60694 -5.64732 0
M  V30 328 C 55.5197 -3.93473 -7.1943 0
M  V30 329 O 55.9097 -3.02071 -8.21205 0
M  V30 330 C 56.3997 -3.73047 -5.97036 0
M  V30 331 C 55.6897 -2.58828 -5.25741 0
M  V30 332 N 55.7397 -2.68068 -3.77503 0
M  V30 333 H 52.9007 -5.40332 -6.79951 0
M  V30 334 H 52.6307 -4.41613 -5.32378 0
M  V30 335 H 53.4977 -3.26331 -7.47797 0
M  V30 336 P 57.4597 -2.75334 -8.47391 0
M  V30 337 O 57.6797 -2.44595 -9.90239 0
M  V30 338 O 58.2497 -3.87732 -7.92204 0
M  V30 339 O 57.7097 -1.4459 -7.59357 0
M  V30 340 C 56.7697 -0.347563 -7.69115 0
M  V30 341 C 57.4997 0.96767 -7.52806 0
M  V30 342 O 57.7097 1.21036 -6.1011 0
M  V30 343 C 58.8997 1.04544 -8.13308 0
M  V30 344 O 59.2897 2.38311 -8.41922 0
M  V30 345 C 59.7797 0.491279 -7.02284 0
M  V30 346 C 59.0697 0.996264 -5.77469 0
M  V30 347 N 59.1197 0.0501808 -4.62873 0
M  V30 348 C 59.2697 0.588177 -3.36904 0
M  V30 349 O 59.3597 1.78598 -3.17173 0
M  V30 350 N 59.3097 -0.329694 -2.33686 0
M  V30 351 C 59.2197 -1.6953 -2.45079 0
M  V30 352 O 59.2697 -2.41926 -1.44899 0
M  V30 353 C 59.0697 -2.16933 -3.80505 0
M  V30 354 C 58.9597 -3.65373 -3.97621 0
M  V30 355 C 59.0197 -1.30326 -4.83752 0
M  V30 356 H 56.2797 -0.374722 -8.67691 0
M  V30 357 H 56.0107 -0.443421 -6.90177 0
M  V30 358 H 56.8777 1.75537 -7.96793 0
M  V30 359 H 59.5327 1.94496 -5.46629 0
M  V30 360 H 59.8117 -0.608651 -7.04676 0
M  V30 361 H 60.8037 0.889672 -7.08939 0
M  V30 362 H 58.9697 0.43308 -9.04564 0
M  V30 363 H 58.8987 -1.68366 -5.8516 0
M  V30 364 H 59.9287 -4.05985 -4.30448 0
M  V30 365 H 58.1917 -3.88028 -4.72875 0
M  V30 366 H 58.6797 -4.11381 -3.01609 0
M  V30 367 H 59.4157 0.0393617 -1.41345 0
M  V30 368 P 60.8396 2.75334 -8.47391 0
M  V30 369 O 61.0596 3.84166 -9.4489 0
M  V30 370 O 61.6296 1.51964 -8.6881 0
M  V30 371 O 61.0896 3.29363 -6.99321 0
M  V30 372 C 60.1496 4.24011 -6.4274 0
M  V30 373 C 60.8796 5.20775 -5.52155 0
M  V30 374 O 61.0896 4.56534 -4.22446 0
M  V30 375 C 62.2796 5.62629 -5.96531 0
M  V30 376 O 62.6696 6.87667 -5.41053 0
M  V30 377 C 63.1596 4.52537 -5.39283 0
M  V30 378 C 62.4496 4.20027 -4.08623 0
M  V30 379 N 62.4996 2.7613 -3.71522 0
M  V30 380 C 62.6496 2.43702 -2.37085 0
M  V30 381 O 62.7396 3.3531 -1.54039 0
M  V30 382 N 62.6996 0.951103 -2.10621 0
M  V30 383 C 62.5996 0.165021 -2.93537 0
M  V30 384 N 62.6496 -1.09723 -2.53253 0
M  V30 385 C 62.4496 0.469576 -4.32458 0
M  V30 386 C 62.3996 1.78658 -4.65921 0
M  V30 387 H 59.6596 4.79645 -7.23919 0
M  V30 388 H 59.3906 3.69802 -5.84429 0
M  V30 389 H 60.2576 6.10431 -5.41508 0
M  V30 390 H 62.9126 4.78733 -3.27967 0
M  V30 391 H 63.1916 3.64957 -6.05871 0
M  V30 392 H 64.1836 4.8868 -5.2125 0
M  V30 393 H 62.3496 5.66726 -7.06352 0
M  V30 394 H 62.2776 2.06987 -5.70299 0
M  V30 395 H 62.3796 -0.314383 -5.07728 0
M  V30 396 H 62.7676 -1.31363 -1.5319 0
M  V30 397 H 62.5706 -1.85978 -3.21943 0
M  V30 398 P 64.2196 7.20834 -5.23717 0
M  V30 399 O 64.4396 8.66189 -5.38625 0
M  V30 400 O 65.0096 6.33615 -6.1356 0
M  V30 401 O 64.4696 6.7751 -3.72168 0
M  V30 402 C 63.5296 7.20732 -2.70725 0
M  V30 403 C 64.2596 7.45864 -1.40599 0
M  V30 404 O 64.4696 6.17651 -0.734225 0
M  V30 405 C 65.6596 8.05808 -1.51899 0
M  V30 406 O 66.0496 8.74358 -0.335205 0
M  V30 407 C 66.5396 6.83093 -1.70294 0
M  V30 408 C 65.8296 5.79992 -0.836974 0
M  V30 409 N 65.8796 4.41769 -1.38263 0
M  V30 410 C 66.0296 3.38591 -0.481702 0
M  V30 411 O 66.1196 3.56839 0.718452 0
M  V30 412 N 66.0696 2.1206 -1.03569 0
M  V30 413 C 65.9796 1.80696 -2.36966 0
M  V30 414 O 66.0296 0.630473 -2.74862 0
M  V30 415 C 65.8296 2.94845 -3.23898 0
M  V30 416 C 65.7196 2.65253 -4.70362 0
M  V30 417 C 65.7796 4.19803 -2.73435 0
M  V30 418 H 63.0396 8.13644 -3.0377 0
M  V30 419 H 62.7706 6.42695 -2.55448 0
M  V30 420 H 63.6376 8.12039 -0.792769 0
M  V30 421 H 66.2926 5.79978 0.160587 0
M  V30 422 H 66.5716 6.51379 -2.75643 0
M  V30 423 H 67.5636 7.01734 -1.34462 0
M  V30 424 H 65.7296 8.73674 -2.38337 0
M  V30 425 H 65.6586 5.04492 -3.4095 0
M  V30 426 H 66.6886 2.83924 -5.1913 0
M  V30 427 H 64.9516 3.29824 -5.15163 0
M  V30 428 H 65.4396 1.59723 -4.84449 0
M  V30 429 H 66.1756 1.35644 -0.399345 0
M  V30 430 P 67.5996 8.91 -4.36464e-15 0
M  V30 431 O 67.8196 10.1726 0.733694 0
M  V30 432 O 68.3896 8.73148 -1.23936 0
M  V30 433 O 67.8496 7.66872 0.971405 0
M  V30 434 C 66.9096 7.42309 2.04641 0
M  V30 435 C 67.6396 6.86059 3.24661 0
M  V30 436 O 67.8496 5.42847 3.03646 0
M  V30 437 C 69.0396 7.41196 3.50753 0
M  V30 438 O 69.4296 7.27073 4.86816 0
M  V30 439 C 69.9196 6.5273 2.63741 0
M  V30 440 C 69.2096 5.1842 2.73198 0
M  V30 441 N 69.2596 4.38762 1.4784 0
M  V30 442 H 66.4206 8.36803 2.32493 0
M  V30 443 H 66.1506 6.70197 1.71129 0
M  V30 444 H 67.0176 7.03551 4.13168 0
M  V30 445 P 70.9796 7.20834 5.23717 0
M  V30 446 O 71.1996 7.79853 6.57286 0
M  V30 447 O 71.7696 7.79239 4.12957 0
M  V30 448 O 71.2296 5.63315 5.29344 0
M  V30 449 C 70.2896 4.80255 6.01876 0
M  V30 450 C 71.0196 3.64202 6.65911 0
M  V30 451 O 71.2296 2.60694 5.64732 0
M  V30 452 C 72.4196 3.93473 7.1943 0
M  V30 453 O 72.8096 3.02071 8.21205 0
M  V30 454 C 73.2996 3.73047 5.97036 0
M  V30 455 C 72.5896 2.58828 5.25741 0
M  V30 456 N 72.6396 2.68068 3.77503 0
M  V30 457 H 69.8006 5.40332 6.79951 0
M  V30 458 H 69.5306 4.41613 5.32378 0
M  V30 459 H 70.3976 3.26331 7.47797 0
M  V30 460 P 74.3596 2.75334 8.47391 0
M  V30 461 O 74.5796 2.44571 9.90142 0
M  V30 462 O 75.1496 3.87688 7.92115 0
M  V30 463 O 74.6096 1.4459 7.59357 0
M  V30 464 C 73.6696 0.347608 7.69215 0
M  V30 465 C 74.3996 -0.96767 7.52806 0
M  V30 466 O 74.6096 -1.21036 6.1011 0
M  V30 467 C 75.7996 -1.04544 8.13308 0
M  V30 468 O 76.1896 -2.38311 8.41922 0
M  V30 469 C 76.6796 -0.491279 7.02284 0
M  V30 470 C 75.9696 -0.996264 5.77469 0
M  V30 471 N 76.0196 -0.0501916 4.62973 0
M  V30 472 H 73.1806 0.374722 8.67691 0
M  V30 473 H 72.9106 0.443485 6.90277 0
M  V30 474 H 73.7776 -1.75537 7.96793 0
M  V30 475 P 77.7395 -2.75334 8.47391 0
M  V30 476 O 77.9595 -3.84128 9.44797 0
M  V30 477 O 78.5295 -1.51947 8.68712 0
M  V30 478 O 77.9895 -3.29363 6.99321 0
M  V30 479 C 77.0495 -4.24011 6.4274 0
M  V30 480 C 77.7795 -5.20775 5.52155 0
M  V30 481 O 77.9895 -4.56534 4.22446 0
M  V30 482 C 79.1795 -5.62629 5.96531 0
M  V30 483 O 79.5695 -6.87667 5.41053 0
M  V30 484 C 80.0595 -4.52537 5.39283 0
M  V30 485 C 79.3495 -4.20027 4.08623 0
M  V30 486 N 79.3995 -2.76189 3.71603 0
M  V30 487 H 76.5605 -4.797 7.24003 0
M  V30 488 H 76.2905 -3.69856 5.84513 0
M  V30 489 H 77.1575 -6.10356 5.41441 0
M  V30 490 P 81.1195 -7.20834 5.23717 0
M  V30 491 O 81.3395 -8.66104 5.38572 0
M  V30 492 O 81.9095 -6.33544 6.1349 0
M  V30 493 O 81.3695 -6.7751 3.72168 0
M  V30 494 C 80.4295 -7.20825 2.7076 0
M  V30 495 C 81.1595 -7.45864 1.40599 0
M  V30 496 O 81.3695 -6.17651 0.734225 0
M  V30 497 C 82.5595 -8.05808 1.51899 0
M  V30 498 O 82.9495 -8.74358 0.335205 0
M  V30 499 C 83.4395 -6.83093 1.70294 0
M  V30 500 C 82.7295 -5.79992 0.836974 0
M  V30 501 N 82.7795 -4.41864 1.38293 0
M  V30 502 H 79.9405 -8.13644 3.0377 0
M  V30 503 H 79.6705 -6.42788 2.55485 0
M  V30 504 H 80.5375 -8.12039 0.792769 0
M  V30 505 P 84.4995 -8.91 5.4558e-15 0
M  V30 506 O 84.7195 -10.1726 -0.733694 0
M  V30 507 O 85.2895 -8.73148 1.23936 0
M  V30 508 O 84.7495 -7.66872 -0.971405 0
M  V30 509 C 83.8095 -7.42309 -2.04641 0
M  V30 510 C 84.5395 -6.86059 -3.24661 0
M  V30 511 O 84.7495 -5.42847 -3.03646 0
M  V30 512 C 85.9395 -7.41196 -3.50753 0
M  V30 513 O 86.3295 -7.27073 -4.86816 0
M  V30 514 C 86.8195 -6.5273 -2.63741 0
M  V30 515 C 86.1095 -5.1842 -2.73198 0
M  V30 516 N 86.1595 -4.38762 -1.4784 0
M  V30 517 H 83.3205 -8.36803 -2.32493 0
M  V30 518 H 83.0505 -6.70197 -1.71129 0
M  V30 519 H 83.9175 -7.03551 -4.13168 0
M  V30 520 P 87.8795 -7.20834 -5.23717 0
M  V30 521 O 88.0995 -7.79853 -6.57286 0
M  V30 522 O 88.6695 -7.79239 -4.12957 0
M  V30 523 O 88.1295 -5.63315 -5.29344 0
M  V30 524 C 87.1895 -4.80255 -6.01876 0
M  V30 525 C 87.9195 -3.64202 -6.65911 0
M  V30 526 O 88.1295 -2.60694 -5.64732 0
M  V30 527 C 89.3195 -3.93473 -7.1943 0
M  V30 528 O 89.7095 -3.02071 -8.21205 0
M  V30 529 C 90.1995 -3.73047 -5.97036 0
M  V30 530 C 89.4895 -2.58828 -5.25741 0
M  V30 531 N 89.5395 -2.68068 -3.77503 0
M  V30 532 H 86.7005 -5.40332 -6.79951 0
M  V30 533 H 86.4305 -4.41613 -5.32378 0
M  V30 534 H 87.2975 -3.26331 -7.47797 0
M  V30 535 P 91.2595 -2.75334 -8.47391 0
M  V30 536 O 91.4795 -2.44571 -9.90142 0
M  V30 537 O 92.0495 -3.87688 -7.92115 0
M  V30 538 O 91.5095 -1.4459 -7.59357 0
M  V30 539 C 90.5695 -0.347608 -7.69215 0
M  V30 540 C 91.2995 0.96767 -7.52806 0
M  V30 541 O 91.5095 1.21036 -6.1011 0
M  V30 542 C 92.6995 1.04544 -8.13308 0
M  V30 543 O 93.0895 2.38311 -8.41922 0
M  V30 544 C 93.5795 0.491279 -7.02284 0
M  V30 545 C 92.8695 0.996264 -5.77469 0
M  V30 546 N 92.9195 0.0501916 -4.62973 0
M  V30 547 H 90.0805 -0.374722 -8.67691 0
M  V30 548 H 89.8105 -0.443485 -6.90277 0
M  V30 549 H 90.6775 1.75537 -7.96793 0
M  V30 550 P 94.6394 2.75334 -8.47391 0
M  V30 551 O 94.8594 3.84128 -9.44797 0
M  V30 552 O 95.4294 1.51947 -8.68712 0
M  V30 553 O 94.8894 3.29363 -6.99321 0
M  V30 554 C 93.9494 4.24011 -6.4274 0
M  V30 555 C 94.6794 5.20775 -5.52155 0
M  V30 556 O 94.8894 4.56534 -4.22446 0
M  V30 557 C 96.0794 5.62629 -5.96531 0
M  V30 558 O 96.4694 6.87667 -5.41053 0
M  V30 559 C 96.9594 4.52537 -5.39283 0
M  V30 560 C 96.2494 4.20027 -4.08623 0
M  V30 561 N 96.2994 2.76189 -3.71603 0
M  V30 562 H 93.4604 4.797 -7.24003 0
M  V30 563 H 93.1904 3.69856 -5.84513 0
M  V30 564 H 94.0574 6.10356 -5.41441 0
M  V30 565 P 98.0194 7.20834 -5.23717 0
M  V30 566 O 98.2394 8.66104 -5.38572 0
M  V30 567 O 98.8094 6.33544 -6.1349 0
M  V30 568 O 98.2694 6.7751 -3.72168 0
M  V30 569 C 97.3294 7.20825 -2.7076 0
M  V30 570 C 98.0594 7.45864 -1.40599 0
M  V30 571 O 98.2694 6.17651 -0.734225 0
M  V30 572 C 99.4594 8.05808 -1.51899 0
M  V30 573 O 99.8494 8.74358 -0.335205 0
M  V30 574 C 100.339 6.83093 -1.70294 0
M  V30 575 C 99.6294 5.79992 -0.836974 0
M  V30 576 N 99.6794 4.41864 -1.38293 0
M  V30 577 H 96.8404 8.13644 -3.0377 0
M  V30 578 H 96.5704 6.42788 -2.55485 0
M  V30 579 H 97.4374 8.12039 -0.792769 0
M  V30 580 P 101.399 8.91 -6.54696e-15 0
M  V30 581 O 101.619 10.1736 0.733766 0
M  V30 582 O 102.189 8.73247 -1.2395 0
M  V30 583 O 101.649 7.66872 0.971405 0
M  V30 584 C 100.709 7.42309 2.04641 0
M  V30 585 C 101.439 6.86059 3.24661 0
M  V30 586 O 101.649 5.42847 3.03646 0
M  V30 587 C 102.839 7.41196 3.50753 0
M  V30 588 O 103.229 7.27073 4.86816 0
M  V30 589 C 103.719 6.5273 2.63741 0
M  V30 590 C 103.009 5.1842 2.73198 0
M  V30 591 N 103.059 4.38668 1.47808 0
M  V30 592 C 103.209 3.00789 1.58511 0
M  V30 593 O 103.299 2.50116 2.71298 0
M  V30 594 N 103.259 2.29703 0.253698 0
M  V30 595 C 103.159 2.84269 -0.750133 0
M  V30 596 N 103.209 2.06951 -1.82612 0
M  V30 597 C 103.009 4.25803 -0.889776 0
M  V30 598 C 102.959 4.98326 0.259363 0
M  V30 599 H 100.219 8.36707 2.32466 0
M  V30 600 H 99.9504 6.701 1.71105 0
M  V30 601 H 100.817 7.03638 4.13219 0
M  V30 602 H 103.472 4.59852 3.53955 0
M  V30 603 H 103.751 6.88995 1.59871 0
M  V30 604 H 104.743 6.46749 3.03687 0
M  V30 605 H 102.909 8.46908 3.20714 0
M  V30 606 H 102.837 6.06349 0.206238 0
M  V30 607 H 102.939 4.73163 -1.86796 0
M  V30 608 H 103.327 1.05099 -1.72271 0
M  V30 609 H 103.13 2.48716 -2.76361 0
M  V30 610 P 104.779 7.20834 5.23717 0
M  V30 611 O 104.999 7.7993 6.57351 0
M  V30 612 O 105.569 7.79328 4.13004 0
M  V30 613 O 105.029 5.63315 5.29344 0
M  V30 614 C 104.089 4.80193 6.01798 0
M  V30 615 C 104.819 3.64202 6.65911 0
M  V30 616 O 105.029 2.60694 5.64732 0
M  V30 617 C 106.219 3.93473 7.1943 0
M  V30 618 O 106.609 3.02071 8.21205 0
M  V30 619 C 107.099 3.73047 5.97036 0
M  V30 620 C 106.389 2.58828 5.25741 0
M  V30 621 N 106.439 2.6801 3.77422 0
M  V30 622 C 106.589 1.50443 3.07133 0
M  V30 623 O 106.679 0.419406 3.61576 0
M  V30 624 N 106.629 1.6403 1.69677 0
M  V30 625 C 106.539 2.81206 0.986255 0
M  V30 626 C 106.389 3.99158 1.80325 0
M  V30 627 C 106.339 3.89779 3.1476 0
M  V30 628 H 103.599 5.40332 6.79951 0
M  V30 629 H 103.33 4.41549 5.32301 0
M  V30 630 H 104.197 3.26331 7.47797 0
M  V30 631 H 106.852 1.6395 5.56554 0
M  V30 632 H 107.131 4.63439 5.3432 0
M  V30 633 H 108.123 3.44728 6.25838 0
M  V30 634 H 106.289 4.96652 7.57263 0
M  V30 635 H 106.218 4.80159 3.74441 0
M  V30 636 P 108.159 2.75334 8.47391 0
M  V30 637 O 108.379 2.44595 9.90239 0
M  V30 638 O 108.949 3.87732 7.92204 0
M  V30 639 O 108.409 1.4459 7.59357 0
M  V30 640 C 107.469 0.347563 7.69115 0
M  V30 641 C 108.199 -0.96767 7.52806 0
M  V30 642 O 108.409 -1.21036 6.1011 0
M  V30 643 C 109.599 -1.04544 8.13308 0
M  V30 644 O 109.989 -2.38311 8.41922 0
M  V30 645 C 110.479 -0.491279 7.02284 0
M  V30 646 C 109.769 -0.996264 5.77469 0
M  V30 647 N 109.819 -0.0501808 4.62873 0
M  V30 648 C 109.969 -0.588177 3.36904 0
M  V30 649 O 110.059 -1.78598 3.17173 0
M  V30 650 N 110.009 0.329694 2.33686 0
M  V30 651 C 109.919 1.6953 2.45079 0
M  V30 652 O 109.969 2.41926 1.44899 0
M  V30 653 C 109.769 2.16933 3.80505 0
M  V30 654 C 109.659 3.65373 3.97621 0
M  V30 655 C 109.719 1.30326 4.83752 0
M  V30 656 H 106.979 0.374722 8.67691 0
M  V30 657 H 106.71 0.443421 6.90177 0
M  V30 658 H 107.577 -1.75537 7.96793 0
M  V30 659 H 110.232 -1.94496 5.46629 0
M  V30 660 H 110.511 0.608651 7.04676 0
M  V30 661 H 111.503 -0.889672 7.08939 0
M  V30 662 H 109.669 -0.43308 9.04564 0
M  V30 663 H 109.598 1.68366 5.8516 0
M  V30 664 H 110.628 4.05985 4.30448 0
M  V30 665 H 108.891 3.88028 4.72875 0
M  V30 666 H 109.379 4.11381 3.01609 0
M  V30 667 H 110.115 -0.0393617 1.41345 0
M  V30 668 P 111.539 -2.75334 8.47391 0
M  V30 669 O 111.759 -3.84128 9.44797 0
M  V30 670 O 112.329 -1.51947 8.68712 0
M  V30 671 O 111.789 -3.29363 6.99321 0
M  V30 672 C 110.849 -4.24011 6.4274 0
M  V30 673 C 111.579 -5.20775 5.52155 0
M  V30 674 O 111.789 -4.56534 4.22446 0
M  V30 675 C 112.979 -5.62629 5.96531 0
M  V30 676 O 113.369 -6.87667 5.41053 0
M  V30 677 C 113.859 -4.52537 5.39283 0
M  V30 678 C 113.149 -4.20027 4.08623 0
M  V30 679 N 113.199 -2.76189 3.71603 0
M  V30 680 H 110.36 -4.797 7.24003 0
M  V30 681 H 110.09 -3.69856 5.84513 0
M  V30 682 H 110.957 -6.10356 5.41441 0
M  V30 683 P 114.919 -7.20834 5.23717 0
M  V30 684 O 115.139 -8.66274 5.38678 0
M  V30 685 O 115.709 -6.33687 6.13629 0
M  V30 686 O 115.169 -6.7751 3.72168 0
M  V30 687 C 114.229 -7.20919 2.70795 0
M  V30 688 C 114.959 -7.45864 1.40599 0
M  V30 689 O 115.169 -6.17751 0.734343 0
M  V30 690 C 116.359 -8.05906 1.51917 0
M  V30 691 O 116.749 -8.74358 0.335205 0
M  V30 692 C 117.239 -6.83093 1.70294 0
M  V30 693 C 116.529 -5.79992 0.836974 0
M  V30 694 N 116.579 -4.41864 1.38293 0
M  V30 695 C 116.499 -4.02089 2.69407 0
M  V30 696 N 116.569 -2.73403 2.85089 0
M  V30 697 C 116.719 -2.25086 1.5642 0
M  V30 698 C 116.849 -0.942887 1.04836 0
M  V30 699 N 116.859 0.150999 1.80369 0
M  V30 700 N 116.969 -0.812565 -0.28167 0
M  V30 701 C 116.959 -1.90572 -1.03784 0
M  V30 702 N 116.839 -3.167 -0.683905 0
M  V30 703 C 116.719 -3.26538 0.652815 0
M  V30 704 H 113.741 -8.13738 3.03804 0
M  V30 705 H 113.469 -6.42974 2.55559 0
M  V30 706 H 114.337 -8.12139 0.792866 0
M  V30 707 H 116.992 -5.80178 -0.160643 0
M  V30 708 H 117.272 -6.51379 2.75643 0
M  V30 709 H 118.263 -7.01832 1.3448 0
M  V30 710 H 116.429 -8.73771 2.38364 0
M  V30 711 H 116.388 -4.7189 3.52311 0
M  V30 712 H 116.769 0.0721434 2.82608 0
M  V30 713 H 116.958 1.0785 1.36544 0
M  V30 714 H 117.066 -1.73207 -2.10241 0
M  V30 715 P 118.299 -8.91 7.63812e-15 0
M  V30 716 O 118.519 -10.1726 -0.733694 0
M  V30 717 O 119.089 -8.73148 1.23936 0
M  V30 718 O 118.549 -7.66872 -0.971405 0
M  V30 719 C 117.609 -7.42309 -2.04641 0
M  V30 720 C 118.339 -6.86059 -3.24661 0
M  V30 721 O 118.549 -5.42847 -3.03646 0
M  V30 722 C 119.739 -7.41196 -3.50753 0
M  V30 723 O 120.129 -7.27073 -4.86816 0
M  V30 724 C 120.619 -6.5273 -2.63741 0
M  V30 725 C 119.909 -5.1842 -2.73198 0
M  V30 726 N 119.959 -4.38762 -1.4784 0
M  V30 727 H 117.12 -8.36803 -2.32493 0
M  V30 728 H 116.85 -6.70197 -1.71129 0
M  V30 729 H 117.717 -7.03551 -4.13168 0
M  V30 730 P 121.679 -7.20834 -5.23717 0
M  V30 731 O 121.899 -7.7993 -6.57351 0
M  V30 732 O 122.469 -7.79328 -4.13004 0
M  V30 733 O 121.929 -5.63315 -5.29344 0
M  V30 734 C 120.989 -4.80193 -6.01798 0
M  V30 735 C 121.719 -3.64202 -6.65911 0
M  V30 736 O 121.929 -2.60694 -5.64732 0
M  V30 737 C 123.119 -3.93473 -7.1943 0
M  V30 738 O 123.509 -3.02071 -8.21205 0
M  V30 739 C 123.999 -3.73047 -5.97036 0
M  V30 740 C 123.289 -2.58828 -5.25741 0
M  V30 741 N 123.339 -2.6801 -3.77422 0
M  V30 742 C 123.489 -1.50443 -3.07133 0
M  V30 743 O 123.579 -0.419406 -3.61576 0
M  V30 744 N 123.529 -1.6403 -1.69677 0
M  V30 745 C 123.439 -2.81206 -0.986255 0
M  V30 746 O 123.489 -2.80892 0.249754 0
M  V30 747 C 123.289 -3.99158 -1.80325 0
M  V30 748 C 123.179 -5.29309 -1.06921 0
M  V30 749 C 123.239 -3.89779 -3.1476 0
M  V30 750 H 120.499 -5.40332 -6.79951 0
M  V30 751 H 120.23 -4.41549 -5.32301 0
M  V30 752 H 121.097 -3.26331 -7.47797 0
M  V30 753 H 123.752 -1.6395 -5.56554 0
M  V30 754 H 124.031 -4.63439 -5.3432 0
M  V30 755 H 125.023 -3.44728 -6.25838 0
M  V30 756 H 123.189 -4.96652 -7.57263 0
M  V30 757 H 123.118 -4.80159 -3.74441 0
M  V30 758 H 124.148 -5.81459 -1.09608 0
M  V30 759 H 122.411 -5.9187 -1.54487 0
M  V30 760 H 122.899 -5.10095 -0.0220288 0
M  V30 761 H 123.635 -0.798962 -1.16664 0
M  V30 762 P 125.059 -2.75334 -8.47391 0
M  V30 763 O 125.279 -2.44571 -9.90142 0
M  V30 764 O 125.849 -3.87688 -7.92115 0
M  V30 765 O 125.309 -1.4459 -7.59357 0
M  V30 766 C 124.369 -0.347608 -7.69215 0
M  V30 767 C 125.099 0.96767 -7.52806 0
M  V30 768 O 125.309 1.21036 -6.1011 0
M  V30 769 C 126.499 1.04544 -8.13308 0
M  V30 770 O 126.889 2.38311 -8.41922 0
M  V30 771 C 127.379 0.491279 -7.02284 0
M  V30 772 C 126.669 0.996264 -5.77469 0
M  V30 773 N 126.719 0.0501916 -4.62973 0
M  V30 774 H 123.88 -0.374722 -8.67691 0
M  V30 775 H 123.61 -0.443485 -6.90277 0
M  V30 776 H 124.477 1.75537 -7.96793 0
M  V30 777 P 128.439 2.75334 -8.47391 0
M  V30 778 O 128.659 3.84128 -9.44797 0
M  V30 779 O 129.229 1.51947 -8.68712 0
M  V30 780 O 128.689 3.29363 -6.99321 0
M  V30 781 C 127.749 4.24011 -6.4274 0
M  V30 782 C 128.479 5.20775 -5.52155 0
M  V30 783 O 128.689 4.56534 -4.22446 0
M  V30 784 C 129.879 5.62629 -5.96531 0
M  V30 785 O 130.269 6.87667 -5.41053 0
M  V30 786 C 130.759 4.52537 -5.39283 0
M  V30 787 C 130.049 4.20027 -4.08623 0
M  V30 788 N 130.099 2.76189 -3.71603 0
M  V30 789 H 127.26 4.797 -7.24003 0
M  V30 790 H 126.99 3.69856 -5.84513 0
M  V30 791 H 127.857 6.10356 -5.41441 0
M  V30 792 P 131.819 7.20834 -5.23717 0
M  V30 793 O 132.039 8.66189 -5.38625 0
M  V30 794 O 132.609 6.33615 -6.1356 0
M  V30 795 O 132.069 6.7751 -3.72168 0
M  V30 796 C 131.129 7.20732 -2.70725 0
M  V30 797 C 131.859 7.45864 -1.40599 0
M  V30 798 O 132.069 6.17651 -0.734225 0
M  V30 799 C 133.259 8.05808 -1.51899 0
M  V30 800 O 133.649 8.74358 -0.335205 0
M  V30 801 C 134.139 6.83093 -1.70294 0
M  V30 802 C 133.429 5.79992 -0.836974 0
M  V30 803 N 133.479 4.41769 -1.38263 0
M  V30 804 C 133.629 3.38591 -0.481702 0
M  V30 805 O 133.719 3.56839 0.718452 0
M  V30 806 N 133.669 2.1206 -1.03569 0
M  V30 807 C 133.579 1.80696 -2.36966 0
M  V30 808 O 133.629 0.630473 -2.74862 0
M  V30 809 C 133.429 2.94845 -3.23898 0
M  V30 810 C 133.319 2.65253 -4.70362 0
M  V30 811 C 133.379 4.19803 -2.73435 0
M  V30 812 H 130.639 8.13644 -3.0377 0
M  V30 813 H 130.37 6.42695 -2.55448 0
M  V30 814 H 131.237 8.12039 -0.792769 0
M  V30 815 H 133.892 5.79978 0.160587 0
M  V30 816 H 134.171 6.51379 -2.75643 0
M  V30 817 H 135.163 7.01734 -1.34462 0
M  V30 818 H 133.329 8.73674 -2.38337 0
M  V30 819 H 133.258 5.04492 -3.4095 0
M  V30 820 H 134.288 2.83924 -5.1913 0
M  V30 821 H 132.551 3.29824 -5.15163 0
M  V30 822 H 133.039 1.59723 -4.84449 0
M  V30 823 H 133.775 1.35644 -0.399345 0
M  V30 824 P 135.199 8.91 -8.72928e-15 0
M  V30 825 O 135.419 10.1726 0.733694 0
M  V30 826 O 135.989 8.73148 -1.23936 0
M  V30 827 O 135.449 7.66872 0.971405 0
M  V30 828 C 134.509 7.42309 2.04641 0
M  V30 829 C 135.239 6.86059 3.24661 0
M  V30 830 O 135.449 5.42847 3.03646 0
M  V30 831 C 136.639 7.41196 3.50753 0
M  V30 832 O 137.029 7.27073 4.86816 0
M  V30 833 C 137.519 6.5273 2.63741 0
M  V30 834 C 136.809 5.1842 2.73198 0
M  V30 835 N 136.859 4.38762 1.4784 0
M  V30 836 H 134.02 8.36803 2.32493 0
M  V30 837 H 133.75 6.70197 1.71129 0
M  V30 838 H 134.617 7.03551 4.13168 0
M  V30 839 P 138.579 7.20834 5.23717 0
M  V30 840 O 138.799 7.79853 6.57286 0
M  V30 841 O 139.369 7.79239 4.12957 0
M  V30 842 O 138.829 5.63315 5.29344 0
M  V30 843 C 137.889 4.80255 6.01876 0
M  V30 844 C 138.619 3.64202 6.65911 0
M  V30 845 O 138.829 2.60694 5.64732 0
M  V30 846 C 140.019 3.93473 7.1943 0
M  V30 847 O 140.409 3.02071 8.21205 0
M  V30 848 C 140.899 3.73047 5.97036 0
M  V30 849 C 140.189 2.58828 5.25741 0
M  V30 850 N 140.239 2.68068 3.77503 0
M  V30 851 H 137.4 5.40332 6.79951 0
M  V30 852 H 137.13 4.41613 5.32378 0
M  V30 853 H 137.997 3.26331 7.47797 0
M  V30 854 P 141.959 2.75334 8.47391 0
M  V30 855 O 142.179 2.44619 9.90336 0
M  V30 856 O 142.749 3.87776 7.92294 0
M  V30 857 O 142.209 1.4459 7.59357 0
M  V30 858 C 141.269 0.347653 7.69315 0
M  V30 859 C 141.999 -0.96767 7.52806 0
M  V30 860 O 142.209 -1.21055 6.10208 0
M  V30 861 C 143.399 -1.04557 8.13408 0
M  V30 862 O 143.789 -2.38311 8.41922 0
M  V30 863 C 144.279 -0.491279 7.02284 0
M  V30 864 C 143.569 -0.996264 5.77469 0
M  V30 865 N 143.619 -0.0501916 4.62973 0
M  V30 866 C 143.539 1.31969 4.65661 0
M  V30 867 N 143.609 1.86649 3.48119 0
M  V30 868 C 143.759 0.792089 2.62406 0
M  V30 869 C 143.889 0.705684 1.2207 0
M  V30 870 N 143.899 1.76207 0.413762 0
M  V30 871 N 144.009 -0.518981 0.685754 0
M  V30 872 C 143.999 -1.57595 1.49174 0
M  V30 873 N 143.879 -1.62909 2.80066 0
M  V30 874 C 143.759 -0.388195 3.3073 0
M  V30 875 H 140.781 0.374765 8.67791 0
M  V30 876 H 140.509 0.443613 6.90476 0
M  V30 877 H 141.377 -1.75559 7.96891 0
M  V30 878 H 144.032 -1.94563 5.46818 0
M  V30 879 H 144.312 0.608651 7.04676 0
M  V30 880 H 145.303 -0.889796 7.09039 0
M  V30 881 H 143.469 -0.433128 9.04664 0
M  V30 882 H 143.428 1.89246 5.57664 0
M  V30 883 H 143.809 2.71005 0.804694 0
M  V30 884 H 143.998 1.63189 -0.603768 0
M  V30 885 H 144.106 -2.53475 0.997614 0
M  V30 886 P 145.339 -2.75334 8.47391 0
M  V30 887 O 145.559 -3.84128 9.44797 0
M  V30 888 O 146.129 -1.51947 8.68712 0
M  V30 889 O 145.589 -3.29363 6.99321 0
M  V30 890 C 144.649 -4.24011 6.4274 0
M  V30 891 C 145.379 -5.20775 5.52155 0
M  V30 892 O 145.589 -4.56534 4.22446 0
M  V30 893 C 146.779 -5.62629 5.96531 0
M  V30 894 O 147.169 -6.87667 5.41053 0
M  V30 895 C 147.659 -4.52537 5.39283 0
M  V30 896 C 146.949 -4.20027 4.08623 0
M  V30 897 N 146.999 -2.76189 3.71603 0
M  V30 898 H 144.16 -4.797 7.24003 0
M  V30 899 H 143.89 -3.69856 5.84513 0
M  V30 900 H 144.757 -6.10356 5.41441 0
M  V30 901 P 148.719 -7.20834 5.23717 0
M  V30 902 O 148.939 -8.66104 5.38572 0
M  V30 903 O 149.509 -6.33544 6.1349 0
M  V30 904 O 148.969 -6.7751 3.72168 0
M  V30 905 C 148.029 -7.20825 2.7076 0
M  V30 906 C 148.759 -7.45864 1.40599 0
M  V30 907 O 148.969 -6.17651 0.734225 0
M  V30 908 C 150.159 -8.05808 1.51899 0
M  V30 909 O 150.549 -8.74358 0.335205 0
M  V30 910 C 151.039 -6.83093 1.70294 0
M  V30 911 C 150.329 -5.79992 0.836974 0
M  V30 912 N 150.379 -4.41864 1.38293 0
M  V30 913 H 147.54 -8.13644 3.0377 0
M  V30 914 H 147.27 -6.42788 2.55485 0
M  V30 915 H 148.137 -8.12039 0.792769 0
M  V30 916 P 152.099 -8.91 9.82044e-15 0
M  V30 917 O 152.319 -10.1726 -0.733694 0
M  V30 918 O 152.889 -8.73148 1.23936 0
M  V30 919 O 152.349 -7.66872 -0.971405 0
M  V30 920 C 151.409 -7.42309 -2.04641 0
M  V30 921 C 152.139 -6.86059 -3.24661 0
M  V30 922 O 152.349 -5.42847 -3.03646 0
M  V30 923 C 153.539 -7.41196 -3.50753 0
M  V30 924 O 153.929 -7.27073 -4.86816 0
M  V30 925 C 154.419 -6.5273 -2.63741 0
M  V30 926 C 153.709 -5.1842 -2.73198 0
M  V30 927 N 153.759 -4.38762 -1.4784 0
M  V30 928 H 150.92 -8.36803 -2.32493 0
M  V30 929 H 150.65 -6.70197 -1.71129 0
M  V30 930 H 151.517 -7.03551 -4.13168 0
M  V30 931 P 155.479 -7.20834 -5.23717 0
M  V30 932 O 155.699 -7.79853 -6.57286 0
M  V30 933 O 156.269 -7.79239 -4.12957 0
M  V30 934 O 155.729 -5.63315 -5.29344 0
M  V30 935 C 154.789 -4.80255 -6.01876 0
M  V30 936 C 155.519 -3.64202 -6.65911 0
M  V30 937 O 155.729 -2.60694 -5.64732 0
M  V30 938 C 156.919 -3.93473 -7.1943 0
M  V30 939 O 157.309 -3.02071 -8.21205 0
M  V30 940 C 157.799 -3.73047 -5.97036 0
M  V30 941 C 157.089 -2.58828 -5.25741 0
M  V30 942 N 157.139 -2.68068 -3.77503 0
M  V30 943 H 154.3 -5.40332 -6.79951 0
M  V30 944 H 154.03 -4.41613 -5.32378 0
M  V30 945 H 154.897 -3.26331 -7.47797 0
M  V30 946 P 158.859 -2.75334 -8.47391 0
M  V30 947 O 159.079 -2.44571 -9.90142 0
M  V30 948 O 159.649 -3.87688 -7.92115 0
M  V30 949 O 159.109 -1.4459 -7.59357 0
M  V30 950 C 158.169 -0.347608 -7.69215 0
M  V30 951 C 158.899 0.96767 -7.52806 0
M  V30 952 O 159.109 1.21036 -6.1011 0
M  V30 953 C 160.299 1.04544 -8.13308 0
M  V30 954 O 160.689 2.38311 -8.41922 0
M  V30 955 C 161.179 0.491279 -7.02284 0
M  V30 956 C 160.469 0.996264 -5.77469 0
M  V30 957 N 160.519 0.0501916 -4.62973 0
M  V30 958 H 157.68 -0.374722 -8.67691 0
M  V30 959 H 157.41 -0.443485 -6.90277 0
M  V30 960 H 158.277 1.75537 -7.96793 0
M  V30 961 P 162.239 2.75334 -8.47391 0
M  V30 962 O 162.459 3.84128 -9.44797 0
M  V30 963 O 163.029 1.51947 -8.68712 0
M  V30 964 O 162.489 3.29363 -6.99321 0
M  V30 965 C 161.549 4.24011 -6.4274 0
M  V30 966 C 162.279 5.20775 -5.52155 0
M  V30 967 O 162.489 4.56534 -4.22446 0
M  V30 968 C 163.679 5.62629 -5.96531 0
M  V30 969 O 164.069 6.87667 -5.41053 0
M  V30 970 C 164.559 4.52537 -5.39283 0
M  V30 971 C 163.849 4.20027 -4.08623 0
M  V30 972 N 163.899 2.76189 -3.71603 0
M  V30 973 H 161.06 4.797 -7.24003 0
M  V30 974 H 160.79 3.69856 -5.84513 0
M  V30 975 H 161.657 6.10356 -5.41441 0
M  V30 976 P 165.619 7.20834 -5.23717 0
M  V30 977 O 165.839 8.66104 -5.38572 0
M  V30 978 O 166.409 6.33544 -6.1349 0
M  V30 979 O 165.869 6.7751 -3.72168 0
M  V30 980 C 164.929 7.20825 -2.7076 0
M  V30 981 C 165.659 7.45864 -1.40599 0
M  V30 982 O 165.869 6.17651 -0.734225 0
M  V30 983 C 167.059 8.05808 -1.51899 0
M  V30 984 O 167.449 8.74358 -0.335205 0
M  V30 985 C 167.939 6.83093 -1.70294 0
M  V30 986 C 167.229 5.79992 -0.836974 0
M  V30 987 N 167.279 4.41864 -1.38293 0
M  V30 988 H 164.44 8.13644 -3.0377 0
M  V30 989 H 164.17 6.42788 -2.55485 0
M  V30 990 H 165.037 8.12039 -0.792769 0
M  V30 991 P 168.999 8.91 -1.09116e-14 0
M  V30 992 O 169.219 10.1746 0.733838 0
M  V30 993 O 169.789 8.73346 -1.23964 0
M  V30 994 O 169.249 7.66872 0.971405 0
M  V30 995 C 168.309 7.42405 2.04668 0
M  V30 996 C 169.039 6.86059 3.24661 0
M  V30 997 O 169.249 5.42934 3.03695 0
M  V30 998 C 170.439 7.41287 3.50796 0
M  V30 999 O 170.829 7.27073 4.86816 0
M  V30 1000 C 171.319 6.5273 2.63741 0
M  V30 1001 C 170.609 5.1842 2.73198 0
M  V30 1002 N 170.659 4.38762 1.4784 0
M  V30 1003 C 170.579 4.83651 0.183876 0
M  V30 1004 N 170.649 3.88759 -0.699393 0
M  V30 1005 C 170.799 2.7404 0.0575568 0
M  V30 1006 C 170.929 1.37902 -0.293928 0
M  V30 1007 N 170.939 0.938021 -1.54797 0
M  V30 1008 N 171.049 0.491817 0.70549 0
M  V30 1009 C 171.039 0.931735 1.95979 0
M  V30 1010 N 170.919 2.16017 2.41481 0
M  V30 1011 C 170.799 3.02547 1.39121 0
M  V30 1012 H 167.821 8.36899 2.3252 0
M  V30 1013 H 167.549 6.70391 1.71179 0
M  V30 1014 H 168.417 7.03638 4.13219 0
M  V30 1015 H 171.072 4.59931 3.54016 0
M  V30 1016 H 171.352 6.88995 1.59871 0
M  V30 1017 H 172.343 6.4684 3.0373 0
M  V30 1018 H 170.509 8.47002 3.20749 0
M  V30 1019 H 170.468 5.8885 -0.0765548 0
M  V30 1020 H 170.849 1.60276 -2.32875 0
M  V30 1021 H 171.038 -0.0699355 -1.73859 0
M  V30 1022 H 171.146 0.165507 2.71897 0
M  V30 1023 P 172.379 7.20834 5.23717 0
M  V30 1024 O 172.599 7.79853 6.57286 0
M  V30 1025 O 173.169 7.79239 4.12957 0
M  V30 1026 O 172.629 5.63315 5.29344 0
M  V30 1027 C 171.689 4.80255 6.01876 0
M  V30 1028 C 172.419 3.64202 6.65911 0
M  V30 1029 O 172.629 2.60694 5.64732 0
M  V30 1030 C 173.819 3.93473 7.1943 0
M  V30 1031 O 174.209 3.02071 8.21205 0
M  V30 1032 C 174.699 3.73047 5.97036 0
M  V30 1033 C 173.989 2.58828 5.25741 0
M  V30 1034 N 174.039 2.68068 3.77503 0
M  V30 1035 H 171.2 5.40332 6.79951 0
M  V30 1036 H 170.93 4.41613 5.32378 0
M  V30 1037 H 171.797 3.26331 7.47797 0
M  V30 1038 P 175.759 2.75334 8.47391 0
M  V30 1039 O 175.979 2.44571 9.90142 0
M  V30 1040 O 176.549 3.87688 7.92115 0
M  V30 1041 O 176.009 1.4459 7.59357 0
M  V30 1042 C 175.069 0.347608 7.69215 0
M  V30 1043 C 175.799 -0.96767 7.52806 0
M  V30 1044 O 176.009 -1.21036 6.1011 0
M  V30 1045 C 177.199 -1.04544 8.13308 0
M  V30 1046 O 177.589 -2.38311 8.41922 0
M  V30 1047 C 178.079 -0.491279 7.02284 0
M  V30 1048 C 177.369 -0.996264 5.77469 0
M  V30 1049 N 177.419 -0.0501916 4.62973 0
M  V30 1050 C 177.339 1.32786 4.63244 0
M  V30 1051 N 177.419 1.86957 3.44545 0
M  V30 1052 C 177.559 0.780241 2.58481 0
M  V30 1053 C 177.689 0.738536 1.17757 0
M  V30 1054 N 177.809 -0.58337 0.711393 0
M  V30 1055 C 177.809 -1.70816 1.51017 0
M  V30 1056 N 177.939 -2.87826 0.880757 0
M  V30 1057 N 177.679 -1.67126 2.8339 0
M  V30 1058 C 177.559 -0.401421 3.30572 0
M  V30 1059 H 174.58 0.374722 8.67691 0
M  V30 1060 H 174.31 0.443485 6.90277 0
M  V30 1061 H 175.177 -1.75537 7.96793 0
M  V30 1062 P 179.139 -2.75334 8.47391 0
M  V30 1063 O 179.359 -3.84128 9.44797 0
M  V30 1064 O 179.929 -1.51947 8.68712 0
M  V30 1065 O 179.389 -3.29363 6.99321 0
M  V30 1066 C 178.449 -4.24011 6.4274 0
M  V30 1067 C 179.179 -5.20775 5.52155 0
M  V30 1068 O 179.389 -4.56534 4.22446 0
M  V30 1069 C 180.579 -5.62629 5.96531 0
M  V30 1070 O 180.969 -6.87667 5.41053 0
M  V30 1071 C 181.459 -4.52537 5.39283 0
M  V30 1072 C 180.749 -4.20027 4.08623 0
M  V30 1073 N 180.799 -2.76189 3.71603 0
M  V30 1074 H 177.96 -4.797 7.24003 0
M  V30 1075 H 177.69 -3.69856 5.84513 0
M  V30 1076 H 178.557 -6.10356 5.41441 0
M  V30 1077 P 182.519 -7.20834 5.23717 0
M  V30 1078 O 182.739 -8.66189 5.38625 0
M  V30 1079 O 183.309 -6.33615 6.1356 0
M  V30 1080 O 182.769 -6.7751 3.72168 0
M  V30 1081 C 181.829 -7.20732 2.70725 0
M  V30 1082 C 182.559 -7.45864 1.40599 0
M  V30 1083 O 182.769 -6.17651 0.734225 0
M  V30 1084 C 183.959 -8.05808 1.51899 0
M  V30 1085 O 184.349 -8.74358 0.335205 0
M  V30 1086 C 184.839 -6.83093 1.70294 0
M  V30 1087 C 184.129 -5.79992 0.836974 0
M  V30 1088 N 184.179 -4.41769 1.38263 0
M  V30 1089 C 184.329 -3.38591 0.481702 0
M  V30 1090 O 184.419 -3.56839 -0.718452 0
M  V30 1091 N 184.369 -2.1206 1.03569 0
M  V30 1092 C 184.279 -1.80696 2.36966 0
M  V30 1093 O 184.329 -0.630473 2.74862 0
M  V30 1094 C 184.129 -2.94845 3.23898 0
M  V30 1095 C 184.019 -2.65253 4.70362 0
M  V30 1096 C 184.079 -4.19803 2.73435 0
M  V30 1097 H 181.339 -8.13644 3.0377 0
M  V30 1098 H 181.07 -6.42695 2.55448 0
M  V30 1099 H 181.937 -8.12039 0.792769 0
M  V30 1100 H 184.592 -5.79978 -0.160587 0
M  V30 1101 H 184.871 -6.51379 2.75643 0
M  V30 1102 H 185.863 -7.01734 1.34462 0
M  V30 1103 H 184.029 -8.73674 2.38337 0
M  V30 1104 H 183.958 -5.04492 3.4095 0
M  V30 1105 H 184.988 -2.83924 5.1913 0
M  V30 1106 H 183.251 -3.29824 5.15163 0
M  V30 1107 H 183.739 -1.59723 4.84449 0
M  V30 1108 H 184.475 -1.35644 0.399345 0
M  V30 1109 P 185.899 -8.91 -8.29613e-14 0
M  V30 1110 O 186.119 -10.1726 -0.733694 0
M  V30 1111 O 186.689 -8.73148 1.23936 0
M  V30 1112 O 186.149 -7.66872 -0.971405 0
M  V30 1113 C 185.209 -7.42309 -2.04641 0
M  V30 1114 C 185.939 -6.86059 -3.24661 0
M  V30 1115 O 186.149 -5.42847 -3.03646 0
M  V30 1116 C 187.339 -7.41196 -3.50753 0
M  V30 1117 O 187.729 -7.27073 -4.86816 0
M  V30 1118 C 188.219 -6.5273 -2.63741 0
M  V30 1119 C 187.509 -5.1842 -2.73198 0
M  V30 1120 N 187.559 -4.38762 -1.4784 0
M  V30 1121 H 184.72 -8.36803 -2.32493 0
M  V30 1122 H 184.45 -6.70197 -1.71129 0
M  V30 1123 H 185.317 -7.03551 -4.13168 0
M  V30 1124 P 189.279 -7.20834 -5.23717 0
M  V30 1125 O 189.499 -7.79853 -6.57286 0
M  V30 1126 O 190.069 -7.79239 -4.12957 0
M  V30 1127 O 189.529 -5.63315 -5.29344 0
M  V30 1128 C 188.589 -4.80255 -6.01876 0
M  V30 1129 C 189.319 -3.64202 -6.65911 0
M  V30 1130 O 189.529 -2.60694 -5.64732 0
M  V30 1131 C 190.719 -3.93473 -7.1943 0
M  V30 1132 O 191.109 -3.02071 -8.21205 0
M  V30 1133 C 191.599 -3.73047 -5.97036 0
M  V30 1134 C 190.889 -2.58828 -5.25741 0
M  V30 1135 N 190.939 -2.68068 -3.77503 0
M  V30 1136 H 188.1 -5.40332 -6.79951 0
M  V30 1137 H 187.83 -4.41613 -5.32378 0
M  V30 1138 H 188.697 -3.26331 -7.47797 0
M  V30 1139 P 192.659 -2.75334 -8.47391 0
M  V30 1140 O 192.879 -2.44571 -9.90142 0
M  V30 1141 O 193.449 -3.87688 -7.92115 0
M  V30 1142 O 192.909 -1.4459 -7.59357 0
M  V30 1143 C 191.969 -0.347608 -7.69215 0
M  V30 1144 C 192.699 0.96767 -7.52806 0
M  V30 1145 O 192.909 1.21036 -6.1011 0
M  V30 1146 C 194.099 1.04544 -8.13308 0
M  V30 1147 O 194.489 2.38311 -8.41922 0
M  V30 1148 C 194.979 0.491279 -7.02284 0
M  V30 1149 C 194.269 0.996264 -5.77469 0
M  V30 1150 N 194.319 0.0501916 -4.62973 0
M  V30 1151 H 191.48 -0.374722 -8.67691 0
M  V30 1152 H 191.21 -0.443485 -6.90277 0
M  V30 1153 H 192.077 1.75537 -7.96793 0
M  V30 1154 P 196.039 2.75334 -8.47391 0
M  V30 1155 O 196.259 3.84128 -9.44797 0
M  V30 1156 O 196.829 1.51947 -8.68712 0
M  V30 1157 O 196.289 3.29363 -6.99321 0
M  V30 1158 C 195.349 4.24011 -6.4274 0
M  V30 1159 C 196.079 5.20775 -5.52155 0
M  V30 1160 O 196.289 4.56534 -4.22446 0
M  V30 1161 C 197.479 5.62629 -5.96531 0
M  V30 1162 O 197.869 6.87667 -5.41053 0
M  V30 1163 C 198.359 4.52537 -5.39283 0
M  V30 1164 C 197.649 4.20027 -4.08623 0
M  V30 1165 N 197.699 2.76189 -3.71603 0
M  V30 1166 H 194.86 4.797 -7.24003 0
M  V30 1167 H 194.59 3.69856 -5.84513 0
M  V30 1168 H 195.457 6.10356 -5.41441 0
M  V30 1169 P 199.419 7.20834 -5.23717 0
M  V30 1170 O 199.639 8.66189 -5.38625 0
M  V30 1171 O 200.209 6.33615 -6.1356 0
M  V30 1172 O 199.669 6.7751 -3.72168 0
M  V30 1173 C 198.729 7.20732 -2.70725 0
M  V30 1174 C 199.459 7.45864 -1.40599 0
M  V30 1175 O 199.669 6.17651 -0.734225 0
M  V30 1176 C 200.859 8.05808 -1.51899 0
M  V30 1177 O 201.249 8.74358 -0.335205 0
M  V30 1178 C 201.739 6.83093 -1.70294 0
M  V30 1179 C 201.029 5.79992 -0.836974 0
M  V30 1180 N 201.079 4.41769 -1.38263 0
M  V30 1181 C 201.229 3.38591 -0.481702 0
M  V30 1182 O 201.319 3.56839 0.718452 0
M  V30 1183 N 201.269 2.1206 -1.03569 0
M  V30 1184 C 201.179 1.80696 -2.36966 0
M  V30 1185 C 201.029 2.94845 -3.23898 0
M  V30 1186 C 200.979 4.19803 -2.73435 0
M  V30 1187 H 198.239 8.13644 -3.0377 0
M  V30 1188 H 197.97 6.42695 -2.55448 0
M  V30 1189 H 198.837 8.12039 -0.792769 0
M  V30 1190 H 201.492 5.79978 0.160587 0
M  V30 1191 H 201.771 6.51379 -2.75643 0
M  V30 1192 H 202.763 7.01734 -1.34462 0
M  V30 1193 H 200.929 8.73674 -2.38337 0
M  V30 1194 H 200.858 5.04492 -3.4095 0
M  V30 1195 P 202.799 8.91 2.40144e-13 0
M  V30 1196 O 203.019 10.1726 0.733694 0
M  V30 1197 O 203.589 8.73148 -1.23936 0
M  V30 1198 O 203.049 7.66872 0.971405 0
M  V30 1199 C 202.109 7.42309 2.04641 0
M  V30 1200 C 202.839 6.86059 3.24661 0
M  V30 1201 O 203.049 5.42847 3.03646 0
M  V30 1202 C 204.239 7.41196 3.50753 0
M  V30 1203 O 204.629 7.27073 4.86816 0
M  V30 1204 C 205.119 6.5273 2.63741 0
M  V30 1205 C 204.409 5.1842 2.73198 0
M  V30 1206 N 204.459 4.38762 1.4784 0
M  V30 1207 C 204.379 4.81605 0.168631 0
M  V30 1208 N 204.459 3.85454 -0.713363 0
M  V30 1209 C 204.599 2.6994 0.0566958 0
M  V30 1210 C 204.729 1.34815 -0.338502 0
M  V30 1211 N 204.849 0.496304 0.77465 0
M  V30 1212 C 204.849 0.908403 2.09122 0
M  V30 1213 N 204.979 -0.0517805 3.00955 0
M  V30 1214 N 204.719 2.17875 2.46519 0
M  V30 1215 C 204.599 3.01988 1.4033 0
M  V30 1216 H 201.62 8.36803 2.32493 0
M  V30 1217 H 201.35 6.70197 1.71129 0
M  V30 1218 H 202.217 7.03551 4.13168 0
M  V30 1219 P 206.179 7.20834 5.23717 0
M  V30 1220 O 206.399 7.79853 6.57286 0
M  V30 1221 O 206.969 7.79239 4.12957 0
M  V30 1222 O 206.429 5.63315 5.29344 0
M  V30 1223 C 205.489 4.80255 6.01876 0
M  V30 1224 C 206.219 3.64202 6.65911 0
M  V30 1225 O 206.429 2.60694 5.64732 0
M  V30 1226 C 207.619 3.93473 7.1943 0
M  V30 1227 O 208.009 3.02071 8.21205 0
M  V30 1228 C 208.499 3.73047 5.97036 0
M  V30 1229 C 207.789 2.58828 5.25741 0
M  V30 1230 N 207.839 2.68068 3.77503 0
M  V30 1231 H 205 5.40332 6.79951 0
M  V30 1232 H 204.73 4.41613 5.32378 0
M  V30 1233 H 205.597 3.26331 7.47797 0
M  V30 1234 P 209.559 2.75334 8.47391 0
M  V30 1235 O 209.779 2.44571 9.90142 0
M  V30 1236 O 210.349 3.87688 7.92115 0
M  V30 1237 O 209.809 1.4459 7.59357 0
M  V30 1238 C 208.869 0.347608 7.69215 0
M  V30 1239 C 209.599 -0.96767 7.52806 0
M  V30 1240 O 209.809 -1.21036 6.1011 0
M  V30 1241 C 210.999 -1.04544 8.13308 0
M  V30 1242 O 211.389 -2.38311 8.41922 0
M  V30 1243 C 211.879 -0.491279 7.02284 0
M  V30 1244 C 211.169 -0.996264 5.77469 0
M  V30 1245 N 211.219 -0.0501916 4.62973 0
M  V30 1246 H 208.38 0.374722 8.67691 0
M  V30 1247 H 208.11 0.443485 6.90277 0
M  V30 1248 H 208.977 -1.75537 7.96793 0
M  V30 1249 P 212.939 -2.75334 8.47391 0
M  V30 1250 O 213.159 -3.84128 9.44797 0
M  V30 1251 O 213.729 -1.51947 8.68712 0
M  V30 1252 O 213.189 -3.29363 6.99321 0
M  V30 1253 C 212.249 -4.24011 6.4274 0
M  V30 1254 C 212.979 -5.20775 5.52155 0
M  V30 1255 O 213.189 -4.56534 4.22446 0
M  V30 1256 C 214.379 -5.62629 5.96531 0
M  V30 1257 O 214.769 -6.87667 5.41053 0
M  V30 1258 C 215.259 -4.52537 5.39283 0
M  V30 1259 C 214.549 -4.20027 4.08623 0
M  V30 1260 N 214.599 -2.76189 3.71603 0
M  V30 1261 H 211.76 -4.797 7.24003 0
M  V30 1262 H 211.49 -3.69856 5.84513 0
M  V30 1263 H 212.357 -6.10356 5.41441 0
M  V30 1264 P 216.319 -7.20834 5.23717 0
M  V30 1265 O 216.539 -8.66104 5.38572 0
M  V30 1266 O 217.109 -6.33544 6.1349 0
M  V30 1267 O 216.569 -6.7751 3.72168 0
M  V30 1268 C 215.629 -7.20825 2.7076 0
M  V30 1269 C 216.359 -7.45864 1.40599 0
M  V30 1270 O 216.569 -6.17651 0.734225 0
M  V30 1271 C 217.759 -8.05808 1.51899 0
M  V30 1272 O 218.149 -8.74358 0.335205 0
M  V30 1273 C 218.639 -6.83093 1.70294 0
M  V30 1274 C 217.929 -5.79992 0.836974 0
M  V30 1275 N 217.979 -4.41864 1.38293 0
M  V30 1276 H 215.14 -8.13644 3.0377 0
M  V30 1277 H 214.87 -6.42788 2.55485 0
M  V30 1278 H 215.737 -8.12039 0.792769 0
M  V30 1279 P 219.699 -8.91 -3.97326e-13 0
M  V30 1280 O 219.919 -10.1726 -0.733694 0
M  V30 1281 O 220.489 -8.73148 1.23936 0
M  V30 1282 O 219.949 -7.66872 -0.971405 0
M  V30 1283 C 219.009 -7.42309 -2.04641 0
M  V30 1284 C 219.739 -6.86059 -3.24661 0
M  V30 1285 O 219.949 -5.42847 -3.03646 0
M  V30 1286 C 221.139 -7.41196 -3.50753 0
M  V30 1287 O 221.529 -7.27073 -4.86816 0
M  V30 1288 C 222.019 -6.5273 -2.63741 0
M  V30 1289 C 221.309 -5.1842 -2.73198 0
M  V30 1290 N 221.359 -4.38762 -1.4784 0
M  V30 1291 H 218.52 -8.36803 -2.32493 0
M  V30 1292 H 218.25 -6.70197 -1.71129 0
M  V30 1293 H 219.117 -7.03551 -4.13168 0
M  V30 1294 P 223.079 -7.20834 -5.23717 0
M  V30 1295 O 223.299 -7.7993 -6.57351 0
M  V30 1296 O 223.869 -7.79328 -4.13004 0
M  V30 1297 O 223.329 -5.63315 -5.29344 0
M  V30 1298 C 222.389 -4.80193 -6.01798 0
M  V30 1299 C 223.119 -3.64202 -6.65911 0
M  V30 1300 O 223.329 -2.60694 -5.64732 0
M  V30 1301 C 224.519 -3.93473 -7.1943 0
M  V30 1302 O 224.909 -3.02071 -8.21205 0
M  V30 1303 C 225.399 -3.73047 -5.97036 0
M  V30 1304 C 224.689 -2.58828 -5.25741 0
M  V30 1305 N 224.739 -2.6801 -3.77422 0
M  V30 1306 C 224.889 -1.50443 -3.07133 0
M  V30 1307 O 224.979 -0.419406 -3.61576 0
M  V30 1308 N 224.929 -1.6403 -1.69677 0
M  V30 1309 C 224.839 -2.81206 -0.986255 0
M  V30 1310 C 224.689 -3.99158 -1.80325 0
M  V30 1311 C 224.639 -3.89779 -3.1476 0
M  V30 1312 H 221.899 -5.40332 -6.79951 0
M  V30 1313 H 221.63 -4.41549 -5.32301 0
M  V30 1314 H 222.497 -3.26331 -7.47797 0
M  V30 1315 H 225.152 -1.6395 -5.56554 0
M  V30 1316 H 225.431 -4.63439 -5.3432 0
M  V30 1317 H 226.423 -3.44728 -6.25838 0
M  V30 1318 H 224.589 -4.96652 -7.57263 0
M  V30 1319 H 224.518 -4.80159 -3.74441 0
M  V30 1320 P 226.459 -2.75334 -8.47391 0
M  V30 1321 O 226.679 -2.44571 -9.90142 0
M  V30 1322 O 227.249 -3.87688 -7.92115 0
M  V30 1323 O 226.709 -1.4459 -7.59357 0
M  V30 1324 C 225.769 -0.347608 -7.69215 0
M  V30 1325 C 226.499 0.96767 -7.52806 0
M  V30 1326 O 226.709 1.21036 -6.1011 0
M  V30 1327 C 227.899 1.04544 -8.13308 0
M  V30 1328 O 228.289 2.38311 -8.41922 0
M  V30 1329 C 228.779 0.491279 -7.02284 0
M  V30 1330 C 228.069 0.996264 -5.77469 0
M  V30 1331 N 228.119 0.0501916 -4.62973 0
M  V30 1332 H 225.28 -0.374722 -8.67691 0
M  V30 1333 H 225.01 -0.443485 -6.90277 0
M  V30 1334 H 225.877 1.75537 -7.96793 0
M  V30 1335 P 229.839 2.75334 -8.47391 0
M  V30 1336 O 230.059 3.84128 -9.44797 0
M  V30 1337 O 230.629 1.51947 -8.68712 0
M  V30 1338 O 230.089 3.29363 -6.99321 0
M  V30 1339 C 229.149 4.24011 -6.4274 0
M  V30 1340 C 229.879 5.20775 -5.52155 0
M  V30 1341 O 230.089 4.56534 -4.22446 0
M  V30 1342 C 231.279 5.62629 -5.96531 0
M  V30 1343 O 231.669 6.87667 -5.41053 0
M  V30 1344 C 232.159 4.52537 -5.39283 0
M  V30 1345 C 231.449 4.20027 -4.08623 0
M  V30 1346 N 231.499 2.76189 -3.71603 0
M  V30 1347 H 228.66 4.797 -7.24003 0
M  V30 1348 H 228.39 3.69856 -5.84513 0
M  V30 1349 H 229.257 6.10356 -5.41441 0
M  V30 1350 P 233.219 7.20834 -5.23717 0
M  V30 1351 O 233.439 8.66274 -5.38678 0
M  V30 1352 O 234.009 6.33687 -6.13629 0
M  V30 1353 O 233.469 6.7751 -3.72168 0
M  V30 1354 C 232.529 7.20919 -2.70795 0
M  V30 1355 C 233.259 7.45864 -1.40599 0
M  V30 1356 O 233.469 6.17751 -0.734343 0
M  V30 1357 C 234.659 8.05906 -1.51917 0
M  V30 1358 O 235.049 8.74358 -0.335205 0
M  V30 1359 C 235.539 6.83093 -1.70294 0
M  V30 1360 C 234.829 5.79992 -0.836974 0
M  V30 1361 N 234.879 4.41864 -1.38293 0
M  V30 1362 H 232.041 8.13738 -3.03804 0
M  V30 1363 H 231.769 6.42974 -2.55559 0
M  V30 1364 H 232.637 8.12139 -0.792866 0
M  V30 1365 H 235.292 5.80178 0.160643 0
M  V30 1366 H 235.572 6.51379 -2.75643 0
M  V30 1367 H 236.563 7.01832 -1.3448 0
M  V30 1368 H 234.729 8.73771 -2.38364 0
M  V30 1369 P 236.599 8.91 5.54508e-13 0
M  V30 1370 O 236.819 10.1726 0.733694 0
M  V30 1371 O 237.389 8.73148 -1.23936 0
M  V30 1372 O 236.849 7.66872 0.971405 0
M  V30 1373 C 235.909 7.42309 2.04641 0
M  V30 1374 C 236.639 6.86059 3.24661 0
M  V30 1375 O 236.849 5.42847 3.03646 0
M  V30 1376 C 238.039 7.41196 3.50753 0
M  V30 1377 O 238.429 7.27073 4.86816 0
M  V30 1378 C 238.919 6.5273 2.63741 0
M  V30 1379 C 238.209 5.1842 2.73198 0
M  V30 1380 N 238.259 4.38762 1.4784 0
M  V30 1381 H 235.42 8.36803 2.32493 0
M  V30 1382 H 235.15 6.70197 1.71129 0
M  V30 1383 H 236.017 7.03551 4.13168 0
M  V30 1384 P 239.979 7.20834 5.23717 0
M  V30 1385 O 240.199 7.7993 6.57351 0
M  V30 1386 O 240.769 7.79328 4.13004 0
M  V30 1387 O 240.229 5.63315 5.29344 0
M  V30 1388 C 239.289 4.80193 6.01798 0
M  V30 1389 C 240.019 3.64202 6.65911 0
M  V30 1390 O 240.229 2.60694 5.64732 0
M  V30 1391 C 241.419 3.93473 7.1943 0
M  V30 1392 O 241.809 3.02071 8.21205 0
M  V30 1393 C 242.299 3.73047 5.97036 0
M  V30 1394 C 241.589 2.58828 5.25741 0
M  V30 1395 N 241.639 2.6801 3.77422 0
M  V30 1396 C 241.789 1.50443 3.07133 0
M  V30 1397 O 241.879 0.419406 3.61576 0
M  V30 1398 N 241.829 1.6403 1.69677 0
M  V30 1399 C 241.739 2.81206 0.986255 0
M  V30 1400 O 241.789 2.80892 -0.249754 0
M  V30 1401 C 241.589 3.99158 1.80325 0
M  V30 1402 C 241.479 5.29309 1.06921 0
M  V30 1403 C 241.539 3.89779 3.1476 0
M  V30 1404 H 238.799 5.40332 6.79951 0
M  V30 1405 H 238.53 4.41549 5.32301 0
M  V30 1406 H 239.397 3.26331 7.47797 0
M  V30 1407 H 242.052 1.6395 5.56554 0
M  V30 1408 H 242.331 4.63439 5.3432 0
M  V30 1409 H 243.323 3.44728 6.25838 0
M  V30 1410 H 241.489 4.96652 7.57263 0
M  V30 1411 H 241.418 4.80159 3.74441 0
M  V30 1412 H 242.448 5.81459 1.09608 0
M  V30 1413 H 240.711 5.9187 1.54487 0
M  V30 1414 H 241.199 5.10095 0.0220288 0
M  V30 1415 H 241.935 0.798962 1.16664 0
M  V30 1416 P 243.359 2.75334 8.47391 0
M  V30 1417 O 243.579 2.44571 9.90142 0
M  V30 1418 O 244.149 3.87688 7.92115 0
M  V30 1419 O 243.609 1.4459 7.59357 0
M  V30 1420 C 242.669 0.347608 7.69215 0
M  V30 1421 C 243.399 -0.96767 7.52806 0
M  V30 1422 O 243.609 -1.21036 6.1011 0
M  V30 1423 C 244.799 -1.04544 8.13308 0
M  V30 1424 O 245.189 -2.38311 8.41922 0
M  V30 1425 C 245.679 -0.491279 7.02284 0
M  V30 1426 C 244.969 -0.996264 5.77469 0
M  V30 1427 N 245.019 -0.0501916 4.62973 0
M  V30 1428 H 242.18 0.374722 8.67691 0
M  V30 1429 H 241.91 0.443485 6.90277 0
M  V30 1430 H 242.777 -1.75537 7.96793 0
M  V30 1431 P 246.739 -2.75334 8.47391 0
M  V30 1432 O 246.959 -3.84128 9.44797 0
M  V30 1433 O 247.529 -1.51947 8.68712 0
M  V30 1434 O 246.989 -3.29363 6.99321 0
M  V30 1435 C 246.049 -4.24011 6.4274 0
M  V30 1436 C 246.779 -5.20775 5.52155 0
M  V30 1437 O 246.989 -4.56534 4.22446 0
M  V30 1438 C 248.179 -5.62629 5.96531 0
M  V30 1439 O 248.569 -6.87667 5.41053 0
M  V30 1440 C 249.059 -4.52537 5.39283 0
M  V30 1441 C 248.349 -4.20027 4.08623 0
M  V30 1442 N 248.399 -2.76189 3.71603 0
M  V30 1443 H 245.56 -4.797 7.24003 0
M  V30 1444 H 245.29 -3.69856 5.84513 0
M  V30 1445 H 246.157 -6.10356 5.41441 0
M  V30 1446 P 250.119 -7.20834 5.23717 0
M  V30 1447 O 250.339 -8.66104 5.38572 0
M  V30 1448 O 250.909 -6.33544 6.1349 0
M  V30 1449 O 250.369 -6.7751 3.72168 0
M  V30 1450 C 249.429 -7.20825 2.7076 0
M  V30 1451 C 250.159 -7.45864 1.40599 0
M  V30 1452 O 250.369 -6.17651 0.734225 0
M  V30 1453 C 251.559 -8.05808 1.51899 0
M  V30 1454 O 251.949 -8.74358 0.335205 0
M  V30 1455 C 252.439 -6.83093 1.70294 0
M  V30 1456 C 251.729 -5.79992 0.836974 0
M  V30 1457 N 251.779 -4.41864 1.38293 0
M  V30 1458 H 248.94 -8.13644 3.0377 0
M  V30 1459 H 248.67 -6.42788 2.55485 0
M  V30 1460 H 249.537 -8.12039 0.792769 0
M  V30 1461 P 253.498 -8.91 -7.1169e-13 0
M  V30 1462 O 253.718 -10.1726 -0.733694 0
M  V30 1463 O 254.288 -8.73148 1.23936 0
M  V30 1464 O 253.748 -7.66872 -0.971405 0
M  V30 1465 C 252.808 -7.42309 -2.04641 0
M  V30 1466 C 253.538 -6.86059 -3.24661 0
M  V30 1467 O 253.748 -5.42847 -3.03646 0
M  V30 1468 C 254.938 -7.41196 -3.50753 0
M  V30 1469 O 255.328 -7.27073 -4.86816 0
M  V30 1470 C 255.818 -6.5273 -2.63741 0
M  V30 1471 C 255.108 -5.1842 -2.73198 0
M  V30 1472 N 255.158 -4.38762 -1.4784 0
M  V30 1473 H 252.319 -8.36803 -2.32493 0
M  V30 1474 H 252.049 -6.70197 -1.71129 0
M  V30 1475 H 252.916 -7.03551 -4.13168 0
M  V30 1476 P 256.878 -7.20834 -5.23717 0
M  V30 1477 O 257.098 -7.79853 -6.57286 0
M  V30 1478 O 257.668 -7.79239 -4.12957 0
M  V30 1479 O 257.128 -5.63315 -5.29344 0
M  V30 1480 C 256.188 -4.80255 -6.01876 0
M  V30 1481 C 256.918 -3.64202 -6.65911 0
M  V30 1482 O 257.128 -2.60694 -5.64732 0
M  V30 1483 C 258.318 -3.93473 -7.1943 0
M  V30 1484 O 258.708 -3.02071 -8.21205 0
M  V30 1485 C 259.198 -3.73047 -5.97036 0
M  V30 1486 C 258.488 -2.58828 -5.25741 0
M  V30 1487 N 258.538 -2.68068 -3.77503 0
M  V30 1488 H 255.699 -5.40332 -6.79951 0
M  V30 1489 H 255.429 -4.41613 -5.32378 0
M  V30 1490 H 256.296 -3.26331 -7.47797 0
M  V30 1491 P 260.258 -2.75334 -8.47391 0
M  V30 1492 O 260.478 -2.44571 -9.90142 0
M  V30 1493 O 261.048 -3.87688 -7.92115 0
M  V30 1494 O 260.508 -1.4459 -7.59357 0
M  V30 1495 C 259.568 -0.347608 -7.69215 0
M  V30 1496 C 260.298 0.96767 -7.52806 0
M  V30 1497 O 260.508 1.21036 -6.1011 0
M  V30 1498 C 261.698 1.04544 -8.13308 0
M  V30 1499 O 262.088 2.38311 -8.41922 0
M  V30 1500 C 262.578 0.491279 -7.02284 0
M  V30 1501 C 261.868 0.996264 -5.77469 0
M  V30 1502 N 261.918 0.0501916 -4.62973 0
M  V30 1503 C 261.838 -1.32786 -4.63244 0
M  V30 1504 N 261.918 -1.86957 -3.44545 0
M  V30 1505 C 262.058 -0.780241 -2.58481 0
M  V30 1506 C 262.188 -0.738536 -1.17757 0
M  V30 1507 O 262.208 -1.66794 -0.372349 0
M  V30 1508 N 262.308 0.58337 -0.711393 0
M  V30 1509 C 262.308 1.70816 -1.51017 0
M  V30 1510 N 262.438 2.87826 -0.880757 0
M  V30 1511 N 262.178 1.67126 -2.8339 0
M  V30 1512 C 262.058 0.401421 -3.30572 0
M  V30 1513 H 259.079 -0.374722 -8.67691 0
M  V30 1514 H 258.809 -0.443485 -6.90277 0
M  V30 1515 H 259.676 1.75537 -7.96793 0
M  V30 1516 H 262.331 1.95076 -5.46529 0
M  V30 1517 H 262.61 -0.608565 -7.04577 0
M  V30 1518 H 263.602 0.889672 -7.08939 0
M  V30 1519 H 261.768 0.43308 -9.04564 0
M  V30 1520 H 261.719 -1.91249 -5.54442 0
M  V30 1521 H 262.401 0.718054 0.275244 0
M  V30 1522 H 262.438 3.75721 -1.41832 0
M  V30 1523 H 262.539 2.90436 0.145468 0
M  V30 1524 P 263.638 2.75334 -8.47391 0
M  V30 1525 O 263.858 3.84128 -9.44797 0
M  V30 1526 O 264.428 1.51947 -8.68712 0
M  V30 1527 O 263.888 3.29363 -6.99321 0
M  V30 1528 C 262.948 4.24011 -6.4274 0
M  V30 1529 C 263.678 5.20775 -5.52155 0
M  V30 1530 O 263.888 4.56534 -4.22446 0
M  V30 1531 C 265.078 5.62629 -5.96531 0
M  V30 1532 O 265.468 6.87667 -5.41053 0
M  V30 1533 C 265.958 4.52537 -5.39283 0
M  V30 1534 C 265.248 4.20027 -4.08623 0
M  V30 1535 N 265.298 2.76189 -3.71603 0
M  V30 1536 C 265.218 1.64862 -4.52822 0
M  V30 1537 N 265.298 0.512671 -3.88633 0
M  V30 1538 C 265.438 0.888083 -2.54977 0
M  V30 1539 C 265.568 0.094668 -1.38677 0
M  V30 1540 O 265.588 -1.13053 -1.28163 0
M  V30 1541 N 265.688 0.890102 -0.232633 0
M  V30 1542 C 265.688 2.26958 -0.21772 0
M  V30 1543 N 265.818 2.84626 0.97925 0
M  V30 1544 N 265.558 3.0178 -1.31033 0
M  V30 1545 C 265.438 2.26781 -2.43843 0
M  V30 1546 H 262.459 4.797 -7.24003 0
M  V30 1547 H 262.189 3.69856 -5.84513 0
M  V30 1548 H 263.056 6.10356 -5.41441 0
M  V30 1549 H 265.711 4.79061 -3.27488 0
M  V30 1550 H 265.99 3.64906 -6.05785 0
M  V30 1551 H 266.982 4.8868 -5.2125 0
M  V30 1552 H 265.148 5.66726 -7.06352 0
M  V30 1553 H 265.099 1.71169 -5.60966 0
M  V30 1554 H 265.781 0.419134 0.644739 0
M  V30 1555 H 265.818 3.87332 1.06098 0
M  V30 1556 H 265.919 2.26417 1.82483 0
M  V30 1557 P 267.018 7.20834 -5.23717 0
M  V30 1558 O 267.238 8.66104 -5.38572 0
M  V30 1559 O 267.808 6.33544 -6.1349 0
M  V30 1560 O 267.268 6.7751 -3.72168 0
M  V30 1561 C 266.328 7.20825 -2.7076 0
M  V30 1562 C 267.058 7.45864 -1.40599 0
M  V30 1563 O 267.268 6.17651 -0.734225 0
M  V30 1564 C 268.458 8.05808 -1.51899 0
M  V30 1565 O 268.848 8.74358 -0.335205 0
M  V30 1566 C 269.338 6.83093 -1.70294 0
M  V30 1567 C 268.628 5.79992 -0.836974 0
M  V30 1568 N 268.678 4.41864 -1.38293 0
M  V30 1569 H 265.839 8.13644 -3.0377 0
M  V30 1570 H 265.569 6.42788 -2.55485 0
M  V30 1571 H 266.436 8.12039 -0.792769 0
M  V30 1572 P 270.398 8.91 8.68872e-13 0
M  V30 1573 O 270.618 10.1736 0.733766 0
M  V30 1574 O 271.188 8.73247 -1.2395 0
M  V30 1575 O 270.648 7.66872 0.971405 0
M  V30 1576 C 269.708 7.42212 2.04614 0
M  V30 1577 C 270.438 6.86059 3.24661 0
M  V30 1578 O 270.648 5.42847 3.03646 0
M  V30 1579 C 271.838 7.41196 3.50753 0
M  V30 1580 O 272.228 7.27073 4.86816 0
M  V30 1581 C 272.718 6.5273 2.63741 0
M  V30 1582 C 272.008 5.1842 2.73198 0
M  V30 1583 N 272.058 4.38668 1.47808 0
M  V30 1584 C 272.208 3.02239 1.60048 0
M  V30 1585 O 272.298 2.46459 2.67869 0
M  V30 1586 N 272.248 2.32436 0.408571 0
M  V30 1587 C 272.158 2.85471 -0.854993 0
M  V30 1588 O 272.208 2.12566 -1.8531 0
M  V30 1589 C 272.008 4.28918 -0.887335 0
M  V30 1590 C 271.898 4.91066 -2.24619 0
M  V30 1591 C 271.958 5.00349 0.255399 0
M  V30 1592 H 269.218 8.36803 2.32493 0
M  V30 1593 H 268.949 6.701 1.71105 0
M  V30 1594 H 269.816 7.03551 4.13168 0
M  V30 1595 H 272.471 4.59773 3.53894 0
M  V30 1596 H 272.75 6.88995 1.59871 0
M  V30 1597 H 273.742 6.46749 3.03687 0
M  V30 1598 H 271.908 8.46908 3.20714 0
M  V30 1599 H 271.837 6.08548 0.206986 0
M  V30 1600 H 272.867 5.34836 -2.53099 0
M  V30 1601 H 271.13 5.69638 -2.2291 0
M  V30 1602 H 271.618 4.13971 -2.98044 0
M  V30 1603 H 272.354 1.33211 0.474216 0
M  V30 1604 P 273.778 7.20834 5.23717 0
M  V30 1605 O 273.998 7.79853 6.57286 0
M  V30 1606 O 274.568 7.79239 4.12957 0
M  V30 1607 O 274.028 5.63315 5.29344 0
M  V30 1608 C 273.088 4.80255 6.01876 0
M  V30 1609 C 273.818 3.64202 6.65911 0
M  V30 1610 O 274.028 2.60694 5.64732 0
M  V30 1611 C 275.218 3.93473 7.1943 0
M  V30 1612 O 275.608 3.02071 8.21205 0
M  V30 1613 C 276.098 3.73047 5.97036 0
M  V30 1614 C 275.388 2.58828 5.25741 0
M  V30 1615 N 275.438 2.68068 3.77503 0
M  V30 1616 H 272.599 5.40332 6.79951 0
M  V30 1617 H 272.329 4.41613 5.32378 0
M  V30 1618 H 273.196 3.26331 7.47797 0
M  V30 1619 P 277.158 2.75334 8.47391 0
M  V30 1620 O 277.378 2.44595 9.90239 0
M  V30 1621 O 277.948 3.87732 7.92204 0
M  V30 1622 O 277.408 1.4459 7.59357 0
M  V30 1623 C 276.468 0.347563 7.69115 0
M  V30 1624 C 277.198 -0.96767 7.52806 0
M  V30 1625 O 277.408 -1.21036 6.1011 0
M  V30 1626 C 278.598 -1.04544 8.13308 0
M  V30 1627 O 278.988 -2.38311 8.41922 0
M  V30 1628 C 279.478 -0.491279 7.02284 0
M  V30 1629 C 278.768 -0.996264 5.77469 0
M  V30 1630 N 278.818 -0.0501808 4.62873 0
M  V30 1631 C 278.968 -0.588177 3.36904 0
M  V30 1632 O 279.058 -1.78598 3.17173 0
M  V30 1633 N 279.008 0.329694 2.33686 0
M  V30 1634 C 278.918 1.6953 2.45079 0
M  V30 1635 O 278.968 2.41926 1.44899 0
M  V30 1636 C 278.768 2.16933 3.80505 0
M  V30 1637 C 278.658 3.65373 3.97621 0
M  V30 1638 C 278.718 1.30326 4.83752 0
M  V30 1639 H 275.978 0.374722 8.67691 0
M  V30 1640 H 275.709 0.443421 6.90177 0
M  V30 1641 H 276.576 -1.75537 7.96793 0
M  V30 1642 H 279.231 -1.94496 5.46629 0
M  V30 1643 H 279.51 0.608651 7.04676 0
M  V30 1644 H 280.502 -0.889672 7.08939 0
M  V30 1645 H 278.668 -0.43308 9.04564 0
M  V30 1646 H 278.597 1.68366 5.8516 0
M  V30 1647 H 279.627 4.05985 4.30448 0
M  V30 1648 H 277.89 3.88028 4.72875 0
M  V30 1649 H 278.378 4.11381 3.01609 0
M  V30 1650 H 279.114 -0.0393617 1.41345 0
M  V30 1651 P 280.538 -2.75334 8.47391 0
M  V30 1652 O 280.758 -3.84128 9.44797 0
M  V30 1653 O 281.328 -1.51947 8.68712 0
M  V30 1654 O 280.788 -3.29363 6.99321 0
M  V30 1655 C 279.848 -4.24011 6.4274 0
M  V30 1656 C 280.578 -5.20775 5.52155 0
M  V30 1657 O 280.788 -4.56534 4.22446 0
M  V30 1658 C 281.978 -5.62629 5.96531 0
M  V30 1659 O 282.368 -6.87667 5.41053 0
M  V30 1660 C 282.858 -4.52537 5.39283 0
M  V30 1661 C 282.148 -4.20027 4.08623 0
M  V30 1662 N 282.198 -2.76189 3.71603 0
M  V30 1663 C 282.118 -1.64862 4.52822 0
M  V30 1664 N 282.198 -0.512671 3.88633 0
M  V30 1665 C 282.338 -0.888083 2.54977 0
M  V30 1666 C 282.468 -0.094668 1.38677 0
M  V30 1667 O 282.488 1.13053 1.28163 0
M  V30 1668 N 282.588 -0.890102 0.232633 0
M  V30 1669 C 282.588 -2.26958 0.21772 0
M  V30 1670 N 282.718 -2.84626 -0.97925 0
M  V30 1671 N 282.458 -3.0178 1.31033 0
M  V30 1672 C 282.338 -2.26781 2.43843 0
M  V30 1673 H 279.359 -4.797 7.24003 0
M  V30 1674 H 279.089 -3.69856 5.84513 0
M  V30 1675 H 279.956 -6.10356 5.41441 0
M  V30 1676 H 282.611 -4.79061 3.27488 0
M  V30 1677 H 282.89 -3.64906 6.05785 0
M  V30 1678 H 283.882 -4.8868 5.2125 0
M  V30 1679 H 282.048 -5.66726 7.06352 0
M  V30 1680 H 281.999 -1.71169 5.60966 0
M  V30 1681 H 282.681 -0.419134 -0.644739 0
M  V30 1682 H 282.718 -3.87332 -1.06098 0
M  V30 1683 H 282.819 -2.26417 -1.82483 0
M  V30 1684 P 283.918 -7.20834 5.23717 0
M  V30 1685 O 284.138 -8.66104 5.38572 0
M  V30 1686 O 284.708 -6.33544 6.1349 0
M  V30 1687 O 284.168 -6.7751 3.72168 0
M  V30 1688 C 283.228 -7.20825 2.7076 0
M  V30 1689 C 283.958 -7.45864 1.40599 0
M  V30 1690 O 284.168 -6.17651 0.734225 0
M  V30 1691 C 285.358 -8.05808 1.51899 0
M  V30 1692 O 285.748 -8.74358 0.335205 0
M  V30 1693 C 286.238 -6.83093 1.70294 0
M  V30 1694 C 285.528 -5.79992 0.836974 0
M  V30 1695 N 285.578 -4.41864 1.38293 0
M  V30 1696 H 282.739 -8.13644 3.0377 0
M  V30 1697 H 282.469 -6.42788 2.55485 0
M  V30 1698 H 283.336 -8.12039 0.792769 0
M  V30 1699 P 287.298 -8.91 -1.02605e-12 0
M  V30 1700 O 287.518 -10.1726 -0.733694 0
M  V30 1701 O 288.088 -8.73148 1.23936 0
M  V30 1702 O 287.548 -7.66872 -0.971405 0
M  V30 1703 C 286.608 -7.42309 -2.04641 0
M  V30 1704 C 287.338 -6.86059 -3.24661 0
M  V30 1705 O 287.548 -5.42847 -3.03646 0
M  V30 1706 C 288.738 -7.41196 -3.50753 0
M  V30 1707 O 289.128 -7.27073 -4.86816 0
M  V30 1708 C 289.618 -6.5273 -2.63741 0
M  V30 1709 C 288.908 -5.1842 -2.73198 0
M  V30 1710 N 288.958 -4.38762 -1.4784 0
M  V30 1711 C 288.878 -4.81605 -0.168631 0
M  V30 1712 N 288.958 -3.85454 0.713363 0
M  V30 1713 C 289.098 -2.6994 -0.0566958 0
M  V30 1714 C 289.228 -1.34815 0.338502 0
M  V30 1715 O 289.248 -0.869548 1.47125 0
M  V30 1716 N 289.348 -0.496304 -0.77465 0
M  V30 1717 C 289.348 -0.908403 -2.09122 0
M  V30 1718 N 289.478 0.0517805 -3.00955 0
M  V30 1719 N 289.218 -2.17875 -2.46519 0
M  V30 1720 C 289.098 -3.01988 -1.4033 0
M  V30 1721 H 286.119 -8.36803 -2.32493 0
M  V30 1722 H 285.849 -6.70197 -1.71129 0
M  V30 1723 H 286.716 -7.03551 -4.13168 0
M  V30 1724 H 289.371 -4.59498 -3.54415 0
M  V30 1725 H 289.65 -6.88898 -1.59848 0
M  V30 1726 H 290.642 -6.46749 -3.03687 0
M  V30 1727 H 288.808 -8.46908 -3.20714 0
M  V30 1728 H 288.759 -5.86405 0.105564 0
M  V30 1729 H 289.441 0.483664 -0.597855 0
M  V30 1730 H 289.478 -0.187865 -4.0116 0
M  V30 1731 H 289.579 1.03585 -2.71726 0
M  V30 1732 P 290.678 -7.20834 -5.23717 0
M  V30 1733 O 290.898 -7.79853 -6.57286 0
M  V30 1734 O 291.468 -7.79239 -4.12957 0
M  V30 1735 O 290.928 -5.63315 -5.29344 0
M  V30 1736 C 289.988 -4.80255 -6.01876 0
M  V30 1737 C 290.718 -3.64202 -6.65911 0
M  V30 1738 O 290.928 -2.60694 -5.64732 0
M  V30 1739 C 292.118 -3.93473 -7.1943 0
M  V30 1740 O 292.508 -3.02071 -8.21205 0
M  V30 1741 C 292.998 -3.73047 -5.97036 0
M  V30 1742 C 292.288 -2.58828 -5.25741 0
M  V30 1743 N 292.338 -2.68068 -3.77503 0
M  V30 1744 H 289.499 -5.40332 -6.79951 0
M  V30 1745 H 289.229 -4.41613 -5.32378 0
M  V30 1746 H 290.096 -3.26331 -7.47797 0
M  V30 1747 P 294.058 -2.75334 -8.47391 0
M  V30 1748 O 294.278 -2.44571 -9.90142 0
M  V30 1749 O 294.848 -3.87688 -7.92115 0
M  V30 1750 O 294.308 -1.4459 -7.59357 0
M  V30 1751 C 293.368 -0.347608 -7.69215 0
M  V30 1752 C 294.098 0.96767 -7.52806 0
M  V30 1753 O 294.308 1.21036 -6.1011 0
M  V30 1754 C 295.498 1.04544 -8.13308 0
M  V30 1755 O 295.888 2.38311 -8.41922 0
M  V30 1756 C 296.378 0.491279 -7.02284 0
M  V30 1757 C 295.668 0.996264 -5.77469 0
M  V30 1758 N 295.718 0.0501916 -4.62973 0
M  V30 1759 H 292.879 -0.374722 -8.67691 0
M  V30 1760 H 292.609 -0.443485 -6.90277 0
M  V30 1761 H 293.476 1.75537 -7.96793 0
M  V30 1762 P 297.438 2.75334 -8.47391 0
M  V30 1763 O 297.658 3.84128 -9.44797 0
M  V30 1764 O 298.228 1.51947 -8.68712 0
M  V30 1765 O 297.688 3.29363 -6.99321 0
M  V30 1766 C 296.748 4.24011 -6.4274 0
M  V30 1767 C 297.478 5.20775 -5.52155 0
M  V30 1768 O 297.688 4.56534 -4.22446 0
M  V30 1769 C 298.878 5.62629 -5.96531 0
M  V30 1770 O 299.268 6.87667 -5.41053 0
M  V30 1771 C 299.758 4.52537 -5.39283 0
M  V30 1772 C 299.048 4.20027 -4.08623 0
M  V30 1773 N 299.098 2.76189 -3.71603 0
M  V30 1774 H 296.259 4.797 -7.24003 0
M  V30 1775 H 295.989 3.69856 -5.84513 0
M  V30 1776 H 296.856 6.10356 -5.41441 0
M  V30 1777 P 300.818 7.20834 -5.23717 0
M  V30 1778 O 301.038 8.66104 -5.38572 0
M  V30 1779 O 301.608 6.33544 -6.1349 0
M  V30 1780 O 301.068 6.7751 -3.72168 0
M  V30 1781 C 300.128 7.20825 -2.7076 0
M  V30 1782 C 300.858 7.45864 -1.40599 0
M  V30 1783 O 301.068 6.17651 -0.734225 0
M  V30 1784 C 302.258 8.05808 -1.51899 0
M  V30 1785 O 302.648 8.74358 -0.335205 0
M  V30 1786 C 303.138 6.83093 -1.70294 0
M  V30 1787 C 302.428 5.79992 -0.836974 0
M  V30 1788 N 302.478 4.41864 -1.38293 0
M  V30 1789 H 299.639 8.13644 -3.0377 0
M  V30 1790 H 299.369 6.42788 -2.55485 0
M  V30 1791 H 300.236 8.12039 -0.792769 0
M  V30 1792 P 304.198 8.91 1.18324e-12 0
M  V30 1793 O 304.418 10.1726 0.733694 0
M  V30 1794 O 304.988 8.73148 -1.23936 0
M  V30 1795 O 304.448 7.66872 0.971405 0
M  V30 1796 C 303.508 7.42309 2.04641 0
M  V30 1797 C 304.238 6.86059 3.24661 0
M  V30 1798 O 304.448 5.42847 3.03646 0
M  V30 1799 C 305.638 7.41196 3.50753 0
M  V30 1800 O 306.028 7.27073 4.86816 0
M  V30 1801 C 306.518 6.5273 2.63741 0
M  V30 1802 C 305.808 5.1842 2.73198 0
M  V30 1803 N 305.858 4.38762 1.4784 0
M  V30 1804 H 303.019 8.36803 2.32493 0
M  V30 1805 H 302.749 6.70197 1.71129 0
M  V30 1806 H 303.616 7.03551 4.13168 0
M  V30 1807 P 307.578 7.20834 5.23717 0
M  V30 1808 O 307.798 7.79853 6.57286 0
M  V30 1809 O 308.368 7.79239 4.12957 0
M  V30 1810 O 307.828 5.63315 5.29344 0
M  V30 1811 C 306.888 4.80255 6.01876 0
M  V30 1812 C 307.618 3.64202 6.65911 0
M  V30 1813 O 307.828 2.60694 5.64732 0
M  V30 1814 C 309.018 3.93473 7.1943 0
M  V30 1815 O 309.408 3.02071 8.21205 0
M  V30 1816 C 309.898 3.73047 5.97036 0
M  V30 1817 C 309.188 2.58828 5.25741 0
M  V30 1818 N 309.238 2.68068 3.77503 0
M  V30 1819 H 306.399 5.40332 6.79951 0
M  V30 1820 H 306.129 4.41613 5.32378 0
M  V30 1821 H 306.996 3.26331 7.47797 0
M  V30 1822 P 310.958 2.75334 8.47391 0
M  V30 1823 O 311.178 2.44571 9.90142 0
M  V30 1824 O 311.748 3.87688 7.92115 0
M  V30 1825 O 311.208 1.4459 7.59357 0
M  V30 1826 C 310.268 0.347608 7.69215 0
M  V30 1827 C 310.998 -0.96767 7.52806 0
M  V30 1828 O 311.208 -1.21036 6.1011 0
M  V30 1829 C 312.398 -1.04544 8.13308 0
M  V30 1830 O 312.788 -2.38311 8.41922 0
M  V30 1831 C 313.278 -0.491279 7.02284 0
M  V30 1832 C 312.568 -0.996264 5.77469 0
M  V30 1833 N 312.618 -0.0501916 4.62973 0
M  V30 1834 H 309.779 0.374722 8.67691 0
M  V30 1835 H 309.509 0.443485 6.90277 0
M  V30 1836 H 310.376 -1.75537 7.96793 0
M  V30 1837 P 314.338 -2.75334 8.47391 0
M  V30 1838 O 314.558 -3.84128 9.44797 0
M  V30 1839 O 315.128 -1.51947 8.68712 0
M  V30 1840 O 314.588 -3.29363 6.99321 0
M  V30 1841 C 313.648 -4.24011 6.4274 0
M  V30 1842 C 314.378 -5.20775 5.52155 0
M  V30 1843 O 314.588 -4.56534 4.22446 0
M  V30 1844 C 315.778 -5.62629 5.96531 0
M  V30 1845 O 316.168 -6.87667 5.41053 0
M  V30 1846 C 316.658 -4.52537 5.39283 0
M  V30 1847 C 315.948 -4.20027 4.08623 0
M  V30 1848 N 315.998 -2.76189 3.71603 0
M  V30 1849 H 313.159 -4.797 7.24003 0
M  V30 1850 H 312.889 -3.69856 5.84513 0
M  V30 1851 H 313.756 -6.10356 5.41441 0
M  V30 1852 P 317.718 -7.20834 5.23717 0
M  V30 1853 O 317.938 -8.66104 5.38572 0
M  V30 1854 O 318.508 -6.33544 6.1349 0
M  V30 1855 O 317.968 -6.7751 3.72168 0
M  V30 1856 C 317.028 -7.20825 2.7076 0
M  V30 1857 C 317.758 -7.45864 1.40599 0
M  V30 1858 O 317.968 -6.17651 0.734225 0
M  V30 1859 C 319.158 -8.05808 1.51899 0
M  V30 1860 O 319.548 -8.74358 0.335205 0
M  V30 1861 C 320.038 -6.83093 1.70294 0
M  V30 1862 C 319.328 -5.79992 0.836974 0
M  V30 1863 N 319.378 -4.41864 1.38293 0
M  V30 1864 H 316.539 -8.13644 3.0377 0
M  V30 1865 H 316.269 -6.42788 2.55485 0
M  V30 1866 H 317.136 -8.12039 0.792769 0
M  V30 1867 P 321.098 -8.91 -1.34042e-12 0
M  V30 1868 O 321.318 -10.1726 -0.733694 0
M  V30 1869 O 321.888 -8.73148 1.23936 0
M  V30 1870 O 321.348 -7.66872 -0.971405 0
M  V30 1871 C 320.408 -7.42309 -2.04641 0
M  V30 1872 C 321.138 -6.86059 -3.24661 0
M  V30 1873 O 321.348 -5.42847 -3.03646 0
M  V30 1874 C 322.538 -7.41196 -3.50753 0
M  V30 1875 O 322.928 -7.27073 -4.86816 0
M  V30 1876 C 323.418 -6.5273 -2.63741 0
M  V30 1877 C 322.708 -5.1842 -2.73198 0
M  V30 1878 N 322.758 -4.38762 -1.4784 0
M  V30 1879 C 322.678 -4.81605 -0.168631 0
M  V30 1880 N 322.758 -3.85454 0.713363 0
M  V30 1881 C 322.898 -2.6994 -0.0566958 0
M  V30 1882 C 323.028 -1.34815 0.338502 0
M  V30 1883 N 323.148 -0.496304 -0.77465 0
M  V30 1884 C 323.148 -0.908403 -2.09122 0
M  V30 1885 N 323.278 0.0517805 -3.00955 0
M  V30 1886 N 323.018 -2.17875 -2.46519 0
M  V30 1887 C 322.898 -3.01988 -1.4033 0
M  V30 1888 H 319.919 -8.36803 -2.32493 0
M  V30 1889 H 319.649 -6.70197 -1.71129 0
M  V30 1890 H 320.516 -7.03551 -4.13168 0
M  V30 1891 P 324.478 -7.20834 -5.23717 0
M  V30 1892 O 324.698 -7.80006 -6.57415 0
M  V30 1893 O 325.268 -7.79416 -4.13051 0
M  V30 1894 O 324.728 -5.63315 -5.29344 0
M  V30 1895 C 323.788 -4.80318 -6.01954 0
M  V30 1896 C 324.518 -3.64202 -6.65911 0
M  V30 1897 O 324.728 -2.60736 -5.64823 0
M  V30 1898 C 325.918 -3.93521 -7.19518 0
M  V30 1899 O 326.308 -3.02071 -8.21205 0
M  V30 1900 C 326.798 -3.73047 -5.97036 0
M  V30 1901 C 326.088 -2.58828 -5.25741 0
M  V30 1902 N 326.138 -2.68068 -3.77503 0
M  V30 1903 H 323.3 -5.40394 -6.8003 0
M  V30 1904 H 323.028 -4.41741 -5.32532 0
M  V30 1905 H 323.896 -3.26371 -7.47889 0
M  V30 1906 H 326.551 -1.64007 -5.56746 0
M  V30 1907 H 326.831 -4.63439 -5.3432 0
M  V30 1908 H 327.822 -3.44776 -6.25925 0
M  V30 1909 H 325.988 -4.96707 -7.57347 0
M  V30 1910 P 327.858 -2.75334 -8.47391 0
M  V30 1911 O 328.078 -2.44571 -9.90142 0
M  V30 1912 O 328.648 -3.87688 -7.92115 0
M  V30 1913 O 328.108 -1.4459 -7.59357 0
M  V30 1914 C 327.168 -0.347608 -7.69215 0
M  V30 1915 C 327.898 0.96767 -7.52806 0
M  V30 1916 O 328.108 1.21036 -6.1011 0
M  V30 1917 C 329.298 1.04544 -8.13308 0
M  V30 1918 O 329.688 2.38311 -8.41922 0
M  V30 1919 C 330.178 0.491279 -7.02284 0
M  V30 1920 C 329.468 0.996264 -5.77469 0
M  V30 1921 N 329.518 0.0501916 -4.62973 0
M  V30 1922 H 326.679 -0.374722 -8.67691 0
M  V30 1923 H 326.409 -0.443485 -6.90277 0
M  V30 1924 H 327.276 1.75537 -7.96793 0
M  V30 1925 P 331.238 2.75334 -8.47391 0
M  V30 1926 O 331.458 3.84128 -9.44797 0
M  V30 1927 O 332.028 1.51947 -8.68712 0
M  V30 1928 O 331.488 3.29363 -6.99321 0
M  V30 1929 C 330.548 4.24011 -6.4274 0
M  V30 1930 C 331.278 5.20775 -5.52155 0
M  V30 1931 O 331.488 4.56534 -4.22446 0
M  V30 1932 C 332.678 5.62629 -5.96531 0
M  V30 1933 O 333.068 6.87667 -5.41053 0
M  V30 1934 C 333.558 4.52537 -5.39283 0
M  V30 1935 C 332.848 4.20027 -4.08623 0
M  V30 1936 N 332.898 2.76189 -3.71603 0
M  V30 1937 H 330.059 4.797 -7.24003 0
M  V30 1938 H 329.789 3.69856 -5.84513 0
M  V30 1939 H 330.656 6.10356 -5.41441 0
M  V30 1940 P 334.618 7.20834 -5.23717 0
M  V30 1941 O 334.838 8.66104 -5.38572 0
M  V30 1942 O 335.408 6.33544 -6.1349 0
M  V30 1943 O 334.868 6.7751 -3.72168 0
M  V30 1944 C 333.928 7.20825 -2.7076 0
M  V30 1945 C 334.658 7.45864 -1.40599 0
M  V30 1946 O 334.868 6.17651 -0.734225 0
M  V30 1947 C 336.058 8.05808 -1.51899 0
M  V30 1948 O 336.448 8.74358 -0.335205 0
M  V30 1949 C 336.938 6.83093 -1.70294 0
M  V30 1950 C 336.228 5.79992 -0.836974 0
M  V30 1951 N 336.278 4.41864 -1.38293 0
M  V30 1952 H 333.439 8.13644 -3.0377 0
M  V30 1953 H 333.169 6.42788 -2.55485 0
M  V30 1954 H 334.036 8.12039 -0.792769 0
M  V30 1955 P 337.998 8.91 1.4976e-12 0
M  V30 1956 O 338.218 10.1726 0.733694 0
M  V30 1957 O 338.788 8.73148 -1.23936 0
M  V30 1958 O 338.248 7.66872 0.971405 0
M  V30 1959 C 337.308 7.42309 2.04641 0
M  V30 1960 C 338.038 6.86059 3.24661 0
M  V30 1961 O 338.248 5.42847 3.03646 0
M  V30 1962 C 339.438 7.41196 3.50753 0
M  V30 1963 O 339.828 7.27073 4.86816 0
M  V30 1964 C 340.318 6.5273 2.63741 0
M  V30 1965 C 339.608 5.1842 2.73198 0
M  V30 1966 N 339.658 4.38762 1.4784 0
M  V30 1967 H 336.819 8.36803 2.32493 0
M  V30 1968 H 336.549 6.70197 1.71129 0
M  V30 1969 H 337.416 7.03551 4.13168 0
M  V30 1970 P 341.378 7.20834 5.23717 0
M  V30 1971 O 341.598 7.80006 6.57415 0
M  V30 1972 O 342.168 7.79416 4.13051 0
M  V30 1973 O 341.628 5.63315 5.29344 0
M  V30 1974 C 340.688 4.80318 6.01954 0
M  V30 1975 C 341.418 3.64202 6.65911 0
M  V30 1976 O 341.628 2.60736 5.64823 0
M  V30 1977 C 342.818 3.93521 7.19518 0
M  V30 1978 O 343.208 3.02071 8.21205 0
M  V30 1979 C 343.698 3.73047 5.97036 0
M  V30 1980 C 342.988 2.58828 5.25741 0
M  V30 1981 N 343.038 2.68068 3.77503 0
M  V30 1982 H 340.2 5.40394 6.8003 0
M  V30 1983 H 339.928 4.41741 5.32532 0
M  V30 1984 H 340.796 3.26371 7.47889 0
M  V30 1985 H 343.451 1.64007 5.56746 0
M  V30 1986 H 343.731 4.63439 5.3432 0
M  V30 1987 H 344.722 3.44776 6.25925 0
M  V30 1988 H 342.888 4.96707 7.57347 0
M  V30 1989 P 344.758 2.75334 8.47391 0
M  V30 1990 O 344.978 2.44571 9.90142 0
M  V30 1991 O 345.548 3.87688 7.92115 0
M  V30 1992 O 345.008 1.4459 7.59357 0
M  V30 1993 C 344.068 0.347608 7.69215 0
M  V30 1994 C 344.798 -0.96767 7.52806 0
M  V30 1995 O 345.008 -1.21036 6.1011 0
M  V30 1996 C 346.198 -1.04544 8.13308 0
M  V30 1997 O 346.588 -2.38311 8.41922 0
M  V30 1998 C 347.078 -0.491279 7.02284 0
M  V30 1999 C 346.368 -0.996264 5.77469 0
M  V30 2000 N 346.418 -0.0501916 4.62973 0
M  V30 2001 H 343.579 0.374722 8.67691 0
M  V30 2002 H 343.309 0.443485 6.90277 0
M  V30 2003 H 344.176 -1.75537 7.96793 0
M  V30 2004 P 348.138 -2.75334 8.47391 0
M  V30 2005 O 348.358 -3.84204 9.44982 0
M  V30 2006 O 348.928 -1.51982 8.68909 0
M  V30 2007 O 348.388 -3.29363 6.99321 0
M  V30 2008 C 347.448 -4.24066 6.42823 0
M  V30 2009 C 348.178 -5.20775 5.52155 0
M  V30 2010 O 348.388 -4.56607 4.22514 0
M  V30 2011 C 349.578 -5.62697 5.96604 0
M  V30 2012 O 349.968 -6.87667 5.41053 0
M  V30 2013 C 350.458 -4.52537 5.39283 0
M  V30 2014 C 349.748 -4.20027 4.08623 0
M  V30 2015 N 349.798 -2.76189 3.71603 0
M  V30 2016 C 349.718 -1.66944 4.54297 0
M  V30 2017 N 349.788 -0.536169 3.91344 0
M  V30 2018 C 349.938 -0.901569 2.58849 0
M  V30 2019 C 350.068 -0.146599 1.40236 0
M  V30 2020 N 350.078 1.18234 1.37046 0
M  V30 2021 N 350.188 -0.822941 0.249738 0
M  V30 2022 C 350.178 -2.15179 0.280525 0
M  V30 2023 N 350.058 -2.96414 1.30822 0
M  V30 2024 C 349.938 -2.25804 2.44748 0
M  V30 2025 H 346.96 -4.79756 7.24086 0
M  V30 2026 H 346.688 -3.69963 5.84682 0
M  V30 2027 H 347.556 -6.10431 5.41508 0
M  V30 2028 H 350.211 -4.78816 3.28024 0
M  V30 2029 H 350.491 -3.64957 6.05871 0
M  V30 2030 H 351.482 -4.88748 5.21323 0
M  V30 2031 H 349.648 -5.66789 7.0643 0
M  V30 2032 H 349.607 -1.74684 5.62396 0
M  V30 2033 H 349.988 1.71949 2.24394 0
M  V30 2034 H 350.177 1.67511 0.470742 0
M  V30 2035 H 350.285 -2.63704 -0.6828 0
M  V30 2036 P 351.518 -7.20834 5.23717 0
M  V30 2037 O 351.738 -8.66104 5.38572 0
M  V30 2038 O 352.308 -6.33544 6.1349 0
M  V30 2039 O 351.768 -6.7751 3.72168 0
M  V30 2040 C 350.828 -7.20825 2.7076 0
M  V30 2041 C 351.558 -7.45864 1.40599 0
M  V30 2042 O 351.768 -6.17651 0.734225 0
M  V30 2043 C 352.958 -8.05808 1.51899 0
M  V30 2044 O 353.348 -8.74358 0.335205 0
M  V30 2045 C 353.838 -6.83093 1.70294 0
M  V30 2046 C 353.128 -5.79992 0.836974 0
M  V30 2047 N 353.178 -4.41864 1.38293 0
M  V30 2048 C 353.098 -3.99538 2.69438 0
M  V30 2049 N 353.178 -2.69909 2.84277 0
M  V30 2050 C 353.318 -2.21719 1.5408 0
M  V30 2051 C 353.448 -0.891712 1.06628 0
M  V30 2052 O 353.468 0.161298 1.70137 0
M  V30 2053 N 353.568 -0.856846 -0.334985 0
M  V30 2054 C 353.568 -1.9641 -1.15789 0
M  V30 2055 N 353.698 -1.72708 -2.46522 0
M  V30 2056 N 353.438 -3.21165 -0.713741 0
M  V30 2057 C 353.318 -3.26797 0.639748 0
M  V30 2058 H 350.339 -8.13644 3.0377 0
M  V30 2059 H 350.069 -6.42788 2.55485 0
M  V30 2060 H 350.936 -8.12039 0.792769 0
M  V30 2061 H 353.591 -5.80061 -0.166416 0
M  V30 2062 H 353.87 -6.51287 2.75604 0
M  V30 2063 H 354.862 -7.01734 1.34462 0
M  V30 2064 H 353.028 -8.73674 2.38337 0
M  V30 2065 H 352.979 -4.68207 3.53221 0
M  V30 2066 H 353.661 0.0398818 -0.767965 0
M  V30 2067 H 353.698 -2.50995 -3.13503 0
M  V30 2068 H 353.799 -0.759148 -2.80716 0
M  V30 2069 P 354.898 -8.91 -1.65478e-12 0
M  V30 2070 O 355.118 -10.1726 -0.733694 0
M  V30 2071 O 355.688 -8.73148 1.23936 0
M  V30 2072 O 355.148 -7.66872 -0.971405 0
M  V30 2073 C 354.208 -7.42309 -2.04641 0
M  V30 2074 C 354.938 -6.86059 -3.24661 0
M  V30 2075 O 355.148 -5.42847 -3.03646 0
M  V30 2076 C 356.338 -7.41196 -3.50753 0
M  V30 2077 O 356.728 -7.27073 -4.86816 0
M  V30 2078 C 357.218 -6.5273 -2.63741 0
M  V30 2079 C 356.508 -5.1842 -2.73198 0
M  V30 2080 N 356.558 -4.38762 -1.4784 0
M  V30 2081 C 356.478 -4.81605 -0.168631 0
M  V30 2082 N 356.558 -3.85454 0.713363 0
M  V30 2083 C 356.698 -2.6994 -0.0566958 0
M  V30 2084 C 356.828 -1.34815 0.338502 0
M  V30 2085 N 356.948 -0.496304 -0.77465 0
M  V30 2086 C 356.948 -0.908403 -2.09122 0
M  V30 2087 N 357.078 0.0517805 -3.00955 0
M  V30 2088 N 356.818 -2.17875 -2.46519 0
M  V30 2089 C 356.698 -3.01988 -1.4033 0
M  V30 2090 H 353.719 -8.36803 -2.32493 0
M  V30 2091 H 353.449 -6.70197 -1.71129 0
M  V30 2092 H 354.316 -7.03551 -4.13168 0
M  V30 2093 P 358.278 -7.20834 -5.23717 0
M  V30 2094 O 358.498 -7.79853 -6.57286 0
M  V30 2095 O 359.068 -7.79239 -4.12957 0
M  V30 2096 O 358.528 -5.63315 -5.29344 0
M  V30 2097 C 357.588 -4.80255 -6.01876 0
M  V30 2098 C 358.318 -3.64202 -6.65911 0
M  V30 2099 O 358.528 -2.60694 -5.64732 0
M  V30 2100 C 359.718 -3.93473 -7.1943 0
M  V30 2101 O 360.108 -3.02071 -8.21205 0
M  V30 2102 C 360.598 -3.73047 -5.97036 0
M  V30 2103 C 359.888 -2.58828 -5.25741 0
M  V30 2104 N 359.938 -2.68068 -3.77503 0
M  V30 2105 H 357.099 -5.40332 -6.79951 0
M  V30 2106 H 356.829 -4.41613 -5.32378 0
M  V30 2107 H 357.696 -3.26331 -7.47797 0
M  V30 2108 P 361.658 -2.75334 -8.47391 0
M  V30 2109 O 361.878 -2.44571 -9.90142 0
M  V30 2110 O 362.448 -3.87688 -7.92115 0
M  V30 2111 O 361.908 -1.4459 -7.59357 0
M  V30 2112 C 360.968 -0.347608 -7.69215 0
M  V30 2113 C 361.698 0.96767 -7.52806 0
M  V30 2114 O 361.908 1.21036 -6.1011 0
M  V30 2115 C 363.098 1.04544 -8.13308 0
M  V30 2116 O 363.488 2.38311 -8.41922 0
M  V30 2117 C 363.978 0.491279 -7.02284 0
M  V30 2118 C 363.268 0.996264 -5.77469 0
M  V30 2119 N 363.318 0.0501916 -4.62973 0
M  V30 2120 H 360.479 -0.374722 -8.67691 0
M  V30 2121 H 360.209 -0.443485 -6.90277 0
M  V30 2122 H 361.076 1.75537 -7.96793 0
M  V30 2123 P 365.038 2.75334 -8.47391 0
M  V30 2124 O 365.258 3.84166 -9.4489 0
M  V30 2125 O 365.828 1.51964 -8.6881 0
M  V30 2126 O 365.288 3.29363 -6.99321 0
M  V30 2127 C 364.348 4.23956 -6.42656 0
M  V30 2128 C 365.078 5.20775 -5.52155 0
M  V30 2129 O 365.288 4.56534 -4.22446 0
M  V30 2130 C 366.478 5.62629 -5.96531 0
M  V30 2131 O 366.868 6.87667 -5.41053 0
M  V30 2132 C 367.358 4.52537 -5.39283 0
M  V30 2133 C 366.648 4.20027 -4.08623 0
M  V30 2134 N 366.698 2.7613 -3.71522 0
M  V30 2135 C 366.848 2.45612 -2.37989 0
M  V30 2136 O 366.938 3.30919 -1.51621 0
M  V30 2137 N 366.888 1.10684 -2.08435 0
M  V30 2138 C 366.798 0.0690084 -2.9792 0
M  V30 2139 O 366.848 -1.10553 -2.59426 0
M  V30 2140 C 366.648 0.481522 -4.35345 0
M  V30 2141 C 366.538 -0.618778 -5.36443 0
M  V30 2142 C 366.598 1.78906 -4.67968 0
M  V30 2143 H 363.858 4.797 -7.24003 0
M  V30 2144 H 363.589 3.69802 -5.84429 0
M  V30 2145 H 364.456 6.10356 -5.41441 0
M  V30 2146 H 367.111 4.78651 -3.27911 0
M  V30 2147 H 367.39 3.64957 -6.05871 0
M  V30 2148 H 368.382 4.8868 -5.2125 0
M  V30 2149 H 366.548 5.66726 -7.06352 0
M  V30 2150 H 366.477 2.07737 -5.72367 0
M  V30 2151 H 367.507 -0.754375 -5.86871 0
M  V30 2152 H 365.77 -0.359721 -6.10641 0
M  V30 2153 H 366.258 -1.55533 -4.8581 0
M  V30 2154 H 366.994 0.862651 -1.12037 0
M  V30 2155 P 368.418 7.20834 -5.23717 0
M  V30 2156 O 368.638 8.66104 -5.38572 0
M  V30 2157 O 369.208 6.33544 -6.1349 0
M  V30 2158 O 368.668 6.7751 -3.72168 0
M  V30 2159 C 367.728 7.20825 -2.7076 0
M  V30 2160 C 368.458 7.45864 -1.40599 0
M  V30 2161 O 368.668 6.17651 -0.734225 0
M  V30 2162 C 369.858 8.05808 -1.51899 0
M  V30 2163 O 370.248 8.74358 -0.335205 0
M  V30 2164 C 370.738 6.83093 -1.70294 0
M  V30 2165 C 370.028 5.79992 -0.836974 0
M  V30 2166 N 370.078 4.41864 -1.38293 0
M  V30 2167 H 367.239 8.13644 -3.0377 0
M  V30 2168 H 366.969 6.42788 -2.55485 0
M  V30 2169 H 367.836 8.12039 -0.792769 0
M  V30 2170 P 371.798 8.91 1.81197e-12 0
M  V30 2171 O 372.018 10.1746 0.733838 0
M  V30 2172 O 372.588 8.73346 -1.23964 0
M  V30 2173 O 372.048 7.66872 0.971405 0
M  V30 2174 C 371.108 7.42405 2.04668 0
M  V30 2175 C 371.838 6.86059 3.24661 0
M  V30 2176 O 372.048 5.42934 3.03695 0
M  V30 2177 C 373.238 7.41287 3.50796 0
M  V30 2178 O 373.628 7.27073 4.86816 0
M  V30 2179 C 374.118 6.5273 2.63741 0
M  V30 2180 C 373.408 5.1842 2.73198 0
M  V30 2181 N 373.458 4.38762 1.4784 0
M  V30 2182 C 373.378 4.83651 0.183876 0
M  V30 2183 N 373.448 3.88759 -0.699393 0
M  V30 2184 C 373.598 2.7404 0.0575568 0
M  V30 2185 C 373.728 1.37902 -0.293928 0
M  V30 2186 N 373.738 0.938021 -1.54797 0
M  V30 2187 N 373.848 0.491817 0.70549 0
M  V30 2188 C 373.838 0.931735 1.95979 0
M  V30 2189 N 373.718 2.16017 2.41481 0
M  V30 2190 C 373.598 3.02547 1.39121 0
M  V30 2191 H 370.62 8.36899 2.3252 0
M  V30 2192 H 370.348 6.70391 1.71179 0
M  V30 2193 H 371.216 7.03638 4.13219 0
M  V30 2194 H 373.871 4.59931 3.54016 0
M  V30 2195 H 374.151 6.88995 1.59871 0
M  V30 2196 H 375.142 6.4684 3.0373 0
M  V30 2197 H 373.308 8.47002 3.20749 0
M  V30 2198 H 373.267 5.8885 -0.0765548 0
M  V30 2199 H 373.648 1.60276 -2.32875 0
M  V30 2200 H 373.837 -0.0699355 -1.73859 0
M  V30 2201 H 373.945 0.165507 2.71897 0
M  V30 2202 P 375.178 7.20834 5.23717 0
M  V30 2203 O 375.398 7.7993 6.57351 0
M  V30 2204 O 375.968 7.79328 4.13004 0
M  V30 2205 O 375.428 5.63315 5.29344 0
M  V30 2206 C 374.488 4.80255 6.01876 0
M  V30 2207 C 375.218 3.64202 6.65911 0
M  V30 2208 O 375.428 2.60694 5.64732 0
M  V30 2209 C 376.618 3.93473 7.1943 0
M  V30 2210 O 377.008 3.02071 8.21205 0
M  V30 2211 C 377.498 3.73047 5.97036 0
M  V30 2212 C 376.788 2.58828 5.25741 0
M  V30 2213 N 376.838 2.6801 3.77422 0
M  V30 2214 C 376.988 1.50173 3.05038 0
M  V30 2215 O 377.078 0.428832 3.665 0
M  V30 2216 N 377.038 1.70922 1.55541 0
M  V30 2217 C 376.938 2.7407 1.06402 0
M  V30 2218 N 376.988 2.74764 -0.260931 0
M  V30 2219 C 376.788 3.96781 1.78296 0
M  V30 2220 C 376.738 3.87909 3.13891 0
M  V30 2221 H 373.998 5.4027 6.79873 0
M  V30 2222 H 373.729 4.41549 5.32301 0
M  V30 2223 H 374.596 3.26371 7.47889 0
M  V30 2224 H 377.251 1.63978 5.5665 0
M  V30 2225 H 377.53 4.63439 5.3432 0
M  V30 2226 H 378.522 3.44728 6.25838 0
M  V30 2227 H 376.688 4.96652 7.57263 0
M  V30 2228 H 376.616 4.78425 3.73088 0
M  V30 2229 H 376.718 4.92593 1.26997 0
M  V30 2230 H 377.106 1.86285 -0.77595 0
M  V30 2231 H 376.909 3.63657 -0.773896 0
M  V30 2232 P 378.558 2.75334 8.47391 0
M  V30 2233 O 378.778 2.44571 9.90142 0
M  V30 2234 O 379.348 3.87688 7.92115 0
M  V30 2235 O 378.808 1.4459 7.59357 0
M  V30 2236 C 377.868 0.347608 7.69215 0
M  V30 2237 C 378.598 -0.96767 7.52806 0
M  V30 2238 O 378.808 -1.21036 6.1011 0
M  V30 2239 C 379.998 -1.04544 8.13308 0
M  V30 2240 O 380.388 -2.38311 8.41922 0
M  V30 2241 C 380.878 -0.491279 7.02284 0
M  V30 2242 C 380.168 -0.996264 5.77469 0
M  V30 2243 N 380.218 -0.0501916 4.62973 0
M  V30 2244 H 377.379 0.374722 8.67691 0
M  V30 2245 H 377.109 0.443485 6.90277 0
M  V30 2246 H 377.976 -1.75537 7.96793 0
M  V30 2247 P 381.938 -2.75334 8.47391 0
M  V30 2248 O 382.158 -3.84204 9.44982 0
M  V30 2249 O 382.728 -1.51982 8.68909 0
M  V30 2250 O 382.188 -3.29363 6.99321 0
M  V30 2251 C 381.248 -4.24066 6.42823 0
M  V30 2252 C 381.978 -5.20775 5.52155 0
M  V30 2253 O 382.188 -4.56607 4.22514 0
M  V30 2254 C 383.378 -5.62697 5.96604 0
M  V30 2255 O 383.768 -6.87667 5.41053 0
M  V30 2256 C 384.258 -4.52537 5.39283 0
M  V30 2257 C 383.548 -4.20027 4.08623 0
M  V30 2258 N 383.598 -2.76189 3.71603 0
M  V30 2259 H 380.76 -4.79756 7.24086 0
M  V30 2260 H 380.488 -3.69963 5.84682 0
M  V30 2261 H 381.356 -6.10431 5.41508 0
M  V30 2262 H 384.011 -4.78816 3.28024 0
M  V30 2263 H 384.291 -3.64957 6.05871 0
M  V30 2264 H 385.282 -4.88748 5.21323 0
M  V30 2265 H 383.448 -5.66789 7.0643 0
M  V30 2266 P 385.318 -7.20834 5.23717 0
M  V30 2267 O 385.538 -8.66104 5.38572 0
M  V30 2268 O 386.108 -6.33544 6.1349 0
M  V30 2269 O 385.568 -6.7751 3.72168 0
M  V30 2270 C 384.628 -7.20825 2.7076 0
M  V30 2271 C 385.358 -7.45864 1.40599 0
M  V30 2272 O 385.568 -6.17651 0.734225 0
M  V30 2273 C 386.758 -8.05808 1.51899 0
M  V30 2274 O 387.148 -8.74358 0.335205 0
M  V30 2275 C 387.638 -6.83093 1.70294 0
M  V30 2276 C 386.928 -5.79992 0.836974 0
M  V30 2277 N 386.978 -4.41864 1.38293 0
M  V30 2278 C 386.898 -3.99538 2.69438 0
M  V30 2279 N 386.978 -2.69909 2.84277 0
M  V30 2280 C 387.118 -2.21719 1.5408 0
M  V30 2281 C 387.248 -0.891712 1.06628 0
M  V30 2282 N 387.368 -0.856846 -0.334985 0
M  V30 2283 C 387.368 -1.9641 -1.15789 0
M  V30 2284 N 387.498 -1.72708 -2.46522 0
M  V30 2285 N 387.238 -3.21165 -0.713741 0
M  V30 2286 C 387.118 -3.26797 0.639748 0
M  V30 2287 H 384.139 -8.13644 3.0377 0
M  V30 2288 H 383.869 -6.42788 2.55485 0
M  V30 2289 H 384.736 -8.12039 0.792769 0
M  V30 2290 P 388.698 -8.91 -1.96915e-12 0
M  V30 2291 O 388.918 -10.1726 -0.733694 0
M  V30 2292 O 389.488 -8.73148 1.23936 0
M  V30 2293 O 388.948 -7.66872 -0.971405 0
M  V30 2294 C 388.008 -7.42309 -2.04641 0
M  V30 2295 C 388.738 -6.86059 -3.24661 0
M  V30 2296 O 388.948 -5.42847 -3.03646 0
M  V30 2297 C 390.138 -7.41196 -3.50753 0
M  V30 2298 O 390.528 -7.27073 -4.86816 0
M  V30 2299 C 391.018 -6.5273 -2.63741 0
M  V30 2300 C 390.308 -5.1842 -2.73198 0
M  V30 2301 N 390.358 -4.38762 -1.4784 0
M  V30 2302 H 387.519 -8.36803 -2.32493 0
M  V30 2303 H 387.249 -6.70197 -1.71129 0
M  V30 2304 H 388.116 -7.03551 -4.13168 0
M  V30 2305 P 392.078 -7.20834 -5.23717 0
M  V30 2306 O 392.298 -7.79853 -6.57286 0
M  V30 2307 O 392.868 -7.79239 -4.12957 0
M  V30 2308 O 392.328 -5.63315 -5.29344 0
M  V30 2309 C 391.388 -4.80255 -6.01876 0
M  V30 2310 C 392.118 -3.64202 -6.65911 0
M  V30 2311 O 392.328 -2.60694 -5.64732 0
M  V30 2312 C 393.518 -3.93473 -7.1943 0
M  V30 2313 O 393.908 -3.02071 -8.21205 0
M  V30 2314 C 394.398 -3.73047 -5.97036 0
M  V30 2315 C 393.688 -2.58828 -5.25741 0
M  V30 2316 N 393.738 -2.68068 -3.77503 0
M  V30 2317 H 390.899 -5.40332 -6.79951 0
M  V30 2318 H 390.629 -4.41613 -5.32378 0
M  V30 2319 H 391.496 -3.26331 -7.47797 0
M  V30 2320 P 395.458 -2.75334 -8.47391 0
M  V30 2321 O 395.678 -2.44571 -9.90142 0
M  V30 2322 O 396.248 -3.87688 -7.92115 0
M  V30 2323 O 395.708 -1.4459 -7.59357 0
M  V30 2324 C 394.768 -0.347608 -7.69215 0
M  V30 2325 C 395.498 0.96767 -7.52806 0
M  V30 2326 O 395.708 1.21036 -6.1011 0
M  V30 2327 C 396.898 1.04544 -8.13308 0
M  V30 2328 O 397.288 2.38311 -8.41922 0
M  V30 2329 C 397.778 0.491279 -7.02284 0
M  V30 2330 C 397.068 0.996264 -5.77469 0
M  V30 2331 N 397.118 0.0501916 -4.62973 0
M  V30 2332 H 394.279 -0.374722 -8.67691 0
M  V30 2333 H 394.009 -0.443485 -6.90277 0
M  V30 2334 H 394.876 1.75537 -7.96793 0
M  V30 2335 P 398.838 2.75334 -8.47391 0
M  V30 2336 O 399.058 3.84128 -9.44797 0
M  V30 2337 O 399.628 1.51947 -8.68712 0
M  V30 2338 O 399.088 3.29363 -6.99321 0
M  V30 2339 C 398.148 4.24011 -6.4274 0
M  V30 2340 C 398.878 5.20775 -5.52155 0
M  V30 2341 O 399.088 4.56534 -4.22446 0
M  V30 2342 C 400.278 5.62629 -5.96531 0
M  V30 2343 O 400.668 6.87667 -5.41053 0
M  V30 2344 C 401.158 4.52537 -5.39283 0
M  V30 2345 C 400.448 4.20027 -4.08623 0
M  V30 2346 N 400.498 2.76189 -3.71603 0
M  V30 2347 H 397.659 4.797 -7.24003 0
M  V30 2348 H 397.389 3.69856 -5.84513 0
M  V30 2349 H 398.256 6.10356 -5.41441 0
M  V30 2350 P 402.218 7.20834 -5.23717 0
M  V30 2351 O 402.438 8.66104 -5.38572 0
M  V30 2352 O 403.008 6.33544 -6.1349 0
M  V30 2353 O 402.468 6.7751 -3.72168 0
M  V30 2354 C 401.528 7.20825 -2.7076 0
M  V30 2355 C 402.258 7.45864 -1.40599 0
M  V30 2356 O 402.468 6.17651 -0.734225 0
M  V30 2357 C 403.658 8.05808 -1.51899 0
M  V30 2358 O 404.048 8.74358 -0.335205 0
M  V30 2359 C 404.538 6.83093 -1.70294 0
M  V30 2360 C 403.828 5.79992 -0.836974 0
M  V30 2361 N 403.878 4.41864 -1.38293 0
M  V30 2362 H 401.039 8.13644 -3.0377 0
M  V30 2363 H 400.769 6.42788 -2.55485 0
M  V30 2364 H 401.636 8.12039 -0.792769 0
M  V30 2365 P 405.598 8.91 2.12633e-12 0
M  V30 2366 O 405.818 10.1726 0.733694 0
M  V30 2367 O 406.388 8.73148 -1.23936 0
M  V30 2368 O 405.848 7.66872 0.971405 0
M  V30 2369 C 404.908 7.42309 2.04641 0
M  V30 2370 C 405.638 6.86059 3.24661 0
M  V30 2371 O 405.848 5.42847 3.03646 0
M  V30 2372 C 407.038 7.41196 3.50753 0
M  V30 2373 O 407.428 7.27073 4.86816 0
M  V30 2374 C 407.918 6.5273 2.63741 0
M  V30 2375 C 407.208 5.1842 2.73198 0
M  V30 2376 N 407.258 4.38762 1.4784 0
M  V30 2377 H 404.419 8.36803 2.32493 0
M  V30 2378 H 404.149 6.70197 1.71129 0
M  V30 2379 H 405.016 7.03551 4.13168 0
M  V30 2380 P 408.978 7.20834 5.23717 0
M  V30 2381 O 409.198 7.7993 6.57351 0
M  V30 2382 O 409.768 7.79328 4.13004 0
M  V30 2383 O 409.228 5.63315 5.29344 0
M  V30 2384 C 408.288 4.80255 6.01876 0
M  V30 2385 C 409.018 3.64202 6.65911 0
M  V30 2386 O 409.228 2.60694 5.64732 0
M  V30 2387 C 410.418 3.93473 7.1943 0
M  V30 2388 O 410.808 3.02071 8.21205 0
M  V30 2389 C 411.298 3.73047 5.97036 0
M  V30 2390 C 410.588 2.58828 5.25741 0
M  V30 2391 N 410.638 2.6801 3.77422 0
M  V30 2392 C 410.788 1.50173 3.05038 0
M  V30 2393 O 410.878 0.428832 3.665 0
M  V30 2394 N 410.838 1.70922 1.55541 0
M  V30 2395 C 410.738 2.7407 1.06402 0
M  V30 2396 N 410.788 2.74764 -0.260931 0
M  V30 2397 C 410.588 3.96781 1.78296 0
M  V30 2398 C 410.538 3.87909 3.13891 0
M  V30 2399 H 407.798 5.4027 6.79873 0
M  V30 2400 H 407.529 4.41549 5.32301 0
M  V30 2401 H 408.396 3.26371 7.47889 0
M  V30 2402 H 411.051 1.63978 5.5665 0
M  V30 2403 H 411.33 4.63439 5.3432 0
M  V30 2404 H 412.322 3.44728 6.25838 0
M  V30 2405 H 410.488 4.96652 7.57263 0
M  V30 2406 H 410.416 4.78425 3.73088 0
M  V30 2407 H 410.518 4.92593 1.26997 0
M  V30 2408 H 410.906 1.86285 -0.77595 0
M  V30 2409 H 410.709 3.63657 -0.773896 0
M  V30 2410 P 412.358 2.75334 8.47391 0
M  V30 2411 O 412.578 2.44595 9.90239 0
M  V30 2412 O 413.148 3.87732 7.92204 0
M  V30 2413 O 412.608 1.4459 7.59357 0
M  V30 2414 C 411.668 0.347608 7.69215 0
M  V30 2415 C 412.398 -0.96767 7.52806 0
M  V30 2416 O 412.608 -1.21036 6.1011 0
M  V30 2417 C 413.798 -1.04544 8.13308 0
M  V30 2418 O 414.188 -2.38311 8.41922 0
M  V30 2419 C 414.678 -0.491279 7.02284 0
M  V30 2420 C 413.968 -0.996264 5.77469 0
M  V30 2421 N 414.018 -0.0501808 4.62873 0
M  V30 2422 C 414.168 -0.578037 3.3505 0
M  V30 2423 O 414.258 -1.8073 3.21711 0
M  V30 2424 N 414.218 0.468541 2.263 0
M  V30 2425 C 414.118 1.59186 2.47176 0
M  V30 2426 N 414.168 2.37626 1.40392 0
M  V30 2427 C 413.968 2.16203 3.77467 0
M  V30 2428 C 413.918 1.29324 4.8195 0
M  V30 2429 H 411.178 0.374679 8.67591 0
M  V30 2430 H 410.909 0.443421 6.90177 0
M  V30 2431 H 411.776 -1.75559 7.96891 0
M  V30 2432 H 414.431 -1.94529 5.46723 0
M  V30 2433 H 414.71 0.608651 7.04676 0
M  V30 2434 H 415.702 -0.889672 7.08939 0
M  V30 2435 H 413.868 -0.43308 9.04564 0
M  V30 2436 H 413.796 1.67758 5.83046 0
M  V30 2437 H 413.898 3.23869 3.92281 0
M  V30 2438 H 414.286 1.96317 0.467202 0
M  V30 2439 H 414.089 3.39693 1.51142 0
M  V30 2440 P 415.738 -2.75334 8.47391 0
M  V30 2441 O 415.958 -3.84166 9.4489 0
M  V30 2442 O 416.528 -1.51964 8.6881 0
M  V30 2443 O 415.988 -3.29363 6.99321 0
M  V30 2444 C 415.048 -4.23956 6.42656 0
M  V30 2445 C 415.778 -5.20775 5.52155 0
M  V30 2446 O 415.988 -4.56534 4.22446 0
M  V30 2447 C 417.178 -5.62629 5.96531 0
M  V30 2448 O 417.568 -6.87667 5.41053 0
M  V30 2449 C 418.058 -4.52537 5.39283 0
M  V30 2450 C 417.348 -4.20027 4.08623 0
M  V30 2451 N 417.398 -2.7613 3.71522 0
M  V30 2452 C 417.548 -2.45612 2.37989 0
M  V30 2453 O 417.638 -3.30919 1.51621 0
M  V30 2454 N 417.588 -1.10684 2.08435 0
M  V30 2455 C 417.498 -0.0690084 2.9792 0
M  V30 2456 O 417.548 1.10553 2.59426 0
M  V30 2457 C 417.348 -0.481522 4.35345 0
M  V30 2458 C 417.238 0.618778 5.36443 0
M  V30 2459 C 417.298 -1.78906 4.67968 0
M  V30 2460 H 414.558 -4.797 7.24003 0
M  V30 2461 H 414.289 -3.69802 5.84429 0
M  V30 2462 H 415.156 -6.10356 5.41441 0
M  V30 2463 H 417.811 -4.78651 3.27911 0
M  V30 2464 H 418.09 -3.64957 6.05871 0
M  V30 2465 H 419.082 -4.8868 5.2125 0
M  V30 2466 H 417.248 -5.66726 7.06352 0
M  V30 2467 H 417.177 -2.07737 5.72367 0
M  V30 2468 H 418.207 0.754375 5.86871 0
M  V30 2469 H 416.47 0.359721 6.10641 0
M  V30 2470 H 416.958 1.55533 4.8581 0
M  V30 2471 H 417.694 -0.862651 1.12037 0
M  V30 2472 P 419.118 -7.20834 5.23717 0
M  V30 2473 O 419.338 -8.66189 5.38625 0
M  V30 2474 O 419.908 -6.33615 6.1356 0
M  V30 2475 O 419.368 -6.7751 3.72168 0
M  V30 2476 C 418.428 -7.20732 2.70725 0
M  V30 2477 C 419.158 -7.45864 1.40599 0
M  V30 2478 O 419.368 -6.17651 0.734225 0
M  V30 2479 C 420.558 -8.05808 1.51899 0
M  V30 2480 O 420.948 -8.74358 0.335205 0
M  V30 2481 C 421.438 -6.83093 1.70294 0
M  V30 2482 C 420.728 -5.79992 0.836974 0
M  V30 2483 N 420.778 -4.41769 1.38263 0
M  V30 2484 C 420.928 -3.38591 0.481702 0
M  V30 2485 O 421.018 -3.56839 -0.718452 0
M  V30 2486 N 420.968 -2.1206 1.03569 0
M  V30 2487 C 420.878 -1.80696 2.36966 0
M  V30 2488 O 420.928 -0.630473 2.74862 0
M  V30 2489 C 420.728 -2.94845 3.23898 0
M  V30 2490 C 420.618 -2.65253 4.70362 0
M  V30 2491 C 420.678 -4.19803 2.73435 0
M  V30 2492 H 417.938 -8.13644 3.0377 0
M  V30 2493 H 417.669 -6.42695 2.55448 0
M  V30 2494 H 418.536 -8.12039 0.792769 0
M  V30 2495 H 421.191 -5.79978 -0.160587 0
M  V30 2496 H 421.47 -6.51379 2.75643 0
M  V30 2497 H 422.462 -7.01734 1.34462 0
M  V30 2498 H 420.628 -8.73674 2.38337 0
M  V30 2499 H 420.557 -5.04492 3.4095 0
M  V30 2500 H 421.587 -2.83924 5.1913 0
M  V30 2501 H 419.85 -3.29824 5.15163 0
M  V30 2502 H 420.338 -1.59723 4.84449 0
M  V30 2503 H 421.074 -1.35644 0.399345 0
M  V30 2504 P 422.497 -8.91 -2.28351e-12 0
M  V30 2505 O 422.717 -10.1726 -0.733694 0
M  V30 2506 O 423.287 -8.73148 1.23936 0
M  V30 2507 O 422.747 -7.66872 -0.971405 0
M  V30 2508 C 421.807 -7.42309 -2.04641 0
M  V30 2509 C 422.537 -6.86059 -3.24661 0
M  V30 2510 O 422.747 -5.42847 -3.03646 0
M  V30 2511 C 423.937 -7.41196 -3.50753 0
M  V30 2512 O 424.327 -7.27073 -4.86816 0
M  V30 2513 C 424.817 -6.5273 -2.63741 0
M  V30 2514 C 424.107 -5.1842 -2.73198 0
M  V30 2515 N 424.157 -4.38762 -1.4784 0
M  V30 2516 H 421.318 -8.36803 -2.32493 0
M  V30 2517 H 421.048 -6.70197 -1.71129 0
M  V30 2518 H 421.915 -7.03551 -4.13168 0
M  V30 2519 P 425.877 -7.20834 -5.23717 0
M  V30 2520 O 426.097 -7.79853 -6.57286 0
M  V30 2521 O 426.667 -7.79239 -4.12957 0
M  V30 2522 O 426.127 -5.63315 -5.29344 0
M  V30 2523 C 425.187 -4.80255 -6.01876 0
M  V30 2524 C 425.917 -3.64202 -6.65911 0
M  V30 2525 O 426.127 -2.60694 -5.64732 0
M  V30 2526 C 427.317 -3.93473 -7.1943 0
M  V30 2527 O 427.707 -3.02071 -8.21205 0
M  V30 2528 C 428.197 -3.73047 -5.97036 0
M  V30 2529 C 427.487 -2.58828 -5.25741 0
M  V30 2530 N 427.537 -2.68068 -3.77503 0
M  V30 2531 H 424.698 -5.40332 -6.79951 0
M  V30 2532 H 424.428 -4.41613 -5.32378 0
M  V30 2533 H 425.295 -3.26331 -7.47797 0
M  V30 2534 P 429.257 -2.75334 -8.47391 0
M  V30 2535 O 429.477 -2.44571 -9.90142 0
M  V30 2536 O 430.047 -3.87688 -7.92115 0
M  V30 2537 O 429.507 -1.4459 -7.59357 0
M  V30 2538 C 428.567 -0.347608 -7.69215 0
M  V30 2539 C 429.297 0.96767 -7.52806 0
M  V30 2540 O 429.507 1.21036 -6.1011 0
M  V30 2541 C 430.697 1.04544 -8.13308 0
M  V30 2542 O 431.087 2.38311 -8.41922 0
M  V30 2543 C 431.577 0.491279 -7.02284 0
M  V30 2544 C 430.867 0.996264 -5.77469 0
M  V30 2545 N 430.917 0.0501916 -4.62973 0
M  V30 2546 H 428.078 -0.374722 -8.67691 0
M  V30 2547 H 427.808 -0.443485 -6.90277 0
M  V30 2548 H 428.675 1.75537 -7.96793 0
M  V30 2549 P 432.637 2.75334 -8.47391 0
M  V30 2550 O 432.857 3.84128 -9.44797 0
M  V30 2551 O 433.427 1.51947 -8.68712 0
M  V30 2552 O 432.887 3.29363 -6.99321 0
M  V30 2553 C 431.947 4.24011 -6.4274 0
M  V30 2554 C 432.677 5.20775 -5.52155 0
M  V30 2555 O 432.887 4.56534 -4.22446 0
M  V30 2556 C 434.077 5.62629 -5.96531 0
M  V30 2557 O 434.467 6.87667 -5.41053 0
M  V30 2558 C 434.957 4.52537 -5.39283 0
M  V30 2559 C 434.247 4.20027 -4.08623 0
M  V30 2560 N 434.297 2.76189 -3.71603 0
M  V30 2561 H 431.458 4.797 -7.24003 0
M  V30 2562 H 431.188 3.69856 -5.84513 0
M  V30 2563 H 432.055 6.10356 -5.41441 0
M  V30 2564 P 436.017 7.20834 -5.23717 0
M  V30 2565 O 436.237 8.66104 -5.38572 0
M  V30 2566 O 436.807 6.33544 -6.1349 0
M  V30 2567 O 436.267 6.7751 -3.72168 0
M  V30 2568 C 435.327 7.20825 -2.7076 0
M  V30 2569 C 436.057 7.45864 -1.40599 0
M  V30 2570 O 436.267 6.17651 -0.734225 0
M  V30 2571 C 437.457 8.05808 -1.51899 0
M  V30 2572 O 437.847 8.74358 -0.335205 0
M  V30 2573 C 438.337 6.83093 -1.70294 0
M  V30 2574 C 437.627 5.79992 -0.836974 0
M  V30 2575 N 437.677 4.41864 -1.38293 0
M  V30 2576 H 434.838 8.13644 -3.0377 0
M  V30 2577 H 434.568 6.42788 -2.55485 0
M  V30 2578 H 435.435 8.12039 -0.792769 0
M  V30 2579 P 439.397 8.91 2.44069e-12 0
M  V30 2580 O 439.617 10.1726 0.733694 0
M  V30 2581 O 440.187 8.73148 -1.23936 0
M  V30 2582 O 439.647 7.66872 0.971405 0
M  V30 2583 C 438.707 7.42309 2.04641 0
M  V30 2584 C 439.437 6.86059 3.24661 0
M  V30 2585 O 439.647 5.42847 3.03646 0
M  V30 2586 C 440.837 7.41196 3.50753 0
M  V30 2587 O 441.227 7.27073 4.86816 0
M  V30 2588 C 441.717 6.5273 2.63741 0
M  V30 2589 C 441.007 5.1842 2.73198 0
M  V30 2590 N 441.057 4.38762 1.4784 0
M  V30 2591 H 438.218 8.36803 2.32493 0
M  V30 2592 H 437.948 6.70197 1.71129 0
M  V30 2593 H 438.815 7.03551 4.13168 0
M  V30 2594 P 442.777 7.20834 5.23717 0
M  V30 2595 O 442.997 7.79853 6.57286 0
M  V30 2596 O 443.567 7.79239 4.12957 0
M  V30 2597 O 443.027 5.63315 5.29344 0
M  V30 2598 C 442.087 4.80255 6.01876 0
M  V30 2599 C 442.817 3.64202 6.65911 0
M  V30 2600 O 443.027 2.60694 5.64732 0
M  V30 2601 C 444.217 3.93473 7.1943 0
M  V30 2602 O 444.607 3.02071 8.21205 0
M  V30 2603 C 445.097 3.73047 5.97036 0
M  V30 2604 C 444.387 2.58828 5.25741 0
M  V30 2605 N 444.437 2.68068 3.77503 0
M  V30 2606 H 441.598 5.40332 6.79951 0
M  V30 2607 H 441.328 4.41613 5.32378 0
M  V30 2608 H 442.195 3.26331 7.47797 0
M  V30 2609 P 446.157 2.75334 8.47391 0
M  V30 2610 O 446.377 2.44571 9.90142 0
M  V30 2611 O 446.947 3.87688 7.92115 0
M  V30 2612 O 446.407 1.4459 7.59357 0
M  V30 2613 C 445.467 0.347608 7.69215 0
M  V30 2614 C 446.197 -0.96767 7.52806 0
M  V30 2615 O 446.407 -1.21036 6.1011 0
M  V30 2616 C 447.597 -1.04544 8.13308 0
M  V30 2617 O 447.987 -2.38311 8.41922 0
M  V30 2618 C 448.477 -0.491279 7.02284 0
M  V30 2619 C 447.767 -0.996264 5.77469 0
M  V30 2620 N 447.817 -0.0501916 4.62973 0
M  V30 2621 H 444.978 0.374722 8.67691 0
M  V30 2622 H 444.708 0.443485 6.90277 0
M  V30 2623 H 445.575 -1.75537 7.96793 0
M  V30 2624 P 449.537 -2.75334 8.47391 0
M  V30 2625 O 449.757 -3.84128 9.44797 0
M  V30 2626 O 450.327 -1.51947 8.68712 0
M  V30 2627 O 449.787 -3.29363 6.99321 0
M  V30 2628 C 448.847 -4.24011 6.4274 0
M  V30 2629 C 449.577 -5.20775 5.52155 0
M  V30 2630 O 449.787 -4.56534 4.22446 0
M  V30 2631 C 450.977 -5.62629 5.96531 0
M  V30 2632 O 451.367 -6.87667 5.41053 0
M  V30 2633 C 451.857 -4.52537 5.39283 0
M  V30 2634 C 451.147 -4.20027 4.08623 0
M  V30 2635 N 451.197 -2.76189 3.71603 0
M  V30 2636 H 448.358 -4.797 7.24003 0
M  V30 2637 H 448.088 -3.69856 5.84513 0
M  V30 2638 H 448.955 -6.10356 5.41441 0
M  V30 2639 P 452.917 -7.20834 5.23717 0
M  V30 2640 O 453.137 -8.66104 5.38572 0
M  V30 2641 O 453.707 -6.33544 6.1349 0
M  V30 2642 O 453.167 -6.7751 3.72168 0
M  V30 2643 C 452.227 -7.20825 2.7076 0
M  V30 2644 C 452.957 -7.45864 1.40599 0
M  V30 2645 O 453.167 -6.17651 0.734225 0
M  V30 2646 C 454.357 -8.05808 1.51899 0
M  V30 2647 O 454.747 -8.74358 0.335205 0
M  V30 2648 C 455.237 -6.83093 1.70294 0
M  V30 2649 C 454.527 -5.79992 0.836974 0
M  V30 2650 N 454.577 -4.41864 1.38293 0
M  V30 2651 H 451.738 -8.13644 3.0377 0
M  V30 2652 H 451.468 -6.42788 2.55485 0
M  V30 2653 H 452.335 -8.12039 0.792769 0
M  V30 2654 P 456.297 -8.91 -2.59788e-12 0
M  V30 2655 O 456.517 -10.1726 -0.733694 0
M  V30 2656 O 457.087 -8.73148 1.23936 0
M  V30 2657 O 456.547 -7.66872 -0.971405 0
M  V30 2658 C 455.607 -7.42309 -2.04641 0
M  V30 2659 C 456.337 -6.86059 -3.24661 0
M  V30 2660 O 456.547 -5.42847 -3.03646 0
M  V30 2661 C 457.737 -7.41196 -3.50753 0
M  V30 2662 O 458.127 -7.27073 -4.86816 0
M  V30 2663 C 458.617 -6.5273 -2.63741 0
M  V30 2664 C 457.907 -5.1842 -2.73198 0
M  V30 2665 N 457.957 -4.38762 -1.4784 0
M  V30 2666 H 455.118 -8.36803 -2.32493 0
M  V30 2667 H 454.848 -6.70197 -1.71129 0
M  V30 2668 H 455.715 -7.03551 -4.13168 0
M  V30 2669 P 459.677 -7.20834 -5.23717 0
M  V30 2670 O 459.897 -7.79853 -6.57286 0
M  V30 2671 O 460.467 -7.79239 -4.12957 0
M  V30 2672 O 459.927 -5.63315 -5.29344 0
M  V30 2673 C 458.987 -4.80255 -6.01876 0
M  V30 2674 C 459.717 -3.64202 -6.65911 0
M  V30 2675 O 459.927 -2.60694 -5.64732 0
M  V30 2676 C 461.117 -3.93473 -7.1943 0
M  V30 2677 O 461.507 -3.02071 -8.21205 0
M  V30 2678 C 461.997 -3.73047 -5.97036 0
M  V30 2679 C 461.287 -2.58828 -5.25741 0
M  V30 2680 N 461.337 -2.68068 -3.77503 0
M  V30 2681 H 458.498 -5.40332 -6.79951 0
M  V30 2682 H 458.228 -4.41613 -5.32378 0
M  V30 2683 H 459.095 -3.26331 -7.47797 0
M  V30 2684 P 463.057 -2.75334 -8.47391 0
M  V30 2685 O 463.277 -2.44571 -9.90142 0
M  V30 2686 O 463.847 -3.87688 -7.92115 0
M  V30 2687 O 463.307 -1.4459 -7.59357 0
M  V30 2688 C 462.367 -0.347608 -7.69215 0
M  V30 2689 C 463.097 0.96767 -7.52806 0
M  V30 2690 O 463.307 1.21036 -6.1011 0
M  V30 2691 C 464.497 1.04544 -8.13308 0
M  V30 2692 O 464.887 2.38311 -8.41922 0
M  V30 2693 C 465.377 0.491279 -7.02284 0
M  V30 2694 C 464.667 0.996264 -5.77469 0
M  V30 2695 N 464.717 0.0501916 -4.62973 0
M  V30 2696 H 461.878 -0.374722 -8.67691 0
M  V30 2697 H 461.608 -0.443485 -6.90277 0
M  V30 2698 H 462.475 1.75537 -7.96793 0
M  V30 2699 P 466.437 2.75334 -8.47391 0
M  V30 2700 O 466.657 3.84166 -9.4489 0
M  V30 2701 O 467.227 1.51964 -8.6881 0
M  V30 2702 O 466.687 3.29363 -6.99321 0
M  V30 2703 C 465.747 4.23956 -6.42656 0
M  V30 2704 C 466.477 5.20775 -5.52155 0
M  V30 2705 O 466.687 4.56534 -4.22446 0
M  V30 2706 C 467.877 5.62629 -5.96531 0
M  V30 2707 O 468.267 6.87667 -5.41053 0
M  V30 2708 C 468.757 4.52537 -5.39283 0
M  V30 2709 C 468.047 4.20027 -4.08623 0
M  V30 2710 N 468.097 2.7613 -3.71522 0
M  V30 2711 C 468.247 2.45612 -2.37989 0
M  V30 2712 O 468.337 3.30919 -1.51621 0
M  V30 2713 N 468.287 1.10684 -2.08435 0
M  V30 2714 C 468.197 0.0690084 -2.9792 0
M  V30 2715 O 468.247 -1.10553 -2.59426 0
M  V30 2716 C 468.047 0.481522 -4.35345 0
M  V30 2717 C 467.937 -0.618778 -5.36443 0
M  V30 2718 C 467.997 1.78906 -4.67968 0
M  V30 2719 H 465.257 4.797 -7.24003 0
M  V30 2720 H 464.988 3.69802 -5.84429 0
M  V30 2721 H 465.855 6.10356 -5.41441 0
M  V30 2722 H 468.51 4.78651 -3.27911 0
M  V30 2723 H 468.789 3.64957 -6.05871 0
M  V30 2724 H 469.781 4.8868 -5.2125 0
M  V30 2725 H 467.947 5.66726 -7.06352 0
M  V30 2726 H 467.876 2.07737 -5.72367 0
M  V30 2727 H 468.906 -0.754375 -5.86871 0
M  V30 2728 H 467.169 -0.359721 -6.10641 0
M  V30 2729 H 467.657 -1.55533 -4.8581 0
M  V30 2730 H 468.393 0.862651 -1.12037 0
M  V30 2731 P 469.817 7.20834 -5.23717 0
M  V30 2732 O 470.037 8.66104 -5.38572 0
M  V30 2733 O 470.607 6.33544 -6.1349 0
M  V30 2734 O 470.067 6.7751 -3.72168 0
M  V30 2735 C 469.127 7.20825 -2.7076 0
M  V30 2736 C 469.857 7.45864 -1.40599 0
M  V30 2737 O 470.067 6.17651 -0.734225 0
M  V30 2738 C 471.257 8.05808 -1.51899 0
M  V30 2739 O 471.647 8.74358 -0.335205 0
M  V30 2740 C 472.137 6.83093 -1.70294 0
M  V30 2741 C 471.427 5.79992 -0.836974 0
M  V30 2742 N 471.477 4.41864 -1.38293 0
M  V30 2743 H 468.638 8.13644 -3.0377 0
M  V30 2744 H 468.368 6.42788 -2.55485 0
M  V30 2745 H 469.235 8.12039 -0.792769 0
M  V30 2746 P 473.197 8.91 2.75506e-12 0
M  V30 2747 O 473.417 10.1746 0.733838 0
M  V30 2748 O 473.987 8.73346 -1.23964 0
M  V30 2749 O 473.447 7.66872 0.971405 0
M  V30 2750 C 472.507 7.42405 2.04668 0
M  V30 2751 C 473.237 6.86059 3.24661 0
M  V30 2752 O 473.447 5.42934 3.03695 0
M  V30 2753 C 474.637 7.41287 3.50796 0
M  V30 2754 O 475.027 7.27073 4.86816 0
M  V30 2755 C 475.517 6.5273 2.63741 0
M  V30 2756 C 474.807 5.1842 2.73198 0
M  V30 2757 N 474.857 4.38762 1.4784 0
M  V30 2758 C 474.777 4.83651 0.183876 0
M  V30 2759 N 474.847 3.88759 -0.699393 0
M  V30 2760 C 474.997 2.7404 0.0575568 0
M  V30 2761 C 475.127 1.37902 -0.293928 0
M  V30 2762 N 475.137 0.938021 -1.54797 0
M  V30 2763 N 475.247 0.491817 0.70549 0
M  V30 2764 C 475.237 0.931735 1.95979 0
M  V30 2765 N 475.117 2.16017 2.41481 0
M  V30 2766 C 474.997 3.02547 1.39121 0
M  V30 2767 H 472.019 8.36899 2.3252 0
M  V30 2768 H 471.747 6.70391 1.71179 0
M  V30 2769 H 472.615 7.03638 4.13219 0
M  V30 2770 H 475.27 4.59931 3.54016 0
M  V30 2771 H 475.55 6.88995 1.59871 0
M  V30 2772 H 476.541 6.4684 3.0373 0
M  V30 2773 H 474.707 8.47002 3.20749 0
M  V30 2774 H 474.666 5.8885 -0.0765548 0
M  V30 2775 H 475.047 1.60276 -2.32875 0
M  V30 2776 H 475.236 -0.0699355 -1.73859 0
M  V30 2777 H 475.344 0.165507 2.71897 0
M  V30 2778 P 476.577 7.20834 5.23717 0
M  V30 2779 O 476.797 7.79853 6.57286 0
M  V30 2780 O 477.367 7.79239 4.12957 0
M  V30 2781 O 476.827 5.63315 5.29344 0
M  V30 2782 C 475.887 4.80255 6.01876 0
M  V30 2783 C 476.617 3.64202 6.65911 0
M  V30 2784 O 476.827 2.60694 5.64732 0
M  V30 2785 C 478.017 3.93473 7.1943 0
M  V30 2786 O 478.407 3.02071 8.21205 0
M  V30 2787 C 478.897 3.73047 5.97036 0
M  V30 2788 C 478.187 2.58828 5.25741 0
M  V30 2789 N 478.237 2.68068 3.77503 0
M  V30 2790 H 475.398 5.40332 6.79951 0
M  V30 2791 H 475.128 4.41613 5.32378 0
M  V30 2792 H 475.995 3.26331 7.47797 0
M  V30 2793 P 479.957 2.75334 8.47391 0
M  V30 2794 O 480.177 2.44571 9.90142 0
M  V30 2795 O 480.747 3.87688 7.92115 0
M  V30 2796 O 480.207 1.4459 7.59357 0
M  V30 2797 C 479.267 0.347608 7.69215 0
M  V30 2798 C 479.997 -0.96767 7.52806 0
M  V30 2799 O 480.207 -1.21036 6.1011 0
M  V30 2800 C 481.397 -1.04544 8.13308 0
M  V30 2801 O 481.787 -2.38311 8.41922 0
M  V30 2802 C 482.277 -0.491279 7.02284 0
M  V30 2803 C 481.567 -0.996264 5.77469 0
M  V30 2804 N 481.617 -0.0501916 4.62973 0
M  V30 2805 H 478.778 0.374722 8.67691 0
M  V30 2806 H 478.508 0.443485 6.90277 0
M  V30 2807 H 479.375 -1.75537 7.96793 0
M  V30 2808 P 483.337 -2.75334 8.47391 0
M  V30 2809 O 483.557 -3.84204 9.44982 0
M  V30 2810 O 484.127 -1.51982 8.68909 0
M  V30 2811 O 483.587 -3.29363 6.99321 0
M  V30 2812 C 482.647 -4.24066 6.42823 0
M  V30 2813 C 483.377 -5.20775 5.52155 0
M  V30 2814 O 483.587 -4.56607 4.22514 0
M  V30 2815 C 484.777 -5.62697 5.96604 0
M  V30 2816 O 485.167 -6.87667 5.41053 0
M  V30 2817 C 485.657 -4.52537 5.39283 0
M  V30 2818 C 484.947 -4.20027 4.08623 0
M  V30 2819 N 484.997 -2.76189 3.71603 0
M  V30 2820 H 482.159 -4.79756 7.24086 0
M  V30 2821 H 481.887 -3.69963 5.84682 0
M  V30 2822 H 482.755 -6.10431 5.41508 0
M  V30 2823 H 485.41 -4.78816 3.28024 0
M  V30 2824 H 485.69 -3.64957 6.05871 0
M  V30 2825 H 486.681 -4.88748 5.21323 0
M  V30 2826 H 484.847 -5.66789 7.0643 0
M  V30 2827 P 486.717 -7.20834 5.23717 0
M  V30 2828 O 486.937 -8.66104 5.38572 0
M  V30 2829 O 487.507 -6.33544 6.1349 0
M  V30 2830 O 486.967 -6.7751 3.72168 0
M  V30 2831 C 486.027 -7.20825 2.7076 0
M  V30 2832 C 486.757 -7.45864 1.40599 0
M  V30 2833 O 486.967 -6.17651 0.734225 0
M  V30 2834 C 488.157 -8.05808 1.51899 0
M  V30 2835 O 488.547 -8.74358 0.335205 0
M  V30 2836 C 489.037 -6.83093 1.70294 0
M  V30 2837 C 488.327 -5.79992 0.836974 0
M  V30 2838 N 488.377 -4.41864 1.38293 0
M  V30 2839 H 485.538 -8.13644 3.0377 0
M  V30 2840 H 485.268 -6.42788 2.55485 0
M  V30 2841 H 486.135 -8.12039 0.792769 0
M  V30 2842 P 490.097 -8.91 -2.91224e-12 0
M  V30 2843 O 490.317 -10.1726 -0.733694 0
M  V30 2844 O 490.887 -8.73148 1.23936 0
M  V30 2845 O 490.347 -7.66872 -0.971405 0
M  V30 2846 C 489.407 -7.42309 -2.04641 0
M  V30 2847 C 490.137 -6.86059 -3.24661 0
M  V30 2848 O 490.347 -5.42847 -3.03646 0
M  V30 2849 C 491.537 -7.41196 -3.50753 0
M  V30 2850 O 491.927 -7.27073 -4.86816 0
M  V30 2851 C 492.417 -6.5273 -2.63741 0
M  V30 2852 C 491.707 -5.1842 -2.73198 0
M  V30 2853 N 491.757 -4.38762 -1.4784 0
M  V30 2854 H 488.918 -8.36803 -2.32493 0
M  V30 2855 H 488.648 -6.70197 -1.71129 0
M  V30 2856 H 489.515 -7.03551 -4.13168 0
M  V30 2857 P 493.477 -7.20834 -5.23717 0
M  V30 2858 O 493.697 -7.79853 -6.57286 0
M  V30 2859 O 494.267 -7.79239 -4.12957 0
M  V30 2860 O 493.727 -5.63315 -5.29344 0
M  V30 2861 C 492.787 -4.80255 -6.01876 0
M  V30 2862 C 493.517 -3.64202 -6.65911 0
M  V30 2863 O 493.727 -2.60694 -5.64732 0
M  V30 2864 C 494.917 -3.93473 -7.1943 0
M  V30 2865 O 495.307 -3.02071 -8.21205 0
M  V30 2866 C 495.797 -3.73047 -5.97036 0
M  V30 2867 C 495.087 -2.58828 -5.25741 0
M  V30 2868 N 495.137 -2.68068 -3.77503 0
M  V30 2869 C 495.057 -3.79715 -2.96723 0
M  V30 2870 N 495.137 -3.5377 -1.68852 0
M  V30 2871 C 495.277 -2.15054 -1.63254 0
M  V30 2872 C 495.407 -1.28964 -0.518571 0
M  V30 2873 O 495.427 -1.56826 0.679156 0
M  V30 2874 N 495.527 0.0538097 -0.918425 0
M  V30 2875 C 495.527 0.494275 -2.22578 0
M  V30 2876 N 495.657 1.81086 -2.40434 0
M  V30 2877 N 495.397 -0.313645 -3.27502 0
M  V30 2878 C 495.277 -1.61829 -2.91033 0
M  V30 2879 H 492.298 -5.40332 -6.79951 0
M  V30 2880 H 492.028 -4.41613 -5.32378 0
M  V30 2881 H 492.895 -3.26331 -7.47797 0
M  V30 2882 H 495.55 -1.63422 -5.56814 0
M  V30 2883 H 495.829 -4.63374 -5.34244 0
M  V30 2884 H 496.821 -3.44728 -6.25838 0
M  V30 2885 H 494.987 -4.96652 -7.57263 0
M  V30 2886 H 494.938 -4.80617 -3.3614 0
M  V30 2887 H 495.62 0.742702 -0.199384 0
M  V30 2888 H 495.657 2.20598 -3.35588 0
M  V30 2889 H 495.758 2.43518 -1.58945 0
M  V30 2890 P 496.857 -2.75334 -8.47391 0
M  V30 2891 O 497.077 -2.44571 -9.90142 0
M  V30 2892 O 497.647 -3.87688 -7.92115 0
M  V30 2893 O 497.107 -1.4459 -7.59357 0
M  V30 2894 C 496.167 -0.347608 -7.69215 0
M  V30 2895 C 496.897 0.96767 -7.52806 0
M  V30 2896 O 497.107 1.21036 -6.1011 0
M  V30 2897 C 498.297 1.04544 -8.13308 0
M  V30 2898 O 498.687 2.38311 -8.41922 0
M  V30 2899 C 499.177 0.491279 -7.02284 0
M  V30 2900 C 498.467 0.996264 -5.77469 0
M  V30 2901 N 498.517 0.0501916 -4.62973 0
M  V30 2902 H 495.678 -0.374722 -8.67691 0
M  V30 2903 H 495.408 -0.443485 -6.90277 0
M  V30 2904 H 496.275 1.75537 -7.96793 0
M  V30 2905 P 500.237 2.75334 -8.47391 0
M  V30 2906 O 500.457 3.84128 -9.44797 0
M  V30 2907 O 501.027 1.51947 -8.68712 0
M  V30 2908 O 500.487 3.29363 -6.99321 0
M  V30 2909 C 499.547 4.24011 -6.4274 0
M  V30 2910 C 500.277 5.20775 -5.52155 0
M  V30 2911 O 500.487 4.56534 -4.22446 0
M  V30 2912 C 501.677 5.62629 -5.96531 0
M  V30 2913 O 502.067 6.87667 -5.41053 0
M  V30 2914 C 502.557 4.52537 -5.39283 0
M  V30 2915 C 501.847 4.20027 -4.08623 0
M  V30 2916 N 501.897 2.76189 -3.71603 0
M  V30 2917 H 499.058 4.797 -7.24003 0
M  V30 2918 H 498.788 3.69856 -5.84513 0
M  V30 2919 H 499.655 6.10356 -5.41441 0
M  V30 2920 P 503.617 7.20834 -5.23717 0
M  V30 2921 O 503.837 8.66104 -5.38572 0
M  V30 2922 O 504.407 6.33544 -6.1349 0
M  V30 2923 O 503.867 6.7751 -3.72168 0
M  V30 2924 C 502.927 7.20825 -2.7076 0
M  V30 2925 C 503.657 7.45864 -1.40599 0
M  V30 2926 O 503.867 6.17651 -0.734225 0
M  V30 2927 C 505.057 8.05808 -1.51899 0
M  V30 2928 O 505.447 8.74358 -0.335205 0
M  V30 2929 C 505.937 6.83093 -1.70294 0
M  V30 2930 C 505.227 5.79992 -0.836974 0
M  V30 2931 N 505.277 4.41864 -1.38293 0
M  V30 2932 H 502.438 8.13644 -3.0377 0
M  V30 2933 H 502.168 6.42788 -2.55485 0
M  V30 2934 H 503.035 8.12039 -0.792769 0
M  V30 2935 P 506.997 8.91 3.06942e-12 0
M  V30 2936 O 507.217 10.1726 0.733694 0
M  V30 2937 O 507.787 8.73148 -1.23936 0
M  V30 2938 O 507.247 7.66872 0.971405 0
M  V30 2939 C 506.307 7.42309 2.04641 0
M  V30 2940 C 507.037 6.86059 3.24661 0
M  V30 2941 O 507.247 5.42847 3.03646 0
M  V30 2942 C 508.437 7.41196 3.50753 0
M  V30 2943 O 508.827 7.27073 4.86816 0
M  V30 2944 C 509.317 6.5273 2.63741 0
M  V30 2945 C 508.607 5.1842 2.73198 0
M  V30 2946 N 508.657 4.38762 1.4784 0
M  V30 2947 H 505.818 8.36803 2.32493 0
M  V30 2948 H 505.548 6.70197 1.71129 0
M  V30 2949 H 506.415 7.03551 4.13168 0
M  V30 2950 P 510.377 7.20834 5.23717 0
M  V30 2951 O 510.597 7.7993 6.57351 0
M  V30 2952 O 511.167 7.79328 4.13004 0
M  V30 2953 O 510.627 5.63315 5.29344 0
M  V30 2954 C 509.687 4.80193 6.01798 0
M  V30 2955 C 510.417 3.64202 6.65911 0
M  V30 2956 O 510.627 2.60694 5.64732 0
M  V30 2957 C 511.817 3.93473 7.1943 0
M  V30 2958 O 512.207 3.02071 8.21205 0
M  V30 2959 C 512.697 3.73047 5.97036 0
M  V30 2960 C 511.987 2.58828 5.25741 0
M  V30 2961 N 512.037 2.6801 3.77422 0
M  V30 2962 C 512.187 1.50443 3.07133 0
M  V30 2963 O 512.277 0.419406 3.61576 0
M  V30 2964 N 512.227 1.6403 1.69677 0
M  V30 2965 C 512.137 2.81206 0.986255 0
M  V30 2966 C 511.987 3.99158 1.80325 0
M  V30 2967 C 511.937 3.89779 3.1476 0
M  V30 2968 H 509.197 5.40332 6.79951 0
M  V30 2969 H 508.928 4.41549 5.32301 0
M  V30 2970 H 509.795 3.26331 7.47797 0
M  V30 2971 H 512.45 1.6395 5.56554 0
M  V30 2972 H 512.729 4.63439 5.3432 0
M  V30 2973 H 513.721 3.44728 6.25838 0
M  V30 2974 H 511.887 4.96652 7.57263 0
M  V30 2975 H 511.816 4.80159 3.74441 0
M  V30 2976 P 513.757 2.75334 8.47391 0
M  V30 2977 O 513.977 2.44571 9.90142 0
M  V30 2978 O 514.547 3.87688 7.92115 0
M  V30 2979 O 514.007 1.4459 7.59357 0
M  V30 2980 C 513.067 0.347608 7.69215 0
M  V30 2981 C 513.797 -0.96767 7.52806 0
M  V30 2982 O 514.007 -1.21036 6.1011 0
M  V30 2983 C 515.197 -1.04544 8.13308 0
M  V30 2984 O 515.587 -2.38311 8.41922 0
M  V30 2985 C 516.077 -0.491279 7.02284 0
M  V30 2986 C 515.367 -0.996264 5.77469 0
M  V30 2987 N 515.417 -0.0501916 4.62973 0
M  V30 2988 H 512.578 0.374722 8.67691 0
M  V30 2989 H 512.308 0.443485 6.90277 0
M  V30 2990 H 513.175 -1.75537 7.96793 0
M  V30 2991 P 517.137 -2.75334 8.47391 0
M  V30 2992 O 517.357 -3.84128 9.44797 0
M  V30 2993 O 517.927 -1.51947 8.68712 0
M  V30 2994 O 517.387 -3.29363 6.99321 0
M  V30 2995 C 516.447 -4.24011 6.4274 0
M  V30 2996 C 517.177 -5.20775 5.52155 0
M  V30 2997 O 517.387 -4.56534 4.22446 0
M  V30 2998 C 518.577 -5.62629 5.96531 0
M  V30 2999 O 518.967 -6.87667 5.41053 0
M  V30 3000 C 519.457 -4.52537 5.39283 0
M  V30 3001 C 518.747 -4.20027 4.08623 0
M  V30 3002 N 518.797 -2.76189 3.71603 0
M  V30 3003 H 515.958 -4.797 7.24003 0
M  V30 3004 H 515.688 -3.69856 5.84513 0
M  V30 3005 H 516.555 -6.10356 5.41441 0
M  V30 3006 P 520.517 -7.20834 5.23717 0
M  V30 3007 O 520.737 -8.66104 5.38572 0
M  V30 3008 O 521.307 -6.33544 6.1349 0
M  V30 3009 O 520.767 -6.7751 3.72168 0
M  V30 3010 C 519.827 -7.20825 2.7076 0
M  V30 3011 C 520.557 -7.45864 1.40599 0
M  V30 3012 O 520.767 -6.17651 0.734225 0
M  V30 3013 C 521.957 -8.05808 1.51899 0
M  V30 3014 O 522.347 -8.74358 0.335205 0
M  V30 3015 C 522.837 -6.83093 1.70294 0
M  V30 3016 C 522.127 -5.79992 0.836974 0
M  V30 3017 N 522.177 -4.41864 1.38293 0
M  V30 3018 H 519.338 -8.13644 3.0377 0
M  V30 3019 H 519.068 -6.42788 2.55485 0
M  V30 3020 H 519.935 -8.12039 0.792769 0
M  V30 3021 P 523.897 -8.91 -3.22661e-12 0
M  V30 3022 O 524.117 -10.1726 -0.733694 0
M  V30 3023 O 524.687 -8.73148 1.23936 0
M  V30 3024 O 524.147 -7.66872 -0.971405 0
M  V30 3025 C 523.207 -7.42309 -2.04641 0
M  V30 3026 C 523.937 -6.86059 -3.24661 0
M  V30 3027 O 524.147 -5.42847 -3.03646 0
M  V30 3028 C 525.337 -7.41196 -3.50753 0
M  V30 3029 O 525.727 -7.27073 -4.86816 0
M  V30 3030 C 526.217 -6.5273 -2.63741 0
M  V30 3031 C 525.507 -5.1842 -2.73198 0
M  V30 3032 N 525.557 -4.38762 -1.4784 0
M  V30 3033 H 522.718 -8.36803 -2.32493 0
M  V30 3034 H 522.448 -6.70197 -1.71129 0
M  V30 3035 H 523.315 -7.03551 -4.13168 0
M  V30 3036 P 527.277 -7.20834 -5.23717 0
M  V30 3037 O 527.497 -7.7993 -6.57351 0
M  V30 3038 O 528.067 -7.79328 -4.13004 0
M  V30 3039 O 527.527 -5.63315 -5.29344 0
M  V30 3040 C 526.587 -4.80193 -6.01798 0
M  V30 3041 C 527.317 -3.64202 -6.65911 0
M  V30 3042 O 527.527 -2.60694 -5.64732 0
M  V30 3043 C 528.717 -3.93473 -7.1943 0
M  V30 3044 O 529.107 -3.02071 -8.21205 0
M  V30 3045 C 529.597 -3.73047 -5.97036 0
M  V30 3046 C 528.887 -2.58828 -5.25741 0
M  V30 3047 N 528.937 -2.6801 -3.77422 0
M  V30 3048 C 529.087 -1.50443 -3.07133 0
M  V30 3049 O 529.177 -0.419406 -3.61576 0
M  V30 3050 N 529.127 -1.6403 -1.69677 0
M  V30 3051 C 529.037 -2.81206 -0.986255 0
M  V30 3052 C 528.887 -3.99158 -1.80325 0
M  V30 3053 C 528.837 -3.89779 -3.1476 0
M  V30 3054 H 526.097 -5.40332 -6.79951 0
M  V30 3055 H 525.828 -4.41549 -5.32301 0
M  V30 3056 H 526.695 -3.26331 -7.47797 0
M  V30 3057 H 529.35 -1.6395 -5.56554 0
M  V30 3058 H 529.629 -4.63439 -5.3432 0
M  V30 3059 H 530.621 -3.44728 -6.25838 0
M  V30 3060 H 528.787 -4.96652 -7.57263 0
M  V30 3061 H 528.716 -4.80159 -3.74441 0
M  V30 3062 P 530.657 -2.75334 -8.47391 0
M  V30 3063 O 530.877 -2.44571 -9.90142 0
M  V30 3064 O 531.447 -3.87688 -7.92115 0
M  V30 3065 O 530.907 -1.4459 -7.59357 0
M  V30 3066 C 529.967 -0.347608 -7.69215 0
M  V30 3067 C 530.697 0.96767 -7.52806 0
M  V30 3068 O 530.907 1.21036 -6.1011 0
M  V30 3069 C 532.097 1.04544 -8.13308 0
M  V30 3070 O 532.487 2.38311 -8.41922 0
M  V30 3071 C 532.977 0.491279 -7.02284 0
M  V30 3072 C 532.267 0.996264 -5.77469 0
M  V30 3073 N 532.317 0.0501916 -4.62973 0
M  V30 3074 H 529.478 -0.374722 -8.67691 0
M  V30 3075 H 529.208 -0.443485 -6.90277 0
M  V30 3076 H 530.075 1.75537 -7.96793 0
M  V30 3077 P 534.037 2.75334 -8.47391 0
M  V30 3078 O 534.257 3.84204 -9.44982 0
M  V30 3079 O 534.827 1.51982 -8.68909 0
M  V30 3080 O 534.287 3.29363 -6.99321 0
M  V30 3081 C 533.347 4.24066 -6.42823 0
M  V30 3082 C 534.077 5.20775 -5.52155 0
M  V30 3083 O 534.287 4.56607 -4.22514 0
M  V30 3084 C 535.477 5.62697 -5.96604 0
M  V30 3085 O 535.867 6.87667 -5.41053 0
M  V30 3086 C 536.357 4.52537 -5.39283 0
M  V30 3087 C 535.647 4.20027 -4.08623 0
M  V30 3088 N 535.697 2.76189 -3.71603 0
M  V30 3089 H 532.859 4.79756 -7.24086 0
M  V30 3090 H 532.587 3.69963 -5.84682 0
M  V30 3091 H 533.455 6.10431 -5.41508 0
M  V30 3092 H 536.11 4.78816 -3.28024 0
M  V30 3093 H 536.39 3.64957 -6.05871 0
M  V30 3094 H 537.381 4.88748 -5.21323 0
M  V30 3095 H 535.547 5.66789 -7.0643 0
M  V30 3096 P 537.417 7.20834 -5.23717 0
M  V30 3097 O 537.637 8.66104 -5.38572 0
M  V30 3098 O 538.207 6.33544 -6.1349 0
M  V30 3099 O 537.667 6.7751 -3.72168 0
M  V30 3100 C 536.727 7.20825 -2.7076 0
M  V30 3101 C 537.457 7.45864 -1.40599 0
M  V30 3102 O 537.667 6.17651 -0.734225 0
M  V30 3103 C 538.857 8.05808 -1.51899 0
M  V30 3104 O 539.247 8.74358 -0.335205 0
M  V30 3105 C 539.737 6.83093 -1.70294 0
M  V30 3106 C 539.027 5.79992 -0.836974 0
M  V30 3107 N 539.077 4.41864 -1.38293 0
M  V30 3108 H 536.238 8.13644 -3.0377 0
M  V30 3109 H 535.968 6.42788 -2.55485 0
M  V30 3110 H 536.835 8.12039 -0.792769 0
M  V30 3111 P 540.797 8.91 3.38379e-12 0
M  V30 3112 O 541.017 10.1726 0.733694 0
M  V30 3113 O 541.587 8.73148 -1.23936 0
M  V30 3114 O 541.047 7.66872 0.971405 0
M  V30 3115 C 540.107 7.42309 2.04641 0
M  V30 3116 C 540.837 6.86059 3.24661 0
M  V30 3117 O 541.047 5.42847 3.03646 0
M  V30 3118 C 542.237 7.41196 3.50753 0
M  V30 3119 O 542.627 7.27073 4.86816 0
M  V30 3120 C 543.117 6.5273 2.63741 0
M  V30 3121 C 542.407 5.1842 2.73198 0
M  V30 3122 N 542.457 4.38762 1.4784 0
M  V30 3123 H 539.618 8.36803 2.32493 0
M  V30 3124 H 539.348 6.70197 1.71129 0
M  V30 3125 H 540.215 7.03551 4.13168 0
M  V30 3126 P 544.177 7.20834 5.23717 0
M  V30 3127 O 544.397 7.79853 6.57286 0
M  V30 3128 O 544.967 7.79239 4.12957 0
M  V30 3129 O 544.427 5.63315 5.29344 0
M  V30 3130 C 543.487 4.80255 6.01876 0
M  V30 3131 C 544.217 3.64202 6.65911 0
M  V30 3132 O 544.427 2.60694 5.64732 0
M  V30 3133 C 545.617 3.93473 7.1943 0
M  V30 3134 O 546.007 3.02071 8.21205 0
M  V30 3135 C 546.497 3.73047 5.97036 0
M  V30 3136 C 545.787 2.58828 5.25741 0
M  V30 3137 N 545.837 2.68068 3.77503 0
M  V30 3138 H 542.998 5.40332 6.79951 0
M  V30 3139 H 542.728 4.41613 5.32378 0
M  V30 3140 H 543.595 3.26331 7.47797 0
M  V30 3141 P 547.557 2.75334 8.47391 0
M  V30 3142 O 547.777 2.44571 9.90142 0
M  V30 3143 O 548.347 3.87688 7.92115 0
M  V30 3144 O 547.807 1.4459 7.59357 0
M  V30 3145 C 546.867 0.347608 7.69215 0
M  V30 3146 C 547.597 -0.96767 7.52806 0
M  V30 3147 O 547.807 -1.21036 6.1011 0
M  V30 3148 C 548.997 -1.04544 8.13308 0
M  V30 3149 O 549.387 -2.38311 8.41922 0
M  V30 3150 C 549.877 -0.491279 7.02284 0
M  V30 3151 C 549.167 -0.996264 5.77469 0
M  V30 3152 N 549.217 -0.0501916 4.62973 0
M  V30 3153 H 546.378 0.374722 8.67691 0
M  V30 3154 H 546.108 0.443485 6.90277 0
M  V30 3155 H 546.975 -1.75537 7.96793 0
M  V30 3156 P 550.937 -2.75334 8.47391 0
M  V30 3157 O 551.157 -3.84128 9.44797 0
M  V30 3158 O 551.727 -1.51947 8.68712 0
M  V30 3159 O 551.187 -3.29363 6.99321 0
M  V30 3160 C 550.247 -4.24011 6.4274 0
M  V30 3161 C 550.977 -5.20775 5.52155 0
M  V30 3162 O 551.187 -4.56534 4.22446 0
M  V30 3163 C 552.377 -5.62629 5.96531 0
M  V30 3164 O 552.767 -6.87667 5.41053 0
M  V30 3165 C 553.257 -4.52537 5.39283 0
M  V30 3166 C 552.547 -4.20027 4.08623 0
M  V30 3167 N 552.597 -2.76189 3.71603 0
M  V30 3168 H 549.758 -4.797 7.24003 0
M  V30 3169 H 549.488 -3.69856 5.84513 0
M  V30 3170 H 550.355 -6.10356 5.41441 0
M  V30 3171 P 554.317 -7.20834 5.23717 0
M  V30 3172 O 554.537 -8.66104 5.38572 0
M  V30 3173 O 555.107 -6.33544 6.1349 0
M  V30 3174 O 554.567 -6.7751 3.72168 0
M  V30 3175 C 553.627 -7.20825 2.7076 0
M  V30 3176 C 554.357 -7.45864 1.40599 0
M  V30 3177 O 554.567 -6.17651 0.734225 0
M  V30 3178 C 555.757 -8.05808 1.51899 0
M  V30 3179 O 556.147 -8.74358 0.335205 0
M  V30 3180 C 556.637 -6.83093 1.70294 0
M  V30 3181 C 555.927 -5.79992 0.836974 0
M  V30 3182 N 555.977 -4.41864 1.38293 0
M  V30 3183 H 553.138 -8.13644 3.0377 0
M  V30 3184 H 552.868 -6.42788 2.55485 0
M  V30 3185 H 553.735 -8.12039 0.792769 0
M  V30 3186 P 557.697 -8.91 -3.54097e-12 0
M  V30 3187 O 557.917 -10.1726 -0.733694 0
M  V30 3188 O 558.487 -8.73148 1.23936 0
M  V30 3189 O 557.947 -7.66872 -0.971405 0
M  V30 3190 C 557.007 -7.42309 -2.04641 0
M  V30 3191 C 557.737 -6.86059 -3.24661 0
M  V30 3192 O 557.947 -5.42847 -3.03646 0
M  V30 3193 C 559.137 -7.41196 -3.50753 0
M  V30 3194 O 559.527 -7.27073 -4.86816 0
M  V30 3195 C 560.017 -6.5273 -2.63741 0
M  V30 3196 C 559.307 -5.1842 -2.73198 0
M  V30 3197 N 559.357 -4.38762 -1.4784 0
M  V30 3198 H 556.518 -8.36803 -2.32493 0
M  V30 3199 H 556.248 -6.70197 -1.71129 0
M  V30 3200 H 557.115 -7.03551 -4.13168 0
M  V30 3201 P 561.077 -7.20834 -5.23717 0
M  V30 3202 O 561.297 -7.79853 -6.57286 0
M  V30 3203 O 561.867 -7.79239 -4.12957 0
M  V30 3204 O 561.327 -5.63315 -5.29344 0
M  V30 3205 C 560.387 -4.80255 -6.01876 0
M  V30 3206 C 561.117 -3.64202 -6.65911 0
M  V30 3207 O 561.327 -2.60694 -5.64732 0
M  V30 3208 C 562.517 -3.93473 -7.1943 0
M  V30 3209 O 562.907 -3.02071 -8.21205 0
M  V30 3210 C 563.397 -3.73047 -5.97036 0
M  V30 3211 C 562.687 -2.58828 -5.25741 0
M  V30 3212 N 562.737 -2.68068 -3.77503 0
M  V30 3213 H 559.898 -5.40332 -6.79951 0
M  V30 3214 H 559.628 -4.41613 -5.32378 0
M  V30 3215 H 560.495 -3.26331 -7.47797 0
M  V30 3216 P 564.457 -2.75334 -8.47391 0
M  V30 3217 O 564.677 -2.44571 -9.90142 0
M  V30 3218 O 565.247 -3.87688 -7.92115 0
M  V30 3219 O 564.707 -1.4459 -7.59357 0
M  V30 3220 C 563.767 -0.347608 -7.69215 0
M  V30 3221 C 564.497 0.96767 -7.52806 0
M  V30 3222 O 564.707 1.21036 -6.1011 0
M  V30 3223 C 565.897 1.04544 -8.13308 0
M  V30 3224 O 566.287 2.38311 -8.41922 0
M  V30 3225 C 566.777 0.491279 -7.02284 0
M  V30 3226 C 566.067 0.996264 -5.77469 0
M  V30 3227 N 566.117 0.0501916 -4.62973 0
M  V30 3228 H 563.278 -0.374722 -8.67691 0
M  V30 3229 H 563.008 -0.443485 -6.90277 0
M  V30 3230 H 563.875 1.75537 -7.96793 0
M  V30 3231 P 567.837 2.75334 -8.47391 0
M  V30 3232 O 568.057 3.84128 -9.44797 0
M  V30 3233 O 568.627 1.51947 -8.68712 0
M  V30 3234 O 568.087 3.29363 -6.99321 0
M  V30 3235 C 567.147 4.24011 -6.4274 0
M  V30 3236 C 567.877 5.20775 -5.52155 0
M  V30 3237 O 568.087 4.56534 -4.22446 0
M  V30 3238 C 569.277 5.62629 -5.96531 0
M  V30 3239 O 569.667 6.87667 -5.41053 0
M  V30 3240 C 570.157 4.52537 -5.39283 0
M  V30 3241 C 569.447 4.20027 -4.08623 0
M  V30 3242 N 569.497 2.76189 -3.71603 0
M  V30 3243 H 566.658 4.797 -7.24003 0
M  V30 3244 H 566.388 3.69856 -5.84513 0
M  V30 3245 H 567.255 6.10356 -5.41441 0
M  V30 3246 P 571.217 7.20834 -5.23717 0
M  V30 3247 O 571.437 8.66104 -5.38572 0
M  V30 3248 O 572.007 6.33544 -6.1349 0
M  V30 3249 O 571.467 6.7751 -3.72168 0
M  V30 3250 C 570.527 7.20825 -2.7076 0
M  V30 3251 C 571.257 7.45864 -1.40599 0
M  V30 3252 O 571.467 6.17651 -0.734225 0
M  V30 3253 C 572.657 8.05808 -1.51899 0
M  V30 3254 O 573.047 8.74358 -0.335205 0
M  V30 3255 C 573.537 6.83093 -1.70294 0
M  V30 3256 C 572.827 5.79992 -0.836974 0
M  V30 3257 N 572.877 4.41864 -1.38293 0
M  V30 3258 H 570.038 8.13644 -3.0377 0
M  V30 3259 H 569.768 6.42788 -2.55485 0
M  V30 3260 H 570.635 8.12039 -0.792769 0
M  V30 3261 P 574.597 8.91 3.69815e-12 0
M  V30 3262 O 574.817 10.1746 0.733838 0
M  V30 3263 O 575.387 8.73346 -1.23964 0
M  V30 3264 O 574.847 7.66872 0.971405 0
M  V30 3265 C 573.907 7.42405 2.04668 0
M  V30 3266 C 574.637 6.86059 3.24661 0
M  V30 3267 O 574.847 5.42934 3.03695 0
M  V30 3268 C 576.037 7.41287 3.50796 0
M  V30 3269 O 576.427 7.27073 4.86816 0
M  V30 3270 C 576.917 6.5273 2.63741 0
M  V30 3271 C 576.207 5.1842 2.73198 0
M  V30 3272 N 576.257 4.38762 1.4784 0
M  V30 3273 H 573.419 8.36899 2.3252 0
M  V30 3274 H 573.147 6.70391 1.71179 0
M  V30 3275 H 574.015 7.03638 4.13219 0
M  V30 3276 H 576.67 4.59931 3.54016 0
M  V30 3277 H 576.95 6.88995 1.59871 0
M  V30 3278 H 577.941 6.4684 3.0373 0
M  V30 3279 H 576.107 8.47002 3.20749 0
M  V30 3280 P 577.977 7.20834 5.23717 0
M  V30 3281 O 578.197 7.79853 6.57286 0
M  V30 3282 O 578.767 7.79239 4.12957 0
M  V30 3283 O 578.227 5.63315 5.29344 0
M  V30 3284 C 577.287 4.80255 6.01876 0
M  V30 3285 C 578.017 3.64202 6.65911 0
M  V30 3286 O 578.227 2.60694 5.64732 0
M  V30 3287 C 579.417 3.93473 7.1943 0
M  V30 3288 O 579.807 3.02071 8.21205 0
M  V30 3289 C 580.297 3.73047 5.97036 0
M  V30 3290 C 579.587 2.58828 5.25741 0
M  V30 3291 N 579.637 2.68068 3.77503 0
M  V30 3292 H 576.798 5.40332 6.79951 0
M  V30 3293 H 576.528 4.41613 5.32378 0
M  V30 3294 H 577.395 3.26331 7.47797 0
M  V30 3295 P 581.357 2.75334 8.47391 0
M  V30 3296 O 581.577 2.44571 9.90142 0
M  V30 3297 O 582.147 3.87688 7.92115 0
M  V30 3298 O 581.607 1.4459 7.59357 0
M  V30 3299 C 580.667 0.347608 7.69215 0
M  V30 3300 C 581.397 -0.96767 7.52806 0
M  V30 3301 O 581.607 -1.21036 6.1011 0
M  V30 3302 C 582.797 -1.04544 8.13308 0
M  V30 3303 O 583.187 -2.38311 8.41922 0
M  V30 3304 C 583.677 -0.491279 7.02284 0
M  V30 3305 C 582.967 -0.996264 5.77469 0
M  V30 3306 N 583.017 -0.0501916 4.62973 0
M  V30 3307 H 580.178 0.374722 8.67691 0
M  V30 3308 H 579.908 0.443485 6.90277 0
M  V30 3309 H 580.775 -1.75537 7.96793 0
M  V30 3310 P 584.737 -2.75334 8.47391 0
M  V30 3311 O 584.957 -3.84204 9.44982 0
M  V30 3312 O 585.527 -1.51982 8.68909 0
M  V30 3313 O 584.987 -3.29363 6.99321 0
M  V30 3314 C 584.047 -4.24066 6.42823 0
M  V30 3315 C 584.777 -5.20775 5.52155 0
M  V30 3316 O 584.987 -4.56607 4.22514 0
M  V30 3317 C 586.177 -5.62697 5.96604 0
M  V30 3318 O 586.567 -6.87667 5.41053 0
M  V30 3319 C 587.057 -4.52537 5.39283 0
M  V30 3320 C 586.347 -4.20027 4.08623 0
M  V30 3321 N 586.397 -2.76189 3.71603 0
M  V30 3322 H 583.559 -4.79756 7.24086 0
M  V30 3323 H 583.287 -3.69963 5.84682 0
M  V30 3324 H 584.155 -6.10431 5.41508 0
M  V30 3325 H 586.81 -4.78816 3.28024 0
M  V30 3326 H 587.09 -3.64957 6.05871 0
M  V30 3327 H 588.081 -4.88748 5.21323 0
M  V30 3328 H 586.247 -5.66789 7.0643 0
M  V30 3329 P 588.117 -7.20834 5.23717 0
M  V30 3330 O 588.337 -8.66104 5.38572 0
M  V30 3331 O 588.907 -6.33544 6.1349 0
M  V30 3332 O 588.367 -6.7751 3.72168 0
M  V30 3333 C 587.427 -7.20825 2.7076 0
M  V30 3334 C 588.157 -7.45864 1.40599 0
M  V30 3335 O 588.367 -6.17651 0.734225 0
M  V30 3336 C 589.557 -8.05808 1.51899 0
M  V30 3337 O 589.947 -8.74358 0.335205 0
M  V30 3338 C 590.437 -6.83093 1.70294 0
M  V30 3339 C 589.727 -5.79992 0.836974 0
M  V30 3340 N 589.777 -4.41864 1.38293 0
M  V30 3341 C 589.697 -3.99538 2.69438 0
M  V30 3342 N 589.777 -2.69909 2.84277 0
M  V30 3343 C 589.917 -2.21719 1.5408 0
M  V30 3344 C 590.047 -0.891712 1.06628 0
M  V30 3345 O 590.067 0.161298 1.70137 0
M  V30 3346 N 590.167 -0.856846 -0.334985 0
M  V30 3347 C 590.167 -1.9641 -1.15789 0
M  V30 3348 N 590.297 -1.72708 -2.46522 0
M  V30 3349 N 590.037 -3.21165 -0.713741 0
M  V30 3350 C 589.917 -3.26797 0.639748 0
M  V30 3351 H 586.938 -8.13644 3.0377 0
M  V30 3352 H 586.668 -6.42788 2.55485 0
M  V30 3353 H 587.535 -8.12039 0.792769 0
M  V30 3354 H 590.19 -5.80061 -0.166416 0
M  V30 3355 H 590.469 -6.51287 2.75604 0
M  V30 3356 H 591.461 -7.01734 1.34462 0
M  V30 3357 H 589.627 -8.73674 2.38337 0
M  V30 3358 H 589.578 -4.68207 3.53221 0
M  V30 3359 H 590.26 0.0398818 -0.767965 0
M  V30 3360 H 590.297 -2.50995 -3.13503 0
M  V30 3361 H 590.398 -0.759148 -2.80716 0
M  V30 3362 P 591.496 -8.91 -3.85533e-12 0
M  V30 3363 O 591.716 -10.1726 -0.733694 0
M  V30 3364 O 592.286 -8.73148 1.23936 0
M  V30 3365 O 591.746 -7.66872 -0.971405 0
M  V30 3366 C 590.806 -7.42309 -2.04641 0
M  V30 3367 C 591.536 -6.86059 -3.24661 0
M  V30 3368 O 591.746 -5.42847 -3.03646 0
M  V30 3369 C 592.937 -7.41196 -3.50753 0
M  V30 3370 O 593.327 -7.27073 -4.86816 0
M  V30 3371 C 593.817 -6.5273 -2.63741 0
M  V30 3372 C 593.106 -5.1842 -2.73198 0
M  V30 3373 N 593.156 -4.38762 -1.4784 0
M  V30 3374 H 590.317 -8.36803 -2.32493 0
M  V30 3375 H 590.048 -6.70197 -1.71129 0
M  V30 3376 H 590.914 -7.03551 -4.13168 0
M  V30 3377 P 594.876 -7.20834 -5.23717 0
M  V30 3378 O 595.096 -7.79853 -6.57286 0
M  V30 3379 O 595.666 -7.79239 -4.12957 0
M  V30 3380 O 595.126 -5.63315 -5.29344 0
M  V30 3381 C 594.186 -4.80255 -6.01876 0
M  V30 3382 C 594.916 -3.64202 -6.65911 0
M  V30 3383 O 595.126 -2.60694 -5.64732 0
M  V30 3384 C 596.316 -3.93473 -7.1943 0
M  V30 3385 O 596.706 -3.02071 -8.21205 0
M  V30 3386 C 597.196 -3.73047 -5.97036 0
M  V30 3387 C 596.486 -2.58828 -5.25741 0
M  V30 3388 N 596.536 -2.68068 -3.77503 0
M  V30 3389 H 593.697 -5.40332 -6.79951 0
M  V30 3390 H 593.427 -4.41613 -5.32378 0
M  V30 3391 H 594.294 -3.26331 -7.47797 0
M  V30 3392 P 598.256 -2.75334 -8.47391 0
M  V30 3393 O 598.476 -2.44571 -9.90142 0
M  V30 3394 O 599.046 -3.87688 -7.92115 0
M  V30 3395 O 598.506 -1.4459 -7.59357 0
M  V30 3396 C 597.566 -0.347608 -7.69215 0
M  V30 3397 C 598.296 0.96767 -7.52806 0
M  V30 3398 O 598.506 1.21036 -6.1011 0
M  V30 3399 C 599.696 1.04544 -8.13308 0
M  V30 3400 O 600.086 2.38311 -8.41922 0
M  V30 3401 C 600.576 0.491279 -7.02284 0
M  V30 3402 C 599.866 0.996264 -5.77469 0
M  V30 3403 N 599.916 0.0501916 -4.62973 0
M  V30 3404 H 597.077 -0.374722 -8.67691 0
M  V30 3405 H 596.807 -0.443485 -6.90277 0
M  V30 3406 H 597.674 1.75537 -7.96793 0
M  V30 3407 P 601.636 2.75334 -8.47391 0
M  V30 3408 O 601.856 3.84128 -9.44797 0
M  V30 3409 O 602.426 1.51947 -8.68712 0
M  V30 3410 O 601.886 3.29363 -6.99321 0
M  V30 3411 C 600.946 4.24011 -6.4274 0
M  V30 3412 C 601.676 5.20775 -5.52155 0
M  V30 3413 O 601.886 4.56534 -4.22446 0
M  V30 3414 C 603.076 5.62629 -5.96531 0
M  V30 3415 O 603.466 6.87667 -5.41053 0
M  V30 3416 C 603.956 4.52537 -5.39283 0
M  V30 3417 C 603.246 4.20027 -4.08623 0
M  V30 3418 N 603.296 2.76189 -3.71603 0
M  V30 3419 H 600.457 4.797 -7.24003 0
M  V30 3420 H 600.187 3.69856 -5.84513 0
M  V30 3421 H 601.054 6.10356 -5.41441 0
M  V30 3422 P 605.016 7.20834 -5.23717 0
M  V30 3423 O 605.236 8.66104 -5.38572 0
M  V30 3424 O 605.806 6.33544 -6.1349 0
M  V30 3425 O 605.266 6.7751 -3.72168 0
M  V30 3426 C 604.326 7.20825 -2.7076 0
M  V30 3427 C 605.056 7.45864 -1.40599 0
M  V30 3428 O 605.266 6.17651 -0.734225 0
M  V30 3429 C 606.456 8.05808 -1.51899 0
M  V30 3430 O 606.846 8.74358 -0.335205 0
M  V30 3431 C 607.336 6.83093 -1.70294 0
M  V30 3432 C 606.626 5.79992 -0.836974 0
M  V30 3433 N 606.676 4.41864 -1.38293 0
M  V30 3434 H 603.837 8.13644 -3.0377 0
M  V30 3435 H 603.567 6.42788 -2.55485 0
M  V30 3436 H 604.434 8.12039 -0.792769 0
M  V30 3437 P 608.396 8.91 4.01252e-12 0
M  V30 3438 O 608.616 10.1726 0.733694 0
M  V30 3439 O 609.186 8.73148 -1.23936 0
M  V30 3440 O 608.646 7.66872 0.971405 0
M  V30 3441 C 607.706 7.42309 2.04641 0
M  V30 3442 C 608.436 6.86059 3.24661 0
M  V30 3443 O 608.646 5.42847 3.03646 0
M  V30 3444 C 609.836 7.41196 3.50753 0
M  V30 3445 O 610.226 7.27073 4.86816 0
M  V30 3446 C 610.716 6.5273 2.63741 0
M  V30 3447 C 610.006 5.1842 2.73198 0
M  V30 3448 N 610.056 4.38762 1.4784 0
M  V30 3449 H 607.217 8.36803 2.32493 0
M  V30 3450 H 606.947 6.70197 1.71129 0
M  V30 3451 H 607.814 7.03551 4.13168 0
M  V30 3452 P 611.776 7.20834 5.23717 0
M  V30 3453 O 611.996 7.79853 6.57286 0
M  V30 3454 O 612.566 7.79239 4.12957 0
M  V30 3455 O 612.026 5.63315 5.29344 0
M  V30 3456 C 611.086 4.80255 6.01876 0
M  V30 3457 C 611.816 3.64202 6.65911 0
M  V30 3458 O 612.026 2.60694 5.64732 0
M  V30 3459 C 613.216 3.93473 7.1943 0
M  V30 3460 O 613.606 3.02071 8.21205 0
M  V30 3461 C 614.096 3.73047 5.97036 0
M  V30 3462 C 613.386 2.58828 5.25741 0
M  V30 3463 N 613.436 2.68068 3.77503 0
M  V30 3464 H 610.597 5.40332 6.79951 0
M  V30 3465 H 610.327 4.41613 5.32378 0
M  V30 3466 H 611.194 3.26331 7.47797 0
M  V30 3467 P 615.156 2.75334 8.47391 0
M  V30 3468 O 615.376 2.44571 9.90142 0
M  V30 3469 O 615.946 3.87688 7.92115 0
M  V30 3470 O 615.406 1.4459 7.59357 0
M  V30 3471 C 614.466 0.347608 7.69215 0
M  V30 3472 C 615.196 -0.96767 7.52806 0
M  V30 3473 O 615.406 -1.21036 6.1011 0
M  V30 3474 C 616.596 -1.04544 8.13308 0
M  V30 3475 O 616.986 -2.38311 8.41922 0
M  V30 3476 C 617.476 -0.491279 7.02284 0
M  V30 3477 C 616.766 -0.996264 5.77469 0
M  V30 3478 N 616.816 -0.0501916 4.62973 0
M  V30 3479 H 613.977 0.374722 8.67691 0
M  V30 3480 H 613.707 0.443485 6.90277 0
M  V30 3481 H 614.574 -1.75537 7.96793 0
M  V30 3482 P 618.536 -2.75334 8.47391 0
M  V30 3483 O 618.756 -3.84128 9.44797 0
M  V30 3484 O 619.326 -1.51947 8.68712 0
M  V30 3485 O 618.786 -3.29363 6.99321 0
M  V30 3486 C 617.846 -4.24011 6.4274 0
M  V30 3487 C 618.576 -5.20775 5.52155 0
M  V30 3488 O 618.786 -4.56534 4.22446 0
M  V30 3489 C 619.976 -5.62629 5.96531 0
M  V30 3490 O 620.366 -6.87667 5.41053 0
M  V30 3491 C 620.856 -4.52537 5.39283 0
M  V30 3492 C 620.146 -4.20027 4.08623 0
M  V30 3493 N 620.196 -2.76189 3.71603 0
M  V30 3494 C 620.116 -1.64862 4.52822 0
M  V30 3495 N 620.196 -0.512671 3.88633 0
M  V30 3496 C 620.336 -0.888083 2.54977 0
M  V30 3497 C 620.466 -0.094668 1.38677 0
M  V30 3498 O 620.486 1.13053 1.28163 0
M  V30 3499 N 620.586 -0.890102 0.232633 0
M  V30 3500 C 620.586 -2.26958 0.21772 0
M  V30 3501 N 620.716 -2.84626 -0.97925 0
M  V30 3502 N 620.456 -3.0178 1.31033 0
M  V30 3503 C 620.336 -2.26781 2.43843 0
M  V30 3504 H 617.357 -4.797 7.24003 0
M  V30 3505 H 617.087 -3.69856 5.84513 0
M  V30 3506 H 617.954 -6.10356 5.41441 0
M  V30 3507 H 620.609 -4.79061 3.27488 0
M  V30 3508 H 620.888 -3.64906 6.05785 0
M  V30 3509 H 621.88 -4.8868 5.2125 0
M  V30 3510 H 620.046 -5.66726 7.06352 0
M  V30 3511 H 619.997 -1.71169 5.60966 0
M  V30 3512 H 620.679 -0.419134 -0.644739 0
M  V30 3513 H 620.716 -3.87332 -1.06098 0
M  V30 3514 H 620.817 -2.26417 -1.82483 0
M  V30 3515 P 621.916 -7.20834 5.23717 0
M  V30 3516 O 622.136 -8.66104 5.38572 0
M  V30 3517 O 622.706 -6.33544 6.1349 0
M  V30 3518 O 622.166 -6.7751 3.72168 0
M  V30 3519 C 621.226 -7.20825 2.7076 0
M  V30 3520 C 621.956 -7.45864 1.40599 0
M  V30 3521 O 622.166 -6.17651 0.734225 0
M  V30 3522 C 623.356 -8.05808 1.51899 0
M  V30 3523 O 623.746 -8.74358 0.335205 0
M  V30 3524 C 624.236 -6.83093 1.70294 0
M  V30 3525 C 623.526 -5.79992 0.836974 0
M  V30 3526 N 623.576 -4.41864 1.38293 0
M  V30 3527 H 620.737 -8.13644 3.0377 0
M  V30 3528 H 620.467 -6.42788 2.55485 0
M  V30 3529 H 621.334 -8.12039 0.792769 0
M  V30 3530 P 625.296 -8.91 -4.1697e-12 0
M  V30 3531 O 625.516 -10.1726 -0.733694 0
M  V30 3532 O 626.086 -8.73148 1.23936 0
M  V30 3533 O 625.546 -7.66872 -0.971405 0
M  V30 3534 C 624.606 -7.42309 -2.04641 0
M  V30 3535 C 625.336 -6.86059 -3.24661 0
M  V30 3536 O 625.546 -5.42847 -3.03646 0
M  V30 3537 C 626.736 -7.41196 -3.50753 0
M  V30 3538 O 627.126 -7.27073 -4.86816 0
M  V30 3539 C 627.616 -6.5273 -2.63741 0
M  V30 3540 C 626.906 -5.1842 -2.73198 0
M  V30 3541 N 626.956 -4.38762 -1.4784 0
M  V30 3542 H 624.117 -8.36803 -2.32493 0
M  V30 3543 H 623.847 -6.70197 -1.71129 0
M  V30 3544 H 624.714 -7.03551 -4.13168 0
M  V30 3545 P 628.676 -7.20834 -5.23717 0
M  V30 3546 O 628.896 -7.79853 -6.57286 0
M  V30 3547 O 629.466 -7.79239 -4.12957 0
M  V30 3548 O 628.926 -5.63315 -5.29344 0
M  V30 3549 C 627.986 -4.80255 -6.01876 0
M  V30 3550 C 628.716 -3.64202 -6.65911 0
M  V30 3551 O 628.926 -2.60694 -5.64732 0
M  V30 3552 C 630.116 -3.93473 -7.1943 0
M  V30 3553 O 630.506 -3.02071 -8.21205 0
M  V30 3554 C 630.996 -3.73047 -5.97036 0
M  V30 3555 C 630.286 -2.58828 -5.25741 0
M  V30 3556 N 630.336 -2.68068 -3.77503 0
M  V30 3557 H 627.497 -5.40332 -6.79951 0
M  V30 3558 H 627.227 -4.41613 -5.32378 0
M  V30 3559 H 628.094 -3.26331 -7.47797 0
M  V30 3560 P 632.056 -2.75334 -8.47391 0
M  V30 3561 O 632.276 -2.44571 -9.90142 0
M  V30 3562 O 632.846 -3.87688 -7.92115 0
M  V30 3563 O 632.306 -1.4459 -7.59357 0
M  V30 3564 C 631.366 -0.347608 -7.69215 0
M  V30 3565 C 632.096 0.96767 -7.52806 0
M  V30 3566 O 632.306 1.21036 -6.1011 0
M  V30 3567 C 633.496 1.04544 -8.13308 0
M  V30 3568 O 633.886 2.38311 -8.41922 0
M  V30 3569 C 634.376 0.491279 -7.02284 0
M  V30 3570 C 633.666 0.996264 -5.77469 0
M  V30 3571 N 633.716 0.0501916 -4.62973 0
M  V30 3572 H 630.877 -0.374722 -8.67691 0
M  V30 3573 H 630.607 -0.443485 -6.90277 0
M  V30 3574 H 631.474 1.75537 -7.96793 0
M  V30 3575 P 635.436 2.75334 -8.47391 0
M  V30 3576 O 635.656 3.84128 -9.44797 0
M  V30 3577 O 636.226 1.51947 -8.68712 0
M  V30 3578 O 635.686 3.29363 -6.99321 0
M  V30 3579 C 634.746 4.24011 -6.4274 0
M  V30 3580 C 635.476 5.20775 -5.52155 0
M  V30 3581 O 635.686 4.56534 -4.22446 0
M  V30 3582 C 636.876 5.62629 -5.96531 0
M  V30 3583 O 637.266 6.87667 -5.41053 0
M  V30 3584 C 637.756 4.52537 -5.39283 0
M  V30 3585 C 637.046 4.20027 -4.08623 0
M  V30 3586 N 637.096 2.76189 -3.71603 0
M  V30 3587 H 634.257 4.797 -7.24003 0
M  V30 3588 H 633.987 3.69856 -5.84513 0
M  V30 3589 H 634.854 6.10356 -5.41441 0
M  V30 3590 P 638.816 7.20834 -5.23717 0
M  V30 3591 O 639.036 8.66104 -5.38572 0
M  V30 3592 O 639.606 6.33544 -6.1349 0
M  V30 3593 O 639.066 6.7751 -3.72168 0
M  V30 3594 C 638.126 7.20825 -2.7076 0
M  V30 3595 C 638.856 7.45864 -1.40599 0
M  V30 3596 O 639.066 6.17651 -0.734225 0
M  V30 3597 C 640.256 8.05808 -1.51899 0
M  V30 3598 O 640.646 8.74358 -0.335205 0
M  V30 3599 C 641.136 6.83093 -1.70294 0
M  V30 3600 C 640.426 5.79992 -0.836974 0
M  V30 3601 N 640.476 4.41864 -1.38293 0
M  V30 3602 H 637.637 8.13644 -3.0377 0
M  V30 3603 H 637.367 6.42788 -2.55485 0
M  V30 3604 H 638.234 8.12039 -0.792769 0
M  V30 3605 P 642.196 8.91 4.32688e-12 0
M  V30 3606 O 642.416 10.1746 0.733838 0
M  V30 3607 O 642.986 8.73346 -1.23964 0
M  V30 3608 O 642.446 7.66872 0.971405 0
M  V30 3609 C 641.506 7.42405 2.04668 0
M  V30 3610 C 642.236 6.86059 3.24661 0
M  V30 3611 O 642.446 5.42934 3.03695 0
M  V30 3612 C 643.636 7.41287 3.50796 0
M  V30 3613 O 644.026 7.27073 4.86816 0
M  V30 3614 C 644.516 6.5273 2.63741 0
M  V30 3615 C 643.806 5.1842 2.73198 0
M  V30 3616 N 643.856 4.38762 1.4784 0
M  V30 3617 C 643.776 4.83651 0.183876 0
M  V30 3618 N 643.846 3.88759 -0.699393 0
M  V30 3619 C 643.996 2.7404 0.0575568 0
M  V30 3620 C 644.126 1.37902 -0.293928 0
M  V30 3621 N 644.136 0.938021 -1.54797 0
M  V30 3622 N 644.246 0.491817 0.70549 0
M  V30 3623 C 644.236 0.931735 1.95979 0
M  V30 3624 N 644.116 2.16017 2.41481 0
M  V30 3625 C 643.996 3.02547 1.39121 0
M  V30 3626 H 641.018 8.36899 2.3252 0
M  V30 3627 H 640.746 6.70391 1.71179 0
M  V30 3628 H 641.614 7.03638 4.13219 0
M  V30 3629 H 644.269 4.59931 3.54016 0
M  V30 3630 H 644.549 6.88995 1.59871 0
M  V30 3631 H 645.54 6.4684 3.0373 0
M  V30 3632 H 643.706 8.47002 3.20749 0
M  V30 3633 H 643.665 5.8885 -0.0765548 0
M  V30 3634 H 644.046 1.60276 -2.32875 0
M  V30 3635 H 644.235 -0.0699355 -1.73859 0
M  V30 3636 H 644.343 0.165507 2.71897 0
M  V30 3637 P 645.576 7.20834 5.23717 0
M  V30 3638 O 645.796 7.79853 6.57286 0
M  V30 3639 O 646.366 7.79239 4.12957 0
M  V30 3640 O 645.826 5.63315 5.29344 0
M  V30 3641 C 644.886 4.80255 6.01876 0
M  V30 3642 C 645.616 3.64202 6.65911 0
M  V30 3643 O 645.826 2.60694 5.64732 0
M  V30 3644 C 647.016 3.93473 7.1943 0
M  V30 3645 O 647.406 3.02071 8.21205 0
M  V30 3646 C 647.896 3.73047 5.97036 0
M  V30 3647 C 647.186 2.58828 5.25741 0
M  V30 3648 N 647.236 2.68068 3.77503 0
M  V30 3649 H 644.397 5.40332 6.79951 0
M  V30 3650 H 644.127 4.41613 5.32378 0
M  V30 3651 H 644.994 3.26331 7.47797 0
M  V30 3652 P 648.956 2.75334 8.47391 0
M  V30 3653 O 649.176 2.44571 9.90142 0
M  V30 3654 O 649.746 3.87688 7.92115 0
M  V30 3655 O 649.206 1.4459 7.59357 0
M  V30 3656 C 648.266 0.347608 7.69215 0
M  V30 3657 C 648.996 -0.96767 7.52806 0
M  V30 3658 O 649.206 -1.21036 6.1011 0
M  V30 3659 C 650.396 -1.04544 8.13308 0
M  V30 3660 O 650.786 -2.38311 8.41922 0
M  V30 3661 C 651.276 -0.491279 7.02284 0
M  V30 3662 C 650.566 -0.996264 5.77469 0
M  V30 3663 N 650.616 -0.0501916 4.62973 0
M  V30 3664 H 647.777 0.374722 8.67691 0
M  V30 3665 H 647.507 0.443485 6.90277 0
M  V30 3666 H 648.374 -1.75537 7.96793 0
M  V30 3667 P 652.336 -2.75334 8.47391 0
M  V30 3668 O 652.556 -3.84128 9.44797 0
M  V30 3669 O 653.126 -1.51947 8.68712 0
M  V30 3670 O 652.586 -3.29363 6.99321 0
M  V30 3671 C 651.646 -4.24011 6.4274 0
M  V30 3672 C 652.376 -5.20775 5.52155 0
M  V30 3673 O 652.586 -4.56534 4.22446 0
M  V30 3674 C 653.776 -5.62629 5.96531 0
M  V30 3675 O 654.166 -6.87667 5.41053 0
M  V30 3676 C 654.656 -4.52537 5.39283 0
M  V30 3677 C 653.946 -4.20027 4.08623 0
M  V30 3678 N 653.996 -2.76189 3.71603 0
M  V30 3679 C 653.916 -1.64862 4.52822 0
M  V30 3680 N 653.996 -0.512671 3.88633 0
M  V30 3681 C 654.136 -0.888083 2.54977 0
M  V30 3682 C 654.266 -0.094668 1.38677 0
M  V30 3683 O 654.286 1.13053 1.28163 0
M  V30 3684 N 654.386 -0.890102 0.232633 0
M  V30 3685 C 654.386 -2.26958 0.21772 0
M  V30 3686 N 654.516 -2.84626 -0.97925 0
M  V30 3687 N 654.256 -3.0178 1.31033 0
M  V30 3688 C 654.136 -2.26781 2.43843 0
M  V30 3689 H 651.157 -4.797 7.24003 0
M  V30 3690 H 650.887 -3.69856 5.84513 0
M  V30 3691 H 651.754 -6.10356 5.41441 0
M  V30 3692 H 654.409 -4.79061 3.27488 0
M  V30 3693 H 654.688 -3.64906 6.05785 0
M  V30 3694 H 655.68 -4.8868 5.2125 0
M  V30 3695 H 653.846 -5.66726 7.06352 0
M  V30 3696 H 653.797 -1.71169 5.60966 0
M  V30 3697 H 654.479 -0.419134 -0.644739 0
M  V30 3698 H 654.516 -3.87332 -1.06098 0
M  V30 3699 H 654.617 -2.26417 -1.82483 0
M  V30 3700 P 655.716 -7.20834 5.23717 0
M  V30 3701 O 655.936 -8.66104 5.38572 0
M  V30 3702 O 656.506 -6.33544 6.1349 0
M  V30 3703 O 655.966 -6.7751 3.72168 0
M  V30 3704 C 655.026 -7.20825 2.7076 0
M  V30 3705 C 655.756 -7.45864 1.40599 0
M  V30 3706 O 655.966 -6.17651 0.734225 0
M  V30 3707 C 657.156 -8.05808 1.51899 0
M  V30 3708 O 657.546 -8.74358 0.335205 0
M  V30 3709 C 658.036 -6.83093 1.70294 0
M  V30 3710 C 657.326 -5.79992 0.836974 0
M  V30 3711 N 657.376 -4.41864 1.38293 0
M  V30 3712 H 654.537 -8.13644 3.0377 0
M  V30 3713 H 654.267 -6.42788 2.55485 0
M  V30 3714 H 655.134 -8.12039 0.792769 0
M  V30 3715 P 659.096 -8.91 -4.48406e-12 0
M  V30 3716 O 659.316 -10.1726 -0.733694 0
M  V30 3717 O 659.886 -8.73148 1.23936 0
M  V30 3718 O 659.346 -7.66872 -0.971405 0
M  V30 3719 C 658.406 -7.42309 -2.04641 0
M  V30 3720 C 659.136 -6.86059 -3.24661 0
M  V30 3721 O 659.346 -5.42847 -3.03646 0
M  V30 3722 C 660.536 -7.41196 -3.50753 0
M  V30 3723 O 660.926 -7.27073 -4.86816 0
M  V30 3724 C 661.416 -6.5273 -2.63741 0
M  V30 3725 C 660.706 -5.1842 -2.73198 0
M  V30 3726 N 660.756 -4.38762 -1.4784 0
M  V30 3727 H 657.917 -8.36803 -2.32493 0
M  V30 3728 H 657.647 -6.70197 -1.71129 0
M  V30 3729 H 658.514 -7.03551 -4.13168 0
M  V30 3730 P 662.476 -7.20834 -5.23717 0
M  V30 3731 O 662.696 -7.79853 -6.57286 0
M  V30 3732 O 663.266 -7.79239 -4.12957 0
M  V30 3733 O 662.726 -5.63315 -5.29344 0
M  V30 3734 C 661.786 -4.80255 -6.01876 0
M  V30 3735 C 662.516 -3.64202 -6.65911 0
M  V30 3736 O 662.726 -2.60694 -5.64732 0
M  V30 3737 C 663.916 -3.93473 -7.1943 0
M  V30 3738 O 664.306 -3.02071 -8.21205 0
M  V30 3739 C 664.796 -3.73047 -5.97036 0
M  V30 3740 C 664.086 -2.58828 -5.25741 0
M  V30 3741 N 664.136 -2.68068 -3.77503 0
M  V30 3742 H 661.297 -5.40332 -6.79951 0
M  V30 3743 H 661.027 -4.41613 -5.32378 0
M  V30 3744 H 661.894 -3.26331 -7.47797 0
M  V30 3745 P 665.856 -2.75334 -8.47391 0
M  V30 3746 O 666.076 -2.44571 -9.90142 0
M  V30 3747 O 666.646 -3.87688 -7.92115 0
M  V30 3748 O 666.106 -1.4459 -7.59357 0
M  V30 3749 C 665.166 -0.347608 -7.69215 0
M  V30 3750 C 665.896 0.96767 -7.52806 0
M  V30 3751 O 666.106 1.21036 -6.1011 0
M  V30 3752 C 667.296 1.04544 -8.13308 0
M  V30 3753 O 667.686 2.38311 -8.41922 0
M  V30 3754 C 668.176 0.491279 -7.02284 0
M  V30 3755 C 667.466 0.996264 -5.77469 0
M  V30 3756 N 667.516 0.0501916 -4.62973 0
M  V30 3757 H 664.677 -0.374722 -8.67691 0
M  V30 3758 H 664.407 -0.443485 -6.90277 0
M  V30 3759 H 665.274 1.75537 -7.96793 0
M  V30 3760 P 669.236 2.75334 -8.47391 0
M  V30 3761 O 669.456 3.84128 -9.44797 0
M  V30 3762 O 670.026 1.51947 -8.68712 0
M  V30 3763 O 669.486 3.29363 -6.99321 0
M  V30 3764 C 668.546 4.24011 -6.4274 0
M  V30 3765 C 669.276 5.20775 -5.52155 0
M  V30 3766 O 669.486 4.56534 -4.22446 0
M  V30 3767 C 670.676 5.62629 -5.96531 0
M  V30 3768 O 671.066 6.87667 -5.41053 0
M  V30 3769 C 671.556 4.52537 -5.39283 0
M  V30 3770 C 670.846 4.20027 -4.08623 0
M  V30 3771 N 670.896 2.76189 -3.71603 0
M  V30 3772 H 668.057 4.797 -7.24003 0
M  V30 3773 H 667.787 3.69856 -5.84513 0
M  V30 3774 H 668.654 6.10356 -5.41441 0
M  V30 3775 P 672.616 7.20834 -5.23717 0
M  V30 3776 O 672.836 8.66104 -5.38572 0
M  V30 3777 O 673.406 6.33544 -6.1349 0
M  V30 3778 O 672.866 6.7751 -3.72168 0
M  V30 3779 C 671.926 7.20825 -2.7076 0
M  V30 3780 C 672.656 7.45864 -1.40599 0
M  V30 3781 O 672.866 6.17651 -0.734225 0
M  V30 3782 C 674.056 8.05808 -1.51899 0
M  V30 3783 O 674.446 8.74358 -0.335205 0
M  V30 3784 C 674.936 6.83093 -1.70294 0
M  V30 3785 C 674.226 5.79992 -0.836974 0
M  V30 3786 N 674.276 4.41864 -1.38293 0
M  V30 3787 C 674.196 3.99538 -2.69438 0
M  V30 3788 N 674.276 2.69909 -2.84277 0
M  V30 3789 C 674.416 2.21719 -1.5408 0
M  V30 3790 C 674.546 0.891712 -1.06628 0
M  V30 3791 O 674.566 -0.161298 -1.70137 0
M  V30 3792 N 674.666 0.856846 0.334985 0
M  V30 3793 C 674.666 1.9641 1.15789 0
M  V30 3794 N 674.796 1.72708 2.46522 0
M  V30 3795 N 674.536 3.21165 0.713741 0
M  V30 3796 C 674.416 3.26797 -0.639748 0
M  V30 3797 H 671.437 8.13644 -3.0377 0
M  V30 3798 H 671.167 6.42788 -2.55485 0
M  V30 3799 H 672.034 8.12039 -0.792769 0
M  V30 3800 H 674.689 5.80061 0.166416 0
M  V30 3801 H 674.968 6.51287 -2.75604 0
M  V30 3802 H 675.96 7.01734 -1.34462 0
M  V30 3803 H 674.126 8.73674 -2.38337 0
M  V30 3804 H 674.077 4.68207 -3.53221 0
M  V30 3805 H 674.759 -0.0398818 0.767965 0
M  V30 3806 H 674.796 2.50995 3.13503 0
M  V30 3807 H 674.897 0.759148 2.80716 0
M  V30 3808 P 675.996 8.91 4.64125e-12 0
M  V30 3809 O 676.216 10.1726 0.733694 0
M  V30 3810 O 676.786 8.73148 -1.23936 0
M  V30 3811 O 676.246 7.66872 0.971405 0
M  V30 3812 C 675.306 7.42309 2.04641 0
M  V30 3813 C 676.036 6.86059 3.24661 0
M  V30 3814 O 676.246 5.42847 3.03646 0
M  V30 3815 C 677.436 7.41196 3.50753 0
M  V30 3816 O 677.826 7.27073 4.86816 0
M  V30 3817 C 678.316 6.5273 2.63741 0
M  V30 3818 C 677.606 5.1842 2.73198 0
M  V30 3819 N 677.656 4.38762 1.4784 0
M  V30 3820 H 674.817 8.36803 2.32493 0
M  V30 3821 H 674.547 6.70197 1.71129 0
M  V30 3822 H 675.414 7.03551 4.13168 0
M  V30 3823 P 679.376 7.20834 5.23717 0
M  V30 3824 O 679.596 7.79853 6.57286 0
M  V30 3825 O 680.166 7.79239 4.12957 0
M  V30 3826 O 679.626 5.63315 5.29344 0
M  V30 3827 C 678.686 4.80255 6.01876 0
M  V30 3828 C 679.416 3.64202 6.65911 0
M  V30 3829 O 679.626 2.60694 5.64732 0
M  V30 3830 C 680.816 3.93473 7.1943 0
M  V30 3831 O 681.206 3.02071 8.21205 0
M  V30 3832 C 681.696 3.73047 5.97036 0
M  V30 3833 C 680.986 2.58828 5.25741 0
M  V30 3834 N 681.036 2.68068 3.77503 0
M  V30 3835 H 678.197 5.40332 6.79951 0
M  V30 3836 H 677.927 4.41613 5.32378 0
M  V30 3837 H 678.794 3.26331 7.47797 0
M  V30 3838 P 682.756 2.75334 8.47391 0
M  V30 3839 O 682.976 2.44571 9.90142 0
M  V30 3840 O 683.546 3.87688 7.92115 0
M  V30 3841 O 683.006 1.4459 7.59357 0
M  V30 3842 C 682.066 0.347608 7.69215 0
M  V30 3843 C 682.796 -0.96767 7.52806 0
M  V30 3844 O 683.006 -1.21036 6.1011 0
M  V30 3845 C 684.196 -1.04544 8.13308 0
M  V30 3846 O 684.586 -2.38311 8.41922 0
M  V30 3847 C 685.076 -0.491279 7.02284 0
M  V30 3848 C 684.366 -0.996264 5.77469 0
M  V30 3849 N 684.416 -0.0501916 4.62973 0
M  V30 3850 H 681.577 0.374722 8.67691 0
M  V30 3851 H 681.307 0.443485 6.90277 0
M  V30 3852 H 682.174 -1.75537 7.96793 0
M  V30 3853 P 686.136 -2.75334 8.47391 0
M  V30 3854 O 686.356 -3.84166 9.4489 0
M  V30 3855 O 686.926 -1.51964 8.6881 0
M  V30 3856 O 686.386 -3.29363 6.99321 0
M  V30 3857 C 685.446 -4.24011 6.4274 0
M  V30 3858 C 686.176 -5.20775 5.52155 0
M  V30 3859 O 686.386 -4.56534 4.22446 0
M  V30 3860 C 687.576 -5.62629 5.96531 0
M  V30 3861 O 687.966 -6.87667 5.41053 0
M  V30 3862 C 688.456 -4.52537 5.39283 0
M  V30 3863 C 687.746 -4.20027 4.08623 0
M  V30 3864 N 687.796 -2.7613 3.71522 0
M  V30 3865 C 687.946 -2.43702 2.37085 0
M  V30 3866 O 688.036 -3.3531 1.54039 0
M  V30 3867 N 687.996 -0.951103 2.10621 0
M  V30 3868 C 687.896 -0.165021 2.93537 0
M  V30 3869 N 687.946 1.09723 2.53253 0
M  V30 3870 C 687.746 -0.469576 4.32458 0
M  V30 3871 C 687.696 -1.78658 4.65921 0
M  V30 3872 H 684.956 -4.79645 7.23919 0
M  V30 3873 H 684.687 -3.69802 5.84429 0
M  V30 3874 H 685.554 -6.10431 5.41508 0
M  V30 3875 H 688.209 -4.78733 3.27967 0
M  V30 3876 H 688.488 -3.64957 6.05871 0
M  V30 3877 H 689.48 -4.8868 5.2125 0
M  V30 3878 H 687.646 -5.66726 7.06352 0
M  V30 3879 H 687.574 -2.06987 5.70299 0
M  V30 3880 H 687.676 0.314383 5.07728 0
M  V30 3881 H 688.064 1.31363 1.5319 0
M  V30 3882 H 687.867 1.85978 3.21943 0
M  V30 3883 P 689.516 -7.20834 5.23717 0
M  V30 3884 O 689.736 -8.66104 5.38572 0
M  V30 3885 O 690.306 -6.33544 6.1349 0
M  V30 3886 O 689.766 -6.7751 3.72168 0
M  V30 3887 C 688.826 -7.20825 2.7076 0
M  V30 3888 C 689.556 -7.45864 1.40599 0
M  V30 3889 O 689.766 -6.17651 0.734225 0
M  V30 3890 C 690.956 -8.05808 1.51899 0
M  V30 3891 O 691.346 -8.74358 0.335205 0
M  V30 3892 C 691.836 -6.83093 1.70294 0
M  V30 3893 C 691.126 -5.79992 0.836974 0
M  V30 3894 N 691.176 -4.41864 1.38293 0
M  V30 3895 H 688.337 -8.13644 3.0377 0
M  V30 3896 H 688.067 -6.42788 2.55485 0
M  V30 3897 H 688.934 -8.12039 0.792769 0
M  V30 3898 P 692.896 -8.91 -4.67181e-12 0
M  V30 3899 O 693.116 -10.1726 -0.733694 0
M  V30 3900 O 693.686 -8.73148 1.23936 0
M  V30 3901 O 693.146 -7.66872 -0.971405 0
M  V30 3902 C 692.206 -7.42309 -2.04641 0
M  V30 3903 C 692.936 -6.86059 -3.24661 0
M  V30 3904 O 693.146 -5.42847 -3.03646 0
M  V30 3905 C 694.336 -7.41196 -3.50753 0
M  V30 3906 O 694.726 -7.27073 -4.86816 0
M  V30 3907 C 695.216 -6.5273 -2.63741 0
M  V30 3908 C 694.506 -5.1842 -2.73198 0
M  V30 3909 N 694.556 -4.38762 -1.4784 0
M  V30 3910 H 691.717 -8.36803 -2.32493 0
M  V30 3911 H 691.447 -6.70197 -1.71129 0
M  V30 3912 H 692.314 -7.03551 -4.13168 0
M  V30 3913 P 696.276 -7.20834 -5.23717 0
M  V30 3914 O 696.496 -7.79853 -6.57286 0
M  V30 3915 O 697.066 -7.79239 -4.12957 0
M  V30 3916 O 696.526 -5.63315 -5.29344 0
M  V30 3917 C 695.586 -4.80255 -6.01876 0
M  V30 3918 C 696.316 -3.64202 -6.65911 0
M  V30 3919 O 696.526 -2.60694 -5.64732 0
M  V30 3920 C 697.716 -3.93473 -7.1943 0
M  V30 3921 O 698.106 -3.02071 -8.21205 0
M  V30 3922 C 698.596 -3.73047 -5.97036 0
M  V30 3923 C 697.886 -2.58828 -5.25741 0
M  V30 3924 N 697.936 -2.68068 -3.77503 0
M  V30 3925 H 695.097 -5.40332 -6.79951 0
M  V30 3926 H 694.827 -4.41613 -5.32378 0
M  V30 3927 H 695.694 -3.26331 -7.47797 0
M  V30 3928 P 699.656 -2.75334 -8.47391 0
M  V30 3929 O 699.876 -2.44619 -9.90336 0
M  V30 3930 O 700.446 -3.87776 -7.92294 0
M  V30 3931 O 699.906 -1.4459 -7.59357 0
M  V30 3932 C 698.966 -0.347653 -7.69315 0
M  V30 3933 C 699.696 0.96767 -7.52806 0
M  V30 3934 O 699.906 1.21055 -6.10208 0
M  V30 3935 C 701.096 1.04557 -8.13408 0
M  V30 3936 O 701.486 2.38311 -8.41922 0
M  V30 3937 C 701.976 0.491279 -7.02284 0
M  V30 3938 C 701.266 0.996264 -5.77469 0
M  V30 3939 N 701.316 0.0501916 -4.62973 0
M  V30 3940 H 698.478 -0.374765 -8.67791 0
M  V30 3941 H 698.206 -0.443613 -6.90476 0
M  V30 3942 H 699.074 1.75559 -7.96891 0
M  V30 3943 H 701.729 1.94563 -5.46818 0
M  V30 3944 H 702.009 -0.608651 -7.04676 0
M  V30 3945 H 703 0.889796 -7.09039 0
M  V30 3946 H 701.166 0.433128 -9.04664 0
M  V30 3947 P 703.036 2.75334 -8.47391 0
M  V30 3948 O 703.256 3.84128 -9.44797 0
M  V30 3949 O 703.826 1.51947 -8.68712 0
M  V30 3950 O 703.286 3.29363 -6.99321 0
M  V30 3951 C 702.346 4.24011 -6.4274 0
M  V30 3952 C 703.076 5.20775 -5.52155 0
M  V30 3953 O 703.286 4.56534 -4.22446 0
M  V30 3954 C 704.476 5.62629 -5.96531 0
M  V30 3955 O 704.866 6.87667 -5.41053 0
M  V30 3956 C 705.356 4.52537 -5.39283 0
M  V30 3957 C 704.646 4.20027 -4.08623 0
M  V30 3958 N 704.696 2.76189 -3.71603 0
M  V30 3959 H 701.857 4.797 -7.24003 0
M  V30 3960 H 701.587 3.69856 -5.84513 0
M  V30 3961 H 702.454 6.10356 -5.41441 0
M  V30 3962 P 706.416 7.20834 -5.23717 0
M  V30 3963 O 706.636 8.66274 -5.38678 0
M  V30 3964 O 707.206 6.33687 -6.13629 0
M  V30 3965 O 706.666 6.7751 -3.72168 0
M  V30 3966 C 705.726 7.20919 -2.70795 0
M  V30 3967 C 706.456 7.45864 -1.40599 0
M  V30 3968 O 706.666 6.17751 -0.734343 0
M  V30 3969 C 707.856 8.05906 -1.51917 0
M  V30 3970 O 708.246 8.74358 -0.335205 0
M  V30 3971 C 708.736 6.83093 -1.70294 0
M  V30 3972 C 708.026 5.79992 -0.836974 0
M  V30 3973 N 708.076 4.41864 -1.38293 0
M  V30 3974 H 705.238 8.13738 -3.03804 0
M  V30 3975 H 704.966 6.42974 -2.55559 0
M  V30 3976 H 705.834 8.12139 -0.792866 0
M  V30 3977 H 708.489 5.80178 0.160643 0
M  V30 3978 H 708.769 6.51379 -2.75643 0
M  V30 3979 H 709.76 7.01832 -1.3448 0
M  V30 3980 H 707.926 8.73771 -2.38364 0
M  V30 3981 P 709.796 8.91 4.82899e-12 0
M  V30 3982 O 710.016 10.1726 0.733694 0
M  V30 3983 O 710.586 8.73148 -1.23936 0
M  V30 3984 O 710.046 7.66872 0.971405 0
M  V30 3985 C 709.106 7.42309 2.04641 0
M  V30 3986 C 709.836 6.86059 3.24661 0
M  V30 3987 O 710.046 5.42847 3.03646 0
M  V30 3988 C 711.236 7.41196 3.50753 0
M  V30 3989 O 711.626 7.27073 4.86816 0
M  V30 3990 C 712.116 6.5273 2.63741 0
M  V30 3991 C 711.406 5.1842 2.73198 0
M  V30 3992 N 711.456 4.38762 1.4784 0
M  V30 3993 H 708.617 8.36803 2.32493 0
M  V30 3994 H 708.347 6.70197 1.71129 0
M  V30 3995 H 709.214 7.03551 4.13168 0
M  V30 3996 P 713.176 7.20834 5.23717 0
M  V30 3997 O 713.396 7.79853 6.57286 0
M  V30 3998 O 713.966 7.79239 4.12957 0
M  V30 3999 O 713.426 5.63315 5.29344 0
M  V30 4000 C 712.486 4.80255 6.01876 0
M  V30 4001 C 713.216 3.64202 6.65911 0
M  V30 4002 O 713.426 2.60694 5.64732 0
M  V30 4003 C 714.616 3.93473 7.1943 0
M  V30 4004 O 715.006 3.02071 8.21205 0
M  V30 4005 C 715.496 3.73047 5.97036 0
M  V30 4006 C 714.786 2.58828 5.25741 0
M  V30 4007 N 714.836 2.68068 3.77503 0
M  V30 4008 H 711.997 5.40332 6.79951 0
M  V30 4009 H 711.727 4.41613 5.32378 0
M  V30 4010 H 712.594 3.26331 7.47797 0
M  V30 4011 P 716.556 2.75334 8.47391 0
M  V30 4012 O 716.776 2.44619 9.90336 0
M  V30 4013 O 717.346 3.87776 7.92294 0
M  V30 4014 O 716.806 1.4459 7.59357 0
M  V30 4015 C 715.866 0.347653 7.69315 0
M  V30 4016 C 716.596 -0.96767 7.52806 0
M  V30 4017 O 716.806 -1.21055 6.10208 0
M  V30 4018 C 717.996 -1.04557 8.13408 0
M  V30 4019 O 718.386 -2.38311 8.41922 0
M  V30 4020 C 718.876 -0.491279 7.02284 0
M  V30 4021 C 718.166 -0.996264 5.77469 0
M  V30 4022 N 718.216 -0.0501916 4.62973 0
M  V30 4023 C 718.136 1.31969 4.65661 0
M  V30 4024 N 718.206 1.86649 3.48119 0
M  V30 4025 C 718.356 0.792089 2.62406 0
M  V30 4026 C 718.486 0.705684 1.2207 0
M  V30 4027 N 718.496 1.76207 0.413762 0
M  V30 4028 N 718.606 -0.518981 0.685754 0
M  V30 4029 C 718.596 -1.57595 1.49174 0
M  V30 4030 N 718.476 -1.62909 2.80066 0
M  V30 4031 C 718.356 -0.388195 3.3073 0
M  V30 4032 H 715.378 0.374765 8.67791 0
M  V30 4033 H 715.106 0.443613 6.90476 0
M  V30 4034 H 715.974 -1.75559 7.96891 0
M  V30 4035 H 718.629 -1.94563 5.46818 0
M  V30 4036 H 718.909 0.608651 7.04676 0
M  V30 4037 H 719.9 -0.889796 7.09039 0
M  V30 4038 H 718.066 -0.433128 9.04664 0
M  V30 4039 H 718.025 1.89246 5.57664 0
M  V30 4040 H 718.406 2.71005 0.804694 0
M  V30 4041 H 718.595 1.63189 -0.603768 0
M  V30 4042 H 718.703 -2.53475 0.997614 0
M  V30 4043 P 719.936 -2.75334 8.47391 0
M  V30 4044 O 720.156 -3.84128 9.44797 0
M  V30 4045 O 720.726 -1.51947 8.68712 0
M  V30 4046 O 720.186 -3.29363 6.99321 0
M  V30 4047 C 719.246 -4.24011 6.4274 0
M  V30 4048 C 719.976 -5.20775 5.52155 0
M  V30 4049 O 720.186 -4.56534 4.22446 0
M  V30 4050 C 721.376 -5.62629 5.96531 0
M  V30 4051 O 721.766 -6.87667 5.41053 0
M  V30 4052 C 722.256 -4.52537 5.39283 0
M  V30 4053 C 721.546 -4.20027 4.08623 0
M  V30 4054 N 721.596 -2.76189 3.71603 0
M  V30 4055 H 718.757 -4.797 7.24003 0
M  V30 4056 H 718.487 -3.69856 5.84513 0
M  V30 4057 H 719.354 -6.10356 5.41441 0
M  V30 4058 P 723.316 -7.20834 5.23717 0
M  V30 4059 O 723.536 -8.66104 5.38572 0
M  V30 4060 O 724.106 -6.33544 6.1349 0
M  V30 4061 O 723.566 -6.7751 3.72168 0
M  V30 4062 C 722.626 -7.20825 2.7076 0
M  V30 4063 C 723.356 -7.45864 1.40599 0
M  V30 4064 O 723.566 -6.17651 0.734225 0
M  V30 4065 C 724.756 -8.05808 1.51899 0
M  V30 4066 O 725.146 -8.74358 0.335205 0
M  V30 4067 C 725.636 -6.83093 1.70294 0
M  V30 4068 C 724.926 -5.79992 0.836974 0
M  V30 4069 N 724.976 -4.41864 1.38293 0
M  V30 4070 H 722.137 -8.13644 3.0377 0
M  V30 4071 H 721.867 -6.42788 2.55485 0
M  V30 4072 H 722.734 -8.12039 0.792769 0
M  V30 4073 P 726.696 -8.91 -4.98617e-12 0
M  V30 4074 O 726.916 -10.1736 -0.733766 0
M  V30 4075 O 727.486 -8.73247 1.2395 0
M  V30 4076 O 726.946 -7.66872 -0.971405 0
M  V30 4077 C 726.006 -7.42309 -2.04641 0
M  V30 4078 C 726.736 -6.86059 -3.24661 0
M  V30 4079 O 726.946 -5.42847 -3.03646 0
M  V30 4080 C 728.136 -7.41196 -3.50753 0
M  V30 4081 O 728.526 -7.27073 -4.86816 0
M  V30 4082 C 729.016 -6.5273 -2.63741 0
M  V30 4083 C 728.306 -5.1842 -2.73198 0
M  V30 4084 N 728.356 -4.38668 -1.47808 0
M  V30 4085 C 728.506 -3.00789 -1.58511 0
M  V30 4086 O 728.596 -2.50116 -2.71298 0
M  V30 4087 N 728.556 -2.29703 -0.253698 0
M  V30 4088 C 728.456 -2.84269 0.750133 0
M  V30 4089 N 728.506 -2.06951 1.82612 0
M  V30 4090 C 728.306 -4.25803 0.889776 0
M  V30 4091 C 728.256 -4.98326 -0.259363 0
M  V30 4092 H 725.516 -8.36707 -2.32466 0
M  V30 4093 H 725.247 -6.701 -1.71105 0
M  V30 4094 H 726.114 -7.03638 -4.13219 0
M  V30 4095 H 728.769 -4.59852 -3.53955 0
M  V30 4096 H 729.048 -6.88995 -1.59871 0
M  V30 4097 H 730.04 -6.46749 -3.03687 0
M  V30 4098 H 728.206 -8.46908 -3.20714 0
M  V30 4099 H 728.134 -6.06349 -0.206238 0
M  V30 4100 H 728.236 -4.73163 1.86796 0
M  V30 4101 H 728.624 -1.05099 1.72271 0
M  V30 4102 H 728.427 -2.48716 2.76361 0
M  V30 4103 P 730.076 -7.20834 -5.23717 0
M  V30 4104 O 730.296 -7.7993 -6.57351 0
M  V30 4105 O 730.866 -7.79328 -4.13004 0
M  V30 4106 O 730.326 -5.63315 -5.29344 0
M  V30 4107 C 729.386 -4.80193 -6.01798 0
M  V30 4108 C 730.116 -3.64202 -6.65911 0
M  V30 4109 O 730.326 -2.60694 -5.64732 0
M  V30 4110 C 731.516 -3.93473 -7.1943 0
M  V30 4111 O 731.906 -3.02071 -8.21205 0
M  V30 4112 C 732.396 -3.73047 -5.97036 0
M  V30 4113 C 731.686 -2.58828 -5.25741 0
M  V30 4114 N 731.736 -2.6801 -3.77422 0
M  V30 4115 C 731.886 -1.50443 -3.07133 0
M  V30 4116 O 731.976 -0.419406 -3.61576 0
M  V30 4117 N 731.926 -1.6403 -1.69677 0
M  V30 4118 C 731.836 -2.81206 -0.986255 0
M  V30 4119 O 731.886 -2.80892 0.249754 0
M  V30 4120 C 731.686 -3.99158 -1.80325 0
M  V30 4121 C 731.576 -5.29309 -1.06921 0
M  V30 4122 C 731.636 -3.89779 -3.1476 0
M  V30 4123 H 728.896 -5.40332 -6.79951 0
M  V30 4124 H 728.627 -4.41549 -5.32301 0
M  V30 4125 H 729.494 -3.26331 -7.47797 0
M  V30 4126 H 732.149 -1.6395 -5.56554 0
M  V30 4127 H 732.428 -4.63439 -5.3432 0
M  V30 4128 H 733.42 -3.44728 -6.25838 0
M  V30 4129 H 731.586 -4.96652 -7.57263 0
M  V30 4130 H 731.515 -4.80159 -3.74441 0
M  V30 4131 H 732.545 -5.81459 -1.09608 0
M  V30 4132 H 730.808 -5.9187 -1.54487 0
M  V30 4133 H 731.296 -5.10095 -0.0220288 0
M  V30 4134 H 732.032 -0.798962 -1.16664 0
M  V30 4135 P 733.456 -2.75334 -8.47391 0
M  V30 4136 O 733.676 -2.44571 -9.90142 0
M  V30 4137 O 734.246 -3.87688 -7.92115 0
M  V30 4138 O 733.706 -1.4459 -7.59357 0
M  V30 4139 C 732.766 -0.347608 -7.69215 0
M  V30 4140 C 733.496 0.96767 -7.52806 0
M  V30 4141 O 733.706 1.21036 -6.1011 0
M  V30 4142 C 734.896 1.04544 -8.13308 0
M  V30 4143 O 735.286 2.38311 -8.41922 0
M  V30 4144 C 735.776 0.491279 -7.02284 0
M  V30 4145 C 735.066 0.996264 -5.77469 0
M  V30 4146 N 735.116 0.0501916 -4.62973 0
M  V30 4147 H 732.277 -0.374722 -8.67691 0
M  V30 4148 H 732.007 -0.443485 -6.90277 0
M  V30 4149 H 732.874 1.75537 -7.96793 0
M  V30 4150 P 736.836 2.75334 -8.47391 0
M  V30 4151 O 737.056 3.84128 -9.44797 0
M  V30 4152 O 737.626 1.51947 -8.68712 0
M  V30 4153 O 737.086 3.29363 -6.99321 0
M  V30 4154 C 736.146 4.24011 -6.4274 0
M  V30 4155 C 736.876 5.20775 -5.52155 0
M  V30 4156 O 737.086 4.56534 -4.22446 0
M  V30 4157 C 738.276 5.62629 -5.96531 0
M  V30 4158 O 738.666 6.87667 -5.41053 0
M  V30 4159 C 739.156 4.52537 -5.39283 0
M  V30 4160 C 738.446 4.20027 -4.08623 0
M  V30 4161 N 738.496 2.76189 -3.71603 0
M  V30 4162 H 735.657 4.797 -7.24003 0
M  V30 4163 H 735.387 3.69856 -5.84513 0
M  V30 4164 H 736.254 6.10356 -5.41441 0
M  V30 4165 P 740.216 7.20834 -5.23717 0
M  V30 4166 O 740.436 8.66104 -5.38572 0
M  V30 4167 O 741.006 6.33544 -6.1349 0
M  V30 4168 O 740.466 6.7751 -3.72168 0
M  V30 4169 C 739.526 7.20825 -2.7076 0
M  V30 4170 C 740.256 7.45864 -1.40599 0
M  V30 4171 O 740.466 6.17651 -0.734225 0
M  V30 4172 C 741.656 8.05808 -1.51899 0
M  V30 4173 O 742.046 8.74358 -0.335205 0
M  V30 4174 C 742.536 6.83093 -1.70294 0
M  V30 4175 C 741.826 5.79992 -0.836974 0
M  V30 4176 N 741.876 4.41864 -1.38293 0
M  V30 4177 H 739.037 8.13644 -3.0377 0
M  V30 4178 H 738.767 6.42788 -2.55485 0
M  V30 4179 H 739.634 8.12039 -0.792769 0
M  V30 4180 P 743.596 8.91 5.14336e-12 0
M  V30 4181 O 743.816 10.1726 0.733694 0
M  V30 4182 O 744.386 8.73148 -1.23936 0
M  V30 4183 O 743.846 7.66872 0.971405 0
M  V30 4184 C 742.906 7.42309 2.04641 0
M  V30 4185 C 743.636 6.86059 3.24661 0
M  V30 4186 O 743.846 5.42847 3.03646 0
M  V30 4187 C 745.036 7.41196 3.50753 0
M  V30 4188 O 745.426 7.27073 4.86816 0
M  V30 4189 C 745.916 6.5273 2.63741 0
M  V30 4190 C 745.206 5.1842 2.73198 0
M  V30 4191 N 745.256 4.38762 1.4784 0
M  V30 4192 H 742.417 8.36803 2.32493 0
M  V30 4193 H 742.147 6.70197 1.71129 0
M  V30 4194 H 743.014 7.03551 4.13168 0
M  V30 4195 P 746.976 7.20834 5.23717 0
M  V30 4196 O 747.196 7.79853 6.57286 0
M  V30 4197 O 747.766 7.79239 4.12957 0
M  V30 4198 O 747.226 5.63315 5.29344 0
M  V30 4199 C 746.286 4.80255 6.01876 0
M  V30 4200 C 747.016 3.64202 6.65911 0
M  V30 4201 O 747.226 2.60694 5.64732 0
M  V30 4202 C 748.416 3.93473 7.1943 0
M  V30 4203 O 748.806 3.02071 8.21205 0
M  V30 4204 C 749.296 3.73047 5.97036 0
M  V30 4205 C 748.586 2.58828 5.25741 0
M  V30 4206 N 748.636 2.68068 3.77503 0
M  V30 4207 H 745.797 5.40332 6.79951 0
M  V30 4208 H 745.527 4.41613 5.32378 0
M  V30 4209 H 746.394 3.26331 7.47797 0
M  V30 4210 P 750.356 2.75334 8.47391 0
M  V30 4211 O 750.576 2.44571 9.90142 0
M  V30 4212 O 751.146 3.87688 7.92115 0
M  V30 4213 O 750.606 1.4459 7.59357 0
M  V30 4214 C 749.666 0.347608 7.69215 0
M  V30 4215 C 750.396 -0.96767 7.52806 0
M  V30 4216 O 750.606 -1.21036 6.1011 0
M  V30 4217 C 751.796 -1.04544 8.13308 0
M  V30 4218 O 752.186 -2.38311 8.41922 0
M  V30 4219 C 752.676 -0.491279 7.02284 0
M  V30 4220 C 751.966 -0.996264 5.77469 0
M  V30 4221 N 752.016 -0.0501916 4.62973 0
M  V30 4222 H 749.177 0.374722 8.67691 0
M  V30 4223 H 748.907 0.443485 6.90277 0
M  V30 4224 H 749.774 -1.75537 7.96793 0
M  V30 4225 P 753.736 -2.75334 8.47391 0
M  V30 4226 O 753.956 -3.84128 9.44797 0
M  V30 4227 O 754.526 -1.51947 8.68712 0
M  V30 4228 O 753.986 -3.29363 6.99321 0
M  V30 4229 C 753.046 -4.24011 6.4274 0
M  V30 4230 C 753.776 -5.20775 5.52155 0
M  V30 4231 O 753.986 -4.56534 4.22446 0
M  V30 4232 C 755.176 -5.62629 5.96531 0
M  V30 4233 O 755.566 -6.87667 5.41053 0
M  V30 4234 C 756.056 -4.52537 5.39283 0
M  V30 4235 C 755.346 -4.20027 4.08623 0
M  V30 4236 N 755.396 -2.76189 3.71603 0
M  V30 4237 H 752.557 -4.797 7.24003 0
M  V30 4238 H 752.287 -3.69856 5.84513 0
M  V30 4239 H 753.154 -6.10356 5.41441 0
M  V30 4240 P 757.116 -7.20834 5.23717 0
M  V30 4241 O 757.336 -8.66104 5.38572 0
M  V30 4242 O 757.906 -6.33544 6.1349 0
M  V30 4243 O 757.366 -6.7751 3.72168 0
M  V30 4244 C 756.426 -7.20825 2.7076 0
M  V30 4245 C 757.156 -7.45864 1.40599 0
M  V30 4246 O 757.366 -6.17651 0.734225 0
M  V30 4247 C 758.556 -8.05808 1.51899 0
M  V30 4248 O 758.946 -8.74358 0.335205 0
M  V30 4249 C 759.436 -6.83093 1.70294 0
M  V30 4250 C 758.726 -5.79992 0.836974 0
M  V30 4251 N 758.776 -4.41864 1.38293 0
M  V30 4252 H 755.937 -8.13644 3.0377 0
M  V30 4253 H 755.667 -6.42788 2.55485 0
M  V30 4254 H 756.534 -8.12039 0.792769 0
M  V30 4255 P 760.496 -8.91 -5.30054e-12 0
M  V30 4256 O 760.716 -10.1726 -0.733694 0
M  V30 4257 O 761.286 -8.73148 1.23936 0
M  V30 4258 O 760.746 -7.66872 -0.971405 0
M  V30 4259 C 759.806 -7.42309 -2.04641 0
M  V30 4260 C 760.536 -6.86059 -3.24661 0
M  V30 4261 O 760.746 -5.42847 -3.03646 0
M  V30 4262 C 761.936 -7.41196 -3.50753 0
M  V30 4263 O 762.326 -7.27073 -4.86816 0
M  V30 4264 C 762.816 -6.5273 -2.63741 0
M  V30 4265 C 762.106 -5.1842 -2.73198 0
M  V30 4266 N 762.156 -4.38762 -1.4784 0
M  V30 4267 H 759.317 -8.36803 -2.32493 0
M  V30 4268 H 759.047 -6.70197 -1.71129 0
M  V30 4269 H 759.914 -7.03551 -4.13168 0
M  V30 4270 P 763.875 -7.20834 -5.23717 0
M  V30 4271 O 764.095 -7.79853 -6.57286 0
M  V30 4272 O 764.665 -7.79239 -4.12957 0
M  V30 4273 O 764.125 -5.63315 -5.29344 0
M  V30 4274 C 763.185 -4.80255 -6.01876 0
M  V30 4275 C 763.915 -3.64202 -6.65911 0
M  V30 4276 O 764.125 -2.60694 -5.64732 0
M  V30 4277 C 765.315 -3.93473 -7.1943 0
M  V30 4278 O 765.705 -3.02071 -8.21205 0
M  V30 4279 C 766.195 -3.73047 -5.97036 0
M  V30 4280 C 765.485 -2.58828 -5.25741 0
M  V30 4281 N 765.535 -2.68068 -3.77503 0
M  V30 4282 H 762.696 -5.40332 -6.79951 0
M  V30 4283 H 762.426 -4.41613 -5.32378 0
M  V30 4284 H 763.293 -3.26331 -7.47797 0
M  V30 4285 P 767.255 -2.75334 -8.47391 0
M  V30 4286 O 767.475 -2.44571 -9.90142 0
M  V30 4287 O 768.045 -3.87688 -7.92115 0
M  V30 4288 O 767.505 -1.4459 -7.59357 0
M  V30 4289 C 766.565 -0.347608 -7.69215 0
M  V30 4290 C 767.295 0.96767 -7.52806 0
M  V30 4291 O 767.505 1.21036 -6.1011 0
M  V30 4292 C 768.695 1.04544 -8.13308 0
M  V30 4293 O 769.085 2.38311 -8.41922 0
M  V30 4294 C 769.575 0.491279 -7.02284 0
M  V30 4295 C 768.865 0.996264 -5.77469 0
M  V30 4296 N 768.915 0.0501916 -4.62973 0
M  V30 4297 H 766.076 -0.374722 -8.67691 0
M  V30 4298 H 765.806 -0.443485 -6.90277 0
M  V30 4299 H 766.673 1.75537 -7.96793 0
M  V30 4300 P 770.635 2.75334 -8.47391 0
M  V30 4301 O 770.855 3.84128 -9.44797 0
M  V30 4302 O 771.425 1.51947 -8.68712 0
M  V30 4303 O 770.885 3.29363 -6.99321 0
M  V30 4304 C 769.945 4.24011 -6.4274 0
M  V30 4305 C 770.675 5.20775 -5.52155 0
M  V30 4306 O 770.885 4.56534 -4.22446 0
M  V30 4307 C 772.075 5.62629 -5.96531 0
M  V30 4308 O 772.465 6.87667 -5.41053 0
M  V30 4309 C 772.955 4.52537 -5.39283 0
M  V30 4310 C 772.245 4.20027 -4.08623 0
M  V30 4311 N 772.295 2.76189 -3.71603 0
M  V30 4312 H 769.456 4.797 -7.24003 0
M  V30 4313 H 769.186 3.69856 -5.84513 0
M  V30 4314 H 770.053 6.10356 -5.41441 0
M  V30 4315 P 774.015 7.20834 -5.23717 0
M  V30 4316 O 774.235 8.66104 -5.38572 0
M  V30 4317 O 774.805 6.33544 -6.1349 0
M  V30 4318 O 774.265 6.7751 -3.72168 0
M  V30 4319 C 773.325 7.20825 -2.7076 0
M  V30 4320 C 774.055 7.45864 -1.40599 0
M  V30 4321 O 774.265 6.17651 -0.734225 0
M  V30 4322 C 775.455 8.05808 -1.51899 0
M  V30 4323 O 775.845 8.74358 -0.335205 0
M  V30 4324 C 776.335 6.83093 -1.70294 0
M  V30 4325 C 775.625 5.79992 -0.836974 0
M  V30 4326 N 775.675 4.41864 -1.38293 0
M  V30 4327 H 772.836 8.13644 -3.0377 0
M  V30 4328 H 772.566 6.42788 -2.55485 0
M  V30 4329 H 773.433 8.12039 -0.792769 0
M  V30 4330 P 777.395 8.91 5.45772e-12 0
M  V30 4331 O 777.615 10.1726 0.733694 0
M  V30 4332 O 778.185 8.73148 -1.23936 0
M  V30 4333 O 777.645 7.66872 0.971405 0
M  V30 4334 C 776.705 7.42309 2.04641 0
M  V30 4335 C 777.435 6.86059 3.24661 0
M  V30 4336 O 777.645 5.42847 3.03646 0
M  V30 4337 C 778.835 7.41196 3.50753 0
M  V30 4338 O 779.225 7.27073 4.86816 0
M  V30 4339 C 779.715 6.5273 2.63741 0
M  V30 4340 C 779.005 5.1842 2.73198 0
M  V30 4341 N 779.055 4.38762 1.4784 0
M  V30 4342 H 776.216 8.36803 2.32493 0
M  V30 4343 H 775.946 6.70197 1.71129 0
M  V30 4344 H 776.813 7.03551 4.13168 0
M  V30 4345 P 780.775 7.20834 5.23717 0
M  V30 4346 O 780.995 7.79853 6.57286 0
M  V30 4347 O 781.565 7.79239 4.12957 0
M  V30 4348 O 781.025 5.63315 5.29344 0
M  V30 4349 C 780.085 4.80255 6.01876 0
M  V30 4350 C 780.815 3.64202 6.65911 0
M  V30 4351 O 781.025 2.60694 5.64732 0
M  V30 4352 C 782.215 3.93473 7.1943 0
M  V30 4353 O 782.605 3.02071 8.21205 0
M  V30 4354 C 783.095 3.73047 5.97036 0
M  V30 4355 C 782.385 2.58828 5.25741 0
M  V30 4356 N 782.435 2.68068 3.77503 0
M  V30 4357 H 779.596 5.40332 6.79951 0
M  V30 4358 H 779.326 4.41613 5.32378 0
M  V30 4359 H 780.193 3.26331 7.47797 0
M  V30 4360 P 784.155 2.75334 8.47391 0
M  V30 4361 O 784.375 2.44619 9.90336 0
M  V30 4362 O 784.945 3.87776 7.92294 0
M  V30 4363 O 784.405 1.4459 7.59357 0
M  V30 4364 C 783.465 0.347653 7.69315 0
M  V30 4365 C 784.195 -0.96767 7.52806 0
M  V30 4366 O 784.405 -1.21055 6.10208 0
M  V30 4367 C 785.595 -1.04557 8.13408 0
M  V30 4368 O 785.985 -2.38311 8.41922 0
M  V30 4369 C 786.475 -0.491279 7.02284 0
M  V30 4370 C 785.765 -0.996264 5.77469 0
M  V30 4371 N 785.815 -0.0501916 4.62973 0
M  V30 4372 H 782.977 0.374765 8.67791 0
M  V30 4373 H 782.705 0.443613 6.90476 0
M  V30 4374 H 783.573 -1.75559 7.96891 0
M  V30 4375 H 786.228 -1.94563 5.46818 0
M  V30 4376 H 786.508 0.608651 7.04676 0
M  V30 4377 H 787.499 -0.889796 7.09039 0
M  V30 4378 H 785.665 -0.433128 9.04664 0
M  V30 4379 P 787.535 -2.75334 8.47391 0
M  V30 4380 O 787.755 -3.84128 9.44797 0
M  V30 4381 O 788.325 -1.51947 8.68712 0
M  V30 4382 O 787.785 -3.29363 6.99321 0
M  V30 4383 C 786.845 -4.24011 6.4274 0
M  V30 4384 C 787.575 -5.20775 5.52155 0
M  V30 4385 O 787.785 -4.56534 4.22446 0
M  V30 4386 C 788.975 -5.62629 5.96531 0
M  V30 4387 O 789.365 -6.87667 5.41053 0
M  V30 4388 C 789.855 -4.52537 5.39283 0
M  V30 4389 C 789.145 -4.20027 4.08623 0
M  V30 4390 N 789.195 -2.76189 3.71603 0
M  V30 4391 H 786.356 -4.797 7.24003 0
M  V30 4392 H 786.086 -3.69856 5.84513 0
M  V30 4393 H 786.953 -6.10356 5.41441 0
M  V30 4394 P 790.915 -7.20834 5.23717 0
M  V30 4395 O 791.135 -8.66104 5.38572 0
M  V30 4396 O 791.705 -6.33544 6.1349 0
M  V30 4397 O 791.165 -6.7751 3.72168 0
M  V30 4398 C 790.225 -7.20825 2.7076 0
M  V30 4399 C 790.955 -7.45864 1.40599 0
M  V30 4400 O 791.165 -6.17651 0.734225 0
M  V30 4401 C 792.355 -8.05808 1.51899 0
M  V30 4402 O 792.745 -8.74358 0.335205 0
M  V30 4403 C 793.235 -6.83093 1.70294 0
M  V30 4404 C 792.525 -5.79992 0.836974 0
M  V30 4405 N 792.575 -4.41864 1.38293 0
M  V30 4406 H 789.736 -8.13644 3.0377 0
M  V30 4407 H 789.466 -6.42788 2.55485 0
M  V30 4408 H 790.333 -8.12039 0.792769 0
M  V30 4409 P 794.295 -8.91 -5.6149e-12 0
M  V30 4410 O 794.515 -10.1746 -0.733838 0
M  V30 4411 O 795.085 -8.73346 1.23964 0
M  V30 4412 O 794.545 -7.66872 -0.971405 0
M  V30 4413 C 793.605 -7.42405 -2.04668 0
M  V30 4414 C 794.335 -6.86059 -3.24661 0
M  V30 4415 O 794.545 -5.42934 -3.03695 0
M  V30 4416 C 795.735 -7.41287 -3.50796 0
M  V30 4417 O 796.125 -7.27073 -4.86816 0
M  V30 4418 C 796.615 -6.5273 -2.63741 0
M  V30 4419 C 795.905 -5.1842 -2.73198 0
M  V30 4420 N 795.955 -4.38762 -1.4784 0
M  V30 4421 C 795.875 -4.83651 -0.183876 0
M  V30 4422 N 795.945 -3.88759 0.699393 0
M  V30 4423 C 796.095 -2.7404 -0.0575568 0
M  V30 4424 C 796.225 -1.37902 0.293928 0
M  V30 4425 N 796.235 -0.938021 1.54797 0
M  V30 4426 N 796.345 -0.491817 -0.70549 0
M  V30 4427 C 796.335 -0.931735 -1.95979 0
M  V30 4428 N 796.215 -2.16017 -2.41481 0
M  V30 4429 C 796.095 -3.02547 -1.39121 0
M  V30 4430 H 793.117 -8.36899 -2.3252 0
M  V30 4431 H 792.845 -6.70391 -1.71179 0
M  V30 4432 H 793.713 -7.03638 -4.13219 0
M  V30 4433 H 796.368 -4.59931 -3.54016 0
M  V30 4434 H 796.648 -6.88995 -1.59871 0
M  V30 4435 H 797.639 -6.4684 -3.0373 0
M  V30 4436 H 795.805 -8.47002 -3.20749 0
M  V30 4437 H 795.764 -5.8885 0.0765548 0
M  V30 4438 H 796.145 -1.60276 2.32875 0
M  V30 4439 H 796.334 0.0699355 1.73859 0
M  V30 4440 H 796.442 -0.165507 -2.71897 0
M  V30 4441 P 797.675 -7.20834 -5.23717 0
M  V30 4442 O 797.895 -7.79853 -6.57286 0
M  V30 4443 O 798.465 -7.79239 -4.12957 0
M  V30 4444 O 797.925 -5.63315 -5.29344 0
M  V30 4445 C 796.985 -4.80255 -6.01876 0
M  V30 4446 C 797.715 -3.64202 -6.65911 0
M  V30 4447 O 797.925 -2.60694 -5.64732 0
M  V30 4448 C 799.115 -3.93473 -7.1943 0
M  V30 4449 O 799.505 -3.02071 -8.21205 0
M  V30 4450 C 799.995 -3.73047 -5.97036 0
M  V30 4451 C 799.285 -2.58828 -5.25741 0
M  V30 4452 N 799.335 -2.68068 -3.77503 0
M  V30 4453 H 796.496 -5.40332 -6.79951 0
M  V30 4454 H 796.226 -4.41613 -5.32378 0
M  V30 4455 H 797.093 -3.26331 -7.47797 0
M  V30 4456 P 801.055 -2.75334 -8.47391 0
M  V30 4457 O 801.275 -2.44571 -9.90142 0
M  V30 4458 O 801.845 -3.87688 -7.92115 0
M  V30 4459 O 801.305 -1.4459 -7.59357 0
M  V30 4460 C 800.365 -0.347608 -7.69215 0
M  V30 4461 C 801.095 0.96767 -7.52806 0
M  V30 4462 O 801.305 1.21036 -6.1011 0
M  V30 4463 C 802.495 1.04544 -8.13308 0
M  V30 4464 O 802.885 2.38311 -8.41922 0
M  V30 4465 C 803.375 0.491279 -7.02284 0
M  V30 4466 C 802.665 0.996264 -5.77469 0
M  V30 4467 N 802.715 0.0501916 -4.62973 0
M  V30 4468 H 799.876 -0.374722 -8.67691 0
M  V30 4469 H 799.606 -0.443485 -6.90277 0
M  V30 4470 H 800.473 1.75537 -7.96793 0
M  V30 4471 P 804.435 2.75334 -8.47391 0
M  V30 4472 O 804.655 3.84128 -9.44797 0
M  V30 4473 O 805.225 1.51947 -8.68712 0
M  V30 4474 O 804.685 3.29363 -6.99321 0
M  V30 4475 C 803.745 4.24011 -6.4274 0
M  V30 4476 C 804.475 5.20775 -5.52155 0
M  V30 4477 O 804.685 4.56534 -4.22446 0
M  V30 4478 C 805.875 5.62629 -5.96531 0
M  V30 4479 O 806.265 6.87667 -5.41053 0
M  V30 4480 C 806.755 4.52537 -5.39283 0
M  V30 4481 C 806.045 4.20027 -4.08623 0
M  V30 4482 N 806.095 2.76189 -3.71603 0
M  V30 4483 H 803.256 4.797 -7.24003 0
M  V30 4484 H 802.986 3.69856 -5.84513 0
M  V30 4485 H 803.853 6.10356 -5.41441 0
M  V30 4486 P 807.815 7.20834 -5.23717 0
M  V30 4487 O 808.035 8.66189 -5.38625 0
M  V30 4488 O 808.605 6.33615 -6.1356 0
M  V30 4489 O 808.065 6.7751 -3.72168 0
M  V30 4490 C 807.125 7.20732 -2.70725 0
M  V30 4491 C 807.855 7.45864 -1.40599 0
M  V30 4492 O 808.065 6.17651 -0.734225 0
M  V30 4493 C 809.255 8.05808 -1.51899 0
M  V30 4494 O 809.645 8.74358 -0.335205 0
M  V30 4495 C 810.135 6.83093 -1.70294 0
M  V30 4496 C 809.425 5.79992 -0.836974 0
M  V30 4497 N 809.475 4.41769 -1.38263 0
M  V30 4498 C 809.625 3.38591 -0.481702 0
M  V30 4499 O 809.715 3.56839 0.718452 0
M  V30 4500 N 809.665 2.1206 -1.03569 0
M  V30 4501 C 809.575 1.80696 -2.36966 0
M  V30 4502 O 809.625 0.630473 -2.74862 0
M  V30 4503 C 809.425 2.94845 -3.23898 0
M  V30 4504 C 809.315 2.65253 -4.70362 0
M  V30 4505 C 809.375 4.19803 -2.73435 0
M  V30 4506 H 806.635 8.13644 -3.0377 0
M  V30 4507 H 806.366 6.42695 -2.55448 0
M  V30 4508 H 807.233 8.12039 -0.792769 0
M  V30 4509 H 809.888 5.79978 0.160587 0
M  V30 4510 H 810.167 6.51379 -2.75643 0
M  V30 4511 H 811.159 7.01734 -1.34462 0
M  V30 4512 H 809.325 8.73674 -2.38337 0
M  V30 4513 H 809.254 5.04492 -3.4095 0
M  V30 4514 H 810.284 2.83924 -5.1913 0
M  V30 4515 H 808.547 3.29824 -5.15163 0
M  V30 4516 H 809.035 1.59723 -4.84449 0
M  V30 4517 H 809.771 1.35644 -0.399345 0
M  V30 4518 P 811.195 8.91 5.77209e-12 0
M  V30 4519 O 811.415 10.1726 0.733694 0
M  V30 4520 O 811.985 8.73148 -1.23936 0
M  V30 4521 O 811.445 7.66872 0.971405 0
M  V30 4522 C 810.505 7.42309 2.04641 0
M  V30 4523 C 811.235 6.86059 3.24661 0
M  V30 4524 O 811.445 5.42847 3.03646 0
M  V30 4525 C 812.635 7.41196 3.50753 0
M  V30 4526 O 813.025 7.27073 4.86816 0
M  V30 4527 C 813.515 6.5273 2.63741 0
M  V30 4528 C 812.805 5.1842 2.73198 0
M  V30 4529 N 812.855 4.38762 1.4784 0
M  V30 4530 H 810.016 8.36803 2.32493 0
M  V30 4531 H 809.746 6.70197 1.71129 0
M  V30 4532 H 810.613 7.03551 4.13168 0
M  V30 4533 P 814.575 7.20834 5.23717 0
M  V30 4534 O 814.795 7.79853 6.57286 0
M  V30 4535 O 815.365 7.79239 4.12957 0
M  V30 4536 O 814.825 5.63315 5.29344 0
M  V30 4537 C 813.885 4.80255 6.01876 0
M  V30 4538 C 814.615 3.64202 6.65911 0
M  V30 4539 O 814.825 2.60694 5.64732 0
M  V30 4540 C 816.015 3.93473 7.1943 0
M  V30 4541 O 816.405 3.02071 8.21205 0
M  V30 4542 C 816.895 3.73047 5.97036 0
M  V30 4543 C 816.185 2.58828 5.25741 0
M  V30 4544 N 816.235 2.68068 3.77503 0
M  V30 4545 H 813.396 5.40332 6.79951 0
M  V30 4546 H 813.126 4.41613 5.32378 0
M  V30 4547 H 813.993 3.26331 7.47797 0
M  V30 4548 P 817.955 2.75334 8.47391 0
M  V30 4549 O 818.175 2.44571 9.90142 0
M  V30 4550 O 818.745 3.87688 7.92115 0
M  V30 4551 O 818.205 1.4459 7.59357 0
M  V30 4552 C 817.265 0.347608 7.69215 0
M  V30 4553 C 817.995 -0.96767 7.52806 0
M  V30 4554 O 818.205 -1.21036 6.1011 0
M  V30 4555 C 819.395 -1.04544 8.13308 0
M  V30 4556 O 819.785 -2.38311 8.41922 0
M  V30 4557 C 820.275 -0.491279 7.02284 0
M  V30 4558 C 819.565 -0.996264 5.77469 0
M  V30 4559 N 819.615 -0.0501916 4.62973 0
M  V30 4560 C 819.535 1.32786 4.63244 0
M  V30 4561 N 819.615 1.86957 3.44545 0
M  V30 4562 C 819.755 0.780241 2.58481 0
M  V30 4563 C 819.885 0.738536 1.17757 0
M  V30 4564 O 819.905 1.66794 0.372349 0
M  V30 4565 N 820.005 -0.58337 0.711393 0
M  V30 4566 C 820.005 -1.70816 1.51017 0
M  V30 4567 N 820.135 -2.87826 0.880757 0
M  V30 4568 N 819.875 -1.67126 2.8339 0
M  V30 4569 C 819.755 -0.401421 3.30572 0
M  V30 4570 H 816.776 0.374722 8.67691 0
M  V30 4571 H 816.506 0.443485 6.90277 0
M  V30 4572 H 817.373 -1.75537 7.96793 0
M  V30 4573 H 820.028 -1.95076 5.46529 0
M  V30 4574 H 820.307 0.608565 7.04577 0
M  V30 4575 H 821.299 -0.889672 7.08939 0
M  V30 4576 H 819.465 -0.43308 9.04564 0
M  V30 4577 H 819.416 1.91249 5.54442 0
M  V30 4578 H 820.098 -0.718054 -0.275244 0
M  V30 4579 H 820.135 -3.75721 1.41832 0
M  V30 4580 H 820.236 -2.90436 -0.145468 0
M  V30 4581 P 821.335 -2.75334 8.47391 0
M  V30 4582 O 821.555 -3.84128 9.44797 0
M  V30 4583 O 822.125 -1.51947 8.68712 0
M  V30 4584 O 821.585 -3.29363 6.99321 0
M  V30 4585 C 820.645 -4.24011 6.4274 0
M  V30 4586 C 821.375 -5.20775 5.52155 0
M  V30 4587 O 821.585 -4.56534 4.22446 0
M  V30 4588 C 822.775 -5.62629 5.96531 0
M  V30 4589 O 823.165 -6.87667 5.41053 0
M  V30 4590 C 823.655 -4.52537 5.39283 0
M  V30 4591 C 822.945 -4.20027 4.08623 0
M  V30 4592 N 822.995 -2.76189 3.71603 0
M  V30 4593 H 820.156 -4.797 7.24003 0
M  V30 4594 H 819.886 -3.69856 5.84513 0
M  V30 4595 H 820.753 -6.10356 5.41441 0
M  V30 4596 P 824.715 -7.20834 5.23717 0
M  V30 4597 O 824.935 -8.66104 5.38572 0
M  V30 4598 O 825.505 -6.33544 6.1349 0
M  V30 4599 O 824.965 -6.7751 3.72168 0
M  V30 4600 C 824.025 -7.20825 2.7076 0
M  V30 4601 C 824.755 -7.45864 1.40599 0
M  V30 4602 O 824.965 -6.17651 0.734225 0
M  V30 4603 C 826.155 -8.05808 1.51899 0
M  V30 4604 O 826.545 -8.74358 0.335205 0
M  V30 4605 C 827.035 -6.83093 1.70294 0
M  V30 4606 C 826.325 -5.79992 0.836974 0
M  V30 4607 N 826.375 -4.41864 1.38293 0
M  V30 4608 H 823.536 -8.13644 3.0377 0
M  V30 4609 H 823.266 -6.42788 2.55485 0
M  V30 4610 H 824.133 -8.12039 0.792769 0
M  V30 4611 P 828.095 -8.91 -5.92927e-12 0
M  V30 4612 O 828.315 -10.1726 -0.733694 0
M  V30 4613 O 828.885 -8.73148 1.23936 0
M  V30 4614 O 828.345 -7.66872 -0.971405 0
M  V30 4615 C 827.405 -7.42309 -2.04641 0
M  V30 4616 C 828.135 -6.86059 -3.24661 0
M  V30 4617 O 828.345 -5.42847 -3.03646 0
M  V30 4618 C 829.535 -7.41196 -3.50753 0
M  V30 4619 O 829.925 -7.27073 -4.86816 0
M  V30 4620 C 830.415 -6.5273 -2.63741 0
M  V30 4621 C 829.705 -5.1842 -2.73198 0
M  V30 4622 N 829.755 -4.38762 -1.4784 0
M  V30 4623 H 826.916 -8.36803 -2.32493 0
M  V30 4624 H 826.646 -6.70197 -1.71129 0
M  V30 4625 H 827.513 -7.03551 -4.13168 0
M  V30 4626 P 831.475 -7.20834 -5.23717 0
M  V30 4627 O 831.695 -7.79853 -6.57286 0
M  V30 4628 O 832.265 -7.79239 -4.12957 0
M  V30 4629 O 831.725 -5.63315 -5.29344 0
M  V30 4630 C 830.785 -4.80255 -6.01876 0
M  V30 4631 C 831.515 -3.64202 -6.65911 0
M  V30 4632 O 831.725 -2.60694 -5.64732 0
M  V30 4633 C 832.915 -3.93473 -7.1943 0
M  V30 4634 O 833.305 -3.02071 -8.21205 0
M  V30 4635 C 833.795 -3.73047 -5.97036 0
M  V30 4636 C 833.085 -2.58828 -5.25741 0
M  V30 4637 N 833.135 -2.68068 -3.77503 0
M  V30 4638 H 830.296 -5.40332 -6.79951 0
M  V30 4639 H 830.026 -4.41613 -5.32378 0
M  V30 4640 H 830.893 -3.26331 -7.47797 0
M  V30 4641 P 834.855 -2.75334 -8.47391 0
M  V30 4642 O 835.075 -2.44571 -9.90142 0
M  V30 4643 O 835.645 -3.87688 -7.92115 0
M  V30 4644 O 835.105 -1.4459 -7.59357 0
M  V30 4645 C 834.165 -0.347608 -7.69215 0
M  V30 4646 C 834.895 0.96767 -7.52806 0
M  V30 4647 O 835.105 1.21036 -6.1011 0
M  V30 4648 C 836.295 1.04544 -8.13308 0
M  V30 4649 O 836.685 2.38311 -8.41922 0
M  V30 4650 C 837.175 0.491279 -7.02284 0
M  V30 4651 C 836.465 0.996264 -5.77469 0
M  V30 4652 N 836.515 0.0501916 -4.62973 0
M  V30 4653 H 833.676 -0.374722 -8.67691 0
M  V30 4654 H 833.406 -0.443485 -6.90277 0
M  V30 4655 H 834.273 1.75537 -7.96793 0
M  V30 4656 P 838.235 2.75334 -8.47391 0
M  V30 4657 O 838.455 3.84128 -9.44797 0
M  V30 4658 O 839.025 1.51947 -8.68712 0
M  V30 4659 O 838.485 3.29363 -6.99321 0
M  V30 4660 C 837.545 4.24011 -6.4274 0
M  V30 4661 C 838.275 5.20775 -5.52155 0
M  V30 4662 O 838.485 4.56534 -4.22446 0
M  V30 4663 C 839.675 5.62629 -5.96531 0
M  V30 4664 O 840.065 6.87667 -5.41053 0
M  V30 4665 C 840.555 4.52537 -5.39283 0
M  V30 4666 C 839.845 4.20027 -4.08623 0
M  V30 4667 N 839.895 2.76189 -3.71603 0
M  V30 4668 H 837.056 4.797 -7.24003 0
M  V30 4669 H 836.786 3.69856 -5.84513 0
M  V30 4670 H 837.653 6.10356 -5.41441 0
M  V30 4671 P 841.615 7.20834 -5.23717 0
M  V30 4672 O 841.835 8.66104 -5.38572 0
M  V30 4673 O 842.405 6.33544 -6.1349 0
M  V30 4674 O 841.865 6.7751 -3.72168 0
M  V30 4675 C 840.925 7.20825 -2.7076 0
M  V30 4676 C 841.655 7.45864 -1.40599 0
M  V30 4677 O 841.865 6.17651 -0.734225 0
M  V30 4678 C 843.055 8.05808 -1.51899 0
M  V30 4679 O 843.445 8.74358 -0.335205 0
M  V30 4680 C 843.935 6.83093 -1.70294 0
M  V30 4681 C 843.225 5.79992 -0.836974 0
M  V30 4682 N 843.275 4.41864 -1.38293 0
M  V30 4683 H 840.436 8.13644 -3.0377 0
M  V30 4684 H 840.166 6.42788 -2.55485 0
M  V30 4685 H 841.033 8.12039 -0.792769 0
M  V30 4686 P 844.995 8.91 6.08645e-12 0
M  V30 4687 O 845.215 10.1726 0.733694 0
M  V30 4688 O 845.785 8.73148 -1.23936 0
M  V30 4689 O 845.245 7.66872 0.971405 0
M  V30 4690 C 844.305 7.42309 2.04641 0
M  V30 4691 C 845.035 6.86059 3.24661 0
M  V30 4692 O 845.245 5.42847 3.03646 0
M  V30 4693 C 846.435 7.41196 3.50753 0
M  V30 4694 O 846.825 7.27073 4.86816 0
M  V30 4695 C 847.315 6.5273 2.63741 0
M  V30 4696 C 846.605 5.1842 2.73198 0
M  V30 4697 N 846.655 4.38762 1.4784 0
M  V30 4698 H 843.816 8.36803 2.32493 0
M  V30 4699 H 843.546 6.70197 1.71129 0
M  V30 4700 H 844.413 7.03551 4.13168 0
M  V30 4701 P 848.375 7.20834 5.23717 0
M  V30 4702 O 848.595 7.79853 6.57286 0
M  V30 4703 O 849.165 7.79239 4.12957 0
M  V30 4704 O 848.625 5.63315 5.29344 0
M  V30 4705 C 847.685 4.80255 6.01876 0
M  V30 4706 C 848.415 3.64202 6.65911 0
M  V30 4707 O 848.625 2.60694 5.64732 0
M  V30 4708 C 849.815 3.93473 7.1943 0
M  V30 4709 O 850.205 3.02071 8.21205 0
M  V30 4710 C 850.695 3.73047 5.97036 0
M  V30 4711 C 849.985 2.58828 5.25741 0
M  V30 4712 N 850.035 2.68068 3.77503 0
M  V30 4713 H 847.196 5.40332 6.79951 0
M  V30 4714 H 846.926 4.41613 5.32378 0
M  V30 4715 H 847.793 3.26331 7.47797 0
M  V30 4716 P 851.755 2.75334 8.47391 0
M  V30 4717 O 851.975 2.44571 9.90142 0
M  V30 4718 O 852.545 3.87688 7.92115 0
M  V30 4719 O 852.005 1.4459 7.59357 0
M  V30 4720 C 851.065 0.347608 7.69215 0
M  V30 4721 C 851.795 -0.96767 7.52806 0
M  V30 4722 O 852.005 -1.21036 6.1011 0
M  V30 4723 C 853.195 -1.04544 8.13308 0
M  V30 4724 O 853.585 -2.38311 8.41922 0
M  V30 4725 C 854.075 -0.491279 7.02284 0
M  V30 4726 C 853.365 -0.996264 5.77469 0
M  V30 4727 N 853.415 -0.0501916 4.62973 0
M  V30 4728 H 850.576 0.374722 8.67691 0
M  V30 4729 H 850.306 0.443485 6.90277 0
M  V30 4730 H 851.173 -1.75537 7.96793 0
M  V30 4731 P 855.135 -2.75334 8.47391 0
M  V30 4732 O 855.355 -3.84166 9.4489 0
M  V30 4733 O 855.925 -1.51964 8.6881 0
M  V30 4734 O 855.385 -3.29363 6.99321 0
M  V30 4735 C 854.445 -4.23956 6.42656 0
M  V30 4736 C 855.175 -5.20775 5.52155 0
M  V30 4737 O 855.385 -4.56534 4.22446 0
M  V30 4738 C 856.575 -5.62629 5.96531 0
M  V30 4739 O 856.965 -6.87667 5.41053 0
M  V30 4740 C 857.455 -4.52537 5.39283 0
M  V30 4741 C 856.745 -4.20027 4.08623 0
M  V30 4742 N 856.795 -2.7613 3.71522 0
M  V30 4743 C 856.945 -2.45612 2.37989 0
M  V30 4744 O 857.035 -3.30919 1.51621 0
M  V30 4745 N 856.985 -1.10684 2.08435 0
M  V30 4746 C 856.895 -0.0690084 2.9792 0
M  V30 4747 O 856.945 1.10553 2.59426 0
M  V30 4748 C 856.745 -0.481522 4.35345 0
M  V30 4749 C 856.635 0.618778 5.36443 0
M  V30 4750 C 856.695 -1.78906 4.67968 0
M  V30 4751 H 853.955 -4.797 7.24003 0
M  V30 4752 H 853.686 -3.69802 5.84429 0
M  V30 4753 H 854.553 -6.10356 5.41441 0
M  V30 4754 H 857.208 -4.78651 3.27911 0
M  V30 4755 H 857.487 -3.64957 6.05871 0
M  V30 4756 H 858.479 -4.8868 5.2125 0
M  V30 4757 H 856.645 -5.66726 7.06352 0
M  V30 4758 H 856.574 -2.07737 5.72367 0
M  V30 4759 H 857.604 0.754375 5.86871 0
M  V30 4760 H 855.867 0.359721 6.10641 0
M  V30 4761 H 856.355 1.55533 4.8581 0
M  V30 4762 H 857.091 -0.862651 1.12037 0
M  V30 4763 P 858.515 -7.20834 5.23717 0
M  V30 4764 O 858.735 -8.66104 5.38572 0
M  V30 4765 O 859.305 -6.33544 6.1349 0
M  V30 4766 O 858.765 -6.7751 3.72168 0
M  V30 4767 C 857.825 -7.20825 2.7076 0
M  V30 4768 C 858.555 -7.45864 1.40599 0
M  V30 4769 O 858.765 -6.17651 0.734225 0
M  V30 4770 C 859.955 -8.05808 1.51899 0
M  V30 4771 O 860.345 -8.74358 0.335205 0
M  V30 4772 C 860.835 -6.83093 1.70294 0
M  V30 4773 C 860.125 -5.79992 0.836974 0
M  V30 4774 N 860.175 -4.41864 1.38293 0
M  V30 4775 C 860.095 -3.99538 2.69438 0
M  V30 4776 N 860.175 -2.69909 2.84277 0
M  V30 4777 C 860.315 -2.21719 1.5408 0
M  V30 4778 C 860.445 -0.891712 1.06628 0
M  V30 4779 O 860.465 0.161298 1.70137 0
M  V30 4780 N 860.565 -0.856846 -0.334985 0
M  V30 4781 C 860.565 -1.9641 -1.15789 0
M  V30 4782 N 860.695 -1.72708 -2.46522 0
M  V30 4783 N 860.435 -3.21165 -0.713741 0
M  V30 4784 C 860.315 -3.26797 0.639748 0
M  V30 4785 H 857.336 -8.13644 3.0377 0
M  V30 4786 H 857.066 -6.42788 2.55485 0
M  V30 4787 H 857.933 -8.12039 0.792769 0
M  V30 4788 H 860.588 -5.80061 -0.166416 0
M  V30 4789 H 860.867 -6.51287 2.75604 0
M  V30 4790 H 861.859 -7.01734 1.34462 0
M  V30 4791 H 860.025 -8.73674 2.38337 0
M  V30 4792 H 859.976 -4.68207 3.53221 0
M  V30 4793 H 860.658 0.0398818 -0.767965 0
M  V30 4794 H 860.695 -2.50995 -3.13503 0
M  V30 4795 H 860.796 -0.759148 -2.80716 0
M  V30 4796 P 861.895 -8.91 -6.24363e-12 0
M  V30 4797 O 862.115 -10.1726 -0.733694 0
M  V30 4798 O 862.685 -8.73148 1.23936 0
M  V30 4799 O 862.145 -7.66872 -0.971405 0
M  V30 4800 C 861.205 -7.42309 -2.04641 0
M  V30 4801 C 861.935 -6.86059 -3.24661 0
M  V30 4802 O 862.145 -5.42847 -3.03646 0
M  V30 4803 C 863.335 -7.41196 -3.50753 0
M  V30 4804 O 863.725 -7.27073 -4.86816 0
M  V30 4805 C 864.215 -6.5273 -2.63741 0
M  V30 4806 C 863.505 -5.1842 -2.73198 0
M  V30 4807 N 863.555 -4.38762 -1.4784 0
M  V30 4808 H 860.716 -8.36803 -2.32493 0
M  V30 4809 H 860.446 -6.70197 -1.71129 0
M  V30 4810 H 861.313 -7.03551 -4.13168 0
M  V30 4811 P 865.275 -7.20834 -5.23717 0
M  V30 4812 O 865.495 -7.79853 -6.57286 0
M  V30 4813 O 866.065 -7.79239 -4.12957 0
M  V30 4814 O 865.525 -5.63315 -5.29344 0
M  V30 4815 C 864.585 -4.80255 -6.01876 0
M  V30 4816 C 865.315 -3.64202 -6.65911 0
M  V30 4817 O 865.525 -2.60694 -5.64732 0
M  V30 4818 C 866.715 -3.93473 -7.1943 0
M  V30 4819 O 867.105 -3.02071 -8.21205 0
M  V30 4820 C 867.595 -3.73047 -5.97036 0
M  V30 4821 C 866.885 -2.58828 -5.25741 0
M  V30 4822 N 866.935 -2.68068 -3.77503 0
M  V30 4823 H 864.096 -5.40332 -6.79951 0
M  V30 4824 H 863.826 -4.41613 -5.32378 0
M  V30 4825 H 864.693 -3.26331 -7.47797 0
M  V30 4826 P 868.655 -2.75334 -8.47391 0
M  V30 4827 O 868.875 -2.44619 -9.90336 0
M  V30 4828 O 869.445 -3.87776 -7.92294 0
M  V30 4829 O 868.905 -1.4459 -7.59357 0
M  V30 4830 C 867.965 -0.347653 -7.69315 0
M  V30 4831 C 868.695 0.96767 -7.52806 0
M  V30 4832 O 868.905 1.21055 -6.10208 0
M  V30 4833 C 870.095 1.04557 -8.13408 0
M  V30 4834 O 870.485 2.38311 -8.41922 0
M  V30 4835 C 870.975 0.491279 -7.02284 0
M  V30 4836 C 870.265 0.996264 -5.77469 0
M  V30 4837 N 870.315 0.0501916 -4.62973 0
M  V30 4838 C 870.235 -1.31969 -4.65661 0
M  V30 4839 N 870.305 -1.86649 -3.48119 0
M  V30 4840 C 870.455 -0.792089 -2.62406 0
M  V30 4841 C 870.585 -0.705684 -1.2207 0
M  V30 4842 N 870.595 -1.76207 -0.413762 0
M  V30 4843 N 870.705 0.518981 -0.685754 0
M  V30 4844 C 870.695 1.57595 -1.49174 0
M  V30 4845 N 870.575 1.62909 -2.80066 0
M  V30 4846 C 870.455 0.388195 -3.3073 0
M  V30 4847 H 867.477 -0.374765 -8.67791 0
M  V30 4848 H 867.205 -0.443613 -6.90476 0
M  V30 4849 H 868.073 1.75559 -7.96891 0
M  V30 4850 H 870.728 1.94563 -5.46818 0
M  V30 4851 H 871.008 -0.608651 -7.04676 0
M  V30 4852 H 871.999 0.889796 -7.09039 0
M  V30 4853 H 870.165 0.433128 -9.04664 0
M  V30 4854 H 870.124 -1.89246 -5.57664 0
M  V30 4855 H 870.505 -2.71005 -0.804694 0
M  V30 4856 H 870.694 -1.63189 0.603768 0
M  V30 4857 H 870.802 2.53475 -0.997614 0
M  V30 4858 P 872.035 2.75334 -8.47391 0
M  V30 4859 O 872.255 3.84128 -9.44797 0
M  V30 4860 O 872.825 1.51947 -8.68712 0
M  V30 4861 O 872.285 3.29363 -6.99321 0
M  V30 4862 C 871.345 4.24011 -6.4274 0
M  V30 4863 C 872.075 5.20775 -5.52155 0
M  V30 4864 O 872.285 4.56534 -4.22446 0
M  V30 4865 C 873.475 5.62629 -5.96531 0
M  V30 4866 O 873.865 6.87667 -5.41053 0
M  V30 4867 C 874.355 4.52537 -5.39283 0
M  V30 4868 C 873.645 4.20027 -4.08623 0
M  V30 4869 N 873.695 2.76189 -3.71603 0
M  V30 4870 C 873.615 1.64862 -4.52822 0
M  V30 4871 N 873.695 0.512671 -3.88633 0
M  V30 4872 C 873.835 0.888083 -2.54977 0
M  V30 4873 C 873.965 0.094668 -1.38677 0
M  V30 4874 O 873.985 -1.13053 -1.28163 0
M  V30 4875 N 874.085 0.890102 -0.232633 0
M  V30 4876 C 874.085 2.26958 -0.21772 0
M  V30 4877 N 874.215 2.84626 0.97925 0
M  V30 4878 N 873.955 3.0178 -1.31033 0
M  V30 4879 C 873.835 2.26781 -2.43843 0
M  V30 4880 H 870.856 4.797 -7.24003 0
M  V30 4881 H 870.586 3.69856 -5.84513 0
M  V30 4882 H 871.453 6.10356 -5.41441 0
M  V30 4883 H 874.108 4.79061 -3.27488 0
M  V30 4884 H 874.387 3.64906 -6.05785 0
M  V30 4885 H 875.379 4.8868 -5.2125 0
M  V30 4886 H 873.545 5.66726 -7.06352 0
M  V30 4887 H 873.496 1.71169 -5.60966 0
M  V30 4888 H 874.178 0.419134 0.644739 0
M  V30 4889 H 874.215 3.87332 1.06098 0
M  V30 4890 H 874.316 2.26417 1.82483 0
M  V30 4891 P 875.415 7.20834 -5.23717 0
M  V30 4892 O 875.635 8.66104 -5.38572 0
M  V30 4893 O 876.205 6.33544 -6.1349 0
M  V30 4894 O 875.665 6.7751 -3.72168 0
M  V30 4895 C 874.725 7.20825 -2.7076 0
M  V30 4896 C 875.455 7.45864 -1.40599 0
M  V30 4897 O 875.665 6.17651 -0.734225 0
M  V30 4898 C 876.855 8.05808 -1.51899 0
M  V30 4899 O 877.245 8.74358 -0.335205 0
M  V30 4900 C 877.735 6.83093 -1.70294 0
M  V30 4901 C 877.025 5.79992 -0.836974 0
M  V30 4902 N 877.075 4.41864 -1.38293 0
M  V30 4903 H 874.236 8.13644 -3.0377 0
M  V30 4904 H 873.966 6.42788 -2.55485 0
M  V30 4905 H 874.833 8.12039 -0.792769 0
M  V30 4906 P 878.795 8.91 6.40081e-12 0
M  V30 4907 O 879.015 10.1726 0.733694 0
M  V30 4908 O 879.585 8.73148 -1.23936 0
M  V30 4909 O 879.045 7.66872 0.971405 0
M  V30 4910 C 878.105 7.42309 2.04641 0
M  V30 4911 C 878.835 6.86059 3.24661 0
M  V30 4912 O 879.045 5.42847 3.03646 0
M  V30 4913 C 880.235 7.41196 3.50753 0
M  V30 4914 O 880.625 7.27073 4.86816 0
M  V30 4915 C 881.115 6.5273 2.63741 0
M  V30 4916 C 880.405 5.1842 2.73198 0
M  V30 4917 N 880.455 4.38762 1.4784 0
M  V30 4918 H 877.616 8.36803 2.32493 0
M  V30 4919 H 877.346 6.70197 1.71129 0
M  V30 4920 H 878.213 7.03551 4.13168 0
M  V30 4921 P 882.175 7.20834 5.23717 0
M  V30 4922 O 882.395 7.79853 6.57286 0
M  V30 4923 O 882.965 7.79239 4.12957 0
M  V30 4924 O 882.425 5.63315 5.29344 0
M  V30 4925 C 881.485 4.80255 6.01876 0
M  V30 4926 C 882.215 3.64202 6.65911 0
M  V30 4927 O 882.425 2.60694 5.64732 0
M  V30 4928 C 883.615 3.93473 7.1943 0
M  V30 4929 O 884.005 3.02071 8.21205 0
M  V30 4930 C 884.495 3.73047 5.97036 0
M  V30 4931 C 883.785 2.58828 5.25741 0
M  V30 4932 N 883.835 2.68068 3.77503 0
M  V30 4933 H 880.996 5.40332 6.79951 0
M  V30 4934 H 880.726 4.41613 5.32378 0
M  V30 4935 H 881.593 3.26331 7.47797 0
M  V30 4936 P 885.555 2.75334 8.47391 0
M  V30 4937 O 885.775 2.44571 9.90142 0
M  V30 4938 O 886.345 3.87688 7.92115 0
M  V30 4939 O 885.805 1.4459 7.59357 0
M  V30 4940 C 884.865 0.347608 7.69215 0
M  V30 4941 C 885.595 -0.96767 7.52806 0
M  V30 4942 O 885.805 -1.21036 6.1011 0
M  V30 4943 C 886.995 -1.04544 8.13308 0
M  V30 4944 O 887.385 -2.38311 8.41922 0
M  V30 4945 C 887.875 -0.491279 7.02284 0
M  V30 4946 C 887.165 -0.996264 5.77469 0
M  V30 4947 N 887.215 -0.0501916 4.62973 0
M  V30 4948 H 884.376 0.374722 8.67691 0
M  V30 4949 H 884.106 0.443485 6.90277 0
M  V30 4950 H 884.973 -1.75537 7.96793 0
M  V30 4951 P 888.935 -2.75334 8.47391 0
M  V30 4952 O 889.155 -3.84128 9.44797 0
M  V30 4953 O 889.725 -1.51947 8.68712 0
M  V30 4954 O 889.185 -3.29363 6.99321 0
M  V30 4955 C 888.245 -4.24011 6.4274 0
M  V30 4956 C 888.975 -5.20775 5.52155 0
M  V30 4957 O 889.185 -4.56534 4.22446 0
M  V30 4958 C 890.375 -5.62629 5.96531 0
M  V30 4959 O 890.765 -6.87667 5.41053 0
M  V30 4960 C 891.255 -4.52537 5.39283 0
M  V30 4961 C 890.545 -4.20027 4.08623 0
M  V30 4962 N 890.595 -2.76189 3.71603 0
M  V30 4963 H 887.756 -4.797 7.24003 0
M  V30 4964 H 887.486 -3.69856 5.84513 0
M  V30 4965 H 888.353 -6.10356 5.41441 0
M  V30 4966 P 892.315 -7.20834 5.23717 0
M  V30 4967 O 892.535 -8.66189 5.38625 0
M  V30 4968 O 893.105 -6.33615 6.1356 0
M  V30 4969 O 892.565 -6.7751 3.72168 0
M  V30 4970 C 891.625 -7.20732 2.70725 0
M  V30 4971 C 892.355 -7.45864 1.40599 0
M  V30 4972 O 892.565 -6.17651 0.734225 0
M  V30 4973 C 893.755 -8.05808 1.51899 0
M  V30 4974 O 894.145 -8.74358 0.335205 0
M  V30 4975 C 894.635 -6.83093 1.70294 0
M  V30 4976 C 893.925 -5.79992 0.836974 0
M  V30 4977 N 893.975 -4.41769 1.38263 0
M  V30 4978 C 894.125 -3.38591 0.481702 0
M  V30 4979 O 894.215 -3.56839 -0.718452 0
M  V30 4980 N 894.165 -2.1206 1.03569 0
M  V30 4981 C 894.075 -1.80696 2.36966 0
M  V30 4982 O 894.125 -0.630473 2.74862 0
M  V30 4983 C 893.925 -2.94845 3.23898 0
M  V30 4984 C 893.815 -2.65253 4.70362 0
M  V30 4985 C 893.875 -4.19803 2.73435 0
M  V30 4986 H 891.135 -8.13644 3.0377 0
M  V30 4987 H 890.866 -6.42695 2.55448 0
M  V30 4988 H 891.733 -8.12039 0.792769 0
M  V30 4989 H 894.388 -5.79978 -0.160587 0
M  V30 4990 H 894.667 -6.51379 2.75643 0
M  V30 4991 H 895.659 -7.01734 1.34462 0
M  V30 4992 H 893.825 -8.73674 2.38337 0
M  V30 4993 H 893.754 -5.04492 3.4095 0
M  V30 4994 H 894.784 -2.83924 5.1913 0
M  V30 4995 H 893.047 -3.29824 5.15163 0
M  V30 4996 H 893.535 -1.59723 4.84449 0
M  V30 4997 H 894.271 -1.35644 0.399345 0
M  V30 4998 P 895.695 -8.91 -6.558e-12 0
M  V30 4999 O 895.915 -10.1746 -0.733838 0
M  V30 5000 O 896.485 -8.73346 1.23964 0
M  V30 5001 O 895.945 -7.66872 -0.971405 0
M  V30 5002 C 895.005 -7.42405 -2.04668 0
M  V30 5003 C 895.735 -6.86059 -3.24661 0
M  V30 5004 O 895.945 -5.42934 -3.03695 0
M  V30 5005 C 897.135 -7.41287 -3.50796 0
M  V30 5006 O 897.525 -7.27073 -4.86816 0
M  V30 5007 C 898.015 -6.5273 -2.63741 0
M  V30 5008 C 897.305 -5.1842 -2.73198 0
M  V30 5009 N 897.355 -4.38762 -1.4784 0
M  V30 5010 C 897.275 -4.83651 -0.183876 0
M  V30 5011 N 897.345 -3.88759 0.699393 0
M  V30 5012 C 897.495 -2.7404 -0.0575568 0
M  V30 5013 C 897.625 -1.37902 0.293928 0
M  V30 5014 N 897.635 -0.938021 1.54797 0
M  V30 5015 N 897.745 -0.491817 -0.70549 0
M  V30 5016 C 897.735 -0.931735 -1.95979 0
M  V30 5017 N 897.615 -2.16017 -2.41481 0
M  V30 5018 C 897.495 -3.02547 -1.39121 0
M  V30 5019 H 894.517 -8.36899 -2.3252 0
M  V30 5020 H 894.245 -6.70391 -1.71179 0
M  V30 5021 H 895.113 -7.03638 -4.13219 0
M  V30 5022 H 897.768 -4.59931 -3.54016 0
M  V30 5023 H 898.048 -6.88995 -1.59871 0
M  V30 5024 H 899.039 -6.4684 -3.0373 0
M  V30 5025 H 897.205 -8.47002 -3.20749 0
M  V30 5026 H 897.164 -5.8885 0.0765548 0
M  V30 5027 H 897.545 -1.60276 2.32875 0
M  V30 5028 H 897.734 0.0699355 1.73859 0
M  V30 5029 H 897.842 -0.165507 -2.71897 0
M  V30 5030 P 899.075 -7.20834 -5.23717 0
M  V30 5031 O 899.295 -7.79853 -6.57286 0
M  V30 5032 O 899.865 -7.79239 -4.12957 0
M  V30 5033 O 899.325 -5.63315 -5.29344 0
M  V30 5034 C 898.385 -4.80255 -6.01876 0
M  V30 5035 C 899.115 -3.64202 -6.65911 0
M  V30 5036 O 899.325 -2.60694 -5.64732 0
M  V30 5037 C 900.515 -3.93473 -7.1943 0
M  V30 5038 O 900.905 -3.02071 -8.21205 0
M  V30 5039 C 901.395 -3.73047 -5.97036 0
M  V30 5040 C 900.685 -2.58828 -5.25741 0
M  V30 5041 N 900.735 -2.68068 -3.77503 0
M  V30 5042 H 897.896 -5.40332 -6.79951 0
M  V30 5043 H 897.626 -4.41613 -5.32378 0
M  V30 5044 H 898.493 -3.26331 -7.47797 0
M  V30 5045 P 902.455 -2.75334 -8.47391 0
M  V30 5046 O 902.675 -2.44571 -9.90142 0
M  V30 5047 O 903.245 -3.87688 -7.92115 0
M  V30 5048 O 902.705 -1.4459 -7.59357 0
M  V30 5049 C 901.765 -0.347608 -7.69215 0
M  V30 5050 C 902.495 0.96767 -7.52806 0
M  V30 5051 O 902.705 1.21036 -6.1011 0
M  V30 5052 C 903.895 1.04544 -8.13308 0
M  V30 5053 O 904.285 2.38311 -8.41922 0
M  V30 5054 C 904.775 0.491279 -7.02284 0
M  V30 5055 C 904.065 0.996264 -5.77469 0
M  V30 5056 N 904.115 0.0501916 -4.62973 0
M  V30 5057 H 901.276 -0.374722 -8.67691 0
M  V30 5058 H 901.006 -0.443485 -6.90277 0
M  V30 5059 H 901.873 1.75537 -7.96793 0
M  V30 5060 P 905.835 2.75334 -8.47391 0
M  V30 5061 O 906.055 3.84128 -9.44797 0
M  V30 5062 O 906.625 1.51947 -8.68712 0
M  V30 5063 O 906.085 3.29363 -6.99321 0
M  V30 5064 C 905.145 4.24011 -6.4274 0
M  V30 5065 C 905.875 5.20775 -5.52155 0
M  V30 5066 O 906.085 4.56534 -4.22446 0
M  V30 5067 C 907.275 5.62629 -5.96531 0
M  V30 5068 O 907.665 6.87667 -5.41053 0
M  V30 5069 C 908.155 4.52537 -5.39283 0
M  V30 5070 C 907.445 4.20027 -4.08623 0
M  V30 5071 N 907.495 2.76189 -3.71603 0
M  V30 5072 H 904.656 4.797 -7.24003 0
M  V30 5073 H 904.386 3.69856 -5.84513 0
M  V30 5074 H 905.253 6.10356 -5.41441 0
M  V30 5075 P 909.215 7.20834 -5.23717 0
M  V30 5076 O 909.435 8.66104 -5.38572 0
M  V30 5077 O 910.005 6.33544 -6.1349 0
M  V30 5078 O 909.465 6.7751 -3.72168 0
M  V30 5079 C 908.525 7.20825 -2.7076 0
M  V30 5080 C 909.255 7.45864 -1.40599 0
M  V30 5081 O 909.465 6.17651 -0.734225 0
M  V30 5082 C 910.655 8.05808 -1.51899 0
M  V30 5083 O 911.045 8.74358 -0.335205 0
M  V30 5084 C 911.535 6.83093 -1.70294 0
M  V30 5085 C 910.825 5.79992 -0.836974 0
M  V30 5086 N 910.875 4.41864 -1.38293 0
M  V30 5087 H 908.036 8.13644 -3.0377 0
M  V30 5088 H 907.766 6.42788 -2.55485 0
M  V30 5089 H 908.633 8.12039 -0.792769 0
M  V30 5090 P 912.595 8.91 6.71518e-12 0
M  V30 5091 O 912.815 10.1726 0.733694 0
M  V30 5092 O 913.385 8.73148 -1.23936 0
M  V30 5093 O 912.845 7.66872 0.971405 0
M  V30 5094 C 911.905 7.42309 2.04641 0
M  V30 5095 C 912.635 6.86059 3.24661 0
M  V30 5096 O 912.845 5.42847 3.03646 0
M  V30 5097 C 914.035 7.41196 3.50753 0
M  V30 5098 O 914.425 7.27073 4.86816 0
M  V30 5099 C 914.915 6.5273 2.63741 0
M  V30 5100 C 914.205 5.1842 2.73198 0
M  V30 5101 N 914.255 4.38762 1.4784 0
M  V30 5102 H 911.416 8.36803 2.32493 0
M  V30 5103 H 911.146 6.70197 1.71129 0
M  V30 5104 H 912.013 7.03551 4.13168 0
M  V30 5105 P 915.975 7.20834 5.23717 0
M  V30 5106 O 916.195 7.79853 6.57286 0
M  V30 5107 O 916.765 7.79239 4.12957 0
M  V30 5108 O 916.225 5.63315 5.29344 0
M  V30 5109 C 915.285 4.80255 6.01876 0
M  V30 5110 C 916.015 3.64202 6.65911 0
M  V30 5111 O 916.225 2.60694 5.64732 0
M  V30 5112 C 917.415 3.93473 7.1943 0
M  V30 5113 O 917.805 3.02071 8.21205 0
M  V30 5114 C 918.295 3.73047 5.97036 0
M  V30 5115 C 917.585 2.58828 5.25741 0
M  V30 5116 N 917.635 2.68068 3.77503 0
M  V30 5117 C 917.555 3.79715 2.96723 0
M  V30 5118 N 917.635 3.5377 1.68852 0
M  V30 5119 C 917.775 2.15054 1.63254 0
M  V30 5120 C 917.905 1.28964 0.518571 0
M  V30 5121 O 917.925 1.56826 -0.679156 0
M  V30 5122 N 918.025 -0.0538097 0.918425 0
M  V30 5123 C 918.025 -0.494275 2.22578 0
M  V30 5124 N 918.155 -1.81086 2.40434 0
M  V30 5125 N 917.895 0.313645 3.27502 0
M  V30 5126 C 917.775 1.61829 2.91033 0
M  V30 5127 H 914.796 5.40332 6.79951 0
M  V30 5128 H 914.526 4.41613 5.32378 0
M  V30 5129 H 915.393 3.26331 7.47797 0
M  V30 5130 H 918.048 1.63422 5.56814 0
M  V30 5131 H 918.327 4.63374 5.34244 0
M  V30 5132 H 919.319 3.44728 6.25838 0
M  V30 5133 H 917.485 4.96652 7.57263 0
M  V30 5134 H 917.436 4.80617 3.3614 0
M  V30 5135 H 918.118 -0.742702 0.199384 0
M  V30 5136 H 918.155 -2.20598 3.35588 0
M  V30 5137 H 918.256 -2.43518 1.58945 0
M  V30 5138 P 919.355 2.75334 8.47391 0
M  V30 5139 O 919.575 2.44571 9.90142 0
M  V30 5140 O 920.145 3.87688 7.92115 0
M  V30 5141 O 919.605 1.4459 7.59357 0
M  V30 5142 C 918.665 0.347608 7.69215 0
M  V30 5143 C 919.395 -0.96767 7.52806 0
M  V30 5144 O 919.605 -1.21036 6.1011 0
M  V30 5145 C 920.795 -1.04544 8.13308 0
M  V30 5146 O 921.185 -2.38311 8.41922 0
M  V30 5147 C 921.675 -0.491279 7.02284 0
M  V30 5148 C 920.965 -0.996264 5.77469 0
M  V30 5149 N 921.015 -0.0501916 4.62973 0
M  V30 5150 H 918.176 0.374722 8.67691 0
M  V30 5151 H 917.906 0.443485 6.90277 0
M  V30 5152 H 918.773 -1.75537 7.96793 0
M  V30 5153 P 922.735 -2.75334 8.47391 0
M  V30 5154 O 922.955 -3.84128 9.44797 0
M  V30 5155 O 923.525 -1.51947 8.68712 0
M  V30 5156 O 922.985 -3.29363 6.99321 0
M  V30 5157 C 922.045 -4.24011 6.4274 0
M  V30 5158 C 922.775 -5.20775 5.52155 0
M  V30 5159 O 922.985 -4.56534 4.22446 0
M  V30 5160 C 924.175 -5.62629 5.96531 0
M  V30 5161 O 924.565 -6.87667 5.41053 0
M  V30 5162 C 925.055 -4.52537 5.39283 0
M  V30 5163 C 924.345 -4.20027 4.08623 0
M  V30 5164 N 924.395 -2.76189 3.71603 0
M  V30 5165 H 921.556 -4.797 7.24003 0
M  V30 5166 H 921.286 -3.69856 5.84513 0
M  V30 5167 H 922.153 -6.10356 5.41441 0
M  V30 5168 P 926.115 -7.20834 5.23717 0
M  V30 5169 O 926.335 -8.66104 5.38572 0
M  V30 5170 O 926.905 -6.33544 6.1349 0
M  V30 5171 O 926.365 -6.7751 3.72168 0
M  V30 5172 C 925.425 -7.20825 2.7076 0
M  V30 5173 C 926.155 -7.45864 1.40599 0
M  V30 5174 O 926.365 -6.17651 0.734225 0
M  V30 5175 C 927.555 -8.05808 1.51899 0
M  V30 5176 O 927.945 -8.74358 0.335205 0
M  V30 5177 C 928.435 -6.83093 1.70294 0
M  V30 5178 C 927.725 -5.79992 0.836974 0
M  V30 5179 N 927.775 -4.41864 1.38293 0
M  V30 5180 H 924.936 -8.13644 3.0377 0
M  V30 5181 H 924.666 -6.42788 2.55485 0
M  V30 5182 H 925.533 -8.12039 0.792769 0
M  V30 5183 P 929.495 -8.91 -6.87236e-12 0
M  V30 5184 O 929.715 -10.1746 -0.733838 0
M  V30 5185 O 930.285 -8.73346 1.23964 0
M  V30 5186 O 929.745 -7.66872 -0.971405 0
M  V30 5187 C 928.805 -7.42405 -2.04668 0
M  V30 5188 C 929.535 -6.86059 -3.24661 0
M  V30 5189 O 929.745 -5.42934 -3.03695 0
M  V30 5190 C 930.935 -7.41287 -3.50796 0
M  V30 5191 O 931.325 -7.27073 -4.86816 0
M  V30 5192 C 931.815 -6.5273 -2.63741 0
M  V30 5193 C 931.105 -5.1842 -2.73198 0
M  V30 5194 N 931.155 -4.38762 -1.4784 0
M  V30 5195 H 928.317 -8.36899 -2.3252 0
M  V30 5196 H 928.045 -6.70391 -1.71179 0
M  V30 5197 H 928.913 -7.03638 -4.13219 0
M  V30 5198 H 931.568 -4.59931 -3.54016 0
M  V30 5199 H 931.848 -6.88995 -1.59871 0
M  V30 5200 H 932.839 -6.4684 -3.0373 0
M  V30 5201 H 931.005 -8.47002 -3.20749 0
M  V30 5202 P 932.874 -7.20834 -5.23717 0
M  V30 5203 O 933.094 -7.79853 -6.57286 0
M  V30 5204 O 933.664 -7.79239 -4.12957 0
M  V30 5205 O 933.124 -5.63315 -5.29344 0
M  V30 5206 C 932.184 -4.80255 -6.01876 0
M  V30 5207 C 932.914 -3.64202 -6.65911 0
M  V30 5208 O 933.124 -2.60694 -5.64732 0
M  V30 5209 C 934.314 -3.93473 -7.1943 0
M  V30 5210 O 934.704 -3.02071 -8.21205 0
M  V30 5211 C 935.194 -3.73047 -5.97036 0
M  V30 5212 C 934.484 -2.58828 -5.25741 0
M  V30 5213 N 934.534 -2.68068 -3.77503 0
M  V30 5214 H 931.695 -5.40332 -6.79951 0
M  V30 5215 H 931.425 -4.41613 -5.32378 0
M  V30 5216 H 932.292 -3.26331 -7.47797 0
M  V30 5217 P 936.254 -2.75334 -8.47391 0
M  V30 5218 O 936.474 -2.44571 -9.90142 0
M  V30 5219 O 937.044 -3.87688 -7.92115 0
M  V30 5220 O 936.504 -1.4459 -7.59357 0
M  V30 5221 C 935.564 -0.347608 -7.69215 0
M  V30 5222 C 936.294 0.96767 -7.52806 0
M  V30 5223 O 936.504 1.21036 -6.1011 0
M  V30 5224 C 937.694 1.04544 -8.13308 0
M  V30 5225 O 938.084 2.38311 -8.41922 0
M  V30 5226 C 938.574 0.491279 -7.02284 0
M  V30 5227 C 937.864 0.996264 -5.77469 0
M  V30 5228 N 937.914 0.0501916 -4.62973 0
M  V30 5229 H 935.075 -0.374722 -8.67691 0
M  V30 5230 H 934.805 -0.443485 -6.90277 0
M  V30 5231 H 935.672 1.75537 -7.96793 0
M  V30 5232 P 939.634 2.75334 -8.47391 0
M  V30 5233 O 939.854 3.84128 -9.44797 0
M  V30 5234 O 940.424 1.51947 -8.68712 0
M  V30 5235 O 939.884 3.29363 -6.99321 0
M  V30 5236 C 938.944 4.24011 -6.4274 0
M  V30 5237 C 939.674 5.20775 -5.52155 0
M  V30 5238 O 939.884 4.56534 -4.22446 0
M  V30 5239 C 941.074 5.62629 -5.96531 0
M  V30 5240 O 941.464 6.87667 -5.41053 0
M  V30 5241 C 941.954 4.52537 -5.39283 0
M  V30 5242 C 941.244 4.20027 -4.08623 0
M  V30 5243 N 941.294 2.76189 -3.71603 0
M  V30 5244 H 938.455 4.797 -7.24003 0
M  V30 5245 H 938.185 3.69856 -5.84513 0
M  V30 5246 H 939.052 6.10356 -5.41441 0
M  V30 5247 P 943.014 7.20834 -5.23717 0
M  V30 5248 O 943.234 8.66104 -5.38572 0
M  V30 5249 O 943.804 6.33544 -6.1349 0
M  V30 5250 O 943.264 6.7751 -3.72168 0
M  V30 5251 C 942.324 7.20825 -2.7076 0
M  V30 5252 C 943.054 7.45864 -1.40599 0
M  V30 5253 O 943.264 6.17651 -0.734225 0
M  V30 5254 C 944.454 8.05808 -1.51899 0
M  V30 5255 O 944.844 8.74358 -0.335205 0
M  V30 5256 C 945.334 6.83093 -1.70294 0
M  V30 5257 C 944.624 5.79992 -0.836974 0
M  V30 5258 N 944.674 4.41864 -1.38293 0
M  V30 5259 C 944.594 3.99538 -2.69438 0
M  V30 5260 N 944.674 2.69909 -2.84277 0
M  V30 5261 C 944.814 2.21719 -1.5408 0
M  V30 5262 C 944.944 0.891712 -1.06628 0
M  V30 5263 N 945.064 0.856846 0.334985 0
M  V30 5264 C 945.064 1.9641 1.15789 0
M  V30 5265 N 945.194 1.72708 2.46522 0
M  V30 5266 N 944.934 3.21165 0.713741 0
M  V30 5267 C 944.814 3.26797 -0.639748 0
M  V30 5268 H 941.835 8.13644 -3.0377 0
M  V30 5269 H 941.565 6.42788 -2.55485 0
M  V30 5270 H 942.432 8.12039 -0.792769 0
M  V30 5271 P 946.394 8.91 7.02954e-12 0
M  V30 5272 O 946.614 10.1726 0.733694 0
M  V30 5273 O 947.184 8.73148 -1.23936 0
M  V30 5274 O 946.644 7.66872 0.971405 0
M  V30 5275 C 945.704 7.42309 2.04641 0
M  V30 5276 C 946.434 6.86059 3.24661 0
M  V30 5277 O 946.644 5.42847 3.03646 0
M  V30 5278 C 947.834 7.41196 3.50753 0
M  V30 5279 O 948.224 7.27073 4.86816 0
M  V30 5280 C 948.714 6.5273 2.63741 0
M  V30 5281 C 948.004 5.1842 2.73198 0
M  V30 5282 N 948.054 4.38762 1.4784 0
M  V30 5283 H 945.215 8.36803 2.32493 0
M  V30 5284 H 944.945 6.70197 1.71129 0
M  V30 5285 H 945.812 7.03551 4.13168 0
M  V30 5286 P 949.774 7.20834 5.23717 0
M  V30 5287 O 949.994 7.79853 6.57286 0
M  V30 5288 O 950.564 7.79239 4.12957 0
M  V30 5289 O 950.024 5.63315 5.29344 0
M  V30 5290 C 949.084 4.80255 6.01876 0
M  V30 5291 C 949.814 3.64202 6.65911 0
M  V30 5292 O 950.024 2.60694 5.64732 0
M  V30 5293 C 951.214 3.93473 7.1943 0
M  V30 5294 O 951.604 3.02071 8.21205 0
M  V30 5295 C 952.094 3.73047 5.97036 0
M  V30 5296 C 951.384 2.58828 5.25741 0
M  V30 5297 N 951.434 2.68068 3.77503 0
M  V30 5298 H 948.595 5.40332 6.79951 0
M  V30 5299 H 948.325 4.41613 5.32378 0
M  V30 5300 H 949.192 3.26331 7.47797 0
M  V30 5301 P 953.154 2.75334 8.47391 0
M  V30 5302 O 953.374 2.44571 9.90142 0
M  V30 5303 O 953.944 3.87688 7.92115 0
M  V30 5304 O 953.404 1.4459 7.59357 0
M  V30 5305 C 952.464 0.347608 7.69215 0
M  V30 5306 C 953.194 -0.96767 7.52806 0
M  V30 5307 O 953.404 -1.21036 6.1011 0
M  V30 5308 C 954.594 -1.04544 8.13308 0
M  V30 5309 O 954.984 -2.38311 8.41922 0
M  V30 5310 C 955.474 -0.491279 7.02284 0
M  V30 5311 C 954.764 -0.996264 5.77469 0
M  V30 5312 N 954.814 -0.0501916 4.62973 0
M  V30 5313 H 951.975 0.374722 8.67691 0
M  V30 5314 H 951.705 0.443485 6.90277 0
M  V30 5315 H 952.572 -1.75537 7.96793 0
M  V30 5316 P 956.534 -2.75334 8.47391 0
M  V30 5317 O 956.754 -3.84128 9.44797 0
M  V30 5318 O 957.324 -1.51947 8.68712 0
M  V30 5319 O 956.784 -3.29363 6.99321 0
M  V30 5320 C 955.844 -4.24011 6.4274 0
M  V30 5321 C 956.574 -5.20775 5.52155 0
M  V30 5322 O 956.784 -4.56534 4.22446 0
M  V30 5323 C 957.974 -5.62629 5.96531 0
M  V30 5324 O 958.364 -6.87667 5.41053 0
M  V30 5325 C 958.854 -4.52537 5.39283 0
M  V30 5326 C 958.144 -4.20027 4.08623 0
M  V30 5327 N 958.194 -2.76189 3.71603 0
M  V30 5328 H 955.355 -4.797 7.24003 0
M  V30 5329 H 955.085 -3.69856 5.84513 0
M  V30 5330 H 955.952 -6.10356 5.41441 0
M  V30 5331 P 959.914 -7.20834 5.23717 0
M  V30 5332 O 960.134 -8.66104 5.38572 0
M  V30 5333 O 960.704 -6.33544 6.1349 0
M  V30 5334 O 960.164 -6.7751 3.72168 0
M  V30 5335 C 959.224 -7.20825 2.7076 0
M  V30 5336 C 959.954 -7.45864 1.40599 0
M  V30 5337 O 960.164 -6.17651 0.734225 0
M  V30 5338 C 961.354 -8.05808 1.51899 0
M  V30 5339 O 961.744 -8.74358 0.335205 0
M  V30 5340 C 962.234 -6.83093 1.70294 0
M  V30 5341 C 961.524 -5.79992 0.836974 0
M  V30 5342 N 961.574 -4.41864 1.38293 0
M  V30 5343 H 958.735 -8.13644 3.0377 0
M  V30 5344 H 958.465 -6.42788 2.55485 0
M  V30 5345 H 959.332 -8.12039 0.792769 0
M  V30 5346 P 963.294 -8.91 -7.18673e-12 0
M  V30 5347 O 963.514 -10.1726 -0.733694 0
M  V30 5348 O 964.084 -8.73148 1.23936 0
M  V30 5349 O 963.544 -7.66872 -0.971405 0
M  V30 5350 C 962.604 -7.42309 -2.04641 0
M  V30 5351 C 963.334 -6.86059 -3.24661 0
M  V30 5352 O 963.544 -5.42847 -3.03646 0
M  V30 5353 C 964.734 -7.41196 -3.50753 0
M  V30 5354 O 965.124 -7.27073 -4.86816 0
M  V30 5355 C 965.614 -6.5273 -2.63741 0
M  V30 5356 C 964.904 -5.1842 -2.73198 0
M  V30 5357 N 964.954 -4.38762 -1.4784 0
M  V30 5358 H 962.115 -8.36803 -2.32493 0
M  V30 5359 H 961.845 -6.70197 -1.71129 0
M  V30 5360 H 962.712 -7.03551 -4.13168 0
M  V30 5361 P 966.674 -7.20834 -5.23717 0
M  V30 5362 O 966.894 -7.79853 -6.57286 0
M  V30 5363 O 967.464 -7.79239 -4.12957 0
M  V30 5364 O 966.924 -5.63315 -5.29344 0
M  V30 5365 C 965.984 -4.80255 -6.01876 0
M  V30 5366 C 966.714 -3.64202 -6.65911 0
M  V30 5367 O 966.924 -2.60694 -5.64732 0
M  V30 5368 C 968.114 -3.93473 -7.1943 0
M  V30 5369 O 968.504 -3.02071 -8.21205 0
M  V30 5370 C 968.994 -3.73047 -5.97036 0
M  V30 5371 C 968.284 -2.58828 -5.25741 0
M  V30 5372 N 968.334 -2.68068 -3.77503 0
M  V30 5373 C 968.254 -3.79715 -2.96723 0
M  V30 5374 N 968.334 -3.5377 -1.68852 0
M  V30 5375 C 968.474 -2.15054 -1.63254 0
M  V30 5376 C 968.604 -1.28964 -0.518571 0
M  V30 5377 O 968.624 -1.56826 0.679156 0
M  V30 5378 N 968.724 0.0538097 -0.918425 0
M  V30 5379 C 968.724 0.494275 -2.22578 0
M  V30 5380 N 968.854 1.81086 -2.40434 0
M  V30 5381 N 968.594 -0.313645 -3.27502 0
M  V30 5382 C 968.474 -1.61829 -2.91033 0
M  V30 5383 H 965.495 -5.40332 -6.79951 0
M  V30 5384 H 965.225 -4.41613 -5.32378 0
M  V30 5385 H 966.092 -3.26331 -7.47797 0
M  V30 5386 H 968.747 -1.63422 -5.56814 0
M  V30 5387 H 969.026 -4.63374 -5.34244 0
M  V30 5388 H 970.018 -3.44728 -6.25838 0
M  V30 5389 H 968.184 -4.96652 -7.57263 0
M  V30 5390 H 968.135 -4.80617 -3.3614 0
M  V30 5391 H 968.817 0.742702 -0.199384 0
M  V30 5392 H 968.854 2.20598 -3.35588 0
M  V30 5393 H 968.955 2.43518 -1.58945 0
M  V30 5394 P 970.054 -2.75334 -8.47391 0
M  V30 5395 O 970.274 -2.44571 -9.90142 0
M  V30 5396 O 970.844 -3.87688 -7.92115 0
M  V30 5397 O 970.304 -1.4459 -7.59357 0
M  V30 5398 C 969.364 -0.347608 -7.69215 0
M  V30 5399 C 970.094 0.96767 -7.52806 0
M  V30 5400 O 970.304 1.21036 -6.1011 0
M  V30 5401 C 971.494 1.04544 -8.13308 0
M  V30 5402 O 971.884 2.38311 -8.41922 0
M  V30 5403 C 972.374 0.491279 -7.02284 0
M  V30 5404 C 971.664 0.996264 -5.77469 0
M  V30 5405 N 971.714 0.0501916 -4.62973 0
M  V30 5406 H 968.875 -0.374722 -8.67691 0
M  V30 5407 H 968.605 -0.443485 -6.90277 0
M  V30 5408 H 969.472 1.75537 -7.96793 0
M  V30 5409 P 973.434 2.75334 -8.47391 0
M  V30 5410 O 973.654 3.84128 -9.44797 0
M  V30 5411 O 974.224 1.51947 -8.68712 0
M  V30 5412 O 973.684 3.29363 -6.99321 0
M  V30 5413 C 972.744 4.24011 -6.4274 0
M  V30 5414 C 973.474 5.20775 -5.52155 0
M  V30 5415 O 973.684 4.56534 -4.22446 0
M  V30 5416 C 974.874 5.62629 -5.96531 0
M  V30 5417 O 975.264 6.87667 -5.41053 0
M  V30 5418 C 975.754 4.52537 -5.39283 0
M  V30 5419 C 975.044 4.20027 -4.08623 0
M  V30 5420 N 975.094 2.76189 -3.71603 0
M  V30 5421 H 972.255 4.797 -7.24003 0
M  V30 5422 H 971.985 3.69856 -5.84513 0
M  V30 5423 H 972.852 6.10356 -5.41441 0
M  V30 5424 P 976.814 7.20834 -5.23717 0
M  V30 5425 O 977.034 8.66104 -5.38572 0
M  V30 5426 O 977.604 6.33544 -6.1349 0
M  V30 5427 O 977.064 6.7751 -3.72168 0
M  V30 5428 C 976.124 7.20825 -2.7076 0
M  V30 5429 C 976.854 7.45864 -1.40599 0
M  V30 5430 O 977.064 6.17651 -0.734225 0
M  V30 5431 C 978.254 8.05808 -1.51899 0
M  V30 5432 O 978.644 8.74358 -0.335205 0
M  V30 5433 C 979.134 6.83093 -1.70294 0
M  V30 5434 C 978.424 5.79992 -0.836974 0
M  V30 5435 N 978.474 4.41864 -1.38293 0
M  V30 5436 H 975.635 8.13644 -3.0377 0
M  V30 5437 H 975.365 6.42788 -2.55485 0
M  V30 5438 H 976.232 8.12039 -0.792769 0
M  V30 5439 P 980.194 8.91 7.34391e-12 0
M  V30 5440 O 980.414 10.1726 0.733694 0
M  V30 5441 O 980.984 8.73148 -1.23936 0
M  V30 5442 O 980.444 7.66872 0.971405 0
M  V30 5443 C 979.504 7.42309 2.04641 0
M  V30 5444 C 980.234 6.86059 3.24661 0
M  V30 5445 O 980.444 5.42847 3.03646 0
M  V30 5446 C 981.634 7.41196 3.50753 0
M  V30 5447 O 982.024 7.27073 4.86816 0
M  V30 5448 C 982.514 6.5273 2.63741 0
M  V30 5449 C 981.804 5.1842 2.73198 0
M  V30 5450 N 981.854 4.38762 1.4784 0
M  V30 5451 H 979.015 8.36803 2.32493 0
M  V30 5452 H 978.745 6.70197 1.71129 0
M  V30 5453 H 979.612 7.03551 4.13168 0
M  V30 5454 P 983.574 7.20834 5.23717 0
M  V30 5455 O 983.794 7.79853 6.57286 0
M  V30 5456 O 984.364 7.79239 4.12957 0
M  V30 5457 O 983.824 5.63315 5.29344 0
M  V30 5458 C 982.884 4.80255 6.01876 0
M  V30 5459 C 983.614 3.64202 6.65911 0
M  V30 5460 O 983.824 2.60694 5.64732 0
M  V30 5461 C 985.014 3.93473 7.1943 0
M  V30 5462 O 985.404 3.02071 8.21205 0
M  V30 5463 C 985.894 3.73047 5.97036 0
M  V30 5464 C 985.184 2.58828 5.25741 0
M  V30 5465 N 985.234 2.68068 3.77503 0
M  V30 5466 C 985.154 3.79715 2.96723 0
M  V30 5467 N 985.234 3.5377 1.68852 0
M  V30 5468 C 985.374 2.15054 1.63254 0
M  V30 5469 C 985.504 1.28964 0.518571 0
M  V30 5470 N 985.624 -0.0538097 0.918425 0
M  V30 5471 C 985.624 -0.494275 2.22578 0
M  V30 5472 N 985.754 -1.81086 2.40434 0
M  V30 5473 N 985.494 0.313645 3.27502 0
M  V30 5474 C 985.374 1.61829 2.91033 0
M  V30 5475 H 982.395 5.40332 6.79951 0
M  V30 5476 H 982.125 4.41613 5.32378 0
M  V30 5477 H 982.992 3.26331 7.47797 0
M  V30 5478 P 986.954 2.75334 8.47391 0
M  V30 5479 O 987.174 2.44595 9.90239 0
M  V30 5480 O 987.744 3.87732 7.92204 0
M  V30 5481 O 987.204 1.4459 7.59357 0
M  V30 5482 C 986.264 0.347563 7.69115 0
M  V30 5483 C 986.994 -0.96767 7.52806 0
M  V30 5484 O 987.204 -1.21036 6.1011 0
M  V30 5485 C 988.394 -1.04544 8.13308 0
M  V30 5486 O 988.784 -2.38311 8.41922 0
M  V30 5487 C 989.274 -0.491279 7.02284 0
M  V30 5488 C 988.564 -0.996264 5.77469 0
M  V30 5489 N 988.614 -0.0501808 4.62873 0
M  V30 5490 C 988.764 -0.588177 3.36904 0
M  V30 5491 O 988.854 -1.78598 3.17173 0
M  V30 5492 N 988.804 0.329694 2.33686 0
M  V30 5493 C 988.714 1.6953 2.45079 0
M  V30 5494 C 988.564 2.16933 3.80505 0
M  V30 5495 C 988.514 1.30326 4.83752 0
M  V30 5496 H 985.774 0.374722 8.67691 0
M  V30 5497 H 985.505 0.443421 6.90177 0
M  V30 5498 H 986.372 -1.75537 7.96793 0
M  V30 5499 H 989.027 -1.94496 5.46629 0
M  V30 5500 H 989.306 0.608651 7.04676 0
M  V30 5501 H 990.298 -0.889672 7.08939 0
M  V30 5502 H 988.464 -0.43308 9.04564 0
M  V30 5503 H 988.393 1.68366 5.8516 0
M  V30 5504 P 990.334 -2.75334 8.47391 0
M  V30 5505 O 990.554 -3.84128 9.44797 0
M  V30 5506 O 991.124 -1.51947 8.68712 0
M  V30 5507 O 990.584 -3.29363 6.99321 0
M  V30 5508 C 989.644 -4.24011 6.4274 0
M  V30 5509 C 990.374 -5.20775 5.52155 0
M  V30 5510 O 990.584 -4.56534 4.22446 0
M  V30 5511 C 991.774 -5.62629 5.96531 0
M  V30 5512 O 992.164 -6.87667 5.41053 0
M  V30 5513 C 992.654 -4.52537 5.39283 0
M  V30 5514 C 991.944 -4.20027 4.08623 0
M  V30 5515 N 991.994 -2.76189 3.71603 0
M  V30 5516 H 989.155 -4.797 7.24003 0
M  V30 5517 H 988.885 -3.69856 5.84513 0
M  V30 5518 H 989.752 -6.10356 5.41441 0
M  V30 5519 P 993.714 -7.20834 5.23717 0
M  V30 5520 O 993.934 -8.66274 5.38678 0
M  V30 5521 O 994.504 -6.33687 6.13629 0
M  V30 5522 O 993.964 -6.7751 3.72168 0
M  V30 5523 C 993.024 -7.20919 2.70795 0
M  V30 5524 C 993.754 -7.45864 1.40599 0
M  V30 5525 O 993.964 -6.17751 0.734343 0
M  V30 5526 C 995.154 -8.05906 1.51917 0
M  V30 5527 O 995.544 -8.74358 0.335205 0
M  V30 5528 C 996.034 -6.83093 1.70294 0
M  V30 5529 C 995.324 -5.79992 0.836974 0
M  V30 5530 N 995.374 -4.41864 1.38293 0
M  V30 5531 C 995.294 -4.02089 2.69407 0
M  V30 5532 N 995.364 -2.73403 2.85089 0
M  V30 5533 C 995.514 -2.25086 1.5642 0
M  V30 5534 C 995.644 -0.942887 1.04836 0
M  V30 5535 N 995.654 0.150999 1.80369 0
M  V30 5536 N 995.764 -0.812565 -0.28167 0
M  V30 5537 C 995.754 -1.90572 -1.03784 0
M  V30 5538 N 995.634 -3.167 -0.683905 0
M  V30 5539 C 995.514 -3.26538 0.652815 0
M  V30 5540 H 992.536 -8.13738 3.03804 0
M  V30 5541 H 992.264 -6.42974 2.55559 0
M  V30 5542 H 993.132 -8.12139 0.792866 0
M  V30 5543 H 995.787 -5.80178 -0.160643 0
M  V30 5544 H 996.067 -6.51379 2.75643 0
M  V30 5545 H 997.058 -7.01832 1.3448 0
M  V30 5546 H 995.224 -8.73771 2.38364 0
M  V30 5547 H 995.183 -4.7189 3.52311 0
M  V30 5548 H 995.564 0.0721434 2.82608 0
M  V30 5549 H 995.753 1.0785 1.36544 0
M  V30 5550 H 995.861 -1.73207 -2.10241 0
M  V30 5551 P 997.094 -8.91 -7.50109e-12 0
M  V30 5552 O 997.314 -10.1726 -0.733694 0
M  V30 5553 O 997.884 -8.73148 1.23936 0
M  V30 5554 O 997.344 -7.66872 -0.971405 0
M  V30 5555 C 996.404 -7.42309 -2.04641 0
M  V30 5556 C 997.134 -6.86059 -3.24661 0
M  V30 5557 O 997.344 -5.42847 -3.03646 0
M  V30 5558 C 998.534 -7.41196 -3.50753 0
M  V30 5559 O 998.924 -7.27073 -4.86816 0
M  V30 5560 C 999.414 -6.5273 -2.63741 0
M  V30 5561 C 998.704 -5.1842 -2.73198 0
M  V30 5562 N 998.754 -4.38762 -1.4784 0
M  V30 5563 C 998.674 -4.81605 -0.168631 0
M  V30 5564 N 998.754 -3.85454 0.713363 0
M  V30 5565 C 998.894 -2.6994 -0.0566958 0
M  V30 5566 C 999.024 -1.34815 0.338502 0
M  V30 5567 N 999.144 -0.496304 -0.77465 0
M  V30 5568 C 999.144 -0.908403 -2.09122 0
M  V30 5569 N 999.274 0.0517805 -3.00955 0
M  V30 5570 N 999.014 -2.17875 -2.46519 0
M  V30 5571 C 998.894 -3.01988 -1.4033 0
M  V30 5572 H 995.915 -8.36803 -2.32493 0
M  V30 5573 H 995.645 -6.70197 -1.71129 0
M  V30 5574 H 996.512 -7.03551 -4.13168 0
M  V30 5575 P 1000.47 -7.20834 -5.23717 0
M  V30 5576 O 1000.69 -7.79853 -6.57286 0
M  V30 5577 O 1001.26 -7.79239 -4.12957 0
M  V30 5578 O 1000.72 -5.63315 -5.29344 0
M  V30 5579 C 999.784 -4.80255 -6.01876 0
M  V30 5580 C 1000.51 -3.64202 -6.65911 0
M  V30 5581 O 1000.72 -2.60694 -5.64732 0
M  V30 5582 C 1001.91 -3.93473 -7.1943 0
M  V30 5583 O 1002.3 -3.02071 -8.21205 0
M  V30 5584 C 1002.79 -3.73047 -5.97036 0
M  V30 5585 C 1002.08 -2.58828 -5.25741 0
M  V30 5586 N 1002.13 -2.68068 -3.77503 0
M  V30 5587 H 999.295 -5.40332 -6.79951 0
M  V30 5588 H 999.025 -4.41613 -5.32378 0
M  V30 5589 H 999.892 -3.26331 -7.47797 0
M  V30 5590 P 1003.85 -2.75334 -8.47391 0
M  V30 5591 O 1004.07 -2.44619 -9.90336 0
M  V30 5592 O 1004.64 -3.87776 -7.92294 0
M  V30 5593 O 1004.1 -1.4459 -7.59357 0
M  V30 5594 C 1003.16 -0.347653 -7.69315 0
M  V30 5595 C 1003.89 0.96767 -7.52806 0
M  V30 5596 O 1004.1 1.21055 -6.10208 0
M  V30 5597 C 1005.29 1.04557 -8.13408 0
M  V30 5598 O 1005.68 2.38311 -8.41922 0
M  V30 5599 C 1006.17 0.491279 -7.02284 0
M  V30 5600 C 1005.46 0.996264 -5.77469 0
M  V30 5601 N 1005.51 0.0501916 -4.62973 0
M  V30 5602 H 1002.68 -0.374765 -8.67791 0
M  V30 5603 H 1002.4 -0.443613 -6.90476 0
M  V30 5604 H 1003.27 1.75559 -7.96891 0
M  V30 5605 H 1005.93 1.94563 -5.46818 0
M  V30 5606 H 1006.21 -0.608651 -7.04676 0
M  V30 5607 H 1007.2 0.889796 -7.09039 0
M  V30 5608 H 1005.36 0.433128 -9.04664 0
M  V30 5609 P 1007.23 2.75334 -8.47391 0
M  V30 5610 O 1007.45 3.84166 -9.4489 0
M  V30 5611 O 1008.02 1.51964 -8.6881 0
M  V30 5612 O 1007.48 3.29363 -6.99321 0
M  V30 5613 C 1006.54 4.23956 -6.42656 0
M  V30 5614 C 1007.27 5.20775 -5.52155 0
M  V30 5615 O 1007.48 4.56534 -4.22446 0
M  V30 5616 C 1008.67 5.62629 -5.96531 0
M  V30 5617 O 1009.06 6.87667 -5.41053 0
M  V30 5618 C 1009.55 4.52537 -5.39283 0
M  V30 5619 C 1008.84 4.20027 -4.08623 0
M  V30 5620 N 1008.89 2.7613 -3.71522 0
M  V30 5621 C 1009.04 2.45612 -2.37989 0
M  V30 5622 O 1009.13 3.30919 -1.51621 0
M  V30 5623 N 1009.08 1.10684 -2.08435 0
M  V30 5624 C 1008.99 0.0690084 -2.9792 0
M  V30 5625 O 1009.04 -1.10553 -2.59426 0
M  V30 5626 C 1008.84 0.481522 -4.35345 0
M  V30 5627 C 1008.73 -0.618778 -5.36443 0
M  V30 5628 C 1008.79 1.78906 -4.67968 0
M  V30 5629 H 1006.05 4.797 -7.24003 0
M  V30 5630 H 1005.79 3.69802 -5.84429 0
M  V30 5631 H 1006.65 6.10356 -5.41441 0
M  V30 5632 H 1009.31 4.78651 -3.27911 0
M  V30 5633 H 1009.59 3.64957 -6.05871 0
M  V30 5634 H 1010.58 4.8868 -5.2125 0
M  V30 5635 H 1008.74 5.66726 -7.06352 0
M  V30 5636 H 1008.67 2.07737 -5.72367 0
M  V30 5637 H 1009.7 -0.754375 -5.86871 0
M  V30 5638 H 1007.97 -0.359721 -6.10641 0
M  V30 5639 H 1008.45 -1.55533 -4.8581 0
M  V30 5640 H 1009.19 0.862651 -1.12037 0
M  V30 5641 P 1010.61 7.20834 -5.23717 0
M  V30 5642 O 1010.83 8.66104 -5.38572 0
M  V30 5643 O 1011.4 6.33544 -6.1349 0
M  V30 5644 O 1010.86 6.7751 -3.72168 0
M  V30 5645 C 1009.92 7.20825 -2.7076 0
M  V30 5646 C 1010.65 7.45864 -1.40599 0
M  V30 5647 O 1010.86 6.17651 -0.734225 0
M  V30 5648 C 1012.05 8.05808 -1.51899 0
M  V30 5649 O 1012.44 8.74358 -0.335205 0
M  V30 5650 C 1012.93 6.83093 -1.70294 0
M  V30 5651 C 1012.22 5.79992 -0.836974 0
M  V30 5652 N 1012.27 4.41864 -1.38293 0
M  V30 5653 H 1009.44 8.13644 -3.0377 0
M  V30 5654 H 1009.17 6.42788 -2.55485 0
M  V30 5655 H 1010.03 8.12039 -0.792769 0
M  V30 5656 P 1013.99 8.91 7.65827e-12 0
M  V30 5657 O 1014.21 10.1746 0.733838 0
M  V30 5658 O 1014.78 8.73346 -1.23964 0
M  V30 5659 O 1014.24 7.66872 0.971405 0
M  V30 5660 C 1013.3 7.42405 2.04668 0
M  V30 5661 C 1014.03 6.86059 3.24661 0
M  V30 5662 O 1014.24 5.42934 3.03695 0
M  V30 5663 C 1015.43 7.41287 3.50796 0
M  V30 5664 O 1015.82 7.27073 4.86816 0
M  V30 5665 C 1016.31 6.5273 2.63741 0
M  V30 5666 C 1015.6 5.1842 2.73198 0
M  V30 5667 N 1015.65 4.38762 1.4784 0
M  V30 5668 H 1012.82 8.36899 2.3252 0
M  V30 5669 H 1012.54 6.70391 1.71179 0
M  V30 5670 H 1013.41 7.03638 4.13219 0
M  V30 5671 H 1016.07 4.59931 3.54016 0
M  V30 5672 H 1016.35 6.88995 1.59871 0
M  V30 5673 H 1017.34 6.4684 3.0373 0
M  V30 5674 H 1015.5 8.47002 3.20749 0
M  V30 5675 P 1017.37 7.20834 5.23717 0
M  V30 5676 O 1017.59 7.79853 6.57286 0
M  V30 5677 O 1018.16 7.79239 4.12957 0
M  V30 5678 O 1017.62 5.63315 5.29344 0
M  V30 5679 C 1016.68 4.80255 6.01876 0
M  V30 5680 C 1017.41 3.64202 6.65911 0
M  V30 5681 O 1017.62 2.60694 5.64732 0
M  V30 5682 C 1018.81 3.93473 7.1943 0
M  V30 5683 O 1019.2 3.02071 8.21205 0
M  V30 5684 C 1019.69 3.73047 5.97036 0
M  V30 5685 C 1018.98 2.58828 5.25741 0
M  V30 5686 N 1019.03 2.68068 3.77503 0
M  V30 5687 H 1016.19 5.40332 6.79951 0
M  V30 5688 H 1015.92 4.41613 5.32378 0
M  V30 5689 H 1016.79 3.26331 7.47797 0
M  V30 5690 P 1020.75 2.75334 8.47391 0
M  V30 5691 O 1020.97 2.44571 9.90142 0
M  V30 5692 O 1021.54 3.87688 7.92115 0
M  V30 5693 O 1021 1.4459 7.59357 0
M  V30 5694 C 1020.06 0.347608 7.69215 0
M  V30 5695 C 1020.79 -0.96767 7.52806 0
M  V30 5696 O 1021 -1.21036 6.1011 0
M  V30 5697 C 1022.19 -1.04544 8.13308 0
M  V30 5698 O 1022.58 -2.38311 8.41922 0
M  V30 5699 C 1023.07 -0.491279 7.02284 0
M  V30 5700 C 1022.36 -0.996264 5.77469 0
M  V30 5701 N 1022.41 -0.0501916 4.62973 0
M  V30 5702 H 1019.57 0.374722 8.67691 0
M  V30 5703 H 1019.3 0.443485 6.90277 0
M  V30 5704 H 1020.17 -1.75537 7.96793 0
M  V30 5705 P 1024.13 -2.75334 8.47391 0
M  V30 5706 O 1024.35 -3.84128 9.44797 0
M  V30 5707 O 1024.92 -1.51947 8.68712 0
M  V30 5708 O 1024.38 -3.29363 6.99321 0
M  V30 5709 C 1023.44 -4.24011 6.4274 0
M  V30 5710 C 1024.17 -5.20775 5.52155 0
M  V30 5711 O 1024.38 -4.56534 4.22446 0
M  V30 5712 C 1025.57 -5.62629 5.96531 0
M  V30 5713 O 1025.96 -6.87667 5.41053 0
M  V30 5714 C 1026.45 -4.52537 5.39283 0
M  V30 5715 C 1025.74 -4.20027 4.08623 0
M  V30 5716 N 1025.79 -2.76189 3.71603 0
M  V30 5717 C 1025.71 -1.64862 4.52822 0
M  V30 5718 N 1025.79 -0.512671 3.88633 0
M  V30 5719 C 1025.93 -0.888083 2.54977 0
M  V30 5720 C 1026.06 -0.094668 1.38677 0
M  V30 5721 N 1026.18 -0.890102 0.232633 0
M  V30 5722 C 1026.18 -2.26958 0.21772 0
M  V30 5723 N 1026.31 -2.84626 -0.97925 0
M  V30 5724 N 1026.05 -3.0178 1.31033 0
M  V30 5725 C 1025.93 -2.26781 2.43843 0
M  V30 5726 H 1022.95 -4.797 7.24003 0
M  V30 5727 H 1022.68 -3.69856 5.84513 0
M  V30 5728 H 1023.55 -6.10356 5.41441 0
M  V30 5729 P 1027.51 -7.20834 5.23717 0
M  V30 5730 O 1027.73 -8.66104 5.38572 0
M  V30 5731 O 1028.3 -6.33544 6.1349 0
M  V30 5732 O 1027.76 -6.7751 3.72168 0
M  V30 5733 C 1026.82 -7.20825 2.7076 0
M  V30 5734 C 1027.55 -7.45864 1.40599 0
M  V30 5735 O 1027.76 -6.17651 0.734225 0
M  V30 5736 C 1028.95 -8.05808 1.51899 0
M  V30 5737 O 1029.34 -8.74358 0.335205 0
M  V30 5738 C 1029.83 -6.83093 1.70294 0
M  V30 5739 C 1029.12 -5.79992 0.836974 0
M  V30 5740 N 1029.17 -4.41864 1.38293 0
M  V30 5741 H 1026.33 -8.13644 3.0377 0
M  V30 5742 H 1026.06 -6.42788 2.55485 0
M  V30 5743 H 1026.93 -8.12039 0.792769 0
M  V30 5744 P 1030.89 -8.91 -7.81545e-12 0
M  V30 5745 O 1031.11 -10.1726 -0.733694 0
M  V30 5746 O 1031.68 -8.73148 1.23936 0
M  V30 5747 O 1031.14 -7.66872 -0.971405 0
M  V30 5748 C 1030.2 -7.42309 -2.04641 0
M  V30 5749 C 1030.93 -6.86059 -3.24661 0
M  V30 5750 O 1031.14 -5.42847 -3.03646 0
M  V30 5751 C 1032.33 -7.41196 -3.50753 0
M  V30 5752 O 1032.72 -7.27073 -4.86816 0
M  V30 5753 C 1033.21 -6.5273 -2.63741 0
M  V30 5754 C 1032.5 -5.1842 -2.73198 0
M  V30 5755 N 1032.55 -4.38762 -1.4784 0
M  V30 5756 H 1029.71 -8.36803 -2.32493 0
M  V30 5757 H 1029.44 -6.70197 -1.71129 0
M  V30 5758 H 1030.31 -7.03551 -4.13168 0
M  V30 5759 P 1034.27 -7.20834 -5.23717 0
M  V30 5760 O 1034.49 -7.79853 -6.57286 0
M  V30 5761 O 1035.06 -7.79239 -4.12957 0
M  V30 5762 O 1034.52 -5.63315 -5.29344 0
M  V30 5763 C 1033.58 -4.80255 -6.01876 0
M  V30 5764 C 1034.31 -3.64202 -6.65911 0
M  V30 5765 O 1034.52 -2.60694 -5.64732 0
M  V30 5766 C 1035.71 -3.93473 -7.1943 0
M  V30 5767 O 1036.1 -3.02071 -8.21205 0
M  V30 5768 C 1036.59 -3.73047 -5.97036 0
M  V30 5769 C 1035.88 -2.58828 -5.25741 0
M  V30 5770 N 1035.93 -2.68068 -3.77503 0
M  V30 5771 H 1033.09 -5.40332 -6.79951 0
M  V30 5772 H 1032.82 -4.41613 -5.32378 0
M  V30 5773 H 1033.69 -3.26331 -7.47797 0
M  V30 5774 P 1037.65 -2.75334 -8.47391 0
M  V30 5775 O 1037.87 -2.44619 -9.90336 0
M  V30 5776 O 1038.44 -3.87776 -7.92294 0
M  V30 5777 O 1037.9 -1.4459 -7.59357 0
M  V30 5778 C 1036.96 -0.347653 -7.69315 0
M  V30 5779 C 1037.69 0.96767 -7.52806 0
M  V30 5780 O 1037.9 1.21055 -6.10208 0
M  V30 5781 C 1039.09 1.04557 -8.13408 0
M  V30 5782 O 1039.48 2.38311 -8.41922 0
M  V30 5783 C 1039.97 0.491279 -7.02284 0
M  V30 5784 C 1039.26 0.996264 -5.77469 0
M  V30 5785 N 1039.31 0.0501916 -4.62973 0
M  V30 5786 C 1039.23 -1.31969 -4.65661 0
M  V30 5787 N 1039.3 -1.86649 -3.48119 0
M  V30 5788 C 1039.45 -0.792089 -2.62406 0
M  V30 5789 C 1039.58 -0.705684 -1.2207 0
M  V30 5790 N 1039.59 -1.76207 -0.413762 0
M  V30 5791 N 1039.7 0.518981 -0.685754 0
M  V30 5792 C 1039.69 1.57595 -1.49174 0
M  V30 5793 N 1039.57 1.62909 -2.80066 0
M  V30 5794 C 1039.45 0.388195 -3.3073 0
M  V30 5795 H 1036.48 -0.374765 -8.67791 0
M  V30 5796 H 1036.2 -0.443613 -6.90476 0
M  V30 5797 H 1037.07 1.75559 -7.96891 0
M  V30 5798 H 1039.73 1.94563 -5.46818 0
M  V30 5799 H 1040.01 -0.608651 -7.04676 0
M  V30 5800 H 1041 0.889796 -7.09039 0
M  V30 5801 H 1039.16 0.433128 -9.04664 0
M  V30 5802 H 1039.12 -1.89246 -5.57664 0
M  V30 5803 H 1039.5 -2.71005 -0.804694 0
M  V30 5804 H 1039.69 -1.63189 0.603768 0
M  V30 5805 H 1039.8 2.53475 -0.997614 0
M  V30 5806 P 1041.03 2.75334 -8.47391 0
M  V30 5807 O 1041.25 3.84128 -9.44797 0
M  V30 5808 O 1041.82 1.51947 -8.68712 0
M  V30 5809 O 1041.28 3.29363 -6.99321 0
M  V30 5810 C 1040.34 4.24011 -6.4274 0
M  V30 5811 C 1041.07 5.20775 -5.52155 0
M  V30 5812 O 1041.28 4.56534 -4.22446 0
M  V30 5813 C 1042.47 5.62629 -5.96531 0
M  V30 5814 O 1042.86 6.87667 -5.41053 0
M  V30 5815 C 1043.35 4.52537 -5.39283 0
M  V30 5816 C 1042.64 4.20027 -4.08623 0
M  V30 5817 N 1042.69 2.76189 -3.71603 0
M  V30 5818 C 1042.61 1.64862 -4.52822 0
M  V30 5819 N 1042.69 0.512671 -3.88633 0
M  V30 5820 C 1042.83 0.888083 -2.54977 0
M  V30 5821 C 1042.96 0.094668 -1.38677 0
M  V30 5822 N 1043.08 0.890102 -0.232633 0
M  V30 5823 C 1043.08 2.26958 -0.21772 0
M  V30 5824 N 1043.21 2.84626 0.97925 0
M  V30 5825 N 1042.95 3.0178 -1.31033 0
M  V30 5826 C 1042.83 2.26781 -2.43843 0
M  V30 5827 H 1039.85 4.797 -7.24003 0
M  V30 5828 H 1039.58 3.69856 -5.84513 0
M  V30 5829 H 1040.45 6.10356 -5.41441 0
M  V30 5830 P 1044.41 7.20834 -5.23717 0
M  V30 5831 O 1044.63 8.66104 -5.38572 0
M  V30 5832 O 1045.2 6.33544 -6.1349 0
M  V30 5833 O 1044.66 6.7751 -3.72168 0
M  V30 5834 C 1043.72 7.20825 -2.7076 0
M  V30 5835 C 1044.45 7.45864 -1.40599 0
M  V30 5836 O 1044.66 6.17651 -0.734225 0
M  V30 5837 C 1045.85 8.05808 -1.51899 0
M  V30 5838 O 1046.24 8.74358 -0.335205 0
M  V30 5839 C 1046.73 6.83093 -1.70294 0
M  V30 5840 C 1046.02 5.79992 -0.836974 0
M  V30 5841 N 1046.07 4.41864 -1.38293 0
M  V30 5842 H 1043.23 8.13644 -3.0377 0
M  V30 5843 H 1042.96 6.42788 -2.55485 0
M  V30 5844 H 1043.83 8.12039 -0.792769 0
M  V30 5845 P 1047.79 8.91 7.97264e-12 0
M  V30 5846 O 1048.01 10.1726 0.733694 0
M  V30 5847 O 1048.58 8.73148 -1.23936 0
M  V30 5848 O 1048.04 7.66872 0.971405 0
M  V30 5849 C 1047.1 7.42309 2.04641 0
M  V30 5850 C 1047.83 6.86059 3.24661 0
M  V30 5851 O 1048.04 5.42847 3.03646 0
M  V30 5852 C 1049.23 7.41196 3.50753 0
M  V30 5853 O 1049.62 7.27073 4.86816 0
M  V30 5854 C 1050.11 6.5273 2.63741 0
M  V30 5855 C 1049.4 5.1842 2.73198 0
M  V30 5856 N 1049.45 4.38762 1.4784 0
M  V30 5857 H 1046.61 8.36803 2.32493 0
M  V30 5858 H 1046.34 6.70197 1.71129 0
M  V30 5859 H 1047.21 7.03551 4.13168 0
M  V30 5860 P 1051.17 7.20834 5.23717 0
M  V30 5861 O 1051.39 7.79853 6.57286 0
M  V30 5862 O 1051.96 7.79239 4.12957 0
M  V30 5863 O 1051.42 5.63315 5.29344 0
M  V30 5864 C 1050.48 4.80255 6.01876 0
M  V30 5865 C 1051.21 3.64202 6.65911 0
M  V30 5866 O 1051.42 2.60694 5.64732 0
M  V30 5867 C 1052.61 3.93473 7.1943 0
M  V30 5868 O 1053 3.02071 8.21205 0
M  V30 5869 C 1053.49 3.73047 5.97036 0
M  V30 5870 C 1052.78 2.58828 5.25741 0
M  V30 5871 N 1052.83 2.68068 3.77503 0
M  V30 5872 H 1049.99 5.40332 6.79951 0
M  V30 5873 H 1049.72 4.41613 5.32378 0
M  V30 5874 H 1050.59 3.26331 7.47797 0
M  V30 5875 P 1054.55 2.75334 8.47391 0
M  V30 5876 O 1054.77 2.44571 9.90142 0
M  V30 5877 O 1055.34 3.87688 7.92115 0
M  V30 5878 O 1054.8 1.4459 7.59357 0
M  V30 5879 C 1053.86 0.347608 7.69215 0
M  V30 5880 C 1054.59 -0.96767 7.52806 0
M  V30 5881 O 1054.8 -1.21036 6.1011 0
M  V30 5882 C 1055.99 -1.04544 8.13308 0
M  V30 5883 O 1056.38 -2.38311 8.41922 0
M  V30 5884 C 1056.87 -0.491279 7.02284 0
M  V30 5885 C 1056.16 -0.996264 5.77469 0
M  V30 5886 N 1056.21 -0.0501916 4.62973 0
M  V30 5887 H 1053.37 0.374722 8.67691 0
M  V30 5888 H 1053.1 0.443485 6.90277 0
M  V30 5889 H 1053.97 -1.75537 7.96793 0
M  V30 5890 P 1057.93 -2.75334 8.47391 0
M  V30 5891 O 1058.15 -3.84166 9.4489 0
M  V30 5892 O 1058.72 -1.51964 8.6881 0
M  V30 5893 O 1058.18 -3.29363 6.99321 0
M  V30 5894 C 1057.24 -4.23956 6.42656 0
M  V30 5895 C 1057.97 -5.20775 5.52155 0
M  V30 5896 O 1058.18 -4.56534 4.22446 0
M  V30 5897 C 1059.37 -5.62629 5.96531 0
M  V30 5898 O 1059.76 -6.87667 5.41053 0
M  V30 5899 C 1060.25 -4.52537 5.39283 0
M  V30 5900 C 1059.54 -4.20027 4.08623 0
M  V30 5901 N 1059.59 -2.7613 3.71522 0
M  V30 5902 C 1059.74 -2.45612 2.37989 0
M  V30 5903 O 1059.83 -3.30919 1.51621 0
M  V30 5904 N 1059.78 -1.10684 2.08435 0
M  V30 5905 C 1059.69 -0.0690084 2.9792 0
M  V30 5906 O 1059.74 1.10553 2.59426 0
M  V30 5907 C 1059.54 -0.481522 4.35345 0
M  V30 5908 C 1059.43 0.618778 5.36443 0
M  V30 5909 C 1059.49 -1.78906 4.67968 0
M  V30 5910 H 1056.75 -4.797 7.24003 0
M  V30 5911 H 1056.48 -3.69802 5.84429 0
M  V30 5912 H 1057.35 -6.10356 5.41441 0
M  V30 5913 H 1060.01 -4.78651 3.27911 0
M  V30 5914 H 1060.29 -3.64957 6.05871 0
M  V30 5915 H 1061.28 -4.8868 5.2125 0
M  V30 5916 H 1059.44 -5.66726 7.06352 0
M  V30 5917 H 1059.37 -2.07737 5.72367 0
M  V30 5918 H 1060.4 0.754375 5.86871 0
M  V30 5919 H 1058.67 0.359721 6.10641 0
M  V30 5920 H 1059.15 1.55533 4.8581 0
M  V30 5921 H 1059.89 -0.862651 1.12037 0
M  V30 5922 P 1061.31 -7.20834 5.23717 0
M  V30 5923 O 1061.53 -8.66189 5.38625 0
M  V30 5924 O 1062.1 -6.33615 6.1356 0
M  V30 5925 O 1061.56 -6.7751 3.72168 0
M  V30 5926 C 1060.62 -7.20732 2.70725 0
M  V30 5927 C 1061.35 -7.45864 1.40599 0
M  V30 5928 O 1061.56 -6.17651 0.734225 0
M  V30 5929 C 1062.75 -8.05808 1.51899 0
M  V30 5930 O 1063.14 -8.74358 0.335205 0
M  V30 5931 C 1063.63 -6.83093 1.70294 0
M  V30 5932 C 1062.92 -5.79992 0.836974 0
M  V30 5933 N 1062.97 -4.41769 1.38263 0
M  V30 5934 C 1063.12 -3.38591 0.481702 0
M  V30 5935 O 1063.21 -3.56839 -0.718452 0
M  V30 5936 N 1063.16 -2.1206 1.03569 0
M  V30 5937 C 1063.07 -1.80696 2.36966 0
M  V30 5938 O 1063.12 -0.630473 2.74862 0
M  V30 5939 C 1062.92 -2.94845 3.23898 0
M  V30 5940 C 1062.81 -2.65253 4.70362 0
M  V30 5941 C 1062.87 -4.19803 2.73435 0
M  V30 5942 H 1060.13 -8.13644 3.0377 0
M  V30 5943 H 1059.86 -6.42695 2.55448 0
M  V30 5944 H 1060.73 -8.12039 0.792769 0
M  V30 5945 H 1063.39 -5.79978 -0.160587 0
M  V30 5946 H 1063.67 -6.51379 2.75643 0
M  V30 5947 H 1064.66 -7.01734 1.34462 0
M  V30 5948 H 1062.82 -8.73674 2.38337 0
M  V30 5949 H 1062.75 -5.04492 3.4095 0
M  V30 5950 H 1063.78 -2.83924 5.1913 0
M  V30 5951 H 1062.05 -3.29824 5.15163 0
M  V30 5952 H 1062.53 -1.59723 4.84449 0
M  V30 5953 H 1063.27 -1.35644 0.399345 0
M  V30 5954 P 1064.69 -8.91 -8.12982e-12 0
M  V30 5955 O 1064.91 -10.1726 -0.733694 0
M  V30 5956 O 1065.48 -8.73148 1.23936 0
M  V30 5957 O 1064.94 -7.66872 -0.971405 0
M  V30 5958 C 1064 -7.42309 -2.04641 0
M  V30 5959 C 1064.73 -6.86059 -3.24661 0
M  V30 5960 O 1064.94 -5.42847 -3.03646 0
M  V30 5961 C 1066.13 -7.41196 -3.50753 0
M  V30 5962 O 1066.52 -7.27073 -4.86816 0
M  V30 5963 C 1067.01 -6.5273 -2.63741 0
M  V30 5964 C 1066.3 -5.1842 -2.73198 0
M  V30 5965 N 1066.35 -4.38762 -1.4784 0
M  V30 5966 H 1063.51 -8.36803 -2.32493 0
M  V30 5967 H 1063.24 -6.70197 -1.71129 0
M  V30 5968 H 1064.11 -7.03551 -4.13168 0
M  V30 5969 P 1068.07 -7.20834 -5.23717 0
M  V30 5970 O 1068.29 -7.80006 -6.57415 0
M  V30 5971 O 1068.86 -7.79416 -4.13051 0
M  V30 5972 O 1068.32 -5.63315 -5.29344 0
M  V30 5973 C 1067.38 -4.80318 -6.01954 0
M  V30 5974 C 1068.11 -3.64202 -6.65911 0
M  V30 5975 O 1068.32 -2.60736 -5.64823 0
M  V30 5976 C 1069.51 -3.93521 -7.19518 0
M  V30 5977 O 1069.9 -3.02071 -8.21205 0
M  V30 5978 C 1070.39 -3.73047 -5.97036 0
M  V30 5979 C 1069.68 -2.58828 -5.25741 0
M  V30 5980 N 1069.73 -2.68068 -3.77503 0
M  V30 5981 H 1066.9 -5.40394 -6.8003 0
M  V30 5982 H 1066.62 -4.41741 -5.32532 0
M  V30 5983 H 1067.49 -3.26371 -7.47889 0
M  V30 5984 H 1070.15 -1.64007 -5.56746 0
M  V30 5985 H 1070.43 -4.63439 -5.3432 0
M  V30 5986 H 1071.42 -3.44776 -6.25925 0
M  V30 5987 H 1069.58 -4.96707 -7.57347 0
M  V30 5988 P 1071.45 -2.75334 -8.47391 0
M  V30 5989 O 1071.67 -2.44571 -9.90142 0
M  V30 5990 O 1072.24 -3.87688 -7.92115 0
M  V30 5991 O 1071.7 -1.4459 -7.59357 0
M  V30 5992 C 1070.76 -0.347608 -7.69215 0
M  V30 5993 C 1071.49 0.96767 -7.52806 0
M  V30 5994 O 1071.7 1.21036 -6.1011 0
M  V30 5995 C 1072.89 1.04544 -8.13308 0
M  V30 5996 O 1073.28 2.38311 -8.41922 0
M  V30 5997 C 1073.77 0.491279 -7.02284 0
M  V30 5998 C 1073.06 0.996264 -5.77469 0
M  V30 5999 N 1073.11 0.0501916 -4.62973 0
M  V30 6000 H 1070.27 -0.374722 -8.67691 0
M  V30 6001 H 1070 -0.443485 -6.90277 0
M  V30 6002 H 1070.87 1.75537 -7.96793 0
M  V30 6003 P 1074.83 2.75334 -8.47391 0
M  V30 6004 O 1075.05 3.84128 -9.44797 0
M  V30 6005 O 1075.62 1.51947 -8.68712 0
M  V30 6006 O 1075.08 3.29363 -6.99321 0
M  V30 6007 C 1074.14 4.24011 -6.4274 0
M  V30 6008 C 1074.87 5.20775 -5.52155 0
M  V30 6009 O 1075.08 4.56534 -4.22446 0
M  V30 6010 C 1076.27 5.62629 -5.96531 0
M  V30 6011 O 1076.66 6.87667 -5.41053 0
M  V30 6012 C 1077.15 4.52537 -5.39283 0
M  V30 6013 C 1076.44 4.20027 -4.08623 0
M  V30 6014 N 1076.49 2.76189 -3.71603 0
M  V30 6015 H 1073.65 4.797 -7.24003 0
M  V30 6016 H 1073.38 3.69856 -5.84513 0
M  V30 6017 H 1074.25 6.10356 -5.41441 0
M  V30 6018 P 1078.21 7.20834 -5.23717 0
M  V30 6019 O 1078.43 8.66104 -5.38572 0
M  V30 6020 O 1079 6.33544 -6.1349 0
M  V30 6021 O 1078.46 6.7751 -3.72168 0
M  V30 6022 C 1077.52 7.20825 -2.7076 0
M  V30 6023 C 1078.25 7.45864 -1.40599 0
M  V30 6024 O 1078.46 6.17651 -0.734225 0
M  V30 6025 C 1079.65 8.05808 -1.51899 0
M  V30 6026 O 1080.04 8.74358 -0.335205 0
M  V30 6027 C 1080.53 6.83093 -1.70294 0
M  V30 6028 C 1079.82 5.79992 -0.836974 0
M  V30 6029 N 1079.87 4.41864 -1.38293 0
M  V30 6030 H 1077.03 8.13644 -3.0377 0
M  V30 6031 H 1076.76 6.42788 -2.55485 0
M  V30 6032 H 1077.63 8.12039 -0.792769 0
M  V30 6033 P 1081.59 8.91 8.287e-12 0
M  V30 6034 O 1081.81 10.1726 0.733694 0
M  V30 6035 O 1082.38 8.73148 -1.23936 0
M  V30 6036 O 1081.84 7.66872 0.971405 0
M  V30 6037 C 1080.9 7.42309 2.04641 0
M  V30 6038 C 1081.63 6.86059 3.24661 0
M  V30 6039 O 1081.84 5.42847 3.03646 0
M  V30 6040 C 1083.03 7.41196 3.50753 0
M  V30 6041 O 1083.42 7.27073 4.86816 0
M  V30 6042 C 1083.91 6.5273 2.63741 0
M  V30 6043 C 1083.2 5.1842 2.73198 0
M  V30 6044 N 1083.25 4.38762 1.4784 0
M  V30 6045 H 1080.41 8.36803 2.32493 0
M  V30 6046 H 1080.14 6.70197 1.71129 0
M  V30 6047 H 1081.01 7.03551 4.13168 0
M  V30 6048 P 1084.97 7.20834 5.23717 0
M  V30 6049 O 1085.19 7.79853 6.57286 0
M  V30 6050 O 1085.76 7.79239 4.12957 0
M  V30 6051 O 1085.22 5.63315 5.29344 0
M  V30 6052 C 1084.28 4.80255 6.01876 0
M  V30 6053 C 1085.01 3.64202 6.65911 0
M  V30 6054 O 1085.22 2.60694 5.64732 0
M  V30 6055 C 1086.41 3.93473 7.1943 0
M  V30 6056 O 1086.8 3.02071 8.21205 0
M  V30 6057 C 1087.29 3.73047 5.97036 0
M  V30 6058 C 1086.58 2.58828 5.25741 0
M  V30 6059 N 1086.63 2.68068 3.77503 0
M  V30 6060 H 1083.79 5.40332 6.79951 0
M  V30 6061 H 1083.52 4.41613 5.32378 0
M  V30 6062 H 1084.39 3.26331 7.47797 0
M  V30 6063 P 1088.35 2.75334 8.47391 0
M  V30 6064 O 1088.57 2.44571 9.90142 0
M  V30 6065 O 1089.14 3.87688 7.92115 0
M  V30 6066 O 1088.6 1.4459 7.59357 0
M  V30 6067 C 1087.66 0.347608 7.69215 0
M  V30 6068 C 1088.39 -0.96767 7.52806 0
M  V30 6069 O 1088.6 -1.21036 6.1011 0
M  V30 6070 C 1089.79 -1.04544 8.13308 0
M  V30 6071 O 1090.18 -2.38311 8.41922 0
M  V30 6072 C 1090.67 -0.491279 7.02284 0
M  V30 6073 C 1089.96 -0.996264 5.77469 0
M  V30 6074 N 1090.01 -0.0501916 4.62973 0
M  V30 6075 H 1087.17 0.374722 8.67691 0
M  V30 6076 H 1086.9 0.443485 6.90277 0
M  V30 6077 H 1087.77 -1.75537 7.96793 0
M  V30 6078 P 1091.73 -2.75334 8.47391 0
M  V30 6079 O 1091.95 -3.84128 9.44797 0
M  V30 6080 O 1092.52 -1.51947 8.68712 0
M  V30 6081 O 1091.98 -3.29363 6.99321 0
M  V30 6082 C 1091.04 -4.24011 6.4274 0
M  V30 6083 C 1091.77 -5.20775 5.52155 0
M  V30 6084 O 1091.98 -4.56534 4.22446 0
M  V30 6085 C 1093.17 -5.62629 5.96531 0
M  V30 6086 O 1093.56 -6.87667 5.41053 0
M  V30 6087 C 1094.05 -4.52537 5.39283 0
M  V30 6088 C 1093.34 -4.20027 4.08623 0
M  V30 6089 N 1093.39 -2.76189 3.71603 0
M  V30 6090 H 1090.55 -4.797 7.24003 0
M  V30 6091 H 1090.28 -3.69856 5.84513 0
M  V30 6092 H 1091.15 -6.10356 5.41441 0
M  V30 6093 P 1095.11 -7.20834 5.23717 0
M  V30 6094 O 1095.33 -8.66189 5.38625 0
M  V30 6095 O 1095.9 -6.33615 6.1356 0
M  V30 6096 O 1095.36 -6.7751 3.72168 0
M  V30 6097 C 1094.42 -7.20732 2.70725 0
M  V30 6098 C 1095.15 -7.45864 1.40599 0
M  V30 6099 O 1095.36 -6.17651 0.734225 0
M  V30 6100 C 1096.55 -8.05808 1.51899 0
M  V30 6101 O 1096.94 -8.74358 0.335205 0
M  V30 6102 C 1097.43 -6.83093 1.70294 0
M  V30 6103 C 1096.72 -5.79992 0.836974 0
M  V30 6104 N 1096.77 -4.41769 1.38263 0
M  V30 6105 C 1096.92 -3.38591 0.481702 0
M  V30 6106 O 1097.01 -3.56839 -0.718452 0
M  V30 6107 N 1096.96 -2.1206 1.03569 0
M  V30 6108 C 1096.87 -1.80696 2.36966 0
M  V30 6109 C 1096.72 -2.94845 3.23898 0
M  V30 6110 C 1096.67 -4.19803 2.73435 0
M  V30 6111 H 1093.93 -8.13644 3.0377 0
M  V30 6112 H 1093.66 -6.42695 2.55448 0
M  V30 6113 H 1094.53 -8.12039 0.792769 0
M  V30 6114 H 1097.19 -5.79978 -0.160587 0
M  V30 6115 H 1097.47 -6.51379 2.75643 0
M  V30 6116 H 1098.46 -7.01734 1.34462 0
M  V30 6117 H 1096.62 -8.73674 2.38337 0
M  V30 6118 H 1096.55 -5.04492 3.4095 0
M  V30 6119 P 1098.49 -8.91 -8.44418e-12 0
M  V30 6120 O 1098.71 -10.1726 -0.733694 0
M  V30 6121 O 1099.28 -8.73148 1.23936 0
M  V30 6122 O 1098.74 -7.66872 -0.971405 0
M  V30 6123 C 1097.8 -7.42309 -2.04641 0
M  V30 6124 C 1098.53 -6.86059 -3.24661 0
M  V30 6125 O 1098.74 -5.42847 -3.03646 0
M  V30 6126 C 1099.93 -7.41196 -3.50753 0
M  V30 6127 O 1100.32 -7.27073 -4.86816 0
M  V30 6128 C 1100.81 -6.5273 -2.63741 0
M  V30 6129 C 1100.1 -5.1842 -2.73198 0
M  V30 6130 N 1100.15 -4.38762 -1.4784 0
M  V30 6131 C 1100.07 -4.81605 -0.168631 0
M  V30 6132 N 1100.15 -3.85454 0.713363 0
M  V30 6133 C 1100.29 -2.6994 -0.0566958 0
M  V30 6134 C 1100.42 -1.34815 0.338502 0
M  V30 6135 N 1100.54 -0.496304 -0.77465 0
M  V30 6136 C 1100.54 -0.908403 -2.09122 0
M  V30 6137 N 1100.67 0.0517805 -3.00955 0
M  V30 6138 N 1100.41 -2.17875 -2.46519 0
M  V30 6139 C 1100.29 -3.01988 -1.4033 0
M  V30 6140 H 1097.31 -8.36803 -2.32493 0
M  V30 6141 H 1097.04 -6.70197 -1.71129 0
M  V30 6142 H 1097.91 -7.03551 -4.13168 0
M  V30 6143 P 1101.87 -7.20834 -5.23717 0
M  V30 6144 O 1102.09 -7.80006 -6.57415 0
M  V30 6145 O 1102.66 -7.79416 -4.13051 0
M  V30 6146 O 1102.12 -5.63315 -5.29344 0
M  V30 6147 C 1101.18 -4.80318 -6.01954 0
M  V30 6148 C 1101.91 -3.64202 -6.65911 0
M  V30 6149 O 1102.12 -2.60736 -5.64823 0
M  V30 6150 C 1103.31 -3.93521 -7.19518 0
M  V30 6151 O 1103.7 -3.02071 -8.21205 0
M  V30 6152 C 1104.19 -3.73047 -5.97036 0
M  V30 6153 C 1103.48 -2.58828 -5.25741 0
M  V30 6154 N 1103.53 -2.68068 -3.77503 0
M  V30 6155 C 1103.45 -3.80474 -2.99159 0
M  V30 6156 N 1103.52 -3.55622 -1.71925 0
M  V30 6157 C 1103.67 -2.1832 -1.65733 0
M  V30 6158 C 1103.8 -1.28842 -0.572777 0
M  V30 6159 N 1103.81 -1.66875 0.70098 0
M  V30 6160 N 1103.92 0.016788 -0.859836 0
M  V30 6161 C 1103.91 0.398145 -2.13316 0
M  V30 6162 N 1103.79 -0.328224 -3.22333 0
M  V30 6163 C 1103.67 -1.62992 -2.90383 0
M  V30 6164 H 1100.7 -5.40394 -6.8003 0
M  V30 6165 H 1100.42 -4.41741 -5.32532 0
M  V30 6166 H 1101.29 -3.26371 -7.47889 0
M  V30 6167 H 1103.95 -1.64007 -5.56746 0
M  V30 6168 H 1104.23 -4.63439 -5.3432 0
M  V30 6169 H 1105.22 -3.44776 -6.25925 0
M  V30 6170 H 1103.38 -4.96707 -7.57347 0
M  V30 6171 H 1103.34 -4.8089 -3.39924 0
M  V30 6172 H 1103.72 -2.66547 0.941919 0
M  V30 6173 H 1103.91 -0.965341 1.44766 0
M  V30 6174 H 1104.02 1.46427 -2.29697 0
M  V30 6175 P 1105.25 -2.75334 -8.47391 0
M  V30 6176 O 1105.47 -2.44595 -9.90239 0
M  V30 6177 O 1106.04 -3.87732 -7.92204 0
M  V30 6178 O 1105.5 -1.4459 -7.59357 0
M  V30 6179 C 1104.56 -0.347563 -7.69115 0
M  V30 6180 C 1105.29 0.96767 -7.52806 0
M  V30 6181 O 1105.5 1.21036 -6.1011 0
M  V30 6182 C 1106.69 1.04544 -8.13308 0
M  V30 6183 O 1107.08 2.38311 -8.41922 0
M  V30 6184 C 1107.57 0.491279 -7.02284 0
M  V30 6185 C 1106.86 0.996264 -5.77469 0
M  V30 6186 N 1106.91 0.0501808 -4.62873 0
M  V30 6187 C 1107.06 0.588177 -3.36904 0
M  V30 6188 O 1107.15 1.78598 -3.17173 0
M  V30 6189 N 1107.1 -0.329694 -2.33686 0
M  V30 6190 C 1107.01 -1.6953 -2.45079 0
M  V30 6191 O 1107.06 -2.41926 -1.44899 0
M  V30 6192 C 1106.86 -2.16933 -3.80505 0
M  V30 6193 C 1106.75 -3.65373 -3.97621 0
M  V30 6194 C 1106.81 -1.30326 -4.83752 0
M  V30 6195 H 1104.07 -0.374722 -8.67691 0
M  V30 6196 H 1103.8 -0.443421 -6.90177 0
M  V30 6197 H 1104.67 1.75537 -7.96793 0
M  V30 6198 H 1107.33 1.94496 -5.46629 0
M  V30 6199 H 1107.61 -0.608651 -7.04676 0
M  V30 6200 H 1108.6 0.889672 -7.08939 0
M  V30 6201 H 1106.76 0.43308 -9.04564 0
M  V30 6202 H 1106.69 -1.68366 -5.8516 0
M  V30 6203 H 1107.72 -4.05985 -4.30448 0
M  V30 6204 H 1105.99 -3.88028 -4.72875 0
M  V30 6205 H 1106.47 -4.11381 -3.01609 0
M  V30 6206 H 1107.21 0.0393617 -1.41345 0
M  V30 6207 P 1108.63 2.75334 -8.47391 0
M  V30 6208 O 1108.85 3.84128 -9.44797 0
M  V30 6209 O 1109.42 1.51947 -8.68712 0
M  V30 6210 O 1108.88 3.29363 -6.99321 0
M  V30 6211 C 1107.94 4.24011 -6.4274 0
M  V30 6212 C 1108.67 5.20775 -5.52155 0
M  V30 6213 O 1108.88 4.56534 -4.22446 0
M  V30 6214 C 1110.07 5.62629 -5.96531 0
M  V30 6215 O 1110.46 6.87667 -5.41053 0
M  V30 6216 C 1110.95 4.52537 -5.39283 0
M  V30 6217 C 1110.24 4.20027 -4.08623 0
M  V30 6218 N 1110.29 2.76189 -3.71603 0
M  V30 6219 H 1107.45 4.797 -7.24003 0
M  V30 6220 H 1107.18 3.69856 -5.84513 0
M  V30 6221 H 1108.05 6.10356 -5.41441 0
M  V30 6222 P 1112.01 7.20834 -5.23717 0
M  V30 6223 O 1112.23 8.66104 -5.38572 0
M  V30 6224 O 1112.8 6.33544 -6.1349 0
M  V30 6225 O 1112.26 6.7751 -3.72168 0
M  V30 6226 C 1111.32 7.20825 -2.7076 0
M  V30 6227 C 1112.05 7.45864 -1.40599 0
M  V30 6228 O 1112.26 6.17651 -0.734225 0
M  V30 6229 C 1113.45 8.05808 -1.51899 0
M  V30 6230 O 1113.84 8.74358 -0.335205 0
M  V30 6231 C 1114.33 6.83093 -1.70294 0
M  V30 6232 C 1113.62 5.79992 -0.836974 0
M  V30 6233 N 1113.67 4.41864 -1.38293 0
M  V30 6234 H 1110.83 8.13644 -3.0377 0
M  V30 6235 H 1110.56 6.42788 -2.55485 0
M  V30 6236 H 1111.43 8.12039 -0.792769 0
M  V30 6237 P 1115.39 8.91 8.60137e-12 0
M  V30 6238 O 1115.61 10.1726 0.733694 0
M  V30 6239 O 1116.18 8.73148 -1.23936 0
M  V30 6240 O 1115.64 7.66872 0.971405 0
M  V30 6241 C 1114.7 7.42309 2.04641 0
M  V30 6242 C 1115.43 6.86059 3.24661 0
M  V30 6243 O 1115.64 5.42847 3.03646 0
M  V30 6244 C 1116.83 7.41196 3.50753 0
M  V30 6245 O 1117.22 7.27073 4.86816 0
M  V30 6246 C 1117.71 6.5273 2.63741 0
M  V30 6247 C 1117 5.1842 2.73198 0
M  V30 6248 N 1117.05 4.38762 1.4784 0
M  V30 6249 H 1114.21 8.36803 2.32493 0
M  V30 6250 H 1113.94 6.70197 1.71129 0
M  V30 6251 H 1114.81 7.03551 4.13168 0
M  V30 6252 P 1118.77 7.20834 5.23717 0
M  V30 6253 O 1118.99 7.79853 6.57286 0
M  V30 6254 O 1119.56 7.79239 4.12957 0
M  V30 6255 O 1119.02 5.63315 5.29344 0
M  V30 6256 C 1118.08 4.80255 6.01876 0
M  V30 6257 C 1118.81 3.64202 6.65911 0
M  V30 6258 O 1119.02 2.60694 5.64732 0
M  V30 6259 C 1120.21 3.93473 7.1943 0
M  V30 6260 O 1120.6 3.02071 8.21205 0
M  V30 6261 C 1121.09 3.73047 5.97036 0
M  V30 6262 C 1120.38 2.58828 5.25741 0
M  V30 6263 N 1120.43 2.68068 3.77503 0
M  V30 6264 H 1117.59 5.40332 6.79951 0
M  V30 6265 H 1117.32 4.41613 5.32378 0
M  V30 6266 H 1118.19 3.26331 7.47797 0
M  V30 6267 P 1122.15 2.75334 8.47391 0
M  V30 6268 O 1122.37 2.44571 9.90142 0
M  V30 6269 O 1122.94 3.87688 7.92115 0
M  V30 6270 O 1122.4 1.4459 7.59357 0
M  V30 6271 C 1121.46 0.347608 7.69215 0
M  V30 6272 C 1122.19 -0.96767 7.52806 0
M  V30 6273 O 1122.4 -1.21036 6.1011 0
M  V30 6274 C 1123.59 -1.04544 8.13308 0
M  V30 6275 O 1123.98 -2.38311 8.41922 0
M  V30 6276 C 1124.47 -0.491279 7.02284 0
M  V30 6277 C 1123.76 -0.996264 5.77469 0
M  V30 6278 N 1123.81 -0.0501916 4.62973 0
M  V30 6279 H 1120.97 0.374722 8.67691 0
M  V30 6280 H 1120.7 0.443485 6.90277 0
M  V30 6281 H 1121.57 -1.75537 7.96793 0
M  V30 6282 P 1125.53 -2.75334 8.47391 0
M  V30 6283 O 1125.75 -3.84128 9.44797 0
M  V30 6284 O 1126.32 -1.51947 8.68712 0
M  V30 6285 O 1125.78 -3.29363 6.99321 0
M  V30 6286 C 1124.84 -4.24011 6.4274 0
M  V30 6287 C 1125.57 -5.20775 5.52155 0
M  V30 6288 O 1125.78 -4.56534 4.22446 0
M  V30 6289 C 1126.97 -5.62629 5.96531 0
M  V30 6290 O 1127.36 -6.87667 5.41053 0
M  V30 6291 C 1127.85 -4.52537 5.39283 0
M  V30 6292 C 1127.14 -4.20027 4.08623 0
M  V30 6293 N 1127.19 -2.76189 3.71603 0
M  V30 6294 H 1124.35 -4.797 7.24003 0
M  V30 6295 H 1124.08 -3.69856 5.84513 0
M  V30 6296 H 1124.95 -6.10356 5.41441 0
M  V30 6297 P 1128.91 -7.20834 5.23717 0
M  V30 6298 O 1129.13 -8.66104 5.38572 0
M  V30 6299 O 1129.7 -6.33544 6.1349 0
M  V30 6300 O 1129.16 -6.7751 3.72168 0
M  V30 6301 C 1128.22 -7.20825 2.7076 0
M  V30 6302 C 1128.95 -7.45864 1.40599 0
M  V30 6303 O 1129.16 -6.17651 0.734225 0
M  V30 6304 C 1130.35 -8.05808 1.51899 0
M  V30 6305 O 1130.74 -8.74358 0.335205 0
M  V30 6306 C 1131.23 -6.83093 1.70294 0
M  V30 6307 C 1130.52 -5.79992 0.836974 0
M  V30 6308 N 1130.57 -4.41864 1.38293 0
M  V30 6309 H 1127.73 -8.13644 3.0377 0
M  V30 6310 H 1127.46 -6.42788 2.55485 0
M  V30 6311 H 1128.33 -8.12039 0.792769 0
M  V30 6312 P 1132.29 -8.91 -8.75855e-12 0
M  V30 6313 O 1132.51 -10.1726 -0.733694 0
M  V30 6314 O 1133.08 -8.73148 1.23936 0
M  V30 6315 O 1132.54 -7.66872 -0.971405 0
M  V30 6316 C 1131.6 -7.42309 -2.04641 0
M  V30 6317 C 1132.33 -6.86059 -3.24661 0
M  V30 6318 O 1132.54 -5.42847 -3.03646 0
M  V30 6319 C 1133.73 -7.41196 -3.50753 0
M  V30 6320 O 1134.12 -7.27073 -4.86816 0
M  V30 6321 C 1134.61 -6.5273 -2.63741 0
M  V30 6322 C 1133.9 -5.1842 -2.73198 0
M  V30 6323 N 1133.95 -4.38762 -1.4784 0
M  V30 6324 H 1131.11 -8.36803 -2.32493 0
M  V30 6325 H 1130.84 -6.70197 -1.71129 0
M  V30 6326 H 1131.71 -7.03551 -4.13168 0
M  V30 6327 P 1135.67 -7.20834 -5.23717 0
M  V30 6328 O 1135.89 -7.79853 -6.57286 0
M  V30 6329 O 1136.46 -7.79239 -4.12957 0
M  V30 6330 O 1135.92 -5.63315 -5.29344 0
M  V30 6331 C 1134.98 -4.80255 -6.01876 0
M  V30 6332 C 1135.71 -3.64202 -6.65911 0
M  V30 6333 O 1135.92 -2.60694 -5.64732 0
M  V30 6334 C 1137.11 -3.93473 -7.1943 0
M  V30 6335 O 1137.5 -3.02071 -8.21205 0
M  V30 6336 C 1137.99 -3.73047 -5.97036 0
M  V30 6337 C 1137.28 -2.58828 -5.25741 0
M  V30 6338 N 1137.33 -2.68068 -3.77503 0
M  V30 6339 H 1134.49 -5.40332 -6.79951 0
M  V30 6340 H 1134.22 -4.41613 -5.32378 0
M  V30 6341 H 1135.09 -3.26331 -7.47797 0
M  V30 6342 P 1139.05 -2.75334 -8.47391 0
M  V30 6343 O 1139.27 -2.44571 -9.90142 0
M  V30 6344 O 1139.84 -3.87688 -7.92115 0
M  V30 6345 O 1139.3 -1.4459 -7.59357 0
M  V30 6346 C 1138.36 -0.347608 -7.69215 0
M  V30 6347 C 1139.09 0.96767 -7.52806 0
M  V30 6348 O 1139.3 1.21036 -6.1011 0
M  V30 6349 C 1140.49 1.04544 -8.13308 0
M  V30 6350 O 1140.88 2.38311 -8.41922 0
M  V30 6351 C 1141.37 0.491279 -7.02284 0
M  V30 6352 C 1140.66 0.996264 -5.77469 0
M  V30 6353 N 1140.71 0.0501916 -4.62973 0
M  V30 6354 H 1137.87 -0.374722 -8.67691 0
M  V30 6355 H 1137.6 -0.443485 -6.90277 0
M  V30 6356 H 1138.47 1.75537 -7.96793 0
M  V30 6357 P 1142.43 2.75334 -8.47391 0
M  V30 6358 O 1142.65 3.84128 -9.44797 0
M  V30 6359 O 1143.22 1.51947 -8.68712 0
M  V30 6360 O 1142.68 3.29363 -6.99321 0
M  V30 6361 C 1141.74 4.24011 -6.4274 0
M  V30 6362 C 1142.47 5.20775 -5.52155 0
M  V30 6363 O 1142.68 4.56534 -4.22446 0
M  V30 6364 C 1143.87 5.62629 -5.96531 0
M  V30 6365 O 1144.26 6.87667 -5.41053 0
M  V30 6366 C 1144.75 4.52537 -5.39283 0
M  V30 6367 C 1144.04 4.20027 -4.08623 0
M  V30 6368 N 1144.09 2.76189 -3.71603 0
M  V30 6369 H 1141.25 4.797 -7.24003 0
M  V30 6370 H 1140.98 3.69856 -5.84513 0
M  V30 6371 H 1141.85 6.10356 -5.41441 0
M  V30 6372 P 1145.81 7.20834 -5.23717 0
M  V30 6373 O 1146.03 8.66104 -5.38572 0
M  V30 6374 O 1146.6 6.33544 -6.1349 0
M  V30 6375 O 1146.06 6.7751 -3.72168 0
M  V30 6376 C 1145.12 7.20825 -2.7076 0
M  V30 6377 C 1145.85 7.45864 -1.40599 0
M  V30 6378 O 1146.06 6.17651 -0.734225 0
M  V30 6379 C 1147.25 8.05808 -1.51899 0
M  V30 6380 O 1147.64 8.74358 -0.335205 0
M  V30 6381 C 1148.13 6.83093 -1.70294 0
M  V30 6382 C 1147.42 5.79992 -0.836974 0
M  V30 6383 N 1147.47 4.41864 -1.38293 0
M  V30 6384 H 1144.63 8.13644 -3.0377 0
M  V30 6385 H 1144.36 6.42788 -2.55485 0
M  V30 6386 H 1145.23 8.12039 -0.792769 0
M  V30 6387 P 1149.19 8.91 8.91573e-12 0
M  V30 6388 O 1149.41 10.1726 0.733694 0
M  V30 6389 O 1149.98 8.73148 -1.23936 0
M  V30 6390 O 1149.44 7.66872 0.971405 0
M  V30 6391 C 1148.5 7.42309 2.04641 0
M  V30 6392 C 1149.23 6.86059 3.24661 0
M  V30 6393 O 1149.44 5.42847 3.03646 0
M  V30 6394 C 1150.63 7.41196 3.50753 0
M  V30 6395 O 1151.02 7.27073 4.86816 0
M  V30 6396 C 1151.51 6.5273 2.63741 0
M  V30 6397 C 1150.8 5.1842 2.73198 0
M  V30 6398 N 1150.85 4.38762 1.4784 0
M  V30 6399 C 1150.77 4.81605 0.168631 0
M  V30 6400 N 1150.85 3.85454 -0.713363 0
M  V30 6401 C 1150.99 2.6994 0.0566958 0
M  V30 6402 C 1151.12 1.34815 -0.338502 0
M  V30 6403 O 1151.14 0.869548 -1.47125 0
M  V30 6404 N 1151.24 0.496304 0.77465 0
M  V30 6405 C 1151.24 0.908403 2.09122 0
M  V30 6406 N 1151.37 -0.0517805 3.00955 0
M  V30 6407 N 1151.11 2.17875 2.46519 0
M  V30 6408 C 1150.99 3.01988 1.4033 0
M  V30 6409 H 1148.01 8.36803 2.32493 0
M  V30 6410 H 1147.74 6.70197 1.71129 0
M  V30 6411 H 1148.61 7.03551 4.13168 0
M  V30 6412 H 1151.27 4.59498 3.54415 0
M  V30 6413 H 1151.55 6.88898 1.59848 0
M  V30 6414 H 1152.54 6.46749 3.03687 0
M  V30 6415 H 1150.7 8.46908 3.20714 0
M  V30 6416 H 1150.65 5.86405 -0.105564 0
M  V30 6417 H 1151.34 -0.483664 0.597855 0
M  V30 6418 H 1151.37 0.187865 4.0116 0
M  V30 6419 H 1151.47 -1.03585 2.71726 0
M  V30 6420 P 1152.57 7.20834 5.23717 0
M  V30 6421 O 1152.79 7.79853 6.57286 0
M  V30 6422 O 1153.36 7.79239 4.12957 0
M  V30 6423 O 1152.82 5.63315 5.29344 0
M  V30 6424 C 1151.88 4.80255 6.01876 0
M  V30 6425 C 1152.61 3.64202 6.65911 0
M  V30 6426 O 1152.82 2.60694 5.64732 0
M  V30 6427 C 1154.01 3.93473 7.1943 0
M  V30 6428 O 1154.4 3.02071 8.21205 0
M  V30 6429 C 1154.89 3.73047 5.97036 0
M  V30 6430 C 1154.18 2.58828 5.25741 0
M  V30 6431 N 1154.23 2.68068 3.77503 0
M  V30 6432 H 1151.39 5.40332 6.79951 0
M  V30 6433 H 1151.12 4.41613 5.32378 0
M  V30 6434 H 1151.99 3.26331 7.47797 0
M  V30 6435 P 1155.95 2.75334 8.47391 0
M  V30 6436 O 1156.17 2.44595 9.90239 0
M  V30 6437 O 1156.74 3.87732 7.92204 0
M  V30 6438 O 1156.2 1.4459 7.59357 0
M  V30 6439 C 1155.26 0.347608 7.69215 0
M  V30 6440 C 1155.99 -0.96767 7.52806 0
M  V30 6441 O 1156.2 -1.21036 6.1011 0
M  V30 6442 C 1157.39 -1.04544 8.13308 0
M  V30 6443 O 1157.78 -2.38311 8.41922 0
M  V30 6444 C 1158.27 -0.491279 7.02284 0
M  V30 6445 C 1157.56 -0.996264 5.77469 0
M  V30 6446 N 1157.61 -0.0501808 4.62873 0
M  V30 6447 C 1157.76 -0.578037 3.3505 0
M  V30 6448 O 1157.85 -1.8073 3.21711 0
M  V30 6449 N 1157.81 0.468541 2.263 0
M  V30 6450 C 1157.71 1.59186 2.47176 0
M  V30 6451 N 1157.76 2.37626 1.40392 0
M  V30 6452 C 1157.56 2.16203 3.77467 0
M  V30 6453 C 1157.51 1.29324 4.8195 0
M  V30 6454 H 1154.77 0.374679 8.67591 0
M  V30 6455 H 1154.5 0.443421 6.90177 0
M  V30 6456 H 1155.37 -1.75559 7.96891 0
M  V30 6457 H 1158.03 -1.94529 5.46723 0
M  V30 6458 H 1158.31 0.608651 7.04676 0
M  V30 6459 H 1159.3 -0.889672 7.08939 0
M  V30 6460 H 1157.46 -0.43308 9.04564 0
M  V30 6461 H 1157.39 1.67758 5.83046 0
M  V30 6462 H 1157.49 3.23869 3.92281 0
M  V30 6463 H 1157.88 1.96317 0.467202 0
M  V30 6464 H 1157.68 3.39693 1.51142 0
M  V30 6465 P 1159.33 -2.75334 8.47391 0
M  V30 6466 O 1159.55 -3.84128 9.44797 0
M  V30 6467 O 1160.12 -1.51947 8.68712 0
M  V30 6468 O 1159.58 -3.29363 6.99321 0
M  V30 6469 C 1158.64 -4.24011 6.4274 0
M  V30 6470 C 1159.37 -5.20775 5.52155 0
M  V30 6471 O 1159.58 -4.56534 4.22446 0
M  V30 6472 C 1160.77 -5.62629 5.96531 0
M  V30 6473 O 1161.16 -6.87667 5.41053 0
M  V30 6474 C 1161.65 -4.52537 5.39283 0
M  V30 6475 C 1160.94 -4.20027 4.08623 0
M  V30 6476 N 1160.99 -2.76189 3.71603 0
M  V30 6477 C 1160.91 -1.64862 4.52822 0
M  V30 6478 N 1160.99 -0.512671 3.88633 0
M  V30 6479 C 1161.13 -0.888083 2.54977 0
M  V30 6480 C 1161.26 -0.094668 1.38677 0
M  V30 6481 N 1161.38 -0.890102 0.232633 0
M  V30 6482 C 1161.38 -2.26958 0.21772 0
M  V30 6483 N 1161.51 -2.84626 -0.97925 0
M  V30 6484 N 1161.25 -3.0178 1.31033 0
M  V30 6485 C 1161.13 -2.26781 2.43843 0
M  V30 6486 H 1158.15 -4.797 7.24003 0
M  V30 6487 H 1157.88 -3.69856 5.84513 0
M  V30 6488 H 1158.75 -6.10356 5.41441 0
M  V30 6489 P 1162.71 -7.20834 5.23717 0
M  V30 6490 O 1162.93 -8.66104 5.38572 0
M  V30 6491 O 1163.5 -6.33544 6.1349 0
M  V30 6492 O 1162.96 -6.7751 3.72168 0
M  V30 6493 C 1162.02 -7.20825 2.7076 0
M  V30 6494 C 1162.75 -7.45864 1.40599 0
M  V30 6495 O 1162.96 -6.17651 0.734225 0
M  V30 6496 C 1164.15 -8.05808 1.51899 0
M  V30 6497 O 1164.54 -8.74358 0.335205 0
M  V30 6498 C 1165.03 -6.83093 1.70294 0
M  V30 6499 C 1164.32 -5.79992 0.836974 0
M  V30 6500 N 1164.37 -4.41864 1.38293 0
M  V30 6501 H 1161.53 -8.13644 3.0377 0
M  V30 6502 H 1161.26 -6.42788 2.55485 0
M  V30 6503 H 1162.13 -8.12039 0.792769 0
M  V30 6504 P 1166.09 -8.91 -9.07291e-12 0
M  V30 6505 O 1166.31 -10.1726 -0.733694 0
M  V30 6506 O 1166.88 -8.73148 1.23936 0
M  V30 6507 O 1166.34 -7.66872 -0.971405 0
M  V30 6508 C 1165.4 -7.42309 -2.04641 0
M  V30 6509 C 1166.13 -6.86059 -3.24661 0
M  V30 6510 O 1166.34 -5.42847 -3.03646 0
M  V30 6511 C 1167.53 -7.41196 -3.50753 0
M  V30 6512 O 1167.92 -7.27073 -4.86816 0
M  V30 6513 C 1168.41 -6.5273 -2.63741 0
M  V30 6514 C 1167.7 -5.1842 -2.73198 0
M  V30 6515 N 1167.75 -4.38762 -1.4784 0
M  V30 6516 H 1164.91 -8.36803 -2.32493 0
M  V30 6517 H 1164.64 -6.70197 -1.71129 0
M  V30 6518 H 1165.51 -7.03551 -4.13168 0
M  V30 6519 P 1169.47 -7.20834 -5.23717 0
M  V30 6520 O 1169.69 -7.79853 -6.57286 0
M  V30 6521 O 1170.26 -7.79239 -4.12957 0
M  V30 6522 O 1169.72 -5.63315 -5.29344 0
M  V30 6523 C 1168.78 -4.80255 -6.01876 0
M  V30 6524 C 1169.51 -3.64202 -6.65911 0
M  V30 6525 O 1169.72 -2.60694 -5.64732 0
M  V30 6526 C 1170.91 -3.93473 -7.1943 0
M  V30 6527 O 1171.3 -3.02071 -8.21205 0
M  V30 6528 C 1171.79 -3.73047 -5.97036 0
M  V30 6529 C 1171.08 -2.58828 -5.25741 0
M  V30 6530 N 1171.13 -2.68068 -3.77503 0
M  V30 6531 H 1168.29 -5.40332 -6.79951 0
M  V30 6532 H 1168.02 -4.41613 -5.32378 0
M  V30 6533 H 1168.89 -3.26331 -7.47797 0
M  V30 6534 P 1172.85 -2.75334 -8.47391 0
M  V30 6535 O 1173.07 -2.44595 -9.90239 0
M  V30 6536 O 1173.64 -3.87732 -7.92204 0
M  V30 6537 O 1173.1 -1.4459 -7.59357 0
M  V30 6538 C 1172.16 -0.347563 -7.69115 0
M  V30 6539 C 1172.89 0.96767 -7.52806 0
M  V30 6540 O 1173.1 1.21036 -6.1011 0
M  V30 6541 C 1174.29 1.04544 -8.13308 0
M  V30 6542 O 1174.68 2.38311 -8.41922 0
M  V30 6543 C 1175.17 0.491279 -7.02284 0
M  V30 6544 C 1174.46 0.996264 -5.77469 0
M  V30 6545 N 1174.51 0.0501808 -4.62873 0
M  V30 6546 C 1174.66 0.588177 -3.36904 0
M  V30 6547 O 1174.75 1.78598 -3.17173 0
M  V30 6548 N 1174.7 -0.329694 -2.33686 0
M  V30 6549 C 1174.61 -1.6953 -2.45079 0
M  V30 6550 C 1174.46 -2.16933 -3.80505 0
M  V30 6551 C 1174.41 -1.30326 -4.83752 0
M  V30 6552 H 1171.67 -0.374722 -8.67691 0
M  V30 6553 H 1171.4 -0.443421 -6.90177 0
M  V30 6554 H 1172.27 1.75537 -7.96793 0
M  V30 6555 H 1174.93 1.94496 -5.46629 0
M  V30 6556 H 1175.21 -0.608651 -7.04676 0
M  V30 6557 H 1176.2 0.889672 -7.08939 0
M  V30 6558 H 1174.36 0.43308 -9.04564 0
M  V30 6559 H 1174.29 -1.68366 -5.8516 0
M  V30 6560 P 1176.23 2.75334 -8.47391 0
M  V30 6561 O 1176.45 3.84128 -9.44797 0
M  V30 6562 O 1177.02 1.51947 -8.68712 0
M  V30 6563 O 1176.48 3.29363 -6.99321 0
M  V30 6564 C 1175.54 4.24011 -6.4274 0
M  V30 6565 C 1176.27 5.20775 -5.52155 0
M  V30 6566 O 1176.48 4.56534 -4.22446 0
M  V30 6567 C 1177.67 5.62629 -5.96531 0
M  V30 6568 O 1178.06 6.87667 -5.41053 0
M  V30 6569 C 1178.55 4.52537 -5.39283 0
M  V30 6570 C 1177.84 4.20027 -4.08623 0
M  V30 6571 N 1177.89 2.76189 -3.71603 0
M  V30 6572 H 1175.05 4.797 -7.24003 0
M  V30 6573 H 1174.78 3.69856 -5.84513 0
M  V30 6574 H 1175.65 6.10356 -5.41441 0
M  V30 6575 P 1179.61 7.20834 -5.23717 0
M  V30 6576 O 1179.83 8.66104 -5.38572 0
M  V30 6577 O 1180.4 6.33544 -6.1349 0
M  V30 6578 O 1179.86 6.7751 -3.72168 0
M  V30 6579 C 1178.92 7.20825 -2.7076 0
M  V30 6580 C 1179.65 7.45864 -1.40599 0
M  V30 6581 O 1179.86 6.17651 -0.734225 0
M  V30 6582 C 1181.05 8.05808 -1.51899 0
M  V30 6583 O 1181.44 8.74358 -0.335205 0
M  V30 6584 C 1181.93 6.83093 -1.70294 0
M  V30 6585 C 1181.22 5.79992 -0.836974 0
M  V30 6586 N 1181.27 4.41864 -1.38293 0
M  V30 6587 H 1178.43 8.13644 -3.0377 0
M  V30 6588 H 1178.16 6.42788 -2.55485 0
M  V30 6589 H 1179.03 8.12039 -0.792769 0
M  V30 6590 P 1182.99 8.91 9.23009e-12 0
M  V30 6591 O 1183.21 10.1736 0.733766 0
M  V30 6592 O 1183.78 8.73247 -1.2395 0
M  V30 6593 O 1183.24 7.66872 0.971405 0
M  V30 6594 C 1182.3 7.42212 2.04614 0
M  V30 6595 C 1183.03 6.86059 3.24661 0
M  V30 6596 O 1183.24 5.42847 3.03646 0
M  V30 6597 C 1184.43 7.41196 3.50753 0
M  V30 6598 O 1184.82 7.27073 4.86816 0
M  V30 6599 C 1185.31 6.5273 2.63741 0
M  V30 6600 C 1184.6 5.1842 2.73198 0
M  V30 6601 N 1184.65 4.38668 1.47808 0
M  V30 6602 C 1184.8 3.02239 1.60048 0
M  V30 6603 O 1184.89 2.46459 2.67869 0
M  V30 6604 N 1184.84 2.32436 0.408571 0
M  V30 6605 C 1184.75 2.85471 -0.854993 0
M  V30 6606 O 1184.8 2.12566 -1.8531 0
M  V30 6607 C 1184.6 4.28918 -0.887335 0
M  V30 6608 C 1184.49 4.91066 -2.24619 0
M  V30 6609 C 1184.55 5.00349 0.255399 0
M  V30 6610 H 1181.81 8.36803 2.32493 0
M  V30 6611 H 1181.54 6.701 1.71105 0
M  V30 6612 H 1182.41 7.03551 4.13168 0
M  V30 6613 H 1185.07 4.59773 3.53894 0
M  V30 6614 H 1185.35 6.88995 1.59871 0
M  V30 6615 H 1186.34 6.46749 3.03687 0
M  V30 6616 H 1184.5 8.46908 3.20714 0
M  V30 6617 H 1184.43 6.08548 0.206986 0
M  V30 6618 H 1185.46 5.34836 -2.53099 0
M  V30 6619 H 1183.73 5.69638 -2.2291 0
M  V30 6620 H 1184.21 4.13971 -2.98044 0
M  V30 6621 H 1184.95 1.33211 0.474216 0
M  V30 6622 P 1186.37 7.20834 5.23717 0
M  V30 6623 O 1186.59 7.79853 6.57286 0
M  V30 6624 O 1187.16 7.79239 4.12957 0
M  V30 6625 O 1186.62 5.63315 5.29344 0
M  V30 6626 C 1185.68 4.80255 6.01876 0
M  V30 6627 C 1186.41 3.64202 6.65911 0
M  V30 6628 O 1186.62 2.60694 5.64732 0
M  V30 6629 C 1187.81 3.93473 7.1943 0
M  V30 6630 O 1188.2 3.02071 8.21205 0
M  V30 6631 C 1188.69 3.73047 5.97036 0
M  V30 6632 C 1187.98 2.58828 5.25741 0
M  V30 6633 N 1188.03 2.68068 3.77503 0
M  V30 6634 H 1185.19 5.40332 6.79951 0
M  V30 6635 H 1184.92 4.41613 5.32378 0
M  V30 6636 H 1185.79 3.26331 7.47797 0
M  V30 6637 P 1189.75 2.75334 8.47391 0
M  V30 6638 O 1189.97 2.44619 9.90336 0
M  V30 6639 O 1190.54 3.87776 7.92294 0
M  V30 6640 O 1190 1.4459 7.59357 0
M  V30 6641 C 1189.06 0.347653 7.69315 0
M  V30 6642 C 1189.79 -0.96767 7.52806 0
M  V30 6643 O 1190 -1.21055 6.10208 0
M  V30 6644 C 1191.19 -1.04557 8.13408 0
M  V30 6645 O 1191.58 -2.38311 8.41922 0
M  V30 6646 C 1192.07 -0.491279 7.02284 0
M  V30 6647 C 1191.36 -0.996264 5.77469 0
M  V30 6648 N 1191.41 -0.0501916 4.62973 0
M  V30 6649 H 1188.57 0.374765 8.67791 0
M  V30 6650 H 1188.3 0.443613 6.90476 0
M  V30 6651 H 1189.17 -1.75559 7.96891 0
M  V30 6652 H 1191.83 -1.94563 5.46818 0
M  V30 6653 H 1192.11 0.608651 7.04676 0
M  V30 6654 H 1193.1 -0.889796 7.09039 0
M  V30 6655 H 1191.26 -0.433128 9.04664 0
M  V30 6656 P 1193.13 -2.75334 8.47391 0
M  V30 6657 O 1193.35 -3.84128 9.44797 0
M  V30 6658 O 1193.92 -1.51947 8.68712 0
M  V30 6659 O 1193.38 -3.29363 6.99321 0
M  V30 6660 C 1192.44 -4.24011 6.4274 0
M  V30 6661 C 1193.17 -5.20775 5.52155 0
M  V30 6662 O 1193.38 -4.56534 4.22446 0
M  V30 6663 C 1194.57 -5.62629 5.96531 0
M  V30 6664 O 1194.96 -6.87667 5.41053 0
M  V30 6665 C 1195.45 -4.52537 5.39283 0
M  V30 6666 C 1194.74 -4.20027 4.08623 0
M  V30 6667 N 1194.79 -2.76189 3.71603 0
M  V30 6668 H 1191.95 -4.797 7.24003 0
M  V30 6669 H 1191.68 -3.69856 5.84513 0
M  V30 6670 H 1192.55 -6.10356 5.41441 0
M  V30 6671 P 1196.51 -7.20834 5.23717 0
M  V30 6672 O 1196.73 -8.66104 5.38572 0
M  V30 6673 O 1197.3 -6.33544 6.1349 0
M  V30 6674 O 1196.76 -6.7751 3.72168 0
M  V30 6675 C 1195.82 -7.20825 2.7076 0
M  V30 6676 C 1196.55 -7.45864 1.40599 0
M  V30 6677 O 1196.76 -6.17651 0.734225 0
M  V30 6678 C 1197.95 -8.05808 1.51899 0
M  V30 6679 O 1198.34 -8.74358 0.335205 0
M  V30 6680 C 1198.83 -6.83093 1.70294 0
M  V30 6681 C 1198.12 -5.79992 0.836974 0
M  V30 6682 N 1198.17 -4.41864 1.38293 0
M  V30 6683 H 1195.33 -8.13644 3.0377 0
M  V30 6684 H 1195.06 -6.42788 2.55485 0
M  V30 6685 H 1195.93 -8.12039 0.792769 0
M  V30 6686 P 1199.89 -8.91 -9.38728e-12 0
M  V30 6687 O 1200.11 -10.1726 -0.733694 0
M  V30 6688 O 1200.68 -8.73148 1.23936 0
M  V30 6689 O 1200.14 -7.66872 -0.971405 0
M  V30 6690 C 1199.2 -7.42309 -2.04641 0
M  V30 6691 C 1199.93 -6.86059 -3.24661 0
M  V30 6692 O 1200.14 -5.42847 -3.03646 0
M  V30 6693 C 1201.33 -7.41196 -3.50753 0
M  V30 6694 O 1201.72 -7.27073 -4.86816 0
M  V30 6695 C 1202.21 -6.5273 -2.63741 0
M  V30 6696 C 1201.5 -5.1842 -2.73198 0
M  V30 6697 N 1201.55 -4.38762 -1.4784 0
M  V30 6698 H 1198.71 -8.36803 -2.32493 0
M  V30 6699 H 1198.44 -6.70197 -1.71129 0
M  V30 6700 H 1199.31 -7.03551 -4.13168 0
M  V30 6701 P 1203.27 -7.20834 -5.23717 0
M  V30 6702 O 1203.49 -7.79853 -6.57286 0
M  V30 6703 O 1204.06 -7.79239 -4.12957 0
M  V30 6704 O 1203.52 -5.63315 -5.29344 0
M  V30 6705 C 1202.58 -4.80255 -6.01876 0
M  V30 6706 C 1203.31 -3.64202 -6.65911 0
M  V30 6707 O 1203.52 -2.60694 -5.64732 0
M  V30 6708 C 1204.71 -3.93473 -7.1943 0
M  V30 6709 O 1205.1 -3.02071 -8.21205 0
M  V30 6710 C 1205.59 -3.73047 -5.97036 0
M  V30 6711 C 1204.88 -2.58828 -5.25741 0
M  V30 6712 N 1204.93 -2.68068 -3.77503 0
M  V30 6713 H 1202.09 -5.40332 -6.79951 0
M  V30 6714 H 1201.82 -4.41613 -5.32378 0
M  V30 6715 H 1202.69 -3.26331 -7.47797 0
M  V30 6716 P 1206.65 -2.75334 -8.47391 0
M  V30 6717 O 1206.87 -2.44595 -9.90239 0
M  V30 6718 O 1207.44 -3.87732 -7.92204 0
M  V30 6719 O 1206.9 -1.4459 -7.59357 0
M  V30 6720 C 1205.96 -0.347563 -7.69115 0
M  V30 6721 C 1206.69 0.96767 -7.52806 0
M  V30 6722 O 1206.9 1.21036 -6.1011 0
M  V30 6723 C 1208.09 1.04544 -8.13308 0
M  V30 6724 O 1208.48 2.38311 -8.41922 0
M  V30 6725 C 1208.97 0.491279 -7.02284 0
M  V30 6726 C 1208.26 0.996264 -5.77469 0
M  V30 6727 N 1208.31 0.0501808 -4.62873 0
M  V30 6728 C 1208.46 0.588177 -3.36904 0
M  V30 6729 O 1208.55 1.78598 -3.17173 0
M  V30 6730 N 1208.5 -0.329694 -2.33686 0
M  V30 6731 C 1208.41 -1.6953 -2.45079 0
M  V30 6732 O 1208.46 -2.41926 -1.44899 0
M  V30 6733 C 1208.26 -2.16933 -3.80505 0
M  V30 6734 C 1208.15 -3.65373 -3.97621 0
M  V30 6735 C 1208.21 -1.30326 -4.83752 0
M  V30 6736 H 1205.47 -0.374722 -8.67691 0
M  V30 6737 H 1205.2 -0.443421 -6.90177 0
M  V30 6738 H 1206.07 1.75537 -7.96793 0
M  V30 6739 H 1208.73 1.94496 -5.46629 0
M  V30 6740 H 1209 -0.608651 -7.04676 0
M  V30 6741 H 1210 0.889672 -7.08939 0
M  V30 6742 H 1208.16 0.43308 -9.04564 0
M  V30 6743 H 1208.09 -1.68366 -5.8516 0
M  V30 6744 H 1209.12 -4.05985 -4.30448 0
M  V30 6745 H 1207.38 -3.88028 -4.72875 0
M  V30 6746 H 1207.87 -4.11381 -3.01609 0
M  V30 6747 H 1208.61 0.0393617 -1.41345 0
M  V30 6748 P 1210.03 2.75334 -8.47391 0
M  V30 6749 O 1210.25 3.84128 -9.44797 0
M  V30 6750 O 1210.82 1.51947 -8.68712 0
M  V30 6751 O 1210.28 3.29363 -6.99321 0
M  V30 6752 C 1209.34 4.24011 -6.4274 0
M  V30 6753 C 1210.07 5.20775 -5.52155 0
M  V30 6754 O 1210.28 4.56534 -4.22446 0
M  V30 6755 C 1211.47 5.62629 -5.96531 0
M  V30 6756 O 1211.86 6.87667 -5.41053 0
M  V30 6757 C 1212.35 4.52537 -5.39283 0
M  V30 6758 C 1211.64 4.20027 -4.08623 0
M  V30 6759 N 1211.69 2.76189 -3.71603 0
M  V30 6760 H 1208.85 4.797 -7.24003 0
M  V30 6761 H 1208.58 3.69856 -5.84513 0
M  V30 6762 H 1209.45 6.10356 -5.41441 0
M  V30 6763 P 1213.41 7.20834 -5.23717 0
M  V30 6764 O 1213.63 8.66104 -5.38572 0
M  V30 6765 O 1214.2 6.33544 -6.1349 0
M  V30 6766 O 1213.66 6.7751 -3.72168 0
M  V30 6767 C 1212.72 7.20825 -2.7076 0
M  V30 6768 C 1213.45 7.45864 -1.40599 0
M  V30 6769 O 1213.66 6.17651 -0.734225 0
M  V30 6770 C 1214.85 8.05808 -1.51899 0
M  V30 6771 O 1215.24 8.74358 -0.335205 0
M  V30 6772 C 1215.73 6.83093 -1.70294 0
M  V30 6773 C 1215.02 5.79992 -0.836974 0
M  V30 6774 N 1215.07 4.41864 -1.38293 0
M  V30 6775 C 1214.99 3.99538 -2.69438 0
M  V30 6776 N 1215.07 2.69909 -2.84277 0
M  V30 6777 C 1215.21 2.21719 -1.5408 0
M  V30 6778 C 1215.34 0.891712 -1.06628 0
M  V30 6779 O 1215.36 -0.161298 -1.70137 0
M  V30 6780 N 1215.46 0.856846 0.334985 0
M  V30 6781 C 1215.46 1.9641 1.15789 0
M  V30 6782 N 1215.59 1.72708 2.46522 0
M  V30 6783 N 1215.33 3.21165 0.713741 0
M  V30 6784 C 1215.21 3.26797 -0.639748 0
M  V30 6785 H 1212.23 8.13644 -3.0377 0
M  V30 6786 H 1211.96 6.42788 -2.55485 0
M  V30 6787 H 1212.83 8.12039 -0.792769 0
M  V30 6788 H 1215.49 5.80061 0.166416 0
M  V30 6789 H 1215.76 6.51287 -2.75604 0
M  V30 6790 H 1216.76 7.01734 -1.34462 0
M  V30 6791 H 1214.92 8.73674 -2.38337 0
M  V30 6792 H 1214.87 4.68207 -3.53221 0
M  V30 6793 H 1215.56 -0.0398818 0.767965 0
M  V30 6794 H 1215.59 2.50995 3.13503 0
M  V30 6795 H 1215.69 0.759148 2.80716 0
M  V30 6796 P 1216.79 8.91 9.54446e-12 0
M  V30 6797 O 1217.01 10.1726 0.733694 0
M  V30 6798 O 1217.58 8.73148 -1.23936 0
M  V30 6799 O 1217.04 7.66872 0.971405 0
M  V30 6800 C 1216.1 7.42309 2.04641 0
M  V30 6801 C 1216.83 6.86059 3.24661 0
M  V30 6802 O 1217.04 5.42847 3.03646 0
M  V30 6803 C 1218.23 7.41196 3.50753 0
M  V30 6804 O 1218.62 7.27073 4.86816 0
M  V30 6805 C 1219.11 6.5273 2.63741 0
M  V30 6806 C 1218.4 5.1842 2.73198 0
M  V30 6807 N 1218.45 4.38762 1.4784 0
M  V30 6808 H 1215.61 8.36803 2.32493 0
M  V30 6809 H 1215.34 6.70197 1.71129 0
M  V30 6810 H 1216.21 7.03551 4.13168 0
M  V30 6811 P 1220.17 7.20834 5.23717 0
M  V30 6812 O 1220.39 7.79853 6.57286 0
M  V30 6813 O 1220.96 7.79239 4.12957 0
M  V30 6814 O 1220.42 5.63315 5.29344 0
M  V30 6815 C 1219.48 4.80255 6.01876 0
M  V30 6816 C 1220.21 3.64202 6.65911 0
M  V30 6817 O 1220.42 2.60694 5.64732 0
M  V30 6818 C 1221.61 3.93473 7.1943 0
M  V30 6819 O 1222 3.02071 8.21205 0
M  V30 6820 C 1222.49 3.73047 5.97036 0
M  V30 6821 C 1221.78 2.58828 5.25741 0
M  V30 6822 N 1221.83 2.68068 3.77503 0
M  V30 6823 H 1218.99 5.40332 6.79951 0
M  V30 6824 H 1218.72 4.41613 5.32378 0
M  V30 6825 H 1219.59 3.26331 7.47797 0
M  V30 6826 P 1223.55 2.75334 8.47391 0
M  V30 6827 O 1223.77 2.44571 9.90142 0
M  V30 6828 O 1224.34 3.87688 7.92115 0
M  V30 6829 O 1223.8 1.4459 7.59357 0
M  V30 6830 C 1222.86 0.347608 7.69215 0
M  V30 6831 C 1223.59 -0.96767 7.52806 0
M  V30 6832 O 1223.8 -1.21036 6.1011 0
M  V30 6833 C 1224.99 -1.04544 8.13308 0
M  V30 6834 O 1225.38 -2.38311 8.41922 0
M  V30 6835 C 1225.87 -0.491279 7.02284 0
M  V30 6836 C 1225.16 -0.996264 5.77469 0
M  V30 6837 N 1225.21 -0.0501916 4.62973 0
M  V30 6838 H 1222.37 0.374722 8.67691 0
M  V30 6839 H 1222.1 0.443485 6.90277 0
M  V30 6840 H 1222.97 -1.75537 7.96793 0
M  V30 6841 P 1226.93 -2.75334 8.47391 0
M  V30 6842 O 1227.15 -3.84128 9.44797 0
M  V30 6843 O 1227.72 -1.51947 8.68712 0
M  V30 6844 O 1227.18 -3.29363 6.99321 0
M  V30 6845 C 1226.24 -4.24011 6.4274 0
M  V30 6846 C 1226.97 -5.20775 5.52155 0
M  V30 6847 O 1227.18 -4.56534 4.22446 0
M  V30 6848 C 1228.37 -5.62629 5.96531 0
M  V30 6849 O 1228.76 -6.87667 5.41053 0
M  V30 6850 C 1229.25 -4.52537 5.39283 0
M  V30 6851 C 1228.54 -4.20027 4.08623 0
M  V30 6852 N 1228.59 -2.76189 3.71603 0
M  V30 6853 H 1225.75 -4.797 7.24003 0
M  V30 6854 H 1225.48 -3.69856 5.84513 0
M  V30 6855 H 1226.35 -6.10356 5.41441 0
M  V30 6856 P 1230.31 -7.20834 5.23717 0
M  V30 6857 O 1230.53 -8.66104 5.38572 0
M  V30 6858 O 1231.1 -6.33544 6.1349 0
M  V30 6859 O 1230.56 -6.7751 3.72168 0
M  V30 6860 C 1229.62 -7.20825 2.7076 0
M  V30 6861 C 1230.35 -7.45864 1.40599 0
M  V30 6862 O 1230.56 -6.17651 0.734225 0
M  V30 6863 C 1231.75 -8.05808 1.51899 0
M  V30 6864 O 1232.14 -8.74358 0.335205 0
M  V30 6865 C 1232.63 -6.83093 1.70294 0
M  V30 6866 C 1231.92 -5.79992 0.836974 0
M  V30 6867 N 1231.97 -4.41864 1.38293 0
M  V30 6868 H 1229.13 -8.13644 3.0377 0
M  V30 6869 H 1228.86 -6.42788 2.55485 0
M  V30 6870 H 1229.73 -8.12039 0.792769 0
M  V30 6871 P 1233.69 -8.91 -9.70164e-12 0
M  V30 6872 O 1233.91 -10.1726 -0.733694 0
M  V30 6873 O 1234.48 -8.73148 1.23936 0
M  V30 6874 O 1233.94 -7.66872 -0.971405 0
M  V30 6875 C 1233 -7.42309 -2.04641 0
M  V30 6876 C 1233.73 -6.86059 -3.24661 0
M  V30 6877 O 1233.94 -5.42847 -3.03646 0
M  V30 6878 C 1235.13 -7.41196 -3.50753 0
M  V30 6879 O 1235.52 -7.27073 -4.86816 0
M  V30 6880 C 1236.01 -6.5273 -2.63741 0
M  V30 6881 C 1235.3 -5.1842 -2.73198 0
M  V30 6882 N 1235.35 -4.38762 -1.4784 0
M  V30 6883 H 1232.51 -8.36803 -2.32493 0
M  V30 6884 H 1232.24 -6.70197 -1.71129 0
M  V30 6885 H 1233.11 -7.03551 -4.13168 0
M  V30 6886 P 1237.07 -7.20834 -5.23717 0
M  V30 6887 O 1237.29 -7.79853 -6.57286 0
M  V30 6888 O 1237.86 -7.79239 -4.12957 0
M  V30 6889 O 1237.32 -5.63315 -5.29344 0
M  V30 6890 C 1236.38 -4.80255 -6.01876 0
M  V30 6891 C 1237.11 -3.64202 -6.65911 0
M  V30 6892 O 1237.32 -2.60694 -5.64732 0
M  V30 6893 C 1238.51 -3.93473 -7.1943 0
M  V30 6894 O 1238.9 -3.02071 -8.21205 0
M  V30 6895 C 1239.39 -3.73047 -5.97036 0
M  V30 6896 C 1238.68 -2.58828 -5.25741 0
M  V30 6897 N 1238.73 -2.68068 -3.77503 0
M  V30 6898 H 1235.89 -5.40332 -6.79951 0
M  V30 6899 H 1235.62 -4.41613 -5.32378 0
M  V30 6900 H 1236.49 -3.26331 -7.47797 0
M  V30 6901 P 1240.45 -2.75334 -8.47391 0
M  V30 6902 O 1240.67 -2.44571 -9.90142 0
M  V30 6903 O 1241.24 -3.87688 -7.92115 0
M  V30 6904 O 1240.7 -1.4459 -7.59357 0
M  V30 6905 C 1239.76 -0.347608 -7.69215 0
M  V30 6906 C 1240.49 0.96767 -7.52806 0
M  V30 6907 O 1240.7 1.21036 -6.1011 0
M  V30 6908 C 1241.89 1.04544 -8.13308 0
M  V30 6909 O 1242.28 2.38311 -8.41922 0
M  V30 6910 C 1242.77 0.491279 -7.02284 0
M  V30 6911 C 1242.06 0.996264 -5.77469 0
M  V30 6912 N 1242.11 0.0501916 -4.62973 0
M  V30 6913 H 1239.27 -0.374722 -8.67691 0
M  V30 6914 H 1239 -0.443485 -6.90277 0
M  V30 6915 H 1239.87 1.75537 -7.96793 0
M  V30 6916 P 1243.83 2.75334 -8.47391 0
M  V30 6917 O 1244.05 3.84128 -9.44797 0
M  V30 6918 O 1244.62 1.51947 -8.68712 0
M  V30 6919 O 1244.08 3.29363 -6.99321 0
M  V30 6920 C 1243.14 4.24011 -6.4274 0
M  V30 6921 C 1243.87 5.20775 -5.52155 0
M  V30 6922 O 1244.08 4.56534 -4.22446 0
M  V30 6923 C 1245.27 5.62629 -5.96531 0
M  V30 6924 O 1245.66 6.87667 -5.41053 0
M  V30 6925 C 1246.15 4.52537 -5.39283 0
M  V30 6926 C 1245.44 4.20027 -4.08623 0
M  V30 6927 N 1245.49 2.76189 -3.71603 0
M  V30 6928 H 1242.65 4.797 -7.24003 0
M  V30 6929 H 1242.38 3.69856 -5.84513 0
M  V30 6930 H 1243.25 6.10356 -5.41441 0
M  V30 6931 P 1247.21 7.20834 -5.23717 0
M  V30 6932 O 1247.43 8.66104 -5.38572 0
M  V30 6933 O 1248 6.33544 -6.1349 0
M  V30 6934 O 1247.46 6.7751 -3.72168 0
M  V30 6935 C 1246.52 7.20825 -2.7076 0
M  V30 6936 C 1247.25 7.45864 -1.40599 0
M  V30 6937 O 1247.46 6.17651 -0.734225 0
M  V30 6938 C 1248.65 8.05808 -1.51899 0
M  V30 6939 O 1249.04 8.74358 -0.335205 0
M  V30 6940 C 1249.53 6.83093 -1.70294 0
M  V30 6941 C 1248.82 5.79992 -0.836974 0
M  V30 6942 N 1248.87 4.41864 -1.38293 0
M  V30 6943 H 1246.03 8.13644 -3.0377 0
M  V30 6944 H 1245.76 6.42788 -2.55485 0
M  V30 6945 H 1246.63 8.12039 -0.792769 0
M  V30 6946 P 1250.59 8.91 9.85882e-12 0
M  V30 6947 O 1250.81 10.1726 0.733694 0
M  V30 6948 O 1251.38 8.73148 -1.23936 0
M  V30 6949 O 1250.84 7.66872 0.971405 0
M  V30 6950 C 1249.9 7.42309 2.04641 0
M  V30 6951 C 1250.63 6.86059 3.24661 0
M  V30 6952 O 1250.84 5.42847 3.03646 0
M  V30 6953 C 1252.03 7.41196 3.50753 0
M  V30 6954 O 1252.42 7.27073 4.86816 0
M  V30 6955 C 1252.91 6.5273 2.63741 0
M  V30 6956 C 1252.2 5.1842 2.73198 0
M  V30 6957 N 1252.25 4.38762 1.4784 0
M  V30 6958 H 1249.41 8.36803 2.32493 0
M  V30 6959 H 1249.14 6.70197 1.71129 0
M  V30 6960 H 1250.01 7.03551 4.13168 0
M  V30 6961 P 1253.97 7.20834 5.23717 0
M  V30 6962 O 1254.19 7.7993 6.57351 0
M  V30 6963 O 1254.76 7.79328 4.13004 0
M  V30 6964 O 1254.22 5.63315 5.29344 0
M  V30 6965 C 1253.28 4.80193 6.01798 0
M  V30 6966 C 1254.01 3.64202 6.65911 0
M  V30 6967 O 1254.22 2.60694 5.64732 0
M  V30 6968 C 1255.41 3.93473 7.1943 0
M  V30 6969 O 1255.8 3.02071 8.21205 0
M  V30 6970 C 1256.29 3.73047 5.97036 0
M  V30 6971 C 1255.58 2.58828 5.25741 0
M  V30 6972 N 1255.63 2.6801 3.77422 0
M  V30 6973 C 1255.78 1.50443 3.07133 0
M  V30 6974 O 1255.87 0.419406 3.61576 0
M  V30 6975 N 1255.82 1.6403 1.69677 0
M  V30 6976 C 1255.73 2.81206 0.986255 0
M  V30 6977 O 1255.78 2.80892 -0.249754 0
M  V30 6978 C 1255.58 3.99158 1.80325 0
M  V30 6979 C 1255.47 5.29309 1.06921 0
M  V30 6980 C 1255.53 3.89779 3.1476 0
M  V30 6981 H 1252.79 5.40332 6.79951 0
M  V30 6982 H 1252.52 4.41549 5.32301 0
M  V30 6983 H 1253.39 3.26331 7.47797 0
M  V30 6984 H 1256.05 1.6395 5.56554 0
M  V30 6985 H 1256.32 4.63439 5.3432 0
M  V30 6986 H 1257.32 3.44728 6.25838 0
M  V30 6987 H 1255.48 4.96652 7.57263 0
M  V30 6988 H 1255.41 4.80159 3.74441 0
M  V30 6989 H 1256.44 5.81459 1.09608 0
M  V30 6990 H 1254.7 5.9187 1.54487 0
M  V30 6991 H 1255.19 5.10095 0.0220288 0
M  V30 6992 H 1255.93 0.798962 1.16664 0
M  V30 6993 P 1257.35 2.75334 8.47391 0
M  V30 6994 O 1257.57 2.44571 9.90142 0
M  V30 6995 O 1258.14 3.87688 7.92115 0
M  V30 6996 O 1257.6 1.4459 7.59357 0
M  V30 6997 C 1256.66 0.347608 7.69215 0
M  V30 6998 C 1257.39 -0.96767 7.52806 0
M  V30 6999 O 1257.6 -1.21036 6.1011 0
M  V30 7000 C 1258.79 -1.04544 8.13308 0
M  V30 7001 O 1259.18 -2.38311 8.41922 0
M  V30 7002 C 1259.67 -0.491279 7.02284 0
M  V30 7003 C 1258.96 -0.996264 5.77469 0
M  V30 7004 N 1259.01 -0.0501916 4.62973 0
M  V30 7005 H 1256.17 0.374722 8.67691 0
M  V30 7006 H 1255.9 0.443485 6.90277 0
M  V30 7007 H 1256.77 -1.75537 7.96793 0
M  V30 7008 P 1260.73 -2.75334 8.47391 0
M  V30 7009 O 1260.95 -3.84204 9.44982 0
M  V30 7010 O 1261.52 -1.51982 8.68909 0
M  V30 7011 O 1260.98 -3.29363 6.99321 0
M  V30 7012 C 1260.04 -4.24066 6.42823 0
M  V30 7013 C 1260.77 -5.20775 5.52155 0
M  V30 7014 O 1260.98 -4.56607 4.22514 0
M  V30 7015 C 1262.17 -5.62697 5.96604 0
M  V30 7016 O 1262.56 -6.87667 5.41053 0
M  V30 7017 C 1263.05 -4.52537 5.39283 0
M  V30 7018 C 1262.34 -4.20027 4.08623 0
M  V30 7019 N 1262.39 -2.76189 3.71603 0
M  V30 7020 H 1259.55 -4.79756 7.24086 0
M  V30 7021 H 1259.28 -3.69963 5.84682 0
M  V30 7022 H 1260.15 -6.10431 5.41508 0
M  V30 7023 H 1262.81 -4.78816 3.28024 0
M  V30 7024 H 1263.09 -3.64957 6.05871 0
M  V30 7025 H 1264.08 -4.88748 5.21323 0
M  V30 7026 H 1262.24 -5.66789 7.0643 0
M  V30 7027 P 1264.11 -7.20834 5.23717 0
M  V30 7028 O 1264.33 -8.66104 5.38572 0
M  V30 7029 O 1264.9 -6.33544 6.1349 0
M  V30 7030 O 1264.36 -6.7751 3.72168 0
M  V30 7031 C 1263.42 -7.20825 2.7076 0
M  V30 7032 C 1264.15 -7.45864 1.40599 0
M  V30 7033 O 1264.36 -6.17651 0.734225 0
M  V30 7034 C 1265.55 -8.05808 1.51899 0
M  V30 7035 O 1265.94 -8.74358 0.335205 0
M  V30 7036 C 1266.43 -6.83093 1.70294 0
M  V30 7037 C 1265.72 -5.79992 0.836974 0
M  V30 7038 N 1265.77 -4.41864 1.38293 0
M  V30 7039 H 1262.93 -8.13644 3.0377 0
M  V30 7040 H 1262.66 -6.42788 2.55485 0
M  V30 7041 H 1263.53 -8.12039 0.792769 0
M  V30 7042 P 1267.49 -8.91 -1.0016e-11 0
M  V30 7043 O 1267.71 -10.1726 -0.733694 0
M  V30 7044 O 1268.28 -8.73148 1.23936 0
M  V30 7045 O 1267.74 -7.66872 -0.971405 0
M  V30 7046 C 1266.8 -7.42309 -2.04641 0
M  V30 7047 C 1267.53 -6.86059 -3.24661 0
M  V30 7048 O 1267.74 -5.42847 -3.03646 0
M  V30 7049 C 1268.93 -7.41196 -3.50753 0
M  V30 7050 O 1269.32 -7.27073 -4.86816 0
M  V30 7051 C 1269.81 -6.5273 -2.63741 0
M  V30 7052 C 1269.1 -5.1842 -2.73198 0
M  V30 7053 N 1269.15 -4.38762 -1.4784 0
M  V30 7054 H 1266.31 -8.36803 -2.32493 0
M  V30 7055 H 1266.04 -6.70197 -1.71129 0
M  V30 7056 H 1266.91 -7.03551 -4.13168 0
M  V30 7057 P 1270.87 -7.20834 -5.23717 0
M  V30 7058 O 1271.09 -7.79853 -6.57286 0
M  V30 7059 O 1271.66 -7.79239 -4.12957 0
M  V30 7060 O 1271.12 -5.63315 -5.29344 0
M  V30 7061 C 1270.18 -4.80255 -6.01876 0
M  V30 7062 C 1270.91 -3.64202 -6.65911 0
M  V30 7063 O 1271.12 -2.60694 -5.64732 0
M  V30 7064 C 1272.31 -3.93473 -7.1943 0
M  V30 7065 O 1272.7 -3.02071 -8.21205 0
M  V30 7066 C 1273.19 -3.73047 -5.97036 0
M  V30 7067 C 1272.48 -2.58828 -5.25741 0
M  V30 7068 N 1272.53 -2.68068 -3.77503 0
M  V30 7069 H 1269.69 -5.40332 -6.79951 0
M  V30 7070 H 1269.42 -4.41613 -5.32378 0
M  V30 7071 H 1270.29 -3.26331 -7.47797 0
M  V30 7072 P 1274.25 -2.75334 -8.47391 0
M  V30 7073 O 1274.47 -2.44571 -9.90142 0
M  V30 7074 O 1275.04 -3.87688 -7.92115 0
M  V30 7075 O 1274.5 -1.4459 -7.59357 0
M  V30 7076 C 1273.56 -0.347608 -7.69215 0
M  V30 7077 C 1274.29 0.96767 -7.52806 0
M  V30 7078 O 1274.5 1.21036 -6.1011 0
M  V30 7079 C 1275.69 1.04544 -8.13308 0
M  V30 7080 O 1276.08 2.38311 -8.41922 0
M  V30 7081 C 1276.57 0.491279 -7.02284 0
M  V30 7082 C 1275.86 0.996264 -5.77469 0
M  V30 7083 N 1275.91 0.0501916 -4.62973 0
M  V30 7084 H 1273.07 -0.374722 -8.67691 0
M  V30 7085 H 1272.8 -0.443485 -6.90277 0
M  V30 7086 H 1273.67 1.75537 -7.96793 0
M  V30 7087 P 1277.63 2.75334 -8.47391 0
M  V30 7088 O 1277.85 3.84204 -9.44982 0
M  V30 7089 O 1278.42 1.51982 -8.68909 0
M  V30 7090 O 1277.88 3.29363 -6.99321 0
M  V30 7091 C 1276.94 4.24066 -6.42823 0
M  V30 7092 C 1277.67 5.20775 -5.52155 0
M  V30 7093 O 1277.88 4.56607 -4.22514 0
M  V30 7094 C 1279.07 5.62697 -5.96604 0
M  V30 7095 O 1279.46 6.87667 -5.41053 0
M  V30 7096 C 1279.95 4.52537 -5.39283 0
M  V30 7097 C 1279.24 4.20027 -4.08623 0
M  V30 7098 N 1279.29 2.76189 -3.71603 0
M  V30 7099 C 1279.21 1.66944 -4.54297 0
M  V30 7100 N 1279.28 0.536169 -3.91344 0
M  V30 7101 C 1279.43 0.901569 -2.58849 0
M  V30 7102 C 1279.56 0.146599 -1.40236 0
M  V30 7103 N 1279.57 -1.18234 -1.37046 0
M  V30 7104 N 1279.68 0.822941 -0.249738 0
M  V30 7105 C 1279.67 2.15179 -0.280525 0
M  V30 7106 N 1279.55 2.96414 -1.30822 0
M  V30 7107 C 1279.43 2.25804 -2.44748 0
M  V30 7108 H 1276.45 4.79756 -7.24086 0
M  V30 7109 H 1276.18 3.69963 -5.84682 0
M  V30 7110 H 1277.05 6.10431 -5.41508 0
M  V30 7111 H 1279.71 4.78816 -3.28024 0
M  V30 7112 H 1279.99 3.64957 -6.05871 0
M  V30 7113 H 1280.98 4.88748 -5.21323 0
M  V30 7114 H 1279.14 5.66789 -7.0643 0
M  V30 7115 H 1279.1 1.74684 -5.62396 0
M  V30 7116 H 1279.48 -1.71949 -2.24394 0
M  V30 7117 H 1279.67 -1.67511 -0.470742 0
M  V30 7118 H 1279.78 2.63704 0.6828 0
M  V30 7119 P 1281.01 7.20834 -5.23717 0
M  V30 7120 O 1281.23 8.66104 -5.38572 0
M  V30 7121 O 1281.8 6.33544 -6.1349 0
M  V30 7122 O 1281.26 6.7751 -3.72168 0
M  V30 7123 C 1280.32 7.20825 -2.7076 0
M  V30 7124 C 1281.05 7.45864 -1.40599 0
M  V30 7125 O 1281.26 6.17651 -0.734225 0
M  V30 7126 C 1282.45 8.05808 -1.51899 0
M  V30 7127 O 1282.84 8.74358 -0.335205 0
M  V30 7128 C 1283.33 6.83093 -1.70294 0
M  V30 7129 C 1282.62 5.79992 -0.836974 0
M  V30 7130 N 1282.67 4.41864 -1.38293 0
M  V30 7131 H 1279.83 8.13644 -3.0377 0
M  V30 7132 H 1279.56 6.42788 -2.55485 0
M  V30 7133 H 1280.43 8.12039 -0.792769 0
M  V30 7134 P 1284.39 8.91 1.01732e-11 0
M  V30 7135 O 1284.61 10.1726 0.733694 0
M  V30 7136 O 1285.18 8.73148 -1.23936 0
M  V30 7137 O 1284.64 7.66872 0.971405 0
M  V30 7138 C 1283.7 7.42309 2.04641 0
M  V30 7139 C 1284.43 6.86059 3.24661 0
M  V30 7140 O 1284.64 5.42847 3.03646 0
M  V30 7141 C 1285.83 7.41196 3.50753 0
M  V30 7142 O 1286.22 7.27073 4.86816 0
M  V30 7143 C 1286.71 6.5273 2.63741 0
M  V30 7144 C 1286 5.1842 2.73198 0
M  V30 7145 N 1286.05 4.38762 1.4784 0
M  V30 7146 H 1283.21 8.36803 2.32493 0
M  V30 7147 H 1282.94 6.70197 1.71129 0
M  V30 7148 H 1283.81 7.03551 4.13168 0
M  V30 7149 P 1287.77 7.20834 5.23717 0
M  V30 7150 O 1287.99 7.79853 6.57286 0
M  V30 7151 O 1288.56 7.79239 4.12957 0
M  V30 7152 O 1288.02 5.63315 5.29344 0
M  V30 7153 C 1287.08 4.80255 6.01876 0
M  V30 7154 C 1287.81 3.64202 6.65911 0
M  V30 7155 O 1288.02 2.60694 5.64732 0
M  V30 7156 C 1289.21 3.93473 7.1943 0
M  V30 7157 O 1289.6 3.02071 8.21205 0
M  V30 7158 C 1290.09 3.73047 5.97036 0
M  V30 7159 C 1289.38 2.58828 5.25741 0
M  V30 7160 N 1289.43 2.68068 3.77503 0
M  V30 7161 H 1286.59 5.40332 6.79951 0
M  V30 7162 H 1286.32 4.41613 5.32378 0
M  V30 7163 H 1287.19 3.26331 7.47797 0
M  V30 7164 P 1291.15 2.75334 8.47391 0
M  V30 7165 O 1291.37 2.44571 9.90142 0
M  V30 7166 O 1291.94 3.87688 7.92115 0
M  V30 7167 O 1291.4 1.4459 7.59357 0
M  V30 7168 C 1290.46 0.347608 7.69215 0
M  V30 7169 C 1291.19 -0.96767 7.52806 0
M  V30 7170 O 1291.4 -1.21036 6.1011 0
M  V30 7171 C 1292.59 -1.04544 8.13308 0
M  V30 7172 O 1292.98 -2.38311 8.41922 0
M  V30 7173 C 1293.47 -0.491279 7.02284 0
M  V30 7174 C 1292.76 -0.996264 5.77469 0
M  V30 7175 N 1292.81 -0.0501916 4.62973 0
M  V30 7176 H 1289.97 0.374722 8.67691 0
M  V30 7177 H 1289.7 0.443485 6.90277 0
M  V30 7178 H 1290.57 -1.75537 7.96793 0
M  V30 7179 P 1294.53 -2.75334 8.47391 0
M  V30 7180 O 1294.75 -3.84128 9.44797 0
M  V30 7181 O 1295.32 -1.51947 8.68712 0
M  V30 7182 O 1294.78 -3.29363 6.99321 0
M  V30 7183 C 1293.84 -4.24011 6.4274 0
M  V30 7184 C 1294.57 -5.20775 5.52155 0
M  V30 7185 O 1294.78 -4.56534 4.22446 0
M  V30 7186 C 1295.97 -5.62629 5.96531 0
M  V30 7187 O 1296.36 -6.87667 5.41053 0
M  V30 7188 C 1296.85 -4.52537 5.39283 0
M  V30 7189 C 1296.14 -4.20027 4.08623 0
M  V30 7190 N 1296.19 -2.76189 3.71603 0
M  V30 7191 H 1293.35 -4.797 7.24003 0
M  V30 7192 H 1293.08 -3.69856 5.84513 0
M  V30 7193 H 1293.95 -6.10356 5.41441 0
M  V30 7194 P 1297.91 -7.20834 5.23717 0
M  V30 7195 O 1298.13 -8.66104 5.38572 0
M  V30 7196 O 1298.7 -6.33544 6.1349 0
M  V30 7197 O 1298.16 -6.7751 3.72168 0
M  V30 7198 C 1297.22 -7.20825 2.7076 0
M  V30 7199 C 1297.95 -7.45864 1.40599 0
M  V30 7200 O 1298.16 -6.17651 0.734225 0
M  V30 7201 C 1299.35 -8.05808 1.51899 0
M  V30 7202 O 1299.74 -8.74358 0.335205 0
M  V30 7203 C 1300.23 -6.83093 1.70294 0
M  V30 7204 C 1299.52 -5.79992 0.836974 0
M  V30 7205 N 1299.57 -4.41864 1.38293 0
M  V30 7206 H 1296.73 -8.13644 3.0377 0
M  V30 7207 H 1296.46 -6.42788 2.55485 0
M  V30 7208 H 1297.33 -8.12039 0.792769 0
M  V30 7209 P 1301.29 -8.91 -1.03304e-11 0
M  V30 7210 O 1301.51 -10.1726 -0.733694 0
M  V30 7211 O 1302.08 -8.73148 1.23936 0
M  V30 7212 O 1301.54 -7.66872 -0.971405 0
M  V30 7213 C 1300.6 -7.42309 -2.04641 0
M  V30 7214 C 1301.33 -6.86059 -3.24661 0
M  V30 7215 O 1301.54 -5.42847 -3.03646 0
M  V30 7216 C 1302.73 -7.41196 -3.50753 0
M  V30 7217 O 1303.12 -7.27073 -4.86816 0
M  V30 7218 C 1303.61 -6.5273 -2.63741 0
M  V30 7219 C 1302.9 -5.1842 -2.73198 0
M  V30 7220 N 1302.95 -4.38762 -1.4784 0
M  V30 7221 H 1300.11 -8.36803 -2.32493 0
M  V30 7222 H 1299.84 -6.70197 -1.71129 0
M  V30 7223 H 1300.71 -7.03551 -4.13168 0
M  V30 7224 P 1304.67 -7.20834 -5.23717 0
M  V30 7225 O 1304.89 -7.80006 -6.57415 0
M  V30 7226 O 1305.46 -7.79416 -4.13051 0
M  V30 7227 O 1304.92 -5.63315 -5.29344 0
M  V30 7228 C 1303.98 -4.80318 -6.01954 0
M  V30 7229 C 1304.71 -3.64202 -6.65911 0
M  V30 7230 O 1304.92 -2.60736 -5.64823 0
M  V30 7231 C 1306.11 -3.93521 -7.19518 0
M  V30 7232 O 1306.5 -3.02071 -8.21205 0
M  V30 7233 C 1306.99 -3.73047 -5.97036 0
M  V30 7234 C 1306.28 -2.58828 -5.25741 0
M  V30 7235 N 1306.33 -2.68068 -3.77503 0
M  V30 7236 C 1306.25 -3.80474 -2.99159 0
M  V30 7237 N 1306.32 -3.55622 -1.71925 0
M  V30 7238 C 1306.47 -2.1832 -1.65733 0
M  V30 7239 C 1306.6 -1.28842 -0.572777 0
M  V30 7240 N 1306.61 -1.66875 0.70098 0
M  V30 7241 N 1306.72 0.016788 -0.859836 0
M  V30 7242 C 1306.71 0.398145 -2.13316 0
M  V30 7243 N 1306.59 -0.328224 -3.22333 0
M  V30 7244 C 1306.47 -1.62992 -2.90383 0
M  V30 7245 H 1303.49 -5.40394 -6.8003 0
M  V30 7246 H 1303.22 -4.41741 -5.32532 0
M  V30 7247 H 1304.09 -3.26371 -7.47889 0
M  V30 7248 H 1306.75 -1.64007 -5.56746 0
M  V30 7249 H 1307.03 -4.63439 -5.3432 0
M  V30 7250 H 1308.02 -3.44776 -6.25925 0
M  V30 7251 H 1306.18 -4.96707 -7.57347 0
M  V30 7252 H 1306.14 -4.8089 -3.39924 0
M  V30 7253 H 1306.52 -2.66547 0.941919 0
M  V30 7254 H 1306.71 -0.965341 1.44766 0
M  V30 7255 H 1306.82 1.46427 -2.29697 0
M  V30 7256 P 1308.05 -2.75334 -8.47391 0
M  V30 7257 O 1308.27 -2.44571 -9.90142 0
M  V30 7258 O 1308.84 -3.87688 -7.92115 0
M  V30 7259 O 1308.3 -1.4459 -7.59357 0
M  V30 7260 C 1307.36 -0.347608 -7.69215 0
M  V30 7261 C 1308.09 0.96767 -7.52806 0
M  V30 7262 O 1308.3 1.21036 -6.1011 0
M  V30 7263 C 1309.49 1.04544 -8.13308 0
M  V30 7264 O 1309.88 2.38311 -8.41922 0
M  V30 7265 C 1310.37 0.491279 -7.02284 0
M  V30 7266 C 1309.66 0.996264 -5.77469 0
M  V30 7267 N 1309.71 0.0501916 -4.62973 0
M  V30 7268 H 1306.87 -0.374722 -8.67691 0
M  V30 7269 H 1306.6 -0.443485 -6.90277 0
M  V30 7270 H 1307.47 1.75537 -7.96793 0
M  V30 7271 P 1311.43 2.75334 -8.47391 0
M  V30 7272 O 1311.65 3.84128 -9.44797 0
M  V30 7273 O 1312.22 1.51947 -8.68712 0
M  V30 7274 O 1311.68 3.29363 -6.99321 0
M  V30 7275 C 1310.74 4.24011 -6.4274 0
M  V30 7276 C 1311.47 5.20775 -5.52155 0
M  V30 7277 O 1311.68 4.56534 -4.22446 0
M  V30 7278 C 1312.87 5.62629 -5.96531 0
M  V30 7279 O 1313.26 6.87667 -5.41053 0
M  V30 7280 C 1313.75 4.52537 -5.39283 0
M  V30 7281 C 1313.04 4.20027 -4.08623 0
M  V30 7282 N 1313.09 2.76189 -3.71603 0
M  V30 7283 H 1310.25 4.797 -7.24003 0
M  V30 7284 H 1309.98 3.69856 -5.84513 0
M  V30 7285 H 1310.85 6.10356 -5.41441 0
M  V30 7286 P 1314.81 7.20834 -5.23717 0
M  V30 7287 O 1315.03 8.66274 -5.38678 0
M  V30 7288 O 1315.6 6.33687 -6.13629 0
M  V30 7289 O 1315.06 6.7751 -3.72168 0
M  V30 7290 C 1314.12 7.20919 -2.70795 0
M  V30 7291 C 1314.85 7.45864 -1.40599 0
M  V30 7292 O 1315.06 6.17751 -0.734343 0
M  V30 7293 C 1316.25 8.05906 -1.51917 0
M  V30 7294 O 1316.64 8.74358 -0.335205 0
M  V30 7295 C 1317.13 6.83093 -1.70294 0
M  V30 7296 C 1316.42 5.79992 -0.836974 0
M  V30 7297 N 1316.47 4.41864 -1.38293 0
M  V30 7298 H 1313.63 8.13738 -3.03804 0
M  V30 7299 H 1313.36 6.42974 -2.55559 0
M  V30 7300 H 1314.23 8.12139 -0.792866 0
M  V30 7301 H 1316.89 5.80178 0.160643 0
M  V30 7302 H 1317.17 6.51379 -2.75643 0
M  V30 7303 H 1318.16 7.01832 -1.3448 0
M  V30 7304 H 1316.32 8.73771 -2.38364 0
M  V30 7305 P 1318.19 8.91 1.04876e-11 0
M  V30 7306 O 1318.41 10.1726 0.733694 0
M  V30 7307 O 1318.98 8.73148 -1.23936 0
M  V30 7308 O 1318.44 7.66872 0.971405 0
M  V30 7309 C 1317.5 7.42309 2.04641 0
M  V30 7310 C 1318.23 6.86059 3.24661 0
M  V30 7311 O 1318.44 5.42847 3.03646 0
M  V30 7312 C 1319.63 7.41196 3.50753 0
M  V30 7313 O 1320.02 7.27073 4.86816 0
M  V30 7314 C 1320.51 6.5273 2.63741 0
M  V30 7315 C 1319.8 5.1842 2.73198 0
M  V30 7316 N 1319.85 4.38762 1.4784 0
M  V30 7317 H 1317.01 8.36803 2.32493 0
M  V30 7318 H 1316.74 6.70197 1.71129 0
M  V30 7319 H 1317.61 7.03551 4.13168 0
M  V30 7320 P 1321.57 7.20834 5.23717 0
M  V30 7321 O 1321.79 7.79853 6.57286 0
M  V30 7322 O 1322.36 7.79239 4.12957 0
M  V30 7323 O 1321.82 5.63315 5.29344 0
M  V30 7324 C 1320.88 4.80255 6.01876 0
M  V30 7325 C 1321.61 3.64202 6.65911 0
M  V30 7326 O 1321.82 2.60694 5.64732 0
M  V30 7327 C 1323.01 3.93473 7.1943 0
M  V30 7328 O 1323.4 3.02071 8.21205 0
M  V30 7329 C 1323.89 3.73047 5.97036 0
M  V30 7330 C 1323.18 2.58828 5.25741 0
M  V30 7331 N 1323.23 2.68068 3.77503 0
M  V30 7332 H 1320.39 5.40332 6.79951 0
M  V30 7333 H 1320.12 4.41613 5.32378 0
M  V30 7334 H 1320.99 3.26331 7.47797 0
M  V30 7335 P 1324.95 2.75334 8.47391 0
M  V30 7336 O 1325.17 2.44571 9.90142 0
M  V30 7337 O 1325.74 3.87688 7.92115 0
M  V30 7338 O 1325.2 1.4459 7.59357 0
M  V30 7339 C 1324.26 0.347608 7.69215 0
M  V30 7340 C 1324.99 -0.96767 7.52806 0
M  V30 7341 O 1325.2 -1.21036 6.1011 0
M  V30 7342 C 1326.39 -1.04544 8.13308 0
M  V30 7343 O 1326.78 -2.38311 8.41922 0
M  V30 7344 C 1327.27 -0.491279 7.02284 0
M  V30 7345 C 1326.56 -0.996264 5.77469 0
M  V30 7346 N 1326.61 -0.0501916 4.62973 0
M  V30 7347 H 1323.77 0.374722 8.67691 0
M  V30 7348 H 1323.5 0.443485 6.90277 0
M  V30 7349 H 1324.37 -1.75537 7.96793 0
M  V30 7350 P 1328.33 -2.75334 8.47391 0
M  V30 7351 O 1328.55 -3.84128 9.44797 0
M  V30 7352 O 1329.12 -1.51947 8.68712 0
M  V30 7353 O 1328.58 -3.29363 6.99321 0
M  V30 7354 C 1327.64 -4.24011 6.4274 0
M  V30 7355 C 1328.37 -5.20775 5.52155 0
M  V30 7356 O 1328.58 -4.56534 4.22446 0
M  V30 7357 C 1329.77 -5.62629 5.96531 0
M  V30 7358 O 1330.16 -6.87667 5.41053 0
M  V30 7359 C 1330.65 -4.52537 5.39283 0
M  V30 7360 C 1329.94 -4.20027 4.08623 0
M  V30 7361 N 1329.99 -2.76189 3.71603 0
M  V30 7362 C 1329.91 -1.64862 4.52822 0
M  V30 7363 N 1329.99 -0.512671 3.88633 0
M  V30 7364 C 1330.13 -0.888083 2.54977 0
M  V30 7365 C 1330.26 -0.094668 1.38677 0
M  V30 7366 O 1330.28 1.13053 1.28163 0
M  V30 7367 N 1330.38 -0.890102 0.232633 0
M  V30 7368 C 1330.38 -2.26958 0.21772 0
M  V30 7369 N 1330.51 -2.84626 -0.97925 0
M  V30 7370 N 1330.25 -3.0178 1.31033 0
M  V30 7371 C 1330.13 -2.26781 2.43843 0
M  V30 7372 H 1327.15 -4.797 7.24003 0
M  V30 7373 H 1326.88 -3.69856 5.84513 0
M  V30 7374 H 1327.75 -6.10356 5.41441 0
M  V30 7375 H 1330.41 -4.79061 3.27488 0
M  V30 7376 H 1330.68 -3.64906 6.05785 0
M  V30 7377 H 1331.68 -4.8868 5.2125 0
M  V30 7378 H 1329.84 -5.66726 7.06352 0
M  V30 7379 H 1329.79 -1.71169 5.60966 0
M  V30 7380 H 1330.48 -0.419134 -0.644739 0
M  V30 7381 H 1330.51 -3.87332 -1.06098 0
M  V30 7382 H 1330.61 -2.26417 -1.82483 0
M  V30 7383 P 1331.71 -7.20834 5.23717 0
M  V30 7384 O 1331.93 -8.66104 5.38572 0
M  V30 7385 O 1332.5 -6.33544 6.1349 0
M  V30 7386 O 1331.96 -6.7751 3.72168 0
M  V30 7387 C 1331.02 -7.20825 2.7076 0
M  V30 7388 C 1331.75 -7.45864 1.40599 0
M  V30 7389 O 1331.96 -6.17651 0.734225 0
M  V30 7390 C 1333.15 -8.05808 1.51899 0
M  V30 7391 O 1333.54 -8.74358 0.335205 0
M  V30 7392 C 1334.03 -6.83093 1.70294 0
M  V30 7393 C 1333.32 -5.79992 0.836974 0
M  V30 7394 N 1333.37 -4.41864 1.38293 0
M  V30 7395 H 1330.53 -8.13644 3.0377 0
M  V30 7396 H 1330.26 -6.42788 2.55485 0
M  V30 7397 H 1331.13 -8.12039 0.792769 0
M  V30 7398 P 1335.09 -8.91 -1.06447e-11 0
M  V30 7399 O 1335.31 -10.1726 -0.733694 0
M  V30 7400 O 1335.88 -8.73148 1.23936 0
M  V30 7401 O 1335.34 -7.66872 -0.971405 0
M  V30 7402 C 1334.4 -7.42309 -2.04641 0
M  V30 7403 C 1335.13 -6.86059 -3.24661 0
M  V30 7404 O 1335.34 -5.42847 -3.03646 0
M  V30 7405 C 1336.53 -7.41196 -3.50753 0
M  V30 7406 O 1336.92 -7.27073 -4.86816 0
M  V30 7407 C 1337.41 -6.5273 -2.63741 0
M  V30 7408 C 1336.7 -5.1842 -2.73198 0
M  V30 7409 N 1336.75 -4.38762 -1.4784 0
M  V30 7410 H 1333.91 -8.36803 -2.32493 0
M  V30 7411 H 1333.64 -6.70197 -1.71129 0
M  V30 7412 H 1334.51 -7.03551 -4.13168 0
M  V30 7413 P 1338.47 -7.20834 -5.23717 0
M  V30 7414 O 1338.69 -7.79853 -6.57286 0
M  V30 7415 O 1339.26 -7.79239 -4.12957 0
M  V30 7416 O 1338.72 -5.63315 -5.29344 0
M  V30 7417 C 1337.78 -4.80255 -6.01876 0
M  V30 7418 C 1338.51 -3.64202 -6.65911 0
M  V30 7419 O 1338.72 -2.60694 -5.64732 0
M  V30 7420 C 1339.91 -3.93473 -7.1943 0
M  V30 7421 O 1340.3 -3.02071 -8.21205 0
M  V30 7422 C 1340.79 -3.73047 -5.97036 0
M  V30 7423 C 1340.08 -2.58828 -5.25741 0
M  V30 7424 N 1340.13 -2.68068 -3.77503 0
M  V30 7425 H 1337.29 -5.40332 -6.79951 0
M  V30 7426 H 1337.02 -4.41613 -5.32378 0
M  V30 7427 H 1337.89 -3.26331 -7.47797 0
M  V30 7428 P 1341.85 -2.75334 -8.47391 0
M  V30 7429 O 1342.07 -2.44571 -9.90142 0
M  V30 7430 O 1342.64 -3.87688 -7.92115 0
M  V30 7431 O 1342.1 -1.4459 -7.59357 0
M  V30 7432 C 1341.16 -0.347608 -7.69215 0
M  V30 7433 C 1341.89 0.96767 -7.52806 0
M  V30 7434 O 1342.1 1.21036 -6.1011 0
M  V30 7435 C 1343.29 1.04544 -8.13308 0
M  V30 7436 O 1343.68 2.38311 -8.41922 0
M  V30 7437 C 1344.17 0.491279 -7.02284 0
M  V30 7438 C 1343.46 0.996264 -5.77469 0
M  V30 7439 N 1343.51 0.0501916 -4.62973 0
M  V30 7440 H 1340.67 -0.374722 -8.67691 0
M  V30 7441 H 1340.4 -0.443485 -6.90277 0
M  V30 7442 H 1341.27 1.75537 -7.96793 0
M  V30 7443 P 1345.23 2.75334 -8.47391 0
M  V30 7444 O 1345.45 3.84128 -9.44797 0
M  V30 7445 O 1346.02 1.51947 -8.68712 0
M  V30 7446 O 1345.48 3.29363 -6.99321 0
M  V30 7447 C 1344.54 4.24011 -6.4274 0
M  V30 7448 C 1345.27 5.20775 -5.52155 0
M  V30 7449 O 1345.48 4.56534 -4.22446 0
M  V30 7450 C 1346.67 5.62629 -5.96531 0
M  V30 7451 O 1347.06 6.87667 -5.41053 0
M  V30 7452 C 1347.55 4.52537 -5.39283 0
M  V30 7453 C 1346.84 4.20027 -4.08623 0
M  V30 7454 N 1346.89 2.76189 -3.71603 0
M  V30 7455 H 1344.05 4.797 -7.24003 0
M  V30 7456 H 1343.78 3.69856 -5.84513 0
M  V30 7457 H 1344.65 6.10356 -5.41441 0
M  V30 7458 P 1348.61 7.20834 -5.23717 0
M  V30 7459 O 1348.83 8.66104 -5.38572 0
M  V30 7460 O 1349.4 6.33544 -6.1349 0
M  V30 7461 O 1348.86 6.7751 -3.72168 0
M  V30 7462 C 1347.92 7.20825 -2.7076 0
M  V30 7463 C 1348.65 7.45864 -1.40599 0
M  V30 7464 O 1348.86 6.17651 -0.734225 0
M  V30 7465 C 1350.05 8.05808 -1.51899 0
M  V30 7466 O 1350.44 8.74358 -0.335205 0
M  V30 7467 C 1350.93 6.83093 -1.70294 0
M  V30 7468 C 1350.22 5.79992 -0.836974 0
M  V30 7469 N 1350.27 4.41864 -1.38293 0
M  V30 7470 H 1347.43 8.13644 -3.0377 0
M  V30 7471 H 1347.16 6.42788 -2.55485 0
M  V30 7472 H 1348.03 8.12039 -0.792769 0
M  V30 7473 P 1351.99 8.91 1.08019e-11 0
M  V30 7474 O 1352.21 10.1746 0.733838 0
M  V30 7475 O 1352.78 8.73346 -1.23964 0
M  V30 7476 O 1352.24 7.66872 0.971405 0
M  V30 7477 C 1351.3 7.42405 2.04668 0
M  V30 7478 C 1352.03 6.86059 3.24661 0
M  V30 7479 O 1352.24 5.42934 3.03695 0
M  V30 7480 C 1353.43 7.41287 3.50796 0
M  V30 7481 O 1353.82 7.27073 4.86816 0
M  V30 7482 C 1354.31 6.5273 2.63741 0
M  V30 7483 C 1353.6 5.1842 2.73198 0
M  V30 7484 N 1353.65 4.38762 1.4784 0
M  V30 7485 H 1350.81 8.36899 2.3252 0
M  V30 7486 H 1350.54 6.70391 1.71179 0
M  V30 7487 H 1351.41 7.03638 4.13219 0
M  V30 7488 H 1354.06 4.59931 3.54016 0
M  V30 7489 H 1354.34 6.88995 1.59871 0
M  V30 7490 H 1355.34 6.4684 3.0373 0
M  V30 7491 H 1353.5 8.47002 3.20749 0
M  V30 7492 P 1355.37 7.20834 5.23717 0
M  V30 7493 O 1355.59 7.79853 6.57286 0
M  V30 7494 O 1356.16 7.79239 4.12957 0
M  V30 7495 O 1355.62 5.63315 5.29344 0
M  V30 7496 C 1354.68 4.80255 6.01876 0
M  V30 7497 C 1355.41 3.64202 6.65911 0
M  V30 7498 O 1355.62 2.60694 5.64732 0
M  V30 7499 C 1356.81 3.93473 7.1943 0
M  V30 7500 O 1357.2 3.02071 8.21205 0
M  V30 7501 C 1357.69 3.73047 5.97036 0
M  V30 7502 C 1356.98 2.58828 5.25741 0
M  V30 7503 N 1357.03 2.68068 3.77503 0
M  V30 7504 H 1354.19 5.40332 6.79951 0
M  V30 7505 H 1353.92 4.41613 5.32378 0
M  V30 7506 H 1354.79 3.26331 7.47797 0
M  V30 7507 P 1358.75 2.75334 8.47391 0
M  V30 7508 O 1358.97 2.44571 9.90142 0
M  V30 7509 O 1359.54 3.87688 7.92115 0
M  V30 7510 O 1359 1.4459 7.59357 0
M  V30 7511 C 1358.06 0.347608 7.69215 0
M  V30 7512 C 1358.79 -0.96767 7.52806 0
M  V30 7513 O 1359 -1.21036 6.1011 0
M  V30 7514 C 1360.19 -1.04544 8.13308 0
M  V30 7515 O 1360.58 -2.38311 8.41922 0
M  V30 7516 C 1361.07 -0.491279 7.02284 0
M  V30 7517 C 1360.36 -0.996264 5.77469 0
M  V30 7518 N 1360.41 -0.0501916 4.62973 0
M  V30 7519 H 1357.57 0.374722 8.67691 0
M  V30 7520 H 1357.3 0.443485 6.90277 0
M  V30 7521 H 1358.17 -1.75537 7.96793 0
M  V30 7522 P 1362.13 -2.75334 8.47391 0
M  V30 7523 O 1362.35 -3.84128 9.44797 0
M  V30 7524 O 1362.92 -1.51947 8.68712 0
M  V30 7525 O 1362.38 -3.29363 6.99321 0
M  V30 7526 C 1361.44 -4.24011 6.4274 0
M  V30 7527 C 1362.17 -5.20775 5.52155 0
M  V30 7528 O 1362.38 -4.56534 4.22446 0
M  V30 7529 C 1363.57 -5.62629 5.96531 0
M  V30 7530 O 1363.96 -6.87667 5.41053 0
M  V30 7531 C 1364.45 -4.52537 5.39283 0
M  V30 7532 C 1363.74 -4.20027 4.08623 0
M  V30 7533 N 1363.79 -2.76189 3.71603 0
M  V30 7534 H 1360.95 -4.797 7.24003 0
M  V30 7535 H 1360.68 -3.69856 5.84513 0
M  V30 7536 H 1361.55 -6.10356 5.41441 0
M  V30 7537 P 1365.51 -7.20834 5.23717 0
M  V30 7538 O 1365.73 -8.66104 5.38572 0
M  V30 7539 O 1366.3 -6.33544 6.1349 0
M  V30 7540 O 1365.76 -6.7751 3.72168 0
M  V30 7541 C 1364.82 -7.20825 2.7076 0
M  V30 7542 C 1365.55 -7.45864 1.40599 0
M  V30 7543 O 1365.76 -6.17651 0.734225 0
M  V30 7544 C 1366.95 -8.05808 1.51899 0
M  V30 7545 O 1367.34 -8.74358 0.335205 0
M  V30 7546 C 1367.83 -6.83093 1.70294 0
M  V30 7547 C 1367.12 -5.79992 0.836974 0
M  V30 7548 N 1367.17 -4.41864 1.38293 0
M  V30 7549 H 1364.33 -8.13644 3.0377 0
M  V30 7550 H 1364.06 -6.42788 2.55485 0
M  V30 7551 H 1364.93 -8.12039 0.792769 0
M  V30 7552 P 1368.89 -8.91 -1.09591e-11 0
M  V30 7553 O 1369.11 -10.1726 -0.733694 0
M  V30 7554 O 1369.68 -8.73148 1.23936 0
M  V30 7555 O 1369.14 -7.66872 -0.971405 0
M  V30 7556 C 1368.2 -7.42309 -2.04641 0
M  V30 7557 C 1368.93 -6.86059 -3.24661 0
M  V30 7558 O 1369.14 -5.42847 -3.03646 0
M  V30 7559 C 1370.33 -7.41196 -3.50753 0
M  V30 7560 O 1370.72 -7.27073 -4.86816 0
M  V30 7561 C 1371.21 -6.5273 -2.63741 0
M  V30 7562 C 1370.5 -5.1842 -2.73198 0
M  V30 7563 N 1370.55 -4.38762 -1.4784 0
M  V30 7564 H 1367.71 -8.36803 -2.32493 0
M  V30 7565 H 1367.44 -6.70197 -1.71129 0
M  V30 7566 H 1368.31 -7.03551 -4.13168 0
M  V30 7567 P 1372.27 -7.20834 -5.23717 0
M  V30 7568 O 1372.49 -7.79853 -6.57286 0
M  V30 7569 O 1373.06 -7.79239 -4.12957 0
M  V30 7570 O 1372.52 -5.63315 -5.29344 0
M  V30 7571 C 1371.58 -4.80255 -6.01876 0
M  V30 7572 C 1372.31 -3.64202 -6.65911 0
M  V30 7573 O 1372.52 -2.60694 -5.64732 0
M  V30 7574 C 1373.71 -3.93473 -7.1943 0
M  V30 7575 O 1374.1 -3.02071 -8.21205 0
M  V30 7576 C 1374.59 -3.73047 -5.97036 0
M  V30 7577 C 1373.88 -2.58828 -5.25741 0
M  V30 7578 N 1373.93 -2.68068 -3.77503 0
M  V30 7579 C 1373.85 -3.79715 -2.96723 0
M  V30 7580 N 1373.93 -3.5377 -1.68852 0
M  V30 7581 C 1374.07 -2.15054 -1.63254 0
M  V30 7582 C 1374.2 -1.28964 -0.518571 0
M  V30 7583 O 1374.22 -1.56826 0.679156 0
M  V30 7584 N 1374.32 0.0538097 -0.918425 0
M  V30 7585 C 1374.32 0.494275 -2.22578 0
M  V30 7586 N 1374.45 1.81086 -2.40434 0
M  V30 7587 N 1374.19 -0.313645 -3.27502 0
M  V30 7588 C 1374.07 -1.61829 -2.91033 0
M  V30 7589 H 1371.09 -5.40332 -6.79951 0
M  V30 7590 H 1370.82 -4.41613 -5.32378 0
M  V30 7591 H 1371.69 -3.26331 -7.47797 0
M  V30 7592 H 1374.34 -1.63422 -5.56814 0
M  V30 7593 H 1374.62 -4.63374 -5.34244 0
M  V30 7594 H 1375.62 -3.44728 -6.25838 0
M  V30 7595 H 1373.78 -4.96652 -7.57263 0
M  V30 7596 H 1373.73 -4.80617 -3.3614 0
M  V30 7597 H 1374.41 0.742702 -0.199384 0
M  V30 7598 H 1374.45 2.20598 -3.35588 0
M  V30 7599 H 1374.55 2.43518 -1.58945 0
M  V30 7600 P 1375.65 -2.75334 -8.47391 0
M  V30 7601 O 1375.87 -2.44571 -9.90142 0
M  V30 7602 O 1376.44 -3.87688 -7.92115 0
M  V30 7603 O 1375.9 -1.4459 -7.59357 0
M  V30 7604 C 1374.96 -0.347608 -7.69215 0
M  V30 7605 C 1375.69 0.96767 -7.52806 0
M  V30 7606 O 1375.9 1.21036 -6.1011 0
M  V30 7607 C 1377.09 1.04544 -8.13308 0
M  V30 7608 O 1377.48 2.38311 -8.41922 0
M  V30 7609 C 1377.97 0.491279 -7.02284 0
M  V30 7610 C 1377.26 0.996264 -5.77469 0
M  V30 7611 N 1377.31 0.0501916 -4.62973 0
M  V30 7612 C 1377.23 -1.32786 -4.63244 0
M  V30 7613 N 1377.31 -1.86957 -3.44545 0
M  V30 7614 C 1377.45 -0.780241 -2.58481 0
M  V30 7615 C 1377.58 -0.738536 -1.17757 0
M  V30 7616 N 1377.7 0.58337 -0.711393 0
M  V30 7617 C 1377.7 1.70816 -1.51017 0
M  V30 7618 N 1377.83 2.87826 -0.880757 0
M  V30 7619 N 1377.57 1.67126 -2.8339 0
M  V30 7620 C 1377.45 0.401421 -3.30572 0
M  V30 7621 H 1374.47 -0.374722 -8.67691 0
M  V30 7622 H 1374.2 -0.443485 -6.90277 0
M  V30 7623 H 1375.07 1.75537 -7.96793 0
M  V30 7624 P 1379.03 2.75334 -8.47391 0
M  V30 7625 O 1379.25 3.84128 -9.44797 0
M  V30 7626 O 1379.82 1.51947 -8.68712 0
M  V30 7627 O 1379.28 3.29363 -6.99321 0
M  V30 7628 C 1378.34 4.24011 -6.4274 0
M  V30 7629 C 1379.07 5.20775 -5.52155 0
M  V30 7630 O 1379.28 4.56534 -4.22446 0
M  V30 7631 C 1380.47 5.62629 -5.96531 0
M  V30 7632 O 1380.86 6.87667 -5.41053 0
M  V30 7633 C 1381.35 4.52537 -5.39283 0
M  V30 7634 C 1380.64 4.20027 -4.08623 0
M  V30 7635 N 1380.69 2.76189 -3.71603 0
M  V30 7636 C 1380.61 1.64862 -4.52822 0
M  V30 7637 N 1380.69 0.512671 -3.88633 0
M  V30 7638 C 1380.83 0.888083 -2.54977 0
M  V30 7639 C 1380.96 0.094668 -1.38677 0
M  V30 7640 O 1380.98 -1.13053 -1.28163 0
M  V30 7641 N 1381.08 0.890102 -0.232633 0
M  V30 7642 C 1381.08 2.26958 -0.21772 0
M  V30 7643 N 1381.21 2.84626 0.97925 0
M  V30 7644 N 1380.95 3.0178 -1.31033 0
M  V30 7645 C 1380.83 2.26781 -2.43843 0
M  V30 7646 H 1377.85 4.797 -7.24003 0
M  V30 7647 H 1377.58 3.69856 -5.84513 0
M  V30 7648 H 1378.45 6.10356 -5.41441 0
M  V30 7649 H 1381.1 4.79061 -3.27488 0
M  V30 7650 H 1381.38 3.64906 -6.05785 0
M  V30 7651 H 1382.38 4.8868 -5.2125 0
M  V30 7652 H 1380.54 5.66726 -7.06352 0
M  V30 7653 H 1380.49 1.71169 -5.60966 0
M  V30 7654 H 1381.17 0.419134 0.644739 0
M  V30 7655 H 1381.21 3.87332 1.06098 0
M  V30 7656 H 1381.31 2.26417 1.82483 0
M  V30 7657 P 1382.41 7.20834 -5.23717 0
M  V30 7658 O 1382.63 8.66274 -5.38678 0
M  V30 7659 O 1383.2 6.33687 -6.13629 0
M  V30 7660 O 1382.66 6.7751 -3.72168 0
M  V30 7661 C 1381.72 7.20919 -2.70795 0
M  V30 7662 C 1382.45 7.45864 -1.40599 0
M  V30 7663 O 1382.66 6.17751 -0.734343 0
M  V30 7664 C 1383.85 8.05906 -1.51917 0
M  V30 7665 O 1384.24 8.74358 -0.335205 0
M  V30 7666 C 1384.73 6.83093 -1.70294 0
M  V30 7667 C 1384.02 5.79992 -0.836974 0
M  V30 7668 N 1384.07 4.41864 -1.38293 0
M  V30 7669 H 1381.23 8.13738 -3.03804 0
M  V30 7670 H 1380.96 6.42974 -2.55559 0
M  V30 7671 H 1381.83 8.12139 -0.792866 0
M  V30 7672 H 1384.48 5.80178 0.160643 0
M  V30 7673 H 1384.76 6.51379 -2.75643 0
M  V30 7674 H 1385.76 7.01832 -1.3448 0
M  V30 7675 H 1383.92 8.73771 -2.38364 0
M  V30 7676 P 1385.79 8.91 1.03566e-11 0
M  V30 7677 O 1386.01 10.1726 0.733694 0
M  V30 7678 O 1386.58 8.73148 -1.23936 0
M  V30 7679 O 1386.04 7.66872 0.971405 0
M  V30 7680 C 1385.1 7.42309 2.04641 0
M  V30 7681 C 1385.83 6.86059 3.24661 0
M  V30 7682 O 1386.04 5.42847 3.03646 0
M  V30 7683 C 1387.23 7.41196 3.50753 0
M  V30 7684 O 1387.62 7.27073 4.86816 0
M  V30 7685 C 1388.11 6.5273 2.63741 0
M  V30 7686 C 1387.4 5.1842 2.73198 0
M  V30 7687 N 1387.45 4.38762 1.4784 0
M  V30 7688 H 1384.61 8.36803 2.32493 0
M  V30 7689 H 1384.34 6.70197 1.71129 0
M  V30 7690 H 1385.21 7.03551 4.13168 0
M  V30 7691 P 1389.17 7.20834 5.23717 0
M  V30 7692 O 1389.39 7.79853 6.57286 0
M  V30 7693 O 1389.96 7.79239 4.12957 0
M  V30 7694 O 1389.42 5.63315 5.29344 0
M  V30 7695 C 1388.48 4.80255 6.01876 0
M  V30 7696 C 1389.21 3.64202 6.65911 0
M  V30 7697 O 1389.42 2.60694 5.64732 0
M  V30 7698 C 1390.61 3.93473 7.1943 0
M  V30 7699 O 1391 3.02071 8.21205 0
M  V30 7700 C 1391.49 3.73047 5.97036 0
M  V30 7701 C 1390.78 2.58828 5.25741 0
M  V30 7702 N 1390.83 2.68068 3.77503 0
M  V30 7703 C 1390.75 3.79715 2.96723 0
M  V30 7704 N 1390.83 3.5377 1.68852 0
M  V30 7705 C 1390.97 2.15054 1.63254 0
M  V30 7706 C 1391.1 1.28964 0.518571 0
M  V30 7707 O 1391.12 1.56826 -0.679156 0
M  V30 7708 N 1391.22 -0.0538097 0.918425 0
M  V30 7709 C 1391.22 -0.494275 2.22578 0
M  V30 7710 N 1391.35 -1.81086 2.40434 0
M  V30 7711 N 1391.09 0.313645 3.27502 0
M  V30 7712 C 1390.97 1.61829 2.91033 0
M  V30 7713 H 1387.99 5.40332 6.79951 0
M  V30 7714 H 1387.72 4.41613 5.32378 0
M  V30 7715 H 1388.59 3.26331 7.47797 0
M  V30 7716 H 1391.24 1.63422 5.56814 0
M  V30 7717 H 1391.52 4.63374 5.34244 0
M  V30 7718 H 1392.52 3.44728 6.25838 0
M  V30 7719 H 1390.68 4.96652 7.57263 0
M  V30 7720 H 1390.63 4.80617 3.3614 0
M  V30 7721 H 1391.31 -0.742702 0.199384 0
M  V30 7722 H 1391.35 -2.20598 3.35588 0
M  V30 7723 H 1391.45 -2.43518 1.58945 0
M  V30 7724 P 1392.55 2.75334 8.47391 0
M  V30 7725 O 1392.77 2.44595 9.90239 0
M  V30 7726 O 1393.34 3.87732 7.92204 0
M  V30 7727 O 1392.8 1.4459 7.59357 0
M  V30 7728 C 1391.86 0.347608 7.69215 0
M  V30 7729 C 1392.59 -0.96767 7.52806 0
M  V30 7730 O 1392.8 -1.21036 6.1011 0
M  V30 7731 C 1393.99 -1.04544 8.13308 0
M  V30 7732 O 1394.38 -2.38311 8.41922 0
M  V30 7733 C 1394.87 -0.491279 7.02284 0
M  V30 7734 C 1394.16 -0.996264 5.77469 0
M  V30 7735 N 1394.21 -0.0501808 4.62873 0
M  V30 7736 C 1394.36 -0.578037 3.3505 0
M  V30 7737 O 1394.45 -1.8073 3.21711 0
M  V30 7738 N 1394.41 0.468541 2.263 0
M  V30 7739 C 1394.31 1.59186 2.47176 0
M  V30 7740 N 1394.36 2.37626 1.40392 0
M  V30 7741 C 1394.16 2.16203 3.77467 0
M  V30 7742 C 1394.11 1.29324 4.8195 0
M  V30 7743 H 1391.37 0.374679 8.67591 0
M  V30 7744 H 1391.1 0.443421 6.90177 0
M  V30 7745 H 1391.97 -1.75559 7.96891 0
M  V30 7746 H 1394.62 -1.94529 5.46723 0
M  V30 7747 H 1394.9 0.608651 7.04676 0
M  V30 7748 H 1395.9 -0.889672 7.08939 0
M  V30 7749 H 1394.06 -0.43308 9.04564 0
M  V30 7750 H 1393.99 1.67758 5.83046 0
M  V30 7751 H 1394.09 3.23869 3.92281 0
M  V30 7752 H 1394.48 1.96317 0.467202 0
M  V30 7753 H 1394.28 3.39693 1.51142 0
M  V30 7754 P 1395.93 -2.75334 8.47391 0
M  V30 7755 O 1396.15 -3.84128 9.44797 0
M  V30 7756 O 1396.72 -1.51947 8.68712 0
M  V30 7757 O 1396.18 -3.29363 6.99321 0
M  V30 7758 C 1395.24 -4.24011 6.4274 0
M  V30 7759 C 1395.97 -5.20775 5.52155 0
M  V30 7760 O 1396.18 -4.56534 4.22446 0
M  V30 7761 C 1397.37 -5.62629 5.96531 0
M  V30 7762 O 1397.76 -6.87667 5.41053 0
M  V30 7763 C 1398.25 -4.52537 5.39283 0
M  V30 7764 C 1397.54 -4.20027 4.08623 0
M  V30 7765 N 1397.59 -2.76189 3.71603 0
M  V30 7766 H 1394.75 -4.797 7.24003 0
M  V30 7767 H 1394.48 -3.69856 5.84513 0
M  V30 7768 H 1395.35 -6.10356 5.41441 0
M  V30 7769 P 1399.31 -7.20834 5.23717 0
M  V30 7770 O 1399.53 -8.66189 5.38625 0
M  V30 7771 O 1400.1 -6.33615 6.1356 0
M  V30 7772 O 1399.56 -6.7751 3.72168 0
M  V30 7773 C 1398.62 -7.20732 2.70725 0
M  V30 7774 C 1399.35 -7.45864 1.40599 0
M  V30 7775 O 1399.56 -6.17651 0.734225 0
M  V30 7776 C 1400.75 -8.05808 1.51899 0
M  V30 7777 O 1401.14 -8.74358 0.335205 0
M  V30 7778 C 1401.63 -6.83093 1.70294 0
M  V30 7779 C 1400.92 -5.79992 0.836974 0
M  V30 7780 N 1400.97 -4.41769 1.38263 0
M  V30 7781 C 1401.12 -3.38591 0.481702 0
M  V30 7782 O 1401.21 -3.56839 -0.718452 0
M  V30 7783 N 1401.16 -2.1206 1.03569 0
M  V30 7784 C 1401.07 -1.80696 2.36966 0
M  V30 7785 C 1400.92 -2.94845 3.23898 0
M  V30 7786 C 1400.87 -4.19803 2.73435 0
M  V30 7787 H 1398.13 -8.13644 3.0377 0
M  V30 7788 H 1397.86 -6.42695 2.55448 0
M  V30 7789 H 1398.73 -8.12039 0.792769 0
M  V30 7790 H 1401.38 -5.79978 -0.160587 0
M  V30 7791 H 1401.66 -6.51379 2.75643 0
M  V30 7792 H 1402.66 -7.01734 1.34462 0
M  V30 7793 H 1400.82 -8.73674 2.38337 0
M  V30 7794 H 1400.75 -5.04492 3.4095 0
M  V30 7795 P 1402.69 -8.91 -9.24756e-12 0
M  V30 7796 O 1402.91 -10.1746 -0.733838 0
M  V30 7797 O 1403.48 -8.73346 1.23964 0
M  V30 7798 O 1402.94 -7.66872 -0.971405 0
M  V30 7799 C 1402 -7.42405 -2.04668 0
M  V30 7800 C 1402.73 -6.86059 -3.24661 0
M  V30 7801 O 1402.94 -5.42934 -3.03695 0
M  V30 7802 C 1404.13 -7.41287 -3.50796 0
M  V30 7803 O 1404.52 -7.27073 -4.86816 0
M  V30 7804 C 1405.01 -6.5273 -2.63741 0
M  V30 7805 C 1404.3 -5.1842 -2.73198 0
M  V30 7806 N 1404.35 -4.38762 -1.4784 0
M  V30 7807 H 1401.51 -8.36899 -2.3252 0
M  V30 7808 H 1401.24 -6.70391 -1.71179 0
M  V30 7809 H 1402.11 -7.03638 -4.13219 0
M  V30 7810 H 1404.76 -4.59931 -3.54016 0
M  V30 7811 H 1405.04 -6.88995 -1.59871 0
M  V30 7812 H 1406.04 -6.4684 -3.0373 0
M  V30 7813 H 1404.2 -8.47002 -3.20749 0
M  V30 7814 P 1406.07 -7.20834 -5.23717 0
M  V30 7815 O 1406.29 -7.79853 -6.57286 0
M  V30 7816 O 1406.86 -7.79239 -4.12957 0
M  V30 7817 O 1406.32 -5.63315 -5.29344 0
M  V30 7818 C 1405.38 -4.80255 -6.01876 0
M  V30 7819 C 1406.11 -3.64202 -6.65911 0
M  V30 7820 O 1406.32 -2.60694 -5.64732 0
M  V30 7821 C 1407.51 -3.93473 -7.1943 0
M  V30 7822 O 1407.9 -3.02071 -8.21205 0
M  V30 7823 C 1408.39 -3.73047 -5.97036 0
M  V30 7824 C 1407.68 -2.58828 -5.25741 0
M  V30 7825 N 1407.73 -2.68068 -3.77503 0
M  V30 7826 C 1407.65 -3.79715 -2.96723 0
M  V30 7827 N 1407.73 -3.5377 -1.68852 0
M  V30 7828 C 1407.87 -2.15054 -1.63254 0
M  V30 7829 C 1408 -1.28964 -0.518571 0
M  V30 7830 O 1408.02 -1.56826 0.679156 0
M  V30 7831 N 1408.12 0.0538097 -0.918425 0
M  V30 7832 C 1408.12 0.494275 -2.22578 0
M  V30 7833 N 1408.25 1.81086 -2.40434 0
M  V30 7834 N 1407.99 -0.313645 -3.27502 0
M  V30 7835 C 1407.87 -1.61829 -2.91033 0
M  V30 7836 H 1404.89 -5.40332 -6.79951 0
M  V30 7837 H 1404.62 -4.41613 -5.32378 0
M  V30 7838 H 1405.49 -3.26331 -7.47797 0
M  V30 7839 H 1408.14 -1.63422 -5.56814 0
M  V30 7840 H 1408.42 -4.63374 -5.34244 0
M  V30 7841 H 1409.42 -3.44728 -6.25838 0
M  V30 7842 H 1407.58 -4.96652 -7.57263 0
M  V30 7843 H 1407.53 -4.80617 -3.3614 0
M  V30 7844 H 1408.21 0.742702 -0.199384 0
M  V30 7845 H 1408.25 2.20598 -3.35588 0
M  V30 7846 H 1408.35 2.43518 -1.58945 0
M  V30 7847 P 1409.45 -2.75334 -8.47391 0
M  V30 7848 O 1409.67 -2.44595 -9.90239 0
M  V30 7849 O 1410.24 -3.87732 -7.92204 0
M  V30 7850 O 1409.7 -1.4459 -7.59357 0
M  V30 7851 C 1408.76 -0.347563 -7.69115 0
M  V30 7852 C 1409.49 0.96767 -7.52806 0
M  V30 7853 O 1409.7 1.21036 -6.1011 0
M  V30 7854 C 1410.89 1.04544 -8.13308 0
M  V30 7855 O 1411.28 2.38311 -8.41922 0
M  V30 7856 C 1411.77 0.491279 -7.02284 0
M  V30 7857 C 1411.06 0.996264 -5.77469 0
M  V30 7858 N 1411.11 0.0501808 -4.62873 0
M  V30 7859 C 1411.26 0.588177 -3.36904 0
M  V30 7860 O 1411.35 1.78598 -3.17173 0
M  V30 7861 N 1411.3 -0.329694 -2.33686 0
M  V30 7862 C 1411.21 -1.6953 -2.45079 0
M  V30 7863 O 1411.26 -2.41926 -1.44899 0
M  V30 7864 C 1411.06 -2.16933 -3.80505 0
M  V30 7865 C 1410.95 -3.65373 -3.97621 0
M  V30 7866 C 1411.01 -1.30326 -4.83752 0
M  V30 7867 H 1408.27 -0.374722 -8.67691 0
M  V30 7868 H 1408 -0.443421 -6.90177 0
M  V30 7869 H 1408.87 1.75537 -7.96793 0
M  V30 7870 H 1411.52 1.94496 -5.46629 0
M  V30 7871 H 1411.8 -0.608651 -7.04676 0
M  V30 7872 H 1412.8 0.889672 -7.08939 0
M  V30 7873 H 1410.96 0.43308 -9.04564 0
M  V30 7874 H 1410.89 -1.68366 -5.8516 0
M  V30 7875 H 1411.92 -4.05985 -4.30448 0
M  V30 7876 H 1410.18 -3.88028 -4.72875 0
M  V30 7877 H 1410.67 -4.11381 -3.01609 0
M  V30 7878 H 1411.41 0.0393617 -1.41345 0
M  V30 7879 P 1412.83 2.75334 -8.47391 0
M  V30 7880 O 1413.05 3.84128 -9.44797 0
M  V30 7881 O 1413.62 1.51947 -8.68712 0
M  V30 7882 O 1413.08 3.29363 -6.99321 0
M  V30 7883 C 1412.14 4.24011 -6.4274 0
M  V30 7884 C 1412.87 5.20775 -5.52155 0
M  V30 7885 O 1413.08 4.56534 -4.22446 0
M  V30 7886 C 1414.27 5.62629 -5.96531 0
M  V30 7887 O 1414.66 6.87667 -5.41053 0
M  V30 7888 C 1415.15 4.52537 -5.39283 0
M  V30 7889 C 1414.44 4.20027 -4.08623 0
M  V30 7890 N 1414.49 2.76189 -3.71603 0
M  V30 7891 H 1411.65 4.797 -7.24003 0
M  V30 7892 H 1411.38 3.69856 -5.84513 0
M  V30 7893 H 1412.25 6.10356 -5.41441 0
M  V30 7894 P 1416.21 7.20834 -5.23717 0
M  V30 7895 O 1416.43 8.66104 -5.38572 0
M  V30 7896 O 1417 6.33544 -6.1349 0
M  V30 7897 O 1416.46 6.7751 -3.72168 0
M  V30 7898 C 1415.52 7.20825 -2.7076 0
M  V30 7899 C 1416.25 7.45864 -1.40599 0
M  V30 7900 O 1416.46 6.17651 -0.734225 0
M  V30 7901 C 1417.65 8.05808 -1.51899 0
M  V30 7902 O 1418.04 8.74358 -0.335205 0
M  V30 7903 C 1418.53 6.83093 -1.70294 0
M  V30 7904 C 1417.82 5.79992 -0.836974 0
M  V30 7905 N 1417.87 4.41864 -1.38293 0
M  V30 7906 H 1415.03 8.13644 -3.0377 0
M  V30 7907 H 1414.76 6.42788 -2.55485 0
M  V30 7908 H 1415.63 8.12039 -0.792769 0
M  V30 7909 P 1419.59 8.91 8.13856e-12 0
M  V30 7910 O 1419.81 10.1726 0.733694 0
M  V30 7911 O 1420.38 8.73148 -1.23936 0
M  V30 7912 O 1419.84 7.66872 0.971405 0
M  V30 7913 C 1418.9 7.42309 2.04641 0
M  V30 7914 C 1419.63 6.86059 3.24661 0
M  V30 7915 O 1419.84 5.42847 3.03646 0
M  V30 7916 C 1421.03 7.41196 3.50753 0
M  V30 7917 O 1421.42 7.27073 4.86816 0
M  V30 7918 C 1421.91 6.5273 2.63741 0
M  V30 7919 C 1421.2 5.1842 2.73198 0
M  V30 7920 N 1421.25 4.38762 1.4784 0
M  V30 7921 H 1418.41 8.36803 2.32493 0
M  V30 7922 H 1418.14 6.70197 1.71129 0
M  V30 7923 H 1419.01 7.03551 4.13168 0
M  V30 7924 P 1422.97 7.20834 5.23717 0
M  V30 7925 O 1423.19 7.79853 6.57286 0
M  V30 7926 O 1423.76 7.79239 4.12957 0
M  V30 7927 O 1423.22 5.63315 5.29344 0
M  V30 7928 C 1422.28 4.80255 6.01876 0
M  V30 7929 C 1423.01 3.64202 6.65911 0
M  V30 7930 O 1423.22 2.60694 5.64732 0
M  V30 7931 C 1424.41 3.93473 7.1943 0
M  V30 7932 O 1424.8 3.02071 8.21205 0
M  V30 7933 C 1425.29 3.73047 5.97036 0
M  V30 7934 C 1424.58 2.58828 5.25741 0
M  V30 7935 N 1424.63 2.68068 3.77503 0
M  V30 7936 H 1421.79 5.40332 6.79951 0
M  V30 7937 H 1421.52 4.41613 5.32378 0
M  V30 7938 H 1422.39 3.26331 7.47797 0
M  V30 7939 P 1426.35 2.75334 8.47391 0
M  V30 7940 O 1426.57 2.44571 9.90142 0
M  V30 7941 O 1427.14 3.87688 7.92115 0
M  V30 7942 O 1426.6 1.4459 7.59357 0
M  V30 7943 C 1425.66 0.347608 7.69215 0
M  V30 7944 C 1426.39 -0.96767 7.52806 0
M  V30 7945 O 1426.6 -1.21036 6.1011 0
M  V30 7946 C 1427.79 -1.04544 8.13308 0
M  V30 7947 O 1428.18 -2.38311 8.41922 0
M  V30 7948 C 1428.67 -0.491279 7.02284 0
M  V30 7949 C 1427.96 -0.996264 5.77469 0
M  V30 7950 N 1428.01 -0.0501916 4.62973 0
M  V30 7951 H 1425.17 0.374722 8.67691 0
M  V30 7952 H 1424.9 0.443485 6.90277 0
M  V30 7953 H 1425.77 -1.75537 7.96793 0
M  V30 7954 P 1429.73 -2.75334 8.47391 0
M  V30 7955 O 1429.95 -3.84128 9.44797 0
M  V30 7956 O 1430.52 -1.51947 8.68712 0
M  V30 7957 O 1429.98 -3.29363 6.99321 0
M  V30 7958 C 1429.04 -4.24011 6.4274 0
M  V30 7959 C 1429.77 -5.20775 5.52155 0
M  V30 7960 O 1429.98 -4.56534 4.22446 0
M  V30 7961 C 1431.17 -5.62629 5.96531 0
M  V30 7962 O 1431.56 -6.87667 5.41053 0
M  V30 7963 C 1432.05 -4.52537 5.39283 0
M  V30 7964 C 1431.34 -4.20027 4.08623 0
M  V30 7965 N 1431.39 -2.76189 3.71603 0
M  V30 7966 C 1431.31 -1.64862 4.52822 0
M  V30 7967 N 1431.39 -0.512671 3.88633 0
M  V30 7968 C 1431.53 -0.888083 2.54977 0
M  V30 7969 C 1431.66 -0.094668 1.38677 0
M  V30 7970 O 1431.68 1.13053 1.28163 0
M  V30 7971 N 1431.78 -0.890102 0.232633 0
M  V30 7972 C 1431.78 -2.26958 0.21772 0
M  V30 7973 N 1431.91 -2.84626 -0.97925 0
M  V30 7974 N 1431.65 -3.0178 1.31033 0
M  V30 7975 C 1431.53 -2.26781 2.43843 0
M  V30 7976 H 1428.55 -4.797 7.24003 0
M  V30 7977 H 1428.28 -3.69856 5.84513 0
M  V30 7978 H 1429.15 -6.10356 5.41441 0
M  V30 7979 H 1431.8 -4.79061 3.27488 0
M  V30 7980 H 1432.08 -3.64906 6.05785 0
M  V30 7981 H 1433.08 -4.8868 5.2125 0
M  V30 7982 H 1431.24 -5.66726 7.06352 0
M  V30 7983 H 1431.19 -1.71169 5.60966 0
M  V30 7984 H 1431.87 -0.419134 -0.644739 0
M  V30 7985 H 1431.91 -3.87332 -1.06098 0
M  V30 7986 H 1432.01 -2.26417 -1.82483 0
M  V30 7987 P 1433.11 -7.20834 5.23717 0
M  V30 7988 O 1433.33 -8.66104 5.38572 0
M  V30 7989 O 1433.9 -6.33544 6.1349 0
M  V30 7990 O 1433.36 -6.7751 3.72168 0
M  V30 7991 C 1432.42 -7.20825 2.7076 0
M  V30 7992 C 1433.15 -7.45864 1.40599 0
M  V30 7993 O 1433.36 -6.17651 0.734225 0
M  V30 7994 C 1434.55 -8.05808 1.51899 0
M  V30 7995 O 1434.94 -8.74358 0.335205 0
M  V30 7996 C 1435.43 -6.83093 1.70294 0
M  V30 7997 C 1434.72 -5.79992 0.836974 0
M  V30 7998 N 1434.77 -4.41864 1.38293 0
M  V30 7999 H 1431.93 -8.13644 3.0377 0
M  V30 8000 H 1431.66 -6.42788 2.55485 0
M  V30 8001 H 1432.53 -8.12039 0.792769 0
M  V30 8002 P 1436.49 -8.91 -7.02955e-12 0
M  V30 8003 O 1436.71 -10.1726 -0.733694 0
M  V30 8004 O 1437.28 -8.73148 1.23936 0
M  V30 8005 O 1436.74 -7.66872 -0.971405 0
M  V30 8006 C 1435.8 -7.42309 -2.04641 0
M  V30 8007 C 1436.53 -6.86059 -3.24661 0
M  V30 8008 O 1436.74 -5.42847 -3.03646 0
M  V30 8009 C 1437.93 -7.41196 -3.50753 0
M  V30 8010 O 1438.32 -7.27073 -4.86816 0
M  V30 8011 C 1438.81 -6.5273 -2.63741 0
M  V30 8012 C 1438.1 -5.1842 -2.73198 0
M  V30 8013 N 1438.15 -4.38762 -1.4784 0
M  V30 8014 H 1435.31 -8.36803 -2.32493 0
M  V30 8015 H 1435.04 -6.70197 -1.71129 0
M  V30 8016 H 1435.91 -7.03551 -4.13168 0
M  V30 8017 P 1439.87 -7.20834 -5.23717 0
M  V30 8018 O 1440.09 -7.79853 -6.57286 0
M  V30 8019 O 1440.66 -7.79239 -4.12957 0
M  V30 8020 O 1440.12 -5.63315 -5.29344 0
M  V30 8021 C 1439.18 -4.80255 -6.01876 0
M  V30 8022 C 1439.91 -3.64202 -6.65911 0
M  V30 8023 O 1440.12 -2.60694 -5.64732 0
M  V30 8024 C 1441.31 -3.93473 -7.1943 0
M  V30 8025 O 1441.7 -3.02071 -8.21205 0
M  V30 8026 C 1442.19 -3.73047 -5.97036 0
M  V30 8027 C 1441.48 -2.58828 -5.25741 0
M  V30 8028 N 1441.53 -2.68068 -3.77503 0
M  V30 8029 H 1438.69 -5.40332 -6.79951 0
M  V30 8030 H 1438.42 -4.41613 -5.32378 0
M  V30 8031 H 1439.29 -3.26331 -7.47797 0
M  V30 8032 P 1443.25 -2.75334 -8.47391 0
M  V30 8033 O 1443.47 -2.44619 -9.90336 0
M  V30 8034 O 1444.04 -3.87776 -7.92294 0
M  V30 8035 O 1443.5 -1.4459 -7.59357 0
M  V30 8036 C 1442.56 -0.347653 -7.69315 0
M  V30 8037 C 1443.29 0.96767 -7.52806 0
M  V30 8038 O 1443.5 1.21055 -6.10208 0
M  V30 8039 C 1444.69 1.04557 -8.13408 0
M  V30 8040 O 1445.08 2.38311 -8.41922 0
M  V30 8041 C 1445.57 0.491279 -7.02284 0
M  V30 8042 C 1444.86 0.996264 -5.77469 0
M  V30 8043 N 1444.91 0.0501916 -4.62973 0
M  V30 8044 H 1442.07 -0.374765 -8.67791 0
M  V30 8045 H 1441.8 -0.443613 -6.90476 0
M  V30 8046 H 1442.67 1.75559 -7.96891 0
M  V30 8047 H 1445.32 1.94563 -5.46818 0
M  V30 8048 H 1445.6 -0.608651 -7.04676 0
M  V30 8049 H 1446.6 0.889796 -7.09039 0
M  V30 8050 H 1444.76 0.433128 -9.04664 0
M  V30 8051 P 1446.63 2.75334 -8.47391 0
M  V30 8052 O 1446.85 3.84166 -9.4489 0
M  V30 8053 O 1447.42 1.51964 -8.6881 0
M  V30 8054 O 1446.88 3.29363 -6.99321 0
M  V30 8055 C 1445.94 4.24011 -6.4274 0
M  V30 8056 C 1446.67 5.20775 -5.52155 0
M  V30 8057 O 1446.88 4.56534 -4.22446 0
M  V30 8058 C 1448.07 5.62629 -5.96531 0
M  V30 8059 O 1448.46 6.87667 -5.41053 0
M  V30 8060 C 1448.95 4.52537 -5.39283 0
M  V30 8061 C 1448.24 4.20027 -4.08623 0
M  V30 8062 N 1448.29 2.7613 -3.71522 0
M  V30 8063 C 1448.44 2.43702 -2.37085 0
M  V30 8064 O 1448.53 3.3531 -1.54039 0
M  V30 8065 N 1448.49 0.951103 -2.10621 0
M  V30 8066 C 1448.39 0.165021 -2.93537 0
M  V30 8067 N 1448.44 -1.09723 -2.53253 0
M  V30 8068 C 1448.24 0.469576 -4.32458 0
M  V30 8069 C 1448.19 1.78658 -4.65921 0
M  V30 8070 H 1445.45 4.79645 -7.23919 0
M  V30 8071 H 1445.18 3.69802 -5.84429 0
M  V30 8072 H 1446.05 6.10431 -5.41508 0
M  V30 8073 H 1448.7 4.78733 -3.27967 0
M  V30 8074 H 1448.98 3.64957 -6.05871 0
M  V30 8075 H 1449.98 4.8868 -5.2125 0
M  V30 8076 H 1448.14 5.66726 -7.06352 0
M  V30 8077 H 1448.07 2.06987 -5.70299 0
M  V30 8078 H 1448.17 -0.314383 -5.07728 0
M  V30 8079 H 1448.56 -1.31363 -1.5319 0
M  V30 8080 H 1448.36 -1.85978 -3.21943 0
M  V30 8081 P 1450.01 7.20834 -5.23717 0
M  V30 8082 O 1450.23 8.66274 -5.38678 0
M  V30 8083 O 1450.8 6.33687 -6.13629 0
M  V30 8084 O 1450.26 6.7751 -3.72168 0
M  V30 8085 C 1449.32 7.20919 -2.70795 0
M  V30 8086 C 1450.05 7.45864 -1.40599 0
M  V30 8087 O 1450.26 6.17751 -0.734343 0
M  V30 8088 C 1451.45 8.05906 -1.51917 0
M  V30 8089 O 1451.84 8.74358 -0.335205 0
M  V30 8090 C 1452.33 6.83093 -1.70294 0
M  V30 8091 C 1451.62 5.79992 -0.836974 0
M  V30 8092 N 1451.67 4.41864 -1.38293 0
M  V30 8093 C 1451.59 4.02089 -2.69407 0
M  V30 8094 N 1451.66 2.73403 -2.85089 0
M  V30 8095 C 1451.81 2.25086 -1.5642 0
M  V30 8096 C 1451.94 0.942887 -1.04836 0
M  V30 8097 N 1451.95 -0.150999 -1.80369 0
M  V30 8098 N 1452.06 0.812565 0.28167 0
M  V30 8099 C 1452.05 1.90572 1.03784 0
M  V30 8100 N 1451.93 3.167 0.683905 0
M  V30 8101 C 1451.81 3.26538 -0.652815 0
M  V30 8102 H 1448.83 8.13738 -3.03804 0
M  V30 8103 H 1448.56 6.42974 -2.55559 0
M  V30 8104 H 1449.43 8.12139 -0.792866 0
M  V30 8105 H 1452.08 5.80178 0.160643 0
M  V30 8106 H 1452.36 6.51379 -2.75643 0
M  V30 8107 H 1453.36 7.01832 -1.3448 0
M  V30 8108 H 1451.52 8.73771 -2.38364 0
M  V30 8109 H 1451.48 4.7189 -3.52311 0
M  V30 8110 H 1451.86 -0.0721434 -2.82608 0
M  V30 8111 H 1452.05 -1.0785 -1.36544 0
M  V30 8112 H 1452.16 1.73207 2.10241 0
M  V30 8113 P 1453.39 8.91 5.92055e-12 0
M  V30 8114 O 1453.61 10.1726 0.733694 0
M  V30 8115 O 1454.18 8.73148 -1.23936 0
M  V30 8116 O 1453.64 7.66872 0.971405 0
M  V30 8117 C 1452.7 7.42309 2.04641 0
M  V30 8118 C 1453.43 6.86059 3.24661 0
M  V30 8119 O 1453.64 5.42847 3.03646 0
M  V30 8120 C 1454.83 7.41196 3.50753 0
M  V30 8121 O 1455.22 7.27073 4.86816 0
M  V30 8122 C 1455.71 6.5273 2.63741 0
M  V30 8123 C 1455 5.1842 2.73198 0
M  V30 8124 N 1455.05 4.38762 1.4784 0
M  V30 8125 H 1452.21 8.36803 2.32493 0
M  V30 8126 H 1451.94 6.70197 1.71129 0
M  V30 8127 H 1452.81 7.03551 4.13168 0
M  V30 8128 P 1456.77 7.20834 5.23717 0
M  V30 8129 O 1456.99 7.79853 6.57286 0
M  V30 8130 O 1457.56 7.79239 4.12957 0
M  V30 8131 O 1457.02 5.63315 5.29344 0
M  V30 8132 C 1456.08 4.80255 6.01876 0
M  V30 8133 C 1456.81 3.64202 6.65911 0
M  V30 8134 O 1457.02 2.60694 5.64732 0
M  V30 8135 C 1458.21 3.93473 7.1943 0
M  V30 8136 O 1458.6 3.02071 8.21205 0
M  V30 8137 C 1459.09 3.73047 5.97036 0
M  V30 8138 C 1458.38 2.58828 5.25741 0
M  V30 8139 N 1458.43 2.68068 3.77503 0
M  V30 8140 H 1455.59 5.40332 6.79951 0
M  V30 8141 H 1455.32 4.41613 5.32378 0
M  V30 8142 H 1456.19 3.26331 7.47797 0
M  V30 8143 P 1460.15 2.75334 8.47391 0
M  V30 8144 O 1460.37 2.44571 9.90142 0
M  V30 8145 O 1460.94 3.87688 7.92115 0
M  V30 8146 O 1460.4 1.4459 7.59357 0
M  V30 8147 C 1459.46 0.347608 7.69215 0
M  V30 8148 C 1460.19 -0.96767 7.52806 0
M  V30 8149 O 1460.4 -1.21036 6.1011 0
M  V30 8150 C 1461.59 -1.04544 8.13308 0
M  V30 8151 O 1461.98 -2.38311 8.41922 0
M  V30 8152 C 1462.47 -0.491279 7.02284 0
M  V30 8153 C 1461.76 -0.996264 5.77469 0
M  V30 8154 N 1461.81 -0.0501916 4.62973 0
M  V30 8155 H 1458.97 0.374722 8.67691 0
M  V30 8156 H 1458.7 0.443485 6.90277 0
M  V30 8157 H 1459.57 -1.75537 7.96793 0
M  V30 8158 P 1463.53 -2.75334 8.47391 0
M  V30 8159 O 1463.75 -3.84128 9.44797 0
M  V30 8160 O 1464.32 -1.51947 8.68712 0
M  V30 8161 O 1463.78 -3.29363 6.99321 0
M  V30 8162 C 1462.84 -4.24011 6.4274 0
M  V30 8163 C 1463.57 -5.20775 5.52155 0
M  V30 8164 O 1463.78 -4.56534 4.22446 0
M  V30 8165 C 1464.97 -5.62629 5.96531 0
M  V30 8166 O 1465.36 -6.87667 5.41053 0
M  V30 8167 C 1465.85 -4.52537 5.39283 0
M  V30 8168 C 1465.14 -4.20027 4.08623 0
M  V30 8169 N 1465.19 -2.76189 3.71603 0
M  V30 8170 H 1462.35 -4.797 7.24003 0
M  V30 8171 H 1462.08 -3.69856 5.84513 0
M  V30 8172 H 1462.95 -6.10356 5.41441 0
M  V30 8173 P 1466.91 -7.20834 5.23717 0
M  V30 8174 O 1467.13 -8.66104 5.38572 0
M  V30 8175 O 1467.7 -6.33544 6.1349 0
M  V30 8176 O 1467.16 -6.7751 3.72168 0
M  V30 8177 C 1466.22 -7.20825 2.7076 0
M  V30 8178 C 1466.95 -7.45864 1.40599 0
M  V30 8179 O 1467.16 -6.17651 0.734225 0
M  V30 8180 C 1468.35 -8.05808 1.51899 0
M  V30 8181 O 1468.74 -8.74358 0.335205 0
M  V30 8182 C 1469.23 -6.83093 1.70294 0
M  V30 8183 C 1468.52 -5.79992 0.836974 0
M  V30 8184 N 1468.57 -4.41864 1.38293 0
M  V30 8185 H 1465.73 -8.13644 3.0377 0
M  V30 8186 H 1465.46 -6.42788 2.55485 0
M  V30 8187 H 1466.33 -8.12039 0.792769 0
M  V30 8188 P 1470.29 -8.91 -4.81154e-12 0
M  V30 8189 O 1470.51 -10.1726 -0.733694 0
M  V30 8190 O 1471.08 -8.73148 1.23936 0
M  V30 8191 O 1470.54 -7.66872 -0.971405 0
M  V30 8192 C 1469.6 -7.42309 -2.04641 0
M  V30 8193 C 1470.33 -6.86059 -3.24661 0
M  V30 8194 O 1470.54 -5.42847 -3.03646 0
M  V30 8195 C 1471.73 -7.41196 -3.50753 0
M  V30 8196 O 1472.12 -7.27073 -4.86816 0
M  V30 8197 C 1472.61 -6.5273 -2.63741 0
M  V30 8198 C 1471.9 -5.1842 -2.73198 0
M  V30 8199 N 1471.95 -4.38762 -1.4784 0
M  V30 8200 C 1471.87 -4.81605 -0.168631 0
M  V30 8201 N 1471.95 -3.85454 0.713363 0
M  V30 8202 C 1472.09 -2.6994 -0.0566958 0
M  V30 8203 C 1472.22 -1.34815 0.338502 0
M  V30 8204 N 1472.34 -0.496304 -0.77465 0
M  V30 8205 C 1472.34 -0.908403 -2.09122 0
M  V30 8206 N 1472.47 0.0517805 -3.00955 0
M  V30 8207 N 1472.21 -2.17875 -2.46519 0
M  V30 8208 C 1472.09 -3.01988 -1.4033 0
M  V30 8209 H 1469.11 -8.36803 -2.32493 0
M  V30 8210 H 1468.84 -6.70197 -1.71129 0
M  V30 8211 H 1469.71 -7.03551 -4.13168 0
M  V30 8212 P 1473.67 -7.20834 -5.23717 0
M  V30 8213 O 1473.89 -7.79853 -6.57286 0
M  V30 8214 O 1474.46 -7.79239 -4.12957 0
M  V30 8215 O 1473.92 -5.63315 -5.29344 0
M  V30 8216 C 1472.98 -4.80255 -6.01876 0
M  V30 8217 C 1473.71 -3.64202 -6.65911 0
M  V30 8218 O 1473.92 -2.60694 -5.64732 0
M  V30 8219 C 1475.11 -3.93473 -7.1943 0
M  V30 8220 O 1475.5 -3.02071 -8.21205 0
M  V30 8221 C 1475.99 -3.73047 -5.97036 0
M  V30 8222 C 1475.28 -2.58828 -5.25741 0
M  V30 8223 N 1475.33 -2.68068 -3.77503 0
M  V30 8224 H 1472.49 -5.40332 -6.79951 0
M  V30 8225 H 1472.22 -4.41613 -5.32378 0
M  V30 8226 H 1473.09 -3.26331 -7.47797 0
M  V30 8227 P 1477.05 -2.75334 -8.47391 0
M  V30 8228 O 1477.27 -2.44595 -9.90239 0
M  V30 8229 O 1477.84 -3.87732 -7.92204 0
M  V30 8230 O 1477.3 -1.4459 -7.59357 0
M  V30 8231 C 1476.36 -0.347563 -7.69115 0
M  V30 8232 C 1477.09 0.96767 -7.52806 0
M  V30 8233 O 1477.3 1.21036 -6.1011 0
M  V30 8234 C 1478.49 1.04544 -8.13308 0
M  V30 8235 O 1478.88 2.38311 -8.41922 0
M  V30 8236 C 1479.37 0.491279 -7.02284 0
M  V30 8237 C 1478.66 0.996264 -5.77469 0
M  V30 8238 N 1478.71 0.0501808 -4.62873 0
M  V30 8239 C 1478.86 0.588177 -3.36904 0
M  V30 8240 O 1478.95 1.78598 -3.17173 0
M  V30 8241 N 1478.9 -0.329694 -2.33686 0
M  V30 8242 C 1478.81 -1.6953 -2.45079 0
M  V30 8243 O 1478.86 -2.41926 -1.44899 0
M  V30 8244 C 1478.66 -2.16933 -3.80505 0
M  V30 8245 C 1478.55 -3.65373 -3.97621 0
M  V30 8246 C 1478.61 -1.30326 -4.83752 0
M  V30 8247 H 1475.87 -0.374722 -8.67691 0
M  V30 8248 H 1475.6 -0.443421 -6.90177 0
M  V30 8249 H 1476.47 1.75537 -7.96793 0
M  V30 8250 H 1479.12 1.94496 -5.46629 0
M  V30 8251 H 1479.4 -0.608651 -7.04676 0
M  V30 8252 H 1480.4 0.889672 -7.08939 0
M  V30 8253 H 1478.56 0.43308 -9.04564 0
M  V30 8254 H 1478.49 -1.68366 -5.8516 0
M  V30 8255 H 1479.52 -4.05985 -4.30448 0
M  V30 8256 H 1477.78 -3.88028 -4.72875 0
M  V30 8257 H 1478.27 -4.11381 -3.01609 0
M  V30 8258 H 1479.01 0.0393617 -1.41345 0
M  V30 8259 P 1480.43 2.75334 -8.47391 0
M  V30 8260 O 1480.65 3.84128 -9.44797 0
M  V30 8261 O 1481.22 1.51947 -8.68712 0
M  V30 8262 O 1480.68 3.29363 -6.99321 0
M  V30 8263 C 1479.74 4.24011 -6.4274 0
M  V30 8264 C 1480.47 5.20775 -5.52155 0
M  V30 8265 O 1480.68 4.56534 -4.22446 0
M  V30 8266 C 1481.87 5.62629 -5.96531 0
M  V30 8267 O 1482.26 6.87667 -5.41053 0
M  V30 8268 C 1482.75 4.52537 -5.39283 0
M  V30 8269 C 1482.04 4.20027 -4.08623 0
M  V30 8270 N 1482.09 2.76189 -3.71603 0
M  V30 8271 H 1479.25 4.797 -7.24003 0
M  V30 8272 H 1478.98 3.69856 -5.84513 0
M  V30 8273 H 1479.85 6.10356 -5.41441 0
M  V30 8274 P 1483.81 7.20834 -5.23717 0
M  V30 8275 O 1484.03 8.66104 -5.38572 0
M  V30 8276 O 1484.6 6.33544 -6.1349 0
M  V30 8277 O 1484.06 6.7751 -3.72168 0
M  V30 8278 C 1483.12 7.20825 -2.7076 0
M  V30 8279 C 1483.85 7.45864 -1.40599 0
M  V30 8280 O 1484.06 6.17651 -0.734225 0
M  V30 8281 C 1485.25 8.05808 -1.51899 0
M  V30 8282 O 1485.64 8.74358 -0.335205 0
M  V30 8283 C 1486.13 6.83093 -1.70294 0
M  V30 8284 C 1485.42 5.79992 -0.836974 0
M  V30 8285 N 1485.47 4.41864 -1.38293 0
M  V30 8286 H 1482.63 8.13644 -3.0377 0
M  V30 8287 H 1482.36 6.42788 -2.55485 0
M  V30 8288 H 1483.23 8.12039 -0.792769 0
M  V30 8289 P 1487.19 8.91 3.70254e-12 0
M  V30 8290 O 1487.41 10.1726 0.733694 0
M  V30 8291 O 1487.98 8.73148 -1.23936 0
M  V30 8292 O 1487.44 7.66872 0.971405 0
M  V30 8293 C 1486.5 7.42309 2.04641 0
M  V30 8294 C 1487.23 6.86059 3.24661 0
M  V30 8295 O 1487.44 5.42847 3.03646 0
M  V30 8296 C 1488.63 7.41196 3.50753 0
M  V30 8297 O 1489.02 7.27073 4.86816 0
M  V30 8298 C 1489.51 6.5273 2.63741 0
M  V30 8299 C 1488.8 5.1842 2.73198 0
M  V30 8300 N 1488.85 4.38762 1.4784 0
M  V30 8301 C 1488.77 4.81605 0.168631 0
M  V30 8302 N 1488.85 3.85454 -0.713363 0
M  V30 8303 C 1488.99 2.6994 0.0566958 0
M  V30 8304 C 1489.12 1.34815 -0.338502 0
M  V30 8305 O 1489.14 0.869548 -1.47125 0
M  V30 8306 N 1489.24 0.496304 0.77465 0
M  V30 8307 C 1489.24 0.908403 2.09122 0
M  V30 8308 N 1489.37 -0.0517805 3.00955 0
M  V30 8309 N 1489.11 2.17875 2.46519 0
M  V30 8310 C 1488.99 3.01988 1.4033 0
M  V30 8311 H 1486.01 8.36803 2.32493 0
M  V30 8312 H 1485.74 6.70197 1.71129 0
M  V30 8313 H 1486.61 7.03551 4.13168 0
M  V30 8314 H 1489.26 4.59498 3.54415 0
M  V30 8315 H 1489.54 6.88898 1.59848 0
M  V30 8316 H 1490.54 6.46749 3.03687 0
M  V30 8317 H 1488.7 8.46908 3.20714 0
M  V30 8318 H 1488.65 5.86405 -0.105564 0
M  V30 8319 H 1489.33 -0.483664 0.597855 0
M  V30 8320 H 1489.37 0.187865 4.0116 0
M  V30 8321 H 1489.47 -1.03585 2.71726 0
M  V30 8322 P 1490.57 7.20834 5.23717 0
M  V30 8323 O 1490.79 7.79853 6.57286 0
M  V30 8324 O 1491.36 7.79239 4.12957 0
M  V30 8325 O 1490.82 5.63315 5.29344 0
M  V30 8326 C 1489.88 4.80255 6.01876 0
M  V30 8327 C 1490.61 3.64202 6.65911 0
M  V30 8328 O 1490.82 2.60694 5.64732 0
M  V30 8329 C 1492.01 3.93473 7.1943 0
M  V30 8330 O 1492.4 3.02071 8.21205 0
M  V30 8331 C 1492.89 3.73047 5.97036 0
M  V30 8332 C 1492.18 2.58828 5.25741 0
M  V30 8333 N 1492.23 2.68068 3.77503 0
M  V30 8334 H 1489.39 5.40332 6.79951 0
M  V30 8335 H 1489.12 4.41613 5.32378 0
M  V30 8336 H 1489.99 3.26331 7.47797 0
M  V30 8337 P 1493.95 2.75334 8.47391 0
M  V30 8338 O 1494.17 2.44571 9.90142 0
M  V30 8339 O 1494.74 3.87688 7.92115 0
M  V30 8340 O 1494.2 1.4459 7.59357 0
M  V30 8341 C 1493.26 0.347608 7.69215 0
M  V30 8342 C 1493.99 -0.96767 7.52806 0
M  V30 8343 O 1494.2 -1.21036 6.1011 0
M  V30 8344 C 1495.39 -1.04544 8.13308 0
M  V30 8345 O 1495.78 -2.38311 8.41922 0
M  V30 8346 C 1496.27 -0.491279 7.02284 0
M  V30 8347 C 1495.56 -0.996264 5.77469 0
M  V30 8348 N 1495.61 -0.0501916 4.62973 0
M  V30 8349 H 1492.77 0.374722 8.67691 0
M  V30 8350 H 1492.5 0.443485 6.90277 0
M  V30 8351 H 1493.37 -1.75537 7.96793 0
M  V30 8352 P 1497.33 -2.75334 8.47391 0
M  V30 8353 O 1497.55 -3.84128 9.44797 0
M  V30 8354 O 1498.12 -1.51947 8.68712 0
M  V30 8355 O 1497.58 -3.29363 6.99321 0
M  V30 8356 C 1496.64 -4.24011 6.4274 0
M  V30 8357 C 1497.37 -5.20775 5.52155 0
M  V30 8358 O 1497.58 -4.56534 4.22446 0
M  V30 8359 C 1498.77 -5.62629 5.96531 0
M  V30 8360 O 1499.16 -6.87667 5.41053 0
M  V30 8361 C 1499.65 -4.52537 5.39283 0
M  V30 8362 C 1498.94 -4.20027 4.08623 0
M  V30 8363 N 1498.99 -2.76189 3.71603 0
M  V30 8364 H 1496.15 -4.797 7.24003 0
M  V30 8365 H 1495.88 -3.69856 5.84513 0
M  V30 8366 H 1496.75 -6.10356 5.41441 0
M  V30 8367 P 1500.71 -7.20834 5.23717 0
M  V30 8368 O 1500.93 -8.66104 5.38572 0
M  V30 8369 O 1501.5 -6.33544 6.1349 0
M  V30 8370 O 1500.96 -6.7751 3.72168 0
M  V30 8371 C 1500.02 -7.20825 2.7076 0
M  V30 8372 C 1500.75 -7.45864 1.40599 0
M  V30 8373 O 1500.96 -6.17651 0.734225 0
M  V30 8374 C 1502.15 -8.05808 1.51899 0
M  V30 8375 O 1502.54 -8.74358 0.335205 0
M  V30 8376 C 1503.03 -6.83093 1.70294 0
M  V30 8377 C 1502.32 -5.79992 0.836974 0
M  V30 8378 N 1502.37 -4.41864 1.38293 0
M  V30 8379 H 1499.53 -8.13644 3.0377 0
M  V30 8380 H 1499.26 -6.42788 2.55485 0
M  V30 8381 H 1500.13 -8.12039 0.792769 0
M  V30 8382 P 1504.09 -8.91 -2.59353e-12 0
M  V30 8383 O 1504.31 -10.1726 -0.733694 0
M  V30 8384 O 1504.88 -8.73148 1.23936 0
M  V30 8385 O 1504.34 -7.66872 -0.971405 0
M  V30 8386 C 1503.4 -7.42309 -2.04641 0
M  V30 8387 C 1504.13 -6.86059 -3.24661 0
M  V30 8388 O 1504.34 -5.42847 -3.03646 0
M  V30 8389 C 1505.53 -7.41196 -3.50753 0
M  V30 8390 O 1505.92 -7.27073 -4.86816 0
M  V30 8391 C 1506.41 -6.5273 -2.63741 0
M  V30 8392 C 1505.7 -5.1842 -2.73198 0
M  V30 8393 N 1505.75 -4.38762 -1.4784 0
M  V30 8394 H 1502.91 -8.36803 -2.32493 0
M  V30 8395 H 1502.64 -6.70197 -1.71129 0
M  V30 8396 H 1503.51 -7.03551 -4.13168 0
M  V30 8397 P 1507.47 -7.20834 -5.23717 0
M  V30 8398 O 1507.69 -7.79853 -6.57286 0
M  V30 8399 O 1508.26 -7.79239 -4.12957 0
M  V30 8400 O 1507.72 -5.63315 -5.29344 0
M  V30 8401 C 1506.78 -4.80255 -6.01876 0
M  V30 8402 C 1507.51 -3.64202 -6.65911 0
M  V30 8403 O 1507.72 -2.60694 -5.64732 0
M  V30 8404 C 1508.91 -3.93473 -7.1943 0
M  V30 8405 O 1509.3 -3.02071 -8.21205 0
M  V30 8406 C 1509.79 -3.73047 -5.97036 0
M  V30 8407 C 1509.08 -2.58828 -5.25741 0
M  V30 8408 N 1509.13 -2.68068 -3.77503 0
M  V30 8409 H 1506.29 -5.40332 -6.79951 0
M  V30 8410 H 1506.02 -4.41613 -5.32378 0
M  V30 8411 H 1506.89 -3.26331 -7.47797 0
M  V30 8412 P 1510.85 -2.75334 -8.47391 0
M  V30 8413 O 1511.07 -2.44595 -9.90239 0
M  V30 8414 O 1511.64 -3.87732 -7.92204 0
M  V30 8415 O 1511.1 -1.4459 -7.59357 0
M  V30 8416 C 1510.16 -0.347563 -7.69115 0
M  V30 8417 C 1510.89 0.96767 -7.52806 0
M  V30 8418 O 1511.1 1.21036 -6.1011 0
M  V30 8419 C 1512.29 1.04544 -8.13308 0
M  V30 8420 O 1512.68 2.38311 -8.41922 0
M  V30 8421 C 1513.17 0.491279 -7.02284 0
M  V30 8422 C 1512.46 0.996264 -5.77469 0
M  V30 8423 N 1512.51 0.0501808 -4.62873 0
M  V30 8424 C 1512.66 0.588177 -3.36904 0
M  V30 8425 O 1512.75 1.78598 -3.17173 0
M  V30 8426 N 1512.7 -0.329694 -2.33686 0
M  V30 8427 C 1512.61 -1.6953 -2.45079 0
M  V30 8428 O 1512.66 -2.41926 -1.44899 0
M  V30 8429 C 1512.46 -2.16933 -3.80505 0
M  V30 8430 C 1512.35 -3.65373 -3.97621 0
M  V30 8431 C 1512.41 -1.30326 -4.83752 0
M  V30 8432 H 1509.67 -0.374722 -8.67691 0
M  V30 8433 H 1509.4 -0.443421 -6.90177 0
M  V30 8434 H 1510.27 1.75537 -7.96793 0
M  V30 8435 H 1512.92 1.94496 -5.46629 0
M  V30 8436 H 1513.2 -0.608651 -7.04676 0
M  V30 8437 H 1514.2 0.889672 -7.08939 0
M  V30 8438 H 1512.36 0.43308 -9.04564 0
M  V30 8439 H 1512.29 -1.68366 -5.8516 0
M  V30 8440 H 1513.32 -4.05985 -4.30448 0
M  V30 8441 H 1511.58 -3.88028 -4.72875 0
M  V30 8442 H 1512.07 -4.11381 -3.01609 0
M  V30 8443 H 1512.81 0.0393617 -1.41345 0
M  V30 8444 P 1514.23 2.75334 -8.47391 0
M  V30 8445 O 1514.45 3.84128 -9.44797 0
M  V30 8446 O 1515.02 1.51947 -8.68712 0
M  V30 8447 O 1514.48 3.29363 -6.99321 0
M  V30 8448 C 1513.54 4.24011 -6.4274 0
M  V30 8449 C 1514.27 5.20775 -5.52155 0
M  V30 8450 O 1514.48 4.56534 -4.22446 0
M  V30 8451 C 1515.67 5.62629 -5.96531 0
M  V30 8452 O 1516.06 6.87667 -5.41053 0
M  V30 8453 C 1516.55 4.52537 -5.39283 0
M  V30 8454 C 1515.84 4.20027 -4.08623 0
M  V30 8455 N 1515.89 2.76189 -3.71603 0
M  V30 8456 H 1513.05 4.797 -7.24003 0
M  V30 8457 H 1512.78 3.69856 -5.84513 0
M  V30 8458 H 1513.65 6.10356 -5.41441 0
M  V30 8459 P 1517.61 7.20834 -5.23717 0
M  V30 8460 O 1517.83 8.66104 -5.38572 0
M  V30 8461 O 1518.4 6.33544 -6.1349 0
M  V30 8462 O 1517.86 6.7751 -3.72168 0
M  V30 8463 C 1516.92 7.20825 -2.7076 0
M  V30 8464 C 1517.65 7.45864 -1.40599 0
M  V30 8465 O 1517.86 6.17651 -0.734225 0
M  V30 8466 C 1519.05 8.05808 -1.51899 0
M  V30 8467 O 1519.44 8.74358 -0.335205 0
M  V30 8468 C 1519.93 6.83093 -1.70294 0
M  V30 8469 C 1519.22 5.79992 -0.836974 0
M  V30 8470 N 1519.27 4.41864 -1.38293 0
M  V30 8471 C 1519.19 3.99538 -2.69438 0
M  V30 8472 N 1519.27 2.69909 -2.84277 0
M  V30 8473 C 1519.41 2.21719 -1.5408 0
M  V30 8474 C 1519.54 0.891712 -1.06628 0
M  V30 8475 O 1519.56 -0.161298 -1.70137 0
M  V30 8476 N 1519.66 0.856846 0.334985 0
M  V30 8477 C 1519.66 1.9641 1.15789 0
M  V30 8478 N 1519.79 1.72708 2.46522 0
M  V30 8479 N 1519.53 3.21165 0.713741 0
M  V30 8480 C 1519.41 3.26797 -0.639748 0
M  V30 8481 H 1516.43 8.13644 -3.0377 0
M  V30 8482 H 1516.16 6.42788 -2.55485 0
M  V30 8483 H 1517.03 8.12039 -0.792769 0
M  V30 8484 H 1519.68 5.80061 0.166416 0
M  V30 8485 H 1519.96 6.51287 -2.75604 0
M  V30 8486 H 1520.96 7.01734 -1.34462 0
M  V30 8487 H 1519.12 8.73674 -2.38337 0
M  V30 8488 H 1519.07 4.68207 -3.53221 0
M  V30 8489 H 1519.75 -0.0398818 0.767965 0
M  V30 8490 H 1519.79 2.50995 3.13503 0
M  V30 8491 H 1519.89 0.759148 2.80716 0
M  V30 8492 P 1520.99 8.91 1.48453e-12 0
M  V30 8493 O 1521.21 10.1726 0.733694 0
M  V30 8494 O 1521.78 8.73148 -1.23936 0
M  V30 8495 O 1521.24 7.66872 0.971405 0
M  V30 8496 C 1520.3 7.42309 2.04641 0
M  V30 8497 C 1521.03 6.86059 3.24661 0
M  V30 8498 O 1521.24 5.42847 3.03646 0
M  V30 8499 C 1522.43 7.41196 3.50753 0
M  V30 8500 O 1522.82 7.27073 4.86816 0
M  V30 8501 C 1523.31 6.5273 2.63741 0
M  V30 8502 C 1522.6 5.1842 2.73198 0
M  V30 8503 N 1522.65 4.38762 1.4784 0
M  V30 8504 H 1519.81 8.36803 2.32493 0
M  V30 8505 H 1519.54 6.70197 1.71129 0
M  V30 8506 H 1520.41 7.03551 4.13168 0
M  V30 8507 P 1524.37 7.20834 5.23717 0
M  V30 8508 O 1524.59 7.79853 6.57286 0
M  V30 8509 O 1525.16 7.79239 4.12957 0
M  V30 8510 O 1524.62 5.63315 5.29344 0
M  V30 8511 C 1523.68 4.80255 6.01876 0
M  V30 8512 C 1524.41 3.64202 6.65911 0
M  V30 8513 O 1524.62 2.60694 5.64732 0
M  V30 8514 C 1525.81 3.93473 7.1943 0
M  V30 8515 O 1526.2 3.02071 8.21205 0
M  V30 8516 C 1526.69 3.73047 5.97036 0
M  V30 8517 C 1525.98 2.58828 5.25741 0
M  V30 8518 N 1526.03 2.68068 3.77503 0
M  V30 8519 H 1523.19 5.40332 6.79951 0
M  V30 8520 H 1522.92 4.41613 5.32378 0
M  V30 8521 H 1523.79 3.26331 7.47797 0
M  V30 8522 P 1527.75 2.75334 8.47391 0
M  V30 8523 O 1527.97 2.44619 9.90336 0
M  V30 8524 O 1528.54 3.87776 7.92294 0
M  V30 8525 O 1528 1.4459 7.59357 0
M  V30 8526 C 1527.06 0.347653 7.69315 0
M  V30 8527 C 1527.79 -0.96767 7.52806 0
M  V30 8528 O 1528 -1.21055 6.10208 0
M  V30 8529 C 1529.19 -1.04557 8.13408 0
M  V30 8530 O 1529.58 -2.38311 8.41922 0
M  V30 8531 C 1530.07 -0.491279 7.02284 0
M  V30 8532 C 1529.36 -0.996264 5.77469 0
M  V30 8533 N 1529.41 -0.0501916 4.62973 0
M  V30 8534 H 1526.57 0.374765 8.67791 0
M  V30 8535 H 1526.3 0.443613 6.90476 0
M  V30 8536 H 1527.17 -1.75559 7.96891 0
M  V30 8537 H 1529.82 -1.94563 5.46818 0
M  V30 8538 H 1530.1 0.608651 7.04676 0
M  V30 8539 H 1531.09 -0.889796 7.09039 0
M  V30 8540 H 1529.26 -0.433128 9.04664 0
M  V30 8541 P 1531.13 -2.75334 8.47391 0
M  V30 8542 O 1531.35 -3.84128 9.44797 0
M  V30 8543 O 1531.92 -1.51947 8.68712 0
M  V30 8544 O 1531.38 -3.29363 6.99321 0
M  V30 8545 C 1530.44 -4.24011 6.4274 0
M  V30 8546 C 1531.17 -5.20775 5.52155 0
M  V30 8547 O 1531.38 -4.56534 4.22446 0
M  V30 8548 C 1532.57 -5.62629 5.96531 0
M  V30 8549 O 1532.96 -6.87667 5.41053 0
M  V30 8550 C 1533.45 -4.52537 5.39283 0
M  V30 8551 C 1532.74 -4.20027 4.08623 0
M  V30 8552 N 1532.79 -2.76189 3.71603 0
M  V30 8553 H 1529.95 -4.797 7.24003 0
M  V30 8554 H 1529.68 -3.69856 5.84513 0
M  V30 8555 H 1530.55 -6.10356 5.41441 0
M  V30 8556 P 1534.51 -7.20834 5.23717 0
M  V30 8557 O 1534.73 -8.66104 5.38572 0
M  V30 8558 O 1535.3 -6.33544 6.1349 0
M  V30 8559 O 1534.76 -6.7751 3.72168 0
M  V30 8560 C 1533.82 -7.20825 2.7076 0
M  V30 8561 C 1534.55 -7.45864 1.40599 0
M  V30 8562 O 1534.76 -6.17651 0.734225 0
M  V30 8563 C 1535.95 -8.05808 1.51899 0
M  V30 8564 O 1536.34 -8.74358 0.335205 0
M  V30 8565 C 1536.83 -6.83093 1.70294 0
M  V30 8566 C 1536.12 -5.79992 0.836974 0
M  V30 8567 N 1536.17 -4.41864 1.38293 0
M  V30 8568 H 1533.33 -8.13644 3.0377 0
M  V30 8569 H 1533.06 -6.42788 2.55485 0
M  V30 8570 H 1533.93 -8.12039 0.792769 0
M  V30 8571 P 1537.89 -8.91 -3.75525e-13 0
M  V30 8572 O 1538.11 -10.1726 -0.733694 0
M  V30 8573 O 1538.68 -8.73148 1.23936 0
M  V30 8574 O 1538.14 -7.66872 -0.971405 0
M  V30 8575 C 1537.2 -7.42309 -2.04641 0
M  V30 8576 C 1537.93 -6.86059 -3.24661 0
M  V30 8577 O 1538.14 -5.42847 -3.03646 0
M  V30 8578 C 1539.33 -7.41196 -3.50753 0
M  V30 8579 O 1539.72 -7.27073 -4.86816 0
M  V30 8580 C 1540.21 -6.5273 -2.63741 0
M  V30 8581 C 1539.5 -5.1842 -2.73198 0
M  V30 8582 N 1539.55 -4.38762 -1.4784 0
M  V30 8583 H 1536.71 -8.36803 -2.32493 0
M  V30 8584 H 1536.44 -6.70197 -1.71129 0
M  V30 8585 H 1537.31 -7.03551 -4.13168 0
M  V30 8586 P 1541.27 -7.20834 -5.23717 0
M  V30 8587 O 1541.49 -7.79853 -6.57286 0
M  V30 8588 O 1542.06 -7.79239 -4.12957 0
M  V30 8589 O 1541.52 -5.63315 -5.29344 0
M  V30 8590 C 1540.58 -4.80255 -6.01876 0
M  V30 8591 C 1541.31 -3.64202 -6.65911 0
M  V30 8592 O 1541.52 -2.60694 -5.64732 0
M  V30 8593 C 1542.71 -3.93473 -7.1943 0
M  V30 8594 O 1543.1 -3.02071 -8.21205 0
M  V30 8595 C 1543.59 -3.73047 -5.97036 0
M  V30 8596 C 1542.88 -2.58828 -5.25741 0
M  V30 8597 N 1542.93 -2.68068 -3.77503 0
M  V30 8598 H 1540.09 -5.40332 -6.79951 0
M  V30 8599 H 1539.82 -4.41613 -5.32378 0
M  V30 8600 H 1540.69 -3.26331 -7.47797 0
M  V30 8601 P 1544.65 -2.75334 -8.47391 0
M  V30 8602 O 1544.87 -2.44619 -9.90336 0
M  V30 8603 O 1545.44 -3.87776 -7.92294 0
M  V30 8604 O 1544.9 -1.4459 -7.59357 0
M  V30 8605 C 1543.96 -0.347653 -7.69315 0
M  V30 8606 C 1544.69 0.96767 -7.52806 0
M  V30 8607 O 1544.9 1.21055 -6.10208 0
M  V30 8608 C 1546.09 1.04557 -8.13408 0
M  V30 8609 O 1546.48 2.38311 -8.41922 0
M  V30 8610 C 1546.97 0.491279 -7.02284 0
M  V30 8611 C 1546.26 0.996264 -5.77469 0
M  V30 8612 N 1546.31 0.0501916 -4.62973 0
M  V30 8613 H 1543.47 -0.374765 -8.67791 0
M  V30 8614 H 1543.2 -0.443613 -6.90476 0
M  V30 8615 H 1544.07 1.75559 -7.96891 0
M  V30 8616 H 1546.72 1.94563 -5.46818 0
M  V30 8617 H 1547 -0.608651 -7.04676 0
M  V30 8618 H 1547.99 0.889796 -7.09039 0
M  V30 8619 H 1546.16 0.433128 -9.04664 0
M  V30 8620 P 1548.03 2.75334 -8.47391 0
M  V30 8621 O 1548.25 3.84128 -9.44797 0
M  V30 8622 O 1548.82 1.51947 -8.68712 0
M  V30 8623 O 1548.28 3.29363 -6.99321 0
M  V30 8624 C 1547.34 4.24011 -6.4274 0
M  V30 8625 C 1548.07 5.20775 -5.52155 0
M  V30 8626 O 1548.28 4.56534 -4.22446 0
M  V30 8627 C 1549.47 5.62629 -5.96531 0
M  V30 8628 O 1549.86 6.87667 -5.41053 0
M  V30 8629 C 1550.35 4.52537 -5.39283 0
M  V30 8630 C 1549.64 4.20027 -4.08623 0
M  V30 8631 N 1549.69 2.76189 -3.71603 0
M  V30 8632 H 1546.85 4.797 -7.24003 0
M  V30 8633 H 1546.58 3.69856 -5.84513 0
M  V30 8634 H 1547.45 6.10356 -5.41441 0
M  V30 8635 P 1551.41 7.20834 -5.23717 0
M  V30 8636 O 1551.63 8.66104 -5.38572 0
M  V30 8637 O 1552.2 6.33544 -6.1349 0
M  V30 8638 O 1551.66 6.7751 -3.72168 0
M  V30 8639 C 1550.72 7.20825 -2.7076 0
M  V30 8640 C 1551.45 7.45864 -1.40599 0
M  V30 8641 O 1551.66 6.17651 -0.734225 0
M  V30 8642 C 1552.85 8.05808 -1.51899 0
M  V30 8643 O 1553.24 8.74358 -0.335205 0
M  V30 8644 C 1553.73 6.83093 -1.70294 0
M  V30 8645 C 1553.02 5.79992 -0.836974 0
M  V30 8646 N 1553.07 4.41864 -1.38293 0
M  V30 8647 H 1550.23 8.13644 -3.0377 0
M  V30 8648 H 1549.96 6.42788 -2.55485 0
M  V30 8649 H 1550.83 8.12039 -0.792769 0
M  V30 8650 P 1554.79 8.91 -7.3348e-13 0
M  V30 8651 O 1555.01 10.1726 0.733694 0
M  V30 8652 O 1555.58 8.73148 -1.23936 0
M  V30 8653 O 1555.04 7.66872 0.971405 0
M  V30 8654 C 1554.1 7.42309 2.04641 0
M  V30 8655 C 1554.83 6.86059 3.24661 0
M  V30 8656 O 1555.04 5.42847 3.03646 0
M  V30 8657 C 1556.23 7.41196 3.50753 0
M  V30 8658 O 1556.62 7.27073 4.86816 0
M  V30 8659 C 1557.11 6.5273 2.63741 0
M  V30 8660 C 1556.4 5.1842 2.73198 0
M  V30 8661 N 1556.45 4.38762 1.4784 0
M  V30 8662 H 1553.61 8.36803 2.32493 0
M  V30 8663 H 1553.34 6.70197 1.71129 0
M  V30 8664 H 1554.21 7.03551 4.13168 0
M  V30 8665 P 1558.17 7.20834 5.23717 0
M  V30 8666 O 1558.39 7.79853 6.57286 0
M  V30 8667 O 1558.96 7.79239 4.12957 0
M  V30 8668 O 1558.42 5.63315 5.29344 0
M  V30 8669 C 1557.48 4.80255 6.01876 0
M  V30 8670 C 1558.21 3.64202 6.65911 0
M  V30 8671 O 1558.42 2.60694 5.64732 0
M  V30 8672 C 1559.61 3.93473 7.1943 0
M  V30 8673 O 1560 3.02071 8.21205 0
M  V30 8674 C 1560.49 3.73047 5.97036 0
M  V30 8675 C 1559.78 2.58828 5.25741 0
M  V30 8676 N 1559.83 2.68068 3.77503 0
M  V30 8677 H 1556.99 5.40332 6.79951 0
M  V30 8678 H 1556.72 4.41613 5.32378 0
M  V30 8679 H 1557.59 3.26331 7.47797 0
M  V30 8680 P 1561.55 2.75334 8.47391 0
M  V30 8681 O 1561.77 2.44571 9.90142 0
M  V30 8682 O 1562.34 3.87688 7.92115 0
M  V30 8683 O 1561.8 1.4459 7.59357 0
M  V30 8684 C 1560.86 0.347608 7.69215 0
M  V30 8685 C 1561.59 -0.96767 7.52806 0
M  V30 8686 O 1561.8 -1.21036 6.1011 0
M  V30 8687 C 1562.99 -1.04544 8.13308 0
M  V30 8688 O 1563.38 -2.38311 8.41922 0
M  V30 8689 C 1563.87 -0.491279 7.02284 0
M  V30 8690 C 1563.16 -0.996264 5.77469 0
M  V30 8691 N 1563.21 -0.0501916 4.62973 0
M  V30 8692 H 1560.37 0.374722 8.67691 0
M  V30 8693 H 1560.1 0.443485 6.90277 0
M  V30 8694 H 1560.97 -1.75537 7.96793 0
M  V30 8695 P 1564.93 -2.75334 8.47391 0
M  V30 8696 O 1565.15 -3.84128 9.44797 0
M  V30 8697 O 1565.72 -1.51947 8.68712 0
M  V30 8698 O 1565.18 -3.29363 6.99321 0
M  V30 8699 C 1564.24 -4.24011 6.4274 0
M  V30 8700 C 1564.97 -5.20775 5.52155 0
M  V30 8701 O 1565.18 -4.56534 4.22446 0
M  V30 8702 C 1566.37 -5.62629 5.96531 0
M  V30 8703 O 1566.76 -6.87667 5.41053 0
M  V30 8704 C 1567.25 -4.52537 5.39283 0
M  V30 8705 C 1566.54 -4.20027 4.08623 0
M  V30 8706 N 1566.59 -2.76189 3.71603 0
M  V30 8707 H 1563.75 -4.797 7.24003 0
M  V30 8708 H 1563.48 -3.69856 5.84513 0
M  V30 8709 H 1564.35 -6.10356 5.41441 0
M  V30 8710 P 1568.31 -7.20834 5.23717 0
M  V30 8711 O 1568.53 -8.66104 5.38572 0
M  V30 8712 O 1569.1 -6.33544 6.1349 0
M  V30 8713 O 1568.56 -6.7751 3.72168 0
M  V30 8714 C 1567.62 -7.20825 2.7076 0
M  V30 8715 C 1568.35 -7.45864 1.40599 0
M  V30 8716 O 1568.56 -6.17651 0.734225 0
M  V30 8717 C 1569.75 -8.05808 1.51899 0
M  V30 8718 O 1570.14 -8.74358 0.335205 0
M  V30 8719 C 1570.63 -6.83093 1.70294 0
M  V30 8720 C 1569.92 -5.79992 0.836974 0
M  V30 8721 N 1569.97 -4.41864 1.38293 0
M  V30 8722 H 1567.13 -8.13644 3.0377 0
M  V30 8723 H 1566.86 -6.42788 2.55485 0
M  V30 8724 H 1567.73 -8.12039 0.792769 0
M  V30 8725 P 1571.69 -8.91 1.84249e-12 0
M  V30 8726 O 1571.91 -10.1726 -0.733694 0
M  V30 8727 O 1572.48 -8.73148 1.23936 0
M  V30 8728 O 1571.94 -7.66872 -0.971405 0
M  V30 8729 C 1571 -7.42309 -2.04641 0
M  V30 8730 C 1571.73 -6.86059 -3.24661 0
M  V30 8731 O 1571.94 -5.42847 -3.03646 0
M  V30 8732 C 1573.13 -7.41196 -3.50753 0
M  V30 8733 O 1573.52 -7.27073 -4.86816 0
M  V30 8734 C 1574.01 -6.5273 -2.63741 0
M  V30 8735 C 1573.3 -5.1842 -2.73198 0
M  V30 8736 N 1573.35 -4.38762 -1.4784 0
M  V30 8737 C 1573.27 -4.81605 -0.168631 0
M  V30 8738 N 1573.35 -3.85454 0.713363 0
M  V30 8739 C 1573.49 -2.6994 -0.0566958 0
M  V30 8740 C 1573.62 -1.34815 0.338502 0
M  V30 8741 O 1573.64 -0.869548 1.47125 0
M  V30 8742 N 1573.74 -0.496304 -0.77465 0
M  V30 8743 C 1573.74 -0.908403 -2.09122 0
M  V30 8744 N 1573.87 0.0517805 -3.00955 0
M  V30 8745 N 1573.61 -2.17875 -2.46519 0
M  V30 8746 C 1573.49 -3.01988 -1.4033 0
M  V30 8747 H 1570.51 -8.36803 -2.32493 0
M  V30 8748 H 1570.24 -6.70197 -1.71129 0
M  V30 8749 H 1571.11 -7.03551 -4.13168 0
M  V30 8750 H 1573.76 -4.59498 -3.54415 0
M  V30 8751 H 1574.04 -6.88898 -1.59848 0
M  V30 8752 H 1575.03 -6.46749 -3.03687 0
M  V30 8753 H 1573.2 -8.46908 -3.20714 0
M  V30 8754 H 1573.15 -5.86405 0.105564 0
M  V30 8755 H 1573.83 0.483664 -0.597855 0
M  V30 8756 H 1573.87 -0.187865 -4.0116 0
M  V30 8757 H 1573.97 1.03585 -2.71726 0
M  V30 8758 P 1575.07 -7.20834 -5.23717 0
M  V30 8759 O 1575.29 -7.79853 -6.57286 0
M  V30 8760 O 1575.86 -7.79239 -4.12957 0
M  V30 8761 O 1575.32 -5.63315 -5.29344 0
M  V30 8762 C 1574.38 -4.80255 -6.01876 0
M  V30 8763 C 1575.11 -3.64202 -6.65911 0
M  V30 8764 O 1575.32 -2.60694 -5.64732 0
M  V30 8765 C 1576.51 -3.93473 -7.1943 0
M  V30 8766 O 1576.9 -3.02071 -8.21205 0
M  V30 8767 C 1577.39 -3.73047 -5.97036 0
M  V30 8768 C 1576.68 -2.58828 -5.25741 0
M  V30 8769 N 1576.73 -2.68068 -3.77503 0
M  V30 8770 H 1573.89 -5.40332 -6.79951 0
M  V30 8771 H 1573.62 -4.41613 -5.32378 0
M  V30 8772 H 1574.49 -3.26331 -7.47797 0
M  V30 8773 P 1578.45 -2.75334 -8.47391 0
M  V30 8774 O 1578.67 -2.44595 -9.90239 0
M  V30 8775 O 1579.24 -3.87732 -7.92204 0
M  V30 8776 O 1578.7 -1.4459 -7.59357 0
M  V30 8777 C 1577.76 -0.347608 -7.69215 0
M  V30 8778 C 1578.49 0.96767 -7.52806 0
M  V30 8779 O 1578.7 1.21036 -6.1011 0
M  V30 8780 C 1579.89 1.04544 -8.13308 0
M  V30 8781 O 1580.28 2.38311 -8.41922 0
M  V30 8782 C 1580.77 0.491279 -7.02284 0
M  V30 8783 C 1580.06 0.996264 -5.77469 0
M  V30 8784 N 1580.11 0.0501808 -4.62873 0
M  V30 8785 C 1580.26 0.578037 -3.3505 0
M  V30 8786 O 1580.35 1.8073 -3.21711 0
M  V30 8787 N 1580.31 -0.468541 -2.263 0
M  V30 8788 C 1580.21 -1.59186 -2.47176 0
M  V30 8789 N 1580.26 -2.37626 -1.40392 0
M  V30 8790 C 1580.06 -2.16203 -3.77467 0
M  V30 8791 C 1580.01 -1.29324 -4.8195 0
M  V30 8792 H 1577.27 -0.374679 -8.67591 0
M  V30 8793 H 1577 -0.443421 -6.90177 0
M  V30 8794 H 1577.87 1.75559 -7.96891 0
M  V30 8795 H 1580.52 1.94529 -5.46723 0
M  V30 8796 H 1580.8 -0.608651 -7.04676 0
M  V30 8797 H 1581.79 0.889672 -7.08939 0
M  V30 8798 H 1579.96 0.43308 -9.04564 0
M  V30 8799 H 1579.89 -1.67758 -5.83046 0
M  V30 8800 H 1579.99 -3.23869 -3.92281 0
M  V30 8801 H 1580.38 -1.96317 -0.467202 0
M  V30 8802 H 1580.18 -3.39693 -1.51142 0
M  V30 8803 P 1581.83 2.75334 -8.47391 0
M  V30 8804 O 1582.05 3.84128 -9.44797 0
M  V30 8805 O 1582.62 1.51947 -8.68712 0
M  V30 8806 O 1582.08 3.29363 -6.99321 0
M  V30 8807 C 1581.14 4.24011 -6.4274 0
M  V30 8808 C 1581.87 5.20775 -5.52155 0
M  V30 8809 O 1582.08 4.56534 -4.22446 0
M  V30 8810 C 1583.27 5.62629 -5.96531 0
M  V30 8811 O 1583.66 6.87667 -5.41053 0
M  V30 8812 C 1584.15 4.52537 -5.39283 0
M  V30 8813 C 1583.44 4.20027 -4.08623 0
M  V30 8814 N 1583.49 2.76189 -3.71603 0
M  V30 8815 H 1580.65 4.797 -7.24003 0
M  V30 8816 H 1580.38 3.69856 -5.84513 0
M  V30 8817 H 1581.25 6.10356 -5.41441 0
M  V30 8818 P 1585.21 7.20834 -5.23717 0
M  V30 8819 O 1585.43 8.66104 -5.38572 0
M  V30 8820 O 1586 6.33544 -6.1349 0
M  V30 8821 O 1585.46 6.7751 -3.72168 0
M  V30 8822 C 1584.52 7.20825 -2.7076 0
M  V30 8823 C 1585.25 7.45864 -1.40599 0
M  V30 8824 O 1585.46 6.17651 -0.734225 0
M  V30 8825 C 1586.65 8.05808 -1.51899 0
M  V30 8826 O 1587.04 8.74358 -0.335205 0
M  V30 8827 C 1587.53 6.83093 -1.70294 0
M  V30 8828 C 1586.82 5.79992 -0.836974 0
M  V30 8829 N 1586.87 4.41864 -1.38293 0
M  V30 8830 C 1586.79 3.99538 -2.69438 0
M  V30 8831 N 1586.87 2.69909 -2.84277 0
M  V30 8832 C 1587.01 2.21719 -1.5408 0
M  V30 8833 C 1587.14 0.891712 -1.06628 0
M  V30 8834 N 1587.26 0.856846 0.334985 0
M  V30 8835 C 1587.26 1.9641 1.15789 0
M  V30 8836 N 1587.39 1.72708 2.46522 0
M  V30 8837 N 1587.13 3.21165 0.713741 0
M  V30 8838 C 1587.01 3.26797 -0.639748 0
M  V30 8839 H 1584.03 8.13644 -3.0377 0
M  V30 8840 H 1583.76 6.42788 -2.55485 0
M  V30 8841 H 1584.63 8.12039 -0.792769 0
M  V30 8842 P 1588.59 8.91 -2.95149e-12 0
M  V30 8843 O 1588.81 10.1726 0.733694 0
M  V30 8844 O 1589.38 8.73148 -1.23936 0
M  V30 8845 O 1588.84 7.66872 0.971405 0
M  V30 8846 C 1587.9 7.42309 2.04641 0
M  V30 8847 C 1588.63 6.86059 3.24661 0
M  V30 8848 O 1588.84 5.42847 3.03646 0
M  V30 8849 C 1590.03 7.41196 3.50753 0
M  V30 8850 O 1590.42 7.27073 4.86816 0
M  V30 8851 C 1590.91 6.5273 2.63741 0
M  V30 8852 C 1590.2 5.1842 2.73198 0
M  V30 8853 N 1590.25 4.38762 1.4784 0
M  V30 8854 H 1587.41 8.36803 2.32493 0
M  V30 8855 H 1587.14 6.70197 1.71129 0
M  V30 8856 H 1588.01 7.03551 4.13168 0
M  V30 8857 P 1591.97 7.20834 5.23717 0
M  V30 8858 O 1592.19 7.79853 6.57286 0
M  V30 8859 O 1592.76 7.79239 4.12957 0
M  V30 8860 O 1592.22 5.63315 5.29344 0
M  V30 8861 C 1591.28 4.80255 6.01876 0
M  V30 8862 C 1592.01 3.64202 6.65911 0
M  V30 8863 O 1592.22 2.60694 5.64732 0
M  V30 8864 C 1593.41 3.93473 7.1943 0
M  V30 8865 O 1593.8 3.02071 8.21205 0
M  V30 8866 C 1594.29 3.73047 5.97036 0
M  V30 8867 C 1593.58 2.58828 5.25741 0
M  V30 8868 N 1593.63 2.68068 3.77503 0
M  V30 8869 H 1590.79 5.40332 6.79951 0
M  V30 8870 H 1590.52 4.41613 5.32378 0
M  V30 8871 H 1591.39 3.26331 7.47797 0
M  V30 8872 P 1595.35 2.75334 8.47391 0
M  V30 8873 O 1595.57 2.44571 9.90142 0
M  V30 8874 O 1596.14 3.87688 7.92115 0
M  V30 8875 O 1595.6 1.4459 7.59357 0
M  V30 8876 C 1594.66 0.347608 7.69215 0
M  V30 8877 C 1595.39 -0.96767 7.52806 0
M  V30 8878 O 1595.6 -1.21036 6.1011 0
M  V30 8879 C 1596.79 -1.04544 8.13308 0
M  V30 8880 O 1597.18 -2.38311 8.41922 0
M  V30 8881 C 1597.67 -0.491279 7.02284 0
M  V30 8882 C 1596.96 -0.996264 5.77469 0
M  V30 8883 N 1597.01 -0.0501916 4.62973 0
M  V30 8884 C 1596.93 1.32786 4.63244 0
M  V30 8885 N 1597.01 1.86957 3.44545 0
M  V30 8886 C 1597.15 0.780241 2.58481 0
M  V30 8887 C 1597.28 0.738536 1.17757 0
M  V30 8888 O 1597.3 1.66794 0.372349 0
M  V30 8889 N 1597.4 -0.58337 0.711393 0
M  V30 8890 C 1597.4 -1.70816 1.51017 0
M  V30 8891 N 1597.53 -2.87826 0.880757 0
M  V30 8892 N 1597.27 -1.67126 2.8339 0
M  V30 8893 C 1597.15 -0.401421 3.30572 0
M  V30 8894 H 1594.17 0.374722 8.67691 0
M  V30 8895 H 1593.9 0.443485 6.90277 0
M  V30 8896 H 1594.77 -1.75537 7.96793 0
M  V30 8897 H 1597.42 -1.95076 5.46529 0
M  V30 8898 H 1597.7 0.608565 7.04577 0
M  V30 8899 H 1598.69 -0.889672 7.08939 0
M  V30 8900 H 1596.86 -0.43308 9.04564 0
M  V30 8901 H 1596.81 1.91249 5.54442 0
M  V30 8902 H 1597.49 -0.718054 -0.275244 0
M  V30 8903 H 1597.53 -3.75721 1.41832 0
M  V30 8904 H 1597.63 -2.90436 -0.145468 0
M  V30 8905 P 1598.73 -2.75334 8.47391 0
M  V30 8906 O 1598.95 -3.84128 9.44797 0
M  V30 8907 O 1599.52 -1.51947 8.68712 0
M  V30 8908 O 1598.98 -3.29363 6.99321 0
M  V30 8909 C 1598.04 -4.24011 6.4274 0
M  V30 8910 C 1598.77 -5.20775 5.52155 0
M  V30 8911 O 1598.98 -4.56534 4.22446 0
M  V30 8912 C 1600.17 -5.62629 5.96531 0
M  V30 8913 O 1600.56 -6.87667 5.41053 0
M  V30 8914 C 1601.05 -4.52537 5.39283 0
M  V30 8915 C 1600.34 -4.20027 4.08623 0
M  V30 8916 N 1600.39 -2.76189 3.71603 0
M  V30 8917 H 1597.55 -4.797 7.24003 0
M  V30 8918 H 1597.28 -3.69856 5.84513 0
M  V30 8919 H 1598.15 -6.10356 5.41441 0
M  V30 8920 P 1602.11 -7.20834 5.23717 0
M  V30 8921 O 1602.33 -8.66104 5.38572 0
M  V30 8922 O 1602.9 -6.33544 6.1349 0
M  V30 8923 O 1602.36 -6.7751 3.72168 0
M  V30 8924 C 1601.42 -7.20825 2.7076 0
M  V30 8925 C 1602.15 -7.45864 1.40599 0
M  V30 8926 O 1602.36 -6.17651 0.734225 0
M  V30 8927 C 1603.55 -8.05808 1.51899 0
M  V30 8928 O 1603.94 -8.74358 0.335205 0
M  V30 8929 C 1604.43 -6.83093 1.70294 0
M  V30 8930 C 1603.72 -5.79992 0.836974 0
M  V30 8931 N 1603.77 -4.41864 1.38293 0
M  V30 8932 H 1600.93 -8.13644 3.0377 0
M  V30 8933 H 1600.66 -6.42788 2.55485 0
M  V30 8934 H 1601.53 -8.12039 0.792769 0
M  V30 8935 P 1605.49 -8.91 4.0605e-12 0
M  V30 8936 O 1605.71 -10.1726 -0.733694 0
M  V30 8937 O 1606.28 -8.73148 1.23936 0
M  V30 8938 O 1605.74 -7.66872 -0.971405 0
M  V30 8939 C 1604.8 -7.42309 -2.04641 0
M  V30 8940 C 1605.53 -6.86059 -3.24661 0
M  V30 8941 O 1605.74 -5.42847 -3.03646 0
M  V30 8942 C 1606.93 -7.41196 -3.50753 0
M  V30 8943 O 1607.32 -7.27073 -4.86816 0
M  V30 8944 C 1607.81 -6.5273 -2.63741 0
M  V30 8945 C 1607.1 -5.1842 -2.73198 0
M  V30 8946 N 1607.15 -4.38762 -1.4784 0
M  V30 8947 H 1604.31 -8.36803 -2.32493 0
M  V30 8948 H 1604.04 -6.70197 -1.71129 0
M  V30 8949 H 1604.91 -7.03551 -4.13168 0
M  V30 8950 P 1608.87 -7.20834 -5.23717 0
M  V30 8951 O 1609.09 -7.79853 -6.57286 0
M  V30 8952 O 1609.66 -7.79239 -4.12957 0
M  V30 8953 O 1609.12 -5.63315 -5.29344 0
M  V30 8954 C 1608.18 -4.80255 -6.01876 0
M  V30 8955 C 1608.91 -3.64202 -6.65911 0
M  V30 8956 O 1609.12 -2.60694 -5.64732 0
M  V30 8957 C 1610.31 -3.93473 -7.1943 0
M  V30 8958 O 1610.7 -3.02071 -8.21205 0
M  V30 8959 C 1611.19 -3.73047 -5.97036 0
M  V30 8960 C 1610.48 -2.58828 -5.25741 0
M  V30 8961 N 1610.53 -2.68068 -3.77503 0
M  V30 8962 H 1607.69 -5.40332 -6.79951 0
M  V30 8963 H 1607.42 -4.41613 -5.32378 0
M  V30 8964 H 1608.29 -3.26331 -7.47797 0
M  V30 8965 P 1612.25 -2.75334 -8.47391 0
M  V30 8966 O 1612.47 -2.44571 -9.90142 0
M  V30 8967 O 1613.04 -3.87688 -7.92115 0
M  V30 8968 O 1612.5 -1.4459 -7.59357 0
M  V30 8969 C 1611.56 -0.347608 -7.69215 0
M  V30 8970 C 1612.29 0.96767 -7.52806 0
M  V30 8971 O 1612.5 1.21036 -6.1011 0
M  V30 8972 C 1613.69 1.04544 -8.13308 0
M  V30 8973 O 1614.08 2.38311 -8.41922 0
M  V30 8974 C 1614.57 0.491279 -7.02284 0
M  V30 8975 C 1613.86 0.996264 -5.77469 0
M  V30 8976 N 1613.91 0.0501916 -4.62973 0
M  V30 8977 H 1611.07 -0.374722 -8.67691 0
M  V30 8978 H 1610.8 -0.443485 -6.90277 0
M  V30 8979 H 1611.67 1.75537 -7.96793 0
M  V30 8980 P 1615.63 2.75334 -8.47391 0
M  V30 8981 O 1615.85 3.84128 -9.44797 0
M  V30 8982 O 1616.42 1.51947 -8.68712 0
M  V30 8983 O 1615.88 3.29363 -6.99321 0
M  V30 8984 C 1614.94 4.24011 -6.4274 0
M  V30 8985 C 1615.67 5.20775 -5.52155 0
M  V30 8986 O 1615.88 4.56534 -4.22446 0
M  V30 8987 C 1617.07 5.62629 -5.96531 0
M  V30 8988 O 1617.46 6.87667 -5.41053 0
M  V30 8989 C 1617.95 4.52537 -5.39283 0
M  V30 8990 C 1617.24 4.20027 -4.08623 0
M  V30 8991 N 1617.29 2.76189 -3.71603 0
M  V30 8992 H 1614.45 4.797 -7.24003 0
M  V30 8993 H 1614.18 3.69856 -5.84513 0
M  V30 8994 H 1615.05 6.10356 -5.41441 0
M  V30 8995 P 1619.01 7.20834 -5.23717 0
M  V30 8996 O 1619.23 8.66104 -5.38572 0
M  V30 8997 O 1619.8 6.33544 -6.1349 0
M  V30 8998 O 1619.26 6.7751 -3.72168 0
M  V30 8999 C 1618.32 7.20825 -2.7076 0
M  V30 9000 C 1619.05 7.45864 -1.40599 0
M  V30 9001 O 1619.26 6.17651 -0.734225 0
M  V30 9002 C 1620.45 8.05808 -1.51899 0
M  V30 9003 O 1620.84 8.74358 -0.335205 0
M  V30 9004 C 1621.33 6.83093 -1.70294 0
M  V30 9005 C 1620.62 5.79992 -0.836974 0
M  V30 9006 N 1620.67 4.41864 -1.38293 0
M  V30 9007 H 1617.83 8.13644 -3.0377 0
M  V30 9008 H 1617.56 6.42788 -2.55485 0
M  V30 9009 H 1618.43 8.12039 -0.792769 0
M  V30 9010 P 1622.39 8.91 -5.1695e-12 0
M  V30 9011 O 1622.61 10.1736 0.733766 0
M  V30 9012 O 1623.18 8.73247 -1.2395 0
M  V30 9013 O 1622.64 7.66872 0.971405 0
M  V30 9014 C 1621.7 7.42212 2.04614 0
M  V30 9015 C 1622.43 6.86059 3.24661 0
M  V30 9016 O 1622.64 5.42847 3.03646 0
M  V30 9017 C 1623.83 7.41196 3.50753 0
M  V30 9018 O 1624.22 7.27073 4.86816 0
M  V30 9019 C 1624.71 6.5273 2.63741 0
M  V30 9020 C 1624 5.1842 2.73198 0
M  V30 9021 N 1624.05 4.38668 1.47808 0
M  V30 9022 C 1624.2 3.02239 1.60048 0
M  V30 9023 O 1624.29 2.46459 2.67869 0
M  V30 9024 N 1624.24 2.32436 0.408571 0
M  V30 9025 C 1624.15 2.85471 -0.854993 0
M  V30 9026 C 1624 4.28918 -0.887335 0
M  V30 9027 C 1623.95 5.00349 0.255399 0
M  V30 9028 H 1621.21 8.36803 2.32493 0
M  V30 9029 H 1620.94 6.701 1.71105 0
M  V30 9030 H 1621.81 7.03551 4.13168 0
M  V30 9031 H 1624.46 4.59773 3.53894 0
M  V30 9032 H 1624.74 6.88995 1.59871 0
M  V30 9033 H 1625.73 6.46749 3.03687 0
M  V30 9034 H 1623.9 8.46908 3.20714 0
M  V30 9035 H 1623.83 6.08548 0.206986 0
M  V30 9036 P 1625.77 7.20834 5.23717 0
M  V30 9037 O 1625.99 7.80006 6.57415 0
M  V30 9038 O 1626.56 7.79416 4.13051 0
M  V30 9039 O 1626.02 5.63315 5.29344 0
M  V30 9040 C 1625.08 4.80318 6.01954 0
M  V30 9041 C 1625.81 3.64202 6.65911 0
M  V30 9042 O 1626.02 2.60736 5.64823 0
M  V30 9043 C 1627.21 3.93521 7.19518 0
M  V30 9044 O 1627.6 3.02071 8.21205 0
M  V30 9045 C 1628.09 3.73047 5.97036 0
M  V30 9046 C 1627.38 2.58828 5.25741 0
M  V30 9047 N 1627.43 2.68068 3.77503 0
M  V30 9048 H 1624.59 5.40394 6.8003 0
M  V30 9049 H 1624.32 4.41741 5.32532 0
M  V30 9050 H 1625.19 3.26371 7.47889 0
M  V30 9051 H 1627.84 1.64007 5.56746 0
M  V30 9052 H 1628.12 4.63439 5.3432 0
M  V30 9053 H 1629.11 3.44776 6.25925 0
M  V30 9054 H 1627.28 4.96707 7.57347 0
M  V30 9055 P 1629.15 2.75334 8.47391 0
M  V30 9056 O 1629.37 2.44571 9.90142 0
M  V30 9057 O 1629.94 3.87688 7.92115 0
M  V30 9058 O 1629.4 1.4459 7.59357 0
M  V30 9059 C 1628.46 0.347608 7.69215 0
M  V30 9060 C 1629.19 -0.96767 7.52806 0
M  V30 9061 O 1629.4 -1.21036 6.1011 0
M  V30 9062 C 1630.59 -1.04544 8.13308 0
M  V30 9063 O 1630.98 -2.38311 8.41922 0
M  V30 9064 C 1631.47 -0.491279 7.02284 0
M  V30 9065 C 1630.76 -0.996264 5.77469 0
M  V30 9066 N 1630.81 -0.0501916 4.62973 0
M  V30 9067 H 1627.97 0.374722 8.67691 0
M  V30 9068 H 1627.7 0.443485 6.90277 0
M  V30 9069 H 1628.57 -1.75537 7.96793 0
M  V30 9070 P 1632.53 -2.75334 8.47391 0
M  V30 9071 O 1632.75 -3.84204 9.44982 0
M  V30 9072 O 1633.32 -1.51982 8.68909 0
M  V30 9073 O 1632.78 -3.29363 6.99321 0
M  V30 9074 C 1631.84 -4.24066 6.42823 0
M  V30 9075 C 1632.57 -5.20775 5.52155 0
M  V30 9076 O 1632.78 -4.56607 4.22514 0
M  V30 9077 C 1633.97 -5.62697 5.96604 0
M  V30 9078 O 1634.36 -6.87667 5.41053 0
M  V30 9079 C 1634.85 -4.52537 5.39283 0
M  V30 9080 C 1634.14 -4.20027 4.08623 0
M  V30 9081 N 1634.19 -2.76189 3.71603 0
M  V30 9082 H 1631.35 -4.79756 7.24086 0
M  V30 9083 H 1631.08 -3.69963 5.84682 0
M  V30 9084 H 1631.95 -6.10431 5.41508 0
M  V30 9085 H 1634.6 -4.78816 3.28024 0
M  V30 9086 H 1634.88 -3.64957 6.05871 0
M  V30 9087 H 1635.87 -4.88748 5.21323 0
M  V30 9088 H 1634.04 -5.66789 7.0643 0
M  V30 9089 P 1635.91 -7.20834 5.23717 0
M  V30 9090 O 1636.13 -8.66104 5.38572 0
M  V30 9091 O 1636.7 -6.33544 6.1349 0
M  V30 9092 O 1636.16 -6.7751 3.72168 0
M  V30 9093 C 1635.22 -7.20825 2.7076 0
M  V30 9094 C 1635.95 -7.45864 1.40599 0
M  V30 9095 O 1636.16 -6.17651 0.734225 0
M  V30 9096 C 1637.35 -8.05808 1.51899 0
M  V30 9097 O 1637.74 -8.74358 0.335205 0
M  V30 9098 C 1638.23 -6.83093 1.70294 0
M  V30 9099 C 1637.52 -5.79992 0.836974 0
M  V30 9100 N 1637.57 -4.41864 1.38293 0
M  V30 9101 C 1637.49 -3.99538 2.69438 0
M  V30 9102 N 1637.57 -2.69909 2.84277 0
M  V30 9103 C 1637.71 -2.21719 1.5408 0
M  V30 9104 C 1637.84 -0.891712 1.06628 0
M  V30 9105 O 1637.86 0.161298 1.70137 0
M  V30 9106 N 1637.96 -0.856846 -0.334985 0
M  V30 9107 C 1637.96 -1.9641 -1.15789 0
M  V30 9108 N 1638.09 -1.72708 -2.46522 0
M  V30 9109 N 1637.83 -3.21165 -0.713741 0
M  V30 9110 C 1637.71 -3.26797 0.639748 0
M  V30 9111 H 1634.73 -8.13644 3.0377 0
M  V30 9112 H 1634.46 -6.42788 2.55485 0
M  V30 9113 H 1635.33 -8.12039 0.792769 0
M  V30 9114 H 1637.98 -5.80061 -0.166416 0
M  V30 9115 H 1638.26 -6.51287 2.75604 0
M  V30 9116 H 1639.25 -7.01734 1.34462 0
M  V30 9117 H 1637.42 -8.73674 2.38337 0
M  V30 9118 H 1637.37 -4.68207 3.53221 0
M  V30 9119 H 1638.05 0.0398818 -0.767965 0
M  V30 9120 H 1638.09 -2.50995 -3.13503 0
M  V30 9121 H 1638.19 -0.759148 -2.80716 0
M  V30 9122 P 1639.29 -8.91 6.2785e-12 0
M  V30 9123 O 1639.51 -10.1726 -0.733694 0
M  V30 9124 O 1640.08 -8.73148 1.23936 0
M  V30 9125 O 1639.54 -7.66872 -0.971405 0
M  V30 9126 C 1638.6 -7.42309 -2.04641 0
M  V30 9127 C 1639.33 -6.86059 -3.24661 0
M  V30 9128 O 1639.54 -5.42847 -3.03646 0
M  V30 9129 C 1640.73 -7.41196 -3.50753 0
M  V30 9130 O 1641.12 -7.27073 -4.86816 0
M  V30 9131 C 1641.61 -6.5273 -2.63741 0
M  V30 9132 C 1640.9 -5.1842 -2.73198 0
M  V30 9133 N 1640.95 -4.38762 -1.4784 0
M  V30 9134 H 1638.11 -8.36803 -2.32493 0
M  V30 9135 H 1637.84 -6.70197 -1.71129 0
M  V30 9136 H 1638.71 -7.03551 -4.13168 0
M  V30 9137 P 1642.67 -7.20834 -5.23717 0
M  V30 9138 O 1642.89 -7.79853 -6.57286 0
M  V30 9139 O 1643.46 -7.79239 -4.12957 0
M  V30 9140 O 1642.92 -5.63315 -5.29344 0
M  V30 9141 C 1641.98 -4.80255 -6.01876 0
M  V30 9142 C 1642.71 -3.64202 -6.65911 0
M  V30 9143 O 1642.92 -2.60694 -5.64732 0
M  V30 9144 C 1644.11 -3.93473 -7.1943 0
M  V30 9145 O 1644.5 -3.02071 -8.21205 0
M  V30 9146 C 1644.99 -3.73047 -5.97036 0
M  V30 9147 C 1644.28 -2.58828 -5.25741 0
M  V30 9148 N 1644.33 -2.68068 -3.77503 0
M  V30 9149 H 1641.49 -5.40332 -6.79951 0
M  V30 9150 H 1641.22 -4.41613 -5.32378 0
M  V30 9151 H 1642.09 -3.26331 -7.47797 0
M  V30 9152 P 1646.05 -2.75334 -8.47391 0
M  V30 9153 O 1646.27 -2.44571 -9.90142 0
M  V30 9154 O 1646.84 -3.87688 -7.92115 0
M  V30 9155 O 1646.3 -1.4459 -7.59357 0
M  V30 9156 C 1645.36 -0.347608 -7.69215 0
M  V30 9157 C 1646.09 0.96767 -7.52806 0
M  V30 9158 O 1646.3 1.21036 -6.1011 0
M  V30 9159 C 1647.49 1.04544 -8.13308 0
M  V30 9160 O 1647.88 2.38311 -8.41922 0
M  V30 9161 C 1648.37 0.491279 -7.02284 0
M  V30 9162 C 1647.66 0.996264 -5.77469 0
M  V30 9163 N 1647.71 0.0501916 -4.62973 0
M  V30 9164 C 1647.63 -1.32786 -4.63244 0
M  V30 9165 N 1647.71 -1.86957 -3.44545 0
M  V30 9166 C 1647.85 -0.780241 -2.58481 0
M  V30 9167 C 1647.98 -0.738536 -1.17757 0
M  V30 9168 N 1648.1 0.58337 -0.711393 0
M  V30 9169 C 1648.1 1.70816 -1.51017 0
M  V30 9170 N 1648.23 2.87826 -0.880757 0
M  V30 9171 N 1647.97 1.67126 -2.8339 0
M  V30 9172 C 1647.85 0.401421 -3.30572 0
M  V30 9173 H 1644.87 -0.374722 -8.67691 0
M  V30 9174 H 1644.6 -0.443485 -6.90277 0
M  V30 9175 H 1645.47 1.75537 -7.96793 0
M  V30 9176 P 1649.43 2.75334 -8.47391 0
M  V30 9177 O 1649.65 3.84128 -9.44797 0
M  V30 9178 O 1650.22 1.51947 -8.68712 0
M  V30 9179 O 1649.68 3.29363 -6.99321 0
M  V30 9180 C 1648.74 4.24011 -6.4274 0
M  V30 9181 C 1649.47 5.20775 -5.52155 0
M  V30 9182 O 1649.68 4.56534 -4.22446 0
M  V30 9183 C 1650.87 5.62629 -5.96531 0
M  V30 9184 O 1651.26 6.87667 -5.41053 0
M  V30 9185 C 1651.75 4.52537 -5.39283 0
M  V30 9186 C 1651.04 4.20027 -4.08623 0
M  V30 9187 N 1651.09 2.76189 -3.71603 0
M  V30 9188 H 1648.25 4.797 -7.24003 0
M  V30 9189 H 1647.98 3.69856 -5.84513 0
M  V30 9190 H 1648.85 6.10356 -5.41441 0
M  V30 9191 P 1652.81 7.20834 -5.23717 0
M  V30 9192 O 1653.03 8.66104 -5.38572 0
M  V30 9193 O 1653.6 6.33544 -6.1349 0
M  V30 9194 O 1653.06 6.7751 -3.72168 0
M  V30 9195 C 1652.12 7.20825 -2.7076 0
M  V30 9196 C 1652.85 7.45864 -1.40599 0
M  V30 9197 O 1653.06 6.17651 -0.734225 0
M  V30 9198 C 1654.25 8.05808 -1.51899 0
M  V30 9199 O 1654.64 8.74358 -0.335205 0
M  V30 9200 C 1655.13 6.83093 -1.70294 0
M  V30 9201 C 1654.42 5.79992 -0.836974 0
M  V30 9202 N 1654.47 4.41864 -1.38293 0
M  V30 9203 H 1651.63 8.13644 -3.0377 0
M  V30 9204 H 1651.36 6.42788 -2.55485 0
M  V30 9205 H 1652.23 8.12039 -0.792769 0
M  V30 9206 P 1656.19 8.91 -7.38751e-12 0
M  V30 9207 O 1656.41 10.1726 0.733694 0
M  V30 9208 O 1656.98 8.73148 -1.23936 0
M  V30 9209 O 1656.44 7.66872 0.971405 0
M  V30 9210 C 1655.5 7.42309 2.04641 0
M  V30 9211 C 1656.23 6.86059 3.24661 0
M  V30 9212 O 1656.44 5.42847 3.03646 0
M  V30 9213 C 1657.63 7.41196 3.50753 0
M  V30 9214 O 1658.02 7.27073 4.86816 0
M  V30 9215 C 1658.51 6.5273 2.63741 0
M  V30 9216 C 1657.8 5.1842 2.73198 0
M  V30 9217 N 1657.85 4.38762 1.4784 0
M  V30 9218 H 1655.01 8.36803 2.32493 0
M  V30 9219 H 1654.74 6.70197 1.71129 0
M  V30 9220 H 1655.61 7.03551 4.13168 0
M  V30 9221 P 1659.57 7.20834 5.23717 0
M  V30 9222 O 1659.79 7.79853 6.57286 0
M  V30 9223 O 1660.36 7.79239 4.12957 0
M  V30 9224 O 1659.82 5.63315 5.29344 0
M  V30 9225 C 1658.88 4.80255 6.01876 0
M  V30 9226 C 1659.61 3.64202 6.65911 0
M  V30 9227 O 1659.82 2.60694 5.64732 0
M  V30 9228 C 1661.01 3.93473 7.1943 0
M  V30 9229 O 1661.4 3.02071 8.21205 0
M  V30 9230 C 1661.89 3.73047 5.97036 0
M  V30 9231 C 1661.18 2.58828 5.25741 0
M  V30 9232 N 1661.23 2.68068 3.77503 0
M  V30 9233 C 1661.15 3.79715 2.96723 0
M  V30 9234 N 1661.23 3.5377 1.68852 0
M  V30 9235 C 1661.37 2.15054 1.63254 0
M  V30 9236 C 1661.5 1.28964 0.518571 0
M  V30 9237 N 1661.62 -0.0538097 0.918425 0
M  V30 9238 C 1661.62 -0.494275 2.22578 0
M  V30 9239 N 1661.75 -1.81086 2.40434 0
M  V30 9240 N 1661.49 0.313645 3.27502 0
M  V30 9241 C 1661.37 1.61829 2.91033 0
M  V30 9242 H 1658.39 5.40332 6.79951 0
M  V30 9243 H 1658.12 4.41613 5.32378 0
M  V30 9244 H 1658.99 3.26331 7.47797 0
M  V30 9245 P 1662.95 2.75334 8.47391 0
M  V30 9246 O 1663.17 2.44571 9.90142 0
M  V30 9247 O 1663.74 3.87688 7.92115 0
M  V30 9248 O 1663.2 1.4459 7.59357 0
M  V30 9249 C 1662.26 0.347608 7.69215 0
M  V30 9250 C 1662.99 -0.96767 7.52806 0
M  V30 9251 O 1663.2 -1.21036 6.1011 0
M  V30 9252 C 1664.39 -1.04544 8.13308 0
M  V30 9253 O 1664.78 -2.38311 8.41922 0
M  V30 9254 C 1665.27 -0.491279 7.02284 0
M  V30 9255 C 1664.56 -0.996264 5.77469 0
M  V30 9256 N 1664.61 -0.0501916 4.62973 0
M  V30 9257 H 1661.77 0.374722 8.67691 0
M  V30 9258 H 1661.5 0.443485 6.90277 0
M  V30 9259 H 1662.37 -1.75537 7.96793 0
M  V30 9260 P 1666.33 -2.75334 8.47391 0
M  V30 9261 O 1666.55 -3.84128 9.44797 0
M  V30 9262 O 1667.12 -1.51947 8.68712 0
M  V30 9263 O 1666.58 -3.29363 6.99321 0
M  V30 9264 C 1665.64 -4.24011 6.4274 0
M  V30 9265 C 1666.37 -5.20775 5.52155 0
M  V30 9266 O 1666.58 -4.56534 4.22446 0
M  V30 9267 C 1667.77 -5.62629 5.96531 0
M  V30 9268 O 1668.16 -6.87667 5.41053 0
M  V30 9269 C 1668.65 -4.52537 5.39283 0
M  V30 9270 C 1667.94 -4.20027 4.08623 0
M  V30 9271 N 1667.99 -2.76189 3.71603 0
M  V30 9272 H 1665.15 -4.797 7.24003 0
M  V30 9273 H 1664.88 -3.69856 5.84513 0
M  V30 9274 H 1665.75 -6.10356 5.41441 0
M  V30 9275 P 1669.71 -7.20834 5.23717 0
M  V30 9276 O 1669.93 -8.66189 5.38625 0
M  V30 9277 O 1670.5 -6.33615 6.1356 0
M  V30 9278 O 1669.96 -6.7751 3.72168 0
M  V30 9279 C 1669.02 -7.20732 2.70725 0
M  V30 9280 C 1669.75 -7.45864 1.40599 0
M  V30 9281 O 1669.96 -6.17651 0.734225 0
M  V30 9282 C 1671.15 -8.05808 1.51899 0
M  V30 9283 O 1671.54 -8.74358 0.335205 0
M  V30 9284 C 1672.03 -6.83093 1.70294 0
M  V30 9285 C 1671.32 -5.79992 0.836974 0
M  V30 9286 N 1671.37 -4.41769 1.38263 0
M  V30 9287 C 1671.52 -3.38591 0.481702 0
M  V30 9288 O 1671.61 -3.56839 -0.718452 0
M  V30 9289 N 1671.56 -2.1206 1.03569 0
M  V30 9290 C 1671.47 -1.80696 2.36966 0
M  V30 9291 O 1671.52 -0.630473 2.74862 0
M  V30 9292 C 1671.32 -2.94845 3.23898 0
M  V30 9293 C 1671.21 -2.65253 4.70362 0
M  V30 9294 C 1671.27 -4.19803 2.73435 0
M  V30 9295 H 1668.53 -8.13644 3.0377 0
M  V30 9296 H 1668.26 -6.42695 2.55448 0
M  V30 9297 H 1669.13 -8.12039 0.792769 0
M  V30 9298 H 1671.78 -5.79978 -0.160587 0
M  V30 9299 H 1672.06 -6.51379 2.75643 0
M  V30 9300 H 1673.05 -7.01734 1.34462 0
M  V30 9301 H 1671.22 -8.73674 2.38337 0
M  V30 9302 H 1671.15 -5.04492 3.4095 0
M  V30 9303 H 1672.18 -2.83924 5.1913 0
M  V30 9304 H 1670.44 -3.29824 5.15163 0
M  V30 9305 H 1670.93 -1.59723 4.84449 0
M  V30 9306 H 1671.67 -1.35644 0.399345 0
M  V30 9307 P 1673.09 -8.91 8.49651e-12 0
M  V30 9308 O 1673.31 -10.1746 -0.733838 0
M  V30 9309 O 1673.88 -8.73346 1.23964 0
M  V30 9310 O 1673.34 -7.66872 -0.971405 0
M  V30 9311 C 1672.4 -7.42405 -2.04668 0
M  V30 9312 C 1673.13 -6.86059 -3.24661 0
M  V30 9313 O 1673.34 -5.42934 -3.03695 0
M  V30 9314 C 1674.53 -7.41287 -3.50796 0
M  V30 9315 O 1674.92 -7.27073 -4.86816 0
M  V30 9316 C 1675.41 -6.5273 -2.63741 0
M  V30 9317 C 1674.7 -5.1842 -2.73198 0
M  V30 9318 N 1674.75 -4.38762 -1.4784 0
M  V30 9319 H 1671.91 -8.36899 -2.3252 0
M  V30 9320 H 1671.64 -6.70391 -1.71179 0
M  V30 9321 H 1672.51 -7.03638 -4.13219 0
M  V30 9322 H 1675.16 -4.59931 -3.54016 0
M  V30 9323 H 1675.44 -6.88995 -1.59871 0
M  V30 9324 H 1676.43 -6.4684 -3.0373 0
M  V30 9325 H 1674.6 -8.47002 -3.20749 0
M  V30 9326 P 1676.47 -7.20834 -5.23717 0
M  V30 9327 O 1676.69 -7.79853 -6.57286 0
M  V30 9328 O 1677.26 -7.79239 -4.12957 0
M  V30 9329 O 1676.72 -5.63315 -5.29344 0
M  V30 9330 C 1675.78 -4.80255 -6.01876 0
M  V30 9331 C 1676.51 -3.64202 -6.65911 0
M  V30 9332 O 1676.72 -2.60694 -5.64732 0
M  V30 9333 C 1677.91 -3.93473 -7.1943 0
M  V30 9334 O 1678.3 -3.02071 -8.21205 0
M  V30 9335 C 1678.79 -3.73047 -5.97036 0
M  V30 9336 C 1678.08 -2.58828 -5.25741 0
M  V30 9337 N 1678.13 -2.68068 -3.77503 0
M  V30 9338 H 1675.29 -5.40332 -6.79951 0
M  V30 9339 H 1675.02 -4.41613 -5.32378 0
M  V30 9340 H 1675.89 -3.26331 -7.47797 0
M  V30 9341 P 1679.85 -2.75334 -8.47391 0
M  V30 9342 O 1680.07 -2.44571 -9.90142 0
M  V30 9343 O 1680.64 -3.87688 -7.92115 0
M  V30 9344 O 1680.1 -1.4459 -7.59357 0
M  V30 9345 C 1679.16 -0.347608 -7.69215 0
M  V30 9346 C 1679.89 0.96767 -7.52806 0
M  V30 9347 O 1680.1 1.21036 -6.1011 0
M  V30 9348 C 1681.29 1.04544 -8.13308 0
M  V30 9349 O 1681.68 2.38311 -8.41922 0
M  V30 9350 C 1682.17 0.491279 -7.02284 0
M  V30 9351 C 1681.46 0.996264 -5.77469 0
M  V30 9352 N 1681.51 0.0501916 -4.62973 0
M  V30 9353 H 1678.67 -0.374722 -8.67691 0
M  V30 9354 H 1678.4 -0.443485 -6.90277 0
M  V30 9355 H 1679.27 1.75537 -7.96793 0
M  V30 9356 P 1683.23 2.75334 -8.47391 0
M  V30 9357 O 1683.45 3.84166 -9.4489 0
M  V30 9358 O 1684.02 1.51964 -8.6881 0
M  V30 9359 O 1683.48 3.29363 -6.99321 0
M  V30 9360 C 1682.54 4.23956 -6.42656 0
M  V30 9361 C 1683.27 5.20775 -5.52155 0
M  V30 9362 O 1683.48 4.56534 -4.22446 0
M  V30 9363 C 1684.67 5.62629 -5.96531 0
M  V30 9364 O 1685.06 6.87667 -5.41053 0
M  V30 9365 C 1685.55 4.52537 -5.39283 0
M  V30 9366 C 1684.84 4.20027 -4.08623 0
M  V30 9367 N 1684.89 2.7613 -3.71522 0
M  V30 9368 C 1685.04 2.45612 -2.37989 0
M  V30 9369 O 1685.13 3.30919 -1.51621 0
M  V30 9370 N 1685.08 1.10684 -2.08435 0
M  V30 9371 C 1684.99 0.0690084 -2.9792 0
M  V30 9372 O 1685.04 -1.10553 -2.59426 0
M  V30 9373 C 1684.84 0.481522 -4.35345 0
M  V30 9374 C 1684.73 -0.618778 -5.36443 0
M  V30 9375 C 1684.79 1.78906 -4.67968 0
M  V30 9376 H 1682.05 4.797 -7.24003 0
M  V30 9377 H 1681.78 3.69802 -5.84429 0
M  V30 9378 H 1682.65 6.10356 -5.41441 0
M  V30 9379 H 1685.3 4.78651 -3.27911 0
M  V30 9380 H 1685.58 3.64957 -6.05871 0
M  V30 9381 H 1686.57 4.8868 -5.2125 0
M  V30 9382 H 1684.74 5.66726 -7.06352 0
M  V30 9383 H 1684.67 2.07737 -5.72367 0
M  V30 9384 H 1685.7 -0.754375 -5.86871 0
M  V30 9385 H 1683.96 -0.359721 -6.10641 0
M  V30 9386 H 1684.45 -1.55533 -4.8581 0
M  V30 9387 H 1685.19 0.862651 -1.12037 0
M  V30 9388 P 1686.61 7.20834 -5.23717 0
M  V30 9389 O 1686.83 8.66104 -5.38572 0
M  V30 9390 O 1687.4 6.33544 -6.1349 0
M  V30 9391 O 1686.86 6.7751 -3.72168 0
M  V30 9392 C 1685.92 7.20825 -2.7076 0
M  V30 9393 C 1686.65 7.45864 -1.40599 0
M  V30 9394 O 1686.86 6.17651 -0.734225 0
M  V30 9395 C 1688.05 8.05808 -1.51899 0
M  V30 9396 O 1688.44 8.74358 -0.335205 0
M  V30 9397 C 1688.93 6.83093 -1.70294 0
M  V30 9398 C 1688.22 5.79992 -0.836974 0
M  V30 9399 N 1688.27 4.41864 -1.38293 0
M  V30 9400 H 1685.43 8.13644 -3.0377 0
M  V30 9401 H 1685.16 6.42788 -2.55485 0
M  V30 9402 H 1686.03 8.12039 -0.792769 0
M  V30 9403 P 1689.99 8.91 -9.60552e-12 0
M  V30 9404 O 1690.21 10.1726 0.733694 0
M  V30 9405 O 1690.78 8.73148 -1.23936 0
M  V30 9406 O 1690.24 7.66872 0.971405 0
M  V30 9407 C 1689.3 7.42309 2.04641 0
M  V30 9408 C 1690.03 6.86059 3.24661 0
M  V30 9409 O 1690.24 5.42847 3.03646 0
M  V30 9410 C 1691.43 7.41196 3.50753 0
M  V30 9411 O 1691.82 7.27073 4.86816 0
M  V30 9412 C 1692.31 6.5273 2.63741 0
M  V30 9413 C 1691.6 5.1842 2.73198 0
M  V30 9414 N 1691.65 4.38762 1.4784 0
M  V30 9415 H 1688.81 8.36803 2.32493 0
M  V30 9416 H 1688.54 6.70197 1.71129 0
M  V30 9417 H 1689.41 7.03551 4.13168 0
M  V30 9418 P 1693.37 7.20834 5.23717 0
M  V30 9419 O 1693.59 7.79853 6.57286 0
M  V30 9420 O 1694.16 7.79239 4.12957 0
M  V30 9421 O 1693.62 5.63315 5.29344 0
M  V30 9422 C 1692.68 4.80255 6.01876 0
M  V30 9423 C 1693.41 3.64202 6.65911 0
M  V30 9424 O 1693.62 2.60694 5.64732 0
M  V30 9425 C 1694.81 3.93473 7.1943 0
M  V30 9426 O 1695.2 3.02071 8.21205 0
M  V30 9427 C 1695.69 3.73047 5.97036 0
M  V30 9428 C 1694.98 2.58828 5.25741 0
M  V30 9429 N 1695.03 2.68068 3.77503 0
M  V30 9430 H 1692.19 5.40332 6.79951 0
M  V30 9431 H 1691.92 4.41613 5.32378 0
M  V30 9432 H 1692.79 3.26331 7.47797 0
M  V30 9433 P 1696.75 2.75334 8.47391 0
M  V30 9434 O 1696.97 2.44571 9.90142 0
M  V30 9435 O 1697.54 3.87688 7.92115 0
M  V30 9436 O 1697 1.4459 7.59357 0
M  V30 9437 C 1696.06 0.347608 7.69215 0
M  V30 9438 C 1696.79 -0.96767 7.52806 0
M  V30 9439 O 1697 -1.21036 6.1011 0
M  V30 9440 C 1698.19 -1.04544 8.13308 0
M  V30 9441 O 1698.58 -2.38311 8.41922 0
M  V30 9442 C 1699.07 -0.491279 7.02284 0
M  V30 9443 C 1698.36 -0.996264 5.77469 0
M  V30 9444 N 1698.41 -0.0501916 4.62973 0
M  V30 9445 H 1695.57 0.374722 8.67691 0
M  V30 9446 H 1695.3 0.443485 6.90277 0
M  V30 9447 H 1696.17 -1.75537 7.96793 0
M  V30 9448 P 1700.13 -2.75334 8.47391 0
M  V30 9449 O 1700.35 -3.84128 9.44797 0
M  V30 9450 O 1700.92 -1.51947 8.68712 0
M  V30 9451 O 1700.38 -3.29363 6.99321 0
M  V30 9452 C 1699.44 -4.24011 6.4274 0
M  V30 9453 C 1700.17 -5.20775 5.52155 0
M  V30 9454 O 1700.38 -4.56534 4.22446 0
M  V30 9455 C 1701.57 -5.62629 5.96531 0
M  V30 9456 O 1701.96 -6.87667 5.41053 0
M  V30 9457 C 1702.45 -4.52537 5.39283 0
M  V30 9458 C 1701.74 -4.20027 4.08623 0
M  V30 9459 N 1701.79 -2.76189 3.71603 0
M  V30 9460 H 1698.95 -4.797 7.24003 0
M  V30 9461 H 1698.68 -3.69856 5.84513 0
M  V30 9462 H 1699.55 -6.10356 5.41441 0
M  V30 9463 P 1703.51 -7.20834 5.23717 0
M  V30 9464 O 1703.73 -8.66104 5.38572 0
M  V30 9465 O 1704.3 -6.33544 6.1349 0
M  V30 9466 O 1703.76 -6.7751 3.72168 0
M  V30 9467 C 1702.82 -7.20825 2.7076 0
M  V30 9468 C 1703.55 -7.45864 1.40599 0
M  V30 9469 O 1703.76 -6.17651 0.734225 0
M  V30 9470 C 1704.95 -8.05808 1.51899 0
M  V30 9471 O 1705.34 -8.74358 0.335205 0
M  V30 9472 C 1705.83 -6.83093 1.70294 0
M  V30 9473 C 1705.12 -5.79992 0.836974 0
M  V30 9474 N 1705.17 -4.41864 1.38293 0
M  V30 9475 C 1705.09 -3.99538 2.69438 0
M  V30 9476 N 1705.17 -2.69909 2.84277 0
M  V30 9477 C 1705.31 -2.21719 1.5408 0
M  V30 9478 C 1705.44 -0.891712 1.06628 0
M  V30 9479 O 1705.46 0.161298 1.70137 0
M  V30 9480 N 1705.56 -0.856846 -0.334985 0
M  V30 9481 C 1705.56 -1.9641 -1.15789 0
M  V30 9482 N 1705.69 -1.72708 -2.46522 0
M  V30 9483 N 1705.43 -3.21165 -0.713741 0
M  V30 9484 C 1705.31 -3.26797 0.639748 0
M  V30 9485 H 1702.33 -8.13644 3.0377 0
M  V30 9486 H 1702.06 -6.42788 2.55485 0
M  V30 9487 H 1702.93 -8.12039 0.792769 0
M  V30 9488 H 1705.58 -5.80061 -0.166416 0
M  V30 9489 H 1705.86 -6.51287 2.75604 0
M  V30 9490 H 1706.85 -7.01734 1.34462 0
M  V30 9491 H 1705.02 -8.73674 2.38337 0
M  V30 9492 H 1704.97 -4.68207 3.53221 0
M  V30 9493 H 1705.65 0.0398818 -0.767965 0
M  V30 9494 H 1705.69 -2.50995 -3.13503 0
M  V30 9495 H 1705.79 -0.759148 -2.80716 0
M  V30 9496 P 1706.89 -8.91 1.07145e-11 0
M  V30 9497 O 1707.11 -10.1726 -0.733694 0
M  V30 9498 O 1707.68 -8.73148 1.23936 0
M  V30 9499 O 1707.14 -7.66872 -0.971405 0
M  V30 9500 C 1706.2 -7.42309 -2.04641 0
M  V30 9501 C 1706.93 -6.86059 -3.24661 0
M  V30 9502 O 1707.14 -5.42847 -3.03646 0
M  V30 9503 C 1708.33 -7.41196 -3.50753 0
M  V30 9504 O 1708.72 -7.27073 -4.86816 0
M  V30 9505 C 1709.21 -6.5273 -2.63741 0
M  V30 9506 C 1708.5 -5.1842 -2.73198 0
M  V30 9507 N 1708.55 -4.38762 -1.4784 0
M  V30 9508 H 1705.71 -8.36803 -2.32493 0
M  V30 9509 H 1705.44 -6.70197 -1.71129 0
M  V30 9510 H 1706.31 -7.03551 -4.13168 0
M  V30 9511 P 1710.27 -7.20834 -5.23717 0
M  V30 9512 O 1710.49 -7.79853 -6.57286 0
M  V30 9513 O 1711.06 -7.79239 -4.12957 0
M  V30 9514 O 1710.52 -5.63315 -5.29344 0
M  V30 9515 C 1709.58 -4.80255 -6.01876 0
M  V30 9516 C 1710.31 -3.64202 -6.65911 0
M  V30 9517 O 1710.52 -2.60694 -5.64732 0
M  V30 9518 C 1711.71 -3.93473 -7.1943 0
M  V30 9519 O 1712.1 -3.02071 -8.21205 0
M  V30 9520 C 1712.59 -3.73047 -5.97036 0
M  V30 9521 C 1711.88 -2.58828 -5.25741 0
M  V30 9522 N 1711.93 -2.68068 -3.77503 0
M  V30 9523 C 1711.85 -3.79715 -2.96723 0
M  V30 9524 N 1711.93 -3.5377 -1.68852 0
M  V30 9525 C 1712.07 -2.15054 -1.63254 0
M  V30 9526 C 1712.2 -1.28964 -0.518571 0
M  V30 9527 O 1712.22 -1.56826 0.679156 0
M  V30 9528 N 1712.32 0.0538097 -0.918425 0
M  V30 9529 C 1712.32 0.494275 -2.22578 0
M  V30 9530 N 1712.45 1.81086 -2.40434 0
M  V30 9531 N 1712.19 -0.313645 -3.27502 0
M  V30 9532 C 1712.07 -1.61829 -2.91033 0
M  V30 9533 H 1709.09 -5.40332 -6.79951 0
M  V30 9534 H 1708.82 -4.41613 -5.32378 0
M  V30 9535 H 1709.69 -3.26331 -7.47797 0
M  V30 9536 H 1712.34 -1.63422 -5.56814 0
M  V30 9537 H 1712.62 -4.63374 -5.34244 0
M  V30 9538 H 1713.61 -3.44728 -6.25838 0
M  V30 9539 H 1711.78 -4.96652 -7.57263 0
M  V30 9540 H 1711.73 -4.80617 -3.3614 0
M  V30 9541 H 1712.41 0.742702 -0.199384 0
M  V30 9542 H 1712.45 2.20598 -3.35588 0
M  V30 9543 H 1712.55 2.43518 -1.58945 0
M  V30 9544 P 1713.65 -2.75334 -8.47391 0
M  V30 9545 O 1713.87 -2.44571 -9.90142 0
M  V30 9546 O 1714.44 -3.87688 -7.92115 0
M  V30 9547 O 1713.9 -1.4459 -7.59357 0
M  V30 9548 C 1712.96 -0.347608 -7.69215 0
M  V30 9549 C 1713.69 0.96767 -7.52806 0
M  V30 9550 O 1713.9 1.21036 -6.1011 0
M  V30 9551 C 1715.09 1.04544 -8.13308 0
M  V30 9552 O 1715.48 2.38311 -8.41922 0
M  V30 9553 C 1715.97 0.491279 -7.02284 0
M  V30 9554 C 1715.26 0.996264 -5.77469 0
M  V30 9555 N 1715.31 0.0501916 -4.62973 0
M  V30 9556 H 1712.47 -0.374722 -8.67691 0
M  V30 9557 H 1712.2 -0.443485 -6.90277 0
M  V30 9558 H 1713.07 1.75537 -7.96793 0
M  V30 9559 P 1717.03 2.75334 -8.47391 0
M  V30 9560 O 1717.25 3.84128 -9.44797 0
M  V30 9561 O 1717.82 1.51947 -8.68712 0
M  V30 9562 O 1717.28 3.29363 -6.99321 0
M  V30 9563 C 1716.34 4.24011 -6.4274 0
M  V30 9564 C 1717.07 5.20775 -5.52155 0
M  V30 9565 O 1717.28 4.56534 -4.22446 0
M  V30 9566 C 1718.47 5.62629 -5.96531 0
M  V30 9567 O 1718.86 6.87667 -5.41053 0
M  V30 9568 C 1719.35 4.52537 -5.39283 0
M  V30 9569 C 1718.64 4.20027 -4.08623 0
M  V30 9570 N 1718.69 2.76189 -3.71603 0
M  V30 9571 H 1715.85 4.797 -7.24003 0
M  V30 9572 H 1715.58 3.69856 -5.84513 0
M  V30 9573 H 1716.45 6.10356 -5.41441 0
M  V30 9574 P 1720.41 7.20834 -5.23717 0
M  V30 9575 O 1720.63 8.66104 -5.38572 0
M  V30 9576 O 1721.2 6.33544 -6.1349 0
M  V30 9577 O 1720.66 6.7751 -3.72168 0
M  V30 9578 C 1719.72 7.20825 -2.7076 0
M  V30 9579 C 1720.45 7.45864 -1.40599 0
M  V30 9580 O 1720.66 6.17651 -0.734225 0
M  V30 9581 C 1721.85 8.05808 -1.51899 0
M  V30 9582 O 1722.24 8.74358 -0.335205 0
M  V30 9583 C 1722.73 6.83093 -1.70294 0
M  V30 9584 C 1722.02 5.79992 -0.836974 0
M  V30 9585 N 1722.07 4.41864 -1.38293 0
M  V30 9586 H 1719.23 8.13644 -3.0377 0
M  V30 9587 H 1718.96 6.42788 -2.55485 0
M  V30 9588 H 1719.83 8.12039 -0.792769 0
M  V30 9589 P 1723.79 8.91 -1.18235e-11 0
M  V30 9590 O 1724.01 10.1746 0.733838 0
M  V30 9591 O 1724.58 8.73346 -1.23964 0
M  V30 9592 O 1724.04 7.66872 0.971405 0
M  V30 9593 C 1723.1 7.42405 2.04668 0
M  V30 9594 C 1723.83 6.86059 3.24661 0
M  V30 9595 O 1724.04 5.42934 3.03695 0
M  V30 9596 C 1725.23 7.41287 3.50796 0
M  V30 9597 O 1725.62 7.27073 4.86816 0
M  V30 9598 C 1726.11 6.5273 2.63741 0
M  V30 9599 C 1725.4 5.1842 2.73198 0
M  V30 9600 N 1725.45 4.38762 1.4784 0
M  V30 9601 C 1725.37 4.83651 0.183876 0
M  V30 9602 N 1725.44 3.88759 -0.699393 0
M  V30 9603 C 1725.59 2.7404 0.0575568 0
M  V30 9604 C 1725.72 1.37902 -0.293928 0
M  V30 9605 N 1725.73 0.938021 -1.54797 0
M  V30 9606 N 1725.84 0.491817 0.70549 0
M  V30 9607 C 1725.83 0.931735 1.95979 0
M  V30 9608 N 1725.71 2.16017 2.41481 0
M  V30 9609 C 1725.59 3.02547 1.39121 0
M  V30 9610 H 1722.61 8.36899 2.3252 0
M  V30 9611 H 1722.34 6.70391 1.71179 0
M  V30 9612 H 1723.21 7.03638 4.13219 0
M  V30 9613 H 1725.86 4.59931 3.54016 0
M  V30 9614 H 1726.14 6.88995 1.59871 0
M  V30 9615 H 1727.13 6.4684 3.0373 0
M  V30 9616 H 1725.3 8.47002 3.20749 0
M  V30 9617 H 1725.26 5.8885 -0.0765548 0
M  V30 9618 H 1725.64 1.60276 -2.32875 0
M  V30 9619 H 1725.83 -0.0699355 -1.73859 0
M  V30 9620 H 1725.94 0.165507 2.71897 0
M  V30 9621 P 1727.17 7.20834 5.23717 0
M  V30 9622 O 1727.39 7.79853 6.57286 0
M  V30 9623 O 1727.96 7.79239 4.12957 0
M  V30 9624 O 1727.42 5.63315 5.29344 0
M  V30 9625 C 1726.48 4.80255 6.01876 0
M  V30 9626 C 1727.21 3.64202 6.65911 0
M  V30 9627 O 1727.42 2.60694 5.64732 0
M  V30 9628 C 1728.61 3.93473 7.1943 0
M  V30 9629 O 1729 3.02071 8.21205 0
M  V30 9630 C 1729.49 3.73047 5.97036 0
M  V30 9631 C 1728.78 2.58828 5.25741 0
M  V30 9632 N 1728.83 2.68068 3.77503 0
M  V30 9633 H 1725.99 5.40332 6.79951 0
M  V30 9634 H 1725.72 4.41613 5.32378 0
M  V30 9635 H 1726.59 3.26331 7.47797 0
M  V30 9636 P 1730.55 2.75334 8.47391 0
M  V30 9637 O 1730.77 2.44571 9.90142 0
M  V30 9638 O 1731.34 3.87688 7.92115 0
M  V30 9639 O 1730.8 1.4459 7.59357 0
M  V30 9640 C 1729.86 0.347608 7.69215 0
M  V30 9641 C 1730.59 -0.96767 7.52806 0
M  V30 9642 O 1730.8 -1.21036 6.1011 0
M  V30 9643 C 1731.99 -1.04544 8.13308 0
M  V30 9644 O 1732.38 -2.38311 8.41922 0
M  V30 9645 C 1732.87 -0.491279 7.02284 0
M  V30 9646 C 1732.16 -0.996264 5.77469 0
M  V30 9647 N 1732.21 -0.0501916 4.62973 0
M  V30 9648 C 1732.13 1.32786 4.63244 0
M  V30 9649 N 1732.21 1.86957 3.44545 0
M  V30 9650 C 1732.35 0.780241 2.58481 0
M  V30 9651 C 1732.48 0.738536 1.17757 0
M  V30 9652 O 1732.5 1.66794 0.372349 0
M  V30 9653 N 1732.6 -0.58337 0.711393 0
M  V30 9654 C 1732.6 -1.70816 1.51017 0
M  V30 9655 N 1732.73 -2.87826 0.880757 0
M  V30 9656 N 1732.47 -1.67126 2.8339 0
M  V30 9657 C 1732.35 -0.401421 3.30572 0
M  V30 9658 H 1729.37 0.374722 8.67691 0
M  V30 9659 H 1729.1 0.443485 6.90277 0
M  V30 9660 H 1729.97 -1.75537 7.96793 0
M  V30 9661 H 1732.62 -1.95076 5.46529 0
M  V30 9662 H 1732.9 0.608565 7.04577 0
M  V30 9663 H 1733.89 -0.889672 7.08939 0
M  V30 9664 H 1732.06 -0.43308 9.04564 0
M  V30 9665 H 1732.01 1.91249 5.54442 0
M  V30 9666 H 1732.69 -0.718054 -0.275244 0
M  V30 9667 H 1732.73 -3.75721 1.41832 0
M  V30 9668 H 1732.83 -2.90436 -0.145468 0
M  V30 9669 P 1733.93 -2.75334 8.47391 0
M  V30 9670 O 1734.15 -3.84204 9.44982 0
M  V30 9671 O 1734.72 -1.51982 8.68909 0
M  V30 9672 O 1734.18 -3.29363 6.99321 0
M  V30 9673 C 1733.24 -4.24066 6.42823 0
M  V30 9674 C 1733.97 -5.20775 5.52155 0
M  V30 9675 O 1734.18 -4.56607 4.22514 0
M  V30 9676 C 1735.37 -5.62697 5.96604 0
M  V30 9677 O 1735.76 -6.87667 5.41053 0
M  V30 9678 C 1736.25 -4.52537 5.39283 0
M  V30 9679 C 1735.54 -4.20027 4.08623 0
M  V30 9680 N 1735.59 -2.76189 3.71603 0
M  V30 9681 H 1732.75 -4.79756 7.24086 0
M  V30 9682 H 1732.48 -3.69963 5.84682 0
M  V30 9683 H 1733.35 -6.10431 5.41508 0
M  V30 9684 H 1736 -4.78816 3.28024 0
M  V30 9685 H 1736.28 -3.64957 6.05871 0
M  V30 9686 H 1737.27 -4.88748 5.21323 0
M  V30 9687 H 1735.44 -5.66789 7.0643 0
M  V30 9688 P 1737.31 -7.20834 5.23717 0
M  V30 9689 O 1737.53 -8.66104 5.38572 0
M  V30 9690 O 1738.1 -6.33544 6.1349 0
M  V30 9691 O 1737.56 -6.7751 3.72168 0
M  V30 9692 C 1736.62 -7.20825 2.7076 0
M  V30 9693 C 1737.35 -7.45864 1.40599 0
M  V30 9694 O 1737.56 -6.17651 0.734225 0
M  V30 9695 C 1738.75 -8.05808 1.51899 0
M  V30 9696 O 1739.14 -8.74358 0.335205 0
M  V30 9697 C 1739.63 -6.83093 1.70294 0
M  V30 9698 C 1738.92 -5.79992 0.836974 0
M  V30 9699 N 1738.97 -4.41864 1.38293 0
M  V30 9700 H 1736.13 -8.13644 3.0377 0
M  V30 9701 H 1735.86 -6.42788 2.55485 0
M  V30 9702 H 1736.73 -8.12039 0.792769 0
M  V30 9703 P 1740.69 -8.91 1.29325e-11 0
M  V30 9704 O 1740.91 -10.1736 -0.733766 0
M  V30 9705 O 1741.48 -8.73247 1.2395 0
M  V30 9706 O 1740.94 -7.66872 -0.971405 0
M  V30 9707 C 1740 -7.42212 -2.04614 0
M  V30 9708 C 1740.73 -6.86059 -3.24661 0
M  V30 9709 O 1740.94 -5.42847 -3.03646 0
M  V30 9710 C 1742.13 -7.41196 -3.50753 0
M  V30 9711 O 1742.52 -7.27073 -4.86816 0
M  V30 9712 C 1743.01 -6.5273 -2.63741 0
M  V30 9713 C 1742.3 -5.1842 -2.73198 0
M  V30 9714 N 1742.35 -4.38668 -1.47808 0
M  V30 9715 C 1742.5 -3.02239 -1.60048 0
M  V30 9716 O 1742.59 -2.46459 -2.67869 0
M  V30 9717 N 1742.54 -2.32436 -0.408571 0
M  V30 9718 C 1742.45 -2.85471 0.854993 0
M  V30 9719 C 1742.3 -4.28918 0.887335 0
M  V30 9720 C 1742.25 -5.00349 -0.255399 0
M  V30 9721 H 1739.51 -8.36803 -2.32493 0
M  V30 9722 H 1739.24 -6.701 -1.71105 0
M  V30 9723 H 1740.11 -7.03551 -4.13168 0
M  V30 9724 H 1742.76 -4.59773 -3.53894 0
M  V30 9725 H 1743.04 -6.88995 -1.59871 0
M  V30 9726 H 1744.03 -6.46749 -3.03687 0
M  V30 9727 H 1742.2 -8.46908 -3.20714 0
M  V30 9728 H 1742.13 -6.08548 -0.206986 0
M  V30 9729 P 1744.07 -7.20834 -5.23717 0
M  V30 9730 O 1744.29 -7.79853 -6.57286 0
M  V30 9731 O 1744.86 -7.79239 -4.12957 0
M  V30 9732 O 1744.32 -5.63315 -5.29344 0
M  V30 9733 C 1743.38 -4.80255 -6.01876 0
M  V30 9734 C 1744.11 -3.64202 -6.65911 0
M  V30 9735 O 1744.32 -2.60694 -5.64732 0
M  V30 9736 C 1745.51 -3.93473 -7.1943 0
M  V30 9737 O 1745.9 -3.02071 -8.21205 0
M  V30 9738 C 1746.39 -3.73047 -5.97036 0
M  V30 9739 C 1745.68 -2.58828 -5.25741 0
M  V30 9740 N 1745.73 -2.68068 -3.77503 0
M  V30 9741 H 1742.89 -5.40332 -6.79951 0
M  V30 9742 H 1742.62 -4.41613 -5.32378 0
M  V30 9743 H 1743.49 -3.26331 -7.47797 0
M  V30 9744 P 1747.45 -2.75334 -8.47391 0
M  V30 9745 O 1747.67 -2.44619 -9.90336 0
M  V30 9746 O 1748.24 -3.87776 -7.92294 0
M  V30 9747 O 1747.7 -1.4459 -7.59357 0
M  V30 9748 C 1746.76 -0.347653 -7.69315 0
M  V30 9749 C 1747.49 0.96767 -7.52806 0
M  V30 9750 O 1747.7 1.21055 -6.10208 0
M  V30 9751 C 1748.89 1.04557 -8.13408 0
M  V30 9752 O 1749.28 2.38311 -8.41922 0
M  V30 9753 C 1749.77 0.491279 -7.02284 0
M  V30 9754 C 1749.06 0.996264 -5.77469 0
M  V30 9755 N 1749.11 0.0501916 -4.62973 0
M  V30 9756 C 1749.03 -1.31969 -4.65661 0
M  V30 9757 N 1749.1 -1.86649 -3.48119 0
M  V30 9758 C 1749.25 -0.792089 -2.62406 0
M  V30 9759 C 1749.38 -0.705684 -1.2207 0
M  V30 9760 N 1749.39 -1.76207 -0.413762 0
M  V30 9761 N 1749.5 0.518981 -0.685754 0
M  V30 9762 C 1749.49 1.57595 -1.49174 0
M  V30 9763 N 1749.37 1.62909 -2.80066 0
M  V30 9764 C 1749.25 0.388195 -3.3073 0
M  V30 9765 H 1746.27 -0.374765 -8.67791 0
M  V30 9766 H 1746 -0.443613 -6.90476 0
M  V30 9767 H 1746.87 1.75559 -7.96891 0
M  V30 9768 H 1749.52 1.94563 -5.46818 0
M  V30 9769 H 1749.8 -0.608651 -7.04676 0
M  V30 9770 H 1750.79 0.889796 -7.09039 0
M  V30 9771 H 1748.96 0.433128 -9.04664 0
M  V30 9772 H 1748.92 -1.89246 -5.57664 0
M  V30 9773 H 1749.3 -2.71005 -0.804694 0
M  V30 9774 H 1749.49 -1.63189 0.603768 0
M  V30 9775 H 1749.6 2.53475 -0.997614 0
M  V30 9776 P 1750.83 2.75334 -8.47391 0
M  V30 9777 O 1751.05 3.84128 -9.44797 0
M  V30 9778 O 1751.62 1.51947 -8.68712 0
M  V30 9779 O 1751.08 3.29363 -6.99321 0
M  V30 9780 C 1750.14 4.24011 -6.4274 0
M  V30 9781 C 1750.87 5.20775 -5.52155 0
M  V30 9782 O 1751.08 4.56534 -4.22446 0
M  V30 9783 C 1752.27 5.62629 -5.96531 0
M  V30 9784 O 1752.66 6.87667 -5.41053 0
M  V30 9785 C 1753.15 4.52537 -5.39283 0
M  V30 9786 C 1752.44 4.20027 -4.08623 0
M  V30 9787 N 1752.49 2.76189 -3.71603 0
M  V30 9788 H 1749.65 4.797 -7.24003 0
M  V30 9789 H 1749.38 3.69856 -5.84513 0
M  V30 9790 H 1750.25 6.10356 -5.41441 0
M  V30 9791 P 1754.21 7.20834 -5.23717 0
M  V30 9792 O 1754.43 8.66104 -5.38572 0
M  V30 9793 O 1755 6.33544 -6.1349 0
M  V30 9794 O 1754.46 6.7751 -3.72168 0
M  V30 9795 C 1753.52 7.20825 -2.7076 0
M  V30 9796 C 1754.25 7.45864 -1.40599 0
M  V30 9797 O 1754.46 6.17651 -0.734225 0
M  V30 9798 C 1755.65 8.05808 -1.51899 0
M  V30 9799 O 1756.04 8.74358 -0.335205 0
M  V30 9800 C 1756.53 6.83093 -1.70294 0
M  V30 9801 C 1755.82 5.79992 -0.836974 0
M  V30 9802 N 1755.87 4.41864 -1.38293 0
M  V30 9803 H 1753.03 8.13644 -3.0377 0
M  V30 9804 H 1752.76 6.42788 -2.55485 0
M  V30 9805 H 1753.63 8.12039 -0.792769 0
M  V30 9806 P 1757.59 8.91 -1.40415e-11 0
M  V30 9807 O 1757.81 10.1726 0.733694 0
M  V30 9808 O 1758.38 8.73148 -1.23936 0
M  V30 9809 O 1757.84 7.66872 0.971405 0
M  V30 9810 C 1756.9 7.42309 2.04641 0
M  V30 9811 C 1757.63 6.86059 3.24661 0
M  V30 9812 O 1757.84 5.42847 3.03646 0
M  V30 9813 C 1759.03 7.41196 3.50753 0
M  V30 9814 O 1759.42 7.27073 4.86816 0
M  V30 9815 C 1759.91 6.5273 2.63741 0
M  V30 9816 C 1759.2 5.1842 2.73198 0
M  V30 9817 N 1759.25 4.38762 1.4784 0
M  V30 9818 H 1756.41 8.36803 2.32493 0
M  V30 9819 H 1756.14 6.70197 1.71129 0
M  V30 9820 H 1757.01 7.03551 4.13168 0
M  V30 9821 P 1760.97 7.20834 5.23717 0
M  V30 9822 O 1761.19 7.79853 6.57286 0
M  V30 9823 O 1761.76 7.79239 4.12957 0
M  V30 9824 O 1761.22 5.63315 5.29344 0
M  V30 9825 C 1760.28 4.80255 6.01876 0
M  V30 9826 C 1761.01 3.64202 6.65911 0
M  V30 9827 O 1761.22 2.60694 5.64732 0
M  V30 9828 C 1762.41 3.93473 7.1943 0
M  V30 9829 O 1762.8 3.02071 8.21205 0
M  V30 9830 C 1763.29 3.73047 5.97036 0
M  V30 9831 C 1762.58 2.58828 5.25741 0
M  V30 9832 N 1762.63 2.68068 3.77503 0
M  V30 9833 H 1759.79 5.40332 6.79951 0
M  V30 9834 H 1759.52 4.41613 5.32378 0
M  V30 9835 H 1760.39 3.26331 7.47797 0
M  V30 9836 P 1764.35 2.75334 8.47391 0
M  V30 9837 O 1764.57 2.44571 9.90142 0
M  V30 9838 O 1765.14 3.87688 7.92115 0
M  V30 9839 O 1764.6 1.4459 7.59357 0
M  V30 9840 C 1763.66 0.347608 7.69215 0
M  V30 9841 C 1764.39 -0.96767 7.52806 0
M  V30 9842 O 1764.6 -1.21036 6.1011 0
M  V30 9843 C 1765.79 -1.04544 8.13308 0
M  V30 9844 O 1766.18 -2.38311 8.41922 0
M  V30 9845 C 1766.67 -0.491279 7.02284 0
M  V30 9846 C 1765.96 -0.996264 5.77469 0
M  V30 9847 N 1766.01 -0.0501916 4.62973 0
M  V30 9848 H 1763.17 0.374722 8.67691 0
M  V30 9849 H 1762.9 0.443485 6.90277 0
M  V30 9850 H 1763.77 -1.75537 7.96793 0
M  V30 9851 P 1767.73 -2.75334 8.47391 0
M  V30 9852 O 1767.95 -3.84204 9.44982 0
M  V30 9853 O 1768.52 -1.51982 8.68909 0
M  V30 9854 O 1767.98 -3.29363 6.99321 0
M  V30 9855 C 1767.04 -4.24066 6.42823 0
M  V30 9856 C 1767.77 -5.20775 5.52155 0
M  V30 9857 O 1767.98 -4.56607 4.22514 0
M  V30 9858 C 1769.17 -5.62697 5.96604 0
M  V30 9859 O 1769.56 -6.87667 5.41053 0
M  V30 9860 C 1770.05 -4.52537 5.39283 0
M  V30 9861 C 1769.34 -4.20027 4.08623 0
M  V30 9862 N 1769.39 -2.76189 3.71603 0
M  V30 9863 H 1766.55 -4.79756 7.24086 0
M  V30 9864 H 1766.28 -3.69963 5.84682 0
M  V30 9865 H 1767.15 -6.10431 5.41508 0
M  V30 9866 H 1769.8 -4.78816 3.28024 0
M  V30 9867 H 1770.08 -3.64957 6.05871 0
M  V30 9868 H 1771.07 -4.88748 5.21323 0
M  V30 9869 H 1769.24 -5.66789 7.0643 0
M  V30 9870 P 1771.11 -7.20834 5.23717 0
M  V30 9871 O 1771.33 -8.66104 5.38572 0
M  V30 9872 O 1771.9 -6.33544 6.1349 0
M  V30 9873 O 1771.36 -6.7751 3.72168 0
M  V30 9874 C 1770.42 -7.20825 2.7076 0
M  V30 9875 C 1771.15 -7.45864 1.40599 0
M  V30 9876 O 1771.36 -6.17651 0.734225 0
M  V30 9877 C 1772.55 -8.05808 1.51899 0
M  V30 9878 O 1772.94 -8.74358 0.335205 0
M  V30 9879 C 1773.43 -6.83093 1.70294 0
M  V30 9880 C 1772.72 -5.79992 0.836974 0
M  V30 9881 N 1772.77 -4.41864 1.38293 0
M  V30 9882 C 1772.69 -3.99538 2.69438 0
M  V30 9883 N 1772.77 -2.69909 2.84277 0
M  V30 9884 C 1772.91 -2.21719 1.5408 0
M  V30 9885 C 1773.04 -0.891712 1.06628 0
M  V30 9886 N 1773.16 -0.856846 -0.334985 0
M  V30 9887 C 1773.16 -1.9641 -1.15789 0
M  V30 9888 N 1773.29 -1.72708 -2.46522 0
M  V30 9889 N 1773.03 -3.21165 -0.713741 0
M  V30 9890 C 1772.91 -3.26797 0.639748 0
M  V30 9891 H 1769.93 -8.13644 3.0377 0
M  V30 9892 H 1769.66 -6.42788 2.55485 0
M  V30 9893 H 1770.53 -8.12039 0.792769 0
M  V30 9894 P 1774.49 -8.91 1.51505e-11 0
M  V30 9895 O 1774.71 -10.1726 -0.733694 0
M  V30 9896 O 1775.28 -8.73148 1.23936 0
M  V30 9897 O 1774.74 -7.66872 -0.971405 0
M  V30 9898 C 1773.8 -7.42309 -2.04641 0
M  V30 9899 C 1774.53 -6.86059 -3.24661 0
M  V30 9900 O 1774.74 -5.42847 -3.03646 0
M  V30 9901 C 1775.93 -7.41196 -3.50753 0
M  V30 9902 O 1776.32 -7.27073 -4.86816 0
M  V30 9903 C 1776.81 -6.5273 -2.63741 0
M  V30 9904 C 1776.1 -5.1842 -2.73198 0
M  V30 9905 N 1776.15 -4.38762 -1.4784 0
M  V30 9906 H 1773.31 -8.36803 -2.32493 0
M  V30 9907 H 1773.04 -6.70197 -1.71129 0
M  V30 9908 H 1773.91 -7.03551 -4.13168 0
M  V30 9909 P 1777.87 -7.20834 -5.23717 0
M  V30 9910 O 1778.09 -7.79853 -6.57286 0
M  V30 9911 O 1778.66 -7.79239 -4.12957 0
M  V30 9912 O 1778.12 -5.63315 -5.29344 0
M  V30 9913 C 1777.18 -4.80255 -6.01876 0
M  V30 9914 C 1777.91 -3.64202 -6.65911 0
M  V30 9915 O 1778.12 -2.60694 -5.64732 0
M  V30 9916 C 1779.31 -3.93473 -7.1943 0
M  V30 9917 O 1779.7 -3.02071 -8.21205 0
M  V30 9918 C 1780.19 -3.73047 -5.97036 0
M  V30 9919 C 1779.48 -2.58828 -5.25741 0
M  V30 9920 N 1779.53 -2.68068 -3.77503 0
M  V30 9921 H 1776.69 -5.40332 -6.79951 0
M  V30 9922 H 1776.42 -4.41613 -5.32378 0
M  V30 9923 H 1777.29 -3.26331 -7.47797 0
M  V30 9924 P 1781.25 -2.75334 -8.47391 0
M  V30 9925 O 1781.47 -2.44619 -9.90336 0
M  V30 9926 O 1782.04 -3.87776 -7.92294 0
M  V30 9927 O 1781.5 -1.4459 -7.59357 0
M  V30 9928 C 1780.56 -0.347653 -7.69315 0
M  V30 9929 C 1781.29 0.96767 -7.52806 0
M  V30 9930 O 1781.5 1.21055 -6.10208 0
M  V30 9931 C 1782.69 1.04557 -8.13408 0
M  V30 9932 O 1783.08 2.38311 -8.41922 0
M  V30 9933 C 1783.57 0.491279 -7.02284 0
M  V30 9934 C 1782.86 0.996264 -5.77469 0
M  V30 9935 N 1782.91 0.0501916 -4.62973 0
M  V30 9936 C 1782.83 -1.31969 -4.65661 0
M  V30 9937 N 1782.9 -1.86649 -3.48119 0
M  V30 9938 C 1783.05 -0.792089 -2.62406 0
M  V30 9939 C 1783.18 -0.705684 -1.2207 0
M  V30 9940 N 1783.19 -1.76207 -0.413762 0
M  V30 9941 N 1783.3 0.518981 -0.685754 0
M  V30 9942 C 1783.29 1.57595 -1.49174 0
M  V30 9943 N 1783.17 1.62909 -2.80066 0
M  V30 9944 C 1783.05 0.388195 -3.3073 0
M  V30 9945 H 1780.07 -0.374765 -8.67791 0
M  V30 9946 H 1779.8 -0.443613 -6.90476 0
M  V30 9947 H 1780.67 1.75559 -7.96891 0
M  V30 9948 H 1783.32 1.94563 -5.46818 0
M  V30 9949 H 1783.6 -0.608651 -7.04676 0
M  V30 9950 H 1784.59 0.889796 -7.09039 0
M  V30 9951 H 1782.76 0.433128 -9.04664 0
M  V30 9952 H 1782.72 -1.89246 -5.57664 0
M  V30 9953 H 1783.1 -2.71005 -0.804694 0
M  V30 9954 H 1783.29 -1.63189 0.603768 0
M  V30 9955 H 1783.4 2.53475 -0.997614 0
M  V30 9956 P 1784.63 2.75334 -8.47391 0
M  V30 9957 O 1784.85 3.84204 -9.44982 0
M  V30 9958 O 1785.42 1.51982 -8.68909 0
M  V30 9959 O 1784.88 3.29363 -6.99321 0
M  V30 9960 C 1783.94 4.24066 -6.42823 0
M  V30 9961 C 1784.67 5.20775 -5.52155 0
M  V30 9962 O 1784.88 4.56607 -4.22514 0
M  V30 9963 C 1786.07 5.62697 -5.96604 0
M  V30 9964 O 1786.46 6.87667 -5.41053 0
M  V30 9965 C 1786.95 4.52537 -5.39283 0
M  V30 9966 C 1786.24 4.20027 -4.08623 0
M  V30 9967 N 1786.29 2.76189 -3.71603 0
M  V30 9968 C 1786.21 1.66944 -4.54297 0
M  V30 9969 N 1786.28 0.536169 -3.91344 0
M  V30 9970 C 1786.43 0.901569 -2.58849 0
M  V30 9971 C 1786.56 0.146599 -1.40236 0
M  V30 9972 N 1786.57 -1.18234 -1.37046 0
M  V30 9973 N 1786.68 0.822941 -0.249738 0
M  V30 9974 C 1786.67 2.15179 -0.280525 0
M  V30 9975 N 1786.55 2.96414 -1.30822 0
M  V30 9976 C 1786.43 2.25804 -2.44748 0
M  V30 9977 H 1783.45 4.79756 -7.24086 0
M  V30 9978 H 1783.18 3.69963 -5.84682 0
M  V30 9979 H 1784.05 6.10431 -5.41508 0
M  V30 9980 H 1786.7 4.78816 -3.28024 0
M  V30 9981 H 1786.98 3.64957 -6.05871 0
M  V30 9982 H 1787.97 4.88748 -5.21323 0
M  V30 9983 H 1786.14 5.66789 -7.0643 0
M  V30 9984 H 1786.1 1.74684 -5.62396 0
M  V30 9985 H 1786.48 -1.71949 -2.24394 0
M  V30 9986 H 1786.67 -1.67511 -0.470742 0
M  V30 9987 H 1786.78 2.63704 0.6828 0
M  V30 9988 P 1788.01 7.20834 -5.23717 0
M  V30 9989 O 1788.23 8.66104 -5.38572 0
M  V30 9990 O 1788.8 6.33544 -6.1349 0
M  V30 9991 O 1788.26 6.7751 -3.72168 0
M  V30 9992 C 1787.32 7.20825 -2.7076 0
M  V30 9993 C 1788.05 7.45864 -1.40599 0
M  V30 9994 O 1788.26 6.17651 -0.734225 0
M  V30 9995 C 1789.45 8.05808 -1.51899 0
M  V30 9996 O 1789.84 8.74358 -0.335205 0
M  V30 9997 C 1790.33 6.83093 -1.70294 0
M  V30 9998 C 1789.62 5.79992 -0.836974 0
M  V30 9999 N 1789.67 4.41864 -1.38293 0
M  V30 10000 C 1789.59 3.99538 -2.69438 0
M  V30 10001 N 1789.67 2.69909 -2.84277 0
M  V30 10002 C 1789.81 2.21719 -1.5408 0
M  V30 10003 C 1789.94 0.891712 -1.06628 0
M  V30 10004 N 1790.06 0.856846 0.334985 0
M  V30 10005 C 1790.06 1.9641 1.15789 0
M  V30 10006 N 1790.19 1.72708 2.46522 0
M  V30 10007 N 1789.93 3.21165 0.713741 0
M  V30 10008 C 1789.81 3.26797 -0.639748 0
M  V30 10009 H 1786.83 8.13644 -3.0377 0
M  V30 10010 H 1786.56 6.42788 -2.55485 0
M  V30 10011 H 1787.43 8.12039 -0.792769 0
M  V30 10012 P 1791.39 8.91 -1.62595e-11 0
M  V30 10013 O 1791.61 10.1726 0.733694 0
M  V30 10014 O 1792.18 8.73148 -1.23936 0
M  V30 10015 O 1791.64 7.66872 0.971405 0
M  V30 10016 C 1790.7 7.42309 2.04641 0
M  V30 10017 C 1791.43 6.86059 3.24661 0
M  V30 10018 O 1791.64 5.42847 3.03646 0
M  V30 10019 C 1792.83 7.41196 3.50753 0
M  V30 10020 O 1793.22 7.27073 4.86816 0
M  V30 10021 C 1793.71 6.5273 2.63741 0
M  V30 10022 C 1793 5.1842 2.73198 0
M  V30 10023 N 1793.05 4.38762 1.4784 0
M  V30 10024 H 1790.21 8.36803 2.32493 0
M  V30 10025 H 1789.94 6.70197 1.71129 0
M  V30 10026 H 1790.81 7.03551 4.13168 0
M  V30 10027 P 1794.77 7.20834 5.23717 0
M  V30 10028 O 1794.99 7.7993 6.57351 0
M  V30 10029 O 1795.56 7.79328 4.13004 0
M  V30 10030 O 1795.02 5.63315 5.29344 0
M  V30 10031 C 1794.08 4.80255 6.01876 0
M  V30 10032 C 1794.81 3.64202 6.65911 0
M  V30 10033 O 1795.02 2.60694 5.64732 0
M  V30 10034 C 1796.21 3.93473 7.1943 0
M  V30 10035 O 1796.6 3.02071 8.21205 0
M  V30 10036 C 1797.09 3.73047 5.97036 0
M  V30 10037 C 1796.38 2.58828 5.25741 0
M  V30 10038 N 1796.43 2.6801 3.77422 0
M  V30 10039 C 1796.58 1.50173 3.05038 0
M  V30 10040 O 1796.67 0.428832 3.665 0
M  V30 10041 N 1796.63 1.70922 1.55541 0
M  V30 10042 C 1796.53 2.7407 1.06402 0
M  V30 10043 N 1796.58 2.74764 -0.260931 0
M  V30 10044 C 1796.38 3.96781 1.78296 0
M  V30 10045 C 1796.33 3.87909 3.13891 0
M  V30 10046 H 1793.59 5.4027 6.79873 0
M  V30 10047 H 1793.32 4.41549 5.32301 0
M  V30 10048 H 1794.19 3.26371 7.47889 0
M  V30 10049 H 1796.84 1.63978 5.5665 0
M  V30 10050 H 1797.12 4.63439 5.3432 0
M  V30 10051 H 1798.11 3.44728 6.25838 0
M  V30 10052 H 1796.28 4.96652 7.57263 0
M  V30 10053 H 1796.21 4.78425 3.73088 0
M  V30 10054 H 1796.31 4.92593 1.26997 0
M  V30 10055 H 1796.7 1.86285 -0.77595 0
M  V30 10056 H 1796.5 3.63657 -0.773896 0
M  V30 10057 P 1798.15 2.75334 8.47391 0
M  V30 10058 O 1798.37 2.44619 9.90336 0
M  V30 10059 O 1798.94 3.87776 7.92294 0
M  V30 10060 O 1798.4 1.4459 7.59357 0
M  V30 10061 C 1797.46 0.347653 7.69315 0
M  V30 10062 C 1798.19 -0.96767 7.52806 0
M  V30 10063 O 1798.4 -1.21055 6.10208 0
M  V30 10064 C 1799.59 -1.04557 8.13408 0
M  V30 10065 O 1799.98 -2.38311 8.41922 0
M  V30 10066 C 1800.47 -0.491279 7.02284 0
M  V30 10067 C 1799.76 -0.996264 5.77469 0
M  V30 10068 N 1799.81 -0.0501916 4.62973 0
M  V30 10069 H 1796.97 0.374765 8.67791 0
M  V30 10070 H 1796.7 0.443613 6.90476 0
M  V30 10071 H 1797.57 -1.75559 7.96891 0
M  V30 10072 H 1800.22 -1.94563 5.46818 0
M  V30 10073 H 1800.5 0.608651 7.04676 0
M  V30 10074 H 1801.49 -0.889796 7.09039 0
M  V30 10075 H 1799.66 -0.433128 9.04664 0
M  V30 10076 P 1801.53 -2.75334 8.47391 0
M  V30 10077 O 1801.75 -3.84128 9.44797 0
M  V30 10078 O 1802.32 -1.51947 8.68712 0
M  V30 10079 O 1801.78 -3.29363 6.99321 0
M  V30 10080 C 1800.84 -4.24011 6.4274 0
M  V30 10081 C 1801.57 -5.20775 5.52155 0
M  V30 10082 O 1801.78 -4.56534 4.22446 0
M  V30 10083 C 1802.97 -5.62629 5.96531 0
M  V30 10084 O 1803.36 -6.87667 5.41053 0
M  V30 10085 C 1803.85 -4.52537 5.39283 0
M  V30 10086 C 1803.14 -4.20027 4.08623 0
M  V30 10087 N 1803.19 -2.76189 3.71603 0
M  V30 10088 H 1800.35 -4.797 7.24003 0
M  V30 10089 H 1800.08 -3.69856 5.84513 0
M  V30 10090 H 1800.95 -6.10356 5.41441 0
M  V30 10091 P 1804.91 -7.20834 5.23717 0
M  V30 10092 O 1805.13 -8.66104 5.38572 0
M  V30 10093 O 1805.7 -6.33544 6.1349 0
M  V30 10094 O 1805.16 -6.7751 3.72168 0
M  V30 10095 C 1804.22 -7.20825 2.7076 0
M  V30 10096 C 1804.95 -7.45864 1.40599 0
M  V30 10097 O 1805.16 -6.17651 0.734225 0
M  V30 10098 C 1806.35 -8.05808 1.51899 0
M  V30 10099 O 1806.74 -8.74358 0.335205 0
M  V30 10100 C 1807.23 -6.83093 1.70294 0
M  V30 10101 C 1806.52 -5.79992 0.836974 0
M  V30 10102 N 1806.57 -4.41864 1.38293 0
M  V30 10103 H 1803.73 -8.13644 3.0377 0
M  V30 10104 H 1803.46 -6.42788 2.55485 0
M  V30 10105 H 1804.33 -8.12039 0.792769 0
M  V30 10106 P 1808.29 -8.91 1.73686e-11 0
M  V30 10107 O 1808.51 -10.1726 -0.733694 0
M  V30 10108 O 1809.08 -8.73148 1.23936 0
M  V30 10109 O 1808.54 -7.66872 -0.971405 0
M  V30 10110 C 1807.6 -7.42309 -2.04641 0
M  V30 10111 C 1808.33 -6.86059 -3.24661 0
M  V30 10112 O 1808.54 -5.42847 -3.03646 0
M  V30 10113 C 1809.73 -7.41196 -3.50753 0
M  V30 10114 O 1810.12 -7.27073 -4.86816 0
M  V30 10115 C 1810.61 -6.5273 -2.63741 0
M  V30 10116 C 1809.9 -5.1842 -2.73198 0
M  V30 10117 N 1809.95 -4.38762 -1.4784 0
M  V30 10118 H 1807.11 -8.36803 -2.32493 0
M  V30 10119 H 1806.84 -6.70197 -1.71129 0
M  V30 10120 H 1807.71 -7.03551 -4.13168 0
M  V30 10121 P 1811.67 -7.20834 -5.23717 0
M  V30 10122 O 1811.89 -7.79853 -6.57286 0
M  V30 10123 O 1812.46 -7.79239 -4.12957 0
M  V30 10124 O 1811.92 -5.63315 -5.29344 0
M  V30 10125 C 1810.98 -4.80255 -6.01876 0
M  V30 10126 C 1811.71 -3.64202 -6.65911 0
M  V30 10127 O 1811.92 -2.60694 -5.64732 0
M  V30 10128 C 1813.11 -3.93473 -7.1943 0
M  V30 10129 O 1813.5 -3.02071 -8.21205 0
M  V30 10130 C 1813.99 -3.73047 -5.97036 0
M  V30 10131 C 1813.28 -2.58828 -5.25741 0
M  V30 10132 N 1813.33 -2.68068 -3.77503 0
M  V30 10133 H 1810.49 -5.40332 -6.79951 0
M  V30 10134 H 1810.22 -4.41613 -5.32378 0
M  V30 10135 H 1811.09 -3.26331 -7.47797 0
M  V30 10136 P 1815.05 -2.75334 -8.47391 0
M  V30 10137 O 1815.27 -2.44571 -9.90142 0
M  V30 10138 O 1815.84 -3.87688 -7.92115 0
M  V30 10139 O 1815.3 -1.4459 -7.59357 0
M  V30 10140 C 1814.36 -0.347608 -7.69215 0
M  V30 10141 C 1815.09 0.96767 -7.52806 0
M  V30 10142 O 1815.3 1.21036 -6.1011 0
M  V30 10143 C 1816.49 1.04544 -8.13308 0
M  V30 10144 O 1816.88 2.38311 -8.41922 0
M  V30 10145 C 1817.37 0.491279 -7.02284 0
M  V30 10146 C 1816.66 0.996264 -5.77469 0
M  V30 10147 N 1816.71 0.0501916 -4.62973 0
M  V30 10148 H 1813.87 -0.374722 -8.67691 0
M  V30 10149 H 1813.6 -0.443485 -6.90277 0
M  V30 10150 H 1814.47 1.75537 -7.96793 0
M  V30 10151 P 1818.43 2.75334 -8.47391 0
M  V30 10152 O 1818.65 3.84166 -9.4489 0
M  V30 10153 O 1819.22 1.51964 -8.6881 0
M  V30 10154 O 1818.68 3.29363 -6.99321 0
M  V30 10155 C 1817.74 4.23956 -6.42656 0
M  V30 10156 C 1818.47 5.20775 -5.52155 0
M  V30 10157 O 1818.68 4.56534 -4.22446 0
M  V30 10158 C 1819.87 5.62629 -5.96531 0
M  V30 10159 O 1820.26 6.87667 -5.41053 0
M  V30 10160 C 1820.75 4.52537 -5.39283 0
M  V30 10161 C 1820.04 4.20027 -4.08623 0
M  V30 10162 N 1820.09 2.7613 -3.71522 0
M  V30 10163 C 1820.24 2.45612 -2.37989 0
M  V30 10164 O 1820.33 3.30919 -1.51621 0
M  V30 10165 N 1820.28 1.10684 -2.08435 0
M  V30 10166 C 1820.19 0.0690084 -2.9792 0
M  V30 10167 O 1820.24 -1.10553 -2.59426 0
M  V30 10168 C 1820.04 0.481522 -4.35345 0
M  V30 10169 C 1819.93 -0.618778 -5.36443 0
M  V30 10170 C 1819.99 1.78906 -4.67968 0
M  V30 10171 H 1817.25 4.797 -7.24003 0
M  V30 10172 H 1816.98 3.69802 -5.84429 0
M  V30 10173 H 1817.85 6.10356 -5.41441 0
M  V30 10174 H 1820.5 4.78651 -3.27911 0
M  V30 10175 H 1820.78 3.64957 -6.05871 0
M  V30 10176 H 1821.77 4.8868 -5.2125 0
M  V30 10177 H 1819.94 5.66726 -7.06352 0
M  V30 10178 H 1819.87 2.07737 -5.72367 0
M  V30 10179 H 1820.9 -0.754375 -5.86871 0
M  V30 10180 H 1819.16 -0.359721 -6.10641 0
M  V30 10181 H 1819.65 -1.55533 -4.8581 0
M  V30 10182 H 1820.39 0.862651 -1.12037 0
M  V30 10183 P 1821.81 7.20834 -5.23717 0
M  V30 10184 O 1822.03 8.66104 -5.38572 0
M  V30 10185 O 1822.6 6.33544 -6.1349 0
M  V30 10186 O 1822.06 6.7751 -3.72168 0
M  V30 10187 C 1821.12 7.20825 -2.7076 0
M  V30 10188 C 1821.85 7.45864 -1.40599 0
M  V30 10189 O 1822.06 6.17651 -0.734225 0
M  V30 10190 C 1823.25 8.05808 -1.51899 0
M  V30 10191 O 1823.64 8.74358 -0.335205 0
M  V30 10192 C 1824.13 6.83093 -1.70294 0
M  V30 10193 C 1823.42 5.79992 -0.836974 0
M  V30 10194 N 1823.47 4.41864 -1.38293 0
M  V30 10195 H 1820.63 8.13644 -3.0377 0
M  V30 10196 H 1820.36 6.42788 -2.55485 0
M  V30 10197 H 1821.23 8.12039 -0.792769 0
M  V30 10198 P 1825.19 8.91 -1.84776e-11 0
M  V30 10199 O 1825.41 10.1726 0.733694 0
M  V30 10200 O 1825.98 8.73148 -1.23936 0
M  V30 10201 O 1825.44 7.66872 0.971405 0
M  V30 10202 C 1824.5 7.42309 2.04641 0
M  V30 10203 C 1825.23 6.86059 3.24661 0
M  V30 10204 O 1825.44 5.42847 3.03646 0
M  V30 10205 C 1826.63 7.41196 3.50753 0
M  V30 10206 O 1827.02 7.27073 4.86816 0
M  V30 10207 C 1827.51 6.5273 2.63741 0
M  V30 10208 C 1826.8 5.1842 2.73198 0
M  V30 10209 N 1826.85 4.38762 1.4784 0
M  V30 10210 H 1824.01 8.36803 2.32493 0
M  V30 10211 H 1823.74 6.70197 1.71129 0
M  V30 10212 H 1824.61 7.03551 4.13168 0
M  V30 10213 P 1828.57 7.20834 5.23717 0
M  V30 10214 O 1828.79 7.79853 6.57286 0
M  V30 10215 O 1829.36 7.79239 4.12957 0
M  V30 10216 O 1828.82 5.63315 5.29344 0
M  V30 10217 C 1827.88 4.80255 6.01876 0
M  V30 10218 C 1828.61 3.64202 6.65911 0
M  V30 10219 O 1828.82 2.60694 5.64732 0
M  V30 10220 C 1830.01 3.93473 7.1943 0
M  V30 10221 O 1830.4 3.02071 8.21205 0
M  V30 10222 C 1830.89 3.73047 5.97036 0
M  V30 10223 C 1830.18 2.58828 5.25741 0
M  V30 10224 N 1830.23 2.68068 3.77503 0
M  V30 10225 H 1827.39 5.40332 6.79951 0
M  V30 10226 H 1827.12 4.41613 5.32378 0
M  V30 10227 H 1827.99 3.26331 7.47797 0
M  V30 10228 P 1831.95 2.75334 8.47391 0
M  V30 10229 O 1832.17 2.44619 9.90336 0
M  V30 10230 O 1832.74 3.87776 7.92294 0
M  V30 10231 O 1832.2 1.4459 7.59357 0
M  V30 10232 C 1831.26 0.347653 7.69315 0
M  V30 10233 C 1831.99 -0.96767 7.52806 0
M  V30 10234 O 1832.2 -1.21055 6.10208 0
M  V30 10235 C 1833.39 -1.04557 8.13408 0
M  V30 10236 O 1833.78 -2.38311 8.41922 0
M  V30 10237 C 1834.27 -0.491279 7.02284 0
M  V30 10238 C 1833.56 -0.996264 5.77469 0
M  V30 10239 N 1833.61 -0.0501916 4.62973 0
M  V30 10240 C 1833.53 1.31969 4.65661 0
M  V30 10241 N 1833.6 1.86649 3.48119 0
M  V30 10242 C 1833.75 0.792089 2.62406 0
M  V30 10243 C 1833.88 0.705684 1.2207 0
M  V30 10244 N 1833.89 1.76207 0.413762 0
M  V30 10245 N 1834 -0.518981 0.685754 0
M  V30 10246 C 1833.99 -1.57595 1.49174 0
M  V30 10247 N 1833.87 -1.62909 2.80066 0
M  V30 10248 C 1833.75 -0.388195 3.3073 0
M  V30 10249 H 1830.77 0.374765 8.67791 0
M  V30 10250 H 1830.5 0.443613 6.90476 0
M  V30 10251 H 1831.37 -1.75559 7.96891 0
M  V30 10252 H 1834.02 -1.94563 5.46818 0
M  V30 10253 H 1834.3 0.608651 7.04676 0
M  V30 10254 H 1835.29 -0.889796 7.09039 0
M  V30 10255 H 1833.46 -0.433128 9.04664 0
M  V30 10256 H 1833.42 1.89246 5.57664 0
M  V30 10257 H 1833.8 2.71005 0.804694 0
M  V30 10258 H 1833.99 1.63189 -0.603768 0
M  V30 10259 H 1834.1 -2.53475 0.997614 0
M  V30 10260 P 1835.33 -2.75334 8.47391 0
M  V30 10261 O 1835.55 -3.84128 9.44797 0
M  V30 10262 O 1836.12 -1.51947 8.68712 0
M  V30 10263 O 1835.58 -3.29363 6.99321 0
M  V30 10264 C 1834.64 -4.24011 6.4274 0
M  V30 10265 C 1835.37 -5.20775 5.52155 0
M  V30 10266 O 1835.58 -4.56534 4.22446 0
M  V30 10267 C 1836.77 -5.62629 5.96531 0
M  V30 10268 O 1837.16 -6.87667 5.41053 0
M  V30 10269 C 1837.65 -4.52537 5.39283 0
M  V30 10270 C 1836.94 -4.20027 4.08623 0
M  V30 10271 N 1836.99 -2.76189 3.71603 0
M  V30 10272 H 1834.15 -4.797 7.24003 0
M  V30 10273 H 1833.88 -3.69856 5.84513 0
M  V30 10274 H 1834.75 -6.10356 5.41441 0
M  V30 10275 P 1838.71 -7.20834 5.23717 0
M  V30 10276 O 1838.93 -8.66104 5.38572 0
M  V30 10277 O 1839.5 -6.33544 6.1349 0
M  V30 10278 O 1838.96 -6.7751 3.72168 0
M  V30 10279 C 1838.02 -7.20825 2.7076 0
M  V30 10280 C 1838.75 -7.45864 1.40599 0
M  V30 10281 O 1838.96 -6.17651 0.734225 0
M  V30 10282 C 1840.15 -8.05808 1.51899 0
M  V30 10283 O 1840.54 -8.74358 0.335205 0
M  V30 10284 C 1841.03 -6.83093 1.70294 0
M  V30 10285 C 1840.32 -5.79992 0.836974 0
M  V30 10286 N 1840.37 -4.41864 1.38293 0
M  V30 10287 H 1837.53 -8.13644 3.0377 0
M  V30 10288 H 1837.26 -6.42788 2.55485 0
M  V30 10289 H 1838.13 -8.12039 0.792769 0
M  V30 10290 P 1842.09 -8.91 1.95866e-11 0
M  V30 10291 O 1842.31 -10.1726 -0.733694 0
M  V30 10292 O 1842.88 -8.73148 1.23936 0
M  V30 10293 O 1842.34 -7.66872 -0.971405 0
M  V30 10294 C 1841.4 -7.42309 -2.04641 0
M  V30 10295 C 1842.13 -6.86059 -3.24661 0
M  V30 10296 O 1842.34 -5.42847 -3.03646 0
M  V30 10297 C 1843.53 -7.41196 -3.50753 0
M  V30 10298 O 1843.92 -7.27073 -4.86816 0
M  V30 10299 C 1844.41 -6.5273 -2.63741 0
M  V30 10300 C 1843.7 -5.1842 -2.73198 0
M  V30 10301 N 1843.75 -4.38762 -1.4784 0
M  V30 10302 C 1843.67 -4.81605 -0.168631 0
M  V30 10303 N 1843.75 -3.85454 0.713363 0
M  V30 10304 C 1843.89 -2.6994 -0.0566958 0
M  V30 10305 C 1844.02 -1.34815 0.338502 0
M  V30 10306 O 1844.04 -0.869548 1.47125 0
M  V30 10307 N 1844.14 -0.496304 -0.77465 0
M  V30 10308 C 1844.14 -0.908403 -2.09122 0
M  V30 10309 N 1844.27 0.0517805 -3.00955 0
M  V30 10310 N 1844.01 -2.17875 -2.46519 0
M  V30 10311 C 1843.89 -3.01988 -1.4033 0
M  V30 10312 H 1840.91 -8.36803 -2.32493 0
M  V30 10313 H 1840.64 -6.70197 -1.71129 0
M  V30 10314 H 1841.51 -7.03551 -4.13168 0
M  V30 10315 H 1844.16 -4.59498 -3.54415 0
M  V30 10316 H 1844.44 -6.88898 -1.59848 0
M  V30 10317 H 1845.43 -6.46749 -3.03687 0
M  V30 10318 H 1843.6 -8.46908 -3.20714 0
M  V30 10319 H 1843.55 -5.86405 0.105564 0
M  V30 10320 H 1844.23 0.483664 -0.597855 0
M  V30 10321 H 1844.27 -0.187865 -4.0116 0
M  V30 10322 H 1844.37 1.03585 -2.71726 0
M  V30 10323 P 1845.47 -7.20834 -5.23717 0
M  V30 10324 O 1845.69 -7.79853 -6.57286 0
M  V30 10325 O 1846.26 -7.79239 -4.12957 0
M  V30 10326 O 1845.72 -5.63315 -5.29344 0
M  V30 10327 C 1844.78 -4.80255 -6.01876 0
M  V30 10328 C 1845.51 -3.64202 -6.65911 0
M  V30 10329 O 1845.72 -2.60694 -5.64732 0
M  V30 10330 C 1846.91 -3.93473 -7.1943 0
M  V30 10331 O 1847.3 -3.02071 -8.21205 0
M  V30 10332 C 1847.79 -3.73047 -5.97036 0
M  V30 10333 C 1847.08 -2.58828 -5.25741 0
M  V30 10334 N 1847.13 -2.68068 -3.77503 0
M  V30 10335 H 1844.29 -5.40332 -6.79951 0
M  V30 10336 H 1844.02 -4.41613 -5.32378 0
M  V30 10337 H 1844.89 -3.26331 -7.47797 0
M  V30 10338 P 1848.85 -2.75334 -8.47391 0
M  V30 10339 O 1849.07 -2.44619 -9.90336 0
M  V30 10340 O 1849.64 -3.87776 -7.92294 0
M  V30 10341 O 1849.1 -1.4459 -7.59357 0
M  V30 10342 C 1848.16 -0.347653 -7.69315 0
M  V30 10343 C 1848.89 0.96767 -7.52806 0
M  V30 10344 O 1849.1 1.21055 -6.10208 0
M  V30 10345 C 1850.29 1.04557 -8.13408 0
M  V30 10346 O 1850.68 2.38311 -8.41922 0
M  V30 10347 C 1851.17 0.491279 -7.02284 0
M  V30 10348 C 1850.46 0.996264 -5.77469 0
M  V30 10349 N 1850.51 0.0501916 -4.62973 0
M  V30 10350 C 1850.43 -1.31969 -4.65661 0
M  V30 10351 N 1850.5 -1.86649 -3.48119 0
M  V30 10352 C 1850.65 -0.792089 -2.62406 0
M  V30 10353 C 1850.78 -0.705684 -1.2207 0
M  V30 10354 N 1850.79 -1.76207 -0.413762 0
M  V30 10355 N 1850.9 0.518981 -0.685754 0
M  V30 10356 C 1850.89 1.57595 -1.49174 0
M  V30 10357 N 1850.77 1.62909 -2.80066 0
M  V30 10358 C 1850.65 0.388195 -3.3073 0
M  V30 10359 H 1847.67 -0.374765 -8.67791 0
M  V30 10360 H 1847.4 -0.443613 -6.90476 0
M  V30 10361 H 1848.27 1.75559 -7.96891 0
M  V30 10362 H 1850.92 1.94563 -5.46818 0
M  V30 10363 H 1851.2 -0.608651 -7.04676 0
M  V30 10364 H 1852.19 0.889796 -7.09039 0
M  V30 10365 H 1850.36 0.433128 -9.04664 0
M  V30 10366 H 1850.32 -1.89246 -5.57664 0
M  V30 10367 H 1850.7 -2.71005 -0.804694 0
M  V30 10368 H 1850.89 -1.63189 0.603768 0
M  V30 10369 H 1851 2.53475 -0.997614 0
M  V30 10370 P 1852.23 2.75334 -8.47391 0
M  V30 10371 O 1852.45 3.84128 -9.44797 0
M  V30 10372 O 1853.02 1.51947 -8.68712 0
M  V30 10373 O 1852.48 3.29363 -6.99321 0
M  V30 10374 C 1851.54 4.24011 -6.4274 0
M  V30 10375 C 1852.27 5.20775 -5.52155 0
M  V30 10376 O 1852.48 4.56534 -4.22446 0
M  V30 10377 C 1853.67 5.62629 -5.96531 0
M  V30 10378 O 1854.06 6.87667 -5.41053 0
M  V30 10379 C 1854.55 4.52537 -5.39283 0
M  V30 10380 C 1853.84 4.20027 -4.08623 0
M  V30 10381 N 1853.89 2.76189 -3.71603 0
M  V30 10382 C 1853.81 1.64862 -4.52822 0
M  V30 10383 N 1853.89 0.512671 -3.88633 0
M  V30 10384 C 1854.03 0.888083 -2.54977 0
M  V30 10385 C 1854.16 0.094668 -1.38677 0
M  V30 10386 N 1854.28 0.890102 -0.232633 0
M  V30 10387 C 1854.28 2.26958 -0.21772 0
M  V30 10388 N 1854.41 2.84626 0.97925 0
M  V30 10389 N 1854.15 3.0178 -1.31033 0
M  V30 10390 C 1854.03 2.26781 -2.43843 0
M  V30 10391 H 1851.05 4.797 -7.24003 0
M  V30 10392 H 1850.78 3.69856 -5.84513 0
M  V30 10393 H 1851.65 6.10356 -5.41441 0
M  V30 10394 P 1855.61 7.20834 -5.23717 0
M  V30 10395 O 1855.83 8.66104 -5.38572 0
M  V30 10396 O 1856.4 6.33544 -6.1349 0
M  V30 10397 O 1855.86 6.7751 -3.72168 0
M  V30 10398 C 1854.92 7.20825 -2.7076 0
M  V30 10399 C 1855.65 7.45864 -1.40599 0
M  V30 10400 O 1855.86 6.17651 -0.734225 0
M  V30 10401 C 1857.05 8.05808 -1.51899 0
M  V30 10402 O 1857.44 8.74358 -0.335205 0
M  V30 10403 C 1857.93 6.83093 -1.70294 0
M  V30 10404 C 1857.22 5.79992 -0.836974 0
M  V30 10405 N 1857.27 4.41864 -1.38293 0
M  V30 10406 H 1854.43 8.13644 -3.0377 0
M  V30 10407 H 1854.16 6.42788 -2.55485 0
M  V30 10408 H 1855.03 8.12039 -0.792769 0
M  V30 10409 P 1858.99 8.91 -2.06956e-11 0
M  V30 10410 O 1859.21 10.1746 0.733838 0
M  V30 10411 O 1859.78 8.73346 -1.23964 0
M  V30 10412 O 1859.24 7.66872 0.971405 0
M  V30 10413 C 1858.3 7.42405 2.04668 0
M  V30 10414 C 1859.03 6.86059 3.24661 0
M  V30 10415 O 1859.24 5.42934 3.03695 0
M  V30 10416 C 1860.43 7.41287 3.50796 0
M  V30 10417 O 1860.82 7.27073 4.86816 0
M  V30 10418 C 1861.31 6.5273 2.63741 0
M  V30 10419 C 1860.6 5.1842 2.73198 0
M  V30 10420 N 1860.65 4.38762 1.4784 0
M  V30 10421 H 1857.81 8.36899 2.3252 0
M  V30 10422 H 1857.54 6.70391 1.71179 0
M  V30 10423 H 1858.41 7.03638 4.13219 0
M  V30 10424 H 1861.06 4.59931 3.54016 0
M  V30 10425 H 1861.34 6.88995 1.59871 0
M  V30 10426 H 1862.33 6.4684 3.0373 0
M  V30 10427 H 1860.5 8.47002 3.20749 0
M  V30 10428 P 1862.37 7.20834 5.23717 0
M  V30 10429 O 1862.59 7.7993 6.57351 0
M  V30 10430 O 1863.16 7.79328 4.13004 0
M  V30 10431 O 1862.62 5.63315 5.29344 0
M  V30 10432 C 1861.68 4.80193 6.01798 0
M  V30 10433 C 1862.41 3.64202 6.65911 0
M  V30 10434 O 1862.62 2.60694 5.64732 0
M  V30 10435 C 1863.81 3.93473 7.1943 0
M  V30 10436 O 1864.2 3.02071 8.21205 0
M  V30 10437 C 1864.69 3.73047 5.97036 0
M  V30 10438 C 1863.98 2.58828 5.25741 0
M  V30 10439 N 1864.03 2.6801 3.77422 0
M  V30 10440 C 1864.18 1.50443 3.07133 0
M  V30 10441 O 1864.27 0.419406 3.61576 0
M  V30 10442 N 1864.22 1.6403 1.69677 0
M  V30 10443 C 1864.13 2.81206 0.986255 0
M  V30 10444 C 1863.98 3.99158 1.80325 0
M  V30 10445 C 1863.93 3.89779 3.1476 0
M  V30 10446 H 1861.19 5.40332 6.79951 0
M  V30 10447 H 1860.92 4.41549 5.32301 0
M  V30 10448 H 1861.79 3.26331 7.47797 0
M  V30 10449 H 1864.44 1.6395 5.56554 0
M  V30 10450 H 1864.72 4.63439 5.3432 0
M  V30 10451 H 1865.71 3.44728 6.25838 0
M  V30 10452 H 1863.88 4.96652 7.57263 0
M  V30 10453 H 1863.81 4.80159 3.74441 0
M  V30 10454 P 1865.75 2.75334 8.47391 0
M  V30 10455 O 1865.97 2.44571 9.90142 0
M  V30 10456 O 1866.54 3.87688 7.92115 0
M  V30 10457 O 1866 1.4459 7.59357 0
M  V30 10458 C 1865.06 0.347608 7.69215 0
M  V30 10459 C 1865.79 -0.96767 7.52806 0
M  V30 10460 O 1866 -1.21036 6.1011 0
M  V30 10461 C 1867.19 -1.04544 8.13308 0
M  V30 10462 O 1867.58 -2.38311 8.41922 0
M  V30 10463 C 1868.07 -0.491279 7.02284 0
M  V30 10464 C 1867.36 -0.996264 5.77469 0
M  V30 10465 N 1867.41 -0.0501916 4.62973 0
M  V30 10466 H 1864.57 0.374722 8.67691 0
M  V30 10467 H 1864.3 0.443485 6.90277 0
M  V30 10468 H 1865.17 -1.75537 7.96793 0
M  V30 10469 P 1869.13 -2.75334 8.47391 0
M  V30 10470 O 1869.35 -3.84128 9.44797 0
M  V30 10471 O 1869.92 -1.51947 8.68712 0
M  V30 10472 O 1869.38 -3.29363 6.99321 0
M  V30 10473 C 1868.44 -4.24011 6.4274 0
M  V30 10474 C 1869.17 -5.20775 5.52155 0
M  V30 10475 O 1869.38 -4.56534 4.22446 0
M  V30 10476 C 1870.57 -5.62629 5.96531 0
M  V30 10477 O 1870.96 -6.87667 5.41053 0
M  V30 10478 C 1871.45 -4.52537 5.39283 0
M  V30 10479 C 1870.74 -4.20027 4.08623 0
M  V30 10480 N 1870.79 -2.76189 3.71603 0
M  V30 10481 H 1867.95 -4.797 7.24003 0
M  V30 10482 H 1867.68 -3.69856 5.84513 0
M  V30 10483 H 1868.55 -6.10356 5.41441 0
M  V30 10484 P 1872.51 -7.20834 5.23717 0
M  V30 10485 O 1872.73 -8.66104 5.38572 0
M  V30 10486 O 1873.3 -6.33544 6.1349 0
M  V30 10487 O 1872.76 -6.7751 3.72168 0
M  V30 10488 C 1871.82 -7.20825 2.7076 0
M  V30 10489 C 1872.55 -7.45864 1.40599 0
M  V30 10490 O 1872.76 -6.17651 0.734225 0
M  V30 10491 C 1873.95 -8.05808 1.51899 0
M  V30 10492 O 1874.34 -8.74358 0.335205 0
M  V30 10493 C 1874.83 -6.83093 1.70294 0
M  V30 10494 C 1874.12 -5.79992 0.836974 0
M  V30 10495 N 1874.17 -4.41864 1.38293 0
M  V30 10496 H 1871.33 -8.13644 3.0377 0
M  V30 10497 H 1871.06 -6.42788 2.55485 0
M  V30 10498 H 1871.93 -8.12039 0.792769 0
M  V30 10499 P 1875.89 -8.91 2.18046e-11 0
M  V30 10500 O 1876.11 -10.1736 -0.733766 0
M  V30 10501 O 1876.68 -8.73247 1.2395 0
M  V30 10502 O 1876.14 -7.66872 -0.971405 0
M  V30 10503 C 1875.2 -7.42212 -2.04614 0
M  V30 10504 C 1875.93 -6.86059 -3.24661 0
M  V30 10505 O 1876.14 -5.42847 -3.03646 0
M  V30 10506 C 1877.33 -7.41196 -3.50753 0
M  V30 10507 O 1877.72 -7.27073 -4.86816 0
M  V30 10508 C 1878.21 -6.5273 -2.63741 0
M  V30 10509 C 1877.5 -5.1842 -2.73198 0
M  V30 10510 N 1877.55 -4.38668 -1.47808 0
M  V30 10511 C 1877.7 -3.02239 -1.60048 0
M  V30 10512 O 1877.79 -2.46459 -2.67869 0
M  V30 10513 N 1877.74 -2.32436 -0.408571 0
M  V30 10514 C 1877.65 -2.85471 0.854993 0
M  V30 10515 C 1877.5 -4.28918 0.887335 0
M  V30 10516 C 1877.45 -5.00349 -0.255399 0
M  V30 10517 H 1874.71 -8.36803 -2.32493 0
M  V30 10518 H 1874.44 -6.701 -1.71105 0
M  V30 10519 H 1875.31 -7.03551 -4.13168 0
M  V30 10520 H 1877.96 -4.59773 -3.53894 0
M  V30 10521 H 1878.24 -6.88995 -1.59871 0
M  V30 10522 H 1879.23 -6.46749 -3.03687 0
M  V30 10523 H 1877.4 -8.46908 -3.20714 0
M  V30 10524 H 1877.33 -6.08548 -0.206986 0
M  V30 10525 P 1879.27 -7.20834 -5.23717 0
M  V30 10526 O 1879.49 -7.7993 -6.57351 0
M  V30 10527 O 1880.06 -7.79328 -4.13004 0
M  V30 10528 O 1879.52 -5.63315 -5.29344 0
M  V30 10529 C 1878.58 -4.80193 -6.01798 0
M  V30 10530 C 1879.31 -3.64202 -6.65911 0
M  V30 10531 O 1879.52 -2.60694 -5.64732 0
M  V30 10532 C 1880.71 -3.93473 -7.1943 0
M  V30 10533 O 1881.1 -3.02071 -8.21205 0
M  V30 10534 C 1881.59 -3.73047 -5.97036 0
M  V30 10535 C 1880.88 -2.58828 -5.25741 0
M  V30 10536 N 1880.93 -2.6801 -3.77422 0
M  V30 10537 C 1881.08 -1.50443 -3.07133 0
M  V30 10538 O 1881.17 -0.419406 -3.61576 0
M  V30 10539 N 1881.12 -1.6403 -1.69677 0
M  V30 10540 C 1881.03 -2.81206 -0.986255 0
M  V30 10541 C 1880.88 -3.99158 -1.80325 0
M  V30 10542 C 1880.83 -3.89779 -3.1476 0
M  V30 10543 H 1878.09 -5.40332 -6.79951 0
M  V30 10544 H 1877.82 -4.41549 -5.32301 0
M  V30 10545 H 1878.69 -3.26331 -7.47797 0
M  V30 10546 H 1881.34 -1.6395 -5.56554 0
M  V30 10547 H 1881.62 -4.63439 -5.3432 0
M  V30 10548 H 1882.61 -3.44728 -6.25838 0
M  V30 10549 H 1880.78 -4.96652 -7.57263 0
M  V30 10550 H 1880.71 -4.80159 -3.74441 0
M  V30 10551 P 1882.65 -2.75334 -8.47391 0
M  V30 10552 O 1882.87 -2.44571 -9.90142 0
M  V30 10553 O 1883.44 -3.87688 -7.92115 0
M  V30 10554 O 1882.9 -1.4459 -7.59357 0
M  V30 10555 C 1881.96 -0.347608 -7.69215 0
M  V30 10556 C 1882.69 0.96767 -7.52806 0
M  V30 10557 O 1882.9 1.21036 -6.1011 0
M  V30 10558 C 1884.09 1.04544 -8.13308 0
M  V30 10559 O 1884.48 2.38311 -8.41922 0
M  V30 10560 C 1884.97 0.491279 -7.02284 0
M  V30 10561 C 1884.26 0.996264 -5.77469 0
M  V30 10562 N 1884.31 0.0501916 -4.62973 0
M  V30 10563 H 1881.47 -0.374722 -8.67691 0
M  V30 10564 H 1881.2 -0.443485 -6.90277 0
M  V30 10565 H 1882.07 1.75537 -7.96793 0
M  V30 10566 P 1886.03 2.75334 -8.47391 0
M  V30 10567 O 1886.25 3.84128 -9.44797 0
M  V30 10568 O 1886.82 1.51947 -8.68712 0
M  V30 10569 O 1886.28 3.29363 -6.99321 0
M  V30 10570 C 1885.34 4.24011 -6.4274 0
M  V30 10571 C 1886.07 5.20775 -5.52155 0
M  V30 10572 O 1886.28 4.56534 -4.22446 0
M  V30 10573 C 1887.47 5.62629 -5.96531 0
M  V30 10574 O 1887.86 6.87667 -5.41053 0
M  V30 10575 C 1888.35 4.52537 -5.39283 0
M  V30 10576 C 1887.64 4.20027 -4.08623 0
M  V30 10577 N 1887.69 2.76189 -3.71603 0
M  V30 10578 H 1884.85 4.797 -7.24003 0
M  V30 10579 H 1884.58 3.69856 -5.84513 0
M  V30 10580 H 1885.45 6.10356 -5.41441 0
M  V30 10581 P 1889.41 7.20834 -5.23717 0
M  V30 10582 O 1889.63 8.66274 -5.38678 0
M  V30 10583 O 1890.2 6.33687 -6.13629 0
M  V30 10584 O 1889.66 6.7751 -3.72168 0
M  V30 10585 C 1888.72 7.20919 -2.70795 0
M  V30 10586 C 1889.45 7.45864 -1.40599 0
M  V30 10587 O 1889.66 6.17751 -0.734343 0
M  V30 10588 C 1890.85 8.05906 -1.51917 0
M  V30 10589 O 1891.24 8.74358 -0.335205 0
M  V30 10590 C 1891.73 6.83093 -1.70294 0
M  V30 10591 C 1891.02 5.79992 -0.836974 0
M  V30 10592 N 1891.07 4.41864 -1.38293 0
M  V30 10593 H 1888.23 8.13738 -3.03804 0
M  V30 10594 H 1887.96 6.42974 -2.55559 0
M  V30 10595 H 1888.83 8.12139 -0.792866 0
M  V30 10596 H 1891.48 5.80178 0.160643 0
M  V30 10597 H 1891.76 6.51379 -2.75643 0
M  V30 10598 H 1892.75 7.01832 -1.3448 0
M  V30 10599 H 1890.92 8.73771 -2.38364 0
M  V30 10600 P 1892.79 8.91 -2.29136e-11 0
M  V30 10601 O 1893.01 10.1726 0.733694 0
M  V30 10602 O 1893.58 8.73148 -1.23936 0
M  V30 10603 O 1893.04 7.66872 0.971405 0
M  V30 10604 C 1892.1 7.42309 2.04641 0
M  V30 10605 C 1892.83 6.86059 3.24661 0
M  V30 10606 O 1893.04 5.42847 3.03646 0
M  V30 10607 C 1894.23 7.41196 3.50753 0
M  V30 10608 O 1894.62 7.27073 4.86816 0
M  V30 10609 C 1895.11 6.5273 2.63741 0
M  V30 10610 C 1894.4 5.1842 2.73198 0
M  V30 10611 N 1894.45 4.38762 1.4784 0
M  V30 10612 H 1891.61 8.36803 2.32493 0
M  V30 10613 H 1891.34 6.70197 1.71129 0
M  V30 10614 H 1892.21 7.03551 4.13168 0
M  V30 10615 P 1896.17 7.20834 5.23717 0
M  V30 10616 O 1896.39 7.79853 6.57286 0
M  V30 10617 O 1896.96 7.79239 4.12957 0
M  V30 10618 O 1896.42 5.63315 5.29344 0
M  V30 10619 C 1895.48 4.80255 6.01876 0
M  V30 10620 C 1896.21 3.64202 6.65911 0
M  V30 10621 O 1896.42 2.60694 5.64732 0
M  V30 10622 C 1897.61 3.93473 7.1943 0
M  V30 10623 O 1898 3.02071 8.21205 0
M  V30 10624 C 1898.49 3.73047 5.97036 0
M  V30 10625 C 1897.78 2.58828 5.25741 0
M  V30 10626 N 1897.83 2.68068 3.77503 0
M  V30 10627 H 1894.99 5.40332 6.79951 0
M  V30 10628 H 1894.72 4.41613 5.32378 0
M  V30 10629 H 1895.59 3.26331 7.47797 0
M  V30 10630 P 1899.55 2.75334 8.47391 0
M  V30 10631 O 1899.77 2.44595 9.90239 0
M  V30 10632 O 1900.34 3.87732 7.92204 0
M  V30 10633 O 1899.8 1.4459 7.59357 0
M  V30 10634 C 1898.86 0.347563 7.69115 0
M  V30 10635 C 1899.59 -0.96767 7.52806 0
M  V30 10636 O 1899.8 -1.21036 6.1011 0
M  V30 10637 C 1900.99 -1.04544 8.13308 0
M  V30 10638 O 1901.38 -2.38311 8.41922 0
M  V30 10639 C 1901.87 -0.491279 7.02284 0
M  V30 10640 C 1901.16 -0.996264 5.77469 0
M  V30 10641 N 1901.21 -0.0501808 4.62873 0
M  V30 10642 C 1901.36 -0.588177 3.36904 0
M  V30 10643 O 1901.45 -1.78598 3.17173 0
M  V30 10644 N 1901.4 0.329694 2.33686 0
M  V30 10645 C 1901.31 1.6953 2.45079 0
M  V30 10646 O 1901.36 2.41926 1.44899 0
M  V30 10647 C 1901.16 2.16933 3.80505 0
M  V30 10648 C 1901.05 3.65373 3.97621 0
M  V30 10649 C 1901.11 1.30326 4.83752 0
M  V30 10650 H 1898.37 0.374722 8.67691 0
M  V30 10651 H 1898.1 0.443421 6.90177 0
M  V30 10652 H 1898.97 -1.75537 7.96793 0
M  V30 10653 H 1901.62 -1.94496 5.46629 0
M  V30 10654 H 1901.9 0.608651 7.04676 0
M  V30 10655 H 1902.89 -0.889672 7.08939 0
M  V30 10656 H 1901.06 -0.43308 9.04564 0
M  V30 10657 H 1900.99 1.68366 5.8516 0
M  V30 10658 H 1902.02 4.05985 4.30448 0
M  V30 10659 H 1900.28 3.88028 4.72875 0
M  V30 10660 H 1900.77 4.11381 3.01609 0
M  V30 10661 H 1901.5 -0.0393617 1.41345 0
M  V30 10662 P 1902.93 -2.75334 8.47391 0
M  V30 10663 O 1903.15 -3.84128 9.44797 0
M  V30 10664 O 1903.72 -1.51947 8.68712 0
M  V30 10665 O 1903.18 -3.29363 6.99321 0
M  V30 10666 C 1902.24 -4.24011 6.4274 0
M  V30 10667 C 1902.97 -5.20775 5.52155 0
M  V30 10668 O 1903.18 -4.56534 4.22446 0
M  V30 10669 C 1904.37 -5.62629 5.96531 0
M  V30 10670 O 1904.76 -6.87667 5.41053 0
M  V30 10671 C 1905.25 -4.52537 5.39283 0
M  V30 10672 C 1904.54 -4.20027 4.08623 0
M  V30 10673 N 1904.59 -2.76189 3.71603 0
M  V30 10674 C 1904.51 -1.64862 4.52822 0
M  V30 10675 N 1904.59 -0.512671 3.88633 0
M  V30 10676 C 1904.73 -0.888083 2.54977 0
M  V30 10677 C 1904.86 -0.094668 1.38677 0
M  V30 10678 O 1904.88 1.13053 1.28163 0
M  V30 10679 N 1904.98 -0.890102 0.232633 0
M  V30 10680 C 1904.98 -2.26958 0.21772 0
M  V30 10681 N 1905.11 -2.84626 -0.97925 0
M  V30 10682 N 1904.85 -3.0178 1.31033 0
M  V30 10683 C 1904.73 -2.26781 2.43843 0
M  V30 10684 H 1901.75 -4.797 7.24003 0
M  V30 10685 H 1901.48 -3.69856 5.84513 0
M  V30 10686 H 1902.35 -6.10356 5.41441 0
M  V30 10687 H 1905 -4.79061 3.27488 0
M  V30 10688 H 1905.28 -3.64906 6.05785 0
M  V30 10689 H 1906.27 -4.8868 5.2125 0
M  V30 10690 H 1904.44 -5.66726 7.06352 0
M  V30 10691 H 1904.39 -1.71169 5.60966 0
M  V30 10692 H 1905.07 -0.419134 -0.644739 0
M  V30 10693 H 1905.11 -3.87332 -1.06098 0
M  V30 10694 H 1905.21 -2.26417 -1.82483 0
M  V30 10695 P 1906.31 -7.20834 5.23717 0
M  V30 10696 O 1906.53 -8.66274 5.38678 0
M  V30 10697 O 1907.1 -6.33687 6.13629 0
M  V30 10698 O 1906.56 -6.7751 3.72168 0
M  V30 10699 C 1905.62 -7.20919 2.70795 0
M  V30 10700 C 1906.35 -7.45864 1.40599 0
M  V30 10701 O 1906.56 -6.17751 0.734343 0
M  V30 10702 C 1907.75 -8.05906 1.51917 0
M  V30 10703 O 1908.14 -8.74358 0.335205 0
M  V30 10704 C 1908.63 -6.83093 1.70294 0
M  V30 10705 C 1907.92 -5.79992 0.836974 0
M  V30 10706 N 1907.97 -4.41864 1.38293 0
M  V30 10707 C 1907.89 -4.02089 2.69407 0
M  V30 10708 N 1907.96 -2.73403 2.85089 0
M  V30 10709 C 1908.11 -2.25086 1.5642 0
M  V30 10710 C 1908.24 -0.942887 1.04836 0
M  V30 10711 N 1908.25 0.150999 1.80369 0
M  V30 10712 N 1908.36 -0.812565 -0.28167 0
M  V30 10713 C 1908.35 -1.90572 -1.03784 0
M  V30 10714 N 1908.23 -3.167 -0.683905 0
M  V30 10715 C 1908.11 -3.26538 0.652815 0
M  V30 10716 H 1905.13 -8.13738 3.03804 0
M  V30 10717 H 1904.86 -6.42974 2.55559 0
M  V30 10718 H 1905.73 -8.12139 0.792866 0
M  V30 10719 H 1908.38 -5.80178 -0.160643 0
M  V30 10720 H 1908.66 -6.51379 2.75643 0
M  V30 10721 H 1909.65 -7.01832 1.3448 0
M  V30 10722 H 1907.82 -8.73771 2.38364 0
M  V30 10723 H 1907.78 -4.7189 3.52311 0
M  V30 10724 H 1908.16 0.0721434 2.82608 0
M  V30 10725 H 1908.35 1.0785 1.36544 0
M  V30 10726 H 1908.46 -1.73207 -2.10241 0
M  V30 10727 P 1909.69 -8.91 2.40226e-11 0
M  V30 10728 O 1909.91 -10.1726 -0.733694 0
M  V30 10729 O 1910.48 -8.73148 1.23936 0
M  V30 10730 O 1909.94 -7.66872 -0.971405 0
M  V30 10731 C 1909 -7.42309 -2.04641 0
M  V30 10732 C 1909.73 -6.86059 -3.24661 0
M  V30 10733 O 1909.94 -5.42847 -3.03646 0
M  V30 10734 C 1911.13 -7.41196 -3.50753 0
M  V30 10735 O 1911.52 -7.27073 -4.86816 0
M  V30 10736 C 1912.01 -6.5273 -2.63741 0
M  V30 10737 C 1911.3 -5.1842 -2.73198 0
M  V30 10738 N 1911.35 -4.38762 -1.4784 0
M  V30 10739 H 1908.51 -8.36803 -2.32493 0
M  V30 10740 H 1908.24 -6.70197 -1.71129 0
M  V30 10741 H 1909.11 -7.03551 -4.13168 0
M  V30 10742 P 1913.07 -7.20834 -5.23717 0
M  V30 10743 O 1913.29 -7.79853 -6.57286 0
M  V30 10744 O 1913.86 -7.79239 -4.12957 0
M  V30 10745 O 1913.32 -5.63315 -5.29344 0
M  V30 10746 C 1912.38 -4.80255 -6.01876 0
M  V30 10747 C 1913.11 -3.64202 -6.65911 0
M  V30 10748 O 1913.32 -2.60694 -5.64732 0
M  V30 10749 C 1914.51 -3.93473 -7.1943 0
M  V30 10750 O 1914.9 -3.02071 -8.21205 0
M  V30 10751 C 1915.39 -3.73047 -5.97036 0
M  V30 10752 C 1914.68 -2.58828 -5.25741 0
M  V30 10753 N 1914.73 -2.68068 -3.77503 0
M  V30 10754 H 1911.89 -5.40332 -6.79951 0
M  V30 10755 H 1911.62 -4.41613 -5.32378 0
M  V30 10756 H 1912.49 -3.26331 -7.47797 0
M  V30 10757 P 1916.45 -2.75334 -8.47391 0
M  V30 10758 O 1916.67 -2.44571 -9.90142 0
M  V30 10759 O 1917.24 -3.87688 -7.92115 0
M  V30 10760 O 1916.7 -1.4459 -7.59357 0
M  V30 10761 C 1915.76 -0.347608 -7.69215 0
M  V30 10762 C 1916.49 0.96767 -7.52806 0
M  V30 10763 O 1916.7 1.21036 -6.1011 0
M  V30 10764 C 1917.89 1.04544 -8.13308 0
M  V30 10765 O 1918.28 2.38311 -8.41922 0
M  V30 10766 C 1918.77 0.491279 -7.02284 0
M  V30 10767 C 1918.06 0.996264 -5.77469 0
M  V30 10768 N 1918.11 0.0501916 -4.62973 0
M  V30 10769 H 1915.27 -0.374722 -8.67691 0
M  V30 10770 H 1915 -0.443485 -6.90277 0
M  V30 10771 H 1915.87 1.75537 -7.96793 0
M  V30 10772 P 1919.83 2.75334 -8.47391 0
M  V30 10773 O 1920.05 3.84128 -9.44797 0
M  V30 10774 O 1920.62 1.51947 -8.68712 0
M  V30 10775 O 1920.08 3.29363 -6.99321 0
M  V30 10776 C 1919.14 4.24011 -6.4274 0
M  V30 10777 C 1919.87 5.20775 -5.52155 0
M  V30 10778 O 1920.08 4.56534 -4.22446 0
M  V30 10779 C 1921.27 5.62629 -5.96531 0
M  V30 10780 O 1921.66 6.87667 -5.41053 0
M  V30 10781 C 1922.15 4.52537 -5.39283 0
M  V30 10782 C 1921.44 4.20027 -4.08623 0
M  V30 10783 N 1921.49 2.76189 -3.71603 0
M  V30 10784 H 1918.65 4.797 -7.24003 0
M  V30 10785 H 1918.38 3.69856 -5.84513 0
M  V30 10786 H 1919.25 6.10356 -5.41441 0
M  V30 10787 P 1923.21 7.20834 -5.23717 0
M  V30 10788 O 1923.43 8.66104 -5.38572 0
M  V30 10789 O 1924 6.33544 -6.1349 0
M  V30 10790 O 1923.46 6.7751 -3.72168 0
M  V30 10791 C 1922.52 7.20825 -2.7076 0
M  V30 10792 C 1923.25 7.45864 -1.40599 0
M  V30 10793 O 1923.46 6.17651 -0.734225 0
M  V30 10794 C 1924.65 8.05808 -1.51899 0
M  V30 10795 O 1925.04 8.74358 -0.335205 0
M  V30 10796 C 1925.53 6.83093 -1.70294 0
M  V30 10797 C 1924.82 5.79992 -0.836974 0
M  V30 10798 N 1924.87 4.41864 -1.38293 0
M  V30 10799 H 1922.03 8.13644 -3.0377 0
M  V30 10800 H 1921.76 6.42788 -2.55485 0
M  V30 10801 H 1922.63 8.12039 -0.792769 0
M  V30 10802 P 1926.59 8.91 -2.51316e-11 0
M  V30 10803 O 1926.81 10.1746 0.733838 0
M  V30 10804 O 1927.38 8.73346 -1.23964 0
M  V30 10805 O 1926.84 7.66872 0.971405 0
M  V30 10806 C 1925.9 7.42405 2.04668 0
M  V30 10807 C 1926.63 6.86059 3.24661 0
M  V30 10808 O 1926.84 5.42934 3.03695 0
M  V30 10809 C 1928.03 7.41287 3.50796 0
M  V30 10810 O 1928.42 7.27073 4.86816 0
M  V30 10811 C 1928.91 6.5273 2.63741 0
M  V30 10812 C 1928.2 5.1842 2.73198 0
M  V30 10813 N 1928.25 4.38762 1.4784 0
M  V30 10814 H 1925.41 8.36899 2.3252 0
M  V30 10815 H 1925.14 6.70391 1.71179 0
M  V30 10816 H 1926.01 7.03638 4.13219 0
M  V30 10817 H 1928.66 4.59931 3.54016 0
M  V30 10818 H 1928.94 6.88995 1.59871 0
M  V30 10819 H 1929.93 6.4684 3.0373 0
M  V30 10820 H 1928.1 8.47002 3.20749 0
M  V30 10821 P 1929.97 7.20834 5.23717 0
M  V30 10822 O 1930.19 7.80006 6.57415 0
M  V30 10823 O 1930.76 7.79416 4.13051 0
M  V30 10824 O 1930.22 5.63315 5.29344 0
M  V30 10825 C 1929.28 4.80318 6.01954 0
M  V30 10826 C 1930.01 3.64202 6.65911 0
M  V30 10827 O 1930.22 2.60736 5.64823 0
M  V30 10828 C 1931.41 3.93521 7.19518 0
M  V30 10829 O 1931.8 3.02071 8.21205 0
M  V30 10830 C 1932.29 3.73047 5.97036 0
M  V30 10831 C 1931.58 2.58828 5.25741 0
M  V30 10832 N 1931.63 2.68068 3.77503 0
M  V30 10833 H 1928.79 5.40394 6.8003 0
M  V30 10834 H 1928.52 4.41741 5.32532 0
M  V30 10835 H 1929.39 3.26371 7.47889 0
M  V30 10836 H 1932.04 1.64007 5.56746 0
M  V30 10837 H 1932.32 4.63439 5.3432 0
M  V30 10838 H 1933.31 3.44776 6.25925 0
M  V30 10839 H 1931.48 4.96707 7.57347 0
M  V30 10840 P 1933.35 2.75334 8.47391 0
M  V30 10841 O 1933.57 2.44619 9.90336 0
M  V30 10842 O 1934.14 3.87776 7.92294 0
M  V30 10843 O 1933.6 1.4459 7.59357 0
M  V30 10844 C 1932.66 0.347653 7.69315 0
M  V30 10845 C 1933.39 -0.96767 7.52806 0
M  V30 10846 O 1933.6 -1.21055 6.10208 0
M  V30 10847 C 1934.79 -1.04557 8.13408 0
M  V30 10848 O 1935.18 -2.38311 8.41922 0
M  V30 10849 C 1935.67 -0.491279 7.02284 0
M  V30 10850 C 1934.96 -0.996264 5.77469 0
M  V30 10851 N 1935.01 -0.0501916 4.62973 0
M  V30 10852 C 1934.93 1.31969 4.65661 0
M  V30 10853 N 1935 1.86649 3.48119 0
M  V30 10854 C 1935.15 0.792089 2.62406 0
M  V30 10855 C 1935.28 0.705684 1.2207 0
M  V30 10856 N 1935.29 1.76207 0.413762 0
M  V30 10857 N 1935.4 -0.518981 0.685754 0
M  V30 10858 C 1935.39 -1.57595 1.49174 0
M  V30 10859 N 1935.27 -1.62909 2.80066 0
M  V30 10860 C 1935.15 -0.388195 3.3073 0
M  V30 10861 H 1932.17 0.374765 8.67791 0
M  V30 10862 H 1931.9 0.443613 6.90476 0
M  V30 10863 H 1932.77 -1.75559 7.96891 0
M  V30 10864 H 1935.42 -1.94563 5.46818 0
M  V30 10865 H 1935.7 0.608651 7.04676 0
M  V30 10866 H 1936.69 -0.889796 7.09039 0
M  V30 10867 H 1934.86 -0.433128 9.04664 0
M  V30 10868 H 1934.82 1.89246 5.57664 0
M  V30 10869 H 1935.2 2.71005 0.804694 0
M  V30 10870 H 1935.39 1.63189 -0.603768 0
M  V30 10871 H 1935.5 -2.53475 0.997614 0
M  V30 10872 P 1936.73 -2.75334 8.47391 0
M  V30 10873 O 1936.95 -3.84128 9.44797 0
M  V30 10874 O 1937.52 -1.51947 8.68712 0
M  V30 10875 O 1936.98 -3.29363 6.99321 0
M  V30 10876 C 1936.04 -4.24011 6.4274 0
M  V30 10877 C 1936.77 -5.20775 5.52155 0
M  V30 10878 O 1936.98 -4.56534 4.22446 0
M  V30 10879 C 1938.17 -5.62629 5.96531 0
M  V30 10880 O 1938.56 -6.87667 5.41053 0
M  V30 10881 C 1939.05 -4.52537 5.39283 0
M  V30 10882 C 1938.34 -4.20027 4.08623 0
M  V30 10883 N 1938.39 -2.76189 3.71603 0
M  V30 10884 H 1935.55 -4.797 7.24003 0
M  V30 10885 H 1935.28 -3.69856 5.84513 0
M  V30 10886 H 1936.15 -6.10356 5.41441 0
M  V30 10887 P 1940.11 -7.20834 5.23717 0
M  V30 10888 O 1940.33 -8.66104 5.38572 0
M  V30 10889 O 1940.9 -6.33544 6.1349 0
M  V30 10890 O 1940.36 -6.7751 3.72168 0
M  V30 10891 C 1939.42 -7.20825 2.7076 0
M  V30 10892 C 1940.15 -7.45864 1.40599 0
M  V30 10893 O 1940.36 -6.17651 0.734225 0
M  V30 10894 C 1941.55 -8.05808 1.51899 0
M  V30 10895 O 1941.94 -8.74358 0.335205 0
M  V30 10896 C 1942.43 -6.83093 1.70294 0
M  V30 10897 C 1941.72 -5.79992 0.836974 0
M  V30 10898 N 1941.77 -4.41864 1.38293 0
M  V30 10899 H 1938.93 -8.13644 3.0377 0
M  V30 10900 H 1938.66 -6.42788 2.55485 0
M  V30 10901 H 1939.53 -8.12039 0.792769 0
M  V30 10902 P 1943.49 -8.91 2.62406e-11 0
M  V30 10903 O 1943.71 -10.1726 -0.733694 0
M  V30 10904 O 1944.28 -8.73148 1.23936 0
M  V30 10905 O 1943.74 -7.66872 -0.971405 0
M  V30 10906 C 1942.8 -7.42309 -2.04641 0
M  V30 10907 C 1943.53 -6.86059 -3.24661 0
M  V30 10908 O 1943.74 -5.42847 -3.03646 0
M  V30 10909 C 1944.93 -7.41196 -3.50753 0
M  V30 10910 O 1945.32 -7.27073 -4.86816 0
M  V30 10911 C 1945.81 -6.5273 -2.63741 0
M  V30 10912 C 1945.1 -5.1842 -2.73198 0
M  V30 10913 N 1945.15 -4.38762 -1.4784 0
M  V30 10914 H 1942.31 -8.36803 -2.32493 0
M  V30 10915 H 1942.04 -6.70197 -1.71129 0
M  V30 10916 H 1942.91 -7.03551 -4.13168 0
M  V30 10917 P 1946.87 -7.20834 -5.23717 0
M  V30 10918 O 1947.09 -7.79853 -6.57286 0
M  V30 10919 O 1947.66 -7.79239 -4.12957 0
M  V30 10920 O 1947.12 -5.63315 -5.29344 0
M  V30 10921 C 1946.18 -4.80255 -6.01876 0
M  V30 10922 C 1946.91 -3.64202 -6.65911 0
M  V30 10923 O 1947.12 -2.60694 -5.64732 0
M  V30 10924 C 1948.31 -3.93473 -7.1943 0
M  V30 10925 O 1948.7 -3.02071 -8.21205 0
M  V30 10926 C 1949.19 -3.73047 -5.97036 0
M  V30 10927 C 1948.48 -2.58828 -5.25741 0
M  V30 10928 N 1948.53 -2.68068 -3.77503 0
M  V30 10929 H 1945.69 -5.40332 -6.79951 0
M  V30 10930 H 1945.42 -4.41613 -5.32378 0
M  V30 10931 H 1946.29 -3.26331 -7.47797 0
M  V30 10932 P 1950.25 -2.75334 -8.47391 0
M  V30 10933 O 1950.47 -2.44571 -9.90142 0
M  V30 10934 O 1951.04 -3.87688 -7.92115 0
M  V30 10935 O 1950.5 -1.4459 -7.59357 0
M  V30 10936 C 1949.56 -0.347608 -7.69215 0
M  V30 10937 C 1950.29 0.96767 -7.52806 0
M  V30 10938 O 1950.5 1.21036 -6.1011 0
M  V30 10939 C 1951.69 1.04544 -8.13308 0
M  V30 10940 O 1952.08 2.38311 -8.41922 0
M  V30 10941 C 1952.57 0.491279 -7.02284 0
M  V30 10942 C 1951.86 0.996264 -5.77469 0
M  V30 10943 N 1951.91 0.0501916 -4.62973 0
M  V30 10944 H 1949.07 -0.374722 -8.67691 0
M  V30 10945 H 1948.8 -0.443485 -6.90277 0
M  V30 10946 H 1949.67 1.75537 -7.96793 0
M  V30 10947 P 1953.63 2.75334 -8.47391 0
M  V30 10948 O 1953.85 3.84166 -9.4489 0
M  V30 10949 O 1954.42 1.51964 -8.6881 0
M  V30 10950 O 1953.88 3.29363 -6.99321 0
M  V30 10951 C 1952.94 4.23956 -6.42656 0
M  V30 10952 C 1953.67 5.20775 -5.52155 0
M  V30 10953 O 1953.88 4.56534 -4.22446 0
M  V30 10954 C 1955.07 5.62629 -5.96531 0
M  V30 10955 O 1955.46 6.87667 -5.41053 0
M  V30 10956 C 1955.95 4.52537 -5.39283 0
M  V30 10957 C 1955.24 4.20027 -4.08623 0
M  V30 10958 N 1955.29 2.7613 -3.71522 0
M  V30 10959 C 1955.44 2.45612 -2.37989 0
M  V30 10960 O 1955.53 3.30919 -1.51621 0
M  V30 10961 N 1955.48 1.10684 -2.08435 0
M  V30 10962 C 1955.39 0.0690084 -2.9792 0
M  V30 10963 O 1955.44 -1.10553 -2.59426 0
M  V30 10964 C 1955.24 0.481522 -4.35345 0
M  V30 10965 C 1955.13 -0.618778 -5.36443 0
M  V30 10966 C 1955.19 1.78906 -4.67968 0
M  V30 10967 H 1952.45 4.797 -7.24003 0
M  V30 10968 H 1952.18 3.69802 -5.84429 0
M  V30 10969 H 1953.05 6.10356 -5.41441 0
M  V30 10970 H 1955.7 4.78651 -3.27911 0
M  V30 10971 H 1955.98 3.64957 -6.05871 0
M  V30 10972 H 1956.97 4.8868 -5.2125 0
M  V30 10973 H 1955.14 5.66726 -7.06352 0
M  V30 10974 H 1955.07 2.07737 -5.72367 0
M  V30 10975 H 1956.1 -0.754375 -5.86871 0
M  V30 10976 H 1954.36 -0.359721 -6.10641 0
M  V30 10977 H 1954.85 -1.55533 -4.8581 0
M  V30 10978 H 1955.58 0.862651 -1.12037 0
M  V30 10979 P 1957.01 7.20834 -5.23717 0
M  V30 10980 O 1957.23 8.66104 -5.38572 0
M  V30 10981 O 1957.8 6.33544 -6.1349 0
M  V30 10982 O 1957.26 6.7751 -3.72168 0
M  V30 10983 C 1956.32 7.20825 -2.7076 0
M  V30 10984 C 1957.05 7.45864 -1.40599 0
M  V30 10985 O 1957.26 6.17651 -0.734225 0
M  V30 10986 C 1958.45 8.05808 -1.51899 0
M  V30 10987 O 1958.84 8.74358 -0.335205 0
M  V30 10988 C 1959.33 6.83093 -1.70294 0
M  V30 10989 C 1958.62 5.79992 -0.836974 0
M  V30 10990 N 1958.67 4.41864 -1.38293 0
M  V30 10991 H 1955.83 8.13644 -3.0377 0
M  V30 10992 H 1955.56 6.42788 -2.55485 0
M  V30 10993 H 1956.43 8.12039 -0.792769 0
M  V30 10994 P 1960.39 8.91 -2.73496e-11 0
M  V30 10995 O 1960.61 10.1726 0.733694 0
M  V30 10996 O 1961.18 8.73148 -1.23936 0
M  V30 10997 O 1960.64 7.66872 0.971405 0
M  V30 10998 C 1959.7 7.42309 2.04641 0
M  V30 10999 C 1960.43 6.86059 3.24661 0
M  V30 11000 O 1960.64 5.42847 3.03646 0
M  V30 11001 C 1961.83 7.41196 3.50753 0
M  V30 11002 O 1962.22 7.27073 4.86816 0
M  V30 11003 C 1962.71 6.5273 2.63741 0
M  V30 11004 C 1962 5.1842 2.73198 0
M  V30 11005 N 1962.05 4.38762 1.4784 0
M  V30 11006 H 1959.21 8.36803 2.32493 0
M  V30 11007 H 1958.94 6.70197 1.71129 0
M  V30 11008 H 1959.81 7.03551 4.13168 0
M  V30 11009 P 1963.77 7.20834 5.23717 0
M  V30 11010 O 1963.99 7.79853 6.57286 0
M  V30 11011 O 1964.56 7.79239 4.12957 0
M  V30 11012 O 1964.02 5.63315 5.29344 0
M  V30 11013 C 1963.08 4.80255 6.01876 0
M  V30 11014 C 1963.81 3.64202 6.65911 0
M  V30 11015 O 1964.02 2.60694 5.64732 0
M  V30 11016 C 1965.21 3.93473 7.1943 0
M  V30 11017 O 1965.6 3.02071 8.21205 0
M  V30 11018 C 1966.09 3.73047 5.97036 0
M  V30 11019 C 1965.38 2.58828 5.25741 0
M  V30 11020 N 1965.43 2.68068 3.77503 0
M  V30 11021 H 1962.59 5.40332 6.79951 0
M  V30 11022 H 1962.32 4.41613 5.32378 0
M  V30 11023 H 1963.19 3.26331 7.47797 0
M  V30 11024 P 1967.15 2.75334 8.47391 0
M  V30 11025 O 1967.37 2.44595 9.90239 0
M  V30 11026 O 1967.94 3.87732 7.92204 0
M  V30 11027 O 1967.4 1.4459 7.59357 0
M  V30 11028 C 1966.46 0.347563 7.69115 0
M  V30 11029 C 1967.19 -0.96767 7.52806 0
M  V30 11030 O 1967.4 -1.21036 6.1011 0
M  V30 11031 C 1968.59 -1.04544 8.13308 0
M  V30 11032 O 1968.98 -2.38311 8.41922 0
M  V30 11033 C 1969.47 -0.491279 7.02284 0
M  V30 11034 C 1968.76 -0.996264 5.77469 0
M  V30 11035 N 1968.81 -0.0501808 4.62873 0
M  V30 11036 C 1968.96 -0.588177 3.36904 0
M  V30 11037 O 1969.05 -1.78598 3.17173 0
M  V30 11038 N 1969 0.329694 2.33686 0
M  V30 11039 C 1968.91 1.6953 2.45079 0
M  V30 11040 O 1968.96 2.41926 1.44899 0
M  V30 11041 C 1968.76 2.16933 3.80505 0
M  V30 11042 C 1968.65 3.65373 3.97621 0
M  V30 11043 C 1968.71 1.30326 4.83752 0
M  V30 11044 H 1965.97 0.374722 8.67691 0
M  V30 11045 H 1965.7 0.443421 6.90177 0
M  V30 11046 H 1966.57 -1.75537 7.96793 0
M  V30 11047 H 1969.22 -1.94496 5.46629 0
M  V30 11048 H 1969.5 0.608651 7.04676 0
M  V30 11049 H 1970.49 -0.889672 7.08939 0
M  V30 11050 H 1968.66 -0.43308 9.04564 0
M  V30 11051 H 1968.59 1.68366 5.8516 0
M  V30 11052 H 1969.62 4.05985 4.30448 0
M  V30 11053 H 1967.88 3.88028 4.72875 0
M  V30 11054 H 1968.37 4.11381 3.01609 0
M  V30 11055 H 1969.1 -0.0393617 1.41345 0
M  V30 11056 P 1970.53 -2.75334 8.47391 0
M  V30 11057 O 1970.75 -3.84166 9.4489 0
M  V30 11058 O 1971.32 -1.51964 8.6881 0
M  V30 11059 O 1970.78 -3.29363 6.99321 0
M  V30 11060 C 1969.84 -4.23956 6.42656 0
M  V30 11061 C 1970.57 -5.20775 5.52155 0
M  V30 11062 O 1970.78 -4.56534 4.22446 0
M  V30 11063 C 1971.97 -5.62629 5.96531 0
M  V30 11064 O 1972.36 -6.87667 5.41053 0
M  V30 11065 C 1972.85 -4.52537 5.39283 0
M  V30 11066 C 1972.14 -4.20027 4.08623 0
M  V30 11067 N 1972.19 -2.7613 3.71522 0
M  V30 11068 C 1972.34 -2.45612 2.37989 0
M  V30 11069 O 1972.43 -3.30919 1.51621 0
M  V30 11070 N 1972.38 -1.10684 2.08435 0
M  V30 11071 C 1972.29 -0.0690084 2.9792 0
M  V30 11072 O 1972.34 1.10553 2.59426 0
M  V30 11073 C 1972.14 -0.481522 4.35345 0
M  V30 11074 C 1972.03 0.618778 5.36443 0
M  V30 11075 C 1972.09 -1.78906 4.67968 0
M  V30 11076 H 1969.35 -4.797 7.24003 0
M  V30 11077 H 1969.08 -3.69802 5.84429 0
M  V30 11078 H 1969.95 -6.10356 5.41441 0
M  V30 11079 H 1972.6 -4.78651 3.27911 0
M  V30 11080 H 1972.88 -3.64957 6.05871 0
M  V30 11081 H 1973.87 -4.8868 5.2125 0
M  V30 11082 H 1972.04 -5.66726 7.06352 0
M  V30 11083 H 1971.97 -2.07737 5.72367 0
M  V30 11084 H 1973 0.754375 5.86871 0
M  V30 11085 H 1971.26 0.359721 6.10641 0
M  V30 11086 H 1971.75 1.55533 4.8581 0
M  V30 11087 H 1972.48 -0.862651 1.12037 0
M  V30 11088 P 1973.91 -7.20834 5.23717 0
M  V30 11089 O 1974.13 -8.66104 5.38572 0
M  V30 11090 O 1974.7 -6.33544 6.1349 0
M  V30 11091 O 1974.16 -6.7751 3.72168 0
M  V30 11092 C 1973.22 -7.20825 2.7076 0
M  V30 11093 C 1973.95 -7.45864 1.40599 0
M  V30 11094 O 1974.16 -6.17651 0.734225 0
M  V30 11095 C 1975.35 -8.05808 1.51899 0
M  V30 11096 O 1975.74 -8.74358 0.335205 0
M  V30 11097 C 1976.23 -6.83093 1.70294 0
M  V30 11098 C 1975.52 -5.79992 0.836974 0
M  V30 11099 N 1975.57 -4.41864 1.38293 0
M  V30 11100 H 1972.73 -8.13644 3.0377 0
M  V30 11101 H 1972.46 -6.42788 2.55485 0
M  V30 11102 H 1973.33 -8.12039 0.792769 0
M  V30 11103 P 1977.29 -8.91 2.84586e-11 0
M  V30 11104 O 1977.51 -10.1726 -0.733694 0
M  V30 11105 O 1978.08 -8.73148 1.23936 0
M  V30 11106 O 1977.54 -7.66872 -0.971405 0
M  V30 11107 C 1976.6 -7.42309 -2.04641 0
M  V30 11108 C 1977.33 -6.86059 -3.24661 0
M  V30 11109 O 1977.54 -5.42847 -3.03646 0
M  V30 11110 C 1978.73 -7.41196 -3.50753 0
M  V30 11111 O 1979.12 -7.27073 -4.86816 0
M  V30 11112 C 1979.61 -6.5273 -2.63741 0
M  V30 11113 C 1978.9 -5.1842 -2.73198 0
M  V30 11114 N 1978.95 -4.38762 -1.4784 0
M  V30 11115 H 1976.11 -8.36803 -2.32493 0
M  V30 11116 H 1975.84 -6.70197 -1.71129 0
M  V30 11117 H 1976.71 -7.03551 -4.13168 0
M  V30 11118 P 1980.67 -7.20834 -5.23717 0
M  V30 11119 O 1980.89 -7.79853 -6.57286 0
M  V30 11120 O 1981.46 -7.79239 -4.12957 0
M  V30 11121 O 1980.92 -5.63315 -5.29344 0
M  V30 11122 C 1979.98 -4.80255 -6.01876 0
M  V30 11123 C 1980.71 -3.64202 -6.65911 0
M  V30 11124 O 1980.92 -2.60694 -5.64732 0
M  V30 11125 C 1982.11 -3.93473 -7.1943 0
M  V30 11126 O 1982.5 -3.02071 -8.21205 0
M  V30 11127 C 1982.99 -3.73047 -5.97036 0
M  V30 11128 C 1982.28 -2.58828 -5.25741 0
M  V30 11129 N 1982.33 -2.68068 -3.77503 0
M  V30 11130 H 1979.49 -5.40332 -6.79951 0
M  V30 11131 H 1979.22 -4.41613 -5.32378 0
M  V30 11132 H 1980.09 -3.26331 -7.47797 0
M  V30 11133 P 1984.05 -2.75334 -8.47391 0
M  V30 11134 O 1984.27 -2.44571 -9.90142 0
M  V30 11135 O 1984.84 -3.87688 -7.92115 0
M  V30 11136 O 1984.3 -1.4459 -7.59357 0
M  V30 11137 C 1983.36 -0.347608 -7.69215 0
M  V30 11138 C 1984.09 0.96767 -7.52806 0
M  V30 11139 O 1984.3 1.21036 -6.1011 0
M  V30 11140 C 1985.49 1.04544 -8.13308 0
M  V30 11141 O 1985.88 2.38311 -8.41922 0
M  V30 11142 C 1986.37 0.491279 -7.02284 0
M  V30 11143 C 1985.66 0.996264 -5.77469 0
M  V30 11144 N 1985.71 0.0501916 -4.62973 0
M  V30 11145 H 1982.87 -0.374722 -8.67691 0
M  V30 11146 H 1982.6 -0.443485 -6.90277 0
M  V30 11147 H 1983.47 1.75537 -7.96793 0
M  V30 11148 P 1987.43 2.75334 -8.47391 0
M  V30 11149 O 1987.65 3.84204 -9.44982 0
M  V30 11150 O 1988.22 1.51982 -8.68909 0
M  V30 11151 O 1987.68 3.29363 -6.99321 0
M  V30 11152 C 1986.74 4.24066 -6.42823 0
M  V30 11153 C 1987.47 5.20775 -5.52155 0
M  V30 11154 O 1987.68 4.56607 -4.22514 0
M  V30 11155 C 1988.87 5.62697 -5.96604 0
M  V30 11156 O 1989.26 6.87667 -5.41053 0
M  V30 11157 C 1989.75 4.52537 -5.39283 0
M  V30 11158 C 1989.04 4.20027 -4.08623 0
M  V30 11159 N 1989.09 2.76189 -3.71603 0
M  V30 11160 H 1986.25 4.79756 -7.24086 0
M  V30 11161 H 1985.98 3.69963 -5.84682 0
M  V30 11162 H 1986.85 6.10431 -5.41508 0
M  V30 11163 H 1989.5 4.78816 -3.28024 0
M  V30 11164 H 1989.78 3.64957 -6.05871 0
M  V30 11165 H 1990.77 4.88748 -5.21323 0
M  V30 11166 H 1988.94 5.66789 -7.0643 0
M  V30 11167 P 1990.81 7.20834 -5.23717 0
M  V30 11168 O 1991.03 8.66104 -5.38572 0
M  V30 11169 O 1991.6 6.33544 -6.1349 0
M  V30 11170 O 1991.06 6.7751 -3.72168 0
M  V30 11171 C 1990.12 7.20825 -2.7076 0
M  V30 11172 C 1990.85 7.45864 -1.40599 0
M  V30 11173 O 1991.06 6.17651 -0.734225 0
M  V30 11174 C 1992.25 8.05808 -1.51899 0
M  V30 11175 O 1992.64 8.74358 -0.335205 0
M  V30 11176 C 1993.13 6.83093 -1.70294 0
M  V30 11177 C 1992.42 5.79992 -0.836974 0
M  V30 11178 N 1992.47 4.41864 -1.38293 0
M  V30 11179 H 1989.63 8.13644 -3.0377 0
M  V30 11180 H 1989.36 6.42788 -2.55485 0
M  V30 11181 H 1990.23 8.12039 -0.792769 0
M  V30 11182 P 1994.19 8.91 -2.95676e-11 0
M  V30 11183 O 1994.41 10.1726 0.733694 0
M  V30 11184 O 1994.98 8.73148 -1.23936 0
M  V30 11185 O 1994.44 7.66872 0.971405 0
M  V30 11186 C 1993.5 7.42309 2.04641 0
M  V30 11187 C 1994.23 6.86059 3.24661 0
M  V30 11188 O 1994.44 5.42847 3.03646 0
M  V30 11189 C 1995.63 7.41196 3.50753 0
M  V30 11190 O 1996.02 7.27073 4.86816 0
M  V30 11191 C 1996.51 6.5273 2.63741 0
M  V30 11192 C 1995.8 5.1842 2.73198 0
M  V30 11193 N 1995.85 4.38762 1.4784 0
M  V30 11194 H 1993.01 8.36803 2.32493 0
M  V30 11195 H 1992.74 6.70197 1.71129 0
M  V30 11196 H 1993.61 7.03551 4.13168 0
M  V30 11197 P 1997.57 7.20834 5.23717 0
M  V30 11198 O 1997.79 7.79853 6.57286 0
M  V30 11199 O 1998.36 7.79239 4.12957 0
M  V30 11200 O 1997.82 5.63315 5.29344 0
M  V30 11201 C 1996.88 4.80255 6.01876 0
M  V30 11202 C 1997.61 3.64202 6.65911 0
M  V30 11203 O 1997.82 2.60694 5.64732 0
M  V30 11204 C 1999.01 3.93473 7.1943 0
M  V30 11205 O 1999.4 3.02071 8.21205 0
M  V30 11206 C 1999.89 3.73047 5.97036 0
M  V30 11207 C 1999.18 2.58828 5.25741 0
M  V30 11208 N 1999.23 2.68068 3.77503 0
M  V30 11209 C 1999.15 3.79715 2.96723 0
M  V30 11210 N 1999.23 3.5377 1.68852 0
M  V30 11211 C 1999.37 2.15054 1.63254 0
M  V30 11212 C 1999.5 1.28964 0.518571 0
M  V30 11213 O 1999.52 1.56826 -0.679156 0
M  V30 11214 N 1999.62 -0.0538097 0.918425 0
M  V30 11215 C 1999.62 -0.494275 2.22578 0
M  V30 11216 N 1999.75 -1.81086 2.40434 0
M  V30 11217 N 1999.49 0.313645 3.27502 0
M  V30 11218 C 1999.37 1.61829 2.91033 0
M  V30 11219 H 1996.39 5.40332 6.79951 0
M  V30 11220 H 1996.12 4.41613 5.32378 0
M  V30 11221 H 1996.99 3.26331 7.47797 0
M  V30 11222 H 1999.64 1.63422 5.56814 0
M  V30 11223 H 1999.92 4.63374 5.34244 0
M  V30 11224 H 2000.91 3.44728 6.25838 0
M  V30 11225 H 1999.08 4.96652 7.57263 0
M  V30 11226 H 1999.03 4.80617 3.3614 0
M  V30 11227 H 1999.71 -0.742702 0.199384 0
M  V30 11228 H 1999.75 -2.20598 3.35588 0
M  V30 11229 H 1999.85 -2.43518 1.58945 0
M  V30 11230 P 2000.95 2.75334 8.47391 0
M  V30 11231 O 2001.17 2.44571 9.90142 0
M  V30 11232 O 2001.74 3.87688 7.92115 0
M  V30 11233 O 2001.2 1.4459 7.59357 0
M  V30 11234 C 2000.26 0.347608 7.69215 0
M  V30 11235 C 2000.99 -0.96767 7.52806 0
M  V30 11236 O 2001.2 -1.21036 6.1011 0
M  V30 11237 C 2002.39 -1.04544 8.13308 0
M  V30 11238 O 2002.78 -2.38311 8.41922 0
M  V30 11239 C 2003.27 -0.491279 7.02284 0
M  V30 11240 C 2002.56 -0.996264 5.77469 0
M  V30 11241 N 2002.61 -0.0501916 4.62973 0
M  V30 11242 H 1999.77 0.374722 8.67691 0
M  V30 11243 H 1999.5 0.443485 6.90277 0
M  V30 11244 H 2000.37 -1.75537 7.96793 0
M  V30 11245 P 2004.33 -2.75334 8.47391 0
M  V30 11246 O 2004.55 -3.84128 9.44797 0
M  V30 11247 O 2005.12 -1.51947 8.68712 0
M  V30 11248 O 2004.58 -3.29363 6.99321 0
M  V30 11249 C 2003.64 -4.24011 6.4274 0
M  V30 11250 C 2004.37 -5.20775 5.52155 0
M  V30 11251 O 2004.58 -4.56534 4.22446 0
M  V30 11252 C 2005.77 -5.62629 5.96531 0
M  V30 11253 O 2006.16 -6.87667 5.41053 0
M  V30 11254 C 2006.65 -4.52537 5.39283 0
M  V30 11255 C 2005.94 -4.20027 4.08623 0
M  V30 11256 N 2005.99 -2.76189 3.71603 0
M  V30 11257 H 2003.15 -4.797 7.24003 0
M  V30 11258 H 2002.88 -3.69856 5.84513 0
M  V30 11259 H 2003.75 -6.10356 5.41441 0
M  V30 11260 P 2007.71 -7.20834 5.23717 0
M  V30 11261 O 2007.93 -8.66104 5.38572 0
M  V30 11262 O 2008.5 -6.33544 6.1349 0
M  V30 11263 O 2007.96 -6.7751 3.72168 0
M  V30 11264 C 2007.02 -7.20825 2.7076 0
M  V30 11265 C 2007.75 -7.45864 1.40599 0
M  V30 11266 O 2007.96 -6.17651 0.734225 0
M  V30 11267 C 2009.15 -8.05808 1.51899 0
M  V30 11268 O 2009.54 -8.74358 0.335205 0
M  V30 11269 C 2010.03 -6.83093 1.70294 0
M  V30 11270 C 2009.32 -5.79992 0.836974 0
M  V30 11271 N 2009.37 -4.41864 1.38293 0
M  V30 11272 H 2006.53 -8.13644 3.0377 0
M  V30 11273 H 2006.26 -6.42788 2.55485 0
M  V30 11274 H 2007.13 -8.12039 0.792769 0
M  V30 11275 P 2011.09 -8.91 3.06766e-11 0
M  V30 11276 O 2011.31 -10.1746 -0.733838 0
M  V30 11277 O 2011.88 -8.73346 1.23964 0
M  V30 11278 O 2011.34 -7.66872 -0.971405 0
M  V30 11279 C 2010.4 -7.42405 -2.04668 0
M  V30 11280 C 2011.13 -6.86059 -3.24661 0
M  V30 11281 O 2011.34 -5.42934 -3.03695 0
M  V30 11282 C 2012.53 -7.41287 -3.50796 0
M  V30 11283 O 2012.92 -7.27073 -4.86816 0
M  V30 11284 C 2013.41 -6.5273 -2.63741 0
M  V30 11285 C 2012.7 -5.1842 -2.73198 0
M  V30 11286 N 2012.75 -4.38762 -1.4784 0
M  V30 11287 H 2009.91 -8.36899 -2.3252 0
M  V30 11288 H 2009.64 -6.70391 -1.71179 0
M  V30 11289 H 2010.51 -7.03638 -4.13219 0
M  V30 11290 H 2013.16 -4.59931 -3.54016 0
M  V30 11291 H 2013.44 -6.88995 -1.59871 0
M  V30 11292 H 2014.43 -6.4684 -3.0373 0
M  V30 11293 H 2012.6 -8.47002 -3.20749 0
M  V30 11294 P 2014.47 -7.20834 -5.23717 0
M  V30 11295 O 2014.69 -7.79853 -6.57286 0
M  V30 11296 O 2015.26 -7.79239 -4.12957 0
M  V30 11297 O 2014.72 -5.63315 -5.29344 0
M  V30 11298 C 2013.78 -4.80255 -6.01876 0
M  V30 11299 C 2014.51 -3.64202 -6.65911 0
M  V30 11300 O 2014.72 -2.60694 -5.64732 0
M  V30 11301 C 2015.91 -3.93473 -7.1943 0
M  V30 11302 O 2016.3 -3.02071 -8.21205 0
M  V30 11303 C 2016.79 -3.73047 -5.97036 0
M  V30 11304 C 2016.08 -2.58828 -5.25741 0
M  V30 11305 N 2016.13 -2.68068 -3.77503 0
M  V30 11306 H 2013.29 -5.40332 -6.79951 0
M  V30 11307 H 2013.02 -4.41613 -5.32378 0
M  V30 11308 H 2013.89 -3.26331 -7.47797 0
M  V30 11309 P 2017.85 -2.75334 -8.47391 0
M  V30 11310 O 2018.07 -2.44571 -9.90142 0
M  V30 11311 O 2018.64 -3.87688 -7.92115 0
M  V30 11312 O 2018.1 -1.4459 -7.59357 0
M  V30 11313 C 2017.16 -0.347608 -7.69215 0
M  V30 11314 C 2017.89 0.96767 -7.52806 0
M  V30 11315 O 2018.1 1.21036 -6.1011 0
M  V30 11316 C 2019.29 1.04544 -8.13308 0
M  V30 11317 O 2019.68 2.38311 -8.41922 0
M  V30 11318 C 2020.17 0.491279 -7.02284 0
M  V30 11319 C 2019.46 0.996264 -5.77469 0
M  V30 11320 N 2019.51 0.0501916 -4.62973 0
M  V30 11321 H 2016.67 -0.374722 -8.67691 0
M  V30 11322 H 2016.4 -0.443485 -6.90277 0
M  V30 11323 H 2017.27 1.75537 -7.96793 0
M  V30 11324 P 2021.23 2.75334 -8.47391 0
M  V30 11325 O 2021.45 3.84204 -9.44982 0
M  V30 11326 O 2022.02 1.51982 -8.68909 0
M  V30 11327 O 2021.48 3.29363 -6.99321 0
M  V30 11328 C 2020.54 4.24066 -6.42823 0
M  V30 11329 C 2021.27 5.20775 -5.52155 0
M  V30 11330 O 2021.48 4.56607 -4.22514 0
M  V30 11331 C 2022.67 5.62697 -5.96604 0
M  V30 11332 O 2023.06 6.87667 -5.41053 0
M  V30 11333 C 2023.55 4.52537 -5.39283 0
M  V30 11334 C 2022.84 4.20027 -4.08623 0
M  V30 11335 N 2022.89 2.76189 -3.71603 0
M  V30 11336 H 2020.05 4.79756 -7.24086 0
M  V30 11337 H 2019.78 3.69963 -5.84682 0
M  V30 11338 H 2020.65 6.10431 -5.41508 0
M  V30 11339 H 2023.3 4.78816 -3.28024 0
M  V30 11340 H 2023.58 3.64957 -6.05871 0
M  V30 11341 H 2024.57 4.88748 -5.21323 0
M  V30 11342 H 2022.74 5.66789 -7.0643 0
M  V30 11343 P 2024.61 7.20834 -5.23717 0
M  V30 11344 O 2024.83 8.66189 -5.38625 0
M  V30 11345 O 2025.4 6.33615 -6.1356 0
M  V30 11346 O 2024.86 6.7751 -3.72168 0
M  V30 11347 C 2023.92 7.20732 -2.70725 0
M  V30 11348 C 2024.65 7.45864 -1.40599 0
M  V30 11349 O 2024.86 6.17651 -0.734225 0
M  V30 11350 C 2026.05 8.05808 -1.51899 0
M  V30 11351 O 2026.44 8.74358 -0.335205 0
M  V30 11352 C 2026.93 6.83093 -1.70294 0
M  V30 11353 C 2026.22 5.79992 -0.836974 0
M  V30 11354 N 2026.27 4.41769 -1.38263 0
M  V30 11355 C 2026.42 3.38591 -0.481702 0
M  V30 11356 O 2026.51 3.56839 0.718452 0
M  V30 11357 N 2026.46 2.1206 -1.03569 0
M  V30 11358 C 2026.37 1.80696 -2.36966 0
M  V30 11359 O 2026.42 0.630473 -2.74862 0
M  V30 11360 C 2026.22 2.94845 -3.23898 0
M  V30 11361 C 2026.11 2.65253 -4.70362 0
M  V30 11362 C 2026.17 4.19803 -2.73435 0
M  V30 11363 H 2023.43 8.13644 -3.0377 0
M  V30 11364 H 2023.16 6.42695 -2.55448 0
M  V30 11365 H 2024.03 8.12039 -0.792769 0
M  V30 11366 H 2026.68 5.79978 0.160587 0
M  V30 11367 H 2026.96 6.51379 -2.75643 0
M  V30 11368 H 2027.95 7.01734 -1.34462 0
M  V30 11369 H 2026.12 8.73674 -2.38337 0
M  V30 11370 H 2026.05 5.04492 -3.4095 0
M  V30 11371 H 2027.08 2.83924 -5.1913 0
M  V30 11372 H 2025.34 3.29824 -5.15163 0
M  V30 11373 H 2025.83 1.59723 -4.84449 0
M  V30 11374 H 2026.56 1.35644 -0.399345 0
M  V30 11375 P 2027.99 8.91 -3.17856e-11 0
M  V30 11376 O 2028.21 10.1726 0.733694 0
M  V30 11377 O 2028.78 8.73148 -1.23936 0
M  V30 11378 O 2028.24 7.66872 0.971405 0
M  V30 11379 C 2027.3 7.42309 2.04641 0
M  V30 11380 C 2028.03 6.86059 3.24661 0
M  V30 11381 O 2028.24 5.42847 3.03646 0
M  V30 11382 C 2029.43 7.41196 3.50753 0
M  V30 11383 O 2029.82 7.27073 4.86816 0
M  V30 11384 C 2030.31 6.5273 2.63741 0
M  V30 11385 C 2029.6 5.1842 2.73198 0
M  V30 11386 N 2029.65 4.38762 1.4784 0
M  V30 11387 C 2029.57 4.81605 0.168631 0
M  V30 11388 N 2029.65 3.85454 -0.713363 0
M  V30 11389 C 2029.79 2.6994 0.0566958 0
M  V30 11390 C 2029.92 1.34815 -0.338502 0
M  V30 11391 N 2030.04 0.496304 0.77465 0
M  V30 11392 C 2030.04 0.908403 2.09122 0
M  V30 11393 N 2030.17 -0.0517805 3.00955 0
M  V30 11394 N 2029.91 2.17875 2.46519 0
M  V30 11395 C 2029.79 3.01988 1.4033 0
M  V30 11396 H 2026.81 8.36803 2.32493 0
M  V30 11397 H 2026.54 6.70197 1.71129 0
M  V30 11398 H 2027.41 7.03551 4.13168 0
M  V30 11399 P 2031.37 7.20834 5.23717 0
M  V30 11400 O 2031.59 7.79853 6.57286 0
M  V30 11401 O 2032.16 7.79239 4.12957 0
M  V30 11402 O 2031.62 5.63315 5.29344 0
M  V30 11403 C 2030.68 4.80255 6.01876 0
M  V30 11404 C 2031.41 3.64202 6.65911 0
M  V30 11405 O 2031.62 2.60694 5.64732 0
M  V30 11406 C 2032.81 3.93473 7.1943 0
M  V30 11407 O 2033.2 3.02071 8.21205 0
M  V30 11408 C 2033.69 3.73047 5.97036 0
M  V30 11409 C 2032.98 2.58828 5.25741 0
M  V30 11410 N 2033.03 2.68068 3.77503 0
M  V30 11411 C 2032.95 3.79715 2.96723 0
M  V30 11412 N 2033.03 3.5377 1.68852 0
M  V30 11413 C 2033.17 2.15054 1.63254 0
M  V30 11414 C 2033.3 1.28964 0.518571 0
M  V30 11415 O 2033.32 1.56826 -0.679156 0
M  V30 11416 N 2033.42 -0.0538097 0.918425 0
M  V30 11417 C 2033.42 -0.494275 2.22578 0
M  V30 11418 N 2033.55 -1.81086 2.40434 0
M  V30 11419 N 2033.29 0.313645 3.27502 0
M  V30 11420 C 2033.17 1.61829 2.91033 0
M  V30 11421 H 2030.19 5.40332 6.79951 0
M  V30 11422 H 2029.92 4.41613 5.32378 0
M  V30 11423 H 2030.79 3.26331 7.47797 0
M  V30 11424 H 2033.44 1.63422 5.56814 0
M  V30 11425 H 2033.72 4.63374 5.34244 0
M  V30 11426 H 2034.71 3.44728 6.25838 0
M  V30 11427 H 2032.88 4.96652 7.57263 0
M  V30 11428 H 2032.83 4.80617 3.3614 0
M  V30 11429 H 2033.51 -0.742702 0.199384 0
M  V30 11430 H 2033.55 -2.20598 3.35588 0
M  V30 11431 H 2033.65 -2.43518 1.58945 0
M  V30 11432 P 2034.75 2.75334 8.47391 0
M  V30 11433 O 2034.97 2.44619 9.90336 0
M  V30 11434 O 2035.54 3.87776 7.92294 0
M  V30 11435 O 2035 1.4459 7.59357 0
M  V30 11436 C 2034.06 0.347653 7.69315 0
M  V30 11437 C 2034.79 -0.96767 7.52806 0
M  V30 11438 O 2035 -1.21055 6.10208 0
M  V30 11439 C 2036.19 -1.04557 8.13408 0
M  V30 11440 O 2036.58 -2.38311 8.41922 0
M  V30 11441 C 2037.07 -0.491279 7.02284 0
M  V30 11442 C 2036.36 -0.996264 5.77469 0
M  V30 11443 N 2036.41 -0.0501916 4.62973 0
M  V30 11444 C 2036.33 1.31969 4.65661 0
M  V30 11445 N 2036.4 1.86649 3.48119 0
M  V30 11446 C 2036.55 0.792089 2.62406 0
M  V30 11447 C 2036.68 0.705684 1.2207 0
M  V30 11448 N 2036.69 1.76207 0.413762 0
M  V30 11449 N 2036.8 -0.518981 0.685754 0
M  V30 11450 C 2036.79 -1.57595 1.49174 0
M  V30 11451 N 2036.67 -1.62909 2.80066 0
M  V30 11452 C 2036.55 -0.388195 3.3073 0
M  V30 11453 H 2033.57 0.374765 8.67791 0
M  V30 11454 H 2033.3 0.443613 6.90476 0
M  V30 11455 H 2034.17 -1.75559 7.96891 0
M  V30 11456 H 2036.82 -1.94563 5.46818 0
M  V30 11457 H 2037.1 0.608651 7.04676 0
M  V30 11458 H 2038.09 -0.889796 7.09039 0
M  V30 11459 H 2036.26 -0.433128 9.04664 0
M  V30 11460 H 2036.22 1.89246 5.57664 0
M  V30 11461 H 2036.6 2.71005 0.804694 0
M  V30 11462 H 2036.79 1.63189 -0.603768 0
M  V30 11463 H 2036.89 -2.53475 0.997614 0
M  V30 11464 P 2038.13 -2.75334 8.47391 0
M  V30 11465 O 2038.35 -3.84128 9.44797 0
M  V30 11466 O 2038.92 -1.51947 8.68712 0
M  V30 11467 O 2038.38 -3.29363 6.99321 0
M  V30 11468 C 2037.44 -4.24011 6.4274 0
M  V30 11469 C 2038.17 -5.20775 5.52155 0
M  V30 11470 O 2038.38 -4.56534 4.22446 0
M  V30 11471 C 2039.57 -5.62629 5.96531 0
M  V30 11472 O 2039.96 -6.87667 5.41053 0
M  V30 11473 C 2040.45 -4.52537 5.39283 0
M  V30 11474 C 2039.74 -4.20027 4.08623 0
M  V30 11475 N 2039.79 -2.76189 3.71603 0
M  V30 11476 H 2036.95 -4.797 7.24003 0
M  V30 11477 H 2036.68 -3.69856 5.84513 0
M  V30 11478 H 2037.55 -6.10356 5.41441 0
M  V30 11479 P 2041.51 -7.20834 5.23717 0
M  V30 11480 O 2041.73 -8.66104 5.38572 0
M  V30 11481 O 2042.3 -6.33544 6.1349 0
M  V30 11482 O 2041.76 -6.7751 3.72168 0
M  V30 11483 C 2040.82 -7.20825 2.7076 0
M  V30 11484 C 2041.55 -7.45864 1.40599 0
M  V30 11485 O 2041.76 -6.17651 0.734225 0
M  V30 11486 C 2042.95 -8.05808 1.51899 0
M  V30 11487 O 2043.34 -8.74358 0.335205 0
M  V30 11488 C 2043.83 -6.83093 1.70294 0
M  V30 11489 C 2043.12 -5.79992 0.836974 0
M  V30 11490 N 2043.17 -4.41864 1.38293 0
M  V30 11491 H 2040.33 -8.13644 3.0377 0
M  V30 11492 H 2040.06 -6.42788 2.55485 0
M  V30 11493 H 2040.93 -8.12039 0.792769 0
M  V30 11494 P 2044.89 -8.91 3.28946e-11 0
M  V30 11495 O 2045.11 -10.1736 -0.733766 0
M  V30 11496 O 2045.68 -8.73247 1.2395 0
M  V30 11497 O 2045.14 -7.66872 -0.971405 0
M  V30 11498 C 2044.2 -7.42212 -2.04614 0
M  V30 11499 C 2044.93 -6.86059 -3.24661 0
M  V30 11500 O 2045.14 -5.42847 -3.03646 0
M  V30 11501 C 2046.33 -7.41196 -3.50753 0
M  V30 11502 O 2046.72 -7.27073 -4.86816 0
M  V30 11503 C 2047.21 -6.5273 -2.63741 0
M  V30 11504 C 2046.5 -5.1842 -2.73198 0
M  V30 11505 N 2046.55 -4.38668 -1.47808 0
M  V30 11506 C 2046.7 -3.02239 -1.60048 0
M  V30 11507 O 2046.79 -2.46459 -2.67869 0
M  V30 11508 N 2046.74 -2.32436 -0.408571 0
M  V30 11509 C 2046.65 -2.85471 0.854993 0
M  V30 11510 C 2046.5 -4.28918 0.887335 0
M  V30 11511 C 2046.45 -5.00349 -0.255399 0
M  V30 11512 H 2043.71 -8.36803 -2.32493 0
M  V30 11513 H 2043.44 -6.701 -1.71105 0
M  V30 11514 H 2044.31 -7.03551 -4.13168 0
M  V30 11515 H 2046.96 -4.59773 -3.53894 0
M  V30 11516 H 2047.24 -6.88995 -1.59871 0
M  V30 11517 H 2048.23 -6.46749 -3.03687 0
M  V30 11518 H 2046.4 -8.46908 -3.20714 0
M  V30 11519 H 2046.33 -6.08548 -0.206986 0
M  V30 11520 P 2048.27 -7.20834 -5.23717 0
M  V30 11521 O 2048.49 -7.79853 -6.57286 0
M  V30 11522 O 2049.06 -7.79239 -4.12957 0
M  V30 11523 O 2048.52 -5.63315 -5.29344 0
M  V30 11524 C 2047.58 -4.80255 -6.01876 0
M  V30 11525 C 2048.31 -3.64202 -6.65911 0
M  V30 11526 O 2048.52 -2.60694 -5.64732 0
M  V30 11527 C 2049.71 -3.93473 -7.1943 0
M  V30 11528 O 2050.1 -3.02071 -8.21205 0
M  V30 11529 C 2050.59 -3.73047 -5.97036 0
M  V30 11530 C 2049.88 -2.58828 -5.25741 0
M  V30 11531 N 2049.93 -2.68068 -3.77503 0
M  V30 11532 H 2047.09 -5.40332 -6.79951 0
M  V30 11533 H 2046.82 -4.41613 -5.32378 0
M  V30 11534 H 2047.69 -3.26331 -7.47797 0
M  V30 11535 P 2051.65 -2.75334 -8.47391 0
M  V30 11536 O 2051.87 -2.44571 -9.90142 0
M  V30 11537 O 2052.44 -3.87688 -7.92115 0
M  V30 11538 O 2051.9 -1.4459 -7.59357 0
M  V30 11539 C 2050.96 -0.347608 -7.69215 0
M  V30 11540 C 2051.69 0.96767 -7.52806 0
M  V30 11541 O 2051.9 1.21036 -6.1011 0
M  V30 11542 C 2053.09 1.04544 -8.13308 0
M  V30 11543 O 2053.48 2.38311 -8.41922 0
M  V30 11544 C 2053.97 0.491279 -7.02284 0
M  V30 11545 C 2053.26 0.996264 -5.77469 0
M  V30 11546 N 2053.31 0.0501916 -4.62973 0
M  V30 11547 H 2050.47 -0.374722 -8.67691 0
M  V30 11548 H 2050.2 -0.443485 -6.90277 0
M  V30 11549 H 2051.07 1.75537 -7.96793 0
M  V30 11550 P 2055.03 2.75334 -8.47391 0
M  V30 11551 O 2055.25 3.84128 -9.44797 0
M  V30 11552 O 2055.82 1.51947 -8.68712 0
M  V30 11553 O 2055.28 3.29363 -6.99321 0
M  V30 11554 C 2054.34 4.24011 -6.4274 0
M  V30 11555 C 2055.07 5.20775 -5.52155 0
M  V30 11556 O 2055.28 4.56534 -4.22446 0
M  V30 11557 C 2056.47 5.62629 -5.96531 0
M  V30 11558 O 2056.86 6.87667 -5.41053 0
M  V30 11559 C 2057.35 4.52537 -5.39283 0
M  V30 11560 C 2056.64 4.20027 -4.08623 0
M  V30 11561 N 2056.69 2.76189 -3.71603 0
M  V30 11562 H 2053.85 4.797 -7.24003 0
M  V30 11563 H 2053.58 3.69856 -5.84513 0
M  V30 11564 H 2054.45 6.10356 -5.41441 0
M  V30 11565 P 2058.41 7.20834 -5.23717 0
M  V30 11566 O 2058.63 8.66104 -5.38572 0
M  V30 11567 O 2059.2 6.33544 -6.1349 0
M  V30 11568 O 2058.66 6.7751 -3.72168 0
M  V30 11569 C 2057.72 7.20825 -2.7076 0
M  V30 11570 C 2058.45 7.45864 -1.40599 0
M  V30 11571 O 2058.66 6.17651 -0.734225 0
M  V30 11572 C 2059.85 8.05808 -1.51899 0
M  V30 11573 O 2060.24 8.74358 -0.335205 0
M  V30 11574 C 2060.73 6.83093 -1.70294 0
M  V30 11575 C 2060.02 5.79992 -0.836974 0
M  V30 11576 N 2060.07 4.41864 -1.38293 0
M  V30 11577 H 2057.23 8.13644 -3.0377 0
M  V30 11578 H 2056.96 6.42788 -2.55485 0
M  V30 11579 H 2057.83 8.12039 -0.792769 0
M  V30 11580 P 2061.79 8.91 -3.40036e-11 0
M  V30 11581 O 2062.01 10.1736 0.733766 0
M  V30 11582 O 2062.58 8.73247 -1.2395 0
M  V30 11583 O 2062.04 7.66872 0.971405 0
M  V30 11584 C 2061.1 7.42212 2.04614 0
M  V30 11585 C 2061.83 6.86059 3.24661 0
M  V30 11586 O 2062.04 5.42847 3.03646 0
M  V30 11587 C 2063.23 7.41196 3.50753 0
M  V30 11588 O 2063.62 7.27073 4.86816 0
M  V30 11589 C 2064.11 6.5273 2.63741 0
M  V30 11590 C 2063.4 5.1842 2.73198 0
M  V30 11591 N 2063.45 4.38668 1.47808 0
M  V30 11592 C 2063.6 3.02239 1.60048 0
M  V30 11593 O 2063.69 2.46459 2.67869 0
M  V30 11594 N 2063.64 2.32436 0.408571 0
M  V30 11595 C 2063.55 2.85471 -0.854993 0
M  V30 11596 O 2063.6 2.12566 -1.8531 0
M  V30 11597 C 2063.4 4.28918 -0.887335 0
M  V30 11598 C 2063.29 4.91066 -2.24619 0
M  V30 11599 C 2063.35 5.00349 0.255399 0
M  V30 11600 H 2060.61 8.36803 2.32493 0
M  V30 11601 H 2060.34 6.701 1.71105 0
M  V30 11602 H 2061.21 7.03551 4.13168 0
M  V30 11603 H 2063.86 4.59773 3.53894 0
M  V30 11604 H 2064.14 6.88995 1.59871 0
M  V30 11605 H 2065.13 6.46749 3.03687 0
M  V30 11606 H 2063.3 8.46908 3.20714 0
M  V30 11607 H 2063.23 6.08548 0.206986 0
M  V30 11608 H 2064.26 5.34836 -2.53099 0
M  V30 11609 H 2062.52 5.69638 -2.2291 0
M  V30 11610 H 2063.01 4.13971 -2.98044 0
M  V30 11611 H 2063.74 1.33211 0.474216 0
M  V30 11612 P 2065.17 7.20834 5.23717 0
M  V30 11613 O 2065.39 7.79853 6.57286 0
M  V30 11614 O 2065.96 7.79239 4.12957 0
M  V30 11615 O 2065.42 5.63315 5.29344 0
M  V30 11616 C 2064.48 4.80255 6.01876 0
M  V30 11617 C 2065.21 3.64202 6.65911 0
M  V30 11618 O 2065.42 2.60694 5.64732 0
M  V30 11619 C 2066.61 3.93473 7.1943 0
M  V30 11620 O 2067 3.02071 8.21205 0
M  V30 11621 C 2067.49 3.73047 5.97036 0
M  V30 11622 C 2066.78 2.58828 5.25741 0
M  V30 11623 N 2066.83 2.68068 3.77503 0
M  V30 11624 H 2063.99 5.40332 6.79951 0
M  V30 11625 H 2063.72 4.41613 5.32378 0
M  V30 11626 H 2064.59 3.26331 7.47797 0
M  V30 11627 P 2068.55 2.75334 8.47391 0
M  V30 11628 O 2068.77 2.44571 9.90142 0
M  V30 11629 O 2069.34 3.87688 7.92115 0
M  V30 11630 O 2068.8 1.4459 7.59357 0
M  V30 11631 C 2067.86 0.347608 7.69215 0
M  V30 11632 C 2068.59 -0.96767 7.52806 0
M  V30 11633 O 2068.8 -1.21036 6.1011 0
M  V30 11634 C 2069.99 -1.04544 8.13308 0
M  V30 11635 O 2070.38 -2.38311 8.41922 0
M  V30 11636 C 2070.87 -0.491279 7.02284 0
M  V30 11637 C 2070.16 -0.996264 5.77469 0
M  V30 11638 N 2070.21 -0.0501916 4.62973 0
M  V30 11639 H 2067.37 0.374722 8.67691 0
M  V30 11640 H 2067.1 0.443485 6.90277 0
M  V30 11641 H 2067.97 -1.75537 7.96793 0
M  V30 11642 P 2071.93 -2.75334 8.47391 0
M  V30 11643 O 2072.15 -3.84128 9.44797 0
M  V30 11644 O 2072.72 -1.51947 8.68712 0
M  V30 11645 O 2072.18 -3.29363 6.99321 0
M  V30 11646 C 2071.24 -4.24011 6.4274 0
M  V30 11647 C 2071.97 -5.20775 5.52155 0
M  V30 11648 O 2072.18 -4.56534 4.22446 0
M  V30 11649 C 2073.37 -5.62629 5.96531 0
M  V30 11650 O 2073.76 -6.87667 5.41053 0
M  V30 11651 C 2074.25 -4.52537 5.39283 0
M  V30 11652 C 2073.54 -4.20027 4.08623 0
M  V30 11653 N 2073.59 -2.76189 3.71603 0
M  V30 11654 H 2070.75 -4.797 7.24003 0
M  V30 11655 H 2070.48 -3.69856 5.84513 0
M  V30 11656 H 2071.35 -6.10356 5.41441 0
M  V30 11657 P 2075.31 -7.20834 5.23717 0
M  V30 11658 O 2075.53 -8.66189 5.38625 0
M  V30 11659 O 2076.1 -6.33615 6.1356 0
M  V30 11660 O 2075.56 -6.7751 3.72168 0
M  V30 11661 C 2074.62 -7.20732 2.70725 0
M  V30 11662 C 2075.35 -7.45864 1.40599 0
M  V30 11663 O 2075.56 -6.17651 0.734225 0
M  V30 11664 C 2076.75 -8.05808 1.51899 0
M  V30 11665 O 2077.14 -8.74358 0.335205 0
M  V30 11666 C 2077.63 -6.83093 1.70294 0
M  V30 11667 C 2076.92 -5.79992 0.836974 0
M  V30 11668 N 2076.97 -4.41769 1.38263 0
M  V30 11669 C 2077.12 -3.38591 0.481702 0
M  V30 11670 O 2077.21 -3.56839 -0.718452 0
M  V30 11671 N 2077.16 -2.1206 1.03569 0
M  V30 11672 C 2077.07 -1.80696 2.36966 0
M  V30 11673 O 2077.12 -0.630473 2.74862 0
M  V30 11674 C 2076.92 -2.94845 3.23898 0
M  V30 11675 C 2076.81 -2.65253 4.70362 0
M  V30 11676 C 2076.87 -4.19803 2.73435 0
M  V30 11677 H 2074.13 -8.13644 3.0377 0
M  V30 11678 H 2073.86 -6.42695 2.55448 0
M  V30 11679 H 2074.73 -8.12039 0.792769 0
M  V30 11680 H 2077.38 -5.79978 -0.160587 0
M  V30 11681 H 2077.66 -6.51379 2.75643 0
M  V30 11682 H 2078.65 -7.01734 1.34462 0
M  V30 11683 H 2076.82 -8.73674 2.38337 0
M  V30 11684 H 2076.75 -5.04492 3.4095 0
M  V30 11685 H 2077.78 -2.83924 5.1913 0
M  V30 11686 H 2076.04 -3.29824 5.15163 0
M  V30 11687 H 2076.53 -1.59723 4.84449 0
M  V30 11688 H 2077.26 -1.35644 0.399345 0
M  V30 11689 P 2078.69 -8.91 3.51126e-11 0
M  V30 11690 O 2078.91 -10.1726 -0.733694 0
M  V30 11691 O 2079.48 -8.73148 1.23936 0
M  V30 11692 O 2078.94 -7.66872 -0.971405 0
M  V30 11693 C 2078 -7.42309 -2.04641 0
M  V30 11694 C 2078.73 -6.86059 -3.24661 0
M  V30 11695 O 2078.94 -5.42847 -3.03646 0
M  V30 11696 C 2080.13 -7.41196 -3.50753 0
M  V30 11697 O 2080.52 -7.27073 -4.86816 0
M  V30 11698 C 2081.01 -6.5273 -2.63741 0
M  V30 11699 C 2080.3 -5.1842 -2.73198 0
M  V30 11700 N 2080.35 -4.38762 -1.4784 0
M  V30 11701 H 2077.51 -8.36803 -2.32493 0
M  V30 11702 H 2077.24 -6.70197 -1.71129 0
M  V30 11703 H 2078.11 -7.03551 -4.13168 0
M  V30 11704 P 2082.07 -7.20834 -5.23717 0
M  V30 11705 O 2082.29 -7.7993 -6.57351 0
M  V30 11706 O 2082.86 -7.79328 -4.13004 0
M  V30 11707 O 2082.32 -5.63315 -5.29344 0
M  V30 11708 C 2081.38 -4.80193 -6.01798 0
M  V30 11709 C 2082.11 -3.64202 -6.65911 0
M  V30 11710 O 2082.32 -2.60694 -5.64732 0
M  V30 11711 C 2083.51 -3.93473 -7.1943 0
M  V30 11712 O 2083.9 -3.02071 -8.21205 0
M  V30 11713 C 2084.39 -3.73047 -5.97036 0
M  V30 11714 C 2083.68 -2.58828 -5.25741 0
M  V30 11715 N 2083.73 -2.6801 -3.77422 0
M  V30 11716 C 2083.88 -1.50443 -3.07133 0
M  V30 11717 O 2083.97 -0.419406 -3.61576 0
M  V30 11718 N 2083.92 -1.6403 -1.69677 0
M  V30 11719 C 2083.83 -2.81206 -0.986255 0
M  V30 11720 C 2083.68 -3.99158 -1.80325 0
M  V30 11721 C 2083.63 -3.89779 -3.1476 0
M  V30 11722 H 2080.89 -5.40332 -6.79951 0
M  V30 11723 H 2080.62 -4.41549 -5.32301 0
M  V30 11724 H 2081.49 -3.26331 -7.47797 0
M  V30 11725 H 2084.14 -1.6395 -5.56554 0
M  V30 11726 H 2084.42 -4.63439 -5.3432 0
M  V30 11727 H 2085.41 -3.44728 -6.25838 0
M  V30 11728 H 2083.58 -4.96652 -7.57263 0
M  V30 11729 H 2083.51 -4.80159 -3.74441 0
M  V30 11730 P 2085.45 -2.75334 -8.47391 0
M  V30 11731 O 2085.67 -2.44571 -9.90142 0
M  V30 11732 O 2086.24 -3.87688 -7.92115 0
M  V30 11733 O 2085.7 -1.4459 -7.59357 0
M  V30 11734 C 2084.76 -0.347608 -7.69215 0
M  V30 11735 C 2085.49 0.96767 -7.52806 0
M  V30 11736 O 2085.7 1.21036 -6.1011 0
M  V30 11737 C 2086.89 1.04544 -8.13308 0
M  V30 11738 O 2087.28 2.38311 -8.41922 0
M  V30 11739 C 2087.77 0.491279 -7.02284 0
M  V30 11740 C 2087.06 0.996264 -5.77469 0
M  V30 11741 N 2087.11 0.0501916 -4.62973 0
M  V30 11742 H 2084.27 -0.374722 -8.67691 0
M  V30 11743 H 2084 -0.443485 -6.90277 0
M  V30 11744 H 2084.87 1.75537 -7.96793 0
M  V30 11745 P 2088.83 2.75334 -8.47391 0
M  V30 11746 O 2089.05 3.84128 -9.44797 0
M  V30 11747 O 2089.62 1.51947 -8.68712 0
M  V30 11748 O 2089.08 3.29363 -6.99321 0
M  V30 11749 C 2088.14 4.24011 -6.4274 0
M  V30 11750 C 2088.87 5.20775 -5.52155 0
M  V30 11751 O 2089.08 4.56534 -4.22446 0
M  V30 11752 C 2090.27 5.62629 -5.96531 0
M  V30 11753 O 2090.66 6.87667 -5.41053 0
M  V30 11754 C 2091.15 4.52537 -5.39283 0
M  V30 11755 C 2090.44 4.20027 -4.08623 0
M  V30 11756 N 2090.49 2.76189 -3.71603 0
M  V30 11757 H 2087.65 4.797 -7.24003 0
M  V30 11758 H 2087.38 3.69856 -5.84513 0
M  V30 11759 H 2088.25 6.10356 -5.41441 0
M  V30 11760 P 2092.21 7.20834 -5.23717 0
M  V30 11761 O 2092.43 8.66104 -5.38572 0
M  V30 11762 O 2093 6.33544 -6.1349 0
M  V30 11763 O 2092.46 6.7751 -3.72168 0
M  V30 11764 C 2091.52 7.20825 -2.7076 0
M  V30 11765 C 2092.25 7.45864 -1.40599 0
M  V30 11766 O 2092.46 6.17651 -0.734225 0
M  V30 11767 C 2093.65 8.05808 -1.51899 0
M  V30 11768 O 2094.04 8.74358 -0.335205 0
M  V30 11769 C 2094.53 6.83093 -1.70294 0
M  V30 11770 C 2093.82 5.79992 -0.836974 0
M  V30 11771 N 2093.87 4.41864 -1.38293 0
M  V30 11772 H 2091.03 8.13644 -3.0377 0
M  V30 11773 H 2090.76 6.42788 -2.55485 0
M  V30 11774 H 2091.63 8.12039 -0.792769 0
M  V30 11775 P 2095.59 8.91 -3.62216e-11 0
M  V30 11776 O 2095.81 10.1726 0.733694 0
M  V30 11777 O 2096.38 8.73148 -1.23936 0
M  V30 11778 O 2095.84 7.66872 0.971405 0
M  V30 11779 C 2094.9 7.42309 2.04641 0
M  V30 11780 C 2095.63 6.86059 3.24661 0
M  V30 11781 O 2095.84 5.42847 3.03646 0
M  V30 11782 C 2097.03 7.41196 3.50753 0
M  V30 11783 O 2097.42 7.27073 4.86816 0
M  V30 11784 C 2097.91 6.5273 2.63741 0
M  V30 11785 C 2097.2 5.1842 2.73198 0
M  V30 11786 N 2097.25 4.38762 1.4784 0
M  V30 11787 C 2097.17 4.81605 0.168631 0
M  V30 11788 N 2097.25 3.85454 -0.713363 0
M  V30 11789 C 2097.39 2.6994 0.0566958 0
M  V30 11790 C 2097.52 1.34815 -0.338502 0
M  V30 11791 O 2097.54 0.869548 -1.47125 0
M  V30 11792 N 2097.64 0.496304 0.77465 0
M  V30 11793 C 2097.64 0.908403 2.09122 0
M  V30 11794 N 2097.77 -0.0517805 3.00955 0
M  V30 11795 N 2097.51 2.17875 2.46519 0
M  V30 11796 C 2097.39 3.01988 1.4033 0
M  V30 11797 H 2094.41 8.36803 2.32493 0
M  V30 11798 H 2094.14 6.70197 1.71129 0
M  V30 11799 H 2095.01 7.03551 4.13168 0
M  V30 11800 H 2097.66 4.59498 3.54415 0
M  V30 11801 H 2097.94 6.88898 1.59848 0
M  V30 11802 H 2098.93 6.46749 3.03687 0
M  V30 11803 H 2097.1 8.46908 3.20714 0
M  V30 11804 H 2097.05 5.86405 -0.105564 0
M  V30 11805 H 2097.73 -0.483664 0.597855 0
M  V30 11806 H 2097.77 0.187865 4.0116 0
M  V30 11807 H 2097.87 -1.03585 2.71726 0
M  V30 11808 P 2098.97 7.20834 5.23717 0
M  V30 11809 O 2099.19 7.79853 6.57286 0
M  V30 11810 O 2099.76 7.79239 4.12957 0
M  V30 11811 O 2099.22 5.63315 5.29344 0
M  V30 11812 C 2098.28 4.80255 6.01876 0
M  V30 11813 C 2099.01 3.64202 6.65911 0
M  V30 11814 O 2099.22 2.60694 5.64732 0
M  V30 11815 C 2100.41 3.93473 7.1943 0
M  V30 11816 O 2100.8 3.02071 8.21205 0
M  V30 11817 C 2101.29 3.73047 5.97036 0
M  V30 11818 C 2100.58 2.58828 5.25741 0
M  V30 11819 N 2100.63 2.68068 3.77503 0
M  V30 11820 C 2100.55 3.79715 2.96723 0
M  V30 11821 N 2100.63 3.5377 1.68852 0
M  V30 11822 C 2100.77 2.15054 1.63254 0
M  V30 11823 C 2100.9 1.28964 0.518571 0
M  V30 11824 N 2101.02 -0.0538097 0.918425 0
M  V30 11825 C 2101.02 -0.494275 2.22578 0
M  V30 11826 N 2101.15 -1.81086 2.40434 0
M  V30 11827 N 2100.89 0.313645 3.27502 0
M  V30 11828 C 2100.77 1.61829 2.91033 0
M  V30 11829 H 2097.79 5.40332 6.79951 0
M  V30 11830 H 2097.52 4.41613 5.32378 0
M  V30 11831 H 2098.39 3.26331 7.47797 0
M  V30 11832 P 2102.35 2.75334 8.47391 0
M  V30 11833 O 2102.57 2.44571 9.90142 0
M  V30 11834 O 2103.14 3.87688 7.92115 0
M  V30 11835 O 2102.6 1.4459 7.59357 0
M  V30 11836 C 2101.66 0.347608 7.69215 0
M  V30 11837 C 2102.39 -0.96767 7.52806 0
M  V30 11838 O 2102.6 -1.21036 6.1011 0
M  V30 11839 C 2103.79 -1.04544 8.13308 0
M  V30 11840 O 2104.18 -2.38311 8.41922 0
M  V30 11841 C 2104.67 -0.491279 7.02284 0
M  V30 11842 C 2103.96 -0.996264 5.77469 0
M  V30 11843 N 2104.01 -0.0501916 4.62973 0
M  V30 11844 C 2103.93 1.32786 4.63244 0
M  V30 11845 N 2104.01 1.86957 3.44545 0
M  V30 11846 C 2104.15 0.780241 2.58481 0
M  V30 11847 C 2104.28 0.738536 1.17757 0
M  V30 11848 N 2104.4 -0.58337 0.711393 0
M  V30 11849 C 2104.4 -1.70816 1.51017 0
M  V30 11850 N 2104.53 -2.87826 0.880757 0
M  V30 11851 N 2104.27 -1.67126 2.8339 0
M  V30 11852 C 2104.15 -0.401421 3.30572 0
M  V30 11853 H 2101.17 0.374722 8.67691 0
M  V30 11854 H 2100.9 0.443485 6.90277 0
M  V30 11855 H 2101.77 -1.75537 7.96793 0
M  V30 11856 P 2105.73 -2.75334 8.47391 0
M  V30 11857 O 2105.95 -3.84128 9.44797 0
M  V30 11858 O 2106.52 -1.51947 8.68712 0
M  V30 11859 O 2105.98 -3.29363 6.99321 0
M  V30 11860 C 2105.04 -4.24011 6.4274 0
M  V30 11861 C 2105.77 -5.20775 5.52155 0
M  V30 11862 O 2105.98 -4.56534 4.22446 0
M  V30 11863 C 2107.17 -5.62629 5.96531 0
M  V30 11864 O 2107.56 -6.87667 5.41053 0
M  V30 11865 C 2108.05 -4.52537 5.39283 0
M  V30 11866 C 2107.34 -4.20027 4.08623 0
M  V30 11867 N 2107.39 -2.76189 3.71603 0
M  V30 11868 H 2104.55 -4.797 7.24003 0
M  V30 11869 H 2104.28 -3.69856 5.84513 0
M  V30 11870 H 2105.15 -6.10356 5.41441 0
M  V30 11871 P 2109.11 -7.20834 5.23717 0
M  V30 11872 O 2109.33 -8.66104 5.38572 0
M  V30 11873 O 2109.9 -6.33544 6.1349 0
M  V30 11874 O 2109.36 -6.7751 3.72168 0
M  V30 11875 C 2108.42 -7.20825 2.7076 0
M  V30 11876 C 2109.15 -7.45864 1.40599 0
M  V30 11877 O 2109.36 -6.17651 0.734225 0
M  V30 11878 C 2110.55 -8.05808 1.51899 0
M  V30 11879 O 2110.94 -8.74358 0.335205 0
M  V30 11880 C 2111.43 -6.83093 1.70294 0
M  V30 11881 C 2110.72 -5.79992 0.836974 0
M  V30 11882 N 2110.77 -4.41864 1.38293 0
M  V30 11883 H 2107.93 -8.13644 3.0377 0
M  V30 11884 H 2107.66 -6.42788 2.55485 0
M  V30 11885 H 2108.53 -8.12039 0.792769 0
M  V30 11886 P 2112.49 -8.91 3.73306e-11 0
M  V30 11887 O 2112.71 -10.1726 -0.733694 0
M  V30 11888 O 2113.28 -8.73148 1.23936 0
M  V30 11889 O 2112.74 -7.66872 -0.971405 0
M  V30 11890 C 2111.8 -7.42309 -2.04641 0
M  V30 11891 C 2112.53 -6.86059 -3.24661 0
M  V30 11892 O 2112.74 -5.42847 -3.03646 0
M  V30 11893 C 2113.93 -7.41196 -3.50753 0
M  V30 11894 O 2114.32 -7.27073 -4.86816 0
M  V30 11895 C 2114.81 -6.5273 -2.63741 0
M  V30 11896 C 2114.1 -5.1842 -2.73198 0
M  V30 11897 N 2114.15 -4.38762 -1.4784 0
M  V30 11898 H 2111.31 -8.36803 -2.32493 0
M  V30 11899 H 2111.04 -6.70197 -1.71129 0
M  V30 11900 H 2111.91 -7.03551 -4.13168 0
M  V30 11901 P 2115.87 -7.20834 -5.23717 0
M  V30 11902 O 2116.09 -7.79853 -6.57286 0
M  V30 11903 O 2116.66 -7.79239 -4.12957 0
M  V30 11904 O 2116.12 -5.63315 -5.29344 0
M  V30 11905 C 2115.18 -4.80255 -6.01876 0
M  V30 11906 C 2115.91 -3.64202 -6.65911 0
M  V30 11907 O 2116.12 -2.60694 -5.64732 0
M  V30 11908 C 2117.31 -3.93473 -7.1943 0
M  V30 11909 O 2117.7 -3.02071 -8.21205 0
M  V30 11910 C 2118.19 -3.73047 -5.97036 0
M  V30 11911 C 2117.48 -2.58828 -5.25741 0
M  V30 11912 N 2117.53 -2.68068 -3.77503 0
M  V30 11913 H 2114.69 -5.40332 -6.79951 0
M  V30 11914 H 2114.42 -4.41613 -5.32378 0
M  V30 11915 H 2115.29 -3.26331 -7.47797 0
M  V30 11916 P 2119.25 -2.75334 -8.47391 0
M  V30 11917 O 2119.47 -2.44571 -9.90142 0
M  V30 11918 O 2120.04 -3.87688 -7.92115 0
M  V30 11919 O 2119.5 -1.4459 -7.59357 0
M  V30 11920 C 2118.56 -0.347608 -7.69215 0
M  V30 11921 C 2119.29 0.96767 -7.52806 0
M  V30 11922 O 2119.5 1.21036 -6.1011 0
M  V30 11923 C 2120.69 1.04544 -8.13308 0
M  V30 11924 O 2121.08 2.38311 -8.41922 0
M  V30 11925 C 2121.57 0.491279 -7.02284 0
M  V30 11926 C 2120.86 0.996264 -5.77469 0
M  V30 11927 N 2120.91 0.0501916 -4.62973 0
M  V30 11928 H 2118.07 -0.374722 -8.67691 0
M  V30 11929 H 2117.8 -0.443485 -6.90277 0
M  V30 11930 H 2118.67 1.75537 -7.96793 0
M  V30 11931 P 2122.63 2.75334 -8.47391 0
M  V30 11932 O 2122.85 3.84166 -9.4489 0
M  V30 11933 O 2123.42 1.51964 -8.6881 0
M  V30 11934 O 2122.88 3.29363 -6.99321 0
M  V30 11935 C 2121.94 4.23956 -6.42656 0
M  V30 11936 C 2122.67 5.20775 -5.52155 0
M  V30 11937 O 2122.88 4.56534 -4.22446 0
M  V30 11938 C 2124.07 5.62629 -5.96531 0
M  V30 11939 O 2124.46 6.87667 -5.41053 0
M  V30 11940 C 2124.95 4.52537 -5.39283 0
M  V30 11941 C 2124.24 4.20027 -4.08623 0
M  V30 11942 N 2124.29 2.7613 -3.71522 0
M  V30 11943 C 2124.44 2.45612 -2.37989 0
M  V30 11944 O 2124.53 3.30919 -1.51621 0
M  V30 11945 N 2124.48 1.10684 -2.08435 0
M  V30 11946 C 2124.39 0.0690084 -2.9792 0
M  V30 11947 C 2124.24 0.481522 -4.35345 0
M  V30 11948 C 2124.19 1.78906 -4.67968 0
M  V30 11949 H 2121.45 4.797 -7.24003 0
M  V30 11950 H 2121.18 3.69802 -5.84429 0
M  V30 11951 H 2122.05 6.10356 -5.41441 0
M  V30 11952 H 2124.7 4.78651 -3.27911 0
M  V30 11953 H 2124.98 3.64957 -6.05871 0
M  V30 11954 H 2125.97 4.8868 -5.2125 0
M  V30 11955 H 2124.14 5.66726 -7.06352 0
M  V30 11956 H 2124.07 2.07737 -5.72367 0
M  V30 11957 P 2126.01 7.20834 -5.23717 0
M  V30 11958 O 2126.23 8.66189 -5.38625 0
M  V30 11959 O 2126.8 6.33615 -6.1356 0
M  V30 11960 O 2126.26 6.7751 -3.72168 0
M  V30 11961 C 2125.32 7.20825 -2.7076 0
M  V30 11962 C 2126.05 7.45864 -1.40599 0
M  V30 11963 O 2126.26 6.17651 -0.734225 0
M  V30 11964 C 2127.45 8.05808 -1.51899 0
M  V30 11965 O 2127.84 8.74358 -0.335205 0
M  V30 11966 C 2128.33 6.83093 -1.70294 0
M  V30 11967 C 2127.62 5.79992 -0.836974 0
M  V30 11968 N 2127.67 4.41769 -1.38263 0
M  V30 11969 C 2127.82 3.36514 -0.485617 0
M  V30 11970 O 2127.91 3.61814 0.724703 0
M  V30 11971 N 2127.87 2.00746 -1.14492 0
M  V30 11972 C 2127.77 1.85887 -2.27776 0
M  V30 11973 N 2127.82 0.600907 -2.69379 0
M  V30 11974 C 2127.62 2.92182 -3.22265 0
M  V30 11975 C 2127.57 4.18399 -2.71925 0
M  V30 11976 H 2124.83 8.1355 -3.03735 0
M  V30 11977 H 2124.56 6.42695 -2.55448 0
M  V30 11978 H 2125.43 8.12139 -0.792866 0
M  V30 11979 H 2128.08 5.80078 0.160615 0
M  V30 11980 H 2128.36 6.51379 -2.75643 0
M  V30 11981 H 2129.35 7.01734 -1.34462 0
M  V30 11982 H 2127.52 8.73674 -2.38337 0
M  V30 11983 H 2127.45 5.02669 -3.39718 0
M  V30 11984 H 2127.55 2.73001 -4.29239 0
M  V30 11985 H 2127.94 -0.162318 -2.01146 0
M  V30 11986 H 2127.74 0.387742 -3.69773 0
M  V30 11987 P 2129.39 8.91 -3.84396e-11 0
M  V30 11988 O 2129.61 10.1726 0.733694 0
M  V30 11989 O 2130.18 8.73148 -1.23936 0
M  V30 11990 O 2129.64 7.66872 0.971405 0
M  V30 11991 C 2128.7 7.42309 2.04641 0
M  V30 11992 C 2129.43 6.86059 3.24661 0
M  V30 11993 O 2129.64 5.42847 3.03646 0
M  V30 11994 C 2130.83 7.41196 3.50753 0
M  V30 11995 O 2131.22 7.27073 4.86816 0
M  V30 11996 C 2131.71 6.5273 2.63741 0
M  V30 11997 C 2131 5.1842 2.73198 0
M  V30 11998 N 2131.05 4.38762 1.4784 0
M  V30 11999 H 2128.21 8.36803 2.32493 0
M  V30 12000 H 2127.94 6.70197 1.71129 0
M  V30 12001 H 2128.81 7.03551 4.13168 0
M  V30 12002 P 2132.77 7.20834 5.23717 0
M  V30 12003 O 2132.99 7.79853 6.57286 0
M  V30 12004 O 2133.56 7.79239 4.12957 0
M  V30 12005 O 2133.02 5.63315 5.29344 0
M  V30 12006 C 2132.08 4.80255 6.01876 0
M  V30 12007 C 2132.81 3.64202 6.65911 0
M  V30 12008 O 2133.02 2.60694 5.64732 0
M  V30 12009 C 2134.21 3.93473 7.1943 0
M  V30 12010 O 2134.6 3.02071 8.21205 0
M  V30 12011 C 2135.09 3.73047 5.97036 0
M  V30 12012 C 2134.38 2.58828 5.25741 0
M  V30 12013 N 2134.43 2.68068 3.77503 0
M  V30 12014 H 2131.59 5.40332 6.79951 0
M  V30 12015 H 2131.32 4.41613 5.32378 0
M  V30 12016 H 2132.19 3.26331 7.47797 0
M  V30 12017 P 2136.15 2.75334 8.47391 0
M  V30 12018 O 2136.37 2.44571 9.90142 0
M  V30 12019 O 2136.94 3.87688 7.92115 0
M  V30 12020 O 2136.4 1.4459 7.59357 0
M  V30 12021 C 2135.46 0.347608 7.69215 0
M  V30 12022 C 2136.19 -0.96767 7.52806 0
M  V30 12023 O 2136.4 -1.21036 6.1011 0
M  V30 12024 C 2137.59 -1.04544 8.13308 0
M  V30 12025 O 2137.98 -2.38311 8.41922 0
M  V30 12026 C 2138.47 -0.491279 7.02284 0
M  V30 12027 C 2137.76 -0.996264 5.77469 0
M  V30 12028 N 2137.81 -0.0501916 4.62973 0
M  V30 12029 H 2134.97 0.374722 8.67691 0
M  V30 12030 H 2134.7 0.443485 6.90277 0
M  V30 12031 H 2135.57 -1.75537 7.96793 0
M  V30 12032 P 2139.53 -2.75334 8.47391 0
M  V30 12033 O 2139.75 -3.84128 9.44797 0
M  V30 12034 O 2140.32 -1.51947 8.68712 0
M  V30 12035 O 2139.78 -3.29363 6.99321 0
M  V30 12036 C 2138.84 -4.24011 6.4274 0
M  V30 12037 C 2139.57 -5.20775 5.52155 0
M  V30 12038 O 2139.78 -4.56534 4.22446 0
M  V30 12039 C 2140.97 -5.62629 5.96531 0
M  V30 12040 O 2141.36 -6.87667 5.41053 0
M  V30 12041 C 2141.85 -4.52537 5.39283 0
M  V30 12042 C 2141.14 -4.20027 4.08623 0
M  V30 12043 N 2141.19 -2.76189 3.71603 0
M  V30 12044 H 2138.35 -4.797 7.24003 0
M  V30 12045 H 2138.08 -3.69856 5.84513 0
M  V30 12046 H 2138.95 -6.10356 5.41441 0
M  V30 12047 P 2142.91 -7.20834 5.23717 0
M  V30 12048 O 2143.13 -8.66189 5.38625 0
M  V30 12049 O 2143.7 -6.33615 6.1356 0
M  V30 12050 O 2143.16 -6.7751 3.72168 0
M  V30 12051 C 2142.22 -7.20732 2.70725 0
M  V30 12052 C 2142.95 -7.45864 1.40599 0
M  V30 12053 O 2143.16 -6.17651 0.734225 0
M  V30 12054 C 2144.35 -8.05808 1.51899 0
M  V30 12055 O 2144.74 -8.74358 0.335205 0
M  V30 12056 C 2145.23 -6.83093 1.70294 0
M  V30 12057 C 2144.52 -5.79992 0.836974 0
M  V30 12058 N 2144.57 -4.41769 1.38263 0
M  V30 12059 C 2144.72 -3.38591 0.481702 0
M  V30 12060 O 2144.81 -3.56839 -0.718452 0
M  V30 12061 N 2144.76 -2.1206 1.03569 0
M  V30 12062 C 2144.67 -1.80696 2.36966 0
M  V30 12063 C 2144.52 -2.94845 3.23898 0
M  V30 12064 C 2144.47 -4.19803 2.73435 0
M  V30 12065 H 2141.73 -8.13644 3.0377 0
M  V30 12066 H 2141.46 -6.42695 2.55448 0
M  V30 12067 H 2142.33 -8.12039 0.792769 0
M  V30 12068 H 2144.98 -5.79978 -0.160587 0
M  V30 12069 H 2145.26 -6.51379 2.75643 0
M  V30 12070 H 2146.25 -7.01734 1.34462 0
M  V30 12071 H 2144.42 -8.73674 2.38337 0
M  V30 12072 H 2144.35 -5.04492 3.4095 0
M  V30 12073 P 2146.29 -8.91 3.95487e-11 0
M  V30 12074 O 2146.51 -10.1726 -0.733694 0
M  V30 12075 O 2147.08 -8.73148 1.23936 0
M  V30 12076 O 2146.54 -7.66872 -0.971405 0
M  V30 12077 C 2145.6 -7.42309 -2.04641 0
M  V30 12078 C 2146.33 -6.86059 -3.24661 0
M  V30 12079 O 2146.54 -5.42847 -3.03646 0
M  V30 12080 C 2147.73 -7.41196 -3.50753 0
M  V30 12081 O 2148.12 -7.27073 -4.86816 0
M  V30 12082 C 2148.61 -6.5273 -2.63741 0
M  V30 12083 C 2147.9 -5.1842 -2.73198 0
M  V30 12084 N 2147.95 -4.38762 -1.4784 0
M  V30 12085 H 2145.11 -8.36803 -2.32493 0
M  V30 12086 H 2144.84 -6.70197 -1.71129 0
M  V30 12087 H 2145.71 -7.03551 -4.13168 0
M  V30 12088 P 2149.67 -7.20834 -5.23717 0
M  V30 12089 O 2149.89 -7.79853 -6.57286 0
M  V30 12090 O 2150.46 -7.79239 -4.12957 0
M  V30 12091 O 2149.92 -5.63315 -5.29344 0
M  V30 12092 C 2148.98 -4.80255 -6.01876 0
M  V30 12093 C 2149.71 -3.64202 -6.65911 0
M  V30 12094 O 2149.92 -2.60694 -5.64732 0
M  V30 12095 C 2151.11 -3.93473 -7.1943 0
M  V30 12096 O 2151.5 -3.02071 -8.21205 0
M  V30 12097 C 2151.99 -3.73047 -5.97036 0
M  V30 12098 C 2151.28 -2.58828 -5.25741 0
M  V30 12099 N 2151.33 -2.68068 -3.77503 0
M  V30 12100 H 2148.49 -5.40332 -6.79951 0
M  V30 12101 H 2148.22 -4.41613 -5.32378 0
M  V30 12102 H 2149.09 -3.26331 -7.47797 0
M  V30 12103 P 2153.05 -2.75334 -8.47391 0
M  V30 12104 O 2153.27 -2.44619 -9.90336 0
M  V30 12105 O 2153.84 -3.87776 -7.92294 0
M  V30 12106 O 2153.3 -1.4459 -7.59357 0
M  V30 12107 C 2152.36 -0.347653 -7.69315 0
M  V30 12108 C 2153.09 0.96767 -7.52806 0
M  V30 12109 O 2153.3 1.21055 -6.10208 0
M  V30 12110 C 2154.49 1.04557 -8.13408 0
M  V30 12111 O 2154.88 2.38311 -8.41922 0
M  V30 12112 C 2155.37 0.491279 -7.02284 0
M  V30 12113 C 2154.66 0.996264 -5.77469 0
M  V30 12114 N 2154.71 0.0501916 -4.62973 0
M  V30 12115 H 2151.87 -0.374765 -8.67791 0
M  V30 12116 H 2151.6 -0.443613 -6.90476 0
M  V30 12117 H 2152.47 1.75559 -7.96891 0
M  V30 12118 H 2155.12 1.94563 -5.46818 0
M  V30 12119 H 2155.4 -0.608651 -7.04676 0
M  V30 12120 H 2156.39 0.889796 -7.09039 0
M  V30 12121 H 2154.56 0.433128 -9.04664 0
M  V30 12122 P 2156.43 2.75334 -8.47391 0
M  V30 12123 O 2156.65 3.84128 -9.44797 0
M  V30 12124 O 2157.22 1.51947 -8.68712 0
M  V30 12125 O 2156.68 3.29363 -6.99321 0
M  V30 12126 C 2155.74 4.24011 -6.4274 0
M  V30 12127 C 2156.47 5.20775 -5.52155 0
M  V30 12128 O 2156.68 4.56534 -4.22446 0
M  V30 12129 C 2157.87 5.62629 -5.96531 0
M  V30 12130 O 2158.26 6.87667 -5.41053 0
M  V30 12131 C 2158.75 4.52537 -5.39283 0
M  V30 12132 C 2158.04 4.20027 -4.08623 0
M  V30 12133 N 2158.09 2.76189 -3.71603 0
M  V30 12134 H 2155.25 4.797 -7.24003 0
M  V30 12135 H 2154.98 3.69856 -5.84513 0
M  V30 12136 H 2155.85 6.10356 -5.41441 0
M  V30 12137 P 2159.81 7.20834 -5.23717 0
M  V30 12138 O 2160.03 8.66104 -5.38572 0
M  V30 12139 O 2160.6 6.33544 -6.1349 0
M  V30 12140 O 2160.06 6.7751 -3.72168 0
M  V30 12141 C 2159.12 7.20825 -2.7076 0
M  V30 12142 C 2159.85 7.45864 -1.40599 0
M  V30 12143 O 2160.06 6.17651 -0.734225 0
M  V30 12144 C 2161.25 8.05808 -1.51899 0
M  V30 12145 O 2161.64 8.74358 -0.335205 0
M  V30 12146 C 2162.13 6.83093 -1.70294 0
M  V30 12147 C 2161.42 5.79992 -0.836974 0
M  V30 12148 N 2161.47 4.41864 -1.38293 0
M  V30 12149 H 2158.63 8.13644 -3.0377 0
M  V30 12150 H 2158.36 6.42788 -2.55485 0
M  V30 12151 H 2159.23 8.12039 -0.792769 0
M  V30 12152 P 2163.19 8.91 -4.06577e-11 0
M  V30 12153 O 2163.41 10.1736 0.733766 0
M  V30 12154 O 2163.98 8.73247 -1.2395 0
M  V30 12155 O 2163.44 7.66872 0.971405 0
M  V30 12156 C 2162.5 7.42309 2.04641 0
M  V30 12157 C 2163.23 6.86059 3.24661 0
M  V30 12158 O 2163.44 5.42847 3.03646 0
M  V30 12159 C 2164.63 7.41196 3.50753 0
M  V30 12160 O 2165.02 7.27073 4.86816 0
M  V30 12161 C 2165.51 6.5273 2.63741 0
M  V30 12162 C 2164.8 5.1842 2.73198 0
M  V30 12163 N 2164.85 4.38668 1.47808 0
M  V30 12164 C 2165 3.00789 1.58511 0
M  V30 12165 O 2165.09 2.50116 2.71298 0
M  V30 12166 N 2165.05 2.29703 0.253698 0
M  V30 12167 C 2164.95 2.84269 -0.750133 0
M  V30 12168 N 2165 2.06951 -1.82612 0
M  V30 12169 C 2164.8 4.25803 -0.889776 0
M  V30 12170 C 2164.75 4.98326 0.259363 0
M  V30 12171 H 2162.01 8.36707 2.32466 0
M  V30 12172 H 2161.74 6.701 1.71105 0
M  V30 12173 H 2162.61 7.03638 4.13219 0
M  V30 12174 H 2165.26 4.59852 3.53955 0
M  V30 12175 H 2165.54 6.88995 1.59871 0
M  V30 12176 H 2166.53 6.46749 3.03687 0
M  V30 12177 H 2164.7 8.46908 3.20714 0
M  V30 12178 H 2164.63 6.06349 0.206238 0
M  V30 12179 H 2164.73 4.73163 -1.86796 0
M  V30 12180 H 2165.12 1.05099 -1.72271 0
M  V30 12181 H 2164.92 2.48716 -2.76361 0
M  V30 12182 P 2166.57 7.20834 5.23717 0
M  V30 12183 O 2166.79 7.80006 6.57415 0
M  V30 12184 O 2167.36 7.79416 4.13051 0
M  V30 12185 O 2166.82 5.63315 5.29344 0
M  V30 12186 C 2165.88 4.80318 6.01954 0
M  V30 12187 C 2166.61 3.64202 6.65911 0
M  V30 12188 O 2166.82 2.60736 5.64823 0
M  V30 12189 C 2168.01 3.93521 7.19518 0
M  V30 12190 O 2168.4 3.02071 8.21205 0
M  V30 12191 C 2168.89 3.73047 5.97036 0
M  V30 12192 C 2168.18 2.58828 5.25741 0
M  V30 12193 N 2168.23 2.68068 3.77503 0
M  V30 12194 H 2165.39 5.40394 6.8003 0
M  V30 12195 H 2165.12 4.41741 5.32532 0
M  V30 12196 H 2165.99 3.26371 7.47889 0
M  V30 12197 H 2168.64 1.64007 5.56746 0
M  V30 12198 H 2168.92 4.63439 5.3432 0
M  V30 12199 H 2169.91 3.44776 6.25925 0
M  V30 12200 H 2168.08 4.96707 7.57347 0
M  V30 12201 P 2169.95 2.75334 8.47391 0
M  V30 12202 O 2170.17 2.44619 9.90336 0
M  V30 12203 O 2170.74 3.87776 7.92294 0
M  V30 12204 O 2170.2 1.4459 7.59357 0
M  V30 12205 C 2169.26 0.347653 7.69315 0
M  V30 12206 C 2169.99 -0.96767 7.52806 0
M  V30 12207 O 2170.2 -1.21055 6.10208 0
M  V30 12208 C 2171.39 -1.04557 8.13408 0
M  V30 12209 O 2171.78 -2.38311 8.41922 0
M  V30 12210 C 2172.27 -0.491279 7.02284 0
M  V30 12211 C 2171.56 -0.996264 5.77469 0
M  V30 12212 N 2171.61 -0.0501916 4.62973 0
M  V30 12213 H 2168.77 0.374765 8.67791 0
M  V30 12214 H 2168.5 0.443613 6.90476 0
M  V30 12215 H 2169.37 -1.75559 7.96891 0
M  V30 12216 H 2172.02 -1.94563 5.46818 0
M  V30 12217 H 2172.3 0.608651 7.04676 0
M  V30 12218 H 2173.29 -0.889796 7.09039 0
M  V30 12219 H 2171.46 -0.433128 9.04664 0
M  V30 12220 P 2173.33 -2.75334 8.47391 0
M  V30 12221 O 2173.55 -3.84128 9.44797 0
M  V30 12222 O 2174.12 -1.51947 8.68712 0
M  V30 12223 O 2173.58 -3.29363 6.99321 0
M  V30 12224 C 2172.64 -4.24011 6.4274 0
M  V30 12225 C 2173.37 -5.20775 5.52155 0
M  V30 12226 O 2173.58 -4.56534 4.22446 0
M  V30 12227 C 2174.77 -5.62629 5.96531 0
M  V30 12228 O 2175.16 -6.87667 5.41053 0
M  V30 12229 C 2175.65 -4.52537 5.39283 0
M  V30 12230 C 2174.94 -4.20027 4.08623 0
M  V30 12231 N 2174.99 -2.76189 3.71603 0
M  V30 12232 H 2172.15 -4.797 7.24003 0
M  V30 12233 H 2171.88 -3.69856 5.84513 0
M  V30 12234 H 2172.75 -6.10356 5.41441 0
M  V30 12235 P 2176.71 -7.20834 5.23717 0
M  V30 12236 O 2176.93 -8.66104 5.38572 0
M  V30 12237 O 2177.5 -6.33544 6.1349 0
M  V30 12238 O 2176.96 -6.7751 3.72168 0
M  V30 12239 C 2176.02 -7.20825 2.7076 0
M  V30 12240 C 2176.75 -7.45864 1.40599 0
M  V30 12241 O 2176.96 -6.17651 0.734225 0
M  V30 12242 C 2178.15 -8.05808 1.51899 0
M  V30 12243 O 2178.54 -8.74358 0.335205 0
M  V30 12244 C 2179.03 -6.83093 1.70294 0
M  V30 12245 C 2178.32 -5.79992 0.836974 0
M  V30 12246 N 2178.37 -4.41864 1.38293 0
M  V30 12247 H 2175.53 -8.13644 3.0377 0
M  V30 12248 H 2175.26 -6.42788 2.55485 0
M  V30 12249 H 2176.13 -8.12039 0.792769 0
M  V30 12250 P 2180.09 -8.91 4.17667e-11 0
M  V30 12251 O 2180.31 -10.1746 -0.733838 0
M  V30 12252 O 2180.88 -8.73346 1.23964 0
M  V30 12253 O 2180.34 -7.66872 -0.971405 0
M  V30 12254 C 2179.4 -7.42405 -2.04668 0
M  V30 12255 C 2180.13 -6.86059 -3.24661 0
M  V30 12256 O 2180.34 -5.42934 -3.03695 0
M  V30 12257 C 2181.53 -7.41287 -3.50796 0
M  V30 12258 O 2181.92 -7.27073 -4.86816 0
M  V30 12259 C 2182.41 -6.5273 -2.63741 0
M  V30 12260 C 2181.7 -5.1842 -2.73198 0
M  V30 12261 N 2181.75 -4.38762 -1.4784 0
M  V30 12262 C 2181.67 -4.83651 -0.183876 0
M  V30 12263 N 2181.74 -3.88759 0.699393 0
M  V30 12264 C 2181.89 -2.7404 -0.0575568 0
M  V30 12265 C 2182.02 -1.37902 0.293928 0
M  V30 12266 N 2182.03 -0.938021 1.54797 0
M  V30 12267 N 2182.14 -0.491817 -0.70549 0
M  V30 12268 C 2182.13 -0.931735 -1.95979 0
M  V30 12269 N 2182.01 -2.16017 -2.41481 0
M  V30 12270 C 2181.89 -3.02547 -1.39121 0
M  V30 12271 H 2178.91 -8.36899 -2.3252 0
M  V30 12272 H 2178.64 -6.70391 -1.71179 0
M  V30 12273 H 2179.51 -7.03638 -4.13219 0
M  V30 12274 H 2182.16 -4.59931 -3.54016 0
M  V30 12275 H 2182.44 -6.88995 -1.59871 0
M  V30 12276 H 2183.43 -6.4684 -3.0373 0
M  V30 12277 H 2181.6 -8.47002 -3.20749 0
M  V30 12278 H 2181.56 -5.8885 0.0765548 0
M  V30 12279 H 2181.94 -1.60276 2.32875 0
M  V30 12280 H 2182.13 0.0699355 1.73859 0
M  V30 12281 H 2182.23 -0.165507 -2.71897 0
M  V30 12282 P 2183.47 -7.20834 -5.23717 0
M  V30 12283 O 2183.69 -7.79853 -6.57286 0
M  V30 12284 O 2184.26 -7.79239 -4.12957 0
M  V30 12285 O 2183.72 -5.63315 -5.29344 0
M  V30 12286 C 2182.78 -4.80255 -6.01876 0
M  V30 12287 C 2183.51 -3.64202 -6.65911 0
M  V30 12288 O 2183.72 -2.60694 -5.64732 0
M  V30 12289 C 2184.91 -3.93473 -7.1943 0
M  V30 12290 O 2185.3 -3.02071 -8.21205 0
M  V30 12291 C 2185.79 -3.73047 -5.97036 0
M  V30 12292 C 2185.08 -2.58828 -5.25741 0
M  V30 12293 N 2185.13 -2.68068 -3.77503 0
M  V30 12294 H 2182.29 -5.40332 -6.79951 0
M  V30 12295 H 2182.02 -4.41613 -5.32378 0
M  V30 12296 H 2182.89 -3.26331 -7.47797 0
M  V30 12297 P 2186.85 -2.75334 -8.47391 0
M  V30 12298 O 2187.07 -2.44619 -9.90336 0
M  V30 12299 O 2187.64 -3.87776 -7.92294 0
M  V30 12300 O 2187.1 -1.4459 -7.59357 0
M  V30 12301 C 2186.16 -0.347653 -7.69315 0
M  V30 12302 C 2186.89 0.96767 -7.52806 0
M  V30 12303 O 2187.1 1.21055 -6.10208 0
M  V30 12304 C 2188.29 1.04557 -8.13408 0
M  V30 12305 O 2188.68 2.38311 -8.41922 0
M  V30 12306 C 2189.17 0.491279 -7.02284 0
M  V30 12307 C 2188.46 0.996264 -5.77469 0
M  V30 12308 N 2188.51 0.0501916 -4.62973 0
M  V30 12309 H 2185.67 -0.374765 -8.67791 0
M  V30 12310 H 2185.4 -0.443613 -6.90476 0
M  V30 12311 H 2186.27 1.75559 -7.96891 0
M  V30 12312 H 2188.92 1.94563 -5.46818 0
M  V30 12313 H 2189.2 -0.608651 -7.04676 0
M  V30 12314 H 2190.19 0.889796 -7.09039 0
M  V30 12315 H 2188.36 0.433128 -9.04664 0
M  V30 12316 P 2190.23 2.75334 -8.47391 0
M  V30 12317 O 2190.45 3.84128 -9.44797 0
M  V30 12318 O 2191.02 1.51947 -8.68712 0
M  V30 12319 O 2190.48 3.29363 -6.99321 0
M  V30 12320 C 2189.54 4.24011 -6.4274 0
M  V30 12321 C 2190.27 5.20775 -5.52155 0
M  V30 12322 O 2190.48 4.56534 -4.22446 0
M  V30 12323 C 2191.67 5.62629 -5.96531 0
M  V30 12324 O 2192.06 6.87667 -5.41053 0
M  V30 12325 C 2192.55 4.52537 -5.39283 0
M  V30 12326 C 2191.84 4.20027 -4.08623 0
M  V30 12327 N 2191.89 2.76189 -3.71603 0
M  V30 12328 C 2191.81 1.64862 -4.52822 0
M  V30 12329 N 2191.89 0.512671 -3.88633 0
M  V30 12330 C 2192.03 0.888083 -2.54977 0
M  V30 12331 C 2192.16 0.094668 -1.38677 0
M  V30 12332 N 2192.28 0.890102 -0.232633 0
M  V30 12333 C 2192.28 2.26958 -0.21772 0
M  V30 12334 N 2192.41 2.84626 0.97925 0
M  V30 12335 N 2192.15 3.0178 -1.31033 0
M  V30 12336 C 2192.03 2.26781 -2.43843 0
M  V30 12337 H 2189.05 4.797 -7.24003 0
M  V30 12338 H 2188.78 3.69856 -5.84513 0
M  V30 12339 H 2189.65 6.10356 -5.41441 0
M  V30 12340 P 2193.61 7.20834 -5.23717 0
M  V30 12341 O 2193.83 8.66104 -5.38572 0
M  V30 12342 O 2194.4 6.33544 -6.1349 0
M  V30 12343 O 2193.86 6.7751 -3.72168 0
M  V30 12344 C 2192.92 7.20825 -2.7076 0
M  V30 12345 C 2193.65 7.45864 -1.40599 0
M  V30 12346 O 2193.86 6.17651 -0.734225 0
M  V30 12347 C 2195.05 8.05808 -1.51899 0
M  V30 12348 O 2195.44 8.74358 -0.335205 0
M  V30 12349 C 2195.93 6.83093 -1.70294 0
M  V30 12350 C 2195.22 5.79992 -0.836974 0
M  V30 12351 N 2195.27 4.41864 -1.38293 0
M  V30 12352 H 2192.43 8.13644 -3.0377 0
M  V30 12353 H 2192.16 6.42788 -2.55485 0
M  V30 12354 H 2193.03 8.12039 -0.792769 0
M  V30 12355 P 2196.99 8.91 -4.28757e-11 0
M  V30 12356 O 2197.21 10.1726 0.733694 0
M  V30 12357 O 2197.78 8.73148 -1.23936 0
M  V30 12358 O 2197.24 7.66872 0.971405 0
M  V30 12359 C 2196.3 7.42309 2.04641 0
M  V30 12360 C 2197.03 6.86059 3.24661 0
M  V30 12361 O 2197.24 5.42847 3.03646 0
M  V30 12362 C 2198.43 7.41196 3.50753 0
M  V30 12363 O 2198.82 7.27073 4.86816 0
M  V30 12364 C 2199.31 6.5273 2.63741 0
M  V30 12365 C 2198.6 5.1842 2.73198 0
M  V30 12366 N 2198.65 4.38762 1.4784 0
M  V30 12367 H 2195.81 8.36803 2.32493 0
M  V30 12368 H 2195.54 6.70197 1.71129 0
M  V30 12369 H 2196.4 7.03551 4.13168 0
M  V30 12370 P 2200.37 7.20834 5.23717 0
M  V30 12371 O 2200.59 7.79853 6.57286 0
M  V30 12372 O 2201.16 7.79239 4.12957 0
M  V30 12373 O 2200.62 5.63315 5.29344 0
M  V30 12374 C 2199.68 4.80255 6.01876 0
M  V30 12375 C 2200.41 3.64202 6.65911 0
M  V30 12376 O 2200.62 2.60694 5.64732 0
M  V30 12377 C 2201.81 3.93473 7.1943 0
M  V30 12378 O 2202.2 3.02071 8.21205 0
M  V30 12379 C 2202.69 3.73047 5.97036 0
M  V30 12380 C 2201.98 2.58828 5.25741 0
M  V30 12381 N 2202.03 2.68068 3.77503 0
M  V30 12382 H 2199.19 5.40332 6.79951 0
M  V30 12383 H 2198.92 4.41613 5.32378 0
M  V30 12384 H 2199.78 3.26331 7.47797 0
M  V30 12385 P 2203.75 2.75334 8.47391 0
M  V30 12386 O 2203.97 2.44571 9.90142 0
M  V30 12387 O 2204.54 3.87688 7.92115 0
M  V30 12388 O 2204 1.4459 7.59357 0
M  V30 12389 C 2203.06 0.347608 7.69215 0
M  V30 12390 C 2203.79 -0.96767 7.52806 0
M  V30 12391 O 2204 -1.21036 6.1011 0
M  V30 12392 C 2205.19 -1.04544 8.13308 0
M  V30 12393 O 2205.58 -2.38311 8.41922 0
M  V30 12394 C 2206.07 -0.491279 7.02284 0
M  V30 12395 C 2205.36 -0.996264 5.77469 0
M  V30 12396 N 2205.41 -0.0501916 4.62973 0
M  V30 12397 H 2202.57 0.374722 8.67691 0
M  V30 12398 H 2202.3 0.443485 6.90277 0
M  V30 12399 H 2203.16 -1.75537 7.96793 0
M  V30 12400 P 2207.13 -2.75334 8.47391 0
M  V30 12401 O 2207.35 -3.84128 9.44797 0
M  V30 12402 O 2207.92 -1.51947 8.68712 0
M  V30 12403 O 2207.38 -3.29363 6.99321 0
M  V30 12404 C 2206.44 -4.24011 6.4274 0
M  V30 12405 C 2207.17 -5.20775 5.52155 0
M  V30 12406 O 2207.38 -4.56534 4.22446 0
M  V30 12407 C 2208.57 -5.62629 5.96531 0
M  V30 12408 O 2208.96 -6.87667 5.41053 0
M  V30 12409 C 2209.45 -4.52537 5.39283 0
M  V30 12410 C 2208.74 -4.20027 4.08623 0
M  V30 12411 N 2208.79 -2.76189 3.71603 0
M  V30 12412 H 2205.95 -4.797 7.24003 0
M  V30 12413 H 2205.68 -3.69856 5.84513 0
M  V30 12414 H 2206.54 -6.10356 5.41441 0
M  V30 12415 P 2210.51 -7.20834 5.23717 0
M  V30 12416 O 2210.73 -8.66104 5.38572 0
M  V30 12417 O 2211.3 -6.33544 6.1349 0
M  V30 12418 O 2210.76 -6.7751 3.72168 0
M  V30 12419 C 2209.82 -7.20825 2.7076 0
M  V30 12420 C 2210.55 -7.45864 1.40599 0
M  V30 12421 O 2210.76 -6.17651 0.734225 0
M  V30 12422 C 2211.95 -8.05808 1.51899 0
M  V30 12423 O 2212.34 -8.74358 0.335205 0
M  V30 12424 C 2212.83 -6.83093 1.70294 0
M  V30 12425 C 2212.12 -5.79992 0.836974 0
M  V30 12426 N 2212.17 -4.41864 1.38293 0
M  V30 12427 H 2209.33 -8.13644 3.0377 0
M  V30 12428 H 2209.06 -6.42788 2.55485 0
M  V30 12429 H 2209.92 -8.12039 0.792769 0
M  V30 12430 P 2213.89 -8.91 4.39847e-11 0
M  V30 12431 O 2214.11 -10.1726 -0.733694 0
M  V30 12432 O 2214.68 -8.73148 1.23936 0
M  V30 12433 O 2214.14 -7.66872 -0.971405 0
M  V30 12434 C 2213.2 -7.42309 -2.04641 0
M  V30 12435 C 2213.93 -6.86059 -3.24661 0
M  V30 12436 O 2214.14 -5.42847 -3.03646 0
M  V30 12437 C 2215.33 -7.41196 -3.50753 0
M  V30 12438 O 2215.72 -7.27073 -4.86816 0
M  V30 12439 C 2216.21 -6.5273 -2.63741 0
M  V30 12440 C 2215.5 -5.1842 -2.73198 0
M  V30 12441 N 2215.55 -4.38762 -1.4784 0
M  V30 12442 H 2212.71 -8.36803 -2.32493 0
M  V30 12443 H 2212.44 -6.70197 -1.71129 0
M  V30 12444 H 2213.3 -7.03551 -4.13168 0
M  V30 12445 P 2217.27 -7.20834 -5.23717 0
M  V30 12446 O 2217.49 -7.79853 -6.57286 0
M  V30 12447 O 2218.06 -7.79239 -4.12957 0
M  V30 12448 O 2217.52 -5.63315 -5.29344 0
M  V30 12449 C 2216.58 -4.80255 -6.01876 0
M  V30 12450 C 2217.31 -3.64202 -6.65911 0
M  V30 12451 O 2217.52 -2.60694 -5.64732 0
M  V30 12452 C 2218.71 -3.93473 -7.1943 0
M  V30 12453 O 2219.1 -3.02071 -8.21205 0
M  V30 12454 C 2219.59 -3.73047 -5.97036 0
M  V30 12455 C 2218.88 -2.58828 -5.25741 0
M  V30 12456 N 2218.93 -2.68068 -3.77503 0
M  V30 12457 H 2216.09 -5.40332 -6.79951 0
M  V30 12458 H 2215.82 -4.41613 -5.32378 0
M  V30 12459 H 2216.68 -3.26331 -7.47797 0
M  V30 12460 P 2220.65 -2.75334 -8.47391 0
M  V30 12461 O 2220.87 -2.44571 -9.90142 0
M  V30 12462 O 2221.44 -3.87688 -7.92115 0
M  V30 12463 O 2220.9 -1.4459 -7.59357 0
M  V30 12464 C 2219.96 -0.347608 -7.69215 0
M  V30 12465 C 2220.69 0.96767 -7.52806 0
M  V30 12466 O 2220.9 1.21036 -6.1011 0
M  V30 12467 C 2222.09 1.04544 -8.13308 0
M  V30 12468 O 2222.48 2.38311 -8.41922 0
M  V30 12469 C 2222.97 0.491279 -7.02284 0
M  V30 12470 C 2222.26 0.996264 -5.77469 0
M  V30 12471 N 2222.31 0.0501916 -4.62973 0
M  V30 12472 C 2222.23 -1.32786 -4.63244 0
M  V30 12473 N 2222.31 -1.86957 -3.44545 0
M  V30 12474 C 2222.45 -0.780241 -2.58481 0
M  V30 12475 C 2222.58 -0.738536 -1.17757 0
M  V30 12476 N 2222.7 0.58337 -0.711393 0
M  V30 12477 C 2222.7 1.70816 -1.51017 0
M  V30 12478 N 2222.83 2.87826 -0.880757 0
M  V30 12479 N 2222.57 1.67126 -2.8339 0
M  V30 12480 C 2222.45 0.401421 -3.30572 0
M  V30 12481 H 2219.47 -0.374722 -8.67691 0
M  V30 12482 H 2219.2 -0.443485 -6.90277 0
M  V30 12483 H 2220.06 1.75537 -7.96793 0
M  V30 12484 P 2224.03 2.75334 -8.47391 0
M  V30 12485 O 2224.25 3.84128 -9.44797 0
M  V30 12486 O 2224.82 1.51947 -8.68712 0
M  V30 12487 O 2224.28 3.29363 -6.99321 0
M  V30 12488 C 2223.34 4.24011 -6.4274 0
M  V30 12489 C 2224.07 5.20775 -5.52155 0
M  V30 12490 O 2224.28 4.56534 -4.22446 0
M  V30 12491 C 2225.47 5.62629 -5.96531 0
M  V30 12492 O 2225.86 6.87667 -5.41053 0
M  V30 12493 C 2226.35 4.52537 -5.39283 0
M  V30 12494 C 2225.64 4.20027 -4.08623 0
M  V30 12495 N 2225.69 2.76189 -3.71603 0
M  V30 12496 H 2222.85 4.797 -7.24003 0
M  V30 12497 H 2222.58 3.69856 -5.84513 0
M  V30 12498 H 2223.44 6.10356 -5.41441 0
M  V30 12499 P 2227.41 7.20834 -5.23717 0
M  V30 12500 O 2227.63 8.66104 -5.38572 0
M  V30 12501 O 2228.2 6.33544 -6.1349 0
M  V30 12502 O 2227.66 6.7751 -3.72168 0
M  V30 12503 C 2226.72 7.20825 -2.7076 0
M  V30 12504 C 2227.45 7.45864 -1.40599 0
M  V30 12505 O 2227.66 6.17651 -0.734225 0
M  V30 12506 C 2228.85 8.05808 -1.51899 0
M  V30 12507 O 2229.24 8.74358 -0.335205 0
M  V30 12508 C 2229.73 6.83093 -1.70294 0
M  V30 12509 C 2229.02 5.79992 -0.836974 0
M  V30 12510 N 2229.07 4.41864 -1.38293 0
M  V30 12511 H 2226.23 8.13644 -3.0377 0
M  V30 12512 H 2225.96 6.42788 -2.55485 0
M  V30 12513 H 2226.82 8.12039 -0.792769 0
M  V30 12514 P 2230.79 8.91 -4.50937e-11 0
M  V30 12515 O 2231.01 10.1746 0.733838 0
M  V30 12516 O 2231.58 8.73346 -1.23964 0
M  V30 12517 O 2231.04 7.66872 0.971405 0
M  V30 12518 C 2230.1 7.42405 2.04668 0
M  V30 12519 C 2230.83 6.86059 3.24661 0
M  V30 12520 O 2231.04 5.42934 3.03695 0
M  V30 12521 C 2232.23 7.41287 3.50796 0
M  V30 12522 O 2232.62 7.27073 4.86816 0
M  V30 12523 C 2233.11 6.5273 2.63741 0
M  V30 12524 C 2232.4 5.1842 2.73198 0
M  V30 12525 N 2232.45 4.38762 1.4784 0
M  V30 12526 C 2232.37 4.83651 0.183876 0
M  V30 12527 N 2232.44 3.88759 -0.699393 0
M  V30 12528 C 2232.59 2.7404 0.0575568 0
M  V30 12529 C 2232.72 1.37902 -0.293928 0
M  V30 12530 N 2232.73 0.938021 -1.54797 0
M  V30 12531 N 2232.84 0.491817 0.70549 0
M  V30 12532 C 2232.83 0.931735 1.95979 0
M  V30 12533 N 2232.71 2.16017 2.41481 0
M  V30 12534 C 2232.59 3.02547 1.39121 0
M  V30 12535 H 2229.61 8.36899 2.3252 0
M  V30 12536 H 2229.34 6.70391 1.71179 0
M  V30 12537 H 2230.2 7.03638 4.13219 0
M  V30 12538 H 2232.86 4.59931 3.54016 0
M  V30 12539 H 2233.14 6.88995 1.59871 0
M  V30 12540 H 2234.13 6.4684 3.0373 0
M  V30 12541 H 2232.3 8.47002 3.20749 0
M  V30 12542 H 2232.26 5.8885 -0.0765548 0
M  V30 12543 H 2232.64 1.60276 -2.32875 0
M  V30 12544 H 2232.83 -0.0699355 -1.73859 0
M  V30 12545 H 2232.93 0.165507 2.71897 0
M  V30 12546 P 2234.17 7.20834 5.23717 0
M  V30 12547 O 2234.39 7.79853 6.57286 0
M  V30 12548 O 2234.96 7.79239 4.12957 0
M  V30 12549 O 2234.42 5.63315 5.29344 0
M  V30 12550 C 2233.48 4.80255 6.01876 0
M  V30 12551 C 2234.21 3.64202 6.65911 0
M  V30 12552 O 2234.42 2.60694 5.64732 0
M  V30 12553 C 2235.61 3.93473 7.1943 0
M  V30 12554 O 2236 3.02071 8.21205 0
M  V30 12555 C 2236.49 3.73047 5.97036 0
M  V30 12556 C 2235.78 2.58828 5.25741 0
M  V30 12557 N 2235.83 2.68068 3.77503 0
M  V30 12558 H 2232.99 5.40332 6.79951 0
M  V30 12559 H 2232.72 4.41613 5.32378 0
M  V30 12560 H 2233.58 3.26331 7.47797 0
M  V30 12561 P 2237.55 2.75334 8.47391 0
M  V30 12562 O 2237.77 2.44571 9.90142 0
M  V30 12563 O 2238.34 3.87688 7.92115 0
M  V30 12564 O 2237.8 1.4459 7.59357 0
M  V30 12565 C 2236.86 0.347608 7.69215 0
M  V30 12566 C 2237.59 -0.96767 7.52806 0
M  V30 12567 O 2237.8 -1.21036 6.1011 0
M  V30 12568 C 2238.99 -1.04544 8.13308 0
M  V30 12569 O 2239.38 -2.38311 8.41922 0
M  V30 12570 C 2239.87 -0.491279 7.02284 0
M  V30 12571 C 2239.16 -0.996264 5.77469 0
M  V30 12572 N 2239.21 -0.0501916 4.62973 0
M  V30 12573 H 2236.37 0.374722 8.67691 0
M  V30 12574 H 2236.1 0.443485 6.90277 0
M  V30 12575 H 2236.96 -1.75537 7.96793 0
M  V30 12576 P 2240.93 -2.75334 8.47391 0
M  V30 12577 O 2241.15 -3.84128 9.44797 0
M  V30 12578 O 2241.72 -1.51947 8.68712 0
M  V30 12579 O 2241.18 -3.29363 6.99321 0
M  V30 12580 C 2240.24 -4.24011 6.4274 0
M  V30 12581 C 2240.97 -5.20775 5.52155 0
M  V30 12582 O 2241.18 -4.56534 4.22446 0
M  V30 12583 C 2242.37 -5.62629 5.96531 0
M  V30 12584 O 2242.76 -6.87667 5.41053 0
M  V30 12585 C 2243.25 -4.52537 5.39283 0
M  V30 12586 C 2242.54 -4.20027 4.08623 0
M  V30 12587 N 2242.59 -2.76189 3.71603 0
M  V30 12588 H 2239.75 -4.797 7.24003 0
M  V30 12589 H 2239.48 -3.69856 5.84513 0
M  V30 12590 H 2240.34 -6.10356 5.41441 0
M  V30 12591 P 2244.31 -7.20834 5.23717 0
M  V30 12592 O 2244.53 -8.66189 5.38625 0
M  V30 12593 O 2245.1 -6.33615 6.1356 0
M  V30 12594 O 2244.56 -6.7751 3.72168 0
M  V30 12595 C 2243.62 -7.20732 2.70725 0
M  V30 12596 C 2244.35 -7.45864 1.40599 0
M  V30 12597 O 2244.56 -6.17651 0.734225 0
M  V30 12598 C 2245.75 -8.05808 1.51899 0
M  V30 12599 O 2246.14 -8.74358 0.335205 0
M  V30 12600 C 2246.63 -6.83093 1.70294 0
M  V30 12601 C 2245.92 -5.79992 0.836974 0
M  V30 12602 N 2245.97 -4.41769 1.38263 0
M  V30 12603 C 2246.12 -3.38591 0.481702 0
M  V30 12604 O 2246.21 -3.56839 -0.718452 0
M  V30 12605 N 2246.16 -2.1206 1.03569 0
M  V30 12606 C 2246.07 -1.80696 2.36966 0
M  V30 12607 O 2246.12 -0.630473 2.74862 0
M  V30 12608 C 2245.92 -2.94845 3.23898 0
M  V30 12609 C 2245.81 -2.65253 4.70362 0
M  V30 12610 C 2245.87 -4.19803 2.73435 0
M  V30 12611 H 2243.13 -8.13644 3.0377 0
M  V30 12612 H 2242.86 -6.42695 2.55448 0
M  V30 12613 H 2243.72 -8.12039 0.792769 0
M  V30 12614 H 2246.38 -5.79978 -0.160587 0
M  V30 12615 H 2246.66 -6.51379 2.75643 0
M  V30 12616 H 2247.65 -7.01734 1.34462 0
M  V30 12617 H 2245.82 -8.73674 2.38337 0
M  V30 12618 H 2245.75 -5.04492 3.4095 0
M  V30 12619 H 2246.78 -2.83924 5.1913 0
M  V30 12620 H 2245.04 -3.29824 5.15163 0
M  V30 12621 H 2245.53 -1.59723 4.84449 0
M  V30 12622 H 2246.26 -1.35644 0.399345 0
M  V30 12623 P 2247.69 -8.91 4.62027e-11 0
M  V30 12624 O 2247.91 -10.1726 -0.733694 0
M  V30 12625 O 2248.48 -8.73148 1.23936 0
M  V30 12626 O 2247.94 -7.66872 -0.971405 0
M  V30 12627 C 2247 -7.42309 -2.04641 0
M  V30 12628 C 2247.73 -6.86059 -3.24661 0
M  V30 12629 O 2247.94 -5.42847 -3.03646 0
M  V30 12630 C 2249.13 -7.41196 -3.50753 0
M  V30 12631 O 2249.52 -7.27073 -4.86816 0
M  V30 12632 C 2250.01 -6.5273 -2.63741 0
M  V30 12633 C 2249.3 -5.1842 -2.73198 0
M  V30 12634 N 2249.35 -4.38762 -1.4784 0
M  V30 12635 H 2246.51 -8.36803 -2.32493 0
M  V30 12636 H 2246.24 -6.70197 -1.71129 0
M  V30 12637 H 2247.1 -7.03551 -4.13168 0
M  V30 12638 P 2251.07 -7.20834 -5.23717 0
M  V30 12639 O 2251.29 -7.79853 -6.57286 0
M  V30 12640 O 2251.86 -7.79239 -4.12957 0
M  V30 12641 O 2251.32 -5.63315 -5.29344 0
M  V30 12642 C 2250.38 -4.80255 -6.01876 0
M  V30 12643 C 2251.11 -3.64202 -6.65911 0
M  V30 12644 O 2251.32 -2.60694 -5.64732 0
M  V30 12645 C 2252.51 -3.93473 -7.1943 0
M  V30 12646 O 2252.9 -3.02071 -8.21205 0
M  V30 12647 C 2253.39 -3.73047 -5.97036 0
M  V30 12648 C 2252.68 -2.58828 -5.25741 0
M  V30 12649 N 2252.73 -2.68068 -3.77503 0
M  V30 12650 H 2249.89 -5.40332 -6.79951 0
M  V30 12651 H 2249.62 -4.41613 -5.32378 0
M  V30 12652 H 2250.48 -3.26331 -7.47797 0
M  V30 12653 P 2254.45 -2.75334 -8.47391 0
M  V30 12654 O 2254.67 -2.44571 -9.90142 0
M  V30 12655 O 2255.24 -3.87688 -7.92115 0
M  V30 12656 O 2254.7 -1.4459 -7.59357 0
M  V30 12657 C 2253.76 -0.347608 -7.69215 0
M  V30 12658 C 2254.49 0.96767 -7.52806 0
M  V30 12659 O 2254.7 1.21036 -6.1011 0
M  V30 12660 C 2255.89 1.04544 -8.13308 0
M  V30 12661 O 2256.28 2.38311 -8.41922 0
M  V30 12662 C 2256.77 0.491279 -7.02284 0
M  V30 12663 C 2256.06 0.996264 -5.77469 0
M  V30 12664 N 2256.11 0.0501916 -4.62973 0
M  V30 12665 C 2256.03 -1.32786 -4.63244 0
M  V30 12666 N 2256.11 -1.86957 -3.44545 0
M  V30 12667 C 2256.25 -0.780241 -2.58481 0
M  V30 12668 C 2256.38 -0.738536 -1.17757 0
M  V30 12669 O 2256.4 -1.66794 -0.372349 0
M  V30 12670 N 2256.5 0.58337 -0.711393 0
M  V30 12671 C 2256.5 1.70816 -1.51017 0
M  V30 12672 N 2256.63 2.87826 -0.880757 0
M  V30 12673 N 2256.37 1.67126 -2.8339 0
M  V30 12674 C 2256.25 0.401421 -3.30572 0
M  V30 12675 H 2253.27 -0.374722 -8.67691 0
M  V30 12676 H 2253 -0.443485 -6.90277 0
M  V30 12677 H 2253.86 1.75537 -7.96793 0
M  V30 12678 H 2256.52 1.95076 -5.46529 0
M  V30 12679 H 2256.8 -0.608565 -7.04577 0
M  V30 12680 H 2257.79 0.889672 -7.08939 0
M  V30 12681 H 2255.96 0.43308 -9.04564 0
M  V30 12682 H 2255.91 -1.91249 -5.54442 0
M  V30 12683 H 2256.59 0.718054 0.275244 0
M  V30 12684 H 2256.63 3.75721 -1.41832 0
M  V30 12685 H 2256.73 2.90436 0.145468 0
M  V30 12686 P 2257.83 2.75334 -8.47391 0
M  V30 12687 O 2258.05 3.84128 -9.44797 0
M  V30 12688 O 2258.62 1.51947 -8.68712 0
M  V30 12689 O 2258.08 3.29363 -6.99321 0
M  V30 12690 C 2257.14 4.24011 -6.4274 0
M  V30 12691 C 2257.87 5.20775 -5.52155 0
M  V30 12692 O 2258.08 4.56534 -4.22446 0
M  V30 12693 C 2259.27 5.62629 -5.96531 0
M  V30 12694 O 2259.66 6.87667 -5.41053 0
M  V30 12695 C 2260.15 4.52537 -5.39283 0
M  V30 12696 C 2259.44 4.20027 -4.08623 0
M  V30 12697 N 2259.49 2.76189 -3.71603 0
M  V30 12698 H 2256.65 4.797 -7.24003 0
M  V30 12699 H 2256.38 3.69856 -5.84513 0
M  V30 12700 H 2257.24 6.10356 -5.41441 0
M  V30 12701 P 2261.21 7.20834 -5.23717 0
M  V30 12702 O 2261.43 8.66274 -5.38678 0
M  V30 12703 O 2262 6.33687 -6.13629 0
M  V30 12704 O 2261.46 6.7751 -3.72168 0
M  V30 12705 C 2260.52 7.20919 -2.70795 0
M  V30 12706 C 2261.25 7.45864 -1.40599 0
M  V30 12707 O 2261.46 6.17751 -0.734343 0
M  V30 12708 C 2262.65 8.05906 -1.51917 0
M  V30 12709 O 2263.04 8.74358 -0.335205 0
M  V30 12710 C 2263.53 6.83093 -1.70294 0
M  V30 12711 C 2262.82 5.79992 -0.836974 0
M  V30 12712 N 2262.87 4.41864 -1.38293 0
M  V30 12713 H 2260.03 8.13738 -3.03804 0
M  V30 12714 H 2259.76 6.42974 -2.55559 0
M  V30 12715 H 2260.62 8.12139 -0.792866 0
M  V30 12716 H 2263.28 5.80178 0.160643 0
M  V30 12717 H 2263.56 6.51379 -2.75643 0
M  V30 12718 H 2264.55 7.01832 -1.3448 0
M  V30 12719 H 2262.72 8.73771 -2.38364 0
M  V30 12720 P 2264.59 8.91 -4.73117e-11 0
M  V30 12721 O 2264.81 10.1736 0.733766 0
M  V30 12722 O 2265.38 8.73247 -1.2395 0
M  V30 12723 O 2264.84 7.66872 0.971405 0
M  V30 12724 C 2263.9 7.42212 2.04614 0
M  V30 12725 C 2264.63 6.86059 3.24661 0
M  V30 12726 O 2264.84 5.42847 3.03646 0
M  V30 12727 C 2266.03 7.41196 3.50753 0
M  V30 12728 O 2266.42 7.27073 4.86816 0
M  V30 12729 C 2266.91 6.5273 2.63741 0
M  V30 12730 C 2266.2 5.1842 2.73198 0
M  V30 12731 N 2266.25 4.38668 1.47808 0
M  V30 12732 C 2266.4 3.02239 1.60048 0
M  V30 12733 O 2266.49 2.46459 2.67869 0
M  V30 12734 N 2266.44 2.32436 0.408571 0
M  V30 12735 C 2266.35 2.85471 -0.854993 0
M  V30 12736 C 2266.2 4.28918 -0.887335 0
M  V30 12737 C 2266.15 5.00349 0.255399 0
M  V30 12738 H 2263.41 8.36803 2.32493 0
M  V30 12739 H 2263.14 6.701 1.71105 0
M  V30 12740 H 2264 7.03551 4.13168 0
M  V30 12741 H 2266.66 4.59773 3.53894 0
M  V30 12742 H 2266.94 6.88995 1.59871 0
M  V30 12743 H 2267.93 6.46749 3.03687 0
M  V30 12744 H 2266.1 8.46908 3.20714 0
M  V30 12745 H 2266.03 6.08548 0.206986 0
M  V30 12746 P 2267.97 7.20834 5.23717 0
M  V30 12747 O 2268.19 7.79853 6.57286 0
M  V30 12748 O 2268.76 7.79239 4.12957 0
M  V30 12749 O 2268.22 5.63315 5.29344 0
M  V30 12750 C 2267.28 4.80255 6.01876 0
M  V30 12751 C 2268.01 3.64202 6.65911 0
M  V30 12752 O 2268.22 2.60694 5.64732 0
M  V30 12753 C 2269.41 3.93473 7.1943 0
M  V30 12754 O 2269.8 3.02071 8.21205 0
M  V30 12755 C 2270.29 3.73047 5.97036 0
M  V30 12756 C 2269.58 2.58828 5.25741 0
M  V30 12757 N 2269.63 2.68068 3.77503 0
M  V30 12758 H 2266.79 5.40332 6.79951 0
M  V30 12759 H 2266.52 4.41613 5.32378 0
M  V30 12760 H 2267.38 3.26331 7.47797 0
M  V30 12761 P 2271.35 2.75334 8.47391 0
M  V30 12762 O 2271.57 2.44619 9.90336 0
M  V30 12763 O 2272.14 3.87776 7.92294 0
M  V30 12764 O 2271.6 1.4459 7.59357 0
M  V30 12765 C 2270.66 0.347653 7.69315 0
M  V30 12766 C 2271.39 -0.96767 7.52806 0
M  V30 12767 O 2271.6 -1.21055 6.10208 0
M  V30 12768 C 2272.79 -1.04557 8.13408 0
M  V30 12769 O 2273.18 -2.38311 8.41922 0
M  V30 12770 C 2273.67 -0.491279 7.02284 0
M  V30 12771 C 2272.96 -0.996264 5.77469 0
M  V30 12772 N 2273.01 -0.0501916 4.62973 0
M  V30 12773 H 2270.17 0.374765 8.67791 0
M  V30 12774 H 2269.9 0.443613 6.90476 0
M  V30 12775 H 2270.76 -1.75559 7.96891 0
M  V30 12776 H 2273.42 -1.94563 5.46818 0
M  V30 12777 H 2273.7 0.608651 7.04676 0
M  V30 12778 H 2274.69 -0.889796 7.09039 0
M  V30 12779 H 2272.86 -0.433128 9.04664 0
M  V30 12780 P 2274.73 -2.75334 8.47391 0
M  V30 12781 O 2274.95 -3.84128 9.44797 0
M  V30 12782 O 2275.52 -1.51947 8.68712 0
M  V30 12783 O 2274.98 -3.29363 6.99321 0
M  V30 12784 C 2274.04 -4.24011 6.4274 0
M  V30 12785 C 2274.77 -5.20775 5.52155 0
M  V30 12786 O 2274.98 -4.56534 4.22446 0
M  V30 12787 C 2276.17 -5.62629 5.96531 0
M  V30 12788 O 2276.56 -6.87667 5.41053 0
M  V30 12789 C 2277.05 -4.52537 5.39283 0
M  V30 12790 C 2276.34 -4.20027 4.08623 0
M  V30 12791 N 2276.39 -2.76189 3.71603 0
M  V30 12792 H 2273.55 -4.797 7.24003 0
M  V30 12793 H 2273.28 -3.69856 5.84513 0
M  V30 12794 H 2274.14 -6.10356 5.41441 0
M  V30 12795 P 2278.11 -7.20834 5.23717 0
M  V30 12796 O 2278.33 -8.66104 5.38572 0
M  V30 12797 O 2278.9 -6.33544 6.1349 0
M  V30 12798 O 2278.36 -6.7751 3.72168 0
M  V30 12799 C 2277.42 -7.20825 2.7076 0
M  V30 12800 C 2278.15 -7.45864 1.40599 0
M  V30 12801 O 2278.36 -6.17651 0.734225 0
M  V30 12802 C 2279.55 -8.05808 1.51899 0
M  V30 12803 O 2279.94 -8.74358 0.335205 0
M  V30 12804 C 2280.43 -6.83093 1.70294 0
M  V30 12805 C 2279.72 -5.79992 0.836974 0
M  V30 12806 N 2279.77 -4.41864 1.38293 0
M  V30 12807 H 2276.93 -8.13644 3.0377 0
M  V30 12808 H 2276.66 -6.42788 2.55485 0
M  V30 12809 H 2277.52 -8.12039 0.792769 0
M  V30 12810 P 2281.49 -8.91 4.84207e-11 0
M  V30 12811 O 2281.71 -10.1746 -0.733838 0
M  V30 12812 O 2282.28 -8.73346 1.23964 0
M  V30 12813 O 2281.74 -7.66872 -0.971405 0
M  V30 12814 C 2280.8 -7.42405 -2.04668 0
M  V30 12815 C 2281.53 -6.86059 -3.24661 0
M  V30 12816 O 2281.74 -5.42934 -3.03695 0
M  V30 12817 C 2282.93 -7.41287 -3.50796 0
M  V30 12818 O 2283.32 -7.27073 -4.86816 0
M  V30 12819 C 2283.81 -6.5273 -2.63741 0
M  V30 12820 C 2283.1 -5.1842 -2.73198 0
M  V30 12821 N 2283.15 -4.38762 -1.4784 0
M  V30 12822 C 2283.07 -4.83651 -0.183876 0
M  V30 12823 N 2283.14 -3.88759 0.699393 0
M  V30 12824 C 2283.29 -2.7404 -0.0575568 0
M  V30 12825 C 2283.42 -1.37902 0.293928 0
M  V30 12826 N 2283.43 -0.938021 1.54797 0
M  V30 12827 N 2283.54 -0.491817 -0.70549 0
M  V30 12828 C 2283.53 -0.931735 -1.95979 0
M  V30 12829 N 2283.41 -2.16017 -2.41481 0
M  V30 12830 C 2283.29 -3.02547 -1.39121 0
M  V30 12831 H 2280.31 -8.36899 -2.3252 0
M  V30 12832 H 2280.04 -6.70391 -1.71179 0
M  V30 12833 H 2280.9 -7.03638 -4.13219 0
M  V30 12834 H 2283.56 -4.59931 -3.54016 0
M  V30 12835 H 2283.84 -6.88995 -1.59871 0
M  V30 12836 H 2284.83 -6.4684 -3.0373 0
M  V30 12837 H 2283 -8.47002 -3.20749 0
M  V30 12838 H 2282.96 -5.8885 0.0765548 0
M  V30 12839 H 2283.34 -1.60276 2.32875 0
M  V30 12840 H 2283.53 0.0699355 1.73859 0
M  V30 12841 H 2283.63 -0.165507 -2.71897 0
M  V30 12842 P 2284.87 -7.20834 -5.23717 0
M  V30 12843 O 2285.09 -7.7993 -6.57351 0
M  V30 12844 O 2285.66 -7.79328 -4.13004 0
M  V30 12845 O 2285.12 -5.63315 -5.29344 0
M  V30 12846 C 2284.18 -4.80193 -6.01798 0
M  V30 12847 C 2284.91 -3.64202 -6.65911 0
M  V30 12848 O 2285.12 -2.60694 -5.64732 0
M  V30 12849 C 2286.31 -3.93473 -7.1943 0
M  V30 12850 O 2286.7 -3.02071 -8.21205 0
M  V30 12851 C 2287.19 -3.73047 -5.97036 0
M  V30 12852 C 2286.48 -2.58828 -5.25741 0
M  V30 12853 N 2286.53 -2.6801 -3.77422 0
M  V30 12854 C 2286.68 -1.50443 -3.07133 0
M  V30 12855 O 2286.77 -0.419406 -3.61576 0
M  V30 12856 N 2286.72 -1.6403 -1.69677 0
M  V30 12857 C 2286.63 -2.81206 -0.986255 0
M  V30 12858 O 2286.68 -2.80892 0.249754 0
M  V30 12859 C 2286.48 -3.99158 -1.80325 0
M  V30 12860 C 2286.37 -5.29309 -1.06921 0
M  V30 12861 C 2286.43 -3.89779 -3.1476 0
M  V30 12862 H 2283.69 -5.40332 -6.79951 0
M  V30 12863 H 2283.42 -4.41549 -5.32301 0
M  V30 12864 H 2284.28 -3.26331 -7.47797 0
M  V30 12865 H 2286.94 -1.6395 -5.56554 0
M  V30 12866 H 2287.22 -4.63439 -5.3432 0
M  V30 12867 H 2288.21 -3.44728 -6.25838 0
M  V30 12868 H 2286.38 -4.96652 -7.57263 0
M  V30 12869 H 2286.31 -4.80159 -3.74441 0
M  V30 12870 H 2287.34 -5.81459 -1.09608 0
M  V30 12871 H 2285.6 -5.9187 -1.54487 0
M  V30 12872 H 2286.09 -5.10095 -0.0220288 0
M  V30 12873 H 2286.82 -0.798962 -1.16664 0
M  V30 12874 P 2288.25 -2.75334 -8.47391 0
M  V30 12875 O 2288.47 -2.44595 -9.90239 0
M  V30 12876 O 2289.04 -3.87732 -7.92204 0
M  V30 12877 O 2288.5 -1.4459 -7.59357 0
M  V30 12878 C 2287.56 -0.347563 -7.69115 0
M  V30 12879 C 2288.29 0.96767 -7.52806 0
M  V30 12880 O 2288.5 1.21036 -6.1011 0
M  V30 12881 C 2289.69 1.04544 -8.13308 0
M  V30 12882 O 2290.08 2.38311 -8.41922 0
M  V30 12883 C 2290.57 0.491279 -7.02284 0
M  V30 12884 C 2289.86 0.996264 -5.77469 0
M  V30 12885 N 2289.91 0.0501808 -4.62873 0
M  V30 12886 C 2290.06 0.588177 -3.36904 0
M  V30 12887 O 2290.15 1.78598 -3.17173 0
M  V30 12888 N 2290.1 -0.329694 -2.33686 0
M  V30 12889 C 2290.01 -1.6953 -2.45079 0
M  V30 12890 C 2289.86 -2.16933 -3.80505 0
M  V30 12891 C 2289.81 -1.30326 -4.83752 0
M  V30 12892 H 2287.07 -0.374722 -8.67691 0
M  V30 12893 H 2286.8 -0.443421 -6.90177 0
M  V30 12894 H 2287.66 1.75537 -7.96793 0
M  V30 12895 H 2290.32 1.94496 -5.46629 0
M  V30 12896 H 2290.6 -0.608651 -7.04676 0
M  V30 12897 H 2291.59 0.889672 -7.08939 0
M  V30 12898 H 2289.76 0.43308 -9.04564 0
M  V30 12899 H 2289.69 -1.68366 -5.8516 0
M  V30 12900 P 2291.63 2.75334 -8.47391 0
M  V30 12901 O 2291.85 3.84128 -9.44797 0
M  V30 12902 O 2292.42 1.51947 -8.68712 0
M  V30 12903 O 2291.88 3.29363 -6.99321 0
M  V30 12904 C 2290.94 4.24011 -6.4274 0
M  V30 12905 C 2291.67 5.20775 -5.52155 0
M  V30 12906 O 2291.88 4.56534 -4.22446 0
M  V30 12907 C 2293.07 5.62629 -5.96531 0
M  V30 12908 O 2293.46 6.87667 -5.41053 0
M  V30 12909 C 2293.95 4.52537 -5.39283 0
M  V30 12910 C 2293.24 4.20027 -4.08623 0
M  V30 12911 N 2293.29 2.76189 -3.71603 0
M  V30 12912 H 2290.45 4.797 -7.24003 0
M  V30 12913 H 2290.18 3.69856 -5.84513 0
M  V30 12914 H 2291.04 6.10356 -5.41441 0
M  V30 12915 P 2295.01 7.20834 -5.23717 0
M  V30 12916 O 2295.23 8.66104 -5.38572 0
M  V30 12917 O 2295.8 6.33544 -6.1349 0
M  V30 12918 O 2295.26 6.7751 -3.72168 0
M  V30 12919 C 2294.32 7.20825 -2.7076 0
M  V30 12920 C 2295.05 7.45864 -1.40599 0
M  V30 12921 O 2295.26 6.17651 -0.734225 0
M  V30 12922 C 2296.45 8.05808 -1.51899 0
M  V30 12923 O 2296.84 8.74358 -0.335205 0
M  V30 12924 C 2297.33 6.83093 -1.70294 0
M  V30 12925 C 2296.62 5.79992 -0.836974 0
M  V30 12926 N 2296.67 4.41864 -1.38293 0
M  V30 12927 H 2293.83 8.13644 -3.0377 0
M  V30 12928 H 2293.56 6.42788 -2.55485 0
M  V30 12929 H 2294.42 8.12039 -0.792769 0
M  V30 12930 P 2298.39 8.91 -4.95297e-11 0
M  V30 12931 O 2298.61 10.1726 0.733694 0
M  V30 12932 O 2299.18 8.73148 -1.23936 0
M  V30 12933 O 2298.64 7.66872 0.971405 0
M  V30 12934 C 2297.7 7.42309 2.04641 0
M  V30 12935 C 2298.43 6.86059 3.24661 0
M  V30 12936 O 2298.64 5.42847 3.03646 0
M  V30 12937 C 2299.83 7.41196 3.50753 0
M  V30 12938 O 2300.22 7.27073 4.86816 0
M  V30 12939 C 2300.71 6.5273 2.63741 0
M  V30 12940 C 2300 5.1842 2.73198 0
M  V30 12941 N 2300.05 4.38762 1.4784 0
M  V30 12942 H 2297.21 8.36803 2.32493 0
M  V30 12943 H 2296.94 6.70197 1.71129 0
M  V30 12944 H 2297.8 7.03551 4.13168 0
M  V30 12945 P 2301.77 7.20834 5.23717 0
M  V30 12946 O 2301.99 7.79853 6.57286 0
M  V30 12947 O 2302.56 7.79239 4.12957 0
M  V30 12948 O 2302.02 5.63315 5.29344 0
M  V30 12949 C 2301.08 4.80255 6.01876 0
M  V30 12950 C 2301.81 3.64202 6.65911 0
M  V30 12951 O 2302.02 2.60694 5.64732 0
M  V30 12952 C 2303.21 3.93473 7.1943 0
M  V30 12953 O 2303.6 3.02071 8.21205 0
M  V30 12954 C 2304.09 3.73047 5.97036 0
M  V30 12955 C 2303.38 2.58828 5.25741 0
M  V30 12956 N 2303.43 2.68068 3.77503 0
M  V30 12957 H 2300.59 5.40332 6.79951 0
M  V30 12958 H 2300.32 4.41613 5.32378 0
M  V30 12959 H 2301.18 3.26331 7.47797 0
M  V30 12960 P 2305.15 2.75334 8.47391 0
M  V30 12961 O 2305.37 2.44595 9.90239 0
M  V30 12962 O 2305.94 3.87732 7.92204 0
M  V30 12963 O 2305.4 1.4459 7.59357 0
M  V30 12964 C 2304.46 0.347608 7.69215 0
M  V30 12965 C 2305.19 -0.96767 7.52806 0
M  V30 12966 O 2305.4 -1.21036 6.1011 0
M  V30 12967 C 2306.59 -1.04544 8.13308 0
M  V30 12968 O 2306.98 -2.38311 8.41922 0
M  V30 12969 C 2307.47 -0.491279 7.02284 0
M  V30 12970 C 2306.76 -0.996264 5.77469 0
M  V30 12971 N 2306.81 -0.0501808 4.62873 0
M  V30 12972 C 2306.96 -0.578037 3.3505 0
M  V30 12973 O 2307.05 -1.8073 3.21711 0
M  V30 12974 N 2307.01 0.468541 2.263 0
M  V30 12975 C 2306.91 1.59186 2.47176 0
M  V30 12976 N 2306.96 2.37626 1.40392 0
M  V30 12977 C 2306.76 2.16203 3.77467 0
M  V30 12978 C 2306.71 1.29324 4.8195 0
M  V30 12979 H 2303.97 0.374679 8.67591 0
M  V30 12980 H 2303.7 0.443421 6.90177 0
M  V30 12981 H 2304.56 -1.75559 7.96891 0
M  V30 12982 H 2307.22 -1.94529 5.46723 0
M  V30 12983 H 2307.5 0.608651 7.04676 0
M  V30 12984 H 2308.49 -0.889672 7.08939 0
M  V30 12985 H 2306.66 -0.43308 9.04564 0
M  V30 12986 H 2306.58 1.67758 5.83046 0
M  V30 12987 H 2306.69 3.23869 3.92281 0
M  V30 12988 H 2307.07 1.96317 0.467202 0
M  V30 12989 H 2306.88 3.39693 1.51142 0
M  V30 12990 P 2308.53 -2.75334 8.47391 0
M  V30 12991 O 2308.75 -3.84128 9.44797 0
M  V30 12992 O 2309.32 -1.51947 8.68712 0
M  V30 12993 O 2308.78 -3.29363 6.99321 0
M  V30 12994 C 2307.84 -4.24011 6.4274 0
M  V30 12995 C 2308.57 -5.20775 5.52155 0
M  V30 12996 O 2308.78 -4.56534 4.22446 0
M  V30 12997 C 2309.97 -5.62629 5.96531 0
M  V30 12998 O 2310.36 -6.87667 5.41053 0
M  V30 12999 C 2310.85 -4.52537 5.39283 0
M  V30 13000 C 2310.14 -4.20027 4.08623 0
M  V30 13001 N 2310.19 -2.76189 3.71603 0
M  V30 13002 H 2307.35 -4.797 7.24003 0
M  V30 13003 H 2307.08 -3.69856 5.84513 0
M  V30 13004 H 2307.94 -6.10356 5.41441 0
M  V30 13005 P 2311.91 -7.20834 5.23717 0
M  V30 13006 O 2312.13 -8.66274 5.38678 0
M  V30 13007 O 2312.7 -6.33687 6.13629 0
M  V30 13008 O 2312.16 -6.7751 3.72168 0
M  V30 13009 C 2311.22 -7.20919 2.70795 0
M  V30 13010 C 2311.95 -7.45864 1.40599 0
M  V30 13011 O 2312.16 -6.17751 0.734343 0
M  V30 13012 C 2313.35 -8.05906 1.51917 0
M  V30 13013 O 2313.74 -8.74358 0.335205 0
M  V30 13014 C 2314.23 -6.83093 1.70294 0
M  V30 13015 C 2313.52 -5.79992 0.836974 0
M  V30 13016 N 2313.57 -4.41864 1.38293 0
M  V30 13017 C 2313.49 -4.02089 2.69407 0
M  V30 13018 N 2313.56 -2.73403 2.85089 0
M  V30 13019 C 2313.71 -2.25086 1.5642 0
M  V30 13020 C 2313.84 -0.942887 1.04836 0
M  V30 13021 N 2313.85 0.150999 1.80369 0
M  V30 13022 N 2313.96 -0.812565 -0.28167 0
M  V30 13023 C 2313.95 -1.90572 -1.03784 0
M  V30 13024 N 2313.83 -3.167 -0.683905 0
M  V30 13025 C 2313.71 -3.26538 0.652815 0
M  V30 13026 H 2310.73 -8.13738 3.03804 0
M  V30 13027 H 2310.46 -6.42974 2.55559 0
M  V30 13028 H 2311.32 -8.12139 0.792866 0
M  V30 13029 H 2313.98 -5.80178 -0.160643 0
M  V30 13030 H 2314.26 -6.51379 2.75643 0
M  V30 13031 H 2315.25 -7.01832 1.3448 0
M  V30 13032 H 2313.42 -8.73771 2.38364 0
M  V30 13033 H 2313.38 -4.7189 3.52311 0
M  V30 13034 H 2313.76 0.0721434 2.82608 0
M  V30 13035 H 2313.95 1.0785 1.36544 0
M  V30 13036 H 2314.05 -1.73207 -2.10241 0
M  V30 13037 P 2315.29 -8.91 5.06387e-11 0
M  V30 13038 O 2315.51 -10.1726 -0.733694 0
M  V30 13039 O 2316.08 -8.73148 1.23936 0
M  V30 13040 O 2315.54 -7.66872 -0.971405 0
M  V30 13041 C 2314.6 -7.42309 -2.04641 0
M  V30 13042 C 2315.33 -6.86059 -3.24661 0
M  V30 13043 O 2315.54 -5.42847 -3.03646 0
M  V30 13044 C 2316.73 -7.41196 -3.50753 0
M  V30 13045 O 2317.12 -7.27073 -4.86816 0
M  V30 13046 C 2317.61 -6.5273 -2.63741 0
M  V30 13047 C 2316.9 -5.1842 -2.73198 0
M  V30 13048 N 2316.95 -4.38762 -1.4784 0
M  V30 13049 H 2314.11 -8.36803 -2.32493 0
M  V30 13050 H 2313.84 -6.70197 -1.71129 0
M  V30 13051 H 2314.7 -7.03551 -4.13168 0
M  V30 13052 P 2318.67 -7.20834 -5.23717 0
M  V30 13053 O 2318.89 -7.7993 -6.57351 0
M  V30 13054 O 2319.46 -7.79328 -4.13004 0
M  V30 13055 O 2318.92 -5.63315 -5.29344 0
M  V30 13056 C 2317.98 -4.80193 -6.01798 0
M  V30 13057 C 2318.71 -3.64202 -6.65911 0
M  V30 13058 O 2318.92 -2.60694 -5.64732 0
M  V30 13059 C 2320.11 -3.93473 -7.1943 0
M  V30 13060 O 2320.5 -3.02071 -8.21205 0
M  V30 13061 C 2320.99 -3.73047 -5.97036 0
M  V30 13062 C 2320.28 -2.58828 -5.25741 0
M  V30 13063 N 2320.33 -2.6801 -3.77422 0
M  V30 13064 C 2320.48 -1.50443 -3.07133 0
M  V30 13065 O 2320.57 -0.419406 -3.61576 0
M  V30 13066 N 2320.52 -1.6403 -1.69677 0
M  V30 13067 C 2320.43 -2.81206 -0.986255 0
M  V30 13068 C 2320.28 -3.99158 -1.80325 0
M  V30 13069 C 2320.23 -3.89779 -3.1476 0
M  V30 13070 H 2317.49 -5.40332 -6.79951 0
M  V30 13071 H 2317.22 -4.41549 -5.32301 0
M  V30 13072 H 2318.08 -3.26331 -7.47797 0
M  V30 13073 H 2320.74 -1.6395 -5.56554 0
M  V30 13074 H 2321.02 -4.63439 -5.3432 0
M  V30 13075 H 2322.01 -3.44728 -6.25838 0
M  V30 13076 H 2320.18 -4.96652 -7.57263 0
M  V30 13077 H 2320.11 -4.80159 -3.74441 0
M  V30 13078 P 2322.05 -2.75334 -8.47391 0
M  V30 13079 O 2322.27 -2.44571 -9.90142 0
M  V30 13080 O 2322.84 -3.87688 -7.92115 0
M  V30 13081 O 2322.3 -1.4459 -7.59357 0
M  V30 13082 C 2321.36 -0.347608 -7.69215 0
M  V30 13083 C 2322.09 0.96767 -7.52806 0
M  V30 13084 O 2322.3 1.21036 -6.1011 0
M  V30 13085 C 2323.49 1.04544 -8.13308 0
M  V30 13086 O 2323.88 2.38311 -8.41922 0
M  V30 13087 C 2324.37 0.491279 -7.02284 0
M  V30 13088 C 2323.66 0.996264 -5.77469 0
M  V30 13089 N 2323.71 0.0501916 -4.62973 0
M  V30 13090 H 2320.87 -0.374722 -8.67691 0
M  V30 13091 H 2320.6 -0.443485 -6.90277 0
M  V30 13092 H 2321.46 1.75537 -7.96793 0
M  V30 13093 P 2325.43 2.75334 -8.47391 0
M  V30 13094 O 2325.65 3.84128 -9.44797 0
M  V30 13095 O 2326.22 1.51947 -8.68712 0
M  V30 13096 O 2325.68 3.29363 -6.99321 0
M  V30 13097 C 2324.74 4.24011 -6.4274 0
M  V30 13098 C 2325.47 5.20775 -5.52155 0
M  V30 13099 O 2325.68 4.56534 -4.22446 0
M  V30 13100 C 2326.87 5.62629 -5.96531 0
M  V30 13101 O 2327.26 6.87667 -5.41053 0
M  V30 13102 C 2327.75 4.52537 -5.39283 0
M  V30 13103 C 2327.04 4.20027 -4.08623 0
M  V30 13104 N 2327.09 2.76189 -3.71603 0
M  V30 13105 H 2324.25 4.797 -7.24003 0
M  V30 13106 H 2323.98 3.69856 -5.84513 0
M  V30 13107 H 2324.84 6.10356 -5.41441 0
M  V30 13108 P 2328.81 7.20834 -5.23717 0
M  V30 13109 O 2329.03 8.66104 -5.38572 0
M  V30 13110 O 2329.6 6.33544 -6.1349 0
M  V30 13111 O 2329.06 6.7751 -3.72168 0
M  V30 13112 C 2328.12 7.20825 -2.7076 0
M  V30 13113 C 2328.85 7.45864 -1.40599 0
M  V30 13114 O 2329.06 6.17651 -0.734225 0
M  V30 13115 C 2330.25 8.05808 -1.51899 0
M  V30 13116 O 2330.64 8.74358 -0.335205 0
M  V30 13117 C 2331.13 6.83093 -1.70294 0
M  V30 13118 C 2330.42 5.79992 -0.836974 0
M  V30 13119 N 2330.47 4.41864 -1.38293 0
M  V30 13120 H 2327.63 8.13644 -3.0377 0
M  V30 13121 H 2327.36 6.42788 -2.55485 0
M  V30 13122 H 2328.22 8.12039 -0.792769 0
M  V30 13123 P 2332.19 8.91 -5.17477e-11 0
M  V30 13124 O 2332.41 10.1726 0.733694 0
M  V30 13125 O 2332.98 8.73148 -1.23936 0
M  V30 13126 O 2332.44 7.66872 0.971405 0
M  V30 13127 C 2331.5 7.42309 2.04641 0
M  V30 13128 C 2332.23 6.86059 3.24661 0
M  V30 13129 O 2332.44 5.42847 3.03646 0
M  V30 13130 C 2333.63 7.41196 3.50753 0
M  V30 13131 O 2334.02 7.27073 4.86816 0
M  V30 13132 C 2334.51 6.5273 2.63741 0
M  V30 13133 C 2333.8 5.1842 2.73198 0
M  V30 13134 N 2333.85 4.38762 1.4784 0
M  V30 13135 H 2331.01 8.36803 2.32493 0
M  V30 13136 H 2330.74 6.70197 1.71129 0
M  V30 13137 H 2331.6 7.03551 4.13168 0
M  V30 13138 P 2335.57 7.20834 5.23717 0
M  V30 13139 O 2335.79 7.79853 6.57286 0
M  V30 13140 O 2336.36 7.79239 4.12957 0
M  V30 13141 O 2335.82 5.63315 5.29344 0
M  V30 13142 C 2334.88 4.80255 6.01876 0
M  V30 13143 C 2335.61 3.64202 6.65911 0
M  V30 13144 O 2335.82 2.60694 5.64732 0
M  V30 13145 C 2337.01 3.93473 7.1943 0
M  V30 13146 O 2337.4 3.02071 8.21205 0
M  V30 13147 C 2337.89 3.73047 5.97036 0
M  V30 13148 C 2337.18 2.58828 5.25741 0
M  V30 13149 N 2337.23 2.68068 3.77503 0
M  V30 13150 H 2334.39 5.40332 6.79951 0
M  V30 13151 H 2334.12 4.41613 5.32378 0
M  V30 13152 H 2334.98 3.26331 7.47797 0
M  V30 13153 P 2338.95 2.75334 8.47391 0
M  V30 13154 O 2339.17 2.44571 9.90142 0
M  V30 13155 O 2339.74 3.87688 7.92115 0
M  V30 13156 O 2339.2 1.4459 7.59357 0
M  V30 13157 C 2338.26 0.347608 7.69215 0
M  V30 13158 C 2338.99 -0.96767 7.52806 0
M  V30 13159 O 2339.2 -1.21036 6.1011 0
M  V30 13160 C 2340.39 -1.04544 8.13308 0
M  V30 13161 O 2340.78 -2.38311 8.41922 0
M  V30 13162 C 2341.27 -0.491279 7.02284 0
M  V30 13163 C 2340.56 -0.996264 5.77469 0
M  V30 13164 N 2340.61 -0.0501916 4.62973 0
M  V30 13165 H 2337.77 0.374722 8.67691 0
M  V30 13166 H 2337.5 0.443485 6.90277 0
M  V30 13167 H 2338.36 -1.75537 7.96793 0
M  V30 13168 P 2342.33 -2.75334 8.47391 0
M  V30 13169 O 2342.55 -3.84128 9.44797 0
M  V30 13170 O 2343.12 -1.51947 8.68712 0
M  V30 13171 O 2342.58 -3.29363 6.99321 0
M  V30 13172 C 2341.64 -4.24011 6.4274 0
M  V30 13173 C 2342.37 -5.20775 5.52155 0
M  V30 13174 O 2342.58 -4.56534 4.22446 0
M  V30 13175 C 2343.77 -5.62629 5.96531 0
M  V30 13176 O 2344.16 -6.87667 5.41053 0
M  V30 13177 C 2344.65 -4.52537 5.39283 0
M  V30 13178 C 2343.94 -4.20027 4.08623 0
M  V30 13179 N 2343.99 -2.76189 3.71603 0
M  V30 13180 H 2341.15 -4.797 7.24003 0
M  V30 13181 H 2340.88 -3.69856 5.84513 0
M  V30 13182 H 2341.74 -6.10356 5.41441 0
M  V30 13183 P 2345.71 -7.20834 5.23717 0
M  V30 13184 O 2345.93 -8.66104 5.38572 0
M  V30 13185 O 2346.5 -6.33544 6.1349 0
M  V30 13186 O 2345.96 -6.7751 3.72168 0
M  V30 13187 C 2345.02 -7.20825 2.7076 0
M  V30 13188 C 2345.75 -7.45864 1.40599 0
M  V30 13189 O 2345.96 -6.17651 0.734225 0
M  V30 13190 C 2347.15 -8.05808 1.51899 0
M  V30 13191 O 2347.54 -8.74358 0.335205 0
M  V30 13192 C 2348.03 -6.83093 1.70294 0
M  V30 13193 C 2347.32 -5.79992 0.836974 0
M  V30 13194 N 2347.37 -4.41864 1.38293 0
M  V30 13195 H 2344.53 -8.13644 3.0377 0
M  V30 13196 H 2344.26 -6.42788 2.55485 0
M  V30 13197 H 2345.12 -8.12039 0.792769 0
M  V30 13198 P 2349.09 -8.91 5.28567e-11 0
M  V30 13199 O 2349.31 -10.1726 -0.733694 0
M  V30 13200 O 2349.88 -8.73148 1.23936 0
M  V30 13201 O 2349.34 -7.66872 -0.971405 0
M  V30 13202 C 2348.4 -7.42309 -2.04641 0
M  V30 13203 C 2349.13 -6.86059 -3.24661 0
M  V30 13204 O 2349.34 -5.42847 -3.03646 0
M  V30 13205 C 2350.53 -7.41196 -3.50753 0
M  V30 13206 O 2350.92 -7.27073 -4.86816 0
M  V30 13207 C 2351.41 -6.5273 -2.63741 0
M  V30 13208 C 2350.7 -5.1842 -2.73198 0
M  V30 13209 N 2350.75 -4.38762 -1.4784 0
M  V30 13210 H 2347.91 -8.36803 -2.32493 0
M  V30 13211 H 2347.64 -6.70197 -1.71129 0
M  V30 13212 H 2348.5 -7.03551 -4.13168 0
M  V30 13213 P 2352.47 -7.20834 -5.23717 0
M  V30 13214 O 2352.69 -7.80006 -6.57415 0
M  V30 13215 O 2353.26 -7.79416 -4.13051 0
M  V30 13216 O 2352.72 -5.63315 -5.29344 0
M  V30 13217 C 2351.78 -4.80318 -6.01954 0
M  V30 13218 C 2352.51 -3.64202 -6.65911 0
M  V30 13219 O 2352.72 -2.60736 -5.64823 0
M  V30 13220 C 2353.91 -3.93521 -7.19518 0
M  V30 13221 O 2354.3 -3.02071 -8.21205 0
M  V30 13222 C 2354.79 -3.73047 -5.97036 0
M  V30 13223 C 2354.08 -2.58828 -5.25741 0
M  V30 13224 N 2354.13 -2.68068 -3.77503 0
M  V30 13225 C 2354.05 -3.80474 -2.99159 0
M  V30 13226 N 2354.12 -3.55622 -1.71925 0
M  V30 13227 C 2354.27 -2.1832 -1.65733 0
M  V30 13228 C 2354.4 -1.28842 -0.572777 0
M  V30 13229 N 2354.41 -1.66875 0.70098 0
M  V30 13230 N 2354.52 0.016788 -0.859836 0
M  V30 13231 C 2354.51 0.398145 -2.13316 0
M  V30 13232 N 2354.39 -0.328224 -3.22333 0
M  V30 13233 C 2354.27 -1.62992 -2.90383 0
M  V30 13234 H 2351.29 -5.40394 -6.8003 0
M  V30 13235 H 2351.02 -4.41741 -5.32532 0
M  V30 13236 H 2351.88 -3.26371 -7.47889 0
M  V30 13237 H 2354.54 -1.64007 -5.56746 0
M  V30 13238 H 2354.82 -4.63439 -5.3432 0
M  V30 13239 H 2355.81 -3.44776 -6.25925 0
M  V30 13240 H 2353.98 -4.96707 -7.57347 0
M  V30 13241 H 2353.94 -4.8089 -3.39924 0
M  V30 13242 H 2354.32 -2.66547 0.941919 0
M  V30 13243 H 2354.51 -0.965341 1.44766 0
M  V30 13244 H 2354.61 1.46427 -2.29697 0
M  V30 13245 P 2355.85 -2.75334 -8.47391 0
M  V30 13246 O 2356.07 -2.44571 -9.90142 0
M  V30 13247 O 2356.64 -3.87688 -7.92115 0
M  V30 13248 O 2356.1 -1.4459 -7.59357 0
M  V30 13249 C 2355.16 -0.347608 -7.69215 0
M  V30 13250 C 2355.89 0.96767 -7.52806 0
M  V30 13251 O 2356.1 1.21036 -6.1011 0
M  V30 13252 C 2357.29 1.04544 -8.13308 0
M  V30 13253 O 2357.68 2.38311 -8.41922 0
M  V30 13254 C 2358.17 0.491279 -7.02284 0
M  V30 13255 C 2357.46 0.996264 -5.77469 0
M  V30 13256 N 2357.51 0.0501916 -4.62973 0
M  V30 13257 H 2354.67 -0.374722 -8.67691 0
M  V30 13258 H 2354.4 -0.443485 -6.90277 0
M  V30 13259 H 2355.26 1.75537 -7.96793 0
M  V30 13260 P 2359.23 2.75334 -8.47391 0
M  V30 13261 O 2359.45 3.84128 -9.44797 0
M  V30 13262 O 2360.02 1.51947 -8.68712 0
M  V30 13263 O 2359.48 3.29363 -6.99321 0
M  V30 13264 C 2358.54 4.24011 -6.4274 0
M  V30 13265 C 2359.27 5.20775 -5.52155 0
M  V30 13266 O 2359.48 4.56534 -4.22446 0
M  V30 13267 C 2360.67 5.62629 -5.96531 0
M  V30 13268 O 2361.06 6.87667 -5.41053 0
M  V30 13269 C 2361.55 4.52537 -5.39283 0
M  V30 13270 C 2360.84 4.20027 -4.08623 0
M  V30 13271 N 2360.89 2.76189 -3.71603 0
M  V30 13272 H 2358.05 4.797 -7.24003 0
M  V30 13273 H 2357.78 3.69856 -5.84513 0
M  V30 13274 H 2358.64 6.10356 -5.41441 0
M  V30 13275 P 2362.61 7.20834 -5.23717 0
M  V30 13276 O 2362.83 8.66104 -5.38572 0
M  V30 13277 O 2363.4 6.33544 -6.1349 0
M  V30 13278 O 2362.86 6.7751 -3.72168 0
M  V30 13279 C 2361.92 7.20825 -2.7076 0
M  V30 13280 C 2362.65 7.45864 -1.40599 0
M  V30 13281 O 2362.86 6.17651 -0.734225 0
M  V30 13282 C 2364.05 8.05808 -1.51899 0
M  V30 13283 O 2364.44 8.74358 -0.335205 0
M  V30 13284 C 2364.93 6.83093 -1.70294 0
M  V30 13285 C 2364.22 5.79992 -0.836974 0
M  V30 13286 N 2364.27 4.41864 -1.38293 0
M  V30 13287 H 2361.43 8.13644 -3.0377 0
M  V30 13288 H 2361.16 6.42788 -2.55485 0
M  V30 13289 H 2362.02 8.12039 -0.792769 0
M  V30 13290 P 2365.99 8.91 -5.39657e-11 0
M  V30 13291 O 2366.21 10.1726 0.733694 0
M  V30 13292 O 2366.78 8.73148 -1.23936 0
M  V30 13293 O 2366.24 7.66872 0.971405 0
M  V30 13294 C 2365.3 7.42309 2.04641 0
M  V30 13295 C 2366.03 6.86059 3.24661 0
M  V30 13296 O 2366.24 5.42847 3.03646 0
M  V30 13297 C 2367.43 7.41196 3.50753 0
M  V30 13298 O 2367.82 7.27073 4.86816 0
M  V30 13299 C 2368.31 6.5273 2.63741 0
M  V30 13300 C 2367.6 5.1842 2.73198 0
M  V30 13301 N 2367.65 4.38762 1.4784 0
M  V30 13302 H 2364.81 8.36803 2.32493 0
M  V30 13303 H 2364.54 6.70197 1.71129 0
M  V30 13304 H 2365.4 7.03551 4.13168 0
M  V30 13305 P 2369.37 7.20834 5.23717 0
M  V30 13306 O 2369.59 7.79853 6.57286 0
M  V30 13307 O 2370.16 7.79239 4.12957 0
M  V30 13308 O 2369.62 5.63315 5.29344 0
M  V30 13309 C 2368.68 4.80255 6.01876 0
M  V30 13310 C 2369.41 3.64202 6.65911 0
M  V30 13311 O 2369.62 2.60694 5.64732 0
M  V30 13312 C 2370.81 3.93473 7.1943 0
M  V30 13313 O 2371.2 3.02071 8.21205 0
M  V30 13314 C 2371.69 3.73047 5.97036 0
M  V30 13315 C 2370.98 2.58828 5.25741 0
M  V30 13316 N 2371.03 2.68068 3.77503 0
M  V30 13317 H 2368.19 5.40332 6.79951 0
M  V30 13318 H 2367.92 4.41613 5.32378 0
M  V30 13319 H 2368.78 3.26331 7.47797 0
M  V30 13320 P 2372.75 2.75334 8.47391 0
M  V30 13321 O 2372.97 2.44595 9.90239 0
M  V30 13322 O 2373.54 3.87732 7.92204 0
M  V30 13323 O 2373 1.4459 7.59357 0
M  V30 13324 C 2372.06 0.347563 7.69115 0
M  V30 13325 C 2372.79 -0.96767 7.52806 0
M  V30 13326 O 2373 -1.21036 6.1011 0
M  V30 13327 C 2374.19 -1.04544 8.13308 0
M  V30 13328 O 2374.58 -2.38311 8.41922 0
M  V30 13329 C 2375.07 -0.491279 7.02284 0
M  V30 13330 C 2374.36 -0.996264 5.77469 0
M  V30 13331 N 2374.41 -0.0501808 4.62873 0
M  V30 13332 C 2374.56 -0.588177 3.36904 0
M  V30 13333 O 2374.65 -1.78598 3.17173 0
M  V30 13334 N 2374.6 0.329694 2.33686 0
M  V30 13335 C 2374.51 1.6953 2.45079 0
M  V30 13336 O 2374.56 2.41926 1.44899 0
M  V30 13337 C 2374.36 2.16933 3.80505 0
M  V30 13338 C 2374.25 3.65373 3.97621 0
M  V30 13339 C 2374.31 1.30326 4.83752 0
M  V30 13340 H 2371.57 0.374722 8.67691 0
M  V30 13341 H 2371.3 0.443421 6.90177 0
M  V30 13342 H 2372.16 -1.75537 7.96793 0
M  V30 13343 H 2374.82 -1.94496 5.46629 0
M  V30 13344 H 2375.1 0.608651 7.04676 0
M  V30 13345 H 2376.09 -0.889672 7.08939 0
M  V30 13346 H 2374.26 -0.43308 9.04564 0
M  V30 13347 H 2374.18 1.68366 5.8516 0
M  V30 13348 H 2375.21 4.05985 4.30448 0
M  V30 13349 H 2373.48 3.88028 4.72875 0
M  V30 13350 H 2373.97 4.11381 3.01609 0
M  V30 13351 H 2374.7 -0.0393617 1.41345 0
M  V30 13352 P 2376.13 -2.75334 8.47391 0
M  V30 13353 O 2376.35 -3.84128 9.44797 0
M  V30 13354 O 2376.92 -1.51947 8.68712 0
M  V30 13355 O 2376.38 -3.29363 6.99321 0
M  V30 13356 C 2375.44 -4.24011 6.4274 0
M  V30 13357 C 2376.17 -5.20775 5.52155 0
M  V30 13358 O 2376.38 -4.56534 4.22446 0
M  V30 13359 C 2377.57 -5.62629 5.96531 0
M  V30 13360 O 2377.96 -6.87667 5.41053 0
M  V30 13361 C 2378.45 -4.52537 5.39283 0
M  V30 13362 C 2377.74 -4.20027 4.08623 0
M  V30 13363 N 2377.79 -2.76189 3.71603 0
M  V30 13364 C 2377.71 -1.64862 4.52822 0
M  V30 13365 N 2377.79 -0.512671 3.88633 0
M  V30 13366 C 2377.93 -0.888083 2.54977 0
M  V30 13367 C 2378.06 -0.094668 1.38677 0
M  V30 13368 N 2378.18 -0.890102 0.232633 0
M  V30 13369 C 2378.18 -2.26958 0.21772 0
M  V30 13370 N 2378.31 -2.84626 -0.97925 0
M  V30 13371 N 2378.05 -3.0178 1.31033 0
M  V30 13372 C 2377.93 -2.26781 2.43843 0
M  V30 13373 H 2374.95 -4.797 7.24003 0
M  V30 13374 H 2374.68 -3.69856 5.84513 0
M  V30 13375 H 2375.54 -6.10356 5.41441 0
M  V30 13376 P 2379.51 -7.20834 5.23717 0
M  V30 13377 O 2379.73 -8.66104 5.38572 0
M  V30 13378 O 2380.3 -6.33544 6.1349 0
M  V30 13379 O 2379.76 -6.7751 3.72168 0
M  V30 13380 C 2378.82 -7.20825 2.7076 0
M  V30 13381 C 2379.55 -7.45864 1.40599 0
M  V30 13382 O 2379.76 -6.17651 0.734225 0
M  V30 13383 C 2380.95 -8.05808 1.51899 0
M  V30 13384 O 2381.34 -8.74358 0.335205 0
M  V30 13385 C 2381.83 -6.83093 1.70294 0
M  V30 13386 C 2381.12 -5.79992 0.836974 0
M  V30 13387 N 2381.17 -4.41864 1.38293 0
M  V30 13388 H 2378.33 -8.13644 3.0377 0
M  V30 13389 H 2378.06 -6.42788 2.55485 0
M  V30 13390 H 2378.92 -8.12039 0.792769 0
M  V30 13391 P 2382.89 -8.91 5.50747e-11 0
M  V30 13392 O 2383.11 -10.1746 -0.733838 0
M  V30 13393 O 2383.68 -8.73346 1.23964 0
M  V30 13394 O 2383.14 -7.66872 -0.971405 0
M  V30 13395 C 2382.2 -7.42405 -2.04668 0
M  V30 13396 C 2382.93 -6.86059 -3.24661 0
M  V30 13397 O 2383.14 -5.42934 -3.03695 0
M  V30 13398 C 2384.33 -7.41287 -3.50796 0
M  V30 13399 O 2384.72 -7.27073 -4.86816 0
M  V30 13400 C 2385.21 -6.5273 -2.63741 0
M  V30 13401 C 2384.5 -5.1842 -2.73198 0
M  V30 13402 N 2384.55 -4.38762 -1.4784 0
M  V30 13403 C 2384.47 -4.83651 -0.183876 0
M  V30 13404 N 2384.54 -3.88759 0.699393 0
M  V30 13405 C 2384.69 -2.7404 -0.0575568 0
M  V30 13406 C 2384.82 -1.37902 0.293928 0
M  V30 13407 N 2384.83 -0.938021 1.54797 0
M  V30 13408 N 2384.94 -0.491817 -0.70549 0
M  V30 13409 C 2384.93 -0.931735 -1.95979 0
M  V30 13410 N 2384.81 -2.16017 -2.41481 0
M  V30 13411 C 2384.69 -3.02547 -1.39121 0
M  V30 13412 H 2381.71 -8.36899 -2.3252 0
M  V30 13413 H 2381.44 -6.70391 -1.71179 0
M  V30 13414 H 2382.3 -7.03638 -4.13219 0
M  V30 13415 H 2384.96 -4.59931 -3.54016 0
M  V30 13416 H 2385.24 -6.88995 -1.59871 0
M  V30 13417 H 2386.23 -6.4684 -3.0373 0
M  V30 13418 H 2384.4 -8.47002 -3.20749 0
M  V30 13419 H 2384.35 -5.8885 0.0765548 0
M  V30 13420 H 2384.74 -1.60276 2.32875 0
M  V30 13421 H 2384.92 0.0699355 1.73859 0
M  V30 13422 H 2385.03 -0.165507 -2.71897 0
M  V30 13423 P 2386.27 -7.20834 -5.23717 0
M  V30 13424 O 2386.49 -7.79853 -6.57286 0
M  V30 13425 O 2387.06 -7.79239 -4.12957 0
M  V30 13426 O 2386.52 -5.63315 -5.29344 0
M  V30 13427 C 2385.58 -4.80255 -6.01876 0
M  V30 13428 C 2386.31 -3.64202 -6.65911 0
M  V30 13429 O 2386.52 -2.60694 -5.64732 0
M  V30 13430 C 2387.71 -3.93473 -7.1943 0
M  V30 13431 O 2388.1 -3.02071 -8.21205 0
M  V30 13432 C 2388.59 -3.73047 -5.97036 0
M  V30 13433 C 2387.88 -2.58828 -5.25741 0
M  V30 13434 N 2387.93 -2.68068 -3.77503 0
M  V30 13435 H 2385.09 -5.40332 -6.79951 0
M  V30 13436 H 2384.82 -4.41613 -5.32378 0
M  V30 13437 H 2385.68 -3.26331 -7.47797 0
M  V30 13438 P 2389.65 -2.75334 -8.47391 0
M  V30 13439 O 2389.87 -2.44571 -9.90142 0
M  V30 13440 O 2390.44 -3.87688 -7.92115 0
M  V30 13441 O 2389.9 -1.4459 -7.59357 0
M  V30 13442 C 2388.96 -0.347608 -7.69215 0
M  V30 13443 C 2389.69 0.96767 -7.52806 0
M  V30 13444 O 2389.9 1.21036 -6.1011 0
M  V30 13445 C 2391.09 1.04544 -8.13308 0
M  V30 13446 O 2391.48 2.38311 -8.41922 0
M  V30 13447 C 2391.97 0.491279 -7.02284 0
M  V30 13448 C 2391.26 0.996264 -5.77469 0
M  V30 13449 N 2391.31 0.0501916 -4.62973 0
M  V30 13450 H 2388.47 -0.374722 -8.67691 0
M  V30 13451 H 2388.2 -0.443485 -6.90277 0
M  V30 13452 H 2389.06 1.75537 -7.96793 0
M  V30 13453 P 2393.03 2.75334 -8.47391 0
M  V30 13454 O 2393.25 3.84204 -9.44982 0
M  V30 13455 O 2393.82 1.51982 -8.68909 0
M  V30 13456 O 2393.28 3.29363 -6.99321 0
M  V30 13457 C 2392.34 4.24066 -6.42823 0
M  V30 13458 C 2393.07 5.20775 -5.52155 0
M  V30 13459 O 2393.28 4.56607 -4.22514 0
M  V30 13460 C 2394.47 5.62697 -5.96604 0
M  V30 13461 O 2394.86 6.87667 -5.41053 0
M  V30 13462 C 2395.35 4.52537 -5.39283 0
M  V30 13463 C 2394.64 4.20027 -4.08623 0
M  V30 13464 N 2394.69 2.76189 -3.71603 0
M  V30 13465 H 2391.85 4.79756 -7.24086 0
M  V30 13466 H 2391.58 3.69963 -5.84682 0
M  V30 13467 H 2392.44 6.10431 -5.41508 0
M  V30 13468 H 2395.1 4.78816 -3.28024 0
M  V30 13469 H 2395.38 3.64957 -6.05871 0
M  V30 13470 H 2396.37 4.88748 -5.21323 0
M  V30 13471 H 2394.54 5.66789 -7.0643 0
M  V30 13472 P 2396.41 7.20834 -5.23717 0
M  V30 13473 O 2396.63 8.66104 -5.38572 0
M  V30 13474 O 2397.2 6.33544 -6.1349 0
M  V30 13475 O 2396.66 6.7751 -3.72168 0
M  V30 13476 C 2395.72 7.20825 -2.7076 0
M  V30 13477 C 2396.45 7.45864 -1.40599 0
M  V30 13478 O 2396.66 6.17651 -0.734225 0
M  V30 13479 C 2397.85 8.05808 -1.51899 0
M  V30 13480 O 2398.24 8.74358 -0.335205 0
M  V30 13481 C 2398.73 6.83093 -1.70294 0
M  V30 13482 C 2398.02 5.79992 -0.836974 0
M  V30 13483 N 2398.07 4.41864 -1.38293 0
M  V30 13484 H 2395.23 8.13644 -3.0377 0
M  V30 13485 H 2394.96 6.42788 -2.55485 0
M  V30 13486 H 2395.82 8.12039 -0.792769 0
M  V30 13487 P 2399.79 8.91 -5.61837e-11 0
M  V30 13488 O 2400.01 10.1736 0.733766 0
M  V30 13489 O 2400.58 8.73247 -1.2395 0
M  V30 13490 O 2400.04 7.66872 0.971405 0
M  V30 13491 C 2399.1 7.42212 2.04614 0
M  V30 13492 C 2399.83 6.86059 3.24661 0
M  V30 13493 O 2400.04 5.42847 3.03646 0
M  V30 13494 C 2401.23 7.41196 3.50753 0
M  V30 13495 O 2401.62 7.27073 4.86816 0
M  V30 13496 C 2402.11 6.5273 2.63741 0
M  V30 13497 C 2401.4 5.1842 2.73198 0
M  V30 13498 N 2401.45 4.38668 1.47808 0
M  V30 13499 C 2401.6 3.02239 1.60048 0
M  V30 13500 O 2401.69 2.46459 2.67869 0
M  V30 13501 N 2401.64 2.32436 0.408571 0
M  V30 13502 C 2401.55 2.85471 -0.854993 0
M  V30 13503 O 2401.6 2.12566 -1.8531 0
M  V30 13504 C 2401.4 4.28918 -0.887335 0
M  V30 13505 C 2401.29 4.91066 -2.24619 0
M  V30 13506 C 2401.35 5.00349 0.255399 0
M  V30 13507 H 2398.61 8.36803 2.32493 0
M  V30 13508 H 2398.34 6.701 1.71105 0
M  V30 13509 H 2399.2 7.03551 4.13168 0
M  V30 13510 H 2401.86 4.59773 3.53894 0
M  V30 13511 H 2402.14 6.88995 1.59871 0
M  V30 13512 H 2403.13 6.46749 3.03687 0
M  V30 13513 H 2401.3 8.46908 3.20714 0
M  V30 13514 H 2401.22 6.08548 0.206986 0
M  V30 13515 H 2402.25 5.34836 -2.53099 0
M  V30 13516 H 2400.52 5.69638 -2.2291 0
M  V30 13517 H 2401.01 4.13971 -2.98044 0
M  V30 13518 H 2401.74 1.33211 0.474216 0
M  V30 13519 P 2403.17 7.20834 5.23717 0
M  V30 13520 O 2403.39 7.79853 6.57286 0
M  V30 13521 O 2403.96 7.79239 4.12957 0
M  V30 13522 O 2403.42 5.63315 5.29344 0
M  V30 13523 C 2402.48 4.80255 6.01876 0
M  V30 13524 C 2403.21 3.64202 6.65911 0
M  V30 13525 O 2403.42 2.60694 5.64732 0
M  V30 13526 C 2404.61 3.93473 7.1943 0
M  V30 13527 O 2405 3.02071 8.21205 0
M  V30 13528 C 2405.49 3.73047 5.97036 0
M  V30 13529 C 2404.78 2.58828 5.25741 0
M  V30 13530 N 2404.83 2.68068 3.77503 0
M  V30 13531 H 2401.99 5.40332 6.79951 0
M  V30 13532 H 2401.72 4.41613 5.32378 0
M  V30 13533 H 2402.58 3.26331 7.47797 0
M  V30 13534 H 2404.86 2.12276 7.9008 0
M  V30 13535 H 2408.89 -5.66378 -7.64073 0
M  V30 13536 O 2408.77 -5.84357 -6.71818 0
M  V30 13537 P 2407.33 -6.144 -6.45285 0
M  V30 13538 O 2407.11 -7.54673 -6.86199 0
M  V30 13539 O 2406.54 -5.12391 -7.179 0
M  V30 13540 O 2407.08 -5.99158 -4.88404 0
M  V30 13541 C 2408.02 -6.60234 -3.96415 0
M  V30 13542 C 2407.29 -7.08259 -2.72856 0
M  V30 13543 O 2407.08 -5.9427 -1.83651 0
M  V30 13544 C 2405.89 -7.64886 -2.9555 0
M  V30 13545 O 2405.5 -8.53963 -1.90717 0
M  V30 13546 C 2405.01 -6.4116 -2.90739 0
M  V30 13547 C 2405.72 -5.55375 -1.86963 0
M  V30 13548 N 2405.67 -4.09448 -2.16152 0
M  V30 13549 H 2408.5 -7.45574 -4.45629 0
M  V30 13550 H 2408.78 -5.85864 -3.679 0
M  V30 13551 H 2407.91 -7.84412 -2.24479 0
M  V30 13552 H 2405.25 -5.73457 -0.888562 0
M  V30 13553 H 2404.97 -5.90877 -3.88583 0
M  V30 13554 H 2403.98 -6.6596 -2.58858 0
M  V30 13555 H 2405.82 -8.16339 -3.92049 0
M  V30 13556 P 2403.95 -8.7635 -1.60911 0
M  V30 13557 O 2403.73 -10.1388 -1.11561 0
M  V30 13558 O 2403.16 -8.36503 -2.79617 0
M  V30 13559 O 2403.7 -7.71806 -0.42951 0
M  V30 13560 C 2404.64 -7.67148 0.673689 0
M  V30 13561 C 2403.91 -7.33374 1.95559 0
M  V30 13562 O 2403.7 -5.88721 2.00726 0
M  V30 13563 C 2402.51 -7.92526 2.10483 0
M  V30 13564 O 2402.12 -8.02971 3.47653 0
M  V30 13565 C 2401.63 -6.89602 1.41652 0
M  V30 13566 C 2402.34 -5.59201 1.75185 0
M  V30 13567 N 2402.29 -4.58301 0.657969 0
M  V30 13568 C 2402.37 -4.79019 -0.692603 0
M  V30 13569 N 2402.3 -3.69736 -1.38998 0
M  V30 13570 C 2402.15 -2.70474 -0.438135 0
M  V30 13571 C 2402.02 -1.30327 -0.538142 0
M  V30 13572 N 2402.01 -0.64304 -1.69192 0
M  V30 13573 N 2401.9 -0.611027 0.605183 0
M  V30 13574 C 2401.91 -1.27002 1.75953 0
M  V30 13575 N 2402.03 -2.56038 1.98546 0
M  V30 13576 C 2402.15 -3.22681 0.822541 0
M  V30 13577 H 2405.12 -8.65116 0.777161 0
M  V30 13578 H 2405.4 -6.9022 0.46725 0
M  V30 13579 H 2404.53 -7.66548 2.79458 0
M  V30 13580 H 2401.87 -5.16165 2.65183 0
M  V30 13581 H 2401.59 -7.06433 0.329384 0
M  V30 13582 H 2400.6 -6.90926 1.82021 0
M  V30 13583 H 2402.44 -8.90873 1.62657 0
M  V30 13584 H 2402.48 -5.77785 -1.13874 0
M  V30 13585 H 2402.1 -1.15585 -2.57991 0
M  V30 13586 H 2401.91 0.382989 -1.69835 0
M  V30 13587 H 2401.8 -0.653331 2.64449 0
M  V30 13588 P 2400.57 -8.03563 3.84925 0
M  V30 13589 O 2400.35 -8.85821 5.0569 0
M  V30 13590 O 2399.78 -8.41101 2.65469 0
M  V30 13591 O 2400.32 -6.4965 4.18908 0
M  V30 13592 C 2401.26 -5.81037 5.05421 0
M  V30 13593 C 2400.53 -4.78366 5.89277 0
M  V30 13594 O 2400.32 -3.58302 5.08433 0
M  V30 13595 C 2399.13 -5.17448 6.36119 0
M  V30 13596 O 2398.74 -4.45271 7.53232 0
M  V30 13597 C 2398.25 -4.74639 5.19936 0
M  V30 13598 C 2398.96 -3.49432 4.70418 0
M  V30 13599 N 2398.91 -3.31776 3.22945 0
M  V30 13600 H 2401.74 -6.54213 5.71376 0
M  V30 13601 H 2402.02 -5.30492 4.44033 0
M  V30 13602 H 2401.15 -4.55889 6.76652 0
M  V30 13603 P 2397.19 -4.23843 7.83734 0
M  V30 13604 O 2396.97 -4.19407 9.29784 0
M  V30 13605 O 2396.4 -5.24426 7.09156 0
M  V30 13606 O 2396.94 -2.7935 7.20758 0
M  V30 13607 C 2397.88 -1.7299 7.50419 0
M  V30 13608 C 2397.15 -0.406376 7.57911 0
M  V30 13609 O 2396.94 0.0897726 6.21935 0
M  V30 13610 C 2395.75 -0.447224 8.1878 0
M  V30 13611 O 2395.36 0.825065 8.71101 0
M  V30 13612 C 2394.87 -0.783801 6.99623 0
M  V30 13613 C 2395.58 -0.0619192 5.85967 0
M  V30 13614 N 2395.53 -0.7859 4.56281 0
M  V30 13615 H 2398.36 -1.93423 8.4679 0
M  V30 13616 H 2398.64 -1.68181 6.71046 0
M  V30 13617 H 2397.77 0.289041 8.15388 0
M  V30 13618 P 2393.81 1.17771 8.83182 0
M  V30 13619 O 2393.59 2.07206 9.98732 0
M  V30 13620 O 2393.02 -0.0743816 8.81969 0
M  V30 13621 O 2393.56 1.97652 7.47304 0
M  V30 13622 C 2394.5 3.01133 7.08783 0
M  V30 13623 C 2393.77 4.12613 6.37049 0
M  V30 13624 O 2393.56 3.72827 4.97879 0
M  V30 13625 C 2392.37 4.45085 6.88694 0
M  V30 13626 O 2391.98 5.7877 6.5624 0
M  V30 13627 C 2391.49 3.47817 6.12078 0
M  V30 13628 C 2392.2 3.39414 4.77697 0
M  V30 13629 N 2392.15 2.04615 4.15333 0
M  V30 13630 H 2394.98 3.41248 7.98759 0
M  V30 13631 H 2395.26 2.5837 6.41742 0
M  V30 13632 H 2394.39 5.02657 6.42673 0
M  V30 13633 P 2390.43 6.144 6.45285 0
M  V30 13634 O 2390.21 7.54673 6.86199 0
M  V30 13635 O 2389.64 5.12391 7.179 0
M  V30 13636 O 2390.18 5.99158 4.88404 0
M  V30 13637 C 2391.12 6.60234 3.96415 0
M  V30 13638 C 2390.39 7.08259 2.72856 0
M  V30 13639 O 2390.18 5.9427 1.83651 0
M  V30 13640 C 2388.99 7.64886 2.9555 0
M  V30 13641 O 2388.6 8.53963 1.90717 0
M  V30 13642 C 2388.11 6.4116 2.90739 0
M  V30 13643 C 2388.82 5.55375 1.86963 0
M  V30 13644 N 2388.77 4.09448 2.16152 0
M  V30 13645 H 2391.6 7.45574 4.45629 0
M  V30 13646 H 2391.88 5.85864 3.679 0
M  V30 13647 H 2391.01 7.84412 2.24479 0
M  V30 13648 H 2388.35 5.73457 0.888562 0
M  V30 13649 H 2388.07 5.90877 3.88583 0
M  V30 13650 H 2387.08 6.6596 2.58858 0
M  V30 13651 H 2388.92 8.16339 3.92049 0
M  V30 13652 P 2387.05 8.7635 1.60911 0
M  V30 13653 O 2386.83 10.1388 1.11561 0
M  V30 13654 O 2386.26 8.36503 2.79617 0
M  V30 13655 O 2386.8 7.71806 0.42951 0
M  V30 13656 C 2387.74 7.66948 -0.673514 0
M  V30 13657 C 2387.01 7.33374 -1.95559 0
M  V30 13658 O 2386.8 5.88721 -2.00726 0
M  V30 13659 C 2385.61 7.92218 -2.1125 0
M  V30 13660 O 2385.22 8.02971 -3.47653 0
M  V30 13661 C 2384.73 6.89504 -1.41631 0
M  V30 13662 C 2385.44 5.59106 -1.75155 0
M  V30 13663 N 2385.39 4.58136 -0.662409 0
M  V30 13664 C 2385.24 3.26059 -1.02863 0
M  V30 13665 O 2385.15 2.90743 -2.19009 0
M  V30 13666 N 2385.2 2.35995 0.0155585 0
M  V30 13667 C 2385.29 2.65248 1.35603 0
M  V30 13668 O 2385.24 1.75605 2.20651 0
M  V30 13669 C 2385.44 4.05747 1.64698 0
M  V30 13670 C 2385.55 4.42345 3.09553 0
M  V30 13671 C 2385.49 4.96734 0.652411 0
M  V30 13672 H 2388.23 8.64917 -0.776982 0
M  V30 13673 H 2388.5 6.89974 -0.474015 0
M  V30 13674 H 2387.63 7.66548 -2.79458 0
M  V30 13675 H 2384.97 5.16076 -2.65138 0
M  V30 13676 H 2384.69 7.06433 -0.329384 0
M  V30 13677 H 2383.7 6.90829 -1.81996 0
M  V30 13678 H 2385.54 8.90774 -1.62639 0
M  V30 13679 H 2385.61 6.02181 0.895285 0
M  V30 13680 H 2384.58 4.80252 3.45468 0
M  V30 13681 H 2386.31 5.20015 3.22119 0
M  V30 13682 H 2385.83 3.53269 3.67833 0
M  V30 13683 H 2385.09 1.39558 -0.227499 0
M  V30 13684 P 2383.67 8.03563 -3.84925 0
M  V30 13685 O 2383.45 8.85821 -5.0569 0
M  V30 13686 O 2382.88 8.41101 -2.65469 0
M  V30 13687 O 2383.42 6.4965 -4.18908 0
M  V30 13688 C 2384.36 5.81037 -5.05421 0
M  V30 13689 C 2383.63 4.78366 -5.89277 0
M  V30 13690 O 2383.42 3.58302 -5.08433 0
M  V30 13691 C 2382.23 5.17448 -6.36119 0
M  V30 13692 O 2381.84 4.45271 -7.53232 0
M  V30 13693 C 2381.35 4.74639 -5.19936 0
M  V30 13694 C 2382.06 3.49432 -4.70418 0
M  V30 13695 N 2382.01 3.31776 -3.22945 0
M  V30 13696 H 2384.84 6.54213 -5.71376 0
M  V30 13697 H 2385.12 5.30492 -4.44033 0
M  V30 13698 H 2384.25 4.55889 -6.76652 0
M  V30 13699 P 2380.29 4.23843 -7.83734 0
M  V30 13700 O 2380.07 4.19407 -9.29784 0
M  V30 13701 O 2379.5 5.24426 -7.09156 0
M  V30 13702 O 2380.04 2.7935 -7.20758 0
M  V30 13703 C 2380.98 1.72945 -7.50224 0
M  V30 13704 C 2380.25 0.406376 -7.57911 0
M  V30 13705 O 2380.04 -0.0897726 -6.21935 0
M  V30 13706 C 2378.85 0.438983 -8.18724 0
M  V30 13707 O 2378.46 -0.825065 -8.71101 0
M  V30 13708 C 2377.97 0.783689 -6.99524 0
M  V30 13709 C 2378.68 0.0619086 -5.85867 0
M  V30 13710 N 2378.63 0.78573 -4.56183 0
M  V30 13711 C 2378.48 0.0292889 -3.41887 0
M  V30 13712 O 2378.39 -1.18445 -3.4419 0
M  V30 13713 N 2378.44 0.744061 -2.23964 0
M  V30 13714 C 2378.53 2.10932 -2.10362 0
M  V30 13715 C 2378.68 2.8202 -3.34994 0
M  V30 13716 C 2378.73 2.15547 -4.52261 0
M  V30 13717 H 2381.47 1.93379 -8.46595 0
M  V30 13718 H 2381.74 1.68132 -6.70852 0
M  V30 13719 H 2380.87 -0.289041 -8.15388 0
M  V30 13720 H 2378.21 -0.926847 -5.72749 0
M  V30 13721 H 2377.93 1.86973 -6.82036 0
M  V30 13722 H 2376.94 0.403896 -7.13257 0
M  V30 13723 H 2378.78 1.20585 -8.97435 0
M  V30 13724 H 2378.85 2.71231 -5.45042 0
M  V30 13725 P 2376.91 -1.17771 -8.83182 0
M  V30 13726 O 2376.69 -2.07206 -9.98732 0
M  V30 13727 O 2376.12 0.0743816 -8.81969 0
M  V30 13728 O 2376.66 -1.97652 -7.47304 0
M  V30 13729 C 2377.6 -3.01133 -7.08783 0
M  V30 13730 C 2376.87 -4.12613 -6.37049 0
M  V30 13731 O 2376.66 -3.72827 -4.97879 0
M  V30 13732 C 2375.47 -4.45085 -6.88694 0
M  V30 13733 O 2375.08 -5.7877 -6.5624 0
M  V30 13734 C 2374.59 -3.47817 -6.12078 0
M  V30 13735 C 2375.3 -3.39414 -4.77697 0
M  V30 13736 N 2375.25 -2.04199 -4.15538 0
M  V30 13737 C 2375.33 -0.821545 -4.76977 0
M  V30 13738 N 2375.26 0.1794 -3.94592 0
M  V30 13739 C 2375.11 -0.419121 -2.70776 0
M  V30 13740 C 2374.98 0.109072 -1.40577 0
M  V30 13741 N 2374.97 1.4104 -1.1344 0
M  V30 13742 N 2374.86 -0.764381 -0.39411 0
M  V30 13743 C 2374.87 -2.06587 -0.664135 0
M  V30 13744 N 2374.99 -2.67948 -1.82153 0
M  V30 13745 C 2375.11 -1.77942 -2.8147 0
M  V30 13746 H 2378.08 -3.41248 -7.98759 0
M  V30 13747 H 2378.36 -2.57728 -6.42 0
M  V30 13748 H 2377.49 -5.02657 -6.42673 0
M  V30 13749 H 2374.83 -4.11708 -4.08956 0
M  V30 13750 H 2374.55 -2.49626 -6.61679 0
M  V30 13751 H 2373.56 -3.8662 -6.00862 0
M  V30 13752 H 2375.4 -4.29991 -7.97006 0
M  V30 13753 H 2375.44 -0.702451 -5.84696 0
M  V30 13754 H 2375.06 2.09647 -1.89651 0
M  V30 13755 H 2374.87 1.73358 -0.160575 0
M  V30 13756 H 2374.76 -2.71695 0.195838 0
M  V30 13757 P 2373.53 -6.144 -6.45285 0
M  V30 13758 O 2373.31 -7.54673 -6.86199 0
M  V30 13759 O 2372.74 -5.12391 -7.179 0
M  V30 13760 O 2373.28 -5.99158 -4.88404 0
M  V30 13761 C 2374.22 -6.60234 -3.96415 0
M  V30 13762 C 2373.49 -7.08259 -2.72856 0
M  V30 13763 O 2373.28 -5.9427 -1.83651 0
M  V30 13764 C 2372.09 -7.64886 -2.9555 0
M  V30 13765 O 2371.7 -8.53963 -1.90717 0
M  V30 13766 C 2371.21 -6.4116 -2.90739 0
M  V30 13767 C 2371.92 -5.55375 -1.86963 0
M  V30 13768 N 2371.87 -4.09448 -2.16152 0
M  V30 13769 H 2374.7 -7.45574 -4.45629 0
M  V30 13770 H 2374.98 -5.85864 -3.679 0
M  V30 13771 H 2374.11 -7.84412 -2.24479 0
M  V30 13772 H 2371.45 -5.73457 -0.888562 0
M  V30 13773 H 2371.17 -5.90877 -3.88583 0
M  V30 13774 H 2370.18 -6.6596 -2.58858 0
M  V30 13775 H 2372.02 -8.16339 -3.92049 0
M  V30 13776 P 2370.15 -8.7635 -1.60911 0
M  V30 13777 O 2369.93 -10.1388 -1.11561 0
M  V30 13778 O 2369.36 -8.36503 -2.79617 0
M  V30 13779 O 2369.9 -7.71806 -0.42951 0
M  V30 13780 C 2370.84 -7.67148 0.673689 0
M  V30 13781 C 2370.11 -7.33374 1.95559 0
M  V30 13782 O 2369.9 -5.88721 2.00726 0
M  V30 13783 C 2368.71 -7.92526 2.10483 0
M  V30 13784 O 2368.32 -8.02971 3.47653 0
M  V30 13785 C 2367.83 -6.89602 1.41652 0
M  V30 13786 C 2368.54 -5.59201 1.75185 0
M  V30 13787 N 2368.49 -4.58235 0.662552 0
M  V30 13788 H 2371.33 -8.65116 0.777161 0
M  V30 13789 H 2371.6 -6.90173 0.474152 0
M  V30 13790 H 2370.73 -7.66548 2.79458 0
M  V30 13791 P 2366.77 -8.03563 3.84925 0
M  V30 13792 O 2366.55 -8.85821 5.0569 0
M  V30 13793 O 2365.98 -8.41101 2.65469 0
M  V30 13794 O 2366.52 -6.4965 4.18908 0
M  V30 13795 C 2367.46 -5.81037 5.05421 0
M  V30 13796 C 2366.73 -4.78366 5.89277 0
M  V30 13797 O 2366.52 -3.58302 5.08433 0
M  V30 13798 C 2365.33 -5.17448 6.36119 0
M  V30 13799 O 2364.94 -4.45271 7.53232 0
M  V30 13800 C 2364.45 -4.74639 5.19936 0
M  V30 13801 C 2365.16 -3.49432 4.70418 0
M  V30 13802 N 2365.11 -3.31776 3.22945 0
M  V30 13803 H 2367.95 -6.54213 5.71376 0
M  V30 13804 H 2368.22 -5.30492 4.44033 0
M  V30 13805 H 2367.35 -4.55889 6.76652 0
M  V30 13806 P 2363.39 -4.23843 7.83734 0
M  V30 13807 O 2363.17 -4.19407 9.29784 0
M  V30 13808 O 2362.6 -5.24426 7.09156 0
M  V30 13809 O 2363.14 -2.7935 7.20758 0
M  V30 13810 C 2364.08 -1.7299 7.50419 0
M  V30 13811 C 2363.35 -0.406376 7.57911 0
M  V30 13812 O 2363.14 0.0897726 6.21935 0
M  V30 13813 C 2361.95 -0.447224 8.1878 0
M  V30 13814 O 2361.56 0.825065 8.71101 0
M  V30 13815 C 2361.07 -0.783801 6.99623 0
M  V30 13816 C 2361.78 -0.0619192 5.85967 0
M  V30 13817 N 2361.73 -0.790462 4.56202 0
M  V30 13818 H 2364.57 -1.93423 8.4679 0
M  V30 13819 H 2364.84 -1.68852 6.70877 0
M  V30 13820 H 2363.97 0.289041 8.15388 0
M  V30 13821 H 2361.31 0.927006 5.72848 0
M  V30 13822 H 2361.03 -1.86973 6.82036 0
M  V30 13823 H 2360.04 -0.403953 7.13357 0
M  V30 13824 H 2361.88 -1.20599 8.97534 0
M  V30 13825 P 2360.01 1.17771 8.83182 0
M  V30 13826 O 2359.79 2.07206 9.98732 0
M  V30 13827 O 2359.22 -0.0743816 8.81969 0
M  V30 13828 O 2359.76 1.97652 7.47304 0
M  V30 13829 C 2360.7 3.01133 7.08783 0
M  V30 13830 C 2359.97 4.12613 6.37049 0
M  V30 13831 O 2359.76 3.72827 4.97879 0
M  V30 13832 C 2358.57 4.45085 6.88694 0
M  V30 13833 O 2358.18 5.7877 6.5624 0
M  V30 13834 C 2357.69 3.47817 6.12078 0
M  V30 13835 C 2358.4 3.39414 4.77697 0
M  V30 13836 N 2358.35 2.04199 4.15538 0
M  V30 13837 H 2361.19 3.41248 7.98759 0
M  V30 13838 H 2361.46 2.57728 6.42 0
M  V30 13839 H 2360.59 5.02657 6.42673 0
M  V30 13840 H 2357.93 4.11708 4.08956 0
M  V30 13841 H 2357.65 2.49626 6.61679 0
M  V30 13842 H 2356.66 3.8662 6.00862 0
M  V30 13843 H 2358.5 4.29991 7.97006 0
M  V30 13844 P 2356.63 6.144 6.45285 0
M  V30 13845 O 2356.41 7.54673 6.86199 0
M  V30 13846 O 2355.84 5.12391 7.179 0
M  V30 13847 O 2356.38 5.99158 4.88404 0
M  V30 13848 C 2357.32 6.60062 3.96313 0
M  V30 13849 C 2356.59 7.08259 2.72856 0
M  V30 13850 O 2356.38 5.9427 1.83651 0
M  V30 13851 C 2355.19 7.65087 2.94749 0
M  V30 13852 O 2354.8 8.53963 1.90717 0
M  V30 13853 C 2354.31 6.41069 2.90698 0
M  V30 13854 C 2355.02 5.5528 1.86931 0
M  V30 13855 N 2354.97 4.09575 2.15696 0
M  V30 13856 C 2354.82 3.24249 1.08435 0
M  V30 13857 O 2354.73 3.63946 -0.0628747 0
M  V30 13858 N 2354.78 1.90009 1.39973 0
M  V30 13859 C 2354.87 1.34884 2.65614 0
M  V30 13860 O 2354.82 0.123716 2.81728 0
M  V30 13861 C 2355.02 2.3145 3.71736 0
M  V30 13862 C 2355.13 1.75913 5.10438 0
M  V30 13863 C 2355.07 3.63518 3.44754 0
M  V30 13864 H 2357.81 7.45402 4.45526 0
M  V30 13865 H 2358.08 5.86062 3.67208 0
M  V30 13866 H 2357.21 7.84412 2.24479 0
M  V30 13867 H 2354.55 5.73358 0.888409 0
M  V30 13868 H 2354.28 5.90877 3.88583 0
M  V30 13869 H 2353.28 6.65867 2.58821 0
M  V30 13870 H 2355.12 8.16248 3.92006 0
M  V30 13871 H 2355.19 4.34551 4.26383 0
M  V30 13872 H 2354.16 1.85471 5.61775 0
M  V30 13873 H 2355.9 2.31364 5.66257 0
M  V30 13874 H 2355.41 0.695936 5.05229 0
M  V30 13875 H 2354.67 1.26277 0.63625 0
M  V30 13876 P 2353.25 8.7635 1.60911 0
M  V30 13877 O 2353.03 10.1388 1.11561 0
M  V30 13878 O 2352.46 8.36503 2.79617 0
M  V30 13879 O 2353 7.71806 0.42951 0
M  V30 13880 C 2353.94 7.67148 -0.673689 0
M  V30 13881 C 2353.21 7.33374 -1.95559 0
M  V30 13882 O 2353 5.88721 -2.00726 0
M  V30 13883 C 2351.81 7.92526 -2.10483 0
M  V30 13884 O 2351.42 8.02971 -3.47653 0
M  V30 13885 C 2350.93 6.89602 -1.41652 0
M  V30 13886 C 2351.64 5.59201 -1.75185 0
M  V30 13887 N 2351.59 4.58235 -0.662552 0
M  V30 13888 H 2354.43 8.65116 -0.777161 0
M  V30 13889 H 2354.7 6.90173 -0.474152 0
M  V30 13890 H 2353.83 7.66548 -2.79458 0
M  V30 13891 P 2349.87 8.03563 -3.84925 0
M  V30 13892 O 2349.65 8.85821 -5.0569 0
M  V30 13893 O 2349.08 8.41101 -2.65469 0
M  V30 13894 O 2349.62 6.4965 -4.18908 0
M  V30 13895 C 2350.56 5.81037 -5.05421 0
M  V30 13896 C 2349.83 4.78366 -5.89277 0
M  V30 13897 O 2349.62 3.58302 -5.08433 0
M  V30 13898 C 2348.43 5.17448 -6.36119 0
M  V30 13899 O 2348.04 4.45271 -7.53232 0
M  V30 13900 C 2347.55 4.74639 -5.19936 0
M  V30 13901 C 2348.26 3.49432 -4.70418 0
M  V30 13902 N 2348.21 3.32099 -3.22613 0
M  V30 13903 H 2351.05 6.54213 -5.71376 0
M  V30 13904 H 2351.32 5.30936 -4.43503 0
M  V30 13905 H 2350.45 4.55889 -6.76652 0
M  V30 13906 H 2347.79 2.61715 -5.17932 0
M  V30 13907 H 2347.51 5.52155 -4.41878 0
M  V30 13908 H 2346.52 4.51981 -5.53374 0
M  V30 13909 H 2348.36 6.25124 -6.55234 0
M  V30 13910 P 2346.49 4.23843 -7.83734 0
M  V30 13911 O 2346.27 4.19407 -9.29784 0
M  V30 13912 O 2345.7 5.24426 -7.09156 0
M  V30 13913 O 2346.24 2.7935 -7.20758 0
M  V30 13914 C 2347.18 1.7299 -7.50419 0
M  V30 13915 C 2346.45 0.406376 -7.57911 0
M  V30 13916 O 2346.24 -0.0897726 -6.21935 0
M  V30 13917 C 2345.05 0.447224 -8.1878 0
M  V30 13918 O 2344.66 -0.825065 -8.71101 0
M  V30 13919 C 2344.17 0.783801 -6.99623 0
M  V30 13920 C 2344.88 0.0619192 -5.85967 0
M  V30 13921 N 2344.83 0.7859 -4.56281 0
M  V30 13922 H 2347.67 1.93423 -8.4679 0
M  V30 13923 H 2347.94 1.68181 -6.71046 0
M  V30 13924 H 2347.07 -0.289041 -8.15388 0
M  V30 13925 P 2343.11 -1.17771 -8.83182 0
M  V30 13926 O 2342.89 -2.07206 -9.98732 0
M  V30 13927 O 2342.32 0.0743816 -8.81969 0
M  V30 13928 O 2342.86 -1.97652 -7.47304 0
M  V30 13929 C 2343.8 -3.01133 -7.08783 0
M  V30 13930 C 2343.07 -4.12613 -6.37049 0
M  V30 13931 O 2342.86 -3.72827 -4.97879 0
M  V30 13932 C 2341.67 -4.45085 -6.88694 0
M  V30 13933 O 2341.28 -5.7877 -6.5624 0
M  V30 13934 C 2340.79 -3.47817 -6.12078 0
M  V30 13935 C 2341.5 -3.39414 -4.77697 0
M  V30 13936 N 2341.45 -2.04199 -4.15538 0
M  V30 13937 H 2344.29 -3.41248 -7.98759 0
M  V30 13938 H 2344.56 -2.57728 -6.42 0
M  V30 13939 H 2343.69 -5.02657 -6.42673 0
M  V30 13940 H 2341.03 -4.11708 -4.08956 0
M  V30 13941 H 2340.75 -2.49626 -6.61679 0
M  V30 13942 H 2339.76 -3.8662 -6.00862 0
M  V30 13943 H 2341.6 -4.29991 -7.97006 0
M  V30 13944 P 2339.73 -6.144 -6.45285 0
M  V30 13945 O 2339.51 -7.54673 -6.86199 0
M  V30 13946 O 2338.94 -5.12391 -7.179 0
M  V30 13947 O 2339.48 -5.99158 -4.88404 0
M  V30 13948 C 2340.42 -6.60234 -3.96415 0
M  V30 13949 C 2339.69 -7.08259 -2.72856 0
M  V30 13950 O 2339.48 -5.9427 -1.83651 0
M  V30 13951 C 2338.29 -7.64886 -2.9555 0
M  V30 13952 O 2337.9 -8.53963 -1.90717 0
M  V30 13953 C 2337.41 -6.4116 -2.90739 0
M  V30 13954 C 2338.12 -5.55375 -1.86963 0
M  V30 13955 N 2338.07 -4.09448 -2.16152 0
M  V30 13956 H 2340.91 -7.45574 -4.45629 0
M  V30 13957 H 2341.18 -5.85864 -3.679 0
M  V30 13958 H 2340.31 -7.84412 -2.24479 0
M  V30 13959 H 2337.65 -5.73457 -0.888562 0
M  V30 13960 H 2337.37 -5.90877 -3.88583 0
M  V30 13961 H 2336.38 -6.6596 -2.58858 0
M  V30 13962 H 2338.22 -8.16339 -3.92049 0
M  V30 13963 P 2336.35 -8.7635 -1.60911 0
M  V30 13964 O 2336.13 -10.1388 -1.11561 0
M  V30 13965 O 2335.56 -8.36503 -2.79617 0
M  V30 13966 O 2336.1 -7.71806 -0.42951 0
M  V30 13967 C 2337.04 -7.67148 0.673689 0
M  V30 13968 C 2336.31 -7.33374 1.95559 0
M  V30 13969 O 2336.1 -5.88721 2.00726 0
M  V30 13970 C 2334.91 -7.92526 2.10483 0
M  V30 13971 O 2334.52 -8.02971 3.47653 0
M  V30 13972 C 2334.03 -6.89602 1.41652 0
M  V30 13973 C 2334.74 -5.59201 1.75185 0
M  V30 13974 N 2334.69 -4.58235 0.662552 0
M  V30 13975 H 2337.53 -8.65116 0.777161 0
M  V30 13976 H 2337.8 -6.90173 0.474152 0
M  V30 13977 H 2336.93 -7.66548 2.79458 0
M  V30 13978 P 2332.97 -8.03563 3.84925 0
M  V30 13979 O 2332.75 -8.85821 5.0569 0
M  V30 13980 O 2332.18 -8.41101 2.65469 0
M  V30 13981 O 2332.72 -6.4965 4.18908 0
M  V30 13982 C 2333.66 -5.81037 5.05421 0
M  V30 13983 C 2332.93 -4.78366 5.89277 0
M  V30 13984 O 2332.72 -3.58302 5.08433 0
M  V30 13985 C 2331.53 -5.17448 6.36119 0
M  V30 13986 O 2331.14 -4.45271 7.53232 0
M  V30 13987 C 2330.65 -4.74639 5.19936 0
M  V30 13988 C 2331.36 -3.49432 4.70418 0
M  V30 13989 N 2331.31 -3.31776 3.22945 0
M  V30 13990 H 2334.15 -6.54213 5.71376 0
M  V30 13991 H 2334.42 -5.30492 4.44033 0
M  V30 13992 H 2333.55 -4.55889 6.76652 0
M  V30 13993 P 2329.59 -4.23843 7.83734 0
M  V30 13994 O 2329.37 -4.19407 9.29784 0
M  V30 13995 O 2328.8 -5.24426 7.09156 0
M  V30 13996 O 2329.34 -2.7935 7.20758 0
M  V30 13997 C 2330.28 -1.7299 7.50419 0
M  V30 13998 C 2329.55 -0.406376 7.57911 0
M  V30 13999 O 2329.34 0.0897726 6.21935 0
M  V30 14000 C 2328.15 -0.447224 8.1878 0
M  V30 14001 O 2327.76 0.825065 8.71101 0
M  V30 14002 C 2327.27 -0.783801 6.99623 0
M  V30 14003 C 2327.98 -0.0619192 5.85967 0
M  V30 14004 N 2327.93 -0.790462 4.56202 0
M  V30 14005 H 2330.77 -1.93423 8.4679 0
M  V30 14006 H 2331.04 -1.68852 6.70877 0
M  V30 14007 H 2330.17 0.289041 8.15388 0
M  V30 14008 H 2327.51 0.927006 5.72848 0
M  V30 14009 H 2327.23 -1.86973 6.82036 0
M  V30 14010 H 2326.24 -0.403953 7.13357 0
M  V30 14011 H 2328.08 -1.20599 8.97534 0
M  V30 14012 P 2326.21 1.17771 8.83182 0
M  V30 14013 O 2325.99 2.07206 9.98732 0
M  V30 14014 O 2325.42 -0.0743816 8.81969 0
M  V30 14015 O 2325.96 1.97652 7.47304 0
M  V30 14016 C 2326.9 3.01133 7.08783 0
M  V30 14017 C 2326.17 4.12613 6.37049 0
M  V30 14018 O 2325.96 3.72827 4.97879 0
M  V30 14019 C 2324.77 4.45085 6.88694 0
M  V30 14020 O 2324.38 5.7877 6.5624 0
M  V30 14021 C 2323.89 3.47817 6.12078 0
M  V30 14022 C 2324.6 3.39414 4.77697 0
M  V30 14023 N 2324.55 2.04615 4.15333 0
M  V30 14024 H 2327.39 3.41248 7.98759 0
M  V30 14025 H 2327.66 2.5837 6.41742 0
M  V30 14026 H 2326.79 5.02657 6.42673 0
M  V30 14027 P 2322.83 6.144 6.45285 0
M  V30 14028 O 2322.61 7.54673 6.86199 0
M  V30 14029 O 2322.04 5.12391 7.179 0
M  V30 14030 O 2322.58 5.99158 4.88404 0
M  V30 14031 C 2323.52 6.60234 3.96415 0
M  V30 14032 C 2322.79 7.08259 2.72856 0
M  V30 14033 O 2322.58 5.9427 1.83651 0
M  V30 14034 C 2321.39 7.64886 2.9555 0
M  V30 14035 O 2321 8.53963 1.90717 0
M  V30 14036 C 2320.51 6.4116 2.90739 0
M  V30 14037 C 2321.22 5.55375 1.86963 0
M  V30 14038 N 2321.17 4.09664 2.15742 0
M  V30 14039 C 2321.25 3.44381 3.37233 0
M  V30 14040 N 2321.17 2.14131 3.28347 0
M  V30 14041 C 2321.03 1.90247 1.91588 0
M  V30 14042 C 2320.9 0.683992 1.20892 0
M  V30 14043 N 2320.78 0.903396 -0.173998 0
M  V30 14044 C 2320.78 2.14171 -0.784879 0
M  V30 14045 N 2320.65 2.1435 -2.11317 0
M  V30 14046 N 2320.91 3.28784 -0.119316 0
M  V30 14047 C 2321.03 3.0977 1.22194 0
M  V30 14048 H 2324.01 7.45574 4.45629 0
M  V30 14049 H 2324.28 5.86232 3.67314 0
M  V30 14050 H 2323.41 7.84412 2.24479 0
M  V30 14051 P 2319.45 8.7635 1.60911 0
M  V30 14052 O 2319.23 10.1388 1.11561 0
M  V30 14053 O 2318.66 8.36503 2.79617 0
M  V30 14054 O 2319.2 7.71806 0.42951 0
M  V30 14055 C 2320.14 7.67148 -0.673689 0
M  V30 14056 C 2319.41 7.33374 -1.95559 0
M  V30 14057 O 2319.2 5.88721 -2.00726 0
M  V30 14058 C 2318.01 7.92526 -2.10483 0
M  V30 14059 O 2317.62 8.02971 -3.47653 0
M  V30 14060 C 2317.13 6.89602 -1.41652 0
M  V30 14061 C 2317.84 5.59201 -1.75185 0
M  V30 14062 N 2317.79 4.58235 -0.662552 0
M  V30 14063 H 2320.63 8.65116 -0.777161 0
M  V30 14064 H 2320.9 6.90173 -0.474152 0
M  V30 14065 H 2320.03 7.66548 -2.79458 0
M  V30 14066 P 2316.07 8.03563 -3.84925 0
M  V30 14067 O 2315.85 8.85821 -5.0569 0
M  V30 14068 O 2315.28 8.41101 -2.65469 0
M  V30 14069 O 2315.82 6.4965 -4.18908 0
M  V30 14070 C 2316.76 5.80886 -5.05289 0
M  V30 14071 C 2316.03 4.78366 -5.89277 0
M  V30 14072 O 2315.82 3.58302 -5.08433 0
M  V30 14073 C 2314.63 5.16748 -6.36559 0
M  V30 14074 O 2314.24 4.45271 -7.53232 0
M  V30 14075 C 2313.75 4.74572 -5.19863 0
M  V30 14076 C 2314.46 3.49373 -4.70338 0
M  V30 14077 N 2314.41 3.31704 -3.22876 0
M  V30 14078 C 2314.26 2.03326 -2.74871 0
M  V30 14079 O 2314.17 1.06486 -3.48076 0
M  V30 14080 N 2314.22 1.91838 -1.37456 0
M  V30 14081 C 2314.31 2.94295 -0.462035 0
M  V30 14082 O 2314.26 2.71763 0.752928 0
M  V30 14083 C 2314.46 4.25064 -1.05249 0
M  V30 14084 C 2314.57 5.39815 -0.095697 0
M  V30 14085 C 2314.51 4.40214 -2.39192 0
M  V30 14086 H 2317.25 6.54063 -5.71245 0
M  V30 14087 H 2317.52 5.30339 -4.43905 0
M  V30 14088 H 2316.65 4.55889 -6.76652 0
M  V30 14089 H 2313.99 2.6167 -5.17842 0
M  V30 14090 H 2313.72 5.52155 -4.41878 0
M  V30 14091 H 2312.72 4.51918 -5.53297 0
M  V30 14092 H 2314.56 6.25055 -6.55162 0
M  V30 14093 H 2314.63 5.39798 -2.81523 0
M  V30 14094 H 2313.6 5.91593 -0.0279582 0
M  V30 14095 H 2315.34 6.10038 -0.450573 0
M  V30 14096 H 2314.85 5.02007 0.89937 0
M  V30 14097 H 2314.11 0.995326 -1.00435 0
M  V30 14098 P 2312.69 4.23843 -7.83734 0
M  V30 14099 O 2312.47 4.19407 -9.29784 0
M  V30 14100 O 2311.9 5.24426 -7.09156 0
M  V30 14101 O 2312.44 2.7935 -7.20758 0
M  V30 14102 C 2313.38 1.7299 -7.50419 0
M  V30 14103 C 2312.65 0.406376 -7.57911 0
M  V30 14104 O 2312.44 -0.0897726 -6.21935 0
M  V30 14105 C 2311.25 0.447224 -8.1878 0
M  V30 14106 O 2310.86 -0.825065 -8.71101 0
M  V30 14107 C 2310.37 0.783801 -6.99623 0
M  V30 14108 C 2311.08 0.0619192 -5.85967 0
M  V30 14109 N 2311.03 0.7859 -4.56281 0
M  V30 14110 H 2313.87 1.93423 -8.4679 0
M  V30 14111 H 2314.14 1.68181 -6.71046 0
M  V30 14112 H 2313.27 -0.289041 -8.15388 0
M  V30 14113 P 2309.31 -1.17771 -8.83182 0
M  V30 14114 O 2309.09 -2.07206 -9.98732 0
M  V30 14115 O 2308.52 0.0743816 -8.81969 0
M  V30 14116 O 2309.06 -1.97652 -7.47304 0
M  V30 14117 C 2310 -3.01133 -7.08783 0
M  V30 14118 C 2309.27 -4.12613 -6.37049 0
M  V30 14119 O 2309.06 -3.72827 -4.97879 0
M  V30 14120 C 2307.87 -4.45085 -6.88694 0
M  V30 14121 O 2307.48 -5.7877 -6.5624 0
M  V30 14122 C 2306.99 -3.47817 -6.12078 0
M  V30 14123 C 2307.7 -3.39414 -4.77697 0
M  V30 14124 N 2307.65 -2.04615 -4.15333 0
M  V30 14125 C 2307.73 -0.803897 -4.75249 0
M  V30 14126 N 2307.65 0.197615 -3.91502 0
M  V30 14127 C 2307.51 -0.413002 -2.66823 0
M  V30 14128 C 2307.38 0.157221 -1.38007 0
M  V30 14129 O 2307.36 1.34419 -1.057 0
M  V30 14130 N 2307.26 -0.833136 -0.390236 0
M  V30 14131 C 2307.26 -2.19402 -0.623885 0
M  V30 14132 N 2307.13 -2.97622 0.449677 0
M  V30 14133 N 2307.39 -2.73005 -1.83601 0
M  V30 14134 C 2307.51 -1.78786 -2.80935 0
M  V30 14135 H 2310.49 -3.41248 -7.98759 0
M  V30 14136 H 2310.76 -2.5837 -6.41742 0
M  V30 14137 H 2309.89 -5.02657 -6.42673 0
M  V30 14138 H 2307.23 -4.11779 -4.09026 0
M  V30 14139 H 2306.95 -2.49661 -6.61772 0
M  V30 14140 H 2305.96 -3.86674 -6.00946 0
M  V30 14141 H 2307.8 -4.30038 -7.97094 0
M  V30 14142 H 2307.85 -0.670579 -5.82754 0
M  V30 14143 H 2307.16 -0.528446 0.557287 0
M  V30 14144 H 2307.13 -4.00117 0.344773 0
M  V30 14145 H 2307.03 -2.55448 1.38544 0
M  V30 14146 P 2305.93 -6.144 -6.45285 0
M  V30 14147 O 2305.71 -7.54673 -6.86199 0
M  V30 14148 O 2305.14 -5.12391 -7.179 0
M  V30 14149 O 2305.68 -5.99158 -4.88404 0
M  V30 14150 C 2306.62 -6.60234 -3.96415 0
M  V30 14151 C 2305.89 -7.08259 -2.72856 0
M  V30 14152 O 2305.68 -5.9427 -1.83651 0
M  V30 14153 C 2304.49 -7.64886 -2.9555 0
M  V30 14154 O 2304.1 -8.53963 -1.90717 0
M  V30 14155 C 2303.61 -6.4116 -2.90739 0
M  V30 14156 C 2304.32 -5.55375 -1.86963 0
M  V30 14157 N 2304.27 -4.09448 -2.16152 0
M  V30 14158 H 2307.11 -7.45574 -4.45629 0
M  V30 14159 H 2307.38 -5.85864 -3.679 0
M  V30 14160 H 2306.51 -7.84412 -2.24479 0
M  V30 14161 H 2303.85 -5.73457 -0.888562 0
M  V30 14162 H 2303.57 -5.90877 -3.88583 0
M  V30 14163 H 2302.58 -6.6596 -2.58858 0
M  V30 14164 H 2304.42 -8.16339 -3.92049 0
M  V30 14165 P 2302.55 -8.7635 -1.60911 0
M  V30 14166 O 2302.33 -10.1388 -1.11561 0
M  V30 14167 O 2301.76 -8.36503 -2.79617 0
M  V30 14168 O 2302.3 -7.71806 -0.42951 0
M  V30 14169 C 2303.24 -7.67148 0.673689 0
M  V30 14170 C 2302.51 -7.33374 1.95559 0
M  V30 14171 O 2302.3 -5.88721 2.00726 0
M  V30 14172 C 2301.11 -7.92526 2.10483 0
M  V30 14173 O 2300.72 -8.02971 3.47653 0
M  V30 14174 C 2300.23 -6.89602 1.41652 0
M  V30 14175 C 2300.94 -5.59201 1.75185 0
M  V30 14176 N 2300.89 -4.58235 0.662552 0
M  V30 14177 H 2303.73 -8.65116 0.777161 0
M  V30 14178 H 2304 -6.90173 0.474152 0
M  V30 14179 H 2303.13 -7.66548 2.79458 0
M  V30 14180 P 2299.17 -8.03563 3.84925 0
M  V30 14181 O 2298.95 -8.85821 5.0569 0
M  V30 14182 O 2298.38 -8.41101 2.65469 0
M  V30 14183 O 2298.92 -6.4965 4.18908 0
M  V30 14184 C 2299.86 -5.81037 5.05421 0
M  V30 14185 C 2299.13 -4.78366 5.89277 0
M  V30 14186 O 2298.92 -3.58302 5.08433 0
M  V30 14187 C 2297.73 -5.17448 6.36119 0
M  V30 14188 O 2297.34 -4.45271 7.53232 0
M  V30 14189 C 2296.85 -4.74639 5.19936 0
M  V30 14190 C 2297.56 -3.49432 4.70418 0
M  V30 14191 N 2297.51 -3.31776 3.22945 0
M  V30 14192 H 2300.35 -6.54213 5.71376 0
M  V30 14193 H 2300.62 -5.30492 4.44033 0
M  V30 14194 H 2299.75 -4.55889 6.76652 0
M  V30 14195 P 2295.79 -4.23843 7.83734 0
M  V30 14196 O 2295.57 -4.19407 9.29784 0
M  V30 14197 O 2295 -5.24426 7.09156 0
M  V30 14198 O 2295.54 -2.7935 7.20758 0
M  V30 14199 C 2296.48 -1.7299 7.50419 0
M  V30 14200 C 2295.75 -0.406376 7.57911 0
M  V30 14201 O 2295.54 0.0897726 6.21935 0
M  V30 14202 C 2294.35 -0.447224 8.1878 0
M  V30 14203 O 2293.96 0.825065 8.71101 0
M  V30 14204 C 2293.47 -0.783801 6.99623 0
M  V30 14205 C 2294.18 -0.0619192 5.85967 0
M  V30 14206 N 2294.13 -0.7859 4.56281 0
M  V30 14207 H 2296.97 -1.93423 8.4679 0
M  V30 14208 H 2297.24 -1.68181 6.71046 0
M  V30 14209 H 2296.37 0.289041 8.15388 0
M  V30 14210 P 2292.41 1.17771 8.83182 0
M  V30 14211 O 2292.19 2.07206 9.98732 0
M  V30 14212 O 2291.62 -0.0743816 8.81969 0
M  V30 14213 O 2292.16 1.97652 7.47304 0
M  V30 14214 C 2293.1 3.01133 7.08783 0
M  V30 14215 C 2292.37 4.12613 6.37049 0
M  V30 14216 O 2292.16 3.72827 4.97879 0
M  V30 14217 C 2290.97 4.45085 6.88694 0
M  V30 14218 O 2290.58 5.7877 6.5624 0
M  V30 14219 C 2290.09 3.47817 6.12078 0
M  V30 14220 C 2290.8 3.39414 4.77697 0
M  V30 14221 N 2290.75 2.04615 4.15333 0
M  V30 14222 C 2290.83 0.803897 4.75249 0
M  V30 14223 N 2290.75 -0.197615 3.91502 0
M  V30 14224 C 2290.61 0.413002 2.66823 0
M  V30 14225 C 2290.48 -0.157221 1.38007 0
M  V30 14226 N 2290.36 0.833136 0.390236 0
M  V30 14227 C 2290.36 2.19402 0.623885 0
M  V30 14228 N 2290.23 2.97622 -0.449677 0
M  V30 14229 N 2290.49 2.73005 1.83601 0
M  V30 14230 C 2290.61 1.78786 2.80935 0
M  V30 14231 H 2293.59 3.41248 7.98759 0
M  V30 14232 H 2293.86 2.5837 6.41742 0
M  V30 14233 H 2292.99 5.02657 6.42673 0
M  V30 14234 P 2289.03 6.144 6.45285 0
M  V30 14235 O 2288.81 7.54673 6.86199 0
M  V30 14236 O 2288.24 5.12391 7.179 0
M  V30 14237 O 2288.78 5.99158 4.88404 0
M  V30 14238 C 2289.72 6.60234 3.96415 0
M  V30 14239 C 2288.99 7.08259 2.72856 0
M  V30 14240 O 2288.78 5.9427 1.83651 0
M  V30 14241 C 2287.59 7.64886 2.9555 0
M  V30 14242 O 2287.2 8.53963 1.90717 0
M  V30 14243 C 2286.71 6.4116 2.90739 0
M  V30 14244 C 2287.42 5.55375 1.86963 0
M  V30 14245 N 2287.37 4.09448 2.16152 0
M  V30 14246 C 2287.45 3.46824 3.37593 0
M  V30 14247 N 2287.38 2.17422 3.29777 0
M  V30 14248 C 2287.23 1.93065 1.94427 0
M  V30 14249 C 2287.1 0.738053 1.20141 0
M  V30 14250 N 2287.09 -0.474256 1.74676 0
M  V30 14251 N 2286.98 0.850049 -0.13045 0
M  V30 14252 C 2286.99 2.06169 -0.676992 0
M  V30 14253 N 2287.11 3.23842 -0.101312 0
M  V30 14254 C 2287.23 3.09402 1.23122 0
M  V30 14255 H 2290.21 7.45574 4.45629 0
M  V30 14256 H 2290.48 5.85864 3.679 0
M  V30 14257 H 2289.61 7.84412 2.24479 0
M  V30 14258 H 2286.95 5.73457 0.888562 0
M  V30 14259 H 2286.67 5.90877 3.88583 0
M  V30 14260 H 2285.68 6.6596 2.58858 0
M  V30 14261 H 2287.52 8.16339 3.92049 0
M  V30 14262 H 2287.56 4.00505 4.3174 0
M  V30 14263 H 2287.18 -0.581337 2.76658 0
M  V30 14264 H 2286.99 -1.30811 1.14888 0
M  V30 14265 H 2286.88 2.08295 -1.75542 0
M  V30 14266 P 2285.65 8.7635 1.60911 0
M  V30 14267 O 2285.43 10.1388 1.11561 0
M  V30 14268 O 2284.86 8.36503 2.79617 0
M  V30 14269 O 2285.4 7.71806 0.42951 0
M  V30 14270 C 2286.34 7.66948 -0.673514 0
M  V30 14271 C 2285.61 7.33374 -1.95559 0
M  V30 14272 O 2285.4 5.88721 -2.00726 0
M  V30 14273 C 2284.21 7.92218 -2.1125 0
M  V30 14274 O 2283.82 8.02971 -3.47653 0
M  V30 14275 C 2283.33 6.89504 -1.41631 0
M  V30 14276 C 2284.04 5.59106 -1.75155 0
M  V30 14277 N 2283.99 4.58136 -0.662409 0
M  V30 14278 C 2283.84 3.26059 -1.02863 0
M  V30 14279 O 2283.75 2.90743 -2.19009 0
M  V30 14280 N 2283.8 2.35995 0.0155585 0
M  V30 14281 C 2283.89 2.65248 1.35603 0
M  V30 14282 O 2283.84 1.75605 2.20651 0
M  V30 14283 C 2284.04 4.05747 1.64698 0
M  V30 14284 C 2284.15 4.42345 3.09553 0
M  V30 14285 C 2284.09 4.96734 0.652411 0
M  V30 14286 H 2286.83 8.64917 -0.776982 0
M  V30 14287 H 2287.1 6.89974 -0.474015 0
M  V30 14288 H 2286.23 7.66548 -2.79458 0
M  V30 14289 H 2283.57 5.16076 -2.65138 0
M  V30 14290 H 2283.3 7.06433 -0.329384 0
M  V30 14291 H 2282.3 6.90829 -1.81996 0
M  V30 14292 H 2284.14 8.90774 -1.62639 0
M  V30 14293 H 2284.21 6.02181 0.895285 0
M  V30 14294 H 2283.18 4.80252 3.45468 0
M  V30 14295 H 2284.92 5.20015 3.22119 0
M  V30 14296 H 2284.43 3.53269 3.67833 0
M  V30 14297 H 2283.69 1.39558 -0.227499 0
M  V30 14298 P 2282.27 8.03563 -3.84925 0
M  V30 14299 O 2282.05 8.85821 -5.0569 0
M  V30 14300 O 2281.48 8.41101 -2.65469 0
M  V30 14301 O 2282.02 6.4965 -4.18908 0
M  V30 14302 C 2282.96 5.81037 -5.05421 0
M  V30 14303 C 2282.23 4.78366 -5.89277 0
M  V30 14304 O 2282.02 3.58302 -5.08433 0
M  V30 14305 C 2280.83 5.17448 -6.36119 0
M  V30 14306 O 2280.44 4.45271 -7.53232 0
M  V30 14307 C 2279.95 4.74639 -5.19936 0
M  V30 14308 C 2280.66 3.49432 -4.70418 0
M  V30 14309 N 2280.61 3.31776 -3.22945 0
M  V30 14310 H 2283.45 6.54213 -5.71376 0
M  V30 14311 H 2283.72 5.30492 -4.44033 0
M  V30 14312 H 2282.85 4.55889 -6.76652 0
M  V30 14313 P 2278.89 4.23843 -7.83734 0
M  V30 14314 O 2278.67 4.19407 -9.29784 0
M  V30 14315 O 2278.1 5.24426 -7.09156 0
M  V30 14316 O 2278.64 2.7935 -7.20758 0
M  V30 14317 C 2279.58 1.7299 -7.50419 0
M  V30 14318 C 2278.85 0.406376 -7.57911 0
M  V30 14319 O 2278.64 -0.0897726 -6.21935 0
M  V30 14320 C 2277.45 0.447224 -8.1878 0
M  V30 14321 O 2277.06 -0.825065 -8.71101 0
M  V30 14322 C 2276.57 0.783801 -6.99623 0
M  V30 14323 C 2277.28 0.0619192 -5.85967 0
M  V30 14324 N 2277.23 0.7859 -4.56281 0
M  V30 14325 H 2280.07 1.93423 -8.4679 0
M  V30 14326 H 2280.34 1.68181 -6.71046 0
M  V30 14327 H 2279.47 -0.289041 -8.15388 0
M  V30 14328 P 2275.51 -1.17771 -8.83182 0
M  V30 14329 O 2275.29 -2.07206 -9.98732 0
M  V30 14330 O 2274.72 0.0743816 -8.81969 0
M  V30 14331 O 2275.26 -1.97652 -7.47304 0
M  V30 14332 C 2276.2 -3.01133 -7.08783 0
M  V30 14333 C 2275.47 -4.12613 -6.37049 0
M  V30 14334 O 2275.26 -3.72827 -4.97879 0
M  V30 14335 C 2274.07 -4.45085 -6.88694 0
M  V30 14336 O 2273.68 -5.7877 -6.5624 0
M  V30 14337 C 2273.19 -3.47817 -6.12078 0
M  V30 14338 C 2273.9 -3.39414 -4.77697 0
M  V30 14339 N 2273.85 -2.04615 -4.15333 0
M  V30 14340 H 2276.69 -3.41248 -7.98759 0
M  V30 14341 H 2276.96 -2.5837 -6.41742 0
M  V30 14342 H 2276.09 -5.02657 -6.42673 0
M  V30 14343 P 2272.13 -6.144 -6.45285 0
M  V30 14344 O 2271.91 -7.54673 -6.86199 0
M  V30 14345 O 2271.34 -5.12391 -7.179 0
M  V30 14346 O 2271.88 -5.99158 -4.88404 0
M  V30 14347 C 2272.82 -6.60234 -3.96415 0
M  V30 14348 C 2272.09 -7.08259 -2.72856 0
M  V30 14349 O 2271.88 -5.9427 -1.83651 0
M  V30 14350 C 2270.69 -7.64886 -2.9555 0
M  V30 14351 O 2270.3 -8.53963 -1.90717 0
M  V30 14352 C 2269.81 -6.4116 -2.90739 0
M  V30 14353 C 2270.52 -5.55375 -1.86963 0
M  V30 14354 N 2270.47 -4.09664 -2.15742 0
M  V30 14355 H 2273.31 -7.45574 -4.45629 0
M  V30 14356 H 2273.58 -5.86232 -3.67314 0
M  V30 14357 H 2272.71 -7.84412 -2.24479 0
M  V30 14358 P 2268.75 -8.7635 -1.60911 0
M  V30 14359 O 2268.53 -10.1388 -1.11561 0
M  V30 14360 O 2267.96 -8.36503 -2.79617 0
M  V30 14361 O 2268.5 -7.71806 -0.42951 0
M  V30 14362 C 2269.44 -7.67148 0.673689 0
M  V30 14363 C 2268.71 -7.33374 1.95559 0
M  V30 14364 O 2268.5 -5.88721 2.00726 0
M  V30 14365 C 2267.31 -7.92526 2.10483 0
M  V30 14366 O 2266.92 -8.02971 3.47653 0
M  V30 14367 C 2266.43 -6.89602 1.41652 0
M  V30 14368 C 2267.14 -5.59201 1.75185 0
M  V30 14369 N 2267.09 -4.58235 0.662552 0
M  V30 14370 C 2267.17 -4.7683 -0.704049 0
M  V30 14371 N 2267.09 -3.66233 -1.39775 0
M  V30 14372 C 2266.95 -2.66526 -0.431739 0
M  V30 14373 C 2266.82 -1.26394 -0.575992 0
M  V30 14374 N 2266.7 -0.62859 0.67177 0
M  V30 14375 C 2266.7 -1.27134 1.89385 0
M  V30 14376 N 2266.57 -0.492035 2.96951 0
M  V30 14377 N 2266.83 -2.58978 2.02907 0
M  V30 14378 C 2266.95 -3.22433 0.832218 0
M  V30 14379 H 2269.93 -8.65116 0.777161 0
M  V30 14380 H 2270.2 -6.90173 0.474152 0
M  V30 14381 H 2269.33 -7.66548 2.79458 0
M  V30 14382 P 2265.37 -8.03563 3.84925 0
M  V30 14383 O 2265.15 -8.85821 5.0569 0
M  V30 14384 O 2264.58 -8.41101 2.65469 0
M  V30 14385 O 2265.12 -6.4965 4.18908 0
M  V30 14386 C 2266.06 -5.81037 5.05421 0
M  V30 14387 C 2265.33 -4.78366 5.89277 0
M  V30 14388 O 2265.12 -3.58302 5.08433 0
M  V30 14389 C 2263.93 -5.17448 6.36119 0
M  V30 14390 O 2263.54 -4.45271 7.53232 0
M  V30 14391 C 2263.05 -4.74639 5.19936 0
M  V30 14392 C 2263.76 -3.49432 4.70418 0
M  V30 14393 N 2263.71 -3.31776 3.22945 0
M  V30 14394 H 2266.55 -6.54213 5.71376 0
M  V30 14395 H 2266.82 -5.30492 4.44033 0
M  V30 14396 H 2265.95 -4.55889 6.76652 0
M  V30 14397 P 2261.99 -4.23843 7.83734 0
M  V30 14398 O 2261.77 -4.19407 9.29784 0
M  V30 14399 O 2261.2 -5.24426 7.09156 0
M  V30 14400 O 2261.74 -2.7935 7.20758 0
M  V30 14401 C 2262.68 -1.7299 7.50419 0
M  V30 14402 C 2261.95 -0.406376 7.57911 0
M  V30 14403 O 2261.74 0.0897726 6.21935 0
M  V30 14404 C 2260.55 -0.447224 8.1878 0
M  V30 14405 O 2260.16 0.825065 8.71101 0
M  V30 14406 C 2259.67 -0.783801 6.99623 0
M  V30 14407 C 2260.38 -0.0619192 5.85967 0
M  V30 14408 N 2260.33 -0.7859 4.56281 0
M  V30 14409 H 2263.17 -1.93423 8.4679 0
M  V30 14410 H 2263.44 -1.68181 6.71046 0
M  V30 14411 H 2262.57 0.289041 8.15388 0
M  V30 14412 P 2258.61 1.17771 8.83182 0
M  V30 14413 O 2258.39 2.07206 9.98732 0
M  V30 14414 O 2257.82 -0.0743816 8.81969 0
M  V30 14415 O 2258.36 1.97678 7.474 0
M  V30 14416 C 2259.3 3.01133 7.08783 0
M  V30 14417 C 2258.57 4.1203 6.37546 0
M  V30 14418 O 2258.36 3.72887 4.9796 0
M  V30 14419 C 2257.17 4.45085 6.88694 0
M  V30 14420 O 2256.78 5.78836 6.56315 0
M  V30 14421 C 2256.29 3.47817 6.12078 0
M  V30 14422 C 2257 3.39414 4.77697 0
M  V30 14423 N 2256.95 2.04615 4.15333 0
M  V30 14424 C 2256.8 1.96929 2.77162 0
M  V30 14425 O 2256.71 3.02017 2.12006 0
M  V30 14426 N 2256.75 0.55485 2.24237 0
M  V30 14427 C 2256.85 -0.367808 2.9169 0
M  V30 14428 N 2256.8 -1.53426 2.29427 0
M  V30 14429 C 2257 -0.319148 4.33828 0
M  V30 14430 C 2257.05 0.920672 4.90433 0
M  V30 14431 H 2259.79 3.41209 7.98667 0
M  V30 14432 H 2260.06 2.5837 6.41742 0
M  V30 14433 H 2259.19 5.02718 6.42752 0
M  V30 14434 H 2256.53 4.11779 4.09026 0
M  V30 14435 H 2256.25 2.49661 6.61772 0
M  V30 14436 H 2255.26 3.86674 6.00946 0
M  V30 14437 H 2257.1 4.29991 7.97006 0
M  V30 14438 H 2257.17 1.00589 5.98303 0
M  V30 14439 H 2257.07 -1.22639 4.93799 0
M  V30 14440 H 2256.68 -1.56819 1.27167 0
M  V30 14441 H 2256.88 -2.41062 2.83063 0
M  V30 14442 P 2255.23 6.144 6.45285 0
M  V30 14443 O 2255.01 7.54673 6.86199 0
M  V30 14444 O 2254.44 5.12391 7.179 0
M  V30 14445 O 2254.98 5.99158 4.88404 0
M  V30 14446 C 2255.92 6.60234 3.96415 0
M  V30 14447 C 2255.19 7.08259 2.72856 0
M  V30 14448 O 2254.98 5.9427 1.83651 0
M  V30 14449 C 2253.79 7.64886 2.9555 0
M  V30 14450 O 2253.4 8.53963 1.90717 0
M  V30 14451 C 2252.91 6.4116 2.90739 0
M  V30 14452 C 2253.62 5.55375 1.86963 0
M  V30 14453 N 2253.57 4.09664 2.15742 0
M  V30 14454 H 2256.41 7.45574 4.45629 0
M  V30 14455 H 2256.68 5.86232 3.67314 0
M  V30 14456 H 2255.81 7.84412 2.24479 0
M  V30 14457 P 2251.85 8.7635 1.60911 0
M  V30 14458 O 2251.63 10.1388 1.11561 0
M  V30 14459 O 2251.06 8.36503 2.79617 0
M  V30 14460 O 2251.6 7.71806 0.42951 0
M  V30 14461 C 2252.54 7.67148 -0.673689 0
M  V30 14462 C 2251.81 7.33374 -1.95559 0
M  V30 14463 O 2251.6 5.88721 -2.00726 0
M  V30 14464 C 2250.41 7.92526 -2.10483 0
M  V30 14465 O 2250.02 8.02971 -3.47653 0
M  V30 14466 C 2249.53 6.89602 -1.41652 0
M  V30 14467 C 2250.24 5.59201 -1.75185 0
M  V30 14468 N 2250.19 4.58235 -0.662552 0
M  V30 14469 H 2253.03 8.65116 -0.777161 0
M  V30 14470 H 2253.3 6.90173 -0.474152 0
M  V30 14471 H 2252.43 7.66548 -2.79458 0
M  V30 14472 P 2248.47 8.03563 -3.84925 0
M  V30 14473 O 2248.25 8.85821 -5.0569 0
M  V30 14474 O 2247.68 8.41101 -2.65469 0
M  V30 14475 O 2248.22 6.4965 -4.18908 0
M  V30 14476 C 2249.16 5.81037 -5.05421 0
M  V30 14477 C 2248.43 4.78366 -5.89277 0
M  V30 14478 O 2248.22 3.58302 -5.08433 0
M  V30 14479 C 2247.03 5.17448 -6.36119 0
M  V30 14480 O 2246.64 4.45271 -7.53232 0
M  V30 14481 C 2246.15 4.74639 -5.19936 0
M  V30 14482 C 2246.86 3.49432 -4.70418 0
M  V30 14483 N 2246.81 3.32099 -3.22613 0
M  V30 14484 C 2246.89 4.28245 -2.25527 0
M  V30 14485 N 2246.82 3.80823 -1.04874 0
M  V30 14486 C 2246.67 2.44571 -1.23535 0
M  V30 14487 C 2246.54 1.37068 -0.330675 0
M  V30 14488 N 2246.53 1.51472 0.990824 0
M  V30 14489 N 2246.42 0.138614 -0.848756 0
M  V30 14490 C 2246.43 -0.00675923 -2.16999 0
M  V30 14491 N 2246.55 0.904372 -3.11122 0
M  V30 14492 C 2246.67 2.12707 -2.56212 0
M  V30 14493 H 2249.65 6.54213 -5.71376 0
M  V30 14494 H 2249.92 5.30936 -4.43503 0
M  V30 14495 H 2249.05 4.55889 -6.76652 0
M  V30 14496 H 2246.39 2.61715 -5.17932 0
M  V30 14497 H 2246.11 5.52155 -4.41878 0
M  V30 14498 H 2245.12 4.51981 -5.53374 0
M  V30 14499 H 2246.96 6.25124 -6.55234 0
M  V30 14500 H 2247 5.34372 -2.47488 0
M  V30 14501 H 2246.62 2.45153 1.4078 0
M  V30 14502 H 2246.43 0.688422 1.59911 0
M  V30 14503 H 2246.32 -1.02584 -2.52346 0
M  V30 14504 P 2245.09 4.23843 -7.83734 0
M  V30 14505 O 2244.87 4.19407 -9.29784 0
M  V30 14506 O 2244.3 5.24426 -7.09156 0
M  V30 14507 O 2244.84 2.7935 -7.20758 0
M  V30 14508 C 2245.78 1.7299 -7.50419 0
M  V30 14509 C 2245.05 0.406376 -7.57911 0
M  V30 14510 O 2244.84 -0.0897726 -6.21935 0
M  V30 14511 C 2243.65 0.447224 -8.1878 0
M  V30 14512 O 2243.26 -0.825065 -8.71101 0
M  V30 14513 C 2242.77 0.783801 -6.99623 0
M  V30 14514 C 2243.48 0.0619192 -5.85967 0
M  V30 14515 N 2243.43 0.790462 -4.56202 0
M  V30 14516 H 2246.27 1.93423 -8.4679 0
M  V30 14517 H 2246.54 1.68852 -6.70877 0
M  V30 14518 H 2245.67 -0.289041 -8.15388 0
M  V30 14519 H 2243.01 -0.927006 -5.72848 0
M  V30 14520 H 2242.73 1.86973 -6.82036 0
M  V30 14521 H 2241.74 0.403953 -7.13357 0
M  V30 14522 H 2243.58 1.20599 -8.97534 0
M  V30 14523 P 2241.71 -1.17771 -8.83182 0
M  V30 14524 O 2241.49 -2.07206 -9.98732 0
M  V30 14525 O 2240.92 0.0743816 -8.81969 0
M  V30 14526 O 2241.46 -1.97652 -7.47304 0
M  V30 14527 C 2242.4 -3.01133 -7.08783 0
M  V30 14528 C 2241.67 -4.12613 -6.37049 0
M  V30 14529 O 2241.46 -3.72827 -4.97879 0
M  V30 14530 C 2240.27 -4.45085 -6.88694 0
M  V30 14531 O 2239.88 -5.7877 -6.5624 0
M  V30 14532 C 2239.39 -3.47817 -6.12078 0
M  V30 14533 C 2240.1 -3.39414 -4.77697 0
M  V30 14534 N 2240.05 -2.04615 -4.15333 0
M  V30 14535 H 2242.89 -3.41248 -7.98759 0
M  V30 14536 H 2243.16 -2.5837 -6.41742 0
M  V30 14537 H 2242.29 -5.02657 -6.42673 0
M  V30 14538 P 2238.33 -6.144 -6.45285 0
M  V30 14539 O 2238.11 -7.54673 -6.86199 0
M  V30 14540 O 2237.54 -5.12391 -7.179 0
M  V30 14541 O 2238.08 -5.99158 -4.88404 0
M  V30 14542 C 2239.02 -6.60234 -3.96415 0
M  V30 14543 C 2238.29 -7.08259 -2.72856 0
M  V30 14544 O 2238.08 -5.9427 -1.83651 0
M  V30 14545 C 2236.89 -7.64886 -2.9555 0
M  V30 14546 O 2236.5 -8.53963 -1.90717 0
M  V30 14547 C 2236.01 -6.4116 -2.90739 0
M  V30 14548 C 2236.72 -5.55375 -1.86963 0
M  V30 14549 N 2236.67 -4.09664 -2.15742 0
M  V30 14550 H 2239.51 -7.45574 -4.45629 0
M  V30 14551 H 2239.78 -5.86232 -3.67314 0
M  V30 14552 H 2238.91 -7.84412 -2.24479 0
M  V30 14553 P 2234.95 -8.7635 -1.60911 0
M  V30 14554 O 2234.73 -10.1388 -1.11561 0
M  V30 14555 O 2234.16 -8.36503 -2.79617 0
M  V30 14556 O 2234.7 -7.71806 -0.42951 0
M  V30 14557 C 2235.64 -7.66948 0.673514 0
M  V30 14558 C 2234.91 -7.33374 1.95559 0
M  V30 14559 O 2234.7 -5.88721 2.00726 0
M  V30 14560 C 2233.51 -7.92218 2.1125 0
M  V30 14561 O 2233.12 -8.02971 3.47653 0
M  V30 14562 C 2232.63 -6.89504 1.41631 0
M  V30 14563 C 2233.34 -5.59106 1.75155 0
M  V30 14564 N 2233.29 -4.58136 0.662409 0
M  V30 14565 C 2233.14 -3.26059 1.02863 0
M  V30 14566 O 2233.05 -2.90743 2.19009 0
M  V30 14567 N 2233.1 -2.35995 -0.0155585 0
M  V30 14568 C 2233.19 -2.65248 -1.35603 0
M  V30 14569 O 2233.14 -1.75605 -2.20651 0
M  V30 14570 C 2233.34 -4.05747 -1.64698 0
M  V30 14571 C 2233.45 -4.42345 -3.09553 0
M  V30 14572 C 2233.39 -4.96734 -0.652411 0
M  V30 14573 H 2236.13 -8.64917 0.776982 0
M  V30 14574 H 2236.4 -6.89974 0.474015 0
M  V30 14575 H 2235.53 -7.66548 2.79458 0
M  V30 14576 H 2232.87 -5.16076 2.65138 0
M  V30 14577 H 2232.6 -7.06433 0.329384 0
M  V30 14578 H 2231.6 -6.90829 1.81996 0
M  V30 14579 H 2233.44 -8.90774 1.62639 0
M  V30 14580 H 2233.51 -6.02181 -0.895285 0
M  V30 14581 H 2232.48 -4.80252 -3.45468 0
M  V30 14582 H 2234.22 -5.20015 -3.22119 0
M  V30 14583 H 2233.73 -3.53269 -3.67833 0
M  V30 14584 H 2232.99 -1.39558 0.227499 0
M  V30 14585 P 2231.57 -8.03563 3.84925 0
M  V30 14586 O 2231.35 -8.85821 5.0569 0
M  V30 14587 O 2230.78 -8.41101 2.65469 0
M  V30 14588 O 2231.32 -6.4965 4.18908 0
M  V30 14589 C 2232.26 -5.81037 5.05421 0
M  V30 14590 C 2231.53 -4.78366 5.89277 0
M  V30 14591 O 2231.32 -3.58302 5.08433 0
M  V30 14592 C 2230.13 -5.17448 6.36119 0
M  V30 14593 O 2229.74 -4.45271 7.53232 0
M  V30 14594 C 2229.25 -4.74639 5.19936 0
M  V30 14595 C 2229.96 -3.49432 4.70418 0
M  V30 14596 N 2229.91 -3.32099 3.22613 0
M  V30 14597 H 2232.75 -6.54213 5.71376 0
M  V30 14598 H 2233.02 -5.30936 4.43503 0
M  V30 14599 H 2232.15 -4.55889 6.76652 0
M  V30 14600 H 2229.49 -2.61715 5.17932 0
M  V30 14601 H 2229.21 -5.52155 4.41878 0
M  V30 14602 H 2228.22 -4.51981 5.53374 0
M  V30 14603 H 2230.06 -6.25124 6.55234 0
M  V30 14604 P 2228.19 -4.23843 7.83734 0
M  V30 14605 O 2227.97 -4.19407 9.29784 0
M  V30 14606 O 2227.4 -5.24426 7.09156 0
M  V30 14607 O 2227.94 -2.7935 7.20758 0
M  V30 14608 C 2228.88 -1.7299 7.50419 0
M  V30 14609 C 2228.15 -0.406376 7.57911 0
M  V30 14610 O 2227.94 0.0897726 6.21935 0
M  V30 14611 C 2226.75 -0.447224 8.1878 0
M  V30 14612 O 2226.36 0.825065 8.71101 0
M  V30 14613 C 2225.87 -0.783801 6.99623 0
M  V30 14614 C 2226.58 -0.0619192 5.85967 0
M  V30 14615 N 2226.53 -0.7859 4.56281 0
M  V30 14616 H 2229.37 -1.93423 8.4679 0
M  V30 14617 H 2229.64 -1.68181 6.71046 0
M  V30 14618 H 2228.77 0.289041 8.15388 0
M  V30 14619 P 2224.81 1.17771 8.83182 0
M  V30 14620 O 2224.59 2.07206 9.98732 0
M  V30 14621 O 2224.02 -0.0743816 8.81969 0
M  V30 14622 O 2224.56 1.97652 7.47304 0
M  V30 14623 C 2225.5 3.01055 7.08599 0
M  V30 14624 C 2224.77 4.12613 6.37049 0
M  V30 14625 O 2224.56 3.72827 4.97879 0
M  V30 14626 C 2223.37 4.45719 6.88164 0
M  V30 14627 O 2222.98 5.7877 6.5624 0
M  V30 14628 C 2222.49 3.47768 6.11991 0
M  V30 14629 C 2223.2 3.39356 4.77615 0
M  V30 14630 N 2223.15 2.04571 4.15244 0
M  V30 14631 C 2223 1.98587 2.78314 0
M  V30 14632 O 2222.91 2.98134 2.08835 0
M  V30 14633 N 2222.96 0.714467 2.24925 0
M  V30 14634 C 2223.05 -0.470001 2.94169 0
M  V30 14635 C 2223.2 -0.312541 4.36783 0
M  V30 14636 C 2223.25 0.914512 4.92583 0
M  V30 14637 H 2225.99 3.41169 7.98575 0
M  V30 14638 H 2226.26 2.58295 6.41556 0
M  V30 14639 H 2225.39 5.02657 6.42673 0
M  V30 14640 H 2222.73 4.11637 4.08885 0
M  V30 14641 H 2222.46 2.49626 6.61679 0
M  V30 14642 H 2221.46 3.86566 6.00778 0
M  V30 14643 H 2223.3 4.29943 7.96918 0
M  V30 14644 H 2223.37 1.00937 6.00374 0
M  V30 14645 P 2221.43 6.144 6.45285 0
M  V30 14646 O 2221.21 7.54673 6.86199 0
M  V30 14647 O 2220.64 5.12391 7.179 0
M  V30 14648 O 2221.18 5.99158 4.88404 0
M  V30 14649 C 2222.12 6.60234 3.96415 0
M  V30 14650 C 2221.39 7.08259 2.72856 0
M  V30 14651 O 2221.18 5.9427 1.83651 0
M  V30 14652 C 2219.99 7.64886 2.9555 0
M  V30 14653 O 2219.6 8.53963 1.90717 0
M  V30 14654 C 2219.11 6.4116 2.90739 0
M  V30 14655 C 2219.82 5.55375 1.86963 0
M  V30 14656 N 2219.77 4.09448 2.16152 0
M  V30 14657 H 2222.61 7.45574 4.45629 0
M  V30 14658 H 2222.88 5.85864 3.679 0
M  V30 14659 H 2222.01 7.84412 2.24479 0
M  V30 14660 H 2219.35 5.73457 0.888562 0
M  V30 14661 H 2219.07 5.90877 3.88583 0
M  V30 14662 H 2218.08 6.6596 2.58858 0
M  V30 14663 H 2219.92 8.16339 3.92049 0
M  V30 14664 P 2218.05 8.7635 1.60911 0
M  V30 14665 O 2217.83 10.1388 1.11561 0
M  V30 14666 O 2217.26 8.36503 2.79617 0
M  V30 14667 O 2217.8 7.71806 0.42951 0
M  V30 14668 C 2218.74 7.67148 -0.673689 0
M  V30 14669 C 2218.01 7.33374 -1.95559 0
M  V30 14670 O 2217.8 5.88721 -2.00726 0
M  V30 14671 C 2216.61 7.92526 -2.10483 0
M  V30 14672 O 2216.22 8.02971 -3.47653 0
M  V30 14673 C 2215.73 6.89602 -1.41652 0
M  V30 14674 C 2216.44 5.59201 -1.75185 0
M  V30 14675 N 2216.39 4.58235 -0.662552 0
M  V30 14676 H 2219.23 8.65116 -0.777161 0
M  V30 14677 H 2219.5 6.90173 -0.474152 0
M  V30 14678 H 2218.63 7.66548 -2.79458 0
M  V30 14679 P 2214.67 8.03563 -3.84925 0
M  V30 14680 O 2214.45 8.85821 -5.0569 0
M  V30 14681 O 2213.88 8.41101 -2.65469 0
M  V30 14682 O 2214.42 6.4965 -4.18908 0
M  V30 14683 C 2215.36 5.81037 -5.05421 0
M  V30 14684 C 2214.63 4.78366 -5.89277 0
M  V30 14685 O 2214.42 3.58302 -5.08433 0
M  V30 14686 C 2213.23 5.17448 -6.36119 0
M  V30 14687 O 2212.84 4.45271 -7.53232 0
M  V30 14688 C 2212.35 4.74639 -5.19936 0
M  V30 14689 C 2213.06 3.49432 -4.70418 0
M  V30 14690 N 2213.01 3.31776 -3.22945 0
M  V30 14691 H 2215.85 6.54213 -5.71376 0
M  V30 14692 H 2216.12 5.30492 -4.44033 0
M  V30 14693 H 2215.25 4.55889 -6.76652 0
M  V30 14694 P 2211.29 4.23843 -7.83734 0
M  V30 14695 O 2211.07 4.19407 -9.29784 0
M  V30 14696 O 2210.5 5.24426 -7.09156 0
M  V30 14697 O 2211.04 2.7935 -7.20758 0
M  V30 14698 C 2211.98 1.7299 -7.50419 0
M  V30 14699 C 2211.25 0.406376 -7.57911 0
M  V30 14700 O 2211.04 -0.0897726 -6.21935 0
M  V30 14701 C 2209.85 0.447224 -8.1878 0
M  V30 14702 O 2209.46 -0.825065 -8.71101 0
M  V30 14703 C 2208.97 0.783801 -6.99623 0
M  V30 14704 C 2209.68 0.0619192 -5.85967 0
M  V30 14705 N 2209.63 0.7859 -4.56281 0
M  V30 14706 H 2212.47 1.93423 -8.4679 0
M  V30 14707 H 2212.74 1.68181 -6.71046 0
M  V30 14708 H 2211.87 -0.289041 -8.15388 0
M  V30 14709 P 2207.91 -1.17771 -8.83182 0
M  V30 14710 O 2207.69 -2.07206 -9.98732 0
M  V30 14711 O 2207.12 0.0743816 -8.81969 0
M  V30 14712 O 2207.66 -1.97652 -7.47304 0
M  V30 14713 C 2208.6 -3.01133 -7.08783 0
M  V30 14714 C 2207.87 -4.12613 -6.37049 0
M  V30 14715 O 2207.66 -3.72827 -4.97879 0
M  V30 14716 C 2206.47 -4.45085 -6.88694 0
M  V30 14717 O 2206.08 -5.7877 -6.5624 0
M  V30 14718 C 2205.59 -3.47817 -6.12078 0
M  V30 14719 C 2206.3 -3.39414 -4.77697 0
M  V30 14720 N 2206.25 -2.04199 -4.15538 0
M  V30 14721 H 2209.09 -3.41248 -7.98759 0
M  V30 14722 H 2209.36 -2.57728 -6.42 0
M  V30 14723 H 2208.49 -5.02657 -6.42673 0
M  V30 14724 H 2205.83 -4.11708 -4.08956 0
M  V30 14725 H 2205.55 -2.49626 -6.61679 0
M  V30 14726 H 2204.56 -3.8662 -6.00862 0
M  V30 14727 H 2206.4 -4.29991 -7.97006 0
M  V30 14728 P 2204.53 -6.144 -6.45285 0
M  V30 14729 O 2204.31 -7.54673 -6.86199 0
M  V30 14730 O 2203.74 -5.12391 -7.179 0
M  V30 14731 O 2204.28 -5.99158 -4.88404 0
M  V30 14732 C 2205.22 -6.60234 -3.96415 0
M  V30 14733 C 2204.49 -7.08259 -2.72856 0
M  V30 14734 O 2204.28 -5.9427 -1.83651 0
M  V30 14735 C 2203.09 -7.64886 -2.9555 0
M  V30 14736 O 2202.7 -8.53963 -1.90717 0
M  V30 14737 C 2202.21 -6.4116 -2.90739 0
M  V30 14738 C 2202.92 -5.55375 -1.86963 0
M  V30 14739 N 2202.87 -4.09664 -2.15742 0
M  V30 14740 H 2205.71 -7.45574 -4.45629 0
M  V30 14741 H 2205.98 -5.86232 -3.67314 0
M  V30 14742 H 2205.11 -7.84412 -2.24479 0
M  V30 14743 P 2201.15 -8.7635 -1.60911 0
M  V30 14744 O 2200.93 -10.1388 -1.11561 0
M  V30 14745 O 2200.36 -8.36503 -2.79617 0
M  V30 14746 O 2200.9 -7.71806 -0.42951 0
M  V30 14747 C 2201.84 -7.67148 0.673689 0
M  V30 14748 C 2201.11 -7.33374 1.95559 0
M  V30 14749 O 2200.9 -5.88721 2.00726 0
M  V30 14750 C 2199.71 -7.92526 2.10483 0
M  V30 14751 O 2199.32 -8.02971 3.47653 0
M  V30 14752 C 2198.83 -6.89602 1.41652 0
M  V30 14753 C 2199.54 -5.59201 1.75185 0
M  V30 14754 N 2199.49 -4.58301 0.657969 0
M  V30 14755 H 2202.33 -8.65116 0.777161 0
M  V30 14756 H 2202.6 -6.9022 0.46725 0
M  V30 14757 H 2201.73 -7.66548 2.79458 0
M  V30 14758 H 2199.07 -5.16165 2.65183 0
M  V30 14759 H 2198.79 -7.06433 0.329384 0
M  V30 14760 H 2197.8 -6.90926 1.82021 0
M  V30 14761 H 2199.64 -8.90873 1.62657 0
M  V30 14762 P 2197.77 -8.03563 3.84925 0
M  V30 14763 O 2197.55 -8.85821 5.0569 0
M  V30 14764 O 2196.98 -8.41101 2.65469 0
M  V30 14765 O 2197.52 -6.4965 4.18908 0
M  V30 14766 C 2198.46 -5.81037 5.05421 0
M  V30 14767 C 2197.73 -4.78366 5.89277 0
M  V30 14768 O 2197.52 -3.58302 5.08433 0
M  V30 14769 C 2196.33 -5.17448 6.36119 0
M  V30 14770 O 2195.94 -4.45271 7.53232 0
M  V30 14771 C 2195.45 -4.74639 5.19936 0
M  V30 14772 C 2196.16 -3.49432 4.70418 0
M  V30 14773 N 2196.11 -3.31776 3.22945 0
M  V30 14774 H 2198.95 -6.54213 5.71376 0
M  V30 14775 H 2199.22 -5.30492 4.44033 0
M  V30 14776 H 2198.35 -4.55889 6.76652 0
M  V30 14777 P 2194.39 -4.23843 7.83734 0
M  V30 14778 O 2194.17 -4.19407 9.29784 0
M  V30 14779 O 2193.6 -5.24426 7.09156 0
M  V30 14780 O 2194.14 -2.7935 7.20758 0
M  V30 14781 C 2195.08 -1.72945 7.50224 0
M  V30 14782 C 2194.35 -0.406376 7.57911 0
M  V30 14783 O 2194.14 0.0897726 6.21935 0
M  V30 14784 C 2192.95 -0.438983 8.18724 0
M  V30 14785 O 2192.56 0.825065 8.71101 0
M  V30 14786 C 2192.07 -0.783689 6.99524 0
M  V30 14787 C 2192.78 -0.0619086 5.85867 0
M  V30 14788 N 2192.73 -0.78573 4.56183 0
M  V30 14789 C 2192.58 -0.0292889 3.41887 0
M  V30 14790 O 2192.49 1.18445 3.4419 0
M  V30 14791 N 2192.54 -0.744061 2.23964 0
M  V30 14792 C 2192.63 -2.10932 2.10362 0
M  V30 14793 C 2192.78 -2.8202 3.34994 0
M  V30 14794 C 2192.83 -2.15547 4.52261 0
M  V30 14795 H 2195.57 -1.93379 8.46595 0
M  V30 14796 H 2195.84 -1.68132 6.70852 0
M  V30 14797 H 2194.97 0.289041 8.15388 0
M  V30 14798 H 2192.32 0.926847 5.72749 0
M  V30 14799 H 2192.04 -1.86973 6.82036 0
M  V30 14800 H 2191.04 -0.403896 7.13257 0
M  V30 14801 H 2192.88 -1.20585 8.97435 0
M  V30 14802 H 2192.95 -2.71231 5.45042 0
M  V30 14803 P 2191.01 1.17771 8.83182 0
M  V30 14804 O 2190.79 2.07206 9.98732 0
M  V30 14805 O 2190.22 -0.0743816 8.81969 0
M  V30 14806 O 2190.76 1.97652 7.47304 0
M  V30 14807 C 2191.7 3.01133 7.08783 0
M  V30 14808 C 2190.97 4.12613 6.37049 0
M  V30 14809 O 2190.76 3.72827 4.97879 0
M  V30 14810 C 2189.57 4.45085 6.88694 0
M  V30 14811 O 2189.18 5.7877 6.5624 0
M  V30 14812 C 2188.69 3.47817 6.12078 0
M  V30 14813 C 2189.4 3.39414 4.77697 0
M  V30 14814 N 2189.35 2.04615 4.15333 0
M  V30 14815 H 2192.19 3.41248 7.98759 0
M  V30 14816 H 2192.46 2.5837 6.41742 0
M  V30 14817 H 2191.59 5.02657 6.42673 0
M  V30 14818 P 2187.63 6.144 6.45285 0
M  V30 14819 O 2187.41 7.54673 6.86199 0
M  V30 14820 O 2186.84 5.12391 7.179 0
M  V30 14821 O 2187.38 5.99158 4.88404 0
M  V30 14822 C 2188.32 6.60234 3.96415 0
M  V30 14823 C 2187.59 7.08259 2.72856 0
M  V30 14824 O 2187.38 5.9427 1.83651 0
M  V30 14825 C 2186.19 7.64886 2.9555 0
M  V30 14826 O 2185.8 8.53963 1.90717 0
M  V30 14827 C 2185.31 6.4116 2.90739 0
M  V30 14828 C 2186.02 5.55375 1.86963 0
M  V30 14829 N 2185.97 4.09664 2.15742 0
M  V30 14830 H 2188.81 7.45574 4.45629 0
M  V30 14831 H 2189.08 5.86232 3.67314 0
M  V30 14832 H 2188.21 7.84412 2.24479 0
M  V30 14833 P 2184.25 8.7635 1.60911 0
M  V30 14834 O 2184.03 10.1388 1.11561 0
M  V30 14835 O 2183.46 8.36503 2.79617 0
M  V30 14836 O 2184 7.71806 0.42951 0
M  V30 14837 C 2184.94 7.66948 -0.673514 0
M  V30 14838 C 2184.21 7.33374 -1.95559 0
M  V30 14839 O 2184 5.88721 -2.00726 0
M  V30 14840 C 2182.81 7.92218 -2.1125 0
M  V30 14841 O 2182.42 8.02971 -3.47653 0
M  V30 14842 C 2181.93 6.89504 -1.41631 0
M  V30 14843 C 2182.64 5.59106 -1.75155 0
M  V30 14844 N 2182.59 4.58136 -0.662409 0
M  V30 14845 C 2182.44 3.26059 -1.02863 0
M  V30 14846 O 2182.35 2.90743 -2.19009 0
M  V30 14847 N 2182.4 2.35995 0.0155585 0
M  V30 14848 C 2182.49 2.65248 1.35603 0
M  V30 14849 O 2182.44 1.75605 2.20651 0
M  V30 14850 C 2182.64 4.05747 1.64698 0
M  V30 14851 C 2182.75 4.42345 3.09553 0
M  V30 14852 C 2182.69 4.96734 0.652411 0
M  V30 14853 H 2185.43 8.64917 -0.776982 0
M  V30 14854 H 2185.7 6.89974 -0.474015 0
M  V30 14855 H 2184.83 7.66548 -2.79458 0
M  V30 14856 H 2182.18 5.16076 -2.65138 0
M  V30 14857 H 2181.9 7.06433 -0.329384 0
M  V30 14858 H 2180.9 6.90829 -1.81996 0
M  V30 14859 H 2182.74 8.90774 -1.62639 0
M  V30 14860 H 2182.81 6.02181 0.895285 0
M  V30 14861 H 2181.78 4.80252 3.45468 0
M  V30 14862 H 2183.52 5.20015 3.22119 0
M  V30 14863 H 2183.03 3.53269 3.67833 0
M  V30 14864 H 2182.29 1.39558 -0.227499 0
M  V30 14865 P 2180.87 8.03563 -3.84925 0
M  V30 14866 O 2180.65 8.85821 -5.0569 0
M  V30 14867 O 2180.08 8.41101 -2.65469 0
M  V30 14868 O 2180.62 6.4965 -4.18908 0
M  V30 14869 C 2181.56 5.81037 -5.05421 0
M  V30 14870 C 2180.83 4.78366 -5.89277 0
M  V30 14871 O 2180.62 3.58302 -5.08433 0
M  V30 14872 C 2179.43 5.17448 -6.36119 0
M  V30 14873 O 2179.04 4.45271 -7.53232 0
M  V30 14874 C 2178.55 4.74639 -5.19936 0
M  V30 14875 C 2179.26 3.49432 -4.70418 0
M  V30 14876 N 2179.21 3.32099 -3.22613 0
M  V30 14877 H 2182.05 6.54213 -5.71376 0
M  V30 14878 H 2182.32 5.30936 -4.43503 0
M  V30 14879 H 2181.45 4.55889 -6.76652 0
M  V30 14880 H 2178.8 2.61715 -5.17932 0
M  V30 14881 H 2178.52 5.52155 -4.41878 0
M  V30 14882 H 2177.52 4.51981 -5.53374 0
M  V30 14883 H 2179.36 6.25124 -6.55234 0
M  V30 14884 P 2177.49 4.23843 -7.83734 0
M  V30 14885 O 2177.27 4.19407 -9.29784 0
M  V30 14886 O 2176.7 5.24426 -7.09156 0
M  V30 14887 O 2177.24 2.7935 -7.20758 0
M  V30 14888 C 2178.18 1.7299 -7.50419 0
M  V30 14889 C 2177.45 0.406376 -7.57911 0
M  V30 14890 O 2177.24 -0.0897726 -6.21935 0
M  V30 14891 C 2176.05 0.447224 -8.1878 0
M  V30 14892 O 2175.66 -0.825065 -8.71101 0
M  V30 14893 C 2175.17 0.783801 -6.99623 0
M  V30 14894 C 2175.88 0.0619192 -5.85967 0
M  V30 14895 N 2175.83 0.7859 -4.56281 0
M  V30 14896 H 2178.67 1.93423 -8.4679 0
M  V30 14897 H 2178.94 1.68181 -6.71046 0
M  V30 14898 H 2178.07 -0.289041 -8.15388 0
M  V30 14899 P 2174.11 -1.17771 -8.83182 0
M  V30 14900 O 2173.89 -2.07206 -9.98732 0
M  V30 14901 O 2173.32 0.0743816 -8.81969 0
M  V30 14902 O 2173.86 -1.97652 -7.47304 0
M  V30 14903 C 2174.8 -3.01133 -7.08783 0
M  V30 14904 C 2174.07 -4.12613 -6.37049 0
M  V30 14905 O 2173.86 -3.72827 -4.97879 0
M  V30 14906 C 2172.67 -4.45085 -6.88694 0
M  V30 14907 O 2172.28 -5.7877 -6.5624 0
M  V30 14908 C 2171.79 -3.47817 -6.12078 0
M  V30 14909 C 2172.5 -3.39414 -4.77697 0
M  V30 14910 N 2172.45 -2.04615 -4.15333 0
M  V30 14911 H 2175.29 -3.41248 -7.98759 0
M  V30 14912 H 2175.56 -2.5837 -6.41742 0
M  V30 14913 H 2174.69 -5.02657 -6.42673 0
M  V30 14914 P 2170.73 -6.144 -6.45285 0
M  V30 14915 O 2170.51 -7.54673 -6.86199 0
M  V30 14916 O 2169.94 -5.12391 -7.179 0
M  V30 14917 O 2170.48 -5.99158 -4.88404 0
M  V30 14918 C 2171.42 -6.60234 -3.96415 0
M  V30 14919 C 2170.69 -7.08259 -2.72856 0
M  V30 14920 O 2170.48 -5.9427 -1.83651 0
M  V30 14921 C 2169.29 -7.64886 -2.9555 0
M  V30 14922 O 2168.9 -8.53963 -1.90717 0
M  V30 14923 C 2168.41 -6.4116 -2.90739 0
M  V30 14924 C 2169.12 -5.55375 -1.86963 0
M  V30 14925 N 2169.07 -4.09664 -2.15742 0
M  V30 14926 H 2171.91 -7.45574 -4.45629 0
M  V30 14927 H 2172.18 -5.86232 -3.67314 0
M  V30 14928 H 2171.31 -7.84412 -2.24479 0
M  V30 14929 P 2167.35 -8.7635 -1.60911 0
M  V30 14930 O 2167.13 -10.1388 -1.11561 0
M  V30 14931 O 2166.56 -8.36503 -2.79617 0
M  V30 14932 O 2167.1 -7.71806 -0.42951 0
M  V30 14933 C 2168.04 -7.67148 0.673689 0
M  V30 14934 C 2167.31 -7.33374 1.95559 0
M  V30 14935 O 2167.1 -5.88721 2.00726 0
M  V30 14936 C 2165.91 -7.92526 2.10483 0
M  V30 14937 O 2165.52 -8.02971 3.47653 0
M  V30 14938 C 2165.03 -6.89602 1.41652 0
M  V30 14939 C 2165.74 -5.59201 1.75185 0
M  V30 14940 N 2165.69 -4.58235 0.662552 0
M  V30 14941 C 2165.77 -4.7683 -0.704049 0
M  V30 14942 N 2165.69 -3.66233 -1.39775 0
M  V30 14943 C 2165.55 -2.66526 -0.431739 0
M  V30 14944 C 2165.42 -1.26394 -0.575992 0
M  V30 14945 O 2165.4 -0.589894 -1.60503 0
M  V30 14946 N 2165.3 -0.62859 0.67177 0
M  V30 14947 C 2165.3 -1.27134 1.89385 0
M  V30 14948 N 2165.17 -0.492035 2.96951 0
M  V30 14949 N 2165.43 -2.58978 2.02907 0
M  V30 14950 C 2165.55 -3.22433 0.832218 0
M  V30 14951 H 2168.53 -8.65116 0.777161 0
M  V30 14952 H 2168.8 -6.90173 0.474152 0
M  V30 14953 H 2167.93 -7.66548 2.79458 0
M  V30 14954 H 2165.28 -5.16254 2.65229 0
M  V30 14955 H 2165 -7.06532 0.329431 0
M  V30 14956 H 2164 -6.91023 1.82047 0
M  V30 14957 H 2165.84 -8.90971 1.62675 0
M  V30 14958 H 2165.89 -5.74954 -1.16305 0
M  V30 14959 H 2165.21 0.366713 0.674793 0
M  V30 14960 H 2165.17 -0.908532 3.91188 0
M  V30 14961 H 2165.07 0.528253 2.85758 0
M  V30 14962 P 2163.97 -8.03563 3.84925 0
M  V30 14963 O 2163.75 -8.85821 5.0569 0
M  V30 14964 O 2163.18 -8.41101 2.65469 0
M  V30 14965 O 2163.72 -6.4965 4.18908 0
M  V30 14966 C 2164.66 -5.81037 5.05421 0
M  V30 14967 C 2163.93 -4.78366 5.89277 0
M  V30 14968 O 2163.72 -3.58302 5.08433 0
M  V30 14969 C 2162.53 -5.17448 6.36119 0
M  V30 14970 O 2162.14 -4.45271 7.53232 0
M  V30 14971 C 2161.65 -4.74639 5.19936 0
M  V30 14972 C 2162.36 -3.49432 4.70418 0
M  V30 14973 N 2162.31 -3.32099 3.22613 0
M  V30 14974 H 2165.15 -6.54213 5.71376 0
M  V30 14975 H 2165.42 -5.30936 4.43503 0
M  V30 14976 H 2164.55 -4.55889 6.76652 0
M  V30 14977 H 2161.9 -2.61715 5.17932 0
M  V30 14978 H 2161.62 -5.52155 4.41878 0
M  V30 14979 H 2160.62 -4.51981 5.53374 0
M  V30 14980 H 2162.46 -6.25124 6.55234 0
M  V30 14981 P 2160.59 -4.23843 7.83734 0
M  V30 14982 O 2160.37 -4.19407 9.29784 0
M  V30 14983 O 2159.8 -5.24426 7.09156 0
M  V30 14984 O 2160.34 -2.7935 7.20758 0
M  V30 14985 C 2161.28 -1.7299 7.50419 0
M  V30 14986 C 2160.55 -0.406376 7.57911 0
M  V30 14987 O 2160.34 0.0897726 6.21935 0
M  V30 14988 C 2159.15 -0.447224 8.1878 0
M  V30 14989 O 2158.76 0.825065 8.71101 0
M  V30 14990 C 2158.27 -0.783801 6.99623 0
M  V30 14991 C 2158.98 -0.0619192 5.85967 0
M  V30 14992 N 2158.93 -0.7859 4.56281 0
M  V30 14993 H 2161.77 -1.93423 8.4679 0
M  V30 14994 H 2162.04 -1.68181 6.71046 0
M  V30 14995 H 2161.17 0.289041 8.15388 0
M  V30 14996 P 2157.21 1.17771 8.83182 0
M  V30 14997 O 2156.99 2.07206 9.98732 0
M  V30 14998 O 2156.42 -0.0743816 8.81969 0
M  V30 14999 O 2156.96 1.97652 7.47304 0
M  V30 15000 C 2157.9 3.01133 7.08783 0
M  V30 15001 C 2157.17 4.12613 6.37049 0
M  V30 15002 O 2156.96 3.72827 4.97879 0
M  V30 15003 C 2155.77 4.45085 6.88694 0
M  V30 15004 O 2155.38 5.7877 6.5624 0
M  V30 15005 C 2154.89 3.47817 6.12078 0
M  V30 15006 C 2155.6 3.39414 4.77697 0
M  V30 15007 N 2155.55 2.04615 4.15333 0
M  V30 15008 H 2158.39 3.41248 7.98759 0
M  V30 15009 H 2158.66 2.5837 6.41742 0
M  V30 15010 H 2157.79 5.02657 6.42673 0
M  V30 15011 P 2153.83 6.144 6.45285 0
M  V30 15012 O 2153.61 7.54673 6.86199 0
M  V30 15013 O 2153.04 5.12391 7.179 0
M  V30 15014 O 2153.58 5.99158 4.88404 0
M  V30 15015 C 2154.52 6.60234 3.96415 0
M  V30 15016 C 2153.79 7.08259 2.72856 0
M  V30 15017 O 2153.58 5.9427 1.83651 0
M  V30 15018 C 2152.39 7.64886 2.9555 0
M  V30 15019 O 2152 8.53963 1.90717 0
M  V30 15020 C 2151.51 6.4116 2.90739 0
M  V30 15021 C 2152.22 5.55375 1.86963 0
M  V30 15022 N 2152.17 4.09664 2.15742 0
M  V30 15023 H 2155.01 7.45574 4.45629 0
M  V30 15024 H 2155.28 5.86232 3.67314 0
M  V30 15025 H 2154.41 7.84412 2.24479 0
M  V30 15026 P 2150.45 8.7635 1.60911 0
M  V30 15027 O 2150.23 10.1388 1.11561 0
M  V30 15028 O 2149.66 8.36503 2.79617 0
M  V30 15029 O 2150.2 7.71806 0.42951 0
M  V30 15030 C 2151.14 7.67148 -0.673689 0
M  V30 15031 C 2150.41 7.33374 -1.95559 0
M  V30 15032 O 2150.2 5.88721 -2.00726 0
M  V30 15033 C 2149.01 7.92526 -2.10483 0
M  V30 15034 O 2148.62 8.02971 -3.47653 0
M  V30 15035 C 2148.13 6.89602 -1.41652 0
M  V30 15036 C 2148.84 5.59201 -1.75185 0
M  V30 15037 N 2148.79 4.58235 -0.662552 0
M  V30 15038 H 2151.63 8.65116 -0.777161 0
M  V30 15039 H 2151.9 6.90173 -0.474152 0
M  V30 15040 H 2151.03 7.66548 -2.79458 0
M  V30 15041 P 2147.07 8.03563 -3.84925 0
M  V30 15042 O 2146.85 8.85821 -5.0569 0
M  V30 15043 O 2146.28 8.41101 -2.65469 0
M  V30 15044 O 2146.82 6.4965 -4.18908 0
M  V30 15045 C 2147.76 5.81037 -5.05421 0
M  V30 15046 C 2147.03 4.78366 -5.89277 0
M  V30 15047 O 2146.82 3.58302 -5.08433 0
M  V30 15048 C 2145.63 5.17448 -6.36119 0
M  V30 15049 O 2145.24 4.45271 -7.53232 0
M  V30 15050 C 2144.75 4.74639 -5.19936 0
M  V30 15051 C 2145.46 3.49432 -4.70418 0
M  V30 15052 N 2145.41 3.31776 -3.22945 0
M  V30 15053 C 2145.49 4.27147 -2.23315 0
M  V30 15054 N 2145.41 3.78447 -1.02186 0
M  V30 15055 C 2145.27 2.41001 -1.21732 0
M  V30 15056 C 2145.14 1.36111 -0.27694 0
M  V30 15057 N 2145.02 0.113683 -0.912949 0
M  V30 15058 C 2145.02 -0.0846396 -2.27943 0
M  V30 15059 N 2144.89 -1.34737 -2.6916 0
M  V30 15060 N 2145.15 0.902521 -3.16379 0
M  V30 15061 C 2145.27 2.11937 -2.56849 0
M  V30 15062 H 2148.25 6.54213 -5.71376 0
M  V30 15063 H 2148.52 5.30492 -4.44033 0
M  V30 15064 H 2147.65 4.55889 -6.76652 0
M  V30 15065 P 2143.69 4.23843 -7.83734 0
M  V30 15066 O 2143.47 4.19407 -9.29784 0
M  V30 15067 O 2142.9 5.24426 -7.09156 0
M  V30 15068 O 2143.44 2.7935 -7.20758 0
M  V30 15069 C 2144.38 1.7299 -7.50419 0
M  V30 15070 C 2143.65 0.406376 -7.57911 0
M  V30 15071 O 2143.44 -0.0897726 -6.21935 0
M  V30 15072 C 2142.25 0.447224 -8.1878 0
M  V30 15073 O 2141.86 -0.825065 -8.71101 0
M  V30 15074 C 2141.37 0.783801 -6.99623 0
M  V30 15075 C 2142.08 0.0619192 -5.85967 0
M  V30 15076 N 2142.03 0.7859 -4.56281 0
M  V30 15077 H 2144.87 1.93423 -8.4679 0
M  V30 15078 H 2145.14 1.68181 -6.71046 0
M  V30 15079 H 2144.27 -0.289041 -8.15388 0
M  V30 15080 P 2140.31 -1.17771 -8.83182 0
M  V30 15081 O 2140.09 -2.07206 -9.98732 0
M  V30 15082 O 2139.52 0.0743816 -8.81969 0
M  V30 15083 O 2140.06 -1.97652 -7.47304 0
M  V30 15084 C 2141 -3.01133 -7.08783 0
M  V30 15085 C 2140.27 -4.12613 -6.37049 0
M  V30 15086 O 2140.06 -3.72827 -4.97879 0
M  V30 15087 C 2138.87 -4.45085 -6.88694 0
M  V30 15088 O 2138.48 -5.7877 -6.5624 0
M  V30 15089 C 2137.99 -3.47817 -6.12078 0
M  V30 15090 C 2138.7 -3.39414 -4.77697 0
M  V30 15091 N 2138.65 -2.04615 -4.15333 0
M  V30 15092 H 2141.49 -3.41248 -7.98759 0
M  V30 15093 H 2141.76 -2.5837 -6.41742 0
M  V30 15094 H 2140.89 -5.02657 -6.42673 0
M  V30 15095 P 2136.93 -6.144 -6.45285 0
M  V30 15096 O 2136.71 -7.54673 -6.86199 0
M  V30 15097 O 2136.14 -5.12391 -7.179 0
M  V30 15098 O 2136.68 -5.99158 -4.88404 0
M  V30 15099 C 2137.62 -6.60234 -3.96415 0
M  V30 15100 C 2136.89 -7.08259 -2.72856 0
M  V30 15101 O 2136.68 -5.9427 -1.83651 0
M  V30 15102 C 2135.49 -7.64886 -2.9555 0
M  V30 15103 O 2135.1 -8.53963 -1.90717 0
M  V30 15104 C 2134.61 -6.4116 -2.90739 0
M  V30 15105 C 2135.32 -5.55375 -1.86963 0
M  V30 15106 N 2135.27 -4.09448 -2.16152 0
M  V30 15107 H 2138.11 -7.45574 -4.45629 0
M  V30 15108 H 2138.38 -5.85864 -3.679 0
M  V30 15109 H 2137.51 -7.84412 -2.24479 0
M  V30 15110 H 2134.86 -5.73457 -0.888562 0
M  V30 15111 H 2134.58 -5.90877 -3.88583 0
M  V30 15112 H 2133.58 -6.6596 -2.58858 0
M  V30 15113 H 2135.42 -8.16339 -3.92049 0
M  V30 15114 P 2133.55 -8.7635 -1.60911 0
M  V30 15115 O 2133.33 -10.1388 -1.11561 0
M  V30 15116 O 2132.76 -8.36503 -2.79617 0
M  V30 15117 O 2133.3 -7.71806 -0.42951 0
M  V30 15118 C 2134.24 -7.67148 0.673689 0
M  V30 15119 C 2133.51 -7.33374 1.95559 0
M  V30 15120 O 2133.3 -5.88721 2.00726 0
M  V30 15121 C 2132.11 -7.92526 2.10483 0
M  V30 15122 O 2131.72 -8.02971 3.47653 0
M  V30 15123 C 2131.23 -6.89602 1.41652 0
M  V30 15124 C 2131.94 -5.59201 1.75185 0
M  V30 15125 N 2131.89 -4.58235 0.662552 0
M  V30 15126 H 2134.73 -8.65116 0.777161 0
M  V30 15127 H 2135 -6.90173 0.474152 0
M  V30 15128 H 2134.13 -7.66548 2.79458 0
M  V30 15129 P 2130.17 -8.03563 3.84925 0
M  V30 15130 O 2129.95 -8.85821 5.0569 0
M  V30 15131 O 2129.38 -8.41101 2.65469 0
M  V30 15132 O 2129.92 -6.4965 4.18908 0
M  V30 15133 C 2130.86 -5.81037 5.05421 0
M  V30 15134 C 2130.13 -4.78366 5.89277 0
M  V30 15135 O 2129.92 -3.58302 5.08433 0
M  V30 15136 C 2128.73 -5.17448 6.36119 0
M  V30 15137 O 2128.34 -4.45271 7.53232 0
M  V30 15138 C 2127.85 -4.74639 5.19936 0
M  V30 15139 C 2128.56 -3.49432 4.70418 0
M  V30 15140 N 2128.51 -3.31776 3.22945 0
M  V30 15141 C 2128.59 -4.27147 2.23315 0
M  V30 15142 N 2128.51 -3.78447 1.02186 0
M  V30 15143 C 2128.37 -2.41001 1.21732 0
M  V30 15144 C 2128.24 -1.36111 0.27694 0
M  V30 15145 O 2128.22 -1.42065 -0.951767 0
M  V30 15146 N 2128.12 -0.113683 0.912949 0
M  V30 15147 C 2128.12 0.0846396 2.27943 0
M  V30 15148 N 2127.99 1.34737 2.6916 0
M  V30 15149 N 2128.25 -0.902521 3.16379 0
M  V30 15150 C 2128.37 -2.11937 2.56849 0
M  V30 15151 H 2131.35 -6.54213 5.71376 0
M  V30 15152 H 2131.62 -5.30492 4.44033 0
M  V30 15153 H 2130.75 -4.55889 6.76652 0
M  V30 15154 H 2128.1 -2.6176 5.18021 0
M  V30 15155 H 2127.82 -5.52233 4.41941 0
M  V30 15156 H 2126.82 -4.52045 5.53452 0
M  V30 15157 H 2128.66 -6.25193 6.55307 0
M  V30 15158 H 2128.71 -5.3351 2.43857 0
M  V30 15159 H 2128.03 0.69331 0.330371 0
M  V30 15160 H 2127.99 1.56433 3.6988 0
M  V30 15161 H 2127.89 2.10701 2.00133 0
M  V30 15162 P 2126.79 -4.23843 7.83734 0
M  V30 15163 O 2126.57 -4.19407 9.29784 0
M  V30 15164 O 2126 -5.24426 7.09156 0
M  V30 15165 O 2126.54 -2.7935 7.20758 0
M  V30 15166 C 2127.48 -1.7299 7.50419 0
M  V30 15167 C 2126.75 -0.406376 7.57911 0
M  V30 15168 O 2126.54 0.0897726 6.21935 0
M  V30 15169 C 2125.35 -0.447224 8.1878 0
M  V30 15170 O 2124.96 0.825065 8.71101 0
M  V30 15171 C 2124.47 -0.783801 6.99623 0
M  V30 15172 C 2125.18 -0.0619192 5.85967 0
M  V30 15173 N 2125.13 -0.7859 4.56281 0
M  V30 15174 C 2125.21 -2.14308 4.31736 0
M  V30 15175 N 2125.13 -2.46106 3.05116 0
M  V30 15176 C 2124.99 -1.23422 2.4014 0
M  V30 15177 C 2124.86 -0.938381 1.02409 0
M  V30 15178 N 2124.74 0.444647 0.805413 0
M  V30 15179 C 2124.74 1.40829 1.79435 0
M  V30 15180 N 2124.61 2.67213 1.38558 0
M  V30 15181 N 2124.87 1.12947 3.09005 0
M  V30 15182 C 2124.99 -0.204887 3.32369 0
M  V30 15183 H 2127.97 -1.93423 8.4679 0
M  V30 15184 H 2128.24 -1.68181 6.71046 0
M  V30 15185 H 2127.37 0.289041 8.15388 0
M  V30 15186 P 2123.41 1.17771 8.83182 0
M  V30 15187 O 2123.19 2.07206 9.98732 0
M  V30 15188 O 2122.62 -0.0743816 8.81969 0
M  V30 15189 O 2123.16 1.97652 7.47304 0
M  V30 15190 C 2124.1 3.01133 7.08783 0
M  V30 15191 C 2123.37 4.12613 6.37049 0
M  V30 15192 O 2123.16 3.72827 4.97879 0
M  V30 15193 C 2121.97 4.45085 6.88694 0
M  V30 15194 O 2121.58 5.7877 6.5624 0
M  V30 15195 C 2121.09 3.47817 6.12078 0
M  V30 15196 C 2121.8 3.39414 4.77697 0
M  V30 15197 N 2121.75 2.04615 4.15333 0
M  V30 15198 H 2124.59 3.41248 7.98759 0
M  V30 15199 H 2124.86 2.5837 6.41742 0
M  V30 15200 H 2123.99 5.02657 6.42673 0
M  V30 15201 P 2120.03 6.144 6.45285 0
M  V30 15202 O 2119.81 7.54673 6.86199 0
M  V30 15203 O 2119.24 5.12391 7.179 0
M  V30 15204 O 2119.78 5.99158 4.88404 0
M  V30 15205 C 2120.72 6.60234 3.96415 0
M  V30 15206 C 2119.99 7.08259 2.72856 0
M  V30 15207 O 2119.78 5.9427 1.83651 0
M  V30 15208 C 2118.59 7.64886 2.9555 0
M  V30 15209 O 2118.2 8.53963 1.90717 0
M  V30 15210 C 2117.71 6.4116 2.90739 0
M  V30 15211 C 2118.42 5.55375 1.86963 0
M  V30 15212 N 2118.37 4.09664 2.15742 0
M  V30 15213 H 2121.21 7.45574 4.45629 0
M  V30 15214 H 2121.48 5.86232 3.67314 0
M  V30 15215 H 2120.61 7.84412 2.24479 0
M  V30 15216 P 2116.65 8.7635 1.60911 0
M  V30 15217 O 2116.43 10.1388 1.11561 0
M  V30 15218 O 2115.86 8.36503 2.79617 0
M  V30 15219 O 2116.4 7.71806 0.42951 0
M  V30 15220 C 2117.34 7.67148 -0.673689 0
M  V30 15221 C 2116.61 7.33374 -1.95559 0
M  V30 15222 O 2116.4 5.88721 -2.00726 0
M  V30 15223 C 2115.21 7.92526 -2.10483 0
M  V30 15224 O 2114.82 8.02971 -3.47653 0
M  V30 15225 C 2114.33 6.89602 -1.41652 0
M  V30 15226 C 2115.04 5.59201 -1.75185 0
M  V30 15227 N 2114.99 4.58235 -0.662552 0
M  V30 15228 H 2117.83 8.65116 -0.777161 0
M  V30 15229 H 2118.1 6.90173 -0.474152 0
M  V30 15230 H 2117.23 7.66548 -2.79458 0
M  V30 15231 P 2113.27 8.03563 -3.84925 0
M  V30 15232 O 2113.05 8.85821 -5.0569 0
M  V30 15233 O 2112.48 8.41101 -2.65469 0
M  V30 15234 O 2113.02 6.4965 -4.18908 0
M  V30 15235 C 2113.96 5.81037 -5.05421 0
M  V30 15236 C 2113.23 4.78366 -5.89277 0
M  V30 15237 O 2113.02 3.58302 -5.08433 0
M  V30 15238 C 2111.83 5.17448 -6.36119 0
M  V30 15239 O 2111.44 4.45271 -7.53232 0
M  V30 15240 C 2110.95 4.74639 -5.19936 0
M  V30 15241 C 2111.66 3.49432 -4.70418 0
M  V30 15242 N 2111.61 3.31776 -3.22945 0
M  V30 15243 H 2114.45 6.54213 -5.71376 0
M  V30 15244 H 2114.72 5.30492 -4.44033 0
M  V30 15245 H 2113.85 4.55889 -6.76652 0
M  V30 15246 P 2109.89 4.23843 -7.83734 0
M  V30 15247 O 2109.67 4.19407 -9.29784 0
M  V30 15248 O 2109.1 5.24426 -7.09156 0
M  V30 15249 O 2109.64 2.7935 -7.20758 0
M  V30 15250 C 2110.58 1.7299 -7.50419 0
M  V30 15251 C 2109.85 0.406376 -7.57911 0
M  V30 15252 O 2109.64 -0.0897726 -6.21935 0
M  V30 15253 C 2108.45 0.447224 -8.1878 0
M  V30 15254 O 2108.06 -0.825065 -8.71101 0
M  V30 15255 C 2107.57 0.783801 -6.99623 0
M  V30 15256 C 2108.28 0.0619192 -5.85967 0
M  V30 15257 N 2108.23 0.7859 -4.56281 0
M  V30 15258 H 2111.07 1.93423 -8.4679 0
M  V30 15259 H 2111.34 1.68181 -6.71046 0
M  V30 15260 H 2110.47 -0.289041 -8.15388 0
M  V30 15261 P 2106.51 -1.17771 -8.83182 0
M  V30 15262 O 2106.29 -2.07206 -9.98732 0
M  V30 15263 O 2105.72 0.0743816 -8.81969 0
M  V30 15264 O 2106.26 -1.97652 -7.47304 0
M  V30 15265 C 2107.2 -3.01055 -7.08599 0
M  V30 15266 C 2106.47 -4.12613 -6.37049 0
M  V30 15267 O 2106.26 -3.72827 -4.97879 0
M  V30 15268 C 2105.07 -4.45719 -6.88164 0
M  V30 15269 O 2104.68 -5.7877 -6.5624 0
M  V30 15270 C 2104.19 -3.47768 -6.11991 0
M  V30 15271 C 2104.9 -3.39356 -4.77615 0
M  V30 15272 N 2104.85 -2.04571 -4.15244 0
M  V30 15273 C 2104.7 -1.98587 -2.78314 0
M  V30 15274 O 2104.61 -2.98134 -2.08835 0
M  V30 15275 N 2104.66 -0.714467 -2.24925 0
M  V30 15276 C 2104.75 0.470001 -2.94169 0
M  V30 15277 C 2104.9 0.312541 -4.36783 0
M  V30 15278 C 2104.95 -0.914512 -4.92583 0
M  V30 15279 H 2107.69 -3.41169 -7.98575 0
M  V30 15280 H 2107.96 -2.58295 -6.41556 0
M  V30 15281 H 2107.09 -5.02657 -6.42673 0
M  V30 15282 H 2104.44 -4.11637 -4.08885 0
M  V30 15283 H 2104.16 -2.49626 -6.61679 0
M  V30 15284 H 2103.16 -3.86566 -6.00778 0
M  V30 15285 H 2105 -4.29943 -7.96918 0
M  V30 15286 H 2105.07 -1.00937 -6.00374 0
M  V30 15287 P 2103.13 -6.144 -6.45285 0
M  V30 15288 O 2102.91 -7.54673 -6.86199 0
M  V30 15289 O 2102.34 -5.12391 -7.179 0
M  V30 15290 O 2102.88 -5.99158 -4.88404 0
M  V30 15291 C 2103.82 -6.60062 -3.96313 0
M  V30 15292 C 2103.09 -7.08259 -2.72856 0
M  V30 15293 O 2102.88 -5.9427 -1.83651 0
M  V30 15294 C 2101.69 -7.65087 -2.94749 0
M  V30 15295 O 2101.3 -8.53963 -1.90717 0
M  V30 15296 C 2100.81 -6.41069 -2.90698 0
M  V30 15297 C 2101.52 -5.5528 -1.86931 0
M  V30 15298 N 2101.47 -4.09575 -2.15696 0
M  V30 15299 C 2101.32 -3.24249 -1.08435 0
M  V30 15300 O 2101.23 -3.63946 0.0628747 0
M  V30 15301 N 2101.28 -1.90009 -1.39973 0
M  V30 15302 C 2101.37 -1.34884 -2.65614 0
M  V30 15303 C 2101.52 -2.3145 -3.71736 0
M  V30 15304 C 2101.57 -3.63518 -3.44754 0
M  V30 15305 H 2104.31 -7.45402 -4.45526 0
M  V30 15306 H 2104.58 -5.86062 -3.67208 0
M  V30 15307 H 2103.71 -7.84412 -2.24479 0
M  V30 15308 H 2101.06 -5.73358 -0.888409 0
M  V30 15309 H 2100.78 -5.90877 -3.88583 0
M  V30 15310 H 2099.78 -6.65867 -2.58821 0
M  V30 15311 H 2101.62 -8.16248 -3.92006 0
M  V30 15312 H 2101.69 -4.34551 -4.26383 0
M  V30 15313 P 2099.75 -8.7635 -1.60911 0
M  V30 15314 O 2099.53 -10.1388 -1.11561 0
M  V30 15315 O 2098.96 -8.36503 -2.79617 0
M  V30 15316 O 2099.5 -7.71906 -0.429565 0
M  V30 15317 C 2100.44 -7.67148 0.673689 0
M  V30 15318 C 2099.71 -7.33666 1.94851 0
M  V30 15319 O 2099.5 -5.88816 2.00759 0
M  V30 15320 C 2098.31 -7.92526 2.10483 0
M  V30 15321 O 2097.92 -8.03063 3.47693 0
M  V30 15322 C 2097.43 -6.89602 1.41652 0
M  V30 15323 C 2098.14 -5.59201 1.75185 0
M  V30 15324 N 2098.09 -4.58235 0.662552 0
M  V30 15325 C 2097.94 -3.24451 1.01643 0
M  V30 15326 O 2097.85 -2.94958 2.21722 0
M  V30 15327 N 2097.89 -2.30408 -0.165238 0
M  V30 15328 C 2097.99 -2.66048 -1.25118 0
M  V30 15329 N 2097.94 -1.70787 -2.16813 0
M  V30 15330 C 2098.14 -4.02732 -1.64413 0
M  V30 15331 C 2098.19 -4.9488 -0.63991 0
M  V30 15332 H 2100.93 -8.65017 0.777072 0
M  V30 15333 H 2101.2 -6.90173 0.474152 0
M  V30 15334 H 2100.33 -7.66642 2.79492 0
M  V30 15335 H 2097.68 -5.16254 2.65229 0
M  V30 15336 H 2097.4 -7.06532 0.329431 0
M  V30 15337 H 2096.4 -6.91023 1.82047 0
M  V30 15338 H 2098.24 -8.90873 1.62657 0
M  V30 15339 H 2098.31 -6.00104 -0.892197 0
M  V30 15340 H 2098.21 -4.31733 -2.69229 0
M  V30 15341 H 2097.82 -0.724835 -1.8844 0
M  V30 15342 H 2098.02 -1.94716 -3.16734 0
M  V30 15343 P 2096.37 -8.03563 3.84925 0
M  V30 15344 O 2096.15 -8.85821 5.0569 0
M  V30 15345 O 2095.58 -8.41101 2.65469 0
M  V30 15346 O 2096.12 -6.4965 4.18908 0
M  V30 15347 C 2097.06 -5.81037 5.05421 0
M  V30 15348 C 2096.33 -4.78366 5.89277 0
M  V30 15349 O 2096.12 -3.58302 5.08433 0
M  V30 15350 C 2094.93 -5.17448 6.36119 0
M  V30 15351 O 2094.54 -4.45271 7.53232 0
M  V30 15352 C 2094.05 -4.74639 5.19936 0
M  V30 15353 C 2094.76 -3.49432 4.70418 0
M  V30 15354 N 2094.71 -3.31776 3.22945 0
M  V30 15355 H 2097.55 -6.54213 5.71376 0
M  V30 15356 H 2097.82 -5.30492 4.44033 0
M  V30 15357 H 2096.95 -4.55889 6.76652 0
M  V30 15358 P 2092.99 -4.23843 7.83734 0
M  V30 15359 O 2092.77 -4.19407 9.29784 0
M  V30 15360 O 2092.2 -5.24426 7.09156 0
M  V30 15361 O 2092.74 -2.7935 7.20758 0
M  V30 15362 C 2093.68 -1.7299 7.50419 0
M  V30 15363 C 2092.95 -0.406376 7.57911 0
M  V30 15364 O 2092.74 0.0897726 6.21935 0
M  V30 15365 C 2091.55 -0.447224 8.1878 0
M  V30 15366 O 2091.16 0.825065 8.71101 0
M  V30 15367 C 2090.67 -0.783801 6.99623 0
M  V30 15368 C 2091.38 -0.0619192 5.85967 0
M  V30 15369 N 2091.33 -0.7859 4.56281 0
M  V30 15370 H 2094.17 -1.93423 8.4679 0
M  V30 15371 H 2094.44 -1.68181 6.71046 0
M  V30 15372 H 2093.57 0.289041 8.15388 0
M  V30 15373 P 2089.61 1.17771 8.83182 0
M  V30 15374 O 2089.39 2.07206 9.98732 0
M  V30 15375 O 2088.82 -0.0743816 8.81969 0
M  V30 15376 O 2089.36 1.97652 7.47304 0
M  V30 15377 C 2090.3 3.01133 7.08783 0
M  V30 15378 C 2089.57 4.12613 6.37049 0
M  V30 15379 O 2089.36 3.72827 4.97879 0
M  V30 15380 C 2088.17 4.45085 6.88694 0
M  V30 15381 O 2087.78 5.7877 6.5624 0
M  V30 15382 C 2087.29 3.47817 6.12078 0
M  V30 15383 C 2088 3.39414 4.77697 0
M  V30 15384 N 2087.95 2.04615 4.15333 0
M  V30 15385 H 2090.79 3.41248 7.98759 0
M  V30 15386 H 2091.06 2.5837 6.41742 0
M  V30 15387 H 2090.19 5.02657 6.42673 0
M  V30 15388 P 2086.23 6.144 6.45285 0
M  V30 15389 O 2086.01 7.54673 6.86199 0
M  V30 15390 O 2085.44 5.12391 7.179 0
M  V30 15391 O 2085.98 5.99158 4.88404 0
M  V30 15392 C 2086.92 6.60234 3.96415 0
M  V30 15393 C 2086.19 7.08259 2.72856 0
M  V30 15394 O 2085.98 5.9427 1.83651 0
M  V30 15395 C 2084.79 7.64886 2.9555 0
M  V30 15396 O 2084.4 8.53963 1.90717 0
M  V30 15397 C 2083.91 6.4116 2.90739 0
M  V30 15398 C 2084.62 5.55375 1.86963 0
M  V30 15399 N 2084.57 4.09664 2.15742 0
M  V30 15400 C 2084.65 3.44381 3.37233 0
M  V30 15401 N 2084.57 2.14131 3.28347 0
M  V30 15402 C 2084.43 1.90247 1.91588 0
M  V30 15403 C 2084.3 0.683992 1.20892 0
M  V30 15404 N 2084.18 0.903396 -0.173998 0
M  V30 15405 C 2084.18 2.14171 -0.784879 0
M  V30 15406 N 2084.05 2.1435 -2.11317 0
M  V30 15407 N 2084.31 3.28784 -0.119316 0
M  V30 15408 C 2084.43 3.0977 1.22194 0
M  V30 15409 H 2087.41 7.45574 4.45629 0
M  V30 15410 H 2087.68 5.86232 3.67314 0
M  V30 15411 H 2086.81 7.84412 2.24479 0
M  V30 15412 P 2082.85 8.7635 1.60911 0
M  V30 15413 O 2082.63 10.1388 1.11561 0
M  V30 15414 O 2082.06 8.36503 2.79617 0
M  V30 15415 O 2082.6 7.71806 0.42951 0
M  V30 15416 C 2083.54 7.67148 -0.673689 0
M  V30 15417 C 2082.81 7.33374 -1.95559 0
M  V30 15418 O 2082.6 5.88721 -2.00726 0
M  V30 15419 C 2081.41 7.92526 -2.10483 0
M  V30 15420 O 2081.02 8.02971 -3.47653 0
M  V30 15421 C 2080.53 6.89602 -1.41652 0
M  V30 15422 C 2081.24 5.59201 -1.75185 0
M  V30 15423 N 2081.19 4.58235 -0.662552 0
M  V30 15424 H 2084.03 8.65116 -0.777161 0
M  V30 15425 H 2084.3 6.90173 -0.474152 0
M  V30 15426 H 2083.43 7.66548 -2.79458 0
M  V30 15427 P 2079.47 8.03563 -3.84925 0
M  V30 15428 O 2079.25 8.85821 -5.0569 0
M  V30 15429 O 2078.68 8.41101 -2.65469 0
M  V30 15430 O 2079.22 6.4965 -4.18908 0
M  V30 15431 C 2080.16 5.81037 -5.05421 0
M  V30 15432 C 2079.43 4.78366 -5.89277 0
M  V30 15433 O 2079.22 3.58302 -5.08433 0
M  V30 15434 C 2078.03 5.17448 -6.36119 0
M  V30 15435 O 2077.64 4.45271 -7.53232 0
M  V30 15436 C 2077.15 4.74639 -5.19936 0
M  V30 15437 C 2077.86 3.49432 -4.70418 0
M  V30 15438 N 2077.81 3.32099 -3.22613 0
M  V30 15439 C 2077.89 4.28245 -2.25527 0
M  V30 15440 N 2077.82 3.80823 -1.04874 0
M  V30 15441 C 2077.67 2.44571 -1.23535 0
M  V30 15442 C 2077.54 1.37068 -0.330675 0
M  V30 15443 N 2077.53 1.51472 0.990824 0
M  V30 15444 N 2077.42 0.138614 -0.848756 0
M  V30 15445 C 2077.43 -0.00675923 -2.16999 0
M  V30 15446 N 2077.55 0.904372 -3.11122 0
M  V30 15447 C 2077.67 2.12707 -2.56212 0
M  V30 15448 H 2080.65 6.54213 -5.71376 0
M  V30 15449 H 2080.92 5.30936 -4.43503 0
M  V30 15450 H 2080.05 4.55889 -6.76652 0
M  V30 15451 H 2077.4 2.61715 -5.17932 0
M  V30 15452 H 2077.12 5.52155 -4.41878 0
M  V30 15453 H 2076.12 4.51981 -5.53374 0
M  V30 15454 H 2077.96 6.25124 -6.55234 0
M  V30 15455 H 2078 5.34372 -2.47488 0
M  V30 15456 H 2077.62 2.45153 1.4078 0
M  V30 15457 H 2077.43 0.688422 1.59911 0
M  V30 15458 H 2077.32 -1.02584 -2.52346 0
M  V30 15459 P 2076.09 4.23843 -7.83734 0
M  V30 15460 O 2075.87 4.19407 -9.29784 0
M  V30 15461 O 2075.3 5.24426 -7.09156 0
M  V30 15462 O 2075.84 2.7935 -7.20758 0
M  V30 15463 C 2076.78 1.7299 -7.50419 0
M  V30 15464 C 2076.05 0.406376 -7.57911 0
M  V30 15465 O 2075.84 -0.0897726 -6.21935 0
M  V30 15466 C 2074.65 0.447224 -8.1878 0
M  V30 15467 O 2074.26 -0.825065 -8.71101 0
M  V30 15468 C 2073.77 0.783801 -6.99623 0
M  V30 15469 C 2074.48 0.0619192 -5.85967 0
M  V30 15470 N 2074.43 0.7859 -4.56281 0
M  V30 15471 H 2077.27 1.93423 -8.4679 0
M  V30 15472 H 2077.54 1.68181 -6.71046 0
M  V30 15473 H 2076.67 -0.289041 -8.15388 0
M  V30 15474 P 2072.71 -1.17771 -8.83182 0
M  V30 15475 O 2072.49 -2.07206 -9.98732 0
M  V30 15476 O 2071.92 0.0743816 -8.81969 0
M  V30 15477 O 2072.46 -1.97652 -7.47304 0
M  V30 15478 C 2073.4 -3.01133 -7.08783 0
M  V30 15479 C 2072.67 -4.12613 -6.37049 0
M  V30 15480 O 2072.46 -3.72827 -4.97879 0
M  V30 15481 C 2071.27 -4.45085 -6.88694 0
M  V30 15482 O 2070.88 -5.7877 -6.5624 0
M  V30 15483 C 2070.39 -3.47817 -6.12078 0
M  V30 15484 C 2071.1 -3.39414 -4.77697 0
M  V30 15485 N 2071.05 -2.04199 -4.15538 0
M  V30 15486 H 2073.89 -3.41248 -7.98759 0
M  V30 15487 H 2074.16 -2.57728 -6.42 0
M  V30 15488 H 2073.29 -5.02657 -6.42673 0
M  V30 15489 H 2070.64 -4.11708 -4.08956 0
M  V30 15490 H 2070.36 -2.49626 -6.61679 0
M  V30 15491 H 2069.36 -3.8662 -6.00862 0
M  V30 15492 H 2071.2 -4.29991 -7.97006 0
M  V30 15493 P 2069.33 -6.144 -6.45285 0
M  V30 15494 O 2069.11 -7.54673 -6.86199 0
M  V30 15495 O 2068.54 -5.12391 -7.179 0
M  V30 15496 O 2069.08 -5.99158 -4.88404 0
M  V30 15497 C 2070.02 -6.60234 -3.96415 0
M  V30 15498 C 2069.29 -7.08259 -2.72856 0
M  V30 15499 O 2069.08 -5.9427 -1.83651 0
M  V30 15500 C 2067.89 -7.64886 -2.9555 0
M  V30 15501 O 2067.5 -8.53963 -1.90717 0
M  V30 15502 C 2067.01 -6.4116 -2.90739 0
M  V30 15503 C 2067.72 -5.55375 -1.86963 0
M  V30 15504 N 2067.67 -4.09664 -2.15742 0
M  V30 15505 H 2070.51 -7.45574 -4.45629 0
M  V30 15506 H 2070.78 -5.86232 -3.67314 0
M  V30 15507 H 2069.91 -7.84412 -2.24479 0
M  V30 15508 P 2065.95 -8.7635 -1.60911 0
M  V30 15509 O 2065.73 -10.1388 -1.11561 0
M  V30 15510 O 2065.16 -8.36503 -2.79617 0
M  V30 15511 O 2065.7 -7.71806 -0.42951 0
M  V30 15512 C 2066.64 -7.67148 0.673689 0
M  V30 15513 C 2065.91 -7.33374 1.95559 0
M  V30 15514 O 2065.7 -5.88721 2.00726 0
M  V30 15515 C 2064.51 -7.92526 2.10483 0
M  V30 15516 O 2064.12 -8.02971 3.47653 0
M  V30 15517 C 2063.63 -6.89602 1.41652 0
M  V30 15518 C 2064.34 -5.59201 1.75185 0
M  V30 15519 N 2064.29 -4.58301 0.657969 0
M  V30 15520 C 2064.37 -4.79019 -0.692603 0
M  V30 15521 N 2064.3 -3.69736 -1.38998 0
M  V30 15522 C 2064.15 -2.70474 -0.438135 0
M  V30 15523 C 2064.02 -1.30327 -0.538142 0
M  V30 15524 N 2064.01 -0.64304 -1.69192 0
M  V30 15525 N 2063.9 -0.611027 0.605183 0
M  V30 15526 C 2063.91 -1.27002 1.75953 0
M  V30 15527 N 2064.03 -2.56038 1.98546 0
M  V30 15528 C 2064.15 -3.22681 0.822541 0
M  V30 15529 H 2067.13 -8.65116 0.777161 0
M  V30 15530 H 2067.4 -6.9022 0.46725 0
M  V30 15531 H 2066.53 -7.66548 2.79458 0
M  V30 15532 H 2063.88 -5.16165 2.65183 0
M  V30 15533 H 2063.6 -7.06433 0.329384 0
M  V30 15534 H 2062.6 -6.90926 1.82021 0
M  V30 15535 H 2064.44 -8.90873 1.62657 0
M  V30 15536 H 2064.48 -5.77785 -1.13874 0
M  V30 15537 H 2064.1 -1.15585 -2.57991 0
M  V30 15538 H 2063.91 0.382989 -1.69835 0
M  V30 15539 H 2063.8 -0.653331 2.64449 0
M  V30 15540 P 2062.57 -8.03563 3.84925 0
M  V30 15541 O 2062.35 -8.85821 5.0569 0
M  V30 15542 O 2061.78 -8.41101 2.65469 0
M  V30 15543 O 2062.32 -6.4965 4.18908 0
M  V30 15544 C 2063.26 -5.81037 5.05421 0
M  V30 15545 C 2062.53 -4.78366 5.89277 0
M  V30 15546 O 2062.32 -3.58302 5.08433 0
M  V30 15547 C 2061.13 -5.17448 6.36119 0
M  V30 15548 O 2060.74 -4.45271 7.53232 0
M  V30 15549 C 2060.25 -4.74639 5.19936 0
M  V30 15550 C 2060.96 -3.49432 4.70418 0
M  V30 15551 N 2060.91 -3.31776 3.22945 0
M  V30 15552 H 2063.75 -6.54213 5.71376 0
M  V30 15553 H 2064.02 -5.30492 4.44033 0
M  V30 15554 H 2063.15 -4.55889 6.76652 0
M  V30 15555 P 2059.19 -4.23843 7.83734 0
M  V30 15556 O 2058.97 -4.19407 9.29784 0
M  V30 15557 O 2058.4 -5.24426 7.09156 0
M  V30 15558 O 2058.94 -2.7935 7.20758 0
M  V30 15559 C 2059.88 -1.7299 7.50419 0
M  V30 15560 C 2059.15 -0.406376 7.57911 0
M  V30 15561 O 2058.94 0.0897726 6.21935 0
M  V30 15562 C 2057.75 -0.447224 8.1878 0
M  V30 15563 O 2057.36 0.825065 8.71101 0
M  V30 15564 C 2056.87 -0.783801 6.99623 0
M  V30 15565 C 2057.58 -0.0619192 5.85967 0
M  V30 15566 N 2057.53 -0.7859 4.56281 0
M  V30 15567 H 2060.37 -1.93423 8.4679 0
M  V30 15568 H 2060.64 -1.68181 6.71046 0
M  V30 15569 H 2059.77 0.289041 8.15388 0
M  V30 15570 P 2055.81 1.17771 8.83182 0
M  V30 15571 O 2055.59 2.07206 9.98732 0
M  V30 15572 O 2055.02 -0.0743816 8.81969 0
M  V30 15573 O 2055.56 1.97652 7.47304 0
M  V30 15574 C 2056.5 3.01133 7.08783 0
M  V30 15575 C 2055.77 4.12613 6.37049 0
M  V30 15576 O 2055.56 3.72827 4.97879 0
M  V30 15577 C 2054.37 4.45085 6.88694 0
M  V30 15578 O 2053.98 5.7877 6.5624 0
M  V30 15579 C 2053.49 3.47817 6.12078 0
M  V30 15580 C 2054.2 3.39414 4.77697 0
M  V30 15581 N 2054.15 2.04199 4.15538 0
M  V30 15582 H 2056.99 3.41248 7.98759 0
M  V30 15583 H 2057.26 2.57728 6.42 0
M  V30 15584 H 2056.39 5.02657 6.42673 0
M  V30 15585 H 2053.74 4.11708 4.08956 0
M  V30 15586 H 2053.46 2.49626 6.61679 0
M  V30 15587 H 2052.46 3.8662 6.00862 0
M  V30 15588 H 2054.3 4.29991 7.97006 0
M  V30 15589 P 2052.43 6.144 6.45285 0
M  V30 15590 O 2052.21 7.54673 6.86199 0
M  V30 15591 O 2051.64 5.12391 7.179 0
M  V30 15592 O 2052.18 5.99158 4.88404 0
M  V30 15593 C 2053.12 6.60234 3.96415 0
M  V30 15594 C 2052.39 7.08259 2.72856 0
M  V30 15595 O 2052.18 5.9427 1.83651 0
M  V30 15596 C 2050.99 7.64886 2.9555 0
M  V30 15597 O 2050.6 8.53963 1.90717 0
M  V30 15598 C 2050.11 6.4116 2.90739 0
M  V30 15599 C 2050.82 5.55375 1.86963 0
M  V30 15600 N 2050.77 4.09664 2.15742 0
M  V30 15601 H 2053.61 7.45574 4.45629 0
M  V30 15602 H 2053.88 5.86232 3.67314 0
M  V30 15603 H 2053.01 7.84412 2.24479 0
M  V30 15604 P 2049.05 8.7635 1.60911 0
M  V30 15605 O 2048.83 10.1388 1.11561 0
M  V30 15606 O 2048.26 8.36503 2.79617 0
M  V30 15607 O 2048.8 7.71806 0.42951 0
M  V30 15608 C 2049.74 7.67148 -0.673689 0
M  V30 15609 C 2049.01 7.33374 -1.95559 0
M  V30 15610 O 2048.8 5.88721 -2.00726 0
M  V30 15611 C 2047.61 7.92526 -2.10483 0
M  V30 15612 O 2047.22 8.02971 -3.47653 0
M  V30 15613 C 2046.73 6.89602 -1.41652 0
M  V30 15614 C 2047.44 5.59201 -1.75185 0
M  V30 15615 N 2047.39 4.58235 -0.662552 0
M  V30 15616 C 2047.47 4.7683 0.704049 0
M  V30 15617 N 2047.39 3.66233 1.39775 0
M  V30 15618 C 2047.25 2.66526 0.431739 0
M  V30 15619 C 2047.12 1.26394 0.575992 0
M  V30 15620 N 2047 0.62859 -0.67177 0
M  V30 15621 C 2047 1.27134 -1.89385 0
M  V30 15622 N 2046.87 0.492035 -2.96951 0
M  V30 15623 N 2047.13 2.58978 -2.02907 0
M  V30 15624 C 2047.25 3.22433 -0.832218 0
M  V30 15625 H 2050.23 8.65116 -0.777161 0
M  V30 15626 H 2050.5 6.90173 -0.474152 0
M  V30 15627 H 2049.63 7.66548 -2.79458 0
M  V30 15628 P 2045.67 8.03563 -3.84925 0
M  V30 15629 O 2045.45 8.85821 -5.0569 0
M  V30 15630 O 2044.88 8.41101 -2.65469 0
M  V30 15631 O 2045.42 6.4965 -4.18908 0
M  V30 15632 C 2046.36 5.81037 -5.05421 0
M  V30 15633 C 2045.63 4.78366 -5.89277 0
M  V30 15634 O 2045.42 3.58302 -5.08433 0
M  V30 15635 C 2044.23 5.17448 -6.36119 0
M  V30 15636 O 2043.84 4.45271 -7.53232 0
M  V30 15637 C 2043.35 4.74639 -5.19936 0
M  V30 15638 C 2044.06 3.49432 -4.70418 0
M  V30 15639 N 2044.01 3.31776 -3.22945 0
M  V30 15640 H 2046.85 6.54213 -5.71376 0
M  V30 15641 H 2047.12 5.30492 -4.44033 0
M  V30 15642 H 2046.25 4.55889 -6.76652 0
M  V30 15643 P 2042.29 4.23843 -7.83734 0
M  V30 15644 O 2042.07 4.19407 -9.29784 0
M  V30 15645 O 2041.5 5.24426 -7.09156 0
M  V30 15646 O 2042.04 2.7935 -7.20758 0
M  V30 15647 C 2042.98 1.7299 -7.50419 0
M  V30 15648 C 2042.25 0.406376 -7.57911 0
M  V30 15649 O 2042.04 -0.0897726 -6.21935 0
M  V30 15650 C 2040.85 0.447224 -8.1878 0
M  V30 15651 O 2040.46 -0.825065 -8.71101 0
M  V30 15652 C 2039.97 0.783801 -6.99623 0
M  V30 15653 C 2040.68 0.0619192 -5.85967 0
M  V30 15654 N 2040.63 0.7859 -4.56281 0
M  V30 15655 H 2043.47 1.93423 -8.4679 0
M  V30 15656 H 2043.74 1.68181 -6.71046 0
M  V30 15657 H 2042.87 -0.289041 -8.15388 0
M  V30 15658 P 2038.91 -1.17771 -8.83182 0
M  V30 15659 O 2038.69 -2.07206 -9.98732 0
M  V30 15660 O 2038.12 0.0743816 -8.81969 0
M  V30 15661 O 2038.66 -1.97652 -7.47304 0
M  V30 15662 C 2039.6 -3.01055 -7.08599 0
M  V30 15663 C 2038.87 -4.12613 -6.37049 0
M  V30 15664 O 2038.66 -3.72827 -4.97879 0
M  V30 15665 C 2037.47 -4.45719 -6.88164 0
M  V30 15666 O 2037.08 -5.7877 -6.5624 0
M  V30 15667 C 2036.59 -3.47768 -6.11991 0
M  V30 15668 C 2037.3 -3.39356 -4.77615 0
M  V30 15669 N 2037.25 -2.04571 -4.15244 0
M  V30 15670 C 2037.1 -1.98587 -2.78314 0
M  V30 15671 O 2037.01 -2.98134 -2.08835 0
M  V30 15672 N 2037.06 -0.714467 -2.24925 0
M  V30 15673 C 2037.15 0.470001 -2.94169 0
M  V30 15674 O 2037.1 1.55587 -2.35195 0
M  V30 15675 C 2037.3 0.312541 -4.36783 0
M  V30 15676 C 2037.41 1.57711 -5.16352 0
M  V30 15677 C 2037.35 -0.914512 -4.92583 0
M  V30 15678 H 2040.09 -3.41169 -7.98575 0
M  V30 15679 H 2040.36 -2.58295 -6.41556 0
M  V30 15680 H 2039.49 -5.02657 -6.42673 0
M  V30 15681 H 2036.84 -4.11637 -4.08885 0
M  V30 15682 H 2036.56 -2.49626 -6.61679 0
M  V30 15683 H 2035.56 -3.86566 -6.00778 0
M  V30 15684 H 2037.4 -4.29943 -7.96918 0
M  V30 15685 H 2037.47 -1.00937 -6.00374 0
M  V30 15686 H 2036.44 1.80153 -5.63503 0
M  V30 15687 H 2038.18 1.4566 -5.94104 0
M  V30 15688 H 2037.69 2.40664 -4.49645 0
M  V30 15689 H 2036.95 -0.647622 -1.25697 0
M  V30 15690 P 2035.53 -6.144 -6.45285 0
M  V30 15691 O 2035.31 -7.54673 -6.86199 0
M  V30 15692 O 2034.74 -5.12391 -7.179 0
M  V30 15693 O 2035.28 -5.99236 -4.88467 0
M  V30 15694 C 2036.22 -6.60234 -3.96415 0
M  V30 15695 C 2035.49 -7.08079 -2.736 0
M  V30 15696 O 2035.28 -5.94365 -1.8368 0
M  V30 15697 C 2034.09 -7.64886 -2.9555 0
M  V30 15698 O 2033.7 -8.5406 -1.90739 0
M  V30 15699 C 2033.21 -6.4116 -2.90739 0
M  V30 15700 C 2033.92 -5.55375 -1.86963 0
M  V30 15701 N 2033.87 -4.09664 -2.15742 0
M  V30 15702 C 2033.72 -3.22231 -1.08477 0
M  V30 15703 O 2033.63 -3.68951 0.0600489 0
M  V30 15704 N 2033.67 -1.76692 -1.48799 0
M  V30 15705 C 2033.77 -1.41695 -2.57602 0
M  V30 15706 N 2033.72 -0.107296 -2.75791 0
M  V30 15707 C 2033.92 -2.29178 -3.69733 0
M  V30 15708 C 2033.97 -3.62753 -3.42653 0
M  V30 15709 H 2036.71 -7.45488 -4.45578 0
M  V30 15710 H 2036.98 -5.86232 -3.67314 0
M  V30 15711 H 2036.11 -7.84508 -2.24507 0
M  V30 15712 H 2033.46 -5.73556 -0.888715 0
M  V30 15713 H 2033.18 -5.9096 -3.88638 0
M  V30 15714 H 2032.18 -6.66053 -2.58894 0
M  V30 15715 H 2034.02 -8.16339 -3.92049 0
M  V30 15716 H 2034.09 -4.33052 -4.24913 0
M  V30 15717 H 2033.99 -1.9103 -4.71577 0
M  V30 15718 H 2033.6 0.521221 -1.95056 0
M  V30 15719 H 2033.8 0.286429 -3.70695 0
M  V30 15720 P 2032.15 -8.7635 -1.60911 0
M  V30 15721 O 2031.93 -10.1388 -1.11561 0
M  V30 15722 O 2031.36 -8.36503 -2.79617 0
M  V30 15723 O 2031.9 -7.71806 -0.42951 0
M  V30 15724 C 2032.84 -7.66948 0.673514 0
M  V30 15725 C 2032.11 -7.33374 1.95559 0
M  V30 15726 O 2031.9 -5.88721 2.00726 0
M  V30 15727 C 2030.71 -7.92218 2.1125 0
M  V30 15728 O 2030.32 -8.02971 3.47653 0
M  V30 15729 C 2029.83 -6.89504 1.41631 0
M  V30 15730 C 2030.54 -5.59106 1.75155 0
M  V30 15731 N 2030.49 -4.58136 0.662409 0
M  V30 15732 C 2030.34 -3.26059 1.02863 0
M  V30 15733 O 2030.25 -2.90743 2.19009 0
M  V30 15734 N 2030.3 -2.35995 -0.0155585 0
M  V30 15735 C 2030.39 -2.65248 -1.35603 0
M  V30 15736 C 2030.54 -4.05747 -1.64698 0
M  V30 15737 C 2030.59 -4.96734 -0.652411 0
M  V30 15738 H 2033.33 -8.64917 0.776982 0
M  V30 15739 H 2033.6 -6.89974 0.474015 0
M  V30 15740 H 2032.73 -7.66548 2.79458 0
M  V30 15741 H 2030.08 -5.16076 2.65138 0
M  V30 15742 H 2029.8 -7.06433 0.329384 0
M  V30 15743 H 2028.8 -6.90829 1.81996 0
M  V30 15744 H 2030.64 -8.90774 1.62639 0
M  V30 15745 H 2030.71 -6.02181 -0.895285 0
M  V30 15746 P 2028.77 -8.03563 3.84925 0
M  V30 15747 O 2028.55 -8.85821 5.0569 0
M  V30 15748 O 2027.98 -8.41101 2.65469 0
M  V30 15749 O 2028.52 -6.4965 4.18908 0
M  V30 15750 C 2029.46 -5.81037 5.05421 0
M  V30 15751 C 2028.73 -4.78366 5.89277 0
M  V30 15752 O 2028.52 -3.58302 5.08433 0
M  V30 15753 C 2027.33 -5.17448 6.36119 0
M  V30 15754 O 2026.94 -4.45271 7.53232 0
M  V30 15755 C 2026.45 -4.74639 5.19936 0
M  V30 15756 C 2027.16 -3.49432 4.70418 0
M  V30 15757 N 2027.11 -3.32099 3.22613 0
M  V30 15758 C 2027.19 -4.28245 2.25527 0
M  V30 15759 N 2027.12 -3.80823 1.04874 0
M  V30 15760 C 2026.97 -2.44571 1.23535 0
M  V30 15761 C 2026.84 -1.37068 0.330675 0
M  V30 15762 N 2026.83 -1.51472 -0.990824 0
M  V30 15763 N 2026.72 -0.138614 0.848756 0
M  V30 15764 C 2026.73 0.00675923 2.16999 0
M  V30 15765 N 2026.85 -0.904372 3.11122 0
M  V30 15766 C 2026.97 -2.12707 2.56212 0
M  V30 15767 H 2029.95 -6.54213 5.71376 0
M  V30 15768 H 2030.22 -5.30936 4.43503 0
M  V30 15769 H 2029.35 -4.55889 6.76652 0
M  V30 15770 H 2026.7 -2.61715 5.17932 0
M  V30 15771 H 2026.42 -5.52155 4.41878 0
M  V30 15772 H 2025.43 -4.51981 5.53374 0
M  V30 15773 H 2027.26 -6.25124 6.55234 0
M  V30 15774 H 2027.3 -5.34372 2.47488 0
M  V30 15775 H 2026.92 -2.45153 -1.4078 0
M  V30 15776 H 2026.73 -0.688422 -1.59911 0
M  V30 15777 H 2026.62 1.02584 2.52346 0
M  V30 15778 P 2025.39 -4.23843 7.83734 0
M  V30 15779 O 2025.17 -4.19407 9.29784 0
M  V30 15780 O 2024.6 -5.24426 7.09156 0
M  V30 15781 O 2025.14 -2.7935 7.20758 0
M  V30 15782 C 2026.08 -1.7299 7.50419 0
M  V30 15783 C 2025.35 -0.406376 7.57911 0
M  V30 15784 O 2025.14 0.0897726 6.21935 0
M  V30 15785 C 2023.95 -0.447224 8.1878 0
M  V30 15786 O 2023.56 0.825065 8.71101 0
M  V30 15787 C 2023.07 -0.783801 6.99623 0
M  V30 15788 C 2023.78 -0.0619192 5.85967 0
M  V30 15789 N 2023.73 -0.7859 4.56281 0
M  V30 15790 H 2026.57 -1.93423 8.4679 0
M  V30 15791 H 2026.84 -1.68181 6.71046 0
M  V30 15792 H 2025.97 0.289041 8.15388 0
M  V30 15793 P 2022.01 1.17771 8.83182 0
M  V30 15794 O 2021.79 2.07206 9.98732 0
M  V30 15795 O 2021.22 -0.0743816 8.81969 0
M  V30 15796 O 2021.76 1.97652 7.47304 0
M  V30 15797 C 2022.7 3.01133 7.08783 0
M  V30 15798 C 2021.97 4.12613 6.37049 0
M  V30 15799 O 2021.76 3.72827 4.97879 0
M  V30 15800 C 2020.57 4.45085 6.88694 0
M  V30 15801 O 2020.18 5.7877 6.5624 0
M  V30 15802 C 2019.69 3.47817 6.12078 0
M  V30 15803 C 2020.4 3.39414 4.77697 0
M  V30 15804 N 2020.35 2.04615 4.15333 0
M  V30 15805 H 2023.19 3.41248 7.98759 0
M  V30 15806 H 2023.46 2.5837 6.41742 0
M  V30 15807 H 2022.59 5.02657 6.42673 0
M  V30 15808 P 2018.63 6.144 6.45285 0
M  V30 15809 O 2018.41 7.54673 6.86199 0
M  V30 15810 O 2017.84 5.12391 7.179 0
M  V30 15811 O 2018.38 5.99158 4.88404 0
M  V30 15812 C 2019.32 6.60234 3.96415 0
M  V30 15813 C 2018.59 7.08259 2.72856 0
M  V30 15814 O 2018.38 5.9427 1.83651 0
M  V30 15815 C 2017.19 7.64886 2.9555 0
M  V30 15816 O 2016.8 8.53963 1.90717 0
M  V30 15817 C 2016.31 6.4116 2.90739 0
M  V30 15818 C 2017.02 5.55375 1.86963 0
M  V30 15819 N 2016.97 4.09664 2.15742 0
M  V30 15820 H 2019.81 7.45574 4.45629 0
M  V30 15821 H 2020.08 5.86232 3.67314 0
M  V30 15822 H 2019.21 7.84412 2.24479 0
M  V30 15823 P 2015.25 8.7635 1.60911 0
M  V30 15824 O 2015.03 10.1388 1.11561 0
M  V30 15825 O 2014.46 8.36503 2.79617 0
M  V30 15826 O 2015 7.71806 0.42951 0
M  V30 15827 C 2015.94 7.67148 -0.673689 0
M  V30 15828 C 2015.21 7.33374 -1.95559 0
M  V30 15829 O 2015 5.88721 -2.00726 0
M  V30 15830 C 2013.81 7.92526 -2.10483 0
M  V30 15831 O 2013.42 8.02971 -3.47653 0
M  V30 15832 C 2012.93 6.89602 -1.41652 0
M  V30 15833 C 2013.64 5.59201 -1.75185 0
M  V30 15834 N 2013.59 4.58235 -0.662552 0
M  V30 15835 H 2016.43 8.65116 -0.777161 0
M  V30 15836 H 2016.7 6.90173 -0.474152 0
M  V30 15837 H 2015.83 7.66548 -2.79458 0
M  V30 15838 P 2011.87 8.03563 -3.84925 0
M  V30 15839 O 2011.65 8.85821 -5.0569 0
M  V30 15840 O 2011.08 8.41101 -2.65469 0
M  V30 15841 O 2011.62 6.4965 -4.18908 0
M  V30 15842 C 2012.56 5.81037 -5.05421 0
M  V30 15843 C 2011.83 4.78366 -5.89277 0
M  V30 15844 O 2011.62 3.58302 -5.08433 0
M  V30 15845 C 2010.43 5.17448 -6.36119 0
M  V30 15846 O 2010.04 4.45271 -7.53232 0
M  V30 15847 C 2009.55 4.74639 -5.19936 0
M  V30 15848 C 2010.26 3.49432 -4.70418 0
M  V30 15849 N 2010.21 3.31776 -3.22945 0
M  V30 15850 H 2013.05 6.54213 -5.71376 0
M  V30 15851 H 2013.32 5.30492 -4.44033 0
M  V30 15852 H 2012.45 4.55889 -6.76652 0
M  V30 15853 P 2008.49 4.23843 -7.83734 0
M  V30 15854 O 2008.27 4.19407 -9.29784 0
M  V30 15855 O 2007.7 5.24426 -7.09156 0
M  V30 15856 O 2008.24 2.7935 -7.20758 0
M  V30 15857 C 2009.18 1.7299 -7.50419 0
M  V30 15858 C 2008.45 0.406376 -7.57911 0
M  V30 15859 O 2008.24 -0.0897726 -6.21935 0
M  V30 15860 C 2007.05 0.447224 -8.1878 0
M  V30 15861 O 2006.66 -0.825065 -8.71101 0
M  V30 15862 C 2006.17 0.783801 -6.99623 0
M  V30 15863 C 2006.88 0.0619192 -5.85967 0
M  V30 15864 N 2006.83 0.7859 -4.56281 0
M  V30 15865 H 2009.67 1.93423 -8.4679 0
M  V30 15866 H 2009.94 1.68181 -6.71046 0
M  V30 15867 H 2009.07 -0.289041 -8.15388 0
M  V30 15868 P 2005.11 -1.17771 -8.83182 0
M  V30 15869 O 2004.89 -2.07206 -9.98732 0
M  V30 15870 O 2004.32 0.0743816 -8.81969 0
M  V30 15871 O 2004.86 -1.97652 -7.47304 0
M  V30 15872 C 2005.8 -3.01133 -7.08783 0
M  V30 15873 C 2005.07 -4.12613 -6.37049 0
M  V30 15874 O 2004.86 -3.72827 -4.97879 0
M  V30 15875 C 2003.67 -4.45085 -6.88694 0
M  V30 15876 O 2003.28 -5.7877 -6.5624 0
M  V30 15877 C 2002.79 -3.47817 -6.12078 0
M  V30 15878 C 2003.5 -3.39414 -4.77697 0
M  V30 15879 N 2003.45 -2.04615 -4.15333 0
M  V30 15880 H 2006.29 -3.41248 -7.98759 0
M  V30 15881 H 2006.56 -2.5837 -6.41742 0
M  V30 15882 H 2005.69 -5.02657 -6.42673 0
M  V30 15883 P 2001.73 -6.144 -6.45285 0
M  V30 15884 O 2001.51 -7.54673 -6.86199 0
M  V30 15885 O 2000.94 -5.12391 -7.179 0
M  V30 15886 O 2001.48 -5.99236 -4.88467 0
M  V30 15887 C 2002.42 -6.60234 -3.96415 0
M  V30 15888 C 2001.69 -7.08079 -2.736 0
M  V30 15889 O 2001.48 -5.94365 -1.8368 0
M  V30 15890 C 2000.29 -7.64886 -2.9555 0
M  V30 15891 O 1999.9 -8.5406 -1.90739 0
M  V30 15892 C 1999.41 -6.4116 -2.90739 0
M  V30 15893 C 2000.12 -5.55375 -1.86963 0
M  V30 15894 N 2000.07 -4.09664 -2.15742 0
M  V30 15895 C 1999.92 -3.22231 -1.08477 0
M  V30 15896 O 1999.83 -3.68951 0.0600489 0
M  V30 15897 N 1999.87 -1.76692 -1.48799 0
M  V30 15898 C 1999.97 -1.41695 -2.57602 0
M  V30 15899 N 1999.92 -0.107296 -2.75791 0
M  V30 15900 C 2000.12 -2.29178 -3.69733 0
M  V30 15901 C 2000.17 -3.62753 -3.42653 0
M  V30 15902 H 2002.91 -7.45488 -4.45578 0
M  V30 15903 H 2003.18 -5.86232 -3.67314 0
M  V30 15904 H 2002.31 -7.84508 -2.24507 0
M  V30 15905 H 1999.66 -5.73556 -0.888715 0
M  V30 15906 H 1999.38 -5.9096 -3.88638 0
M  V30 15907 H 1998.39 -6.66053 -2.58894 0
M  V30 15908 H 2000.22 -8.16339 -3.92049 0
M  V30 15909 H 2000.29 -4.33052 -4.24913 0
M  V30 15910 H 2000.19 -1.9103 -4.71577 0
M  V30 15911 H 1999.8 0.521221 -1.95056 0
M  V30 15912 H 2000 0.286429 -3.70695 0
M  V30 15913 P 1998.35 -8.7635 -1.60911 0
M  V30 15914 O 1998.13 -10.1388 -1.11561 0
M  V30 15915 O 1997.56 -8.36503 -2.79617 0
M  V30 15916 O 1998.1 -7.71806 -0.42951 0
M  V30 15917 C 1999.04 -7.67148 0.673689 0
M  V30 15918 C 1998.31 -7.33374 1.95559 0
M  V30 15919 O 1998.1 -5.88721 2.00726 0
M  V30 15920 C 1996.91 -7.92526 2.10483 0
M  V30 15921 O 1996.52 -8.02971 3.47653 0
M  V30 15922 C 1996.03 -6.89602 1.41652 0
M  V30 15923 C 1996.74 -5.59201 1.75185 0
M  V30 15924 N 1996.69 -4.58235 0.662552 0
M  V30 15925 H 1999.53 -8.65116 0.777161 0
M  V30 15926 H 1999.8 -6.90173 0.474152 0
M  V30 15927 H 1998.93 -7.66548 2.79458 0
M  V30 15928 P 1994.97 -8.03563 3.84925 0
M  V30 15929 O 1994.75 -8.85821 5.0569 0
M  V30 15930 O 1994.18 -8.41101 2.65469 0
M  V30 15931 O 1994.72 -6.4965 4.18908 0
M  V30 15932 C 1995.66 -5.81037 5.05421 0
M  V30 15933 C 1994.93 -4.78366 5.89277 0
M  V30 15934 O 1994.72 -3.58302 5.08433 0
M  V30 15935 C 1993.53 -5.17448 6.36119 0
M  V30 15936 O 1993.14 -4.45271 7.53232 0
M  V30 15937 C 1992.65 -4.74639 5.19936 0
M  V30 15938 C 1993.36 -3.49432 4.70418 0
M  V30 15939 N 1993.31 -3.32099 3.22613 0
M  V30 15940 H 1996.15 -6.54213 5.71376 0
M  V30 15941 H 1996.42 -5.30936 4.43503 0
M  V30 15942 H 1995.55 -4.55889 6.76652 0
M  V30 15943 H 1992.9 -2.61715 5.17932 0
M  V30 15944 H 1992.62 -5.52155 4.41878 0
M  V30 15945 H 1991.63 -4.51981 5.53374 0
M  V30 15946 H 1993.46 -6.25124 6.55234 0
M  V30 15947 P 1991.59 -4.23843 7.83734 0
M  V30 15948 O 1991.37 -4.19407 9.29784 0
M  V30 15949 O 1990.8 -5.24426 7.09156 0
M  V30 15950 O 1991.34 -2.7935 7.20758 0
M  V30 15951 C 1992.28 -1.7299 7.50419 0
M  V30 15952 C 1991.55 -0.406376 7.57911 0
M  V30 15953 O 1991.34 0.0897726 6.21935 0
M  V30 15954 C 1990.15 -0.447224 8.1878 0
M  V30 15955 O 1989.76 0.825065 8.71101 0
M  V30 15956 C 1989.27 -0.783801 6.99623 0
M  V30 15957 C 1989.98 -0.0619192 5.85967 0
M  V30 15958 N 1989.93 -0.7859 4.56281 0
M  V30 15959 H 1992.77 -1.93423 8.4679 0
M  V30 15960 H 1993.04 -1.68181 6.71046 0
M  V30 15961 H 1992.17 0.289041 8.15388 0
M  V30 15962 P 1988.21 1.17771 8.83182 0
M  V30 15963 O 1987.99 2.07206 9.98732 0
M  V30 15964 O 1987.42 -0.0743816 8.81969 0
M  V30 15965 O 1987.96 1.97652 7.47304 0
M  V30 15966 C 1988.9 3.01133 7.08783 0
M  V30 15967 C 1988.17 4.12613 6.37049 0
M  V30 15968 O 1987.96 3.72827 4.97879 0
M  V30 15969 C 1986.77 4.45085 6.88694 0
M  V30 15970 O 1986.38 5.7877 6.5624 0
M  V30 15971 C 1985.89 3.47817 6.12078 0
M  V30 15972 C 1986.6 3.39414 4.77697 0
M  V30 15973 N 1986.55 2.04615 4.15333 0
M  V30 15974 H 1989.39 3.41248 7.98759 0
M  V30 15975 H 1989.66 2.5837 6.41742 0
M  V30 15976 H 1988.79 5.02657 6.42673 0
M  V30 15977 P 1984.83 6.144 6.45285 0
M  V30 15978 O 1984.61 7.54673 6.86199 0
M  V30 15979 O 1984.04 5.12391 7.179 0
M  V30 15980 O 1984.58 5.99158 4.88404 0
M  V30 15981 C 1985.52 6.60234 3.96415 0
M  V30 15982 C 1984.79 7.08259 2.72856 0
M  V30 15983 O 1984.58 5.9427 1.83651 0
M  V30 15984 C 1983.39 7.64886 2.9555 0
M  V30 15985 O 1983 8.53963 1.90717 0
M  V30 15986 C 1982.51 6.4116 2.90739 0
M  V30 15987 C 1983.22 5.55375 1.86963 0
M  V30 15988 N 1983.17 4.09448 2.16152 0
M  V30 15989 H 1986.01 7.45574 4.45629 0
M  V30 15990 H 1986.28 5.85864 3.679 0
M  V30 15991 H 1985.41 7.84412 2.24479 0
M  V30 15992 H 1982.76 5.73457 0.888562 0
M  V30 15993 H 1982.48 5.90877 3.88583 0
M  V30 15994 H 1981.49 6.6596 2.58858 0
M  V30 15995 H 1983.32 8.16339 3.92049 0
M  V30 15996 P 1981.45 8.7635 1.60911 0
M  V30 15997 O 1981.23 10.1388 1.11561 0
M  V30 15998 O 1980.66 8.36503 2.79617 0
M  V30 15999 O 1981.2 7.71806 0.42951 0
M  V30 16000 C 1982.14 7.67148 -0.673689 0
M  V30 16001 C 1981.41 7.33374 -1.95559 0
M  V30 16002 O 1981.2 5.88721 -2.00726 0
M  V30 16003 C 1980.01 7.92526 -2.10483 0
M  V30 16004 O 1979.62 8.02971 -3.47653 0
M  V30 16005 C 1979.13 6.89602 -1.41652 0
M  V30 16006 C 1979.84 5.59201 -1.75185 0
M  V30 16007 N 1979.79 4.58301 -0.657969 0
M  V30 16008 H 1982.63 8.65116 -0.777161 0
M  V30 16009 H 1982.9 6.9022 -0.46725 0
M  V30 16010 H 1982.03 7.66548 -2.79458 0
M  V30 16011 H 1979.38 5.16165 -2.65183 0
M  V30 16012 H 1979.1 7.06433 -0.329384 0
M  V30 16013 H 1978.11 6.90926 -1.82021 0
M  V30 16014 H 1979.94 8.90873 -1.62657 0
M  V30 16015 P 1978.07 8.03563 -3.84925 0
M  V30 16016 O 1977.85 8.85821 -5.0569 0
M  V30 16017 O 1977.28 8.41101 -2.65469 0
M  V30 16018 O 1977.82 6.4965 -4.18908 0
M  V30 16019 C 1978.76 5.81037 -5.05421 0
M  V30 16020 C 1978.03 4.78366 -5.89277 0
M  V30 16021 O 1977.82 3.58302 -5.08433 0
M  V30 16022 C 1976.63 5.17448 -6.36119 0
M  V30 16023 O 1976.24 4.45271 -7.53232 0
M  V30 16024 C 1975.75 4.74639 -5.19936 0
M  V30 16025 C 1976.46 3.49432 -4.70418 0
M  V30 16026 N 1976.41 3.32099 -3.22613 0
M  V30 16027 H 1979.25 6.54213 -5.71376 0
M  V30 16028 H 1979.52 5.30936 -4.43503 0
M  V30 16029 H 1978.65 4.55889 -6.76652 0
M  V30 16030 H 1976 2.61715 -5.17932 0
M  V30 16031 H 1975.72 5.52155 -4.41878 0
M  V30 16032 H 1974.73 4.51981 -5.53374 0
M  V30 16033 H 1976.56 6.25124 -6.55234 0
M  V30 16034 P 1974.69 4.23843 -7.83734 0
M  V30 16035 O 1974.47 4.19407 -9.29784 0
M  V30 16036 O 1973.9 5.24426 -7.09156 0
M  V30 16037 O 1974.44 2.7935 -7.20758 0
M  V30 16038 C 1975.38 1.7299 -7.50419 0
M  V30 16039 C 1974.65 0.406376 -7.57911 0
M  V30 16040 O 1974.44 -0.0897726 -6.21935 0
M  V30 16041 C 1973.25 0.447224 -8.1878 0
M  V30 16042 O 1972.86 -0.825065 -8.71101 0
M  V30 16043 C 1972.37 0.783801 -6.99623 0
M  V30 16044 C 1973.08 0.0619192 -5.85967 0
M  V30 16045 N 1973.03 0.790462 -4.56202 0
M  V30 16046 C 1973.11 2.13895 -4.34171 0
M  V30 16047 N 1973.04 2.46449 -3.08687 0
M  V30 16048 C 1972.89 1.2525 -2.43697 0
M  V30 16049 C 1972.76 0.914535 -1.07318 0
M  V30 16050 N 1972.75 1.80782 -0.0887348 0
M  V30 16051 N 1972.64 -0.386745 -0.768133 0
M  V30 16052 C 1972.65 -1.28096 -1.75159 0
M  V30 16053 N 1972.77 -1.09708 -3.04861 0
M  V30 16054 C 1972.89 0.214857 -3.32306 0
M  V30 16055 H 1975.87 1.93423 -8.4679 0
M  V30 16056 H 1976.14 1.68852 -6.70877 0
M  V30 16057 H 1975.27 -0.289041 -8.15388 0
M  V30 16058 H 1972.62 -0.927006 -5.72848 0
M  V30 16059 H 1972.34 1.86973 -6.82036 0
M  V30 16060 H 1971.35 0.403953 -7.13357 0
M  V30 16061 H 1973.18 1.20599 -8.97534 0
M  V30 16062 H 1973.22 2.86846 -5.14318 0
M  V30 16063 H 1972.84 2.81082 -0.302037 0
M  V30 16064 H 1972.65 1.49688 0.889064 0
M  V30 16065 H 1972.54 -2.31317 -1.43855 0
M  V30 16066 P 1971.31 -1.17771 -8.83182 0
M  V30 16067 O 1971.09 -2.07206 -9.98732 0
M  V30 16068 O 1970.52 0.0743816 -8.81969 0
M  V30 16069 O 1971.06 -1.97652 -7.47304 0
M  V30 16070 C 1972 -3.01133 -7.08783 0
M  V30 16071 C 1971.27 -4.12613 -6.37049 0
M  V30 16072 O 1971.06 -3.72827 -4.97879 0
M  V30 16073 C 1969.87 -4.45085 -6.88694 0
M  V30 16074 O 1969.48 -5.7877 -6.5624 0
M  V30 16075 C 1968.99 -3.47817 -6.12078 0
M  V30 16076 C 1969.7 -3.39414 -4.77697 0
M  V30 16077 N 1969.65 -2.04199 -4.15538 0
M  V30 16078 C 1969.73 -0.821545 -4.76977 0
M  V30 16079 N 1969.66 0.1794 -3.94592 0
M  V30 16080 C 1969.51 -0.419121 -2.70776 0
M  V30 16081 C 1969.38 0.109072 -1.40577 0
M  V30 16082 N 1969.37 1.4104 -1.1344 0
M  V30 16083 N 1969.26 -0.764381 -0.39411 0
M  V30 16084 C 1969.27 -2.06587 -0.664135 0
M  V30 16085 N 1969.39 -2.67948 -1.82153 0
M  V30 16086 C 1969.51 -1.77942 -2.8147 0
M  V30 16087 H 1972.49 -3.41248 -7.98759 0
M  V30 16088 H 1972.76 -2.57728 -6.42 0
M  V30 16089 H 1971.89 -5.02657 -6.42673 0
M  V30 16090 H 1969.24 -4.11708 -4.08956 0
M  V30 16091 H 1968.96 -2.49626 -6.61679 0
M  V30 16092 H 1967.97 -3.8662 -6.00862 0
M  V30 16093 H 1969.8 -4.29991 -7.97006 0
M  V30 16094 H 1969.84 -0.702451 -5.84696 0
M  V30 16095 H 1969.46 2.09647 -1.89651 0
M  V30 16096 H 1969.27 1.73358 -0.160575 0
M  V30 16097 H 1969.16 -2.71695 0.195838 0
M  V30 16098 P 1967.93 -6.144 -6.45285 0
M  V30 16099 O 1967.71 -7.54673 -6.86199 0
M  V30 16100 O 1967.14 -5.12391 -7.179 0
M  V30 16101 O 1967.68 -5.99158 -4.88404 0
M  V30 16102 C 1968.62 -6.60234 -3.96415 0
M  V30 16103 C 1967.89 -7.08259 -2.72856 0
M  V30 16104 O 1967.68 -5.9427 -1.83651 0
M  V30 16105 C 1966.49 -7.64886 -2.9555 0
M  V30 16106 O 1966.1 -8.53963 -1.90717 0
M  V30 16107 C 1965.61 -6.4116 -2.90739 0
M  V30 16108 C 1966.32 -5.55375 -1.86963 0
M  V30 16109 N 1966.27 -4.09664 -2.15742 0
M  V30 16110 H 1969.11 -7.45574 -4.45629 0
M  V30 16111 H 1969.38 -5.86232 -3.67314 0
M  V30 16112 H 1968.51 -7.84412 -2.24479 0
M  V30 16113 P 1964.55 -8.7635 -1.60911 0
M  V30 16114 O 1964.33 -10.1388 -1.11561 0
M  V30 16115 O 1963.76 -8.36503 -2.79617 0
M  V30 16116 O 1964.3 -7.71806 -0.42951 0
M  V30 16117 C 1965.24 -7.67148 0.673689 0
M  V30 16118 C 1964.51 -7.33374 1.95559 0
M  V30 16119 O 1964.3 -5.88721 2.00726 0
M  V30 16120 C 1963.11 -7.92526 2.10483 0
M  V30 16121 O 1962.72 -8.02971 3.47653 0
M  V30 16122 C 1962.23 -6.89602 1.41652 0
M  V30 16123 C 1962.94 -5.59201 1.75185 0
M  V30 16124 N 1962.89 -4.58301 0.657969 0
M  V30 16125 H 1965.73 -8.65116 0.777161 0
M  V30 16126 H 1966 -6.9022 0.46725 0
M  V30 16127 H 1965.13 -7.66548 2.79458 0
M  V30 16128 H 1962.48 -5.16165 2.65183 0
M  V30 16129 H 1962.2 -7.06433 0.329384 0
M  V30 16130 H 1961.21 -6.90926 1.82021 0
M  V30 16131 H 1963.04 -8.90873 1.62657 0
M  V30 16132 P 1961.17 -8.03563 3.84925 0
M  V30 16133 O 1960.95 -8.85821 5.0569 0
M  V30 16134 O 1960.38 -8.41101 2.65469 0
M  V30 16135 O 1960.92 -6.4965 4.18908 0
M  V30 16136 C 1961.86 -5.81037 5.05421 0
M  V30 16137 C 1961.13 -4.78366 5.89277 0
M  V30 16138 O 1960.92 -3.58302 5.08433 0
M  V30 16139 C 1959.73 -5.17448 6.36119 0
M  V30 16140 O 1959.34 -4.45271 7.53232 0
M  V30 16141 C 1958.85 -4.74639 5.19936 0
M  V30 16142 C 1959.56 -3.49432 4.70418 0
M  V30 16143 N 1959.51 -3.31776 3.22945 0
M  V30 16144 H 1962.35 -6.54213 5.71376 0
M  V30 16145 H 1962.62 -5.30492 4.44033 0
M  V30 16146 H 1961.75 -4.55889 6.76652 0
M  V30 16147 P 1957.79 -4.23843 7.83734 0
M  V30 16148 O 1957.57 -4.19407 9.29784 0
M  V30 16149 O 1957 -5.24426 7.09156 0
M  V30 16150 O 1957.54 -2.7935 7.20758 0
M  V30 16151 C 1958.48 -1.7299 7.50419 0
M  V30 16152 C 1957.75 -0.406376 7.57911 0
M  V30 16153 O 1957.54 0.0897726 6.21935 0
M  V30 16154 C 1956.35 -0.447224 8.1878 0
M  V30 16155 O 1955.96 0.825065 8.71101 0
M  V30 16156 C 1955.47 -0.783801 6.99623 0
M  V30 16157 C 1956.18 -0.0619192 5.85967 0
M  V30 16158 N 1956.13 -0.790462 4.56202 0
M  V30 16159 C 1956.21 -2.13895 4.34171 0
M  V30 16160 N 1956.14 -2.46449 3.08687 0
M  V30 16161 C 1955.99 -1.2525 2.43697 0
M  V30 16162 C 1955.86 -0.914535 1.07318 0
M  V30 16163 N 1955.85 -1.80782 0.0887348 0
M  V30 16164 N 1955.74 0.386745 0.768133 0
M  V30 16165 C 1955.75 1.28096 1.75159 0
M  V30 16166 N 1955.87 1.09708 3.04861 0
M  V30 16167 C 1955.99 -0.214857 3.32306 0
M  V30 16168 H 1958.97 -1.93423 8.4679 0
M  V30 16169 H 1959.24 -1.68852 6.70877 0
M  V30 16170 H 1958.37 0.289041 8.15388 0
M  V30 16171 H 1955.72 0.927006 5.72848 0
M  V30 16172 H 1955.44 -1.86973 6.82036 0
M  V30 16173 H 1954.45 -0.403953 7.13357 0
M  V30 16174 H 1956.28 -1.20599 8.97534 0
M  V30 16175 H 1956.32 -2.86846 5.14318 0
M  V30 16176 H 1955.94 -2.81082 0.302037 0
M  V30 16177 H 1955.75 -1.49688 -0.889064 0
M  V30 16178 H 1955.64 2.31317 1.43855 0
M  V30 16179 P 1954.41 1.17771 8.83182 0
M  V30 16180 O 1954.19 2.07206 9.98732 0
M  V30 16181 O 1953.62 -0.0743816 8.81969 0
M  V30 16182 O 1954.16 1.97652 7.47304 0
M  V30 16183 C 1955.1 3.01133 7.08783 0
M  V30 16184 C 1954.37 4.12613 6.37049 0
M  V30 16185 O 1954.16 3.72827 4.97879 0
M  V30 16186 C 1952.97 4.45085 6.88694 0
M  V30 16187 O 1952.58 5.7877 6.5624 0
M  V30 16188 C 1952.09 3.47817 6.12078 0
M  V30 16189 C 1952.8 3.39414 4.77697 0
M  V30 16190 N 1952.75 2.04615 4.15333 0
M  V30 16191 H 1955.59 3.41248 7.98759 0
M  V30 16192 H 1955.86 2.5837 6.41742 0
M  V30 16193 H 1954.99 5.02657 6.42673 0
M  V30 16194 P 1951.03 6.144 6.45285 0
M  V30 16195 O 1950.81 7.54673 6.86199 0
M  V30 16196 O 1950.24 5.12391 7.179 0
M  V30 16197 O 1950.78 5.99158 4.88404 0
M  V30 16198 C 1951.72 6.60234 3.96415 0
M  V30 16199 C 1950.99 7.08259 2.72856 0
M  V30 16200 O 1950.78 5.9427 1.83651 0
M  V30 16201 C 1949.59 7.64886 2.9555 0
M  V30 16202 O 1949.2 8.53963 1.90717 0
M  V30 16203 C 1948.71 6.4116 2.90739 0
M  V30 16204 C 1949.42 5.55375 1.86963 0
M  V30 16205 N 1949.37 4.09664 2.15742 0
M  V30 16206 H 1952.21 7.45574 4.45629 0
M  V30 16207 H 1952.48 5.86232 3.67314 0
M  V30 16208 H 1951.61 7.84412 2.24479 0
M  V30 16209 P 1947.65 8.7635 1.60911 0
M  V30 16210 O 1947.43 10.1388 1.11561 0
M  V30 16211 O 1946.86 8.36503 2.79617 0
M  V30 16212 O 1947.4 7.71806 0.42951 0
M  V30 16213 C 1948.34 7.67148 -0.673689 0
M  V30 16214 C 1947.61 7.33374 -1.95559 0
M  V30 16215 O 1947.4 5.88721 -2.00726 0
M  V30 16216 C 1946.21 7.92526 -2.10483 0
M  V30 16217 O 1945.82 8.02971 -3.47653 0
M  V30 16218 C 1945.33 6.89602 -1.41652 0
M  V30 16219 C 1946.04 5.59201 -1.75185 0
M  V30 16220 N 1945.99 4.58301 -0.657969 0
M  V30 16221 H 1948.83 8.65116 -0.777161 0
M  V30 16222 H 1949.1 6.9022 -0.46725 0
M  V30 16223 H 1948.23 7.66548 -2.79458 0
M  V30 16224 H 1945.58 5.16165 -2.65183 0
M  V30 16225 H 1945.3 7.06433 -0.329384 0
M  V30 16226 H 1944.31 6.90926 -1.82021 0
M  V30 16227 H 1946.14 8.90873 -1.62657 0
M  V30 16228 P 1944.27 8.03563 -3.84925 0
M  V30 16229 O 1944.05 8.85821 -5.0569 0
M  V30 16230 O 1943.48 8.41101 -2.65469 0
M  V30 16231 O 1944.02 6.4965 -4.18908 0
M  V30 16232 C 1944.96 5.81037 -5.05421 0
M  V30 16233 C 1944.23 4.78366 -5.89277 0
M  V30 16234 O 1944.02 3.58302 -5.08433 0
M  V30 16235 C 1942.83 5.17448 -6.36119 0
M  V30 16236 O 1942.44 4.45271 -7.53232 0
M  V30 16237 C 1941.95 4.74639 -5.19936 0
M  V30 16238 C 1942.66 3.49432 -4.70418 0
M  V30 16239 N 1942.61 3.31776 -3.22945 0
M  V30 16240 H 1945.45 6.54213 -5.71376 0
M  V30 16241 H 1945.72 5.30492 -4.44033 0
M  V30 16242 H 1944.85 4.55889 -6.76652 0
M  V30 16243 P 1940.89 4.23843 -7.83734 0
M  V30 16244 O 1940.67 4.19407 -9.29784 0
M  V30 16245 O 1940.1 5.24426 -7.09156 0
M  V30 16246 O 1940.64 2.7935 -7.20758 0
M  V30 16247 C 1941.58 1.7299 -7.50419 0
M  V30 16248 C 1940.85 0.406376 -7.57911 0
M  V30 16249 O 1940.64 -0.0897726 -6.21935 0
M  V30 16250 C 1939.45 0.447224 -8.1878 0
M  V30 16251 O 1939.06 -0.825065 -8.71101 0
M  V30 16252 C 1938.57 0.783801 -6.99623 0
M  V30 16253 C 1939.28 0.0619192 -5.85967 0
M  V30 16254 N 1939.23 0.7859 -4.56281 0
M  V30 16255 H 1942.07 1.93423 -8.4679 0
M  V30 16256 H 1942.34 1.68181 -6.71046 0
M  V30 16257 H 1941.47 -0.289041 -8.15388 0
M  V30 16258 P 1937.51 -1.17771 -8.83182 0
M  V30 16259 O 1937.29 -2.07206 -9.98732 0
M  V30 16260 O 1936.72 0.0743816 -8.81969 0
M  V30 16261 O 1937.26 -1.97652 -7.47304 0
M  V30 16262 C 1938.2 -3.01055 -7.08599 0
M  V30 16263 C 1937.47 -4.12613 -6.37049 0
M  V30 16264 O 1937.26 -3.72827 -4.97879 0
M  V30 16265 C 1936.07 -4.45719 -6.88164 0
M  V30 16266 O 1935.68 -5.7877 -6.5624 0
M  V30 16267 C 1935.19 -3.47768 -6.11991 0
M  V30 16268 C 1935.9 -3.39356 -4.77615 0
M  V30 16269 N 1935.85 -2.04571 -4.15244 0
M  V30 16270 C 1935.7 -1.98587 -2.78314 0
M  V30 16271 O 1935.61 -2.98134 -2.08835 0
M  V30 16272 N 1935.66 -0.714467 -2.24925 0
M  V30 16273 C 1935.75 0.470001 -2.94169 0
M  V30 16274 O 1935.7 1.55587 -2.35195 0
M  V30 16275 C 1935.9 0.312541 -4.36783 0
M  V30 16276 C 1936.01 1.57711 -5.16352 0
M  V30 16277 C 1935.95 -0.914512 -4.92583 0
M  V30 16278 H 1938.69 -3.41169 -7.98575 0
M  V30 16279 H 1938.96 -2.58295 -6.41556 0
M  V30 16280 H 1938.09 -5.02657 -6.42673 0
M  V30 16281 H 1935.44 -4.11637 -4.08885 0
M  V30 16282 H 1935.16 -2.49626 -6.61679 0
M  V30 16283 H 1934.17 -3.86566 -6.00778 0
M  V30 16284 H 1936 -4.29943 -7.96918 0
M  V30 16285 H 1936.07 -1.00937 -6.00374 0
M  V30 16286 H 1935.04 1.80153 -5.63503 0
M  V30 16287 H 1936.78 1.4566 -5.94104 0
M  V30 16288 H 1936.29 2.40664 -4.49645 0
M  V30 16289 H 1935.55 -0.647622 -1.25697 0
M  V30 16290 P 1934.13 -6.144 -6.45285 0
M  V30 16291 O 1933.91 -7.54673 -6.86199 0
M  V30 16292 O 1933.34 -5.12391 -7.179 0
M  V30 16293 O 1933.88 -5.99158 -4.88404 0
M  V30 16294 C 1934.82 -6.60234 -3.96415 0
M  V30 16295 C 1934.09 -7.08259 -2.72856 0
M  V30 16296 O 1933.88 -5.9427 -1.83651 0
M  V30 16297 C 1932.69 -7.64886 -2.9555 0
M  V30 16298 O 1932.3 -8.53963 -1.90717 0
M  V30 16299 C 1931.81 -6.4116 -2.90739 0
M  V30 16300 C 1932.52 -5.55375 -1.86963 0
M  V30 16301 N 1932.47 -4.09664 -2.15742 0
M  V30 16302 H 1935.31 -7.45574 -4.45629 0
M  V30 16303 H 1935.58 -5.86232 -3.67314 0
M  V30 16304 H 1934.71 -7.84412 -2.24479 0
M  V30 16305 P 1930.75 -8.7635 -1.60911 0
M  V30 16306 O 1930.53 -10.1388 -1.11561 0
M  V30 16307 O 1929.96 -8.36503 -2.79617 0
M  V30 16308 O 1930.5 -7.71806 -0.42951 0
M  V30 16309 C 1931.44 -7.67148 0.673689 0
M  V30 16310 C 1930.71 -7.33374 1.95559 0
M  V30 16311 O 1930.5 -5.88721 2.00726 0
M  V30 16312 C 1929.31 -7.92526 2.10483 0
M  V30 16313 O 1928.92 -8.02971 3.47653 0
M  V30 16314 C 1928.43 -6.89602 1.41652 0
M  V30 16315 C 1929.14 -5.59201 1.75185 0
M  V30 16316 N 1929.09 -4.58235 0.662552 0
M  V30 16317 H 1931.93 -8.65116 0.777161 0
M  V30 16318 H 1932.2 -6.90173 0.474152 0
M  V30 16319 H 1931.33 -7.66548 2.79458 0
M  V30 16320 P 1927.37 -8.03563 3.84925 0
M  V30 16321 O 1927.15 -8.85821 5.0569 0
M  V30 16322 O 1926.58 -8.41101 2.65469 0
M  V30 16323 O 1927.12 -6.4965 4.18908 0
M  V30 16324 C 1928.06 -5.81037 5.05421 0
M  V30 16325 C 1927.33 -4.78366 5.89277 0
M  V30 16326 O 1927.12 -3.58302 5.08433 0
M  V30 16327 C 1925.93 -5.17448 6.36119 0
M  V30 16328 O 1925.54 -4.45271 7.53232 0
M  V30 16329 C 1925.05 -4.74639 5.19936 0
M  V30 16330 C 1925.76 -3.49432 4.70418 0
M  V30 16331 N 1925.71 -3.32099 3.22613 0
M  V30 16332 H 1928.55 -6.54213 5.71376 0
M  V30 16333 H 1928.82 -5.30936 4.43503 0
M  V30 16334 H 1927.95 -4.55889 6.76652 0
M  V30 16335 H 1925.3 -2.61715 5.17932 0
M  V30 16336 H 1925.02 -5.52155 4.41878 0
M  V30 16337 H 1924.03 -4.51981 5.53374 0
M  V30 16338 H 1925.86 -6.25124 6.55234 0
M  V30 16339 P 1923.99 -4.23843 7.83734 0
M  V30 16340 O 1923.77 -4.19407 9.29784 0
M  V30 16341 O 1923.2 -5.24426 7.09156 0
M  V30 16342 O 1923.74 -2.7935 7.20758 0
M  V30 16343 C 1924.68 -1.7299 7.50419 0
M  V30 16344 C 1923.95 -0.406376 7.57911 0
M  V30 16345 O 1923.74 0.0897726 6.21935 0
M  V30 16346 C 1922.55 -0.447224 8.1878 0
M  V30 16347 O 1922.16 0.825065 8.71101 0
M  V30 16348 C 1921.67 -0.783801 6.99623 0
M  V30 16349 C 1922.38 -0.0619192 5.85967 0
M  V30 16350 N 1922.33 -0.7859 4.56281 0
M  V30 16351 H 1925.17 -1.93423 8.4679 0
M  V30 16352 H 1925.44 -1.68181 6.71046 0
M  V30 16353 H 1924.57 0.289041 8.15388 0
M  V30 16354 P 1920.61 1.17771 8.83182 0
M  V30 16355 O 1920.39 2.07206 9.98732 0
M  V30 16356 O 1919.82 -0.0743816 8.81969 0
M  V30 16357 O 1920.36 1.97652 7.47304 0
M  V30 16358 C 1921.3 3.01133 7.08783 0
M  V30 16359 C 1920.57 4.12613 6.37049 0
M  V30 16360 O 1920.36 3.72827 4.97879 0
M  V30 16361 C 1919.17 4.45085 6.88694 0
M  V30 16362 O 1918.78 5.7877 6.5624 0
M  V30 16363 C 1918.29 3.47817 6.12078 0
M  V30 16364 C 1919 3.39414 4.77697 0
M  V30 16365 N 1918.95 2.04615 4.15333 0
M  V30 16366 H 1921.79 3.41248 7.98759 0
M  V30 16367 H 1922.06 2.5837 6.41742 0
M  V30 16368 H 1921.19 5.02657 6.42673 0
M  V30 16369 P 1917.23 6.144 6.45285 0
M  V30 16370 O 1917.01 7.54673 6.86199 0
M  V30 16371 O 1916.44 5.12391 7.179 0
M  V30 16372 O 1916.98 5.99158 4.88404 0
M  V30 16373 C 1917.92 6.60234 3.96415 0
M  V30 16374 C 1917.19 7.08259 2.72856 0
M  V30 16375 O 1916.98 5.9427 1.83651 0
M  V30 16376 C 1915.79 7.64886 2.9555 0
M  V30 16377 O 1915.4 8.53963 1.90717 0
M  V30 16378 C 1914.91 6.4116 2.90739 0
M  V30 16379 C 1915.62 5.55375 1.86963 0
M  V30 16380 N 1915.57 4.09664 2.15742 0
M  V30 16381 H 1918.41 7.45574 4.45629 0
M  V30 16382 H 1918.68 5.86232 3.67314 0
M  V30 16383 H 1917.81 7.84412 2.24479 0
M  V30 16384 P 1913.85 8.7635 1.60911 0
M  V30 16385 O 1913.63 10.1388 1.11561 0
M  V30 16386 O 1913.06 8.36503 2.79617 0
M  V30 16387 O 1913.6 7.71806 0.42951 0
M  V30 16388 C 1914.54 7.67148 -0.673689 0
M  V30 16389 C 1913.81 7.33374 -1.95559 0
M  V30 16390 O 1913.6 5.88721 -2.00726 0
M  V30 16391 C 1912.41 7.92526 -2.10483 0
M  V30 16392 O 1912.02 8.02971 -3.47653 0
M  V30 16393 C 1911.53 6.89602 -1.41652 0
M  V30 16394 C 1912.24 5.59201 -1.75185 0
M  V30 16395 N 1912.19 4.58301 -0.657969 0
M  V30 16396 H 1915.03 8.65116 -0.777161 0
M  V30 16397 H 1915.3 6.9022 -0.46725 0
M  V30 16398 H 1914.43 7.66548 -2.79458 0
M  V30 16399 H 1911.78 5.16165 -2.65183 0
M  V30 16400 H 1911.5 7.06433 -0.329384 0
M  V30 16401 H 1910.51 6.90926 -1.82021 0
M  V30 16402 H 1912.34 8.90873 -1.62657 0
M  V30 16403 P 1910.47 8.03563 -3.84925 0
M  V30 16404 O 1910.25 8.85821 -5.0569 0
M  V30 16405 O 1909.68 8.41101 -2.65469 0
M  V30 16406 O 1910.22 6.4965 -4.18908 0
M  V30 16407 C 1911.16 5.80886 -5.05289 0
M  V30 16408 C 1910.43 4.78366 -5.89277 0
M  V30 16409 O 1910.22 3.58302 -5.08433 0
M  V30 16410 C 1909.03 5.16748 -6.36559 0
M  V30 16411 O 1908.64 4.45271 -7.53232 0
M  V30 16412 C 1908.15 4.74572 -5.19863 0
M  V30 16413 C 1908.86 3.49373 -4.70338 0
M  V30 16414 N 1908.81 3.31704 -3.22876 0
M  V30 16415 C 1908.66 2.03326 -2.74871 0
M  V30 16416 O 1908.57 1.06486 -3.48076 0
M  V30 16417 N 1908.62 1.91838 -1.37456 0
M  V30 16418 C 1908.71 2.94295 -0.462035 0
M  V30 16419 O 1908.66 2.71763 0.752928 0
M  V30 16420 C 1908.86 4.25064 -1.05249 0
M  V30 16421 C 1908.97 5.39815 -0.095697 0
M  V30 16422 C 1908.91 4.40214 -2.39192 0
M  V30 16423 H 1911.65 6.54063 -5.71245 0
M  V30 16424 H 1911.92 5.30339 -4.43905 0
M  V30 16425 H 1911.05 4.55889 -6.76652 0
M  V30 16426 H 1908.4 2.6167 -5.17842 0
M  V30 16427 H 1908.12 5.52155 -4.41878 0
M  V30 16428 H 1907.13 4.51918 -5.53297 0
M  V30 16429 H 1908.96 6.25055 -6.55162 0
M  V30 16430 H 1909.03 5.39798 -2.81523 0
M  V30 16431 H 1908 5.91593 -0.0279582 0
M  V30 16432 H 1909.74 6.10038 -0.450573 0
M  V30 16433 H 1909.25 5.02007 0.89937 0
M  V30 16434 H 1908.51 0.995326 -1.00435 0
M  V30 16435 P 1907.09 4.23843 -7.83734 0
M  V30 16436 O 1906.87 4.19407 -9.29784 0
M  V30 16437 O 1906.3 5.24426 -7.09156 0
M  V30 16438 O 1906.84 2.79386 -7.20852 0
M  V30 16439 C 1907.78 1.7299 -7.50419 0
M  V30 16440 C 1907.05 0.41401 -7.5797 0
M  V30 16441 O 1906.84 -0.089787 -6.22035 0
M  V30 16442 C 1905.65 0.447224 -8.1878 0
M  V30 16443 O 1905.26 -0.825159 -8.71201 0
M  V30 16444 C 1904.77 0.783801 -6.99623 0
M  V30 16445 C 1905.48 0.0619192 -5.85967 0
M  V30 16446 N 1905.43 0.7859 -4.56281 0
M  V30 16447 C 1905.28 0.0359258 -3.39981 0
M  V30 16448 O 1905.19 -1.19723 -3.49038 0
M  V30 16449 N 1905.23 0.869151 -2.14025 0
M  V30 16450 C 1905.33 2.01207 -2.14363 0
M  V30 16451 N 1905.28 2.58978 -0.954287 0
M  V30 16452 C 1905.48 2.80817 -3.32215 0
M  V30 16453 C 1905.53 2.13785 -4.50884 0
M  V30 16454 H 1908.27 1.93401 -8.46693 0
M  V30 16455 H 1908.54 1.68181 -6.71046 0
M  V30 16456 H 1907.67 -0.289076 -8.15488 0
M  V30 16457 H 1905.02 -0.927166 -5.72947 0
M  V30 16458 H 1904.74 1.87 -6.82132 0
M  V30 16459 H 1903.75 0.404009 -7.13457 0
M  V30 16460 H 1905.58 1.20599 -8.97534 0
M  V30 16461 H 1905.65 2.70295 -5.43162 0
M  V30 16462 H 1905.55 3.89465 -3.27406 0
M  V30 16463 H 1905.16 2.01616 -0.107046 0
M  V30 16464 H 1905.36 3.61403 -0.873101 0
M  V30 16465 P 1903.71 -1.17771 -8.83182 0
M  V30 16466 O 1903.49 -2.07206 -9.98732 0
M  V30 16467 O 1902.92 0.0743816 -8.81969 0
M  V30 16468 O 1903.46 -1.97652 -7.47304 0
M  V30 16469 C 1904.4 -3.01133 -7.08783 0
M  V30 16470 C 1903.67 -4.12613 -6.37049 0
M  V30 16471 O 1903.46 -3.72827 -4.97879 0
M  V30 16472 C 1902.27 -4.45085 -6.88694 0
M  V30 16473 O 1901.88 -5.7877 -6.5624 0
M  V30 16474 C 1901.39 -3.47817 -6.12078 0
M  V30 16475 C 1902.1 -3.39414 -4.77697 0
M  V30 16476 N 1902.05 -2.04199 -4.15538 0
M  V30 16477 C 1902.13 -0.821545 -4.76977 0
M  V30 16478 N 1902.06 0.1794 -3.94592 0
M  V30 16479 C 1901.91 -0.419121 -2.70776 0
M  V30 16480 C 1901.78 0.109072 -1.40577 0
M  V30 16481 N 1901.77 1.4104 -1.1344 0
M  V30 16482 N 1901.66 -0.764381 -0.39411 0
M  V30 16483 C 1901.67 -2.06587 -0.664135 0
M  V30 16484 N 1901.79 -2.67948 -1.82153 0
M  V30 16485 C 1901.91 -1.77942 -2.8147 0
M  V30 16486 H 1904.89 -3.41248 -7.98759 0
M  V30 16487 H 1905.16 -2.57728 -6.42 0
M  V30 16488 H 1904.29 -5.02657 -6.42673 0
M  V30 16489 H 1901.64 -4.11708 -4.08956 0
M  V30 16490 H 1901.36 -2.49626 -6.61679 0
M  V30 16491 H 1900.37 -3.8662 -6.00862 0
M  V30 16492 H 1902.2 -4.29991 -7.97006 0
M  V30 16493 H 1902.24 -0.702451 -5.84696 0
M  V30 16494 H 1901.86 2.09647 -1.89651 0
M  V30 16495 H 1901.67 1.73358 -0.160575 0
M  V30 16496 H 1901.56 -2.71695 0.195838 0
M  V30 16497 P 1900.33 -6.144 -6.45285 0
M  V30 16498 O 1900.11 -7.54673 -6.86199 0
M  V30 16499 O 1899.54 -5.12391 -7.179 0
M  V30 16500 O 1900.08 -5.99158 -4.88404 0
M  V30 16501 C 1901.02 -6.60234 -3.96415 0
M  V30 16502 C 1900.29 -7.08259 -2.72856 0
M  V30 16503 O 1900.08 -5.9427 -1.83651 0
M  V30 16504 C 1898.89 -7.64886 -2.9555 0
M  V30 16505 O 1898.5 -8.53963 -1.90717 0
M  V30 16506 C 1898.01 -6.4116 -2.90739 0
M  V30 16507 C 1898.72 -5.55375 -1.86963 0
M  V30 16508 N 1898.67 -4.09448 -2.16152 0
M  V30 16509 H 1901.51 -7.45574 -4.45629 0
M  V30 16510 H 1901.78 -5.85864 -3.679 0
M  V30 16511 H 1900.91 -7.84412 -2.24479 0
M  V30 16512 H 1898.26 -5.73457 -0.888562 0
M  V30 16513 H 1897.98 -5.90877 -3.88583 0
M  V30 16514 H 1896.99 -6.6596 -2.58858 0
M  V30 16515 H 1898.82 -8.16339 -3.92049 0
M  V30 16516 P 1896.95 -8.7635 -1.60911 0
M  V30 16517 O 1896.73 -10.1388 -1.11561 0
M  V30 16518 O 1896.16 -8.36503 -2.79617 0
M  V30 16519 O 1896.7 -7.71806 -0.42951 0
M  V30 16520 C 1897.64 -7.67148 0.673689 0
M  V30 16521 C 1896.91 -7.33374 1.95559 0
M  V30 16522 O 1896.7 -5.88721 2.00726 0
M  V30 16523 C 1895.51 -7.92526 2.10483 0
M  V30 16524 O 1895.12 -8.02971 3.47653 0
M  V30 16525 C 1894.63 -6.89602 1.41652 0
M  V30 16526 C 1895.34 -5.59201 1.75185 0
M  V30 16527 N 1895.29 -4.58235 0.662552 0
M  V30 16528 H 1898.13 -8.65116 0.777161 0
M  V30 16529 H 1898.4 -6.90173 0.474152 0
M  V30 16530 H 1897.53 -7.66548 2.79458 0
M  V30 16531 P 1893.57 -8.03563 3.84925 0
M  V30 16532 O 1893.35 -8.85821 5.0569 0
M  V30 16533 O 1892.78 -8.41101 2.65469 0
M  V30 16534 O 1893.32 -6.4965 4.18908 0
M  V30 16535 C 1894.26 -5.81037 5.05421 0
M  V30 16536 C 1893.53 -4.78366 5.89277 0
M  V30 16537 O 1893.32 -3.58302 5.08433 0
M  V30 16538 C 1892.13 -5.17448 6.36119 0
M  V30 16539 O 1891.74 -4.45271 7.53232 0
M  V30 16540 C 1891.25 -4.74639 5.19936 0
M  V30 16541 C 1891.96 -3.49432 4.70418 0
M  V30 16542 N 1891.91 -3.31776 3.22945 0
M  V30 16543 H 1894.75 -6.54213 5.71376 0
M  V30 16544 H 1895.02 -5.30492 4.44033 0
M  V30 16545 H 1894.15 -4.55889 6.76652 0
M  V30 16546 P 1890.19 -4.23843 7.83734 0
M  V30 16547 O 1889.97 -4.19407 9.29784 0
M  V30 16548 O 1889.4 -5.24426 7.09156 0
M  V30 16549 O 1889.94 -2.7935 7.20758 0
M  V30 16550 C 1890.88 -1.7299 7.50419 0
M  V30 16551 C 1890.15 -0.406376 7.57911 0
M  V30 16552 O 1889.94 0.0897726 6.21935 0
M  V30 16553 C 1888.75 -0.447224 8.1878 0
M  V30 16554 O 1888.36 0.825065 8.71101 0
M  V30 16555 C 1887.87 -0.783801 6.99623 0
M  V30 16556 C 1888.58 -0.0619192 5.85967 0
M  V30 16557 N 1888.53 -0.7859 4.56281 0
M  V30 16558 H 1891.37 -1.93423 8.4679 0
M  V30 16559 H 1891.64 -1.68181 6.71046 0
M  V30 16560 H 1890.77 0.289041 8.15388 0
M  V30 16561 P 1886.81 1.17771 8.83182 0
M  V30 16562 O 1886.59 2.07206 9.98732 0
M  V30 16563 O 1886.02 -0.0743816 8.81969 0
M  V30 16564 O 1886.56 1.97652 7.47304 0
M  V30 16565 C 1887.5 3.01133 7.08783 0
M  V30 16566 C 1886.77 4.12613 6.37049 0
M  V30 16567 O 1886.56 3.72827 4.97879 0
M  V30 16568 C 1885.37 4.45085 6.88694 0
M  V30 16569 O 1884.98 5.7877 6.5624 0
M  V30 16570 C 1884.49 3.47817 6.12078 0
M  V30 16571 C 1885.2 3.39414 4.77697 0
M  V30 16572 N 1885.15 2.04199 4.15538 0
M  V30 16573 H 1887.99 3.41248 7.98759 0
M  V30 16574 H 1888.26 2.57728 6.42 0
M  V30 16575 H 1887.39 5.02657 6.42673 0
M  V30 16576 H 1884.74 4.11708 4.08956 0
M  V30 16577 H 1884.46 2.49626 6.61679 0
M  V30 16578 H 1883.47 3.8662 6.00862 0
M  V30 16579 H 1885.3 4.29991 7.97006 0
M  V30 16580 P 1883.43 6.144 6.45285 0
M  V30 16581 O 1883.21 7.54673 6.86199 0
M  V30 16582 O 1882.64 5.12391 7.179 0
M  V30 16583 O 1883.18 5.99158 4.88404 0
M  V30 16584 C 1884.12 6.60234 3.96415 0
M  V30 16585 C 1883.39 7.08259 2.72856 0
M  V30 16586 O 1883.18 5.9427 1.83651 0
M  V30 16587 C 1881.99 7.64886 2.9555 0
M  V30 16588 O 1881.6 8.53963 1.90717 0
M  V30 16589 C 1881.11 6.4116 2.90739 0
M  V30 16590 C 1881.82 5.55375 1.86963 0
M  V30 16591 N 1881.77 4.09664 2.15742 0
M  V30 16592 C 1881.85 3.44381 3.37233 0
M  V30 16593 N 1881.77 2.14131 3.28347 0
M  V30 16594 C 1881.63 1.90247 1.91588 0
M  V30 16595 C 1881.5 0.683992 1.20892 0
M  V30 16596 N 1881.38 0.903396 -0.173998 0
M  V30 16597 C 1881.38 2.14171 -0.784879 0
M  V30 16598 N 1881.25 2.1435 -2.11317 0
M  V30 16599 N 1881.51 3.28784 -0.119316 0
M  V30 16600 C 1881.63 3.0977 1.22194 0
M  V30 16601 H 1884.61 7.45574 4.45629 0
M  V30 16602 H 1884.88 5.86232 3.67314 0
M  V30 16603 H 1884.01 7.84412 2.24479 0
M  V30 16604 P 1880.05 8.7635 1.60911 0
M  V30 16605 O 1879.83 10.1388 1.11561 0
M  V30 16606 O 1879.26 8.36503 2.79617 0
M  V30 16607 O 1879.8 7.71806 0.42951 0
M  V30 16608 C 1880.74 7.67148 -0.673689 0
M  V30 16609 C 1880.01 7.33374 -1.95559 0
M  V30 16610 O 1879.8 5.88721 -2.00726 0
M  V30 16611 C 1878.61 7.92526 -2.10483 0
M  V30 16612 O 1878.22 8.02971 -3.47653 0
M  V30 16613 C 1877.73 6.89602 -1.41652 0
M  V30 16614 C 1878.44 5.59201 -1.75185 0
M  V30 16615 N 1878.39 4.58235 -0.662552 0
M  V30 16616 C 1878.47 4.7683 0.704049 0
M  V30 16617 N 1878.39 3.66233 1.39775 0
M  V30 16618 C 1878.25 2.66526 0.431739 0
M  V30 16619 C 1878.12 1.26394 0.575992 0
M  V30 16620 N 1878 0.62859 -0.67177 0
M  V30 16621 C 1878 1.27134 -1.89385 0
M  V30 16622 N 1877.87 0.492035 -2.96951 0
M  V30 16623 N 1878.13 2.58978 -2.02907 0
M  V30 16624 C 1878.25 3.22433 -0.832218 0
M  V30 16625 H 1881.23 8.65116 -0.777161 0
M  V30 16626 H 1881.5 6.90173 -0.474152 0
M  V30 16627 H 1880.63 7.66548 -2.79458 0
M  V30 16628 P 1876.67 8.03563 -3.84925 0
M  V30 16629 O 1876.45 8.85821 -5.0569 0
M  V30 16630 O 1875.88 8.41101 -2.65469 0
M  V30 16631 O 1876.42 6.4965 -4.18908 0
M  V30 16632 C 1877.36 5.81037 -5.05421 0
M  V30 16633 C 1876.63 4.78366 -5.89277 0
M  V30 16634 O 1876.42 3.58302 -5.08433 0
M  V30 16635 C 1875.23 5.17448 -6.36119 0
M  V30 16636 O 1874.84 4.45271 -7.53232 0
M  V30 16637 C 1874.35 4.74639 -5.19936 0
M  V30 16638 C 1875.06 3.49432 -4.70418 0
M  V30 16639 N 1875.01 3.31776 -3.22945 0
M  V30 16640 H 1877.85 6.54213 -5.71376 0
M  V30 16641 H 1878.12 5.30492 -4.44033 0
M  V30 16642 H 1877.25 4.55889 -6.76652 0
M  V30 16643 P 1873.29 4.23843 -7.83734 0
M  V30 16644 O 1873.07 4.19407 -9.29784 0
M  V30 16645 O 1872.5 5.24426 -7.09156 0
M  V30 16646 O 1873.04 2.7935 -7.20758 0
M  V30 16647 C 1873.98 1.7299 -7.50419 0
M  V30 16648 C 1873.25 0.406376 -7.57911 0
M  V30 16649 O 1873.04 -0.0897726 -6.21935 0
M  V30 16650 C 1871.85 0.447224 -8.1878 0
M  V30 16651 O 1871.46 -0.825065 -8.71101 0
M  V30 16652 C 1870.97 0.783801 -6.99623 0
M  V30 16653 C 1871.68 0.0619192 -5.85967 0
M  V30 16654 N 1871.63 0.790462 -4.56202 0
M  V30 16655 H 1874.47 1.93423 -8.4679 0
M  V30 16656 H 1874.74 1.68852 -6.70877 0
M  V30 16657 H 1873.87 -0.289041 -8.15388 0
M  V30 16658 H 1871.22 -0.927006 -5.72848 0
M  V30 16659 H 1870.94 1.86973 -6.82036 0
M  V30 16660 H 1869.95 0.403953 -7.13357 0
M  V30 16661 H 1871.78 1.20599 -8.97534 0
M  V30 16662 P 1869.91 -1.17771 -8.83182 0
M  V30 16663 O 1869.69 -2.07206 -9.98732 0
M  V30 16664 O 1869.12 0.0743816 -8.81969 0
M  V30 16665 O 1869.66 -1.97652 -7.47304 0
M  V30 16666 C 1870.6 -3.01133 -7.08783 0
M  V30 16667 C 1869.87 -4.12613 -6.37049 0
M  V30 16668 O 1869.66 -3.72827 -4.97879 0
M  V30 16669 C 1868.47 -4.45085 -6.88694 0
M  V30 16670 O 1868.08 -5.7877 -6.5624 0
M  V30 16671 C 1867.59 -3.47817 -6.12078 0
M  V30 16672 C 1868.3 -3.39414 -4.77697 0
M  V30 16673 N 1868.25 -2.04199 -4.15538 0
M  V30 16674 H 1871.09 -3.41248 -7.98759 0
M  V30 16675 H 1871.36 -2.57728 -6.42 0
M  V30 16676 H 1870.49 -5.02657 -6.42673 0
M  V30 16677 H 1867.84 -4.11708 -4.08956 0
M  V30 16678 H 1867.56 -2.49626 -6.61679 0
M  V30 16679 H 1866.57 -3.8662 -6.00862 0
M  V30 16680 H 1868.4 -4.29991 -7.97006 0
M  V30 16681 P 1866.53 -6.144 -6.45285 0
M  V30 16682 O 1866.31 -7.54673 -6.86199 0
M  V30 16683 O 1865.74 -5.12391 -7.179 0
M  V30 16684 O 1866.28 -5.99158 -4.88404 0
M  V30 16685 C 1867.22 -6.60234 -3.96415 0
M  V30 16686 C 1866.49 -7.08259 -2.72856 0
M  V30 16687 O 1866.28 -5.9427 -1.83651 0
M  V30 16688 C 1865.09 -7.64886 -2.9555 0
M  V30 16689 O 1864.7 -8.53963 -1.90717 0
M  V30 16690 C 1864.21 -6.4116 -2.90739 0
M  V30 16691 C 1864.92 -5.55375 -1.86963 0
M  V30 16692 N 1864.87 -4.09664 -2.15742 0
M  V30 16693 C 1864.95 -3.44381 -3.37233 0
M  V30 16694 N 1864.87 -2.14131 -3.28347 0
M  V30 16695 C 1864.73 -1.90247 -1.91588 0
M  V30 16696 C 1864.6 -0.683992 -1.20892 0
M  V30 16697 N 1864.48 -0.903396 0.173998 0
M  V30 16698 C 1864.48 -2.14171 0.784879 0
M  V30 16699 N 1864.35 -2.1435 2.11317 0
M  V30 16700 N 1864.61 -3.28784 0.119316 0
M  V30 16701 C 1864.73 -3.0977 -1.22194 0
M  V30 16702 H 1867.71 -7.45574 -4.45629 0
M  V30 16703 H 1867.98 -5.86232 -3.67314 0
M  V30 16704 H 1867.11 -7.84412 -2.24479 0
M  V30 16705 P 1863.15 -8.7635 -1.60911 0
M  V30 16706 O 1862.93 -10.1388 -1.11561 0
M  V30 16707 O 1862.36 -8.36503 -2.79617 0
M  V30 16708 O 1862.9 -7.71806 -0.42951 0
M  V30 16709 C 1863.84 -7.67148 0.673689 0
M  V30 16710 C 1863.11 -7.33374 1.95559 0
M  V30 16711 O 1862.9 -5.88721 2.00726 0
M  V30 16712 C 1861.71 -7.92526 2.10483 0
M  V30 16713 O 1861.32 -8.02971 3.47653 0
M  V30 16714 C 1860.83 -6.89602 1.41652 0
M  V30 16715 C 1861.54 -5.59201 1.75185 0
M  V30 16716 N 1861.49 -4.58235 0.662552 0
M  V30 16717 H 1864.33 -8.65116 0.777161 0
M  V30 16718 H 1864.6 -6.90173 0.474152 0
M  V30 16719 H 1863.73 -7.66548 2.79458 0
M  V30 16720 P 1859.77 -8.03563 3.84925 0
M  V30 16721 O 1859.55 -8.85821 5.0569 0
M  V30 16722 O 1858.98 -8.41101 2.65469 0
M  V30 16723 O 1859.52 -6.4965 4.18908 0
M  V30 16724 C 1860.46 -5.81037 5.05421 0
M  V30 16725 C 1859.73 -4.78366 5.89277 0
M  V30 16726 O 1859.52 -3.58302 5.08433 0
M  V30 16727 C 1858.33 -5.17448 6.36119 0
M  V30 16728 O 1857.94 -4.45271 7.53232 0
M  V30 16729 C 1857.45 -4.74639 5.19936 0
M  V30 16730 C 1858.16 -3.49432 4.70418 0
M  V30 16731 N 1858.11 -3.32099 3.22613 0
M  V30 16732 H 1860.95 -6.54213 5.71376 0
M  V30 16733 H 1861.22 -5.30936 4.43503 0
M  V30 16734 H 1860.35 -4.55889 6.76652 0
M  V30 16735 H 1857.7 -2.61715 5.17932 0
M  V30 16736 H 1857.42 -5.52155 4.41878 0
M  V30 16737 H 1856.43 -4.51981 5.53374 0
M  V30 16738 H 1858.26 -6.25124 6.55234 0
M  V30 16739 P 1856.39 -4.23843 7.83734 0
M  V30 16740 O 1856.17 -4.19407 9.29784 0
M  V30 16741 O 1855.6 -5.24426 7.09156 0
M  V30 16742 O 1856.14 -2.7935 7.20758 0
M  V30 16743 C 1857.08 -1.72945 7.50224 0
M  V30 16744 C 1856.35 -0.406376 7.57911 0
M  V30 16745 O 1856.14 0.0897726 6.21935 0
M  V30 16746 C 1854.95 -0.438983 8.18724 0
M  V30 16747 O 1854.56 0.825065 8.71101 0
M  V30 16748 C 1854.07 -0.783689 6.99524 0
M  V30 16749 C 1854.78 -0.0619086 5.85867 0
M  V30 16750 N 1854.73 -0.78573 4.56183 0
M  V30 16751 C 1854.58 -0.0292889 3.41887 0
M  V30 16752 O 1854.49 1.18445 3.4419 0
M  V30 16753 N 1854.54 -0.744061 2.23964 0
M  V30 16754 C 1854.63 -2.10932 2.10362 0
M  V30 16755 C 1854.78 -2.8202 3.34994 0
M  V30 16756 C 1854.83 -2.15547 4.52261 0
M  V30 16757 H 1857.57 -1.93379 8.46595 0
M  V30 16758 H 1857.84 -1.68132 6.70852 0
M  V30 16759 H 1856.97 0.289041 8.15388 0
M  V30 16760 H 1854.32 0.926847 5.72749 0
M  V30 16761 H 1854.04 -1.86973 6.82036 0
M  V30 16762 H 1853.05 -0.403896 7.13257 0
M  V30 16763 H 1854.88 -1.20585 8.97435 0
M  V30 16764 H 1854.95 -2.71231 5.45042 0
M  V30 16765 P 1853.01 1.17771 8.83182 0
M  V30 16766 O 1852.79 2.07206 9.98732 0
M  V30 16767 O 1852.22 -0.0743816 8.81969 0
M  V30 16768 O 1852.76 1.97652 7.47304 0
M  V30 16769 C 1853.7 3.01055 7.08599 0
M  V30 16770 C 1852.97 4.12613 6.37049 0
M  V30 16771 O 1852.76 3.72827 4.97879 0
M  V30 16772 C 1851.57 4.45719 6.88164 0
M  V30 16773 O 1851.18 5.7877 6.5624 0
M  V30 16774 C 1850.69 3.47768 6.11991 0
M  V30 16775 C 1851.4 3.39356 4.77615 0
M  V30 16776 N 1851.35 2.04571 4.15244 0
M  V30 16777 C 1851.2 1.98587 2.78314 0
M  V30 16778 O 1851.11 2.98134 2.08835 0
M  V30 16779 N 1851.16 0.714467 2.24925 0
M  V30 16780 C 1851.25 -0.470001 2.94169 0
M  V30 16781 O 1851.2 -1.55587 2.35195 0
M  V30 16782 C 1851.4 -0.312541 4.36783 0
M  V30 16783 C 1851.51 -1.57711 5.16352 0
M  V30 16784 C 1851.45 0.914512 4.92583 0
M  V30 16785 H 1854.19 3.41169 7.98575 0
M  V30 16786 H 1854.46 2.58295 6.41556 0
M  V30 16787 H 1853.59 5.02657 6.42673 0
M  V30 16788 H 1850.94 4.11637 4.08885 0
M  V30 16789 H 1850.66 2.49626 6.61679 0
M  V30 16790 H 1849.67 3.86566 6.00778 0
M  V30 16791 H 1851.5 4.29943 7.96918 0
M  V30 16792 H 1851.57 1.00937 6.00374 0
M  V30 16793 H 1850.54 -1.80153 5.63503 0
M  V30 16794 H 1852.28 -1.4566 5.94104 0
M  V30 16795 H 1851.79 -2.40664 4.49645 0
M  V30 16796 H 1851.05 0.647622 1.25697 0
M  V30 16797 P 1849.63 6.144 6.45285 0
M  V30 16798 O 1849.41 7.54673 6.86199 0
M  V30 16799 O 1848.84 5.12391 7.179 0
M  V30 16800 O 1849.38 5.99158 4.88404 0
M  V30 16801 C 1850.32 6.60234 3.96415 0
M  V30 16802 C 1849.59 7.08259 2.72856 0
M  V30 16803 O 1849.38 5.9427 1.83651 0
M  V30 16804 C 1848.19 7.64886 2.9555 0
M  V30 16805 O 1847.8 8.53963 1.90717 0
M  V30 16806 C 1847.31 6.4116 2.90739 0
M  V30 16807 C 1848.02 5.55375 1.86963 0
M  V30 16808 N 1847.97 4.09664 2.15742 0
M  V30 16809 H 1850.81 7.45574 4.45629 0
M  V30 16810 H 1851.08 5.86232 3.67314 0
M  V30 16811 H 1850.21 7.84412 2.24479 0
M  V30 16812 P 1846.25 8.7635 1.60911 0
M  V30 16813 O 1846.03 10.1388 1.11561 0
M  V30 16814 O 1845.46 8.36503 2.79617 0
M  V30 16815 O 1846 7.71906 0.429565 0
M  V30 16816 C 1846.94 7.67148 -0.673689 0
M  V30 16817 C 1846.21 7.33666 -1.94851 0
M  V30 16818 O 1846 5.88816 -2.00759 0
M  V30 16819 C 1844.81 7.92526 -2.10483 0
M  V30 16820 O 1844.42 8.03063 -3.47693 0
M  V30 16821 C 1843.93 6.89602 -1.41652 0
M  V30 16822 C 1844.64 5.59201 -1.75185 0
M  V30 16823 N 1844.59 4.58235 -0.662552 0
M  V30 16824 C 1844.44 3.24451 -1.01643 0
M  V30 16825 O 1844.35 2.94958 -2.21722 0
M  V30 16826 N 1844.39 2.30408 0.165238 0
M  V30 16827 C 1844.49 2.66048 1.25118 0
M  V30 16828 N 1844.44 1.70787 2.16813 0
M  V30 16829 C 1844.64 4.02732 1.64413 0
M  V30 16830 C 1844.69 4.9488 0.63991 0
M  V30 16831 H 1847.43 8.65017 -0.777072 0
M  V30 16832 H 1847.7 6.90173 -0.474152 0
M  V30 16833 H 1846.83 7.66642 -2.79492 0
M  V30 16834 H 1844.18 5.16254 -2.65229 0
M  V30 16835 H 1843.9 7.06532 -0.329431 0
M  V30 16836 H 1842.91 6.91023 -1.82047 0
M  V30 16837 H 1844.74 8.90873 -1.62657 0
M  V30 16838 H 1844.81 6.00104 0.892197 0
M  V30 16839 H 1844.71 4.31733 2.69229 0
M  V30 16840 H 1844.32 0.724835 1.8844 0
M  V30 16841 H 1844.52 1.94716 3.16734 0
M  V30 16842 P 1842.87 8.03563 -3.84925 0
M  V30 16843 O 1842.65 8.85821 -5.0569 0
M  V30 16844 O 1842.08 8.41101 -2.65469 0
M  V30 16845 O 1842.62 6.4965 -4.18908 0
M  V30 16846 C 1843.56 5.81037 -5.05421 0
M  V30 16847 C 1842.83 4.78366 -5.89277 0
M  V30 16848 O 1842.62 3.58302 -5.08433 0
M  V30 16849 C 1841.43 5.17448 -6.36119 0
M  V30 16850 O 1841.04 4.45271 -7.53232 0
M  V30 16851 C 1840.55 4.74639 -5.19936 0
M  V30 16852 C 1841.26 3.49432 -4.70418 0
M  V30 16853 N 1841.21 3.31776 -3.22945 0
M  V30 16854 H 1844.05 6.54213 -5.71376 0
M  V30 16855 H 1844.32 5.30492 -4.44033 0
M  V30 16856 H 1843.45 4.55889 -6.76652 0
M  V30 16857 P 1839.49 4.23843 -7.83734 0
M  V30 16858 O 1839.27 4.19407 -9.29784 0
M  V30 16859 O 1838.7 5.24426 -7.09156 0
M  V30 16860 O 1839.24 2.7935 -7.20758 0
M  V30 16861 C 1840.18 1.7299 -7.50419 0
M  V30 16862 C 1839.45 0.406376 -7.57911 0
M  V30 16863 O 1839.24 -0.0897726 -6.21935 0
M  V30 16864 C 1838.05 0.447224 -8.1878 0
M  V30 16865 O 1837.66 -0.825065 -8.71101 0
M  V30 16866 C 1837.17 0.783801 -6.99623 0
M  V30 16867 C 1837.88 0.0619192 -5.85967 0
M  V30 16868 N 1837.83 0.790462 -4.56202 0
M  V30 16869 H 1840.67 1.93423 -8.4679 0
M  V30 16870 H 1840.94 1.68852 -6.70877 0
M  V30 16871 H 1840.07 -0.289041 -8.15388 0
M  V30 16872 H 1837.42 -0.927006 -5.72848 0
M  V30 16873 H 1837.14 1.86973 -6.82036 0
M  V30 16874 H 1836.15 0.403953 -7.13357 0
M  V30 16875 H 1837.98 1.20599 -8.97534 0
M  V30 16876 P 1836.11 -1.17771 -8.83182 0
M  V30 16877 O 1835.89 -2.07206 -9.98732 0
M  V30 16878 O 1835.32 0.0743816 -8.81969 0
M  V30 16879 O 1835.86 -1.97652 -7.47304 0
M  V30 16880 C 1836.8 -3.01055 -7.08599 0
M  V30 16881 C 1836.07 -4.12613 -6.37049 0
M  V30 16882 O 1835.86 -3.72827 -4.97879 0
M  V30 16883 C 1834.67 -4.45719 -6.88164 0
M  V30 16884 O 1834.28 -5.7877 -6.5624 0
M  V30 16885 C 1833.79 -3.47768 -6.11991 0
M  V30 16886 C 1834.5 -3.39356 -4.77615 0
M  V30 16887 N 1834.45 -2.04571 -4.15244 0
M  V30 16888 C 1834.3 -1.98587 -2.78314 0
M  V30 16889 O 1834.21 -2.98134 -2.08835 0
M  V30 16890 N 1834.26 -0.714467 -2.24925 0
M  V30 16891 C 1834.35 0.470001 -2.94169 0
M  V30 16892 O 1834.3 1.55587 -2.35195 0
M  V30 16893 C 1834.5 0.312541 -4.36783 0
M  V30 16894 C 1834.61 1.57711 -5.16352 0
M  V30 16895 C 1834.55 -0.914512 -4.92583 0
M  V30 16896 H 1837.29 -3.41169 -7.98575 0
M  V30 16897 H 1837.56 -2.58295 -6.41556 0
M  V30 16898 H 1836.69 -5.02657 -6.42673 0
M  V30 16899 H 1834.04 -4.11637 -4.08885 0
M  V30 16900 H 1833.76 -2.49626 -6.61679 0
M  V30 16901 H 1832.77 -3.86566 -6.00778 0
M  V30 16902 H 1834.6 -4.29943 -7.96918 0
M  V30 16903 H 1834.67 -1.00937 -6.00374 0
M  V30 16904 H 1833.64 1.80153 -5.63503 0
M  V30 16905 H 1835.38 1.4566 -5.94104 0
M  V30 16906 H 1834.89 2.40664 -4.49645 0
M  V30 16907 H 1834.15 -0.647622 -1.25697 0
M  V30 16908 P 1832.73 -6.144 -6.45285 0
M  V30 16909 O 1832.51 -7.54673 -6.86199 0
M  V30 16910 O 1831.94 -5.12391 -7.179 0
M  V30 16911 O 1832.48 -5.99158 -4.88404 0
M  V30 16912 C 1833.42 -6.60234 -3.96415 0
M  V30 16913 C 1832.69 -7.08259 -2.72856 0
M  V30 16914 O 1832.48 -5.9427 -1.83651 0
M  V30 16915 C 1831.29 -7.64886 -2.9555 0
M  V30 16916 O 1830.9 -8.53963 -1.90717 0
M  V30 16917 C 1830.41 -6.4116 -2.90739 0
M  V30 16918 C 1831.12 -5.55375 -1.86963 0
M  V30 16919 N 1831.07 -4.09664 -2.15742 0
M  V30 16920 H 1833.91 -7.45574 -4.45629 0
M  V30 16921 H 1834.18 -5.86232 -3.67314 0
M  V30 16922 H 1833.31 -7.84412 -2.24479 0
M  V30 16923 P 1829.35 -8.7635 -1.60911 0
M  V30 16924 O 1829.13 -10.1388 -1.11561 0
M  V30 16925 O 1828.56 -8.36503 -2.79617 0
M  V30 16926 O 1829.1 -7.71806 -0.42951 0
M  V30 16927 C 1830.04 -7.67148 0.673689 0
M  V30 16928 C 1829.31 -7.33374 1.95559 0
M  V30 16929 O 1829.1 -5.88721 2.00726 0
M  V30 16930 C 1827.91 -7.92526 2.10483 0
M  V30 16931 O 1827.52 -8.02971 3.47653 0
M  V30 16932 C 1827.03 -6.89602 1.41652 0
M  V30 16933 C 1827.74 -5.59201 1.75185 0
M  V30 16934 N 1827.69 -4.58301 0.657969 0
M  V30 16935 H 1830.53 -8.65116 0.777161 0
M  V30 16936 H 1830.8 -6.9022 0.46725 0
M  V30 16937 H 1829.93 -7.66548 2.79458 0
M  V30 16938 H 1827.28 -5.16165 2.65183 0
M  V30 16939 H 1827 -7.06433 0.329384 0
M  V30 16940 H 1826.01 -6.90926 1.82021 0
M  V30 16941 H 1827.84 -8.90873 1.62657 0
M  V30 16942 P 1825.97 -8.03563 3.84925 0
M  V30 16943 O 1825.75 -8.85821 5.0569 0
M  V30 16944 O 1825.18 -8.41101 2.65469 0
M  V30 16945 O 1825.72 -6.4965 4.18908 0
M  V30 16946 C 1826.66 -5.81037 5.05421 0
M  V30 16947 C 1825.93 -4.78366 5.89277 0
M  V30 16948 O 1825.72 -3.58302 5.08433 0
M  V30 16949 C 1824.53 -5.17448 6.36119 0
M  V30 16950 O 1824.14 -4.45271 7.53232 0
M  V30 16951 C 1823.65 -4.74639 5.19936 0
M  V30 16952 C 1824.36 -3.49432 4.70418 0
M  V30 16953 N 1824.31 -3.31776 3.22945 0
M  V30 16954 H 1827.15 -6.54213 5.71376 0
M  V30 16955 H 1827.42 -5.30492 4.44033 0
M  V30 16956 H 1826.55 -4.55889 6.76652 0
M  V30 16957 P 1822.59 -4.23843 7.83734 0
M  V30 16958 O 1822.37 -4.19407 9.29784 0
M  V30 16959 O 1821.8 -5.24426 7.09156 0
M  V30 16960 O 1822.34 -2.7935 7.20758 0
M  V30 16961 C 1823.28 -1.7299 7.50419 0
M  V30 16962 C 1822.55 -0.406376 7.57911 0
M  V30 16963 O 1822.34 0.0897726 6.21935 0
M  V30 16964 C 1821.15 -0.447224 8.1878 0
M  V30 16965 O 1820.76 0.825065 8.71101 0
M  V30 16966 C 1820.27 -0.783801 6.99623 0
M  V30 16967 C 1820.98 -0.0619192 5.85967 0
M  V30 16968 N 1820.93 -0.790462 4.56202 0
M  V30 16969 C 1821.01 -2.13895 4.34171 0
M  V30 16970 N 1820.94 -2.46449 3.08687 0
M  V30 16971 C 1820.79 -1.2525 2.43697 0
M  V30 16972 C 1820.66 -0.914535 1.07318 0
M  V30 16973 N 1820.65 -1.80782 0.0887348 0
M  V30 16974 N 1820.54 0.386745 0.768133 0
M  V30 16975 C 1820.55 1.28096 1.75159 0
M  V30 16976 N 1820.67 1.09708 3.04861 0
M  V30 16977 C 1820.79 -0.214857 3.32306 0
M  V30 16978 H 1823.77 -1.93423 8.4679 0
M  V30 16979 H 1824.04 -1.68852 6.70877 0
M  V30 16980 H 1823.17 0.289041 8.15388 0
M  V30 16981 H 1820.52 0.927006 5.72848 0
M  V30 16982 H 1820.24 -1.86973 6.82036 0
M  V30 16983 H 1819.25 -0.403953 7.13357 0
M  V30 16984 H 1821.08 -1.20599 8.97534 0
M  V30 16985 H 1821.12 -2.86846 5.14318 0
M  V30 16986 H 1820.74 -2.81082 0.302037 0
M  V30 16987 H 1820.55 -1.49688 -0.889064 0
M  V30 16988 H 1820.44 2.31317 1.43855 0
M  V30 16989 P 1819.21 1.17771 8.83182 0
M  V30 16990 O 1818.99 2.07206 9.98732 0
M  V30 16991 O 1818.42 -0.0743816 8.81969 0
M  V30 16992 O 1818.96 1.97652 7.47304 0
M  V30 16993 C 1819.9 3.01133 7.08783 0
M  V30 16994 C 1819.17 4.12613 6.37049 0
M  V30 16995 O 1818.96 3.72827 4.97879 0
M  V30 16996 C 1817.77 4.45085 6.88694 0
M  V30 16997 O 1817.38 5.7877 6.5624 0
M  V30 16998 C 1816.89 3.47817 6.12078 0
M  V30 16999 C 1817.6 3.39414 4.77697 0
M  V30 17000 N 1817.55 2.04615 4.15333 0
M  V30 17001 H 1820.39 3.41248 7.98759 0
M  V30 17002 H 1820.66 2.5837 6.41742 0
M  V30 17003 H 1819.79 5.02657 6.42673 0
M  V30 17004 P 1815.83 6.144 6.45285 0
M  V30 17005 O 1815.61 7.54673 6.86199 0
M  V30 17006 O 1815.04 5.12391 7.179 0
M  V30 17007 O 1815.58 5.99158 4.88404 0
M  V30 17008 C 1816.52 6.60234 3.96415 0
M  V30 17009 C 1815.79 7.08259 2.72856 0
M  V30 17010 O 1815.58 5.9427 1.83651 0
M  V30 17011 C 1814.39 7.64886 2.9555 0
M  V30 17012 O 1814 8.53963 1.90717 0
M  V30 17013 C 1813.51 6.4116 2.90739 0
M  V30 17014 C 1814.22 5.55375 1.86963 0
M  V30 17015 N 1814.17 4.09448 2.16152 0
M  V30 17016 H 1817.01 7.45574 4.45629 0
M  V30 17017 H 1817.28 5.85864 3.679 0
M  V30 17018 H 1816.41 7.84412 2.24479 0
M  V30 17019 H 1813.76 5.73457 0.888562 0
M  V30 17020 H 1813.48 5.90877 3.88583 0
M  V30 17021 H 1812.49 6.6596 2.58858 0
M  V30 17022 H 1814.32 8.16339 3.92049 0
M  V30 17023 P 1812.45 8.7635 1.60911 0
M  V30 17024 O 1812.23 10.1388 1.11561 0
M  V30 17025 O 1811.66 8.36503 2.79617 0
M  V30 17026 O 1812.2 7.71806 0.42951 0
M  V30 17027 C 1813.14 7.67148 -0.673689 0
M  V30 17028 C 1812.41 7.33374 -1.95559 0
M  V30 17029 O 1812.2 5.88721 -2.00726 0
M  V30 17030 C 1811.01 7.92526 -2.10483 0
M  V30 17031 O 1810.62 8.02971 -3.47653 0
M  V30 17032 C 1810.13 6.89602 -1.41652 0
M  V30 17033 C 1810.84 5.59201 -1.75185 0
M  V30 17034 N 1810.79 4.58235 -0.662552 0
M  V30 17035 H 1813.63 8.65116 -0.777161 0
M  V30 17036 H 1813.9 6.90173 -0.474152 0
M  V30 17037 H 1813.03 7.66548 -2.79458 0
M  V30 17038 P 1809.07 8.03563 -3.84925 0
M  V30 17039 O 1808.85 8.85821 -5.0569 0
M  V30 17040 O 1808.28 8.41101 -2.65469 0
M  V30 17041 O 1808.82 6.4965 -4.18908 0
M  V30 17042 C 1809.76 5.81037 -5.05421 0
M  V30 17043 C 1809.03 4.78366 -5.89277 0
M  V30 17044 O 1808.82 3.58302 -5.08433 0
M  V30 17045 C 1807.63 5.17448 -6.36119 0
M  V30 17046 O 1807.24 4.45271 -7.53232 0
M  V30 17047 C 1806.75 4.74639 -5.19936 0
M  V30 17048 C 1807.46 3.49432 -4.70418 0
M  V30 17049 N 1807.41 3.32099 -3.22613 0
M  V30 17050 H 1810.25 6.54213 -5.71376 0
M  V30 17051 H 1810.52 5.30936 -4.43503 0
M  V30 17052 H 1809.65 4.55889 -6.76652 0
M  V30 17053 H 1807 2.61715 -5.17932 0
M  V30 17054 H 1806.72 5.52155 -4.41878 0
M  V30 17055 H 1805.73 4.51981 -5.53374 0
M  V30 17056 H 1807.56 6.25124 -6.55234 0
M  V30 17057 P 1805.69 4.23843 -7.83734 0
M  V30 17058 O 1805.47 4.19407 -9.29784 0
M  V30 17059 O 1804.9 5.24426 -7.09156 0
M  V30 17060 O 1805.44 2.7935 -7.20758 0
M  V30 17061 C 1806.38 1.7299 -7.50419 0
M  V30 17062 C 1805.65 0.406376 -7.57911 0
M  V30 17063 O 1805.44 -0.0897726 -6.21935 0
M  V30 17064 C 1804.25 0.447224 -8.1878 0
M  V30 17065 O 1803.86 -0.825065 -8.71101 0
M  V30 17066 C 1803.37 0.783801 -6.99623 0
M  V30 17067 C 1804.08 0.0619192 -5.85967 0
M  V30 17068 N 1804.03 0.7859 -4.56281 0
M  V30 17069 H 1806.87 1.93423 -8.4679 0
M  V30 17070 H 1807.14 1.68181 -6.71046 0
M  V30 17071 H 1806.27 -0.289041 -8.15388 0
M  V30 17072 P 1802.31 -1.17771 -8.83182 0
M  V30 17073 O 1802.09 -2.07206 -9.98732 0
M  V30 17074 O 1801.52 0.0743816 -8.81969 0
M  V30 17075 O 1802.06 -1.97652 -7.47304 0
M  V30 17076 C 1803 -3.01133 -7.08783 0
M  V30 17077 C 1802.27 -4.12613 -6.37049 0
M  V30 17078 O 1802.06 -3.72827 -4.97879 0
M  V30 17079 C 1800.87 -4.45085 -6.88694 0
M  V30 17080 O 1800.48 -5.7877 -6.5624 0
M  V30 17081 C 1799.99 -3.47817 -6.12078 0
M  V30 17082 C 1800.7 -3.39414 -4.77697 0
M  V30 17083 N 1800.65 -2.04615 -4.15333 0
M  V30 17084 H 1803.49 -3.41248 -7.98759 0
M  V30 17085 H 1803.76 -2.5837 -6.41742 0
M  V30 17086 H 1802.89 -5.02657 -6.42673 0
M  V30 17087 P 1798.93 -6.144 -6.45285 0
M  V30 17088 O 1798.71 -7.54673 -6.86199 0
M  V30 17089 O 1798.14 -5.12391 -7.179 0
M  V30 17090 O 1798.68 -5.99158 -4.88404 0
M  V30 17091 C 1799.62 -6.60234 -3.96415 0
M  V30 17092 C 1798.89 -7.08259 -2.72856 0
M  V30 17093 O 1798.68 -5.9427 -1.83651 0
M  V30 17094 C 1797.49 -7.64886 -2.9555 0
M  V30 17095 O 1797.1 -8.53963 -1.90717 0
M  V30 17096 C 1796.61 -6.4116 -2.90739 0
M  V30 17097 C 1797.32 -5.55375 -1.86963 0
M  V30 17098 N 1797.27 -4.09664 -2.15742 0
M  V30 17099 C 1797.35 -3.44381 -3.37233 0
M  V30 17100 N 1797.27 -2.14131 -3.28347 0
M  V30 17101 C 1797.13 -1.90247 -1.91588 0
M  V30 17102 C 1797 -0.683992 -1.20892 0
M  V30 17103 O 1796.98 0.46618 -1.64523 0
M  V30 17104 N 1796.88 -0.903396 0.173998 0
M  V30 17105 C 1796.88 -2.14171 0.784879 0
M  V30 17106 N 1796.75 -2.1435 2.11317 0
M  V30 17107 N 1797.01 -3.28784 0.119316 0
M  V30 17108 C 1797.13 -3.0977 -1.22194 0
M  V30 17109 H 1800.11 -7.45574 -4.45629 0
M  V30 17110 H 1800.38 -5.86232 -3.67314 0
M  V30 17111 H 1799.51 -7.84412 -2.24479 0
M  V30 17112 H 1796.86 -5.73556 -0.888715 0
M  V30 17113 H 1796.58 -5.9096 -3.88638 0
M  V30 17114 H 1795.59 -6.66053 -2.58894 0
M  V30 17115 H 1797.42 -8.16429 -3.92093 0
M  V30 17116 H 1797.47 -3.96785 -4.32043 0
M  V30 17117 H 1796.79 -0.0999567 0.761467 0
M  V30 17118 H 1796.75 -3.03436 2.63076 0
M  V30 17119 H 1796.65 -1.25228 2.62233 0
M  V30 17120 P 1795.55 -8.7635 -1.60911 0
M  V30 17121 O 1795.33 -10.1388 -1.11561 0
M  V30 17122 O 1794.76 -8.36503 -2.79617 0
M  V30 17123 O 1795.3 -7.71806 -0.42951 0
M  V30 17124 C 1796.24 -7.67148 0.673689 0
M  V30 17125 C 1795.51 -7.33374 1.95559 0
M  V30 17126 O 1795.3 -5.88721 2.00726 0
M  V30 17127 C 1794.11 -7.92526 2.10483 0
M  V30 17128 O 1793.72 -8.02971 3.47653 0
M  V30 17129 C 1793.23 -6.89602 1.41652 0
M  V30 17130 C 1793.94 -5.59201 1.75185 0
M  V30 17131 N 1793.89 -4.58235 0.662552 0
M  V30 17132 H 1796.73 -8.65116 0.777161 0
M  V30 17133 H 1797 -6.90173 0.474152 0
M  V30 17134 H 1796.13 -7.66548 2.79458 0
M  V30 17135 P 1792.17 -8.03563 3.84925 0
M  V30 17136 O 1791.95 -8.85821 5.0569 0
M  V30 17137 O 1791.38 -8.41101 2.65469 0
M  V30 17138 O 1791.92 -6.4965 4.18908 0
M  V30 17139 C 1792.86 -5.80886 5.05289 0
M  V30 17140 C 1792.13 -4.78366 5.89277 0
M  V30 17141 O 1791.92 -3.58302 5.08433 0
M  V30 17142 C 1790.73 -5.16748 6.36559 0
M  V30 17143 O 1790.34 -4.45271 7.53232 0
M  V30 17144 C 1789.85 -4.74572 5.19863 0
M  V30 17145 C 1790.56 -3.49373 4.70338 0
M  V30 17146 N 1790.51 -3.31704 3.22876 0
M  V30 17147 C 1790.36 -2.03326 2.74871 0
M  V30 17148 O 1790.27 -1.06486 3.48076 0
M  V30 17149 N 1790.32 -1.91838 1.37456 0
M  V30 17150 C 1790.41 -2.94295 0.462035 0
M  V30 17151 C 1790.56 -4.25064 1.05249 0
M  V30 17152 C 1790.61 -4.40214 2.39192 0
M  V30 17153 H 1793.35 -6.54063 5.71245 0
M  V30 17154 H 1793.62 -5.30339 4.43905 0
M  V30 17155 H 1792.75 -4.55889 6.76652 0
M  V30 17156 H 1790.1 -2.6167 5.17842 0
M  V30 17157 H 1789.82 -5.52155 4.41878 0
M  V30 17158 H 1788.83 -4.51918 5.53297 0
M  V30 17159 H 1790.66 -6.25055 6.55162 0
M  V30 17160 H 1790.73 -5.39798 2.81523 0
M  V30 17161 P 1788.79 -4.23843 7.83734 0
M  V30 17162 O 1788.57 -4.19407 9.29784 0
M  V30 17163 O 1788 -5.24426 7.09156 0
M  V30 17164 O 1788.54 -2.7935 7.20758 0
M  V30 17165 C 1789.48 -1.72945 7.50224 0
M  V30 17166 C 1788.75 -0.406376 7.57911 0
M  V30 17167 O 1788.54 0.0897726 6.21935 0
M  V30 17168 C 1787.35 -0.438983 8.18724 0
M  V30 17169 O 1786.96 0.825065 8.71101 0
M  V30 17170 C 1786.47 -0.783689 6.99524 0
M  V30 17171 C 1787.18 -0.0619086 5.85867 0
M  V30 17172 N 1787.13 -0.78573 4.56183 0
M  V30 17173 C 1786.98 -0.0292889 3.41887 0
M  V30 17174 O 1786.89 1.18445 3.4419 0
M  V30 17175 N 1786.94 -0.744061 2.23964 0
M  V30 17176 C 1787.03 -2.10932 2.10362 0
M  V30 17177 O 1786.98 -2.64117 0.98825 0
M  V30 17178 C 1787.18 -2.8202 3.34994 0
M  V30 17179 C 1787.29 -4.31095 3.25037 0
M  V30 17180 C 1787.23 -2.15547 4.52261 0
M  V30 17181 H 1789.97 -1.93379 8.46595 0
M  V30 17182 H 1790.24 -1.68132 6.70852 0
M  V30 17183 H 1789.37 0.289041 8.15388 0
M  V30 17184 H 1786.72 0.926847 5.72749 0
M  V30 17185 H 1786.44 -1.86973 6.82036 0
M  V30 17186 H 1785.45 -0.403896 7.13257 0
M  V30 17187 H 1787.28 -1.20585 8.97435 0
M  V30 17188 H 1787.35 -2.71231 5.45042 0
M  V30 17189 H 1786.32 -4.76966 3.49992 0
M  V30 17190 H 1788.06 -4.67047 3.95024 0
M  V30 17191 H 1787.57 -4.58996 2.22312 0
M  V30 17192 H 1786.83 -0.214893 1.39758 0
M  V30 17193 P 1785.41 1.17771 8.83182 0
M  V30 17194 O 1785.19 2.07206 9.98732 0
M  V30 17195 O 1784.62 -0.0743816 8.81969 0
M  V30 17196 O 1785.16 1.97652 7.47304 0
M  V30 17197 C 1786.1 3.01055 7.08599 0
M  V30 17198 C 1785.37 4.12613 6.37049 0
M  V30 17199 O 1785.16 3.72827 4.97879 0
M  V30 17200 C 1783.97 4.45719 6.88164 0
M  V30 17201 O 1783.58 5.7877 6.5624 0
M  V30 17202 C 1783.09 3.47768 6.11991 0
M  V30 17203 C 1783.8 3.39356 4.77615 0
M  V30 17204 N 1783.75 2.04571 4.15244 0
M  V30 17205 C 1783.6 1.98587 2.78314 0
M  V30 17206 O 1783.51 2.98134 2.08835 0
M  V30 17207 N 1783.56 0.714467 2.24925 0
M  V30 17208 C 1783.65 -0.470001 2.94169 0
M  V30 17209 O 1783.6 -1.55587 2.35195 0
M  V30 17210 C 1783.8 -0.312541 4.36783 0
M  V30 17211 C 1783.91 -1.57711 5.16352 0
M  V30 17212 C 1783.85 0.914512 4.92583 0
M  V30 17213 H 1786.59 3.41169 7.98575 0
M  V30 17214 H 1786.86 2.58295 6.41556 0
M  V30 17215 H 1785.99 5.02657 6.42673 0
M  V30 17216 H 1783.34 4.11637 4.08885 0
M  V30 17217 H 1783.06 2.49626 6.61679 0
M  V30 17218 H 1782.07 3.86566 6.00778 0
M  V30 17219 H 1783.9 4.29943 7.96918 0
M  V30 17220 H 1783.97 1.00937 6.00374 0
M  V30 17221 H 1782.94 -1.80153 5.63503 0
M  V30 17222 H 1784.68 -1.4566 5.94104 0
M  V30 17223 H 1784.19 -2.40664 4.49645 0
M  V30 17224 H 1783.45 0.647622 1.25697 0
M  V30 17225 P 1782.03 6.144 6.45285 0
M  V30 17226 O 1781.81 7.54673 6.86199 0
M  V30 17227 O 1781.24 5.12391 7.179 0
M  V30 17228 O 1781.78 5.99158 4.88404 0
M  V30 17229 C 1782.72 6.60234 3.96415 0
M  V30 17230 C 1781.99 7.08259 2.72856 0
M  V30 17231 O 1781.78 5.9427 1.83651 0
M  V30 17232 C 1780.59 7.64886 2.9555 0
M  V30 17233 O 1780.2 8.53963 1.90717 0
M  V30 17234 C 1779.71 6.4116 2.90739 0
M  V30 17235 C 1780.42 5.55375 1.86963 0
M  V30 17236 N 1780.37 4.09664 2.15742 0
M  V30 17237 H 1783.21 7.45574 4.45629 0
M  V30 17238 H 1783.48 5.86232 3.67314 0
M  V30 17239 H 1782.61 7.84412 2.24479 0
M  V30 17240 P 1778.65 8.7635 1.60911 0
M  V30 17241 O 1778.43 10.1388 1.11561 0
M  V30 17242 O 1777.86 8.36503 2.79617 0
M  V30 17243 O 1778.4 7.71806 0.42951 0
M  V30 17244 C 1779.34 7.67148 -0.673689 0
M  V30 17245 C 1778.61 7.33374 -1.95559 0
M  V30 17246 O 1778.4 5.88721 -2.00726 0
M  V30 17247 C 1777.21 7.92526 -2.10483 0
M  V30 17248 O 1776.82 8.02971 -3.47653 0
M  V30 17249 C 1776.33 6.89602 -1.41652 0
M  V30 17250 C 1777.04 5.59201 -1.75185 0
M  V30 17251 N 1776.99 4.58301 -0.657969 0
M  V30 17252 H 1779.83 8.65116 -0.777161 0
M  V30 17253 H 1780.1 6.9022 -0.46725 0
M  V30 17254 H 1779.23 7.66548 -2.79458 0
M  V30 17255 H 1776.58 5.16165 -2.65183 0
M  V30 17256 H 1776.3 7.06433 -0.329384 0
M  V30 17257 H 1775.31 6.90926 -1.82021 0
M  V30 17258 H 1777.14 8.90873 -1.62657 0
M  V30 17259 P 1775.27 8.03563 -3.84925 0
M  V30 17260 O 1775.05 8.85821 -5.0569 0
M  V30 17261 O 1774.48 8.41101 -2.65469 0
M  V30 17262 O 1775.02 6.4965 -4.18908 0
M  V30 17263 C 1775.96 5.80886 -5.05289 0
M  V30 17264 C 1775.23 4.78366 -5.89277 0
M  V30 17265 O 1775.02 3.58302 -5.08433 0
M  V30 17266 C 1773.83 5.16748 -6.36559 0
M  V30 17267 O 1773.44 4.45271 -7.53232 0
M  V30 17268 C 1772.95 4.74572 -5.19863 0
M  V30 17269 C 1773.66 3.49373 -4.70338 0
M  V30 17270 N 1773.61 3.31704 -3.22876 0
M  V30 17271 C 1773.46 2.03326 -2.74871 0
M  V30 17272 O 1773.37 1.06486 -3.48076 0
M  V30 17273 N 1773.42 1.91838 -1.37456 0
M  V30 17274 C 1773.51 2.94295 -0.462035 0
M  V30 17275 C 1773.66 4.25064 -1.05249 0
M  V30 17276 C 1773.71 4.40214 -2.39192 0
M  V30 17277 H 1776.45 6.54063 -5.71245 0
M  V30 17278 H 1776.72 5.30339 -4.43905 0
M  V30 17279 H 1775.85 4.55889 -6.76652 0
M  V30 17280 H 1773.2 2.6167 -5.17842 0
M  V30 17281 H 1772.92 5.52155 -4.41878 0
M  V30 17282 H 1771.93 4.51918 -5.53297 0
M  V30 17283 H 1773.76 6.25055 -6.55162 0
M  V30 17284 H 1773.83 5.39798 -2.81523 0
M  V30 17285 P 1771.89 4.23843 -7.83734 0
M  V30 17286 O 1771.67 4.19407 -9.29784 0
M  V30 17287 O 1771.1 5.24426 -7.09156 0
M  V30 17288 O 1771.64 2.7935 -7.20758 0
M  V30 17289 C 1772.58 1.7299 -7.50419 0
M  V30 17290 C 1771.85 0.406376 -7.57911 0
M  V30 17291 O 1771.64 -0.0897726 -6.21935 0
M  V30 17292 C 1770.45 0.447224 -8.1878 0
M  V30 17293 O 1770.06 -0.825065 -8.71101 0
M  V30 17294 C 1769.57 0.783801 -6.99623 0
M  V30 17295 C 1770.28 0.0619192 -5.85967 0
M  V30 17296 N 1770.23 0.7859 -4.56281 0
M  V30 17297 H 1773.07 1.93423 -8.4679 0
M  V30 17298 H 1773.34 1.68181 -6.71046 0
M  V30 17299 H 1772.47 -0.289041 -8.15388 0
M  V30 17300 P 1768.51 -1.17771 -8.83182 0
M  V30 17301 O 1768.29 -2.07206 -9.98732 0
M  V30 17302 O 1767.72 0.0743816 -8.81969 0
M  V30 17303 O 1768.26 -1.97652 -7.47304 0
M  V30 17304 C 1769.2 -3.01133 -7.08783 0
M  V30 17305 C 1768.47 -4.12613 -6.37049 0
M  V30 17306 O 1768.26 -3.72827 -4.97879 0
M  V30 17307 C 1767.07 -4.45085 -6.88694 0
M  V30 17308 O 1766.68 -5.7877 -6.5624 0
M  V30 17309 C 1766.19 -3.47817 -6.12078 0
M  V30 17310 C 1766.9 -3.39414 -4.77697 0
M  V30 17311 N 1766.85 -2.04615 -4.15333 0
M  V30 17312 H 1769.69 -3.41248 -7.98759 0
M  V30 17313 H 1769.96 -2.5837 -6.41742 0
M  V30 17314 H 1769.09 -5.02657 -6.42673 0
M  V30 17315 P 1765.13 -6.144 -6.45285 0
M  V30 17316 O 1764.91 -7.54673 -6.86199 0
M  V30 17317 O 1764.34 -5.12391 -7.179 0
M  V30 17318 O 1764.88 -5.99158 -4.88404 0
M  V30 17319 C 1765.82 -6.60234 -3.96415 0
M  V30 17320 C 1765.09 -7.08259 -2.72856 0
M  V30 17321 O 1764.88 -5.9427 -1.83651 0
M  V30 17322 C 1763.69 -7.64886 -2.9555 0
M  V30 17323 O 1763.3 -8.53963 -1.90717 0
M  V30 17324 C 1762.81 -6.4116 -2.90739 0
M  V30 17325 C 1763.52 -5.55375 -1.86963 0
M  V30 17326 N 1763.47 -4.09664 -2.15742 0
M  V30 17327 H 1766.31 -7.45574 -4.45629 0
M  V30 17328 H 1766.58 -5.86232 -3.67314 0
M  V30 17329 H 1765.71 -7.84412 -2.24479 0
M  V30 17330 P 1761.75 -8.7635 -1.60911 0
M  V30 17331 O 1761.53 -10.1388 -1.11561 0
M  V30 17332 O 1760.96 -8.36503 -2.79617 0
M  V30 17333 O 1761.5 -7.71806 -0.42951 0
M  V30 17334 C 1762.44 -7.67148 0.673689 0
M  V30 17335 C 1761.71 -7.33374 1.95559 0
M  V30 17336 O 1761.5 -5.88721 2.00726 0
M  V30 17337 C 1760.31 -7.92526 2.10483 0
M  V30 17338 O 1759.92 -8.02971 3.47653 0
M  V30 17339 C 1759.43 -6.89602 1.41652 0
M  V30 17340 C 1760.14 -5.59201 1.75185 0
M  V30 17341 N 1760.09 -4.58301 0.657969 0
M  V30 17342 H 1762.93 -8.65116 0.777161 0
M  V30 17343 H 1763.2 -6.9022 0.46725 0
M  V30 17344 H 1762.33 -7.66548 2.79458 0
M  V30 17345 H 1759.68 -5.16165 2.65183 0
M  V30 17346 H 1759.4 -7.06433 0.329384 0
M  V30 17347 H 1758.41 -6.90926 1.82021 0
M  V30 17348 H 1760.24 -8.90873 1.62657 0
M  V30 17349 P 1758.37 -8.03563 3.84925 0
M  V30 17350 O 1758.15 -8.85821 5.0569 0
M  V30 17351 O 1757.58 -8.41101 2.65469 0
M  V30 17352 O 1758.12 -6.4965 4.18908 0
M  V30 17353 C 1759.06 -5.81037 5.05421 0
M  V30 17354 C 1758.33 -4.78366 5.89277 0
M  V30 17355 O 1758.12 -3.58302 5.08433 0
M  V30 17356 C 1756.93 -5.17448 6.36119 0
M  V30 17357 O 1756.54 -4.45271 7.53232 0
M  V30 17358 C 1756.05 -4.74639 5.19936 0
M  V30 17359 C 1756.76 -3.49432 4.70418 0
M  V30 17360 N 1756.71 -3.32099 3.22613 0
M  V30 17361 H 1759.55 -6.54213 5.71376 0
M  V30 17362 H 1759.82 -5.30936 4.43503 0
M  V30 17363 H 1758.95 -4.55889 6.76652 0
M  V30 17364 H 1756.3 -2.61715 5.17932 0
M  V30 17365 H 1756.02 -5.52155 4.41878 0
M  V30 17366 H 1755.03 -4.51981 5.53374 0
M  V30 17367 H 1756.86 -6.25124 6.55234 0
M  V30 17368 P 1754.99 -4.23843 7.83734 0
M  V30 17369 O 1754.77 -4.19407 9.29784 0
M  V30 17370 O 1754.2 -5.24426 7.09156 0
M  V30 17371 O 1754.74 -2.7935 7.20758 0
M  V30 17372 C 1755.68 -1.7299 7.50419 0
M  V30 17373 C 1754.95 -0.406376 7.57911 0
M  V30 17374 O 1754.74 0.0897726 6.21935 0
M  V30 17375 C 1753.55 -0.447224 8.1878 0
M  V30 17376 O 1753.16 0.825065 8.71101 0
M  V30 17377 C 1752.67 -0.783801 6.99623 0
M  V30 17378 C 1753.38 -0.0619192 5.85967 0
M  V30 17379 N 1753.33 -0.790462 4.56202 0
M  V30 17380 H 1756.17 -1.93423 8.4679 0
M  V30 17381 H 1756.44 -1.68852 6.70877 0
M  V30 17382 H 1755.57 0.289041 8.15388 0
M  V30 17383 H 1752.92 0.927006 5.72848 0
M  V30 17384 H 1752.64 -1.86973 6.82036 0
M  V30 17385 H 1751.65 -0.403953 7.13357 0
M  V30 17386 H 1753.48 -1.20599 8.97534 0
M  V30 17387 P 1751.61 1.17771 8.83182 0
M  V30 17388 O 1751.39 2.07206 9.98732 0
M  V30 17389 O 1750.82 -0.0743816 8.81969 0
M  V30 17390 O 1751.36 1.97652 7.47304 0
M  V30 17391 C 1752.3 3.01055 7.08599 0
M  V30 17392 C 1751.57 4.12613 6.37049 0
M  V30 17393 O 1751.36 3.72827 4.97879 0
M  V30 17394 C 1750.17 4.45719 6.88164 0
M  V30 17395 O 1749.78 5.7877 6.5624 0
M  V30 17396 C 1749.29 3.47768 6.11991 0
M  V30 17397 C 1750 3.39356 4.77615 0
M  V30 17398 N 1749.95 2.04571 4.15244 0
M  V30 17399 C 1749.8 1.98587 2.78314 0
M  V30 17400 O 1749.71 2.98134 2.08835 0
M  V30 17401 N 1749.76 0.714467 2.24925 0
M  V30 17402 C 1749.85 -0.470001 2.94169 0
M  V30 17403 O 1749.8 -1.55587 2.35195 0
M  V30 17404 C 1750 -0.312541 4.36783 0
M  V30 17405 C 1750.11 -1.57711 5.16352 0
M  V30 17406 C 1750.05 0.914512 4.92583 0
M  V30 17407 H 1752.79 3.41169 7.98575 0
M  V30 17408 H 1753.06 2.58295 6.41556 0
M  V30 17409 H 1752.19 5.02657 6.42673 0
M  V30 17410 H 1749.54 4.11637 4.08885 0
M  V30 17411 H 1749.26 2.49626 6.61679 0
M  V30 17412 H 1748.27 3.86566 6.00778 0
M  V30 17413 H 1750.1 4.29943 7.96918 0
M  V30 17414 H 1750.17 1.00937 6.00374 0
M  V30 17415 H 1749.14 -1.80153 5.63503 0
M  V30 17416 H 1750.88 -1.4566 5.94104 0
M  V30 17417 H 1750.39 -2.40664 4.49645 0
M  V30 17418 H 1749.65 0.647622 1.25697 0
M  V30 17419 P 1748.23 6.144 6.45285 0
M  V30 17420 O 1748.01 7.54673 6.86199 0
M  V30 17421 O 1747.44 5.12391 7.179 0
M  V30 17422 O 1747.98 5.99158 4.88404 0
M  V30 17423 C 1748.92 6.60234 3.96415 0
M  V30 17424 C 1748.19 7.08259 2.72856 0
M  V30 17425 O 1747.98 5.9427 1.83651 0
M  V30 17426 C 1746.79 7.64886 2.9555 0
M  V30 17427 O 1746.4 8.53963 1.90717 0
M  V30 17428 C 1745.91 6.4116 2.90739 0
M  V30 17429 C 1746.62 5.55375 1.86963 0
M  V30 17430 N 1746.57 4.09664 2.15742 0
M  V30 17431 H 1749.41 7.45574 4.45629 0
M  V30 17432 H 1749.68 5.86232 3.67314 0
M  V30 17433 H 1748.81 7.84412 2.24479 0
M  V30 17434 P 1744.85 8.7635 1.60911 0
M  V30 17435 O 1744.63 10.1388 1.11561 0
M  V30 17436 O 1744.06 8.36503 2.79617 0
M  V30 17437 O 1744.6 7.71806 0.42951 0
M  V30 17438 C 1745.54 7.67148 -0.673689 0
M  V30 17439 C 1744.81 7.33374 -1.95559 0
M  V30 17440 O 1744.6 5.88721 -2.00726 0
M  V30 17441 C 1743.41 7.92526 -2.10483 0
M  V30 17442 O 1743.02 8.02971 -3.47653 0
M  V30 17443 C 1742.53 6.89602 -1.41652 0
M  V30 17444 C 1743.24 5.59201 -1.75185 0
M  V30 17445 N 1743.19 4.58235 -0.662552 0
M  V30 17446 C 1743.27 4.7683 0.704049 0
M  V30 17447 N 1743.19 3.66233 1.39775 0
M  V30 17448 C 1743.05 2.66526 0.431739 0
M  V30 17449 C 1742.92 1.26394 0.575992 0
M  V30 17450 N 1742.8 0.62859 -0.67177 0
M  V30 17451 C 1742.8 1.27134 -1.89385 0
M  V30 17452 N 1742.67 0.492035 -2.96951 0
M  V30 17453 N 1742.93 2.58978 -2.02907 0
M  V30 17454 C 1743.05 3.22433 -0.832218 0
M  V30 17455 H 1746.03 8.65116 -0.777161 0
M  V30 17456 H 1746.3 6.90173 -0.474152 0
M  V30 17457 H 1745.43 7.66548 -2.79458 0
M  V30 17458 P 1741.47 8.03563 -3.84925 0
M  V30 17459 O 1741.25 8.85821 -5.0569 0
M  V30 17460 O 1740.68 8.41101 -2.65469 0
M  V30 17461 O 1741.22 6.4965 -4.18908 0
M  V30 17462 C 1742.16 5.81037 -5.05421 0
M  V30 17463 C 1741.43 4.78366 -5.89277 0
M  V30 17464 O 1741.22 3.58302 -5.08433 0
M  V30 17465 C 1740.03 5.17448 -6.36119 0
M  V30 17466 O 1739.64 4.45271 -7.53232 0
M  V30 17467 C 1739.15 4.74639 -5.19936 0
M  V30 17468 C 1739.86 3.49432 -4.70418 0
M  V30 17469 N 1739.81 3.32099 -3.22613 0
M  V30 17470 H 1742.65 6.54213 -5.71376 0
M  V30 17471 H 1742.92 5.30936 -4.43503 0
M  V30 17472 H 1742.05 4.55889 -6.76652 0
M  V30 17473 H 1739.4 2.61715 -5.17932 0
M  V30 17474 H 1739.12 5.52155 -4.41878 0
M  V30 17475 H 1738.13 4.51981 -5.53374 0
M  V30 17476 H 1739.96 6.25124 -6.55234 0
M  V30 17477 P 1738.09 4.23843 -7.83734 0
M  V30 17478 O 1737.87 4.19407 -9.29784 0
M  V30 17479 O 1737.3 5.24426 -7.09156 0
M  V30 17480 O 1737.84 2.7935 -7.20758 0
M  V30 17481 C 1738.78 1.7299 -7.50419 0
M  V30 17482 C 1738.05 0.406376 -7.57911 0
M  V30 17483 O 1737.84 -0.0897726 -6.21935 0
M  V30 17484 C 1736.65 0.447224 -8.1878 0
M  V30 17485 O 1736.26 -0.825065 -8.71101 0
M  V30 17486 C 1735.77 0.783801 -6.99623 0
M  V30 17487 C 1736.48 0.0619192 -5.85967 0
M  V30 17488 N 1736.43 0.7859 -4.56281 0
M  V30 17489 H 1739.27 1.93423 -8.4679 0
M  V30 17490 H 1739.54 1.68181 -6.71046 0
M  V30 17491 H 1738.67 -0.289041 -8.15388 0
M  V30 17492 P 1734.71 -1.17771 -8.83182 0
M  V30 17493 O 1734.49 -2.07206 -9.98732 0
M  V30 17494 O 1733.92 0.0743816 -8.81969 0
M  V30 17495 O 1734.46 -1.97678 -7.474 0
M  V30 17496 C 1735.4 -3.01133 -7.08783 0
M  V30 17497 C 1734.67 -4.1203 -6.37546 0
M  V30 17498 O 1734.46 -3.72887 -4.9796 0
M  V30 17499 C 1733.27 -4.45085 -6.88694 0
M  V30 17500 O 1732.88 -5.78836 -6.56315 0
M  V30 17501 C 1732.39 -3.47817 -6.12078 0
M  V30 17502 C 1733.1 -3.39414 -4.77697 0
M  V30 17503 N 1733.05 -2.04615 -4.15333 0
M  V30 17504 C 1732.9 -1.96929 -2.77162 0
M  V30 17505 O 1732.81 -3.02017 -2.12006 0
M  V30 17506 N 1732.85 -0.55485 -2.24237 0
M  V30 17507 C 1732.95 0.367808 -2.9169 0
M  V30 17508 N 1732.9 1.53426 -2.29427 0
M  V30 17509 C 1733.1 0.319148 -4.33828 0
M  V30 17510 C 1733.15 -0.920672 -4.90433 0
M  V30 17511 H 1735.89 -3.41209 -7.98667 0
M  V30 17512 H 1736.16 -2.5837 -6.41742 0
M  V30 17513 H 1735.29 -5.02718 -6.42752 0
M  V30 17514 H 1732.64 -4.11779 -4.09026 0
M  V30 17515 H 1732.36 -2.49661 -6.61772 0
M  V30 17516 H 1731.37 -3.86674 -6.00946 0
M  V30 17517 H 1733.2 -4.29991 -7.97006 0
M  V30 17518 H 1733.27 -1.00589 -5.98303 0
M  V30 17519 H 1733.17 1.22639 -4.93799 0
M  V30 17520 H 1732.78 1.56819 -1.27167 0
M  V30 17521 H 1732.98 2.41062 -2.83063 0
M  V30 17522 P 1731.33 -6.144 -6.45285 0
M  V30 17523 O 1731.11 -7.54673 -6.86199 0
M  V30 17524 O 1730.54 -5.12391 -7.179 0
M  V30 17525 O 1731.08 -5.99158 -4.88404 0
M  V30 17526 C 1732.02 -6.60234 -3.96415 0
M  V30 17527 C 1731.29 -7.08259 -2.72856 0
M  V30 17528 O 1731.08 -5.9427 -1.83651 0
M  V30 17529 C 1729.89 -7.64886 -2.9555 0
M  V30 17530 O 1729.5 -8.53963 -1.90717 0
M  V30 17531 C 1729.01 -6.4116 -2.90739 0
M  V30 17532 C 1729.72 -5.55375 -1.86963 0
M  V30 17533 N 1729.67 -4.09448 -2.16152 0
M  V30 17534 H 1732.51 -7.45574 -4.45629 0
M  V30 17535 H 1732.78 -5.85864 -3.679 0
M  V30 17536 H 1731.91 -7.84412 -2.24479 0
M  V30 17537 H 1729.26 -5.73457 -0.888562 0
M  V30 17538 H 1728.98 -5.90877 -3.88583 0
M  V30 17539 H 1727.99 -6.6596 -2.58858 0
M  V30 17540 H 1729.82 -8.16339 -3.92049 0
M  V30 17541 P 1727.95 -8.7635 -1.60911 0
M  V30 17542 O 1727.73 -10.1388 -1.11561 0
M  V30 17543 O 1727.16 -8.36503 -2.79617 0
M  V30 17544 O 1727.7 -7.71806 -0.42951 0
M  V30 17545 C 1728.64 -7.66948 0.673514 0
M  V30 17546 C 1727.91 -7.33374 1.95559 0
M  V30 17547 O 1727.7 -5.88721 2.00726 0
M  V30 17548 C 1726.51 -7.92218 2.1125 0
M  V30 17549 O 1726.12 -8.02971 3.47653 0
M  V30 17550 C 1725.63 -6.89504 1.41631 0
M  V30 17551 C 1726.34 -5.59106 1.75155 0
M  V30 17552 N 1726.29 -4.58136 0.662409 0
M  V30 17553 C 1726.14 -3.26059 1.02863 0
M  V30 17554 O 1726.05 -2.90743 2.19009 0
M  V30 17555 N 1726.1 -2.35995 -0.0155585 0
M  V30 17556 C 1726.19 -2.65248 -1.35603 0
M  V30 17557 O 1726.14 -1.75605 -2.20651 0
M  V30 17558 C 1726.34 -4.05747 -1.64698 0
M  V30 17559 C 1726.45 -4.42345 -3.09553 0
M  V30 17560 C 1726.39 -4.96734 -0.652411 0
M  V30 17561 H 1729.13 -8.64917 0.776982 0
M  V30 17562 H 1729.4 -6.89974 0.474015 0
M  V30 17563 H 1728.53 -7.66548 2.79458 0
M  V30 17564 H 1725.88 -5.16076 2.65138 0
M  V30 17565 H 1725.6 -7.06433 0.329384 0
M  V30 17566 H 1724.61 -6.90829 1.81996 0
M  V30 17567 H 1726.44 -8.90774 1.62639 0
M  V30 17568 H 1726.51 -6.02181 -0.895285 0
M  V30 17569 H 1725.48 -4.80252 -3.45468 0
M  V30 17570 H 1727.22 -5.20015 -3.22119 0
M  V30 17571 H 1726.73 -3.53269 -3.67833 0
M  V30 17572 H 1725.99 -1.39558 0.227499 0
M  V30 17573 P 1724.57 -8.03563 3.84925 0
M  V30 17574 O 1724.35 -8.85821 5.0569 0
M  V30 17575 O 1723.78 -8.41101 2.65469 0
M  V30 17576 O 1724.32 -6.4965 4.18908 0
M  V30 17577 C 1725.26 -5.81037 5.05421 0
M  V30 17578 C 1724.53 -4.78366 5.89277 0
M  V30 17579 O 1724.32 -3.58302 5.08433 0
M  V30 17580 C 1723.13 -5.17448 6.36119 0
M  V30 17581 O 1722.74 -4.45271 7.53232 0
M  V30 17582 C 1722.25 -4.74639 5.19936 0
M  V30 17583 C 1722.96 -3.49432 4.70418 0
M  V30 17584 N 1722.91 -3.31776 3.22945 0
M  V30 17585 H 1725.75 -6.54213 5.71376 0
M  V30 17586 H 1726.02 -5.30492 4.44033 0
M  V30 17587 H 1725.15 -4.55889 6.76652 0
M  V30 17588 P 1721.19 -4.23843 7.83734 0
M  V30 17589 O 1720.97 -4.19407 9.29784 0
M  V30 17590 O 1720.4 -5.24426 7.09156 0
M  V30 17591 O 1720.94 -2.7935 7.20758 0
M  V30 17592 C 1721.88 -1.7299 7.50419 0
M  V30 17593 C 1721.15 -0.406376 7.57911 0
M  V30 17594 O 1720.94 0.0897726 6.21935 0
M  V30 17595 C 1719.75 -0.447224 8.1878 0
M  V30 17596 O 1719.36 0.825065 8.71101 0
M  V30 17597 C 1718.87 -0.783801 6.99623 0
M  V30 17598 C 1719.58 -0.0619192 5.85967 0
M  V30 17599 N 1719.53 -0.7859 4.56281 0
M  V30 17600 H 1722.37 -1.93423 8.4679 0
M  V30 17601 H 1722.64 -1.68181 6.71046 0
M  V30 17602 H 1721.77 0.289041 8.15388 0
M  V30 17603 P 1717.81 1.17771 8.83182 0
M  V30 17604 O 1717.59 2.07206 9.98732 0
M  V30 17605 O 1717.02 -0.0743816 8.81969 0
M  V30 17606 O 1717.56 1.97652 7.47304 0
M  V30 17607 C 1718.5 3.01133 7.08783 0
M  V30 17608 C 1717.77 4.12613 6.37049 0
M  V30 17609 O 1717.56 3.72827 4.97879 0
M  V30 17610 C 1716.37 4.45085 6.88694 0
M  V30 17611 O 1715.98 5.7877 6.5624 0
M  V30 17612 C 1715.49 3.47817 6.12078 0
M  V30 17613 C 1716.2 3.39414 4.77697 0
M  V30 17614 N 1716.15 2.04615 4.15333 0
M  V30 17615 H 1718.99 3.41248 7.98759 0
M  V30 17616 H 1719.26 2.5837 6.41742 0
M  V30 17617 H 1718.39 5.02657 6.42673 0
M  V30 17618 P 1714.43 6.144 6.45285 0
M  V30 17619 O 1714.21 7.54673 6.86199 0
M  V30 17620 O 1713.64 5.12391 7.179 0
M  V30 17621 O 1714.18 5.99236 4.88467 0
M  V30 17622 C 1715.12 6.60234 3.96415 0
M  V30 17623 C 1714.39 7.08079 2.736 0
M  V30 17624 O 1714.18 5.94365 1.8368 0
M  V30 17625 C 1712.99 7.64886 2.9555 0
M  V30 17626 O 1712.6 8.5406 1.90739 0
M  V30 17627 C 1712.11 6.4116 2.90739 0
M  V30 17628 C 1712.82 5.55375 1.86963 0
M  V30 17629 N 1712.77 4.09664 2.15742 0
M  V30 17630 C 1712.62 3.22231 1.08477 0
M  V30 17631 O 1712.53 3.68951 -0.0600489 0
M  V30 17632 N 1712.57 1.76692 1.48799 0
M  V30 17633 C 1712.67 1.41695 2.57602 0
M  V30 17634 N 1712.62 0.107296 2.75791 0
M  V30 17635 C 1712.82 2.29178 3.69733 0
M  V30 17636 C 1712.87 3.62753 3.42653 0
M  V30 17637 H 1715.61 7.45488 4.45578 0
M  V30 17638 H 1715.88 5.86232 3.67314 0
M  V30 17639 H 1715.01 7.84508 2.24507 0
M  V30 17640 H 1712.36 5.73556 0.888715 0
M  V30 17641 H 1712.08 5.9096 3.88638 0
M  V30 17642 H 1711.09 6.66053 2.58894 0
M  V30 17643 H 1712.92 8.16339 3.92049 0
M  V30 17644 H 1712.99 4.33052 4.24913 0
M  V30 17645 H 1712.89 1.9103 4.71577 0
M  V30 17646 H 1712.5 -0.521221 1.95056 0
M  V30 17647 H 1712.7 -0.286429 3.70695 0
M  V30 17648 P 1711.05 8.7635 1.60911 0
M  V30 17649 O 1710.83 10.1388 1.11561 0
M  V30 17650 O 1710.26 8.36503 2.79617 0
M  V30 17651 O 1710.8 7.71806 0.42951 0
M  V30 17652 C 1711.74 7.67148 -0.673689 0
M  V30 17653 C 1711.01 7.33374 -1.95559 0
M  V30 17654 O 1710.8 5.88721 -2.00726 0
M  V30 17655 C 1709.61 7.92526 -2.10483 0
M  V30 17656 O 1709.22 8.02971 -3.47653 0
M  V30 17657 C 1708.73 6.89602 -1.41652 0
M  V30 17658 C 1709.44 5.59201 -1.75185 0
M  V30 17659 N 1709.39 4.58235 -0.662552 0
M  V30 17660 H 1712.23 8.65116 -0.777161 0
M  V30 17661 H 1712.5 6.90173 -0.474152 0
M  V30 17662 H 1711.63 7.66548 -2.79458 0
M  V30 17663 P 1707.67 8.03563 -3.84925 0
M  V30 17664 O 1707.45 8.85821 -5.0569 0
M  V30 17665 O 1706.88 8.41101 -2.65469 0
M  V30 17666 O 1707.42 6.49734 -4.18962 0
M  V30 17667 C 1708.36 5.81037 -5.05421 0
M  V30 17668 C 1707.63 4.79018 -5.88876 0
M  V30 17669 O 1707.42 3.58359 -5.08515 0
M  V30 17670 C 1706.23 5.17448 -6.36119 0
M  V30 17671 O 1705.84 4.45322 -7.53318 0
M  V30 17672 C 1705.35 4.74639 -5.19936 0
M  V30 17673 C 1706.06 3.49432 -4.70418 0
M  V30 17674 N 1706.01 3.31776 -3.22945 0
M  V30 17675 C 1705.86 2.02742 -2.72939 0
M  V30 17676 O 1705.77 1.08301 -3.52749 0
M  V30 17677 N 1705.81 1.96117 -1.22063 0
M  V30 17678 C 1705.91 2.8878 -0.551566 0
M  V30 17679 N 1705.86 2.65609 0.750198 0
M  V30 17680 C 1706.06 4.22457 -1.03707 0
M  V30 17681 C 1706.11 4.37979 -2.39113 0
M  V30 17682 H 1708.85 6.54138 -5.7131 0
M  V30 17683 H 1709.12 5.30492 -4.44033 0
M  V30 17684 H 1708.25 4.55945 -6.76735 0
M  V30 17685 H 1705.6 2.6176 -5.18021 0
M  V30 17686 H 1705.32 5.52233 -4.41941 0
M  V30 17687 H 1704.33 4.52045 -5.53452 0
M  V30 17688 H 1706.16 6.25124 -6.55234 0
M  V30 17689 H 1706.23 5.37936 -2.80552 0
M  V30 17690 H 1706.13 5.07528 -0.359553 0
M  V30 17691 H 1705.74 1.69403 1.09847 0
M  V30 17692 H 1705.94 3.43701 1.41792 0
M  V30 17693 P 1704.29 4.23843 -7.83734 0
M  V30 17694 O 1704.07 4.19407 -9.29784 0
M  V30 17695 O 1703.5 5.24426 -7.09156 0
M  V30 17696 O 1704.04 2.7935 -7.20758 0
M  V30 17697 C 1704.98 1.7299 -7.50419 0
M  V30 17698 C 1704.25 0.406376 -7.57911 0
M  V30 17699 O 1704.04 -0.0897726 -6.21935 0
M  V30 17700 C 1702.85 0.447224 -8.1878 0
M  V30 17701 O 1702.46 -0.825065 -8.71101 0
M  V30 17702 C 1701.97 0.783801 -6.99623 0
M  V30 17703 C 1702.68 0.0619192 -5.85967 0
M  V30 17704 N 1702.63 0.7859 -4.56281 0
M  V30 17705 H 1705.47 1.93423 -8.4679 0
M  V30 17706 H 1705.74 1.68181 -6.71046 0
M  V30 17707 H 1704.87 -0.289041 -8.15388 0
M  V30 17708 P 1700.91 -1.17771 -8.83182 0
M  V30 17709 O 1700.69 -2.07206 -9.98732 0
M  V30 17710 O 1700.12 0.0743816 -8.81969 0
M  V30 17711 O 1700.66 -1.97652 -7.47304 0
M  V30 17712 C 1701.6 -3.01133 -7.08783 0
M  V30 17713 C 1700.87 -4.12613 -6.37049 0
M  V30 17714 O 1700.66 -3.72827 -4.97879 0
M  V30 17715 C 1699.47 -4.45085 -6.88694 0
M  V30 17716 O 1699.08 -5.7877 -6.5624 0
M  V30 17717 C 1698.59 -3.47817 -6.12078 0
M  V30 17718 C 1699.3 -3.39414 -4.77697 0
M  V30 17719 N 1699.25 -2.04615 -4.15333 0
M  V30 17720 H 1702.09 -3.41248 -7.98759 0
M  V30 17721 H 1702.36 -2.5837 -6.41742 0
M  V30 17722 H 1701.49 -5.02657 -6.42673 0
M  V30 17723 P 1697.53 -6.144 -6.45285 0
M  V30 17724 O 1697.31 -7.54673 -6.86199 0
M  V30 17725 O 1696.74 -5.12391 -7.179 0
M  V30 17726 O 1697.28 -5.99158 -4.88404 0
M  V30 17727 C 1698.22 -6.60234 -3.96415 0
M  V30 17728 C 1697.49 -7.08259 -2.72856 0
M  V30 17729 O 1697.28 -5.9427 -1.83651 0
M  V30 17730 C 1696.09 -7.64886 -2.9555 0
M  V30 17731 O 1695.7 -8.53963 -1.90717 0
M  V30 17732 C 1695.21 -6.4116 -2.90739 0
M  V30 17733 C 1695.92 -5.55375 -1.86963 0
M  V30 17734 N 1695.87 -4.09448 -2.16152 0
M  V30 17735 H 1698.71 -7.45574 -4.45629 0
M  V30 17736 H 1698.98 -5.85864 -3.679 0
M  V30 17737 H 1698.11 -7.84412 -2.24479 0
M  V30 17738 H 1695.46 -5.73457 -0.888562 0
M  V30 17739 H 1695.18 -5.90877 -3.88583 0
M  V30 17740 H 1694.19 -6.6596 -2.58858 0
M  V30 17741 H 1696.02 -8.16339 -3.92049 0
M  V30 17742 P 1694.15 -8.7635 -1.60911 0
M  V30 17743 O 1693.93 -10.1388 -1.11561 0
M  V30 17744 O 1693.36 -8.36503 -2.79617 0
M  V30 17745 O 1693.9 -7.71806 -0.42951 0
M  V30 17746 C 1694.84 -7.67148 0.673689 0
M  V30 17747 C 1694.11 -7.33374 1.95559 0
M  V30 17748 O 1693.9 -5.88721 2.00726 0
M  V30 17749 C 1692.71 -7.92526 2.10483 0
M  V30 17750 O 1692.32 -8.02971 3.47653 0
M  V30 17751 C 1691.83 -6.89602 1.41652 0
M  V30 17752 C 1692.54 -5.59201 1.75185 0
M  V30 17753 N 1692.49 -4.58301 0.657969 0
M  V30 17754 H 1695.33 -8.65116 0.777161 0
M  V30 17755 H 1695.6 -6.9022 0.46725 0
M  V30 17756 H 1694.73 -7.66548 2.79458 0
M  V30 17757 H 1692.08 -5.16165 2.65183 0
M  V30 17758 H 1691.8 -7.06433 0.329384 0
M  V30 17759 H 1690.81 -6.90926 1.82021 0
M  V30 17760 H 1692.64 -8.90873 1.62657 0
M  V30 17761 P 1690.77 -8.03563 3.84925 0
M  V30 17762 O 1690.55 -8.85821 5.0569 0
M  V30 17763 O 1689.98 -8.41101 2.65469 0
M  V30 17764 O 1690.52 -6.4965 4.18908 0
M  V30 17765 C 1691.46 -5.81037 5.05421 0
M  V30 17766 C 1690.73 -4.78366 5.89277 0
M  V30 17767 O 1690.52 -3.58302 5.08433 0
M  V30 17768 C 1689.33 -5.17448 6.36119 0
M  V30 17769 O 1688.94 -4.45271 7.53232 0
M  V30 17770 C 1688.45 -4.74639 5.19936 0
M  V30 17771 C 1689.16 -3.49432 4.70418 0
M  V30 17772 N 1689.11 -3.31776 3.22945 0
M  V30 17773 H 1691.95 -6.54213 5.71376 0
M  V30 17774 H 1692.22 -5.30492 4.44033 0
M  V30 17775 H 1691.35 -4.55889 6.76652 0
M  V30 17776 P 1687.39 -4.23843 7.83734 0
M  V30 17777 O 1687.17 -4.19407 9.29784 0
M  V30 17778 O 1686.6 -5.24426 7.09156 0
M  V30 17779 O 1687.14 -2.7935 7.20758 0
M  V30 17780 C 1688.08 -1.7299 7.50419 0
M  V30 17781 C 1687.35 -0.406376 7.57911 0
M  V30 17782 O 1687.14 0.0897726 6.21935 0
M  V30 17783 C 1685.95 -0.447224 8.1878 0
M  V30 17784 O 1685.56 0.825065 8.71101 0
M  V30 17785 C 1685.07 -0.783801 6.99623 0
M  V30 17786 C 1685.78 -0.0619192 5.85967 0
M  V30 17787 N 1685.73 -0.790462 4.56202 0
M  V30 17788 C 1685.81 -2.13895 4.34171 0
M  V30 17789 N 1685.74 -2.46449 3.08687 0
M  V30 17790 C 1685.59 -1.2525 2.43697 0
M  V30 17791 C 1685.46 -0.914535 1.07318 0
M  V30 17792 N 1685.45 -1.80782 0.0887348 0
M  V30 17793 N 1685.34 0.386745 0.768133 0
M  V30 17794 C 1685.35 1.28096 1.75159 0
M  V30 17795 N 1685.47 1.09708 3.04861 0
M  V30 17796 C 1685.59 -0.214857 3.32306 0
M  V30 17797 H 1688.57 -1.93423 8.4679 0
M  V30 17798 H 1688.84 -1.68852 6.70877 0
M  V30 17799 H 1687.97 0.289041 8.15388 0
M  V30 17800 H 1685.32 0.927006 5.72848 0
M  V30 17801 H 1685.04 -1.86973 6.82036 0
M  V30 17802 H 1684.05 -0.403953 7.13357 0
M  V30 17803 H 1685.88 -1.20599 8.97534 0
M  V30 17804 H 1685.92 -2.86846 5.14318 0
M  V30 17805 H 1685.54 -2.81082 0.302037 0
M  V30 17806 H 1685.35 -1.49688 -0.889064 0
M  V30 17807 H 1685.24 2.31317 1.43855 0
M  V30 17808 P 1684.01 1.17771 8.83182 0
M  V30 17809 O 1683.79 2.07206 9.98732 0
M  V30 17810 O 1683.22 -0.0743816 8.81969 0
M  V30 17811 O 1683.76 1.97652 7.47304 0
M  V30 17812 C 1684.7 3.01133 7.08783 0
M  V30 17813 C 1683.97 4.12613 6.37049 0
M  V30 17814 O 1683.76 3.72827 4.97879 0
M  V30 17815 C 1682.57 4.45085 6.88694 0
M  V30 17816 O 1682.18 5.7877 6.5624 0
M  V30 17817 C 1681.69 3.47817 6.12078 0
M  V30 17818 C 1682.4 3.39414 4.77697 0
M  V30 17819 N 1682.35 2.04615 4.15333 0
M  V30 17820 H 1685.19 3.41248 7.98759 0
M  V30 17821 H 1685.46 2.5837 6.41742 0
M  V30 17822 H 1684.59 5.02657 6.42673 0
M  V30 17823 P 1680.63 6.144 6.45285 0
M  V30 17824 O 1680.41 7.54673 6.86199 0
M  V30 17825 O 1679.84 5.12391 7.179 0
M  V30 17826 O 1680.38 5.99158 4.88404 0
M  V30 17827 C 1681.32 6.60234 3.96415 0
M  V30 17828 C 1680.59 7.08259 2.72856 0
M  V30 17829 O 1680.38 5.9427 1.83651 0
M  V30 17830 C 1679.19 7.64886 2.9555 0
M  V30 17831 O 1678.8 8.53963 1.90717 0
M  V30 17832 C 1678.31 6.4116 2.90739 0
M  V30 17833 C 1679.02 5.55375 1.86963 0
M  V30 17834 N 1678.97 4.09664 2.15742 0
M  V30 17835 H 1681.81 7.45574 4.45629 0
M  V30 17836 H 1682.08 5.86232 3.67314 0
M  V30 17837 H 1681.21 7.84412 2.24479 0
M  V30 17838 P 1677.25 8.7635 1.60911 0
M  V30 17839 O 1677.03 10.1388 1.11561 0
M  V30 17840 O 1676.46 8.36503 2.79617 0
M  V30 17841 O 1677 7.71806 0.42951 0
M  V30 17842 C 1677.94 7.67148 -0.673689 0
M  V30 17843 C 1677.21 7.33374 -1.95559 0
M  V30 17844 O 1677 5.88721 -2.00726 0
M  V30 17845 C 1675.81 7.92526 -2.10483 0
M  V30 17846 O 1675.42 8.02971 -3.47653 0
M  V30 17847 C 1674.93 6.89602 -1.41652 0
M  V30 17848 C 1675.64 5.59201 -1.75185 0
M  V30 17849 N 1675.59 4.58235 -0.662552 0
M  V30 17850 H 1678.43 8.65116 -0.777161 0
M  V30 17851 H 1678.7 6.90173 -0.474152 0
M  V30 17852 H 1677.83 7.66548 -2.79458 0
M  V30 17853 P 1673.87 8.03563 -3.84925 0
M  V30 17854 O 1673.65 8.85821 -5.0569 0
M  V30 17855 O 1673.08 8.41101 -2.65469 0
M  V30 17856 O 1673.62 6.4965 -4.18908 0
M  V30 17857 C 1674.56 5.81037 -5.05421 0
M  V30 17858 C 1673.83 4.78366 -5.89277 0
M  V30 17859 O 1673.62 3.58302 -5.08433 0
M  V30 17860 C 1672.43 5.17448 -6.36119 0
M  V30 17861 O 1672.04 4.45271 -7.53232 0
M  V30 17862 C 1671.55 4.74639 -5.19936 0
M  V30 17863 C 1672.26 3.49432 -4.70418 0
M  V30 17864 N 1672.21 3.32099 -3.22613 0
M  V30 17865 C 1672.29 4.28245 -2.25527 0
M  V30 17866 N 1672.22 3.80823 -1.04874 0
M  V30 17867 C 1672.07 2.44571 -1.23535 0
M  V30 17868 C 1671.94 1.37068 -0.330675 0
M  V30 17869 N 1671.93 1.51472 0.990824 0
M  V30 17870 N 1671.82 0.138614 -0.848756 0
M  V30 17871 C 1671.83 -0.00675923 -2.16999 0
M  V30 17872 N 1671.95 0.904372 -3.11122 0
M  V30 17873 C 1672.07 2.12707 -2.56212 0
M  V30 17874 H 1675.05 6.54213 -5.71376 0
M  V30 17875 H 1675.32 5.30936 -4.43503 0
M  V30 17876 H 1674.45 4.55889 -6.76652 0
M  V30 17877 H 1671.8 2.61715 -5.17932 0
M  V30 17878 H 1671.52 5.52155 -4.41878 0
M  V30 17879 H 1670.53 4.51981 -5.53374 0
M  V30 17880 H 1672.36 6.25124 -6.55234 0
M  V30 17881 H 1672.4 5.34372 -2.47488 0
M  V30 17882 H 1672.02 2.45153 1.4078 0
M  V30 17883 H 1671.83 0.688422 1.59911 0
M  V30 17884 H 1671.72 -1.02584 -2.52346 0
M  V30 17885 P 1670.49 4.23843 -7.83734 0
M  V30 17886 O 1670.27 4.19407 -9.29784 0
M  V30 17887 O 1669.7 5.24426 -7.09156 0
M  V30 17888 O 1670.24 2.7935 -7.20758 0
M  V30 17889 C 1671.18 1.7299 -7.50419 0
M  V30 17890 C 1670.45 0.406376 -7.57911 0
M  V30 17891 O 1670.24 -0.0897726 -6.21935 0
M  V30 17892 C 1669.05 0.447224 -8.1878 0
M  V30 17893 O 1668.66 -0.825065 -8.71101 0
M  V30 17894 C 1668.17 0.783801 -6.99623 0
M  V30 17895 C 1668.88 0.0619192 -5.85967 0
M  V30 17896 N 1668.83 0.7859 -4.56281 0
M  V30 17897 H 1671.67 1.93423 -8.4679 0
M  V30 17898 H 1671.94 1.68181 -6.71046 0
M  V30 17899 H 1671.07 -0.289041 -8.15388 0
M  V30 17900 P 1667.11 -1.17771 -8.83182 0
M  V30 17901 O 1666.89 -2.07206 -9.98732 0
M  V30 17902 O 1666.32 0.0743816 -8.81969 0
M  V30 17903 O 1666.86 -1.97652 -7.47304 0
M  V30 17904 C 1667.8 -3.01133 -7.08783 0
M  V30 17905 C 1667.07 -4.12613 -6.37049 0
M  V30 17906 O 1666.86 -3.72827 -4.97879 0
M  V30 17907 C 1665.67 -4.45085 -6.88694 0
M  V30 17908 O 1665.28 -5.7877 -6.5624 0
M  V30 17909 C 1664.79 -3.47817 -6.12078 0
M  V30 17910 C 1665.5 -3.39414 -4.77697 0
M  V30 17911 N 1665.45 -2.04615 -4.15333 0
M  V30 17912 H 1668.29 -3.41248 -7.98759 0
M  V30 17913 H 1668.56 -2.5837 -6.41742 0
M  V30 17914 H 1667.69 -5.02657 -6.42673 0
M  V30 17915 P 1663.73 -6.144 -6.45285 0
M  V30 17916 O 1663.51 -7.54673 -6.86199 0
M  V30 17917 O 1662.94 -5.12391 -7.179 0
M  V30 17918 O 1663.48 -5.99158 -4.88404 0
M  V30 17919 C 1664.42 -6.60062 -3.96313 0
M  V30 17920 C 1663.69 -7.08259 -2.72856 0
M  V30 17921 O 1663.48 -5.9427 -1.83651 0
M  V30 17922 C 1662.29 -7.65087 -2.94749 0
M  V30 17923 O 1661.9 -8.53963 -1.90717 0
M  V30 17924 C 1661.41 -6.41069 -2.90698 0
M  V30 17925 C 1662.12 -5.5528 -1.86931 0
M  V30 17926 N 1662.07 -4.09575 -2.15696 0
M  V30 17927 C 1661.92 -3.24249 -1.08435 0
M  V30 17928 O 1661.83 -3.63946 0.0628747 0
M  V30 17929 N 1661.88 -1.90009 -1.39973 0
M  V30 17930 C 1661.97 -1.34884 -2.65614 0
M  V30 17931 C 1662.12 -2.3145 -3.71736 0
M  V30 17932 C 1662.17 -3.63518 -3.44754 0
M  V30 17933 H 1664.91 -7.45402 -4.45526 0
M  V30 17934 H 1665.18 -5.86062 -3.67208 0
M  V30 17935 H 1664.31 -7.84412 -2.24479 0
M  V30 17936 H 1661.66 -5.73358 -0.888409 0
M  V30 17937 H 1661.38 -5.90877 -3.88583 0
M  V30 17938 H 1660.39 -6.65867 -2.58821 0
M  V30 17939 H 1662.22 -8.16248 -3.92006 0
M  V30 17940 H 1662.29 -4.34551 -4.26383 0
M  V30 17941 P 1660.35 -8.7635 -1.60911 0
M  V30 17942 O 1660.13 -10.1388 -1.11561 0
M  V30 17943 O 1659.56 -8.36503 -2.79617 0
M  V30 17944 O 1660.1 -7.71806 -0.42951 0
M  V30 17945 C 1661.04 -7.67148 0.673689 0
M  V30 17946 C 1660.31 -7.33374 1.95559 0
M  V30 17947 O 1660.1 -5.88721 2.00726 0
M  V30 17948 C 1658.91 -7.92526 2.10483 0
M  V30 17949 O 1658.52 -8.02971 3.47653 0
M  V30 17950 C 1658.03 -6.89602 1.41652 0
M  V30 17951 C 1658.74 -5.59201 1.75185 0
M  V30 17952 N 1658.69 -4.58235 0.662552 0
M  V30 17953 H 1661.53 -8.65116 0.777161 0
M  V30 17954 H 1661.8 -6.90173 0.474152 0
M  V30 17955 H 1660.93 -7.66548 2.79458 0
M  V30 17956 P 1656.97 -8.03563 3.84925 0
M  V30 17957 O 1656.75 -8.85821 5.0569 0
M  V30 17958 O 1656.18 -8.41101 2.65469 0
M  V30 17959 O 1656.72 -6.4965 4.18908 0
M  V30 17960 C 1657.66 -5.81037 5.05421 0
M  V30 17961 C 1656.93 -4.78366 5.89277 0
M  V30 17962 O 1656.72 -3.58302 5.08433 0
M  V30 17963 C 1655.53 -5.17448 6.36119 0
M  V30 17964 O 1655.14 -4.45271 7.53232 0
M  V30 17965 C 1654.65 -4.74639 5.19936 0
M  V30 17966 C 1655.36 -3.49432 4.70418 0
M  V30 17967 N 1655.31 -3.31776 3.22945 0
M  V30 17968 H 1658.15 -6.54213 5.71376 0
M  V30 17969 H 1658.42 -5.30492 4.44033 0
M  V30 17970 H 1657.55 -4.55889 6.76652 0
M  V30 17971 P 1653.59 -4.23843 7.83734 0
M  V30 17972 O 1653.37 -4.19407 9.29784 0
M  V30 17973 O 1652.8 -5.24426 7.09156 0
M  V30 17974 O 1653.34 -2.7935 7.20758 0
M  V30 17975 C 1654.28 -1.7299 7.50419 0
M  V30 17976 C 1653.55 -0.406376 7.57911 0
M  V30 17977 O 1653.34 0.0897726 6.21935 0
M  V30 17978 C 1652.15 -0.447224 8.1878 0
M  V30 17979 O 1651.76 0.825065 8.71101 0
M  V30 17980 C 1651.27 -0.783801 6.99623 0
M  V30 17981 C 1651.98 -0.0619192 5.85967 0
M  V30 17982 N 1651.93 -0.7859 4.56281 0
M  V30 17983 H 1654.77 -1.93423 8.4679 0
M  V30 17984 H 1655.04 -1.68181 6.71046 0
M  V30 17985 H 1654.17 0.289041 8.15388 0
M  V30 17986 P 1650.21 1.17771 8.83182 0
M  V30 17987 O 1649.99 2.07206 9.98732 0
M  V30 17988 O 1649.42 -0.0743816 8.81969 0
M  V30 17989 O 1649.96 1.97652 7.47304 0
M  V30 17990 C 1650.9 3.01055 7.08599 0
M  V30 17991 C 1650.17 4.12613 6.37049 0
M  V30 17992 O 1649.96 3.72827 4.97879 0
M  V30 17993 C 1648.77 4.45719 6.88164 0
M  V30 17994 O 1648.38 5.7877 6.5624 0
M  V30 17995 C 1647.89 3.47768 6.11991 0
M  V30 17996 C 1648.6 3.39356 4.77615 0
M  V30 17997 N 1648.55 2.04571 4.15244 0
M  V30 17998 C 1648.4 1.98587 2.78314 0
M  V30 17999 O 1648.31 2.98134 2.08835 0
M  V30 18000 N 1648.36 0.714467 2.24925 0
M  V30 18001 C 1648.45 -0.470001 2.94169 0
M  V30 18002 C 1648.6 -0.312541 4.36783 0
M  V30 18003 C 1648.65 0.914512 4.92583 0
M  V30 18004 H 1651.39 3.41169 7.98575 0
M  V30 18005 H 1651.66 2.58295 6.41556 0
M  V30 18006 H 1650.79 5.02657 6.42673 0
M  V30 18007 H 1648.14 4.11637 4.08885 0
M  V30 18008 H 1647.86 2.49626 6.61679 0
M  V30 18009 H 1646.87 3.86566 6.00778 0
M  V30 18010 H 1648.7 4.29943 7.96918 0
M  V30 18011 H 1648.77 1.00937 6.00374 0
M  V30 18012 P 1646.83 6.144 6.45285 0
M  V30 18013 O 1646.61 7.54673 6.86199 0
M  V30 18014 O 1646.04 5.12391 7.179 0
M  V30 18015 O 1646.58 5.99158 4.88404 0
M  V30 18016 C 1647.52 6.60234 3.96415 0
M  V30 18017 C 1646.79 7.08259 2.72856 0
M  V30 18018 O 1646.58 5.9427 1.83651 0
M  V30 18019 C 1645.39 7.64886 2.9555 0
M  V30 18020 O 1645 8.53963 1.90717 0
M  V30 18021 C 1644.51 6.4116 2.90739 0
M  V30 18022 C 1645.22 5.55375 1.86963 0
M  V30 18023 N 1645.17 4.09664 2.15742 0
M  V30 18024 H 1648.01 7.45574 4.45629 0
M  V30 18025 H 1648.28 5.86232 3.67314 0
M  V30 18026 H 1647.41 7.84412 2.24479 0
M  V30 18027 P 1643.45 8.7635 1.60911 0
M  V30 18028 O 1643.23 10.1388 1.11561 0
M  V30 18029 O 1642.66 8.36503 2.79617 0
M  V30 18030 O 1643.2 7.71806 0.42951 0
M  V30 18031 C 1644.14 7.67148 -0.673689 0
M  V30 18032 C 1643.41 7.33374 -1.95559 0
M  V30 18033 O 1643.2 5.88721 -2.00726 0
M  V30 18034 C 1642.01 7.92526 -2.10483 0
M  V30 18035 O 1641.62 8.02971 -3.47653 0
M  V30 18036 C 1641.13 6.89602 -1.41652 0
M  V30 18037 C 1641.84 5.59201 -1.75185 0
M  V30 18038 N 1641.79 4.58301 -0.657969 0
M  V30 18039 H 1644.63 8.65116 -0.777161 0
M  V30 18040 H 1644.9 6.9022 -0.46725 0
M  V30 18041 H 1644.03 7.66548 -2.79458 0
M  V30 18042 H 1641.38 5.16165 -2.65183 0
M  V30 18043 H 1641.1 7.06433 -0.329384 0
M  V30 18044 H 1640.11 6.90926 -1.82021 0
M  V30 18045 H 1641.94 8.90873 -1.62657 0
M  V30 18046 P 1640.07 8.03563 -3.84925 0
M  V30 18047 O 1639.85 8.85821 -5.0569 0
M  V30 18048 O 1639.28 8.41101 -2.65469 0
M  V30 18049 O 1639.82 6.49734 -4.18962 0
M  V30 18050 C 1640.76 5.81037 -5.05421 0
M  V30 18051 C 1640.03 4.79018 -5.88876 0
M  V30 18052 O 1639.82 3.58359 -5.08515 0
M  V30 18053 C 1638.63 5.17448 -6.36119 0
M  V30 18054 O 1638.24 4.45322 -7.53318 0
M  V30 18055 C 1637.75 4.74639 -5.19936 0
M  V30 18056 C 1638.46 3.49432 -4.70418 0
M  V30 18057 N 1638.41 3.31776 -3.22945 0
M  V30 18058 C 1638.26 2.02742 -2.72939 0
M  V30 18059 O 1638.17 1.08301 -3.52749 0
M  V30 18060 N 1638.21 1.96117 -1.22063 0
M  V30 18061 C 1638.31 2.8878 -0.551566 0
M  V30 18062 N 1638.26 2.65609 0.750198 0
M  V30 18063 C 1638.46 4.22457 -1.03707 0
M  V30 18064 C 1638.51 4.37979 -2.39113 0
M  V30 18065 H 1641.25 6.54138 -5.7131 0
M  V30 18066 H 1641.52 5.30492 -4.44033 0
M  V30 18067 H 1640.65 4.55945 -6.76735 0
M  V30 18068 H 1638 2.6176 -5.18021 0
M  V30 18069 H 1637.72 5.52233 -4.41941 0
M  V30 18070 H 1636.73 4.52045 -5.53452 0
M  V30 18071 H 1638.56 6.25124 -6.55234 0
M  V30 18072 H 1638.63 5.37936 -2.80552 0
M  V30 18073 H 1638.53 5.07528 -0.359553 0
M  V30 18074 H 1638.14 1.69403 1.09847 0
M  V30 18075 H 1638.34 3.43701 1.41792 0
M  V30 18076 P 1636.69 4.23843 -7.83734 0
M  V30 18077 O 1636.47 4.19407 -9.29784 0
M  V30 18078 O 1635.9 5.24426 -7.09156 0
M  V30 18079 O 1636.44 2.7935 -7.20758 0
M  V30 18080 C 1637.38 1.7299 -7.50419 0
M  V30 18081 C 1636.65 0.406376 -7.57911 0
M  V30 18082 O 1636.44 -0.0897726 -6.21935 0
M  V30 18083 C 1635.25 0.447224 -8.1878 0
M  V30 18084 O 1634.86 -0.825065 -8.71101 0
M  V30 18085 C 1634.37 0.783801 -6.99623 0
M  V30 18086 C 1635.08 0.0619192 -5.85967 0
M  V30 18087 N 1635.03 0.7859 -4.56281 0
M  V30 18088 H 1637.87 1.93423 -8.4679 0
M  V30 18089 H 1638.14 1.68181 -6.71046 0
M  V30 18090 H 1637.27 -0.289041 -8.15388 0
M  V30 18091 P 1633.31 -1.17771 -8.83182 0
M  V30 18092 O 1633.09 -2.07206 -9.98732 0
M  V30 18093 O 1632.52 0.0743816 -8.81969 0
M  V30 18094 O 1633.06 -1.97652 -7.47304 0
M  V30 18095 C 1634 -3.01133 -7.08783 0
M  V30 18096 C 1633.27 -4.12613 -6.37049 0
M  V30 18097 O 1633.06 -3.72827 -4.97879 0
M  V30 18098 C 1631.87 -4.45085 -6.88694 0
M  V30 18099 O 1631.48 -5.7877 -6.5624 0
M  V30 18100 C 1630.99 -3.47817 -6.12078 0
M  V30 18101 C 1631.7 -3.39414 -4.77697 0
M  V30 18102 N 1631.65 -2.04199 -4.15538 0
M  V30 18103 H 1634.49 -3.41248 -7.98759 0
M  V30 18104 H 1634.76 -2.57728 -6.42 0
M  V30 18105 H 1633.89 -5.02657 -6.42673 0
M  V30 18106 H 1631.24 -4.11708 -4.08956 0
M  V30 18107 H 1630.96 -2.49626 -6.61679 0
M  V30 18108 H 1629.97 -3.8662 -6.00862 0
M  V30 18109 H 1631.8 -4.29991 -7.97006 0
M  V30 18110 P 1629.93 -6.144 -6.45285 0
M  V30 18111 O 1629.71 -7.54673 -6.86199 0
M  V30 18112 O 1629.14 -5.12391 -7.179 0
M  V30 18113 O 1629.68 -5.99158 -4.88404 0
M  V30 18114 C 1630.62 -6.60234 -3.96415 0
M  V30 18115 C 1629.89 -7.08259 -2.72856 0
M  V30 18116 O 1629.68 -5.9427 -1.83651 0
M  V30 18117 C 1628.49 -7.64886 -2.9555 0
M  V30 18118 O 1628.1 -8.53963 -1.90717 0
M  V30 18119 C 1627.61 -6.4116 -2.90739 0
M  V30 18120 C 1628.32 -5.55375 -1.86963 0
M  V30 18121 N 1628.27 -4.09664 -2.15742 0
M  V30 18122 H 1631.11 -7.45574 -4.45629 0
M  V30 18123 H 1631.38 -5.86232 -3.67314 0
M  V30 18124 H 1630.51 -7.84412 -2.24479 0
M  V30 18125 P 1626.55 -8.7635 -1.60911 0
M  V30 18126 O 1626.33 -10.1388 -1.11561 0
M  V30 18127 O 1625.76 -8.36503 -2.79617 0
M  V30 18128 O 1626.3 -7.71806 -0.42951 0
M  V30 18129 C 1627.24 -7.67148 0.673689 0
M  V30 18130 C 1626.51 -7.33374 1.95559 0
M  V30 18131 O 1626.3 -5.88721 2.00726 0
M  V30 18132 C 1625.11 -7.92526 2.10483 0
M  V30 18133 O 1624.72 -8.02971 3.47653 0
M  V30 18134 C 1624.23 -6.89602 1.41652 0
M  V30 18135 C 1624.94 -5.59201 1.75185 0
M  V30 18136 N 1624.89 -4.58235 0.662552 0
M  V30 18137 C 1624.97 -4.7683 -0.704049 0
M  V30 18138 N 1624.89 -3.66233 -1.39775 0
M  V30 18139 C 1624.75 -2.66526 -0.431739 0
M  V30 18140 C 1624.62 -1.26394 -0.575992 0
M  V30 18141 N 1624.5 -0.62859 0.67177 0
M  V30 18142 C 1624.5 -1.27134 1.89385 0
M  V30 18143 N 1624.37 -0.492035 2.96951 0
M  V30 18144 N 1624.63 -2.58978 2.02907 0
M  V30 18145 C 1624.75 -3.22433 0.832218 0
M  V30 18146 H 1627.73 -8.65116 0.777161 0
M  V30 18147 H 1628 -6.90173 0.474152 0
M  V30 18148 H 1627.13 -7.66548 2.79458 0
M  V30 18149 P 1623.17 -8.03563 3.84925 0
M  V30 18150 O 1622.95 -8.85821 5.0569 0
M  V30 18151 O 1622.38 -8.41101 2.65469 0
M  V30 18152 O 1622.92 -6.4965 4.18908 0
M  V30 18153 C 1623.86 -5.81037 5.05421 0
M  V30 18154 C 1623.13 -4.78366 5.89277 0
M  V30 18155 O 1622.92 -3.58302 5.08433 0
M  V30 18156 C 1621.73 -5.17448 6.36119 0
M  V30 18157 O 1621.34 -4.45271 7.53232 0
M  V30 18158 C 1620.85 -4.74639 5.19936 0
M  V30 18159 C 1621.56 -3.49432 4.70418 0
M  V30 18160 N 1621.51 -3.31776 3.22945 0
M  V30 18161 H 1624.35 -6.54213 5.71376 0
M  V30 18162 H 1624.62 -5.30492 4.44033 0
M  V30 18163 H 1623.75 -4.55889 6.76652 0
M  V30 18164 P 1619.79 -4.23843 7.83734 0
M  V30 18165 O 1619.57 -4.19407 9.29784 0
M  V30 18166 O 1619 -5.24426 7.09156 0
M  V30 18167 O 1619.54 -2.7935 7.20758 0
M  V30 18168 C 1620.48 -1.7299 7.50419 0
M  V30 18169 C 1619.75 -0.406376 7.57911 0
M  V30 18170 O 1619.54 0.0897726 6.21935 0
M  V30 18171 C 1618.35 -0.447224 8.1878 0
M  V30 18172 O 1617.96 0.825065 8.71101 0
M  V30 18173 C 1617.47 -0.783801 6.99623 0
M  V30 18174 C 1618.18 -0.0619192 5.85967 0
M  V30 18175 N 1618.13 -0.7859 4.56281 0
M  V30 18176 H 1620.97 -1.93423 8.4679 0
M  V30 18177 H 1621.24 -1.68181 6.71046 0
M  V30 18178 H 1620.37 0.289041 8.15388 0
M  V30 18179 P 1616.41 1.17771 8.83182 0
M  V30 18180 O 1616.19 2.07206 9.98732 0
M  V30 18181 O 1615.62 -0.0743816 8.81969 0
M  V30 18182 O 1616.16 1.97652 7.47304 0
M  V30 18183 C 1617.1 3.01133 7.08783 0
M  V30 18184 C 1616.37 4.12613 6.37049 0
M  V30 18185 O 1616.16 3.72827 4.97879 0
M  V30 18186 C 1614.97 4.45085 6.88694 0
M  V30 18187 O 1614.58 5.7877 6.5624 0
M  V30 18188 C 1614.09 3.47817 6.12078 0
M  V30 18189 C 1614.8 3.39414 4.77697 0
M  V30 18190 N 1614.75 2.04615 4.15333 0
M  V30 18191 H 1617.59 3.41248 7.98759 0
M  V30 18192 H 1617.86 2.5837 6.41742 0
M  V30 18193 H 1616.99 5.02657 6.42673 0
M  V30 18194 P 1613.03 6.144 6.45285 0
M  V30 18195 O 1612.81 7.54673 6.86199 0
M  V30 18196 O 1612.24 5.12391 7.179 0
M  V30 18197 O 1612.78 5.99158 4.88404 0
M  V30 18198 C 1613.72 6.60234 3.96415 0
M  V30 18199 C 1612.99 7.08259 2.72856 0
M  V30 18200 O 1612.78 5.9427 1.83651 0
M  V30 18201 C 1611.59 7.64886 2.9555 0
M  V30 18202 O 1611.2 8.53963 1.90717 0
M  V30 18203 C 1610.71 6.4116 2.90739 0
M  V30 18204 C 1611.42 5.55375 1.86963 0
M  V30 18205 N 1611.37 4.09664 2.15742 0
M  V30 18206 H 1614.21 7.45574 4.45629 0
M  V30 18207 H 1614.48 5.86232 3.67314 0
M  V30 18208 H 1613.61 7.84412 2.24479 0
M  V30 18209 P 1609.65 8.7635 1.60911 0
M  V30 18210 O 1609.43 10.1388 1.11561 0
M  V30 18211 O 1608.86 8.36503 2.79617 0
M  V30 18212 O 1609.4 7.71806 0.42951 0
M  V30 18213 C 1610.34 7.67148 -0.673689 0
M  V30 18214 C 1609.61 7.33374 -1.95559 0
M  V30 18215 O 1609.4 5.88721 -2.00726 0
M  V30 18216 C 1608.21 7.92526 -2.10483 0
M  V30 18217 O 1607.82 8.02971 -3.47653 0
M  V30 18218 C 1607.33 6.89602 -1.41652 0
M  V30 18219 C 1608.04 5.59201 -1.75185 0
M  V30 18220 N 1607.99 4.58235 -0.662552 0
M  V30 18221 H 1610.83 8.65116 -0.777161 0
M  V30 18222 H 1611.1 6.90173 -0.474152 0
M  V30 18223 H 1610.23 7.66548 -2.79458 0
M  V30 18224 P 1606.27 8.03563 -3.84925 0
M  V30 18225 O 1606.05 8.85821 -5.0569 0
M  V30 18226 O 1605.48 8.41101 -2.65469 0
M  V30 18227 O 1606.02 6.4965 -4.18908 0
M  V30 18228 C 1606.96 5.81037 -5.05421 0
M  V30 18229 C 1606.23 4.78366 -5.89277 0
M  V30 18230 O 1606.02 3.58302 -5.08433 0
M  V30 18231 C 1604.83 5.17448 -6.36119 0
M  V30 18232 O 1604.44 4.45271 -7.53232 0
M  V30 18233 C 1603.95 4.74639 -5.19936 0
M  V30 18234 C 1604.66 3.49432 -4.70418 0
M  V30 18235 N 1604.61 3.31776 -3.22945 0
M  V30 18236 H 1607.45 6.54213 -5.71376 0
M  V30 18237 H 1607.72 5.30492 -4.44033 0
M  V30 18238 H 1606.85 4.55889 -6.76652 0
M  V30 18239 P 1602.89 4.23843 -7.83734 0
M  V30 18240 O 1602.67 4.19407 -9.29784 0
M  V30 18241 O 1602.1 5.24426 -7.09156 0
M  V30 18242 O 1602.64 2.7935 -7.20758 0
M  V30 18243 C 1603.58 1.7299 -7.50419 0
M  V30 18244 C 1602.85 0.406376 -7.57911 0
M  V30 18245 O 1602.64 -0.0897726 -6.21935 0
M  V30 18246 C 1601.45 0.447224 -8.1878 0
M  V30 18247 O 1601.06 -0.825065 -8.71101 0
M  V30 18248 C 1600.57 0.783801 -6.99623 0
M  V30 18249 C 1601.28 0.0619192 -5.85967 0
M  V30 18250 N 1601.23 0.790462 -4.56202 0
M  V30 18251 H 1604.07 1.93423 -8.4679 0
M  V30 18252 H 1604.34 1.68852 -6.70877 0
M  V30 18253 H 1603.47 -0.289041 -8.15388 0
M  V30 18254 H 1600.82 -0.927006 -5.72848 0
M  V30 18255 H 1600.54 1.86973 -6.82036 0
M  V30 18256 H 1599.55 0.403953 -7.13357 0
M  V30 18257 H 1601.38 1.20599 -8.97534 0
M  V30 18258 P 1599.51 -1.17771 -8.83182 0
M  V30 18259 O 1599.29 -2.07206 -9.98732 0
M  V30 18260 O 1598.72 0.0743816 -8.81969 0
M  V30 18261 O 1599.26 -1.97678 -7.474 0
M  V30 18262 C 1600.2 -3.01133 -7.08783 0
M  V30 18263 C 1599.47 -4.1203 -6.37546 0
M  V30 18264 O 1599.26 -3.72887 -4.9796 0
M  V30 18265 C 1598.07 -4.45085 -6.88694 0
M  V30 18266 O 1597.68 -5.78836 -6.56315 0
M  V30 18267 C 1597.19 -3.47817 -6.12078 0
M  V30 18268 C 1597.9 -3.39414 -4.77697 0
M  V30 18269 N 1597.85 -2.04615 -4.15333 0
M  V30 18270 C 1597.7 -1.96929 -2.77162 0
M  V30 18271 O 1597.61 -3.02017 -2.12006 0
M  V30 18272 N 1597.65 -0.55485 -2.24237 0
M  V30 18273 C 1597.75 0.367808 -2.9169 0
M  V30 18274 N 1597.7 1.53426 -2.29427 0
M  V30 18275 C 1597.9 0.319148 -4.33828 0
M  V30 18276 C 1597.95 -0.920672 -4.90433 0
M  V30 18277 H 1600.69 -3.41209 -7.98667 0
M  V30 18278 H 1600.96 -2.5837 -6.41742 0
M  V30 18279 H 1600.09 -5.02718 -6.42752 0
M  V30 18280 H 1597.44 -4.11779 -4.09026 0
M  V30 18281 H 1597.16 -2.49661 -6.61772 0
M  V30 18282 H 1596.17 -3.86674 -6.00946 0
M  V30 18283 H 1598 -4.29991 -7.97006 0
M  V30 18284 H 1598.07 -1.00589 -5.98303 0
M  V30 18285 H 1597.97 1.22639 -4.93799 0
M  V30 18286 H 1597.58 1.56819 -1.27167 0
M  V30 18287 H 1597.78 2.41062 -2.83063 0
M  V30 18288 P 1596.13 -6.144 -6.45285 0
M  V30 18289 O 1595.91 -7.54673 -6.86199 0
M  V30 18290 O 1595.34 -5.12391 -7.179 0
M  V30 18291 O 1595.88 -5.99158 -4.88404 0
M  V30 18292 C 1596.82 -6.60234 -3.96415 0
M  V30 18293 C 1596.09 -7.08259 -2.72856 0
M  V30 18294 O 1595.88 -5.9427 -1.83651 0
M  V30 18295 C 1594.69 -7.64886 -2.9555 0
M  V30 18296 O 1594.3 -8.53963 -1.90717 0
M  V30 18297 C 1593.81 -6.4116 -2.90739 0
M  V30 18298 C 1594.52 -5.55375 -1.86963 0
M  V30 18299 N 1594.47 -4.09664 -2.15742 0
M  V30 18300 H 1597.31 -7.45574 -4.45629 0
M  V30 18301 H 1597.58 -5.86232 -3.67314 0
M  V30 18302 H 1596.71 -7.84412 -2.24479 0
M  V30 18303 P 1592.75 -8.7635 -1.60911 0
M  V30 18304 O 1592.53 -10.1388 -1.11561 0
M  V30 18305 O 1591.96 -8.36503 -2.79617 0
M  V30 18306 O 1592.5 -7.71806 -0.42951 0
M  V30 18307 C 1593.44 -7.67148 0.673689 0
M  V30 18308 C 1592.71 -7.33374 1.95559 0
M  V30 18309 O 1592.5 -5.88721 2.00726 0
M  V30 18310 C 1591.31 -7.92526 2.10483 0
M  V30 18311 O 1590.92 -8.02971 3.47653 0
M  V30 18312 C 1590.43 -6.89602 1.41652 0
M  V30 18313 C 1591.14 -5.59201 1.75185 0
M  V30 18314 N 1591.09 -4.58301 0.657969 0
M  V30 18315 H 1593.93 -8.65116 0.777161 0
M  V30 18316 H 1594.2 -6.9022 0.46725 0
M  V30 18317 H 1593.33 -7.66548 2.79458 0
M  V30 18318 H 1590.68 -5.16165 2.65183 0
M  V30 18319 H 1590.4 -7.06433 0.329384 0
M  V30 18320 H 1589.41 -6.90926 1.82021 0
M  V30 18321 H 1591.24 -8.90873 1.62657 0
M  V30 18322 P 1589.37 -8.03563 3.84925 0
M  V30 18323 O 1589.15 -8.85821 5.0569 0
M  V30 18324 O 1588.58 -8.41101 2.65469 0
M  V30 18325 O 1589.12 -6.4965 4.18908 0
M  V30 18326 C 1590.06 -5.80886 5.05289 0
M  V30 18327 C 1589.33 -4.78366 5.89277 0
M  V30 18328 O 1589.12 -3.58302 5.08433 0
M  V30 18329 C 1587.93 -5.16748 6.36559 0
M  V30 18330 O 1587.54 -4.45271 7.53232 0
M  V30 18331 C 1587.05 -4.74572 5.19863 0
M  V30 18332 C 1587.76 -3.49373 4.70338 0
M  V30 18333 N 1587.71 -3.31704 3.22876 0
M  V30 18334 C 1587.56 -2.03326 2.74871 0
M  V30 18335 O 1587.47 -1.06486 3.48076 0
M  V30 18336 N 1587.52 -1.91838 1.37456 0
M  V30 18337 C 1587.61 -2.94295 0.462035 0
M  V30 18338 C 1587.76 -4.25064 1.05249 0
M  V30 18339 C 1587.81 -4.40214 2.39192 0
M  V30 18340 H 1590.55 -6.54063 5.71245 0
M  V30 18341 H 1590.82 -5.30339 4.43905 0
M  V30 18342 H 1589.95 -4.55889 6.76652 0
M  V30 18343 H 1587.3 -2.6167 5.17842 0
M  V30 18344 H 1587.02 -5.52155 4.41878 0
M  V30 18345 H 1586.03 -4.51918 5.53297 0
M  V30 18346 H 1587.86 -6.25055 6.55162 0
M  V30 18347 H 1587.93 -5.39798 2.81523 0
M  V30 18348 P 1585.99 -4.23843 7.83734 0
M  V30 18349 O 1585.77 -4.19407 9.29784 0
M  V30 18350 O 1585.2 -5.24426 7.09156 0
M  V30 18351 O 1585.74 -2.7935 7.20758 0
M  V30 18352 C 1586.68 -1.7299 7.50419 0
M  V30 18353 C 1585.95 -0.406376 7.57911 0
M  V30 18354 O 1585.74 0.0897726 6.21935 0
M  V30 18355 C 1584.55 -0.447224 8.1878 0
M  V30 18356 O 1584.16 0.825065 8.71101 0
M  V30 18357 C 1583.67 -0.783801 6.99623 0
M  V30 18358 C 1584.38 -0.0619192 5.85967 0
M  V30 18359 N 1584.33 -0.7859 4.56281 0
M  V30 18360 H 1587.17 -1.93423 8.4679 0
M  V30 18361 H 1587.44 -1.68181 6.71046 0
M  V30 18362 H 1586.57 0.289041 8.15388 0
M  V30 18363 P 1582.61 1.17771 8.83182 0
M  V30 18364 O 1582.39 2.07206 9.98732 0
M  V30 18365 O 1581.82 -0.0743816 8.81969 0
M  V30 18366 O 1582.36 1.97652 7.47304 0
M  V30 18367 C 1583.3 3.01133 7.08783 0
M  V30 18368 C 1582.57 4.12613 6.37049 0
M  V30 18369 O 1582.36 3.72827 4.97879 0
M  V30 18370 C 1581.17 4.45085 6.88694 0
M  V30 18371 O 1580.78 5.7877 6.5624 0
M  V30 18372 C 1580.29 3.47817 6.12078 0
M  V30 18373 C 1581 3.39414 4.77697 0
M  V30 18374 N 1580.95 2.04615 4.15333 0
M  V30 18375 C 1581.03 0.803897 4.75249 0
M  V30 18376 N 1580.95 -0.197615 3.91502 0
M  V30 18377 C 1580.81 0.413002 2.66823 0
M  V30 18378 C 1580.68 -0.157221 1.38007 0
M  V30 18379 O 1580.66 -1.34419 1.057 0
M  V30 18380 N 1580.56 0.833136 0.390236 0
M  V30 18381 C 1580.56 2.19402 0.623885 0
M  V30 18382 N 1580.43 2.97622 -0.449677 0
M  V30 18383 N 1580.69 2.73005 1.83601 0
M  V30 18384 C 1580.81 1.78786 2.80935 0
M  V30 18385 H 1583.79 3.41248 7.98759 0
M  V30 18386 H 1584.06 2.5837 6.41742 0
M  V30 18387 H 1583.19 5.02657 6.42673 0
M  V30 18388 H 1580.54 4.11779 4.09026 0
M  V30 18389 H 1580.26 2.49661 6.61772 0
M  V30 18390 H 1579.27 3.86674 6.00946 0
M  V30 18391 H 1581.1 4.30038 7.97094 0
M  V30 18392 H 1581.15 0.670579 5.82754 0
M  V30 18393 H 1580.47 0.528446 -0.557287 0
M  V30 18394 H 1580.43 4.00117 -0.344773 0
M  V30 18395 H 1580.33 2.55448 -1.38544 0
M  V30 18396 P 1579.23 6.144 6.45285 0
M  V30 18397 O 1579.01 7.54673 6.86199 0
M  V30 18398 O 1578.44 5.12391 7.179 0
M  V30 18399 O 1578.98 5.99158 4.88404 0
M  V30 18400 C 1579.92 6.60234 3.96415 0
M  V30 18401 C 1579.19 7.08259 2.72856 0
M  V30 18402 O 1578.98 5.9427 1.83651 0
M  V30 18403 C 1577.79 7.64886 2.9555 0
M  V30 18404 O 1577.4 8.53963 1.90717 0
M  V30 18405 C 1576.91 6.4116 2.90739 0
M  V30 18406 C 1577.62 5.55375 1.86963 0
M  V30 18407 N 1577.57 4.09664 2.15742 0
M  V30 18408 H 1580.41 7.45574 4.45629 0
M  V30 18409 H 1580.68 5.86232 3.67314 0
M  V30 18410 H 1579.81 7.84412 2.24479 0
M  V30 18411 P 1575.85 8.7635 1.60911 0
M  V30 18412 O 1575.63 10.1388 1.11561 0
M  V30 18413 O 1575.06 8.36503 2.79617 0
M  V30 18414 O 1575.6 7.71906 0.429565 0
M  V30 18415 C 1576.54 7.67148 -0.673689 0
M  V30 18416 C 1575.81 7.33666 -1.94851 0
M  V30 18417 O 1575.6 5.88816 -2.00759 0
M  V30 18418 C 1574.41 7.92526 -2.10483 0
M  V30 18419 O 1574.02 8.03063 -3.47693 0
M  V30 18420 C 1573.53 6.89602 -1.41652 0
M  V30 18421 C 1574.24 5.59201 -1.75185 0
M  V30 18422 N 1574.19 4.58235 -0.662552 0
M  V30 18423 C 1574.04 3.24451 -1.01643 0
M  V30 18424 O 1573.95 2.94958 -2.21722 0
M  V30 18425 N 1573.99 2.30408 0.165238 0
M  V30 18426 C 1574.09 2.66048 1.25118 0
M  V30 18427 N 1574.04 1.70787 2.16813 0
M  V30 18428 C 1574.24 4.02732 1.64413 0
M  V30 18429 C 1574.29 4.9488 0.63991 0
M  V30 18430 H 1577.03 8.65017 -0.777072 0
M  V30 18431 H 1577.3 6.90173 -0.474152 0
M  V30 18432 H 1576.43 7.66642 -2.79492 0
M  V30 18433 H 1573.78 5.16254 -2.65229 0
M  V30 18434 H 1573.5 7.06532 -0.329431 0
M  V30 18435 H 1572.51 6.91023 -1.82047 0
M  V30 18436 H 1574.34 8.90873 -1.62657 0
M  V30 18437 H 1574.41 6.00104 0.892197 0
M  V30 18438 H 1574.31 4.31733 2.69229 0
M  V30 18439 H 1573.92 0.724835 1.8844 0
M  V30 18440 H 1574.12 1.94716 3.16734 0
M  V30 18441 P 1572.47 8.03563 -3.84925 0
M  V30 18442 O 1572.25 8.85821 -5.0569 0
M  V30 18443 O 1571.68 8.41101 -2.65469 0
M  V30 18444 O 1572.22 6.4965 -4.18908 0
M  V30 18445 C 1573.16 5.81037 -5.05421 0
M  V30 18446 C 1572.43 4.78366 -5.89277 0
M  V30 18447 O 1572.22 3.58302 -5.08433 0
M  V30 18448 C 1571.03 5.17448 -6.36119 0
M  V30 18449 O 1570.64 4.45271 -7.53232 0
M  V30 18450 C 1570.15 4.74639 -5.19936 0
M  V30 18451 C 1570.86 3.49432 -4.70418 0
M  V30 18452 N 1570.81 3.31776 -3.22945 0
M  V30 18453 H 1573.65 6.54213 -5.71376 0
M  V30 18454 H 1573.92 5.30492 -4.44033 0
M  V30 18455 H 1573.05 4.55889 -6.76652 0
M  V30 18456 P 1569.09 4.23843 -7.83734 0
M  V30 18457 O 1568.87 4.19407 -9.29784 0
M  V30 18458 O 1568.3 5.24426 -7.09156 0
M  V30 18459 O 1568.84 2.7935 -7.20758 0
M  V30 18460 C 1569.78 1.7299 -7.50419 0
M  V30 18461 C 1569.05 0.406376 -7.57911 0
M  V30 18462 O 1568.84 -0.0897726 -6.21935 0
M  V30 18463 C 1567.65 0.447224 -8.1878 0
M  V30 18464 O 1567.26 -0.825065 -8.71101 0
M  V30 18465 C 1566.77 0.783801 -6.99623 0
M  V30 18466 C 1567.48 0.0619192 -5.85967 0
M  V30 18467 N 1567.43 0.7859 -4.56281 0
M  V30 18468 H 1570.27 1.93423 -8.4679 0
M  V30 18469 H 1570.54 1.68181 -6.71046 0
M  V30 18470 H 1569.67 -0.289041 -8.15388 0
M  V30 18471 P 1565.71 -1.17771 -8.83182 0
M  V30 18472 O 1565.49 -2.07206 -9.98732 0
M  V30 18473 O 1564.92 0.0743816 -8.81969 0
M  V30 18474 O 1565.46 -1.97652 -7.47304 0
M  V30 18475 C 1566.4 -3.01133 -7.08783 0
M  V30 18476 C 1565.67 -4.12613 -6.37049 0
M  V30 18477 O 1565.46 -3.72827 -4.97879 0
M  V30 18478 C 1564.27 -4.45085 -6.88694 0
M  V30 18479 O 1563.88 -5.7877 -6.5624 0
M  V30 18480 C 1563.39 -3.47817 -6.12078 0
M  V30 18481 C 1564.1 -3.39414 -4.77697 0
M  V30 18482 N 1564.05 -2.04199 -4.15538 0
M  V30 18483 H 1566.89 -3.41248 -7.98759 0
M  V30 18484 H 1567.16 -2.57728 -6.42 0
M  V30 18485 H 1566.29 -5.02657 -6.42673 0
M  V30 18486 H 1563.64 -4.11708 -4.08956 0
M  V30 18487 H 1563.36 -2.49626 -6.61679 0
M  V30 18488 H 1562.37 -3.8662 -6.00862 0
M  V30 18489 H 1564.2 -4.29991 -7.97006 0
M  V30 18490 P 1562.33 -6.144 -6.45285 0
M  V30 18491 O 1562.11 -7.54673 -6.86199 0
M  V30 18492 O 1561.54 -5.12391 -7.179 0
M  V30 18493 O 1562.08 -5.99158 -4.88404 0
M  V30 18494 C 1563.02 -6.60234 -3.96415 0
M  V30 18495 C 1562.29 -7.08259 -2.72856 0
M  V30 18496 O 1562.08 -5.9427 -1.83651 0
M  V30 18497 C 1560.89 -7.64886 -2.9555 0
M  V30 18498 O 1560.5 -8.53963 -1.90717 0
M  V30 18499 C 1560.01 -6.4116 -2.90739 0
M  V30 18500 C 1560.72 -5.55375 -1.86963 0
M  V30 18501 N 1560.67 -4.09664 -2.15742 0
M  V30 18502 H 1563.51 -7.45574 -4.45629 0
M  V30 18503 H 1563.78 -5.86232 -3.67314 0
M  V30 18504 H 1562.91 -7.84412 -2.24479 0
M  V30 18505 P 1558.95 -8.7635 -1.60911 0
M  V30 18506 O 1558.73 -10.1388 -1.11561 0
M  V30 18507 O 1558.16 -8.36503 -2.79617 0
M  V30 18508 O 1558.7 -7.71806 -0.42951 0
M  V30 18509 C 1559.64 -7.67148 0.673689 0
M  V30 18510 C 1558.91 -7.33374 1.95559 0
M  V30 18511 O 1558.7 -5.88721 2.00726 0
M  V30 18512 C 1557.51 -7.92526 2.10483 0
M  V30 18513 O 1557.12 -8.02971 3.47653 0
M  V30 18514 C 1556.63 -6.89602 1.41652 0
M  V30 18515 C 1557.34 -5.59201 1.75185 0
M  V30 18516 N 1557.29 -4.58235 0.662552 0
M  V30 18517 H 1560.13 -8.65116 0.777161 0
M  V30 18518 H 1560.4 -6.90173 0.474152 0
M  V30 18519 H 1559.53 -7.66548 2.79458 0
M  V30 18520 P 1555.57 -8.03563 3.84925 0
M  V30 18521 O 1555.35 -8.85821 5.0569 0
M  V30 18522 O 1554.78 -8.41101 2.65469 0
M  V30 18523 O 1555.32 -6.4965 4.18908 0
M  V30 18524 C 1556.26 -5.81037 5.05421 0
M  V30 18525 C 1555.53 -4.78366 5.89277 0
M  V30 18526 O 1555.32 -3.58302 5.08433 0
M  V30 18527 C 1554.13 -5.17448 6.36119 0
M  V30 18528 O 1553.74 -4.45271 7.53232 0
M  V30 18529 C 1553.25 -4.74639 5.19936 0
M  V30 18530 C 1553.96 -3.49432 4.70418 0
M  V30 18531 N 1553.91 -3.31776 3.22945 0
M  V30 18532 H 1556.75 -6.54213 5.71376 0
M  V30 18533 H 1557.02 -5.30492 4.44033 0
M  V30 18534 H 1556.15 -4.55889 6.76652 0
M  V30 18535 P 1552.19 -4.23843 7.83734 0
M  V30 18536 O 1551.97 -4.19407 9.29784 0
M  V30 18537 O 1551.4 -5.24426 7.09156 0
M  V30 18538 O 1551.94 -2.7935 7.20758 0
M  V30 18539 C 1552.88 -1.7299 7.50419 0
M  V30 18540 C 1552.15 -0.406376 7.57911 0
M  V30 18541 O 1551.94 0.0897726 6.21935 0
M  V30 18542 C 1550.75 -0.447224 8.1878 0
M  V30 18543 O 1550.36 0.825065 8.71101 0
M  V30 18544 C 1549.87 -0.783801 6.99623 0
M  V30 18545 C 1550.58 -0.0619192 5.85967 0
M  V30 18546 N 1550.53 -0.7859 4.56281 0
M  V30 18547 H 1553.37 -1.93423 8.4679 0
M  V30 18548 H 1553.64 -1.68181 6.71046 0
M  V30 18549 H 1552.77 0.289041 8.15388 0
M  V30 18550 P 1548.81 1.17771 8.83182 0
M  V30 18551 O 1548.59 2.07206 9.98732 0
M  V30 18552 O 1548.02 -0.0743816 8.81969 0
M  V30 18553 O 1548.56 1.97652 7.47304 0
M  V30 18554 C 1549.5 3.01133 7.08783 0
M  V30 18555 C 1548.77 4.12613 6.37049 0
M  V30 18556 O 1548.56 3.72827 4.97879 0
M  V30 18557 C 1547.37 4.45085 6.88694 0
M  V30 18558 O 1546.98 5.7877 6.5624 0
M  V30 18559 C 1546.49 3.47817 6.12078 0
M  V30 18560 C 1547.2 3.39414 4.77697 0
M  V30 18561 N 1547.15 2.04615 4.15333 0
M  V30 18562 H 1549.99 3.41248 7.98759 0
M  V30 18563 H 1550.26 2.5837 6.41742 0
M  V30 18564 H 1549.39 5.02657 6.42673 0
M  V30 18565 P 1545.43 6.144 6.45285 0
M  V30 18566 O 1545.21 7.54673 6.86199 0
M  V30 18567 O 1544.64 5.12391 7.179 0
M  V30 18568 O 1545.18 5.99158 4.88404 0
M  V30 18569 C 1546.12 6.60234 3.96415 0
M  V30 18570 C 1545.39 7.08259 2.72856 0
M  V30 18571 O 1545.18 5.9427 1.83651 0
M  V30 18572 C 1543.99 7.64886 2.9555 0
M  V30 18573 O 1543.6 8.53963 1.90717 0
M  V30 18574 C 1543.11 6.4116 2.90739 0
M  V30 18575 C 1543.82 5.55375 1.86963 0
M  V30 18576 N 1543.77 4.09448 2.16152 0
M  V30 18577 H 1546.61 7.45574 4.45629 0
M  V30 18578 H 1546.88 5.85864 3.679 0
M  V30 18579 H 1546.01 7.84412 2.24479 0
M  V30 18580 H 1543.36 5.73457 0.888562 0
M  V30 18581 H 1543.08 5.90877 3.88583 0
M  V30 18582 H 1542.09 6.6596 2.58858 0
M  V30 18583 H 1543.92 8.16339 3.92049 0
M  V30 18584 P 1542.05 8.7635 1.60911 0
M  V30 18585 O 1541.83 10.1388 1.11561 0
M  V30 18586 O 1541.26 8.36503 2.79617 0
M  V30 18587 O 1541.8 7.71806 0.42951 0
M  V30 18588 C 1542.74 7.67148 -0.673689 0
M  V30 18589 C 1542.01 7.33374 -1.95559 0
M  V30 18590 O 1541.8 5.88721 -2.00726 0
M  V30 18591 C 1540.61 7.92526 -2.10483 0
M  V30 18592 O 1540.22 8.02971 -3.47653 0
M  V30 18593 C 1539.73 6.89602 -1.41652 0
M  V30 18594 C 1540.44 5.59201 -1.75185 0
M  V30 18595 N 1540.39 4.58235 -0.662552 0
M  V30 18596 H 1543.23 8.65116 -0.777161 0
M  V30 18597 H 1543.5 6.90173 -0.474152 0
M  V30 18598 H 1542.63 7.66548 -2.79458 0
M  V30 18599 P 1538.67 8.03563 -3.84925 0
M  V30 18600 O 1538.45 8.85821 -5.0569 0
M  V30 18601 O 1537.88 8.41101 -2.65469 0
M  V30 18602 O 1538.42 6.4965 -4.18908 0
M  V30 18603 C 1539.36 5.81037 -5.05421 0
M  V30 18604 C 1538.63 4.78366 -5.89277 0
M  V30 18605 O 1538.42 3.58302 -5.08433 0
M  V30 18606 C 1537.23 5.17448 -6.36119 0
M  V30 18607 O 1536.84 4.45271 -7.53232 0
M  V30 18608 C 1536.35 4.74639 -5.19936 0
M  V30 18609 C 1537.06 3.49432 -4.70418 0
M  V30 18610 N 1537.01 3.32099 -3.22613 0
M  V30 18611 H 1539.85 6.54213 -5.71376 0
M  V30 18612 H 1540.12 5.30936 -4.43503 0
M  V30 18613 H 1539.25 4.55889 -6.76652 0
M  V30 18614 H 1536.6 2.61715 -5.17932 0
M  V30 18615 H 1536.32 5.52155 -4.41878 0
M  V30 18616 H 1535.33 4.51981 -5.53374 0
M  V30 18617 H 1537.16 6.25124 -6.55234 0
M  V30 18618 P 1535.29 4.23843 -7.83734 0
M  V30 18619 O 1535.07 4.19407 -9.29784 0
M  V30 18620 O 1534.5 5.24426 -7.09156 0
M  V30 18621 O 1535.04 2.7935 -7.20758 0
M  V30 18622 C 1535.98 1.7299 -7.50419 0
M  V30 18623 C 1535.25 0.406376 -7.57911 0
M  V30 18624 O 1535.04 -0.0897726 -6.21935 0
M  V30 18625 C 1533.85 0.447224 -8.1878 0
M  V30 18626 O 1533.46 -0.825065 -8.71101 0
M  V30 18627 C 1532.97 0.783801 -6.99623 0
M  V30 18628 C 1533.68 0.0619192 -5.85967 0
M  V30 18629 N 1533.63 0.790462 -4.56202 0
M  V30 18630 H 1536.47 1.93423 -8.4679 0
M  V30 18631 H 1536.74 1.68852 -6.70877 0
M  V30 18632 H 1535.87 -0.289041 -8.15388 0
M  V30 18633 H 1533.22 -0.927006 -5.72848 0
M  V30 18634 H 1532.94 1.86973 -6.82036 0
M  V30 18635 H 1531.95 0.403953 -7.13357 0
M  V30 18636 H 1533.78 1.20599 -8.97534 0
M  V30 18637 P 1531.91 -1.17771 -8.83182 0
M  V30 18638 O 1531.69 -2.07206 -9.98732 0
M  V30 18639 O 1531.12 0.0743816 -8.81969 0
M  V30 18640 O 1531.66 -1.97652 -7.47304 0
M  V30 18641 C 1532.6 -3.01133 -7.08783 0
M  V30 18642 C 1531.87 -4.12613 -6.37049 0
M  V30 18643 O 1531.66 -3.72827 -4.97879 0
M  V30 18644 C 1530.47 -4.45085 -6.88694 0
M  V30 18645 O 1530.08 -5.7877 -6.5624 0
M  V30 18646 C 1529.59 -3.47817 -6.12078 0
M  V30 18647 C 1530.3 -3.39414 -4.77697 0
M  V30 18648 N 1530.25 -2.04615 -4.15333 0
M  V30 18649 H 1533.09 -3.41248 -7.98759 0
M  V30 18650 H 1533.36 -2.5837 -6.41742 0
M  V30 18651 H 1532.49 -5.02657 -6.42673 0
M  V30 18652 P 1528.53 -6.144 -6.45285 0
M  V30 18653 O 1528.31 -7.54673 -6.86199 0
M  V30 18654 O 1527.74 -5.12391 -7.179 0
M  V30 18655 O 1528.28 -5.99158 -4.88404 0
M  V30 18656 C 1529.22 -6.60234 -3.96415 0
M  V30 18657 C 1528.49 -7.08259 -2.72856 0
M  V30 18658 O 1528.28 -5.9427 -1.83651 0
M  V30 18659 C 1527.09 -7.64886 -2.9555 0
M  V30 18660 O 1526.7 -8.53963 -1.90717 0
M  V30 18661 C 1526.21 -6.4116 -2.90739 0
M  V30 18662 C 1526.92 -5.55375 -1.86963 0
M  V30 18663 N 1526.87 -4.09664 -2.15742 0
M  V30 18664 H 1529.71 -7.45574 -4.45629 0
M  V30 18665 H 1529.98 -5.86232 -3.67314 0
M  V30 18666 H 1529.11 -7.84412 -2.24479 0
M  V30 18667 P 1525.15 -8.7635 -1.60911 0
M  V30 18668 O 1524.93 -10.1388 -1.11561 0
M  V30 18669 O 1524.36 -8.36503 -2.79617 0
M  V30 18670 O 1524.9 -7.71806 -0.42951 0
M  V30 18671 C 1525.84 -7.67148 0.673689 0
M  V30 18672 C 1525.11 -7.33374 1.95559 0
M  V30 18673 O 1524.9 -5.88721 2.00726 0
M  V30 18674 C 1523.71 -7.92526 2.10483 0
M  V30 18675 O 1523.32 -8.02971 3.47653 0
M  V30 18676 C 1522.83 -6.89602 1.41652 0
M  V30 18677 C 1523.54 -5.59201 1.75185 0
M  V30 18678 N 1523.49 -4.58235 0.662552 0
M  V30 18679 H 1526.33 -8.65116 0.777161 0
M  V30 18680 H 1526.6 -6.90173 0.474152 0
M  V30 18681 H 1525.73 -7.66548 2.79458 0
M  V30 18682 P 1521.77 -8.03563 3.84925 0
M  V30 18683 O 1521.55 -8.85821 5.0569 0
M  V30 18684 O 1520.98 -8.41101 2.65469 0
M  V30 18685 O 1521.52 -6.49734 4.18962 0
M  V30 18686 C 1522.46 -5.81037 5.05421 0
M  V30 18687 C 1521.73 -4.79018 5.88876 0
M  V30 18688 O 1521.52 -3.58359 5.08515 0
M  V30 18689 C 1520.33 -5.17448 6.36119 0
M  V30 18690 O 1519.94 -4.45322 7.53318 0
M  V30 18691 C 1519.45 -4.74639 5.19936 0
M  V30 18692 C 1520.16 -3.49432 4.70418 0
M  V30 18693 N 1520.11 -3.31776 3.22945 0
M  V30 18694 C 1519.96 -2.02742 2.72939 0
M  V30 18695 O 1519.87 -1.08301 3.52749 0
M  V30 18696 N 1519.91 -1.96117 1.22063 0
M  V30 18697 C 1520.01 -2.8878 0.551566 0
M  V30 18698 N 1519.96 -2.65609 -0.750198 0
M  V30 18699 C 1520.16 -4.22457 1.03707 0
M  V30 18700 C 1520.21 -4.37979 2.39113 0
M  V30 18701 H 1522.95 -6.54138 5.7131 0
M  V30 18702 H 1523.22 -5.30492 4.44033 0
M  V30 18703 H 1522.35 -4.55945 6.76735 0
M  V30 18704 H 1519.7 -2.6176 5.18021 0
M  V30 18705 H 1519.42 -5.52233 4.41941 0
M  V30 18706 H 1518.43 -4.52045 5.53452 0
M  V30 18707 H 1520.26 -6.25124 6.55234 0
M  V30 18708 H 1520.33 -5.37936 2.80552 0
M  V30 18709 H 1520.23 -5.07528 0.359553 0
M  V30 18710 H 1519.84 -1.69403 -1.09847 0
M  V30 18711 H 1520.04 -3.43701 -1.41792 0
M  V30 18712 P 1518.39 -4.23843 7.83734 0
M  V30 18713 O 1518.17 -4.19407 9.29784 0
M  V30 18714 O 1517.6 -5.24426 7.09156 0
M  V30 18715 O 1518.14 -2.7935 7.20758 0
M  V30 18716 C 1519.08 -1.7299 7.50419 0
M  V30 18717 C 1518.35 -0.406376 7.57911 0
M  V30 18718 O 1518.14 0.0897726 6.21935 0
M  V30 18719 C 1516.95 -0.447224 8.1878 0
M  V30 18720 O 1516.56 0.825065 8.71101 0
M  V30 18721 C 1516.07 -0.783801 6.99623 0
M  V30 18722 C 1516.78 -0.0619192 5.85967 0
M  V30 18723 N 1516.73 -0.7859 4.56281 0
M  V30 18724 H 1519.57 -1.93423 8.4679 0
M  V30 18725 H 1519.84 -1.68181 6.71046 0
M  V30 18726 H 1518.97 0.289041 8.15388 0
M  V30 18727 P 1515.01 1.17771 8.83182 0
M  V30 18728 O 1514.79 2.07206 9.98732 0
M  V30 18729 O 1514.22 -0.0743816 8.81969 0
M  V30 18730 O 1514.76 1.97652 7.47304 0
M  V30 18731 C 1515.7 3.01133 7.08783 0
M  V30 18732 C 1514.97 4.12613 6.37049 0
M  V30 18733 O 1514.76 3.72827 4.97879 0
M  V30 18734 C 1513.57 4.45085 6.88694 0
M  V30 18735 O 1513.18 5.7877 6.5624 0
M  V30 18736 C 1512.69 3.47817 6.12078 0
M  V30 18737 C 1513.4 3.39414 4.77697 0
M  V30 18738 N 1513.35 2.04199 4.15538 0
M  V30 18739 C 1513.43 0.821545 4.76977 0
M  V30 18740 N 1513.36 -0.1794 3.94592 0
M  V30 18741 C 1513.21 0.419121 2.70776 0
M  V30 18742 C 1513.08 -0.109072 1.40577 0
M  V30 18743 N 1513.07 -1.4104 1.1344 0
M  V30 18744 N 1512.96 0.764381 0.39411 0
M  V30 18745 C 1512.97 2.06587 0.664135 0
M  V30 18746 N 1513.09 2.67948 1.82153 0
M  V30 18747 C 1513.21 1.77942 2.8147 0
M  V30 18748 H 1516.19 3.41248 7.98759 0
M  V30 18749 H 1516.46 2.57728 6.42 0
M  V30 18750 H 1515.59 5.02657 6.42673 0
M  V30 18751 H 1512.94 4.11708 4.08956 0
M  V30 18752 H 1512.66 2.49626 6.61679 0
M  V30 18753 H 1511.67 3.8662 6.00862 0
M  V30 18754 H 1513.5 4.29991 7.97006 0
M  V30 18755 H 1513.54 0.702451 5.84696 0
M  V30 18756 H 1513.16 -2.09647 1.89651 0
M  V30 18757 H 1512.97 -1.73358 0.160575 0
M  V30 18758 H 1512.87 2.71695 -0.195838 0
M  V30 18759 P 1511.63 6.144 6.45285 0
M  V30 18760 O 1511.41 7.54673 6.86199 0
M  V30 18761 O 1510.84 5.12391 7.179 0
M  V30 18762 O 1511.38 5.99158 4.88404 0
M  V30 18763 C 1512.32 6.60234 3.96415 0
M  V30 18764 C 1511.59 7.08259 2.72856 0
M  V30 18765 O 1511.38 5.9427 1.83651 0
M  V30 18766 C 1510.19 7.64886 2.9555 0
M  V30 18767 O 1509.8 8.53963 1.90717 0
M  V30 18768 C 1509.31 6.4116 2.90739 0
M  V30 18769 C 1510.02 5.55375 1.86963 0
M  V30 18770 N 1509.97 4.09664 2.15742 0
M  V30 18771 H 1512.81 7.45574 4.45629 0
M  V30 18772 H 1513.08 5.86232 3.67314 0
M  V30 18773 H 1512.21 7.84412 2.24479 0
M  V30 18774 P 1508.25 8.7635 1.60911 0
M  V30 18775 O 1508.03 10.1388 1.11561 0
M  V30 18776 O 1507.46 8.36503 2.79617 0
M  V30 18777 O 1508 7.71806 0.42951 0
M  V30 18778 C 1508.94 7.67148 -0.673689 0
M  V30 18779 C 1508.21 7.33374 -1.95559 0
M  V30 18780 O 1508 5.88721 -2.00726 0
M  V30 18781 C 1506.81 7.92526 -2.10483 0
M  V30 18782 O 1506.42 8.02971 -3.47653 0
M  V30 18783 C 1505.93 6.89602 -1.41652 0
M  V30 18784 C 1506.64 5.59201 -1.75185 0
M  V30 18785 N 1506.59 4.58235 -0.662552 0
M  V30 18786 H 1509.43 8.65116 -0.777161 0
M  V30 18787 H 1509.7 6.90173 -0.474152 0
M  V30 18788 H 1508.83 7.66548 -2.79458 0
M  V30 18789 P 1504.87 8.03563 -3.84925 0
M  V30 18790 O 1504.65 8.85821 -5.0569 0
M  V30 18791 O 1504.08 8.41101 -2.65469 0
M  V30 18792 O 1504.62 6.4965 -4.18908 0
M  V30 18793 C 1505.56 5.81037 -5.05421 0
M  V30 18794 C 1504.83 4.78366 -5.89277 0
M  V30 18795 O 1504.62 3.58302 -5.08433 0
M  V30 18796 C 1503.43 5.17448 -6.36119 0
M  V30 18797 O 1503.04 4.45271 -7.53232 0
M  V30 18798 C 1502.55 4.74639 -5.19936 0
M  V30 18799 C 1503.26 3.49432 -4.70418 0
M  V30 18800 N 1503.21 3.31776 -3.22945 0
M  V30 18801 H 1506.05 6.54213 -5.71376 0
M  V30 18802 H 1506.32 5.30492 -4.44033 0
M  V30 18803 H 1505.45 4.55889 -6.76652 0
M  V30 18804 P 1501.49 4.23843 -7.83734 0
M  V30 18805 O 1501.27 4.19407 -9.29784 0
M  V30 18806 O 1500.7 5.24426 -7.09156 0
M  V30 18807 O 1501.24 2.7935 -7.20758 0
M  V30 18808 C 1502.18 1.7299 -7.50419 0
M  V30 18809 C 1501.45 0.406376 -7.57911 0
M  V30 18810 O 1501.24 -0.0897726 -6.21935 0
M  V30 18811 C 1500.05 0.447224 -8.1878 0
M  V30 18812 O 1499.66 -0.825065 -8.71101 0
M  V30 18813 C 1499.17 0.783801 -6.99623 0
M  V30 18814 C 1499.88 0.0619192 -5.85967 0
M  V30 18815 N 1499.83 0.790462 -4.56202 0
M  V30 18816 H 1502.67 1.93423 -8.4679 0
M  V30 18817 H 1502.94 1.68852 -6.70877 0
M  V30 18818 H 1502.07 -0.289041 -8.15388 0
M  V30 18819 H 1499.42 -0.927006 -5.72848 0
M  V30 18820 H 1499.14 1.86973 -6.82036 0
M  V30 18821 H 1498.15 0.403953 -7.13357 0
M  V30 18822 H 1499.98 1.20599 -8.97534 0
M  V30 18823 P 1498.11 -1.17771 -8.83182 0
M  V30 18824 O 1497.89 -2.07206 -9.98732 0
M  V30 18825 O 1497.32 0.0743816 -8.81969 0
M  V30 18826 O 1497.86 -1.97652 -7.47304 0
M  V30 18827 C 1498.8 -3.01133 -7.08783 0
M  V30 18828 C 1498.07 -4.12613 -6.37049 0
M  V30 18829 O 1497.86 -3.72827 -4.97879 0
M  V30 18830 C 1496.67 -4.45085 -6.88694 0
M  V30 18831 O 1496.28 -5.7877 -6.5624 0
M  V30 18832 C 1495.79 -3.47817 -6.12078 0
M  V30 18833 C 1496.5 -3.39414 -4.77697 0
M  V30 18834 N 1496.45 -2.04615 -4.15333 0
M  V30 18835 H 1499.29 -3.41248 -7.98759 0
M  V30 18836 H 1499.56 -2.5837 -6.41742 0
M  V30 18837 H 1498.69 -5.02657 -6.42673 0
M  V30 18838 P 1494.73 -6.144 -6.45285 0
M  V30 18839 O 1494.51 -7.54673 -6.86199 0
M  V30 18840 O 1493.94 -5.12391 -7.179 0
M  V30 18841 O 1494.48 -5.99158 -4.88404 0
M  V30 18842 C 1495.42 -6.60234 -3.96415 0
M  V30 18843 C 1494.69 -7.08259 -2.72856 0
M  V30 18844 O 1494.48 -5.9427 -1.83651 0
M  V30 18845 C 1493.29 -7.64886 -2.9555 0
M  V30 18846 O 1492.9 -8.53963 -1.90717 0
M  V30 18847 C 1492.41 -6.4116 -2.90739 0
M  V30 18848 C 1493.12 -5.55375 -1.86963 0
M  V30 18849 N 1493.07 -4.09664 -2.15742 0
M  V30 18850 H 1495.91 -7.45574 -4.45629 0
M  V30 18851 H 1496.18 -5.86232 -3.67314 0
M  V30 18852 H 1495.31 -7.84412 -2.24479 0
M  V30 18853 P 1491.35 -8.7635 -1.60911 0
M  V30 18854 O 1491.13 -10.1388 -1.11561 0
M  V30 18855 O 1490.56 -8.36503 -2.79617 0
M  V30 18856 O 1491.1 -7.71906 -0.429565 0
M  V30 18857 C 1492.04 -7.67148 0.673689 0
M  V30 18858 C 1491.31 -7.33666 1.94851 0
M  V30 18859 O 1491.1 -5.88816 2.00759 0
M  V30 18860 C 1489.91 -7.92526 2.10483 0
M  V30 18861 O 1489.52 -8.03063 3.47693 0
M  V30 18862 C 1489.03 -6.89602 1.41652 0
M  V30 18863 C 1489.74 -5.59201 1.75185 0
M  V30 18864 N 1489.69 -4.58235 0.662552 0
M  V30 18865 C 1489.54 -3.24451 1.01643 0
M  V30 18866 O 1489.45 -2.94958 2.21722 0
M  V30 18867 N 1489.49 -2.30408 -0.165238 0
M  V30 18868 C 1489.59 -2.66048 -1.25118 0
M  V30 18869 N 1489.54 -1.70787 -2.16813 0
M  V30 18870 C 1489.74 -4.02732 -1.64413 0
M  V30 18871 C 1489.79 -4.9488 -0.63991 0
M  V30 18872 H 1492.53 -8.65017 0.777072 0
M  V30 18873 H 1492.8 -6.90173 0.474152 0
M  V30 18874 H 1491.93 -7.66642 2.79492 0
M  V30 18875 H 1489.28 -5.16254 2.65229 0
M  V30 18876 H 1489 -7.06532 0.329431 0
M  V30 18877 H 1488.01 -6.91023 1.82047 0
M  V30 18878 H 1489.84 -8.90873 1.62657 0
M  V30 18879 H 1489.91 -6.00104 -0.892197 0
M  V30 18880 H 1489.81 -4.31733 -2.69229 0
M  V30 18881 H 1489.42 -0.724835 -1.8844 0
M  V30 18882 H 1489.62 -1.94716 -3.16734 0
M  V30 18883 P 1487.97 -8.03563 3.84925 0
M  V30 18884 O 1487.75 -8.85821 5.0569 0
M  V30 18885 O 1487.18 -8.41101 2.65469 0
M  V30 18886 O 1487.72 -6.4965 4.18908 0
M  V30 18887 C 1488.66 -5.81037 5.05421 0
M  V30 18888 C 1487.93 -4.78366 5.89277 0
M  V30 18889 O 1487.72 -3.58302 5.08433 0
M  V30 18890 C 1486.53 -5.17448 6.36119 0
M  V30 18891 O 1486.14 -4.45271 7.53232 0
M  V30 18892 C 1485.65 -4.74639 5.19936 0
M  V30 18893 C 1486.36 -3.49432 4.70418 0
M  V30 18894 N 1486.31 -3.31776 3.22945 0
M  V30 18895 H 1489.15 -6.54213 5.71376 0
M  V30 18896 H 1489.42 -5.30492 4.44033 0
M  V30 18897 H 1488.55 -4.55889 6.76652 0
M  V30 18898 P 1484.59 -4.23843 7.83734 0
M  V30 18899 O 1484.37 -4.19407 9.29784 0
M  V30 18900 O 1483.8 -5.24426 7.09156 0
M  V30 18901 O 1484.34 -2.7935 7.20758 0
M  V30 18902 C 1485.28 -1.7299 7.50419 0
M  V30 18903 C 1484.55 -0.406376 7.57911 0
M  V30 18904 O 1484.34 0.0897726 6.21935 0
M  V30 18905 C 1483.15 -0.447224 8.1878 0
M  V30 18906 O 1482.76 0.825065 8.71101 0
M  V30 18907 C 1482.27 -0.783801 6.99623 0
M  V30 18908 C 1482.98 -0.0619192 5.85967 0
M  V30 18909 N 1482.93 -0.790462 4.56202 0
M  V30 18910 H 1485.77 -1.93423 8.4679 0
M  V30 18911 H 1486.04 -1.68852 6.70877 0
M  V30 18912 H 1485.17 0.289041 8.15388 0
M  V30 18913 H 1482.52 0.927006 5.72848 0
M  V30 18914 H 1482.24 -1.86973 6.82036 0
M  V30 18915 H 1481.25 -0.403953 7.13357 0
M  V30 18916 H 1483.08 -1.20599 8.97534 0
M  V30 18917 P 1481.21 1.17771 8.83182 0
M  V30 18918 O 1480.99 2.07206 9.98732 0
M  V30 18919 O 1480.42 -0.0743816 8.81969 0
M  V30 18920 O 1480.96 1.97652 7.47304 0
M  V30 18921 C 1481.9 3.01133 7.08783 0
M  V30 18922 C 1481.17 4.12613 6.37049 0
M  V30 18923 O 1480.96 3.72827 4.97879 0
M  V30 18924 C 1479.77 4.45085 6.88694 0
M  V30 18925 O 1479.38 5.7877 6.5624 0
M  V30 18926 C 1478.89 3.47817 6.12078 0
M  V30 18927 C 1479.6 3.39414 4.77697 0
M  V30 18928 N 1479.55 2.04199 4.15538 0
M  V30 18929 C 1479.63 0.821545 4.76977 0
M  V30 18930 N 1479.56 -0.1794 3.94592 0
M  V30 18931 C 1479.41 0.419121 2.70776 0
M  V30 18932 C 1479.28 -0.109072 1.40577 0
M  V30 18933 N 1479.27 -1.4104 1.1344 0
M  V30 18934 N 1479.16 0.764381 0.39411 0
M  V30 18935 C 1479.17 2.06587 0.664135 0
M  V30 18936 N 1479.29 2.67948 1.82153 0
M  V30 18937 C 1479.41 1.77942 2.8147 0
M  V30 18938 H 1482.39 3.41248 7.98759 0
M  V30 18939 H 1482.66 2.57728 6.42 0
M  V30 18940 H 1481.79 5.02657 6.42673 0
M  V30 18941 H 1479.14 4.11708 4.08956 0
M  V30 18942 H 1478.86 2.49626 6.61679 0
M  V30 18943 H 1477.87 3.8662 6.00862 0
M  V30 18944 H 1479.7 4.29991 7.97006 0
M  V30 18945 H 1479.74 0.702451 5.84696 0
M  V30 18946 H 1479.36 -2.09647 1.89651 0
M  V30 18947 H 1479.17 -1.73358 0.160575 0
M  V30 18948 H 1479.07 2.71695 -0.195838 0
M  V30 18949 P 1477.83 6.144 6.45285 0
M  V30 18950 O 1477.61 7.54673 6.86199 0
M  V30 18951 O 1477.04 5.12391 7.179 0
M  V30 18952 O 1477.58 5.99158 4.88404 0
M  V30 18953 C 1478.52 6.60234 3.96415 0
M  V30 18954 C 1477.79 7.08259 2.72856 0
M  V30 18955 O 1477.58 5.9427 1.83651 0
M  V30 18956 C 1476.39 7.64886 2.9555 0
M  V30 18957 O 1476 8.53963 1.90717 0
M  V30 18958 C 1475.51 6.4116 2.90739 0
M  V30 18959 C 1476.22 5.55375 1.86963 0
M  V30 18960 N 1476.17 4.09664 2.15742 0
M  V30 18961 H 1479.01 7.45574 4.45629 0
M  V30 18962 H 1479.28 5.86232 3.67314 0
M  V30 18963 H 1478.41 7.84412 2.24479 0
M  V30 18964 P 1474.45 8.7635 1.60911 0
M  V30 18965 O 1474.23 10.1388 1.11561 0
M  V30 18966 O 1473.66 8.36503 2.79617 0
M  V30 18967 O 1474.2 7.71806 0.42951 0
M  V30 18968 C 1475.14 7.66948 -0.673514 0
M  V30 18969 C 1474.41 7.33374 -1.95559 0
M  V30 18970 O 1474.2 5.88721 -2.00726 0
M  V30 18971 C 1473.01 7.92218 -2.1125 0
M  V30 18972 O 1472.62 8.02971 -3.47653 0
M  V30 18973 C 1472.13 6.89504 -1.41631 0
M  V30 18974 C 1472.84 5.59106 -1.75155 0
M  V30 18975 N 1472.79 4.58136 -0.662409 0
M  V30 18976 C 1472.64 3.26059 -1.02863 0
M  V30 18977 O 1472.55 2.90743 -2.19009 0
M  V30 18978 N 1472.6 2.35995 0.0155585 0
M  V30 18979 C 1472.69 2.65248 1.35603 0
M  V30 18980 C 1472.84 4.05747 1.64698 0
M  V30 18981 C 1472.89 4.96734 0.652411 0
M  V30 18982 H 1475.63 8.64917 -0.776982 0
M  V30 18983 H 1475.9 6.89974 -0.474015 0
M  V30 18984 H 1475.03 7.66548 -2.79458 0
M  V30 18985 H 1472.38 5.16076 -2.65138 0
M  V30 18986 H 1472.1 7.06433 -0.329384 0
M  V30 18987 H 1471.11 6.90829 -1.81996 0
M  V30 18988 H 1472.94 8.90774 -1.62639 0
M  V30 18989 H 1473.01 6.02181 0.895285 0
M  V30 18990 P 1471.07 8.03563 -3.84925 0
M  V30 18991 O 1470.85 8.85821 -5.0569 0
M  V30 18992 O 1470.28 8.41101 -2.65469 0
M  V30 18993 O 1470.82 6.4965 -4.18908 0
M  V30 18994 C 1471.76 5.81037 -5.05421 0
M  V30 18995 C 1471.03 4.78366 -5.89277 0
M  V30 18996 O 1470.82 3.58302 -5.08433 0
M  V30 18997 C 1469.63 5.17448 -6.36119 0
M  V30 18998 O 1469.24 4.45271 -7.53232 0
M  V30 18999 C 1468.75 4.74639 -5.19936 0
M  V30 19000 C 1469.46 3.49432 -4.70418 0
M  V30 19001 N 1469.41 3.31776 -3.22945 0
M  V30 19002 H 1472.25 6.54213 -5.71376 0
M  V30 19003 H 1472.52 5.30492 -4.44033 0
M  V30 19004 H 1471.65 4.55889 -6.76652 0
M  V30 19005 P 1467.69 4.23843 -7.83734 0
M  V30 19006 O 1467.47 4.19407 -9.29784 0
M  V30 19007 O 1466.9 5.24426 -7.09156 0
M  V30 19008 O 1467.44 2.7935 -7.20758 0
M  V30 19009 C 1468.38 1.7299 -7.50419 0
M  V30 19010 C 1467.65 0.406376 -7.57911 0
M  V30 19011 O 1467.44 -0.0897726 -6.21935 0
M  V30 19012 C 1466.25 0.447224 -8.1878 0
M  V30 19013 O 1465.86 -0.825065 -8.71101 0
M  V30 19014 C 1465.37 0.783801 -6.99623 0
M  V30 19015 C 1466.08 0.0619192 -5.85967 0
M  V30 19016 N 1466.03 0.7859 -4.56281 0
M  V30 19017 H 1468.87 1.93423 -8.4679 0
M  V30 19018 H 1469.14 1.68181 -6.71046 0
M  V30 19019 H 1468.27 -0.289041 -8.15388 0
M  V30 19020 P 1464.31 -1.17771 -8.83182 0
M  V30 19021 O 1464.09 -2.07206 -9.98732 0
M  V30 19022 O 1463.52 0.0743816 -8.81969 0
M  V30 19023 O 1464.06 -1.97652 -7.47304 0
M  V30 19024 C 1465 -3.01133 -7.08783 0
M  V30 19025 C 1464.27 -4.12613 -6.37049 0
M  V30 19026 O 1464.06 -3.72827 -4.97879 0
M  V30 19027 C 1462.87 -4.45085 -6.88694 0
M  V30 19028 O 1462.48 -5.7877 -6.5624 0
M  V30 19029 C 1461.99 -3.47817 -6.12078 0
M  V30 19030 C 1462.7 -3.39414 -4.77697 0
M  V30 19031 N 1462.65 -2.04199 -4.15538 0
M  V30 19032 H 1465.49 -3.41248 -7.98759 0
M  V30 19033 H 1465.76 -2.57728 -6.42 0
M  V30 19034 H 1464.89 -5.02657 -6.42673 0
M  V30 19035 H 1462.24 -4.11708 -4.08956 0
M  V30 19036 H 1461.96 -2.49626 -6.61679 0
M  V30 19037 H 1460.97 -3.8662 -6.00862 0
M  V30 19038 H 1462.8 -4.29991 -7.97006 0
M  V30 19039 P 1460.93 -6.144 -6.45285 0
M  V30 19040 O 1460.71 -7.54673 -6.86199 0
M  V30 19041 O 1460.14 -5.12391 -7.179 0
M  V30 19042 O 1460.68 -5.99158 -4.88404 0
M  V30 19043 C 1461.62 -6.60234 -3.96415 0
M  V30 19044 C 1460.89 -7.08259 -2.72856 0
M  V30 19045 O 1460.68 -5.9427 -1.83651 0
M  V30 19046 C 1459.49 -7.64886 -2.9555 0
M  V30 19047 O 1459.1 -8.53963 -1.90717 0
M  V30 19048 C 1458.61 -6.4116 -2.90739 0
M  V30 19049 C 1459.32 -5.55375 -1.86963 0
M  V30 19050 N 1459.27 -4.09448 -2.16152 0
M  V30 19051 H 1462.11 -7.45574 -4.45629 0
M  V30 19052 H 1462.38 -5.85864 -3.679 0
M  V30 19053 H 1461.51 -7.84412 -2.24479 0
M  V30 19054 H 1458.86 -5.73457 -0.888562 0
M  V30 19055 H 1458.58 -5.90877 -3.88583 0
M  V30 19056 H 1457.59 -6.6596 -2.58858 0
M  V30 19057 H 1459.42 -8.16339 -3.92049 0
M  V30 19058 P 1457.55 -8.7635 -1.60911 0
M  V30 19059 O 1457.33 -10.1388 -1.11561 0
M  V30 19060 O 1456.76 -8.36503 -2.79617 0
M  V30 19061 O 1457.3 -7.71806 -0.42951 0
M  V30 19062 C 1458.24 -7.67148 0.673689 0
M  V30 19063 C 1457.51 -7.33374 1.95559 0
M  V30 19064 O 1457.3 -5.88721 2.00726 0
M  V30 19065 C 1456.11 -7.92526 2.10483 0
M  V30 19066 O 1455.72 -8.02971 3.47653 0
M  V30 19067 C 1455.23 -6.89602 1.41652 0
M  V30 19068 C 1455.94 -5.59201 1.75185 0
M  V30 19069 N 1455.89 -4.58235 0.662552 0
M  V30 19070 H 1458.73 -8.65116 0.777161 0
M  V30 19071 H 1459 -6.90173 0.474152 0
M  V30 19072 H 1458.13 -7.66548 2.79458 0
M  V30 19073 P 1454.17 -8.03563 3.84925 0
M  V30 19074 O 1453.95 -8.85821 5.0569 0
M  V30 19075 O 1453.38 -8.41101 2.65469 0
M  V30 19076 O 1453.92 -6.4965 4.18908 0
M  V30 19077 C 1454.86 -5.80886 5.05289 0
M  V30 19078 C 1454.13 -4.78366 5.89277 0
M  V30 19079 O 1453.92 -3.58302 5.08433 0
M  V30 19080 C 1452.73 -5.16748 6.36559 0
M  V30 19081 O 1452.34 -4.45271 7.53232 0
M  V30 19082 C 1451.85 -4.74572 5.19863 0
M  V30 19083 C 1452.56 -3.49373 4.70338 0
M  V30 19084 N 1452.51 -3.31704 3.22876 0
M  V30 19085 C 1452.36 -2.03326 2.74871 0
M  V30 19086 O 1452.27 -1.06486 3.48076 0
M  V30 19087 N 1452.32 -1.91838 1.37456 0
M  V30 19088 C 1452.41 -2.94295 0.462035 0
M  V30 19089 O 1452.36 -2.71763 -0.752928 0
M  V30 19090 C 1452.56 -4.25064 1.05249 0
M  V30 19091 C 1452.67 -5.39815 0.095697 0
M  V30 19092 C 1452.61 -4.40214 2.39192 0
M  V30 19093 H 1455.35 -6.54063 5.71245 0
M  V30 19094 H 1455.62 -5.30339 4.43905 0
M  V30 19095 H 1454.75 -4.55889 6.76652 0
M  V30 19096 H 1452.1 -2.6167 5.17842 0
M  V30 19097 H 1451.82 -5.52155 4.41878 0
M  V30 19098 H 1450.83 -4.51918 5.53297 0
M  V30 19099 H 1452.66 -6.25055 6.55162 0
M  V30 19100 H 1452.73 -5.39798 2.81523 0
M  V30 19101 H 1451.7 -5.91593 0.0279582 0
M  V30 19102 H 1453.44 -6.10038 0.450573 0
M  V30 19103 H 1452.95 -5.02007 -0.89937 0
M  V30 19104 H 1452.22 -0.995326 1.00435 0
M  V30 19105 P 1450.79 -4.23843 7.83734 0
M  V30 19106 O 1450.57 -4.19407 9.29784 0
M  V30 19107 O 1450 -5.24426 7.09156 0
M  V30 19108 O 1450.54 -2.7935 7.20758 0
M  V30 19109 C 1451.48 -1.7299 7.50419 0
M  V30 19110 C 1450.75 -0.406376 7.57911 0
M  V30 19111 O 1450.54 0.0897726 6.21935 0
M  V30 19112 C 1449.35 -0.447224 8.1878 0
M  V30 19113 O 1448.96 0.825065 8.71101 0
M  V30 19114 C 1448.47 -0.783801 6.99623 0
M  V30 19115 C 1449.18 -0.0619192 5.85967 0
M  V30 19116 N 1449.13 -0.7859 4.56281 0
M  V30 19117 C 1449.21 -2.14308 4.31736 0
M  V30 19118 N 1449.13 -2.46106 3.05116 0
M  V30 19119 C 1448.99 -1.23422 2.4014 0
M  V30 19120 C 1448.86 -0.938381 1.02409 0
M  V30 19121 O 1448.84 -1.70876 0.0650402 0
M  V30 19122 N 1448.74 0.444647 0.805413 0
M  V30 19123 C 1448.74 1.40829 1.79435 0
M  V30 19124 N 1448.61 2.67213 1.38558 0
M  V30 19125 N 1448.87 1.12947 3.09005 0
M  V30 19126 C 1448.99 -0.204887 3.32369 0
M  V30 19127 H 1451.97 -1.93423 8.4679 0
M  V30 19128 H 1452.24 -1.68181 6.71046 0
M  V30 19129 H 1451.37 0.289041 8.15388 0
M  V30 19130 H 1448.72 0.927166 5.72947 0
M  V30 19131 H 1448.44 -1.87 6.82132 0
M  V30 19132 H 1447.45 -0.404009 7.13457 0
M  V30 19133 H 1449.28 -1.20612 8.97633 0
M  V30 19134 H 1449.33 -2.88284 5.10874 0
M  V30 19135 H 1448.65 0.755087 -0.140242 0
M  V30 19136 H 1448.61 3.43967 2.0729 0
M  V30 19137 H 1448.51 2.88096 0.380644 0
M  V30 19138 P 1447.41 1.17771 8.83182 0
M  V30 19139 O 1447.19 2.07206 9.98732 0
M  V30 19140 O 1446.62 -0.0743816 8.81969 0
M  V30 19141 O 1447.16 1.97652 7.47304 0
M  V30 19142 C 1448.1 3.01133 7.08783 0
M  V30 19143 C 1447.37 4.12613 6.37049 0
M  V30 19144 O 1447.16 3.72827 4.97879 0
M  V30 19145 C 1445.97 4.45085 6.88694 0
M  V30 19146 O 1445.58 5.7877 6.5624 0
M  V30 19147 C 1445.09 3.47817 6.12078 0
M  V30 19148 C 1445.8 3.39414 4.77697 0
M  V30 19149 N 1445.75 2.04615 4.15333 0
M  V30 19150 H 1448.59 3.41248 7.98759 0
M  V30 19151 H 1448.86 2.5837 6.41742 0
M  V30 19152 H 1447.99 5.02657 6.42673 0
M  V30 19153 P 1444.03 6.144 6.45285 0
M  V30 19154 O 1443.81 7.54673 6.86199 0
M  V30 19155 O 1443.24 5.12391 7.179 0
M  V30 19156 O 1443.78 5.99158 4.88404 0
M  V30 19157 C 1444.72 6.60234 3.96415 0
M  V30 19158 C 1443.99 7.08259 2.72856 0
M  V30 19159 O 1443.78 5.9427 1.83651 0
M  V30 19160 C 1442.59 7.64886 2.9555 0
M  V30 19161 O 1442.2 8.53963 1.90717 0
M  V30 19162 C 1441.71 6.4116 2.90739 0
M  V30 19163 C 1442.42 5.55375 1.86963 0
M  V30 19164 N 1442.37 4.09664 2.15742 0
M  V30 19165 H 1445.21 7.45574 4.45629 0
M  V30 19166 H 1445.48 5.86232 3.67314 0
M  V30 19167 H 1444.61 7.84412 2.24479 0
M  V30 19168 P 1440.65 8.7635 1.60911 0
M  V30 19169 O 1440.43 10.1388 1.11561 0
M  V30 19170 O 1439.86 8.36503 2.79617 0
M  V30 19171 O 1440.4 7.71806 0.42951 0
M  V30 19172 C 1441.34 7.67148 -0.673689 0
M  V30 19173 C 1440.61 7.33374 -1.95559 0
M  V30 19174 O 1440.4 5.88721 -2.00726 0
M  V30 19175 C 1439.21 7.92526 -2.10483 0
M  V30 19176 O 1438.82 8.02971 -3.47653 0
M  V30 19177 C 1438.33 6.89602 -1.41652 0
M  V30 19178 C 1439.04 5.59201 -1.75185 0
M  V30 19179 N 1438.99 4.58301 -0.657969 0
M  V30 19180 H 1441.83 8.65116 -0.777161 0
M  V30 19181 H 1442.1 6.9022 -0.46725 0
M  V30 19182 H 1441.23 7.66548 -2.79458 0
M  V30 19183 H 1438.58 5.16165 -2.65183 0
M  V30 19184 H 1438.3 7.06433 -0.329384 0
M  V30 19185 H 1437.31 6.90926 -1.82021 0
M  V30 19186 H 1439.14 8.90873 -1.62657 0
M  V30 19187 P 1437.27 8.03563 -3.84925 0
M  V30 19188 O 1437.05 8.85821 -5.0569 0
M  V30 19189 O 1436.48 8.41101 -2.65469 0
M  V30 19190 O 1437.02 6.4965 -4.18908 0
M  V30 19191 C 1437.96 5.81037 -5.05421 0
M  V30 19192 C 1437.23 4.78366 -5.89277 0
M  V30 19193 O 1437.02 3.58302 -5.08433 0
M  V30 19194 C 1435.83 5.17448 -6.36119 0
M  V30 19195 O 1435.44 4.45271 -7.53232 0
M  V30 19196 C 1434.95 4.74639 -5.19936 0
M  V30 19197 C 1435.66 3.49432 -4.70418 0
M  V30 19198 N 1435.61 3.32099 -3.22613 0
M  V30 19199 H 1438.45 6.54213 -5.71376 0
M  V30 19200 H 1438.72 5.30936 -4.43503 0
M  V30 19201 H 1437.85 4.55889 -6.76652 0
M  V30 19202 H 1435.2 2.61715 -5.17932 0
M  V30 19203 H 1434.92 5.52155 -4.41878 0
M  V30 19204 H 1433.93 4.51981 -5.53374 0
M  V30 19205 H 1435.76 6.25124 -6.55234 0
M  V30 19206 P 1433.89 4.23843 -7.83734 0
M  V30 19207 O 1433.67 4.19407 -9.29784 0
M  V30 19208 O 1433.1 5.24426 -7.09156 0
M  V30 19209 O 1433.64 2.79386 -7.20852 0
M  V30 19210 C 1434.58 1.7299 -7.50419 0
M  V30 19211 C 1433.85 0.41401 -7.5797 0
M  V30 19212 O 1433.64 -0.089787 -6.22035 0
M  V30 19213 C 1432.45 0.447224 -8.1878 0
M  V30 19214 O 1432.06 -0.825159 -8.71201 0
M  V30 19215 C 1431.57 0.783801 -6.99623 0
M  V30 19216 C 1432.28 0.0619192 -5.85967 0
M  V30 19217 N 1432.23 0.7859 -4.56281 0
M  V30 19218 C 1432.08 0.0359258 -3.39981 0
M  V30 19219 O 1431.99 -1.19723 -3.49038 0
M  V30 19220 N 1432.03 0.869151 -2.14025 0
M  V30 19221 C 1432.13 2.01207 -2.14363 0
M  V30 19222 N 1432.08 2.58978 -0.954287 0
M  V30 19223 C 1432.28 2.80817 -3.32215 0
M  V30 19224 C 1432.33 2.13785 -4.50884 0
M  V30 19225 H 1435.07 1.93401 -8.46693 0
M  V30 19226 H 1435.34 1.68181 -6.71046 0
M  V30 19227 H 1434.47 -0.289076 -8.15488 0
M  V30 19228 H 1431.82 -0.927166 -5.72947 0
M  V30 19229 H 1431.54 1.87 -6.82132 0
M  V30 19230 H 1430.55 0.404009 -7.13457 0
M  V30 19231 H 1432.38 1.20599 -8.97534 0
M  V30 19232 H 1432.45 2.70295 -5.43162 0
M  V30 19233 H 1432.35 3.89465 -3.27406 0
M  V30 19234 H 1431.96 2.01616 -0.107046 0
M  V30 19235 H 1432.16 3.61403 -0.873101 0
M  V30 19236 P 1430.51 -1.17771 -8.83182 0
M  V30 19237 O 1430.29 -2.07206 -9.98732 0
M  V30 19238 O 1429.72 0.0743816 -8.81969 0
M  V30 19239 O 1430.26 -1.97652 -7.47304 0
M  V30 19240 C 1431.2 -3.01133 -7.08783 0
M  V30 19241 C 1430.47 -4.12613 -6.37049 0
M  V30 19242 O 1430.26 -3.72827 -4.97879 0
M  V30 19243 C 1429.07 -4.45085 -6.88694 0
M  V30 19244 O 1428.68 -5.7877 -6.5624 0
M  V30 19245 C 1428.19 -3.47817 -6.12078 0
M  V30 19246 C 1428.9 -3.39414 -4.77697 0
M  V30 19247 N 1428.85 -2.04199 -4.15538 0
M  V30 19248 H 1431.69 -3.41248 -7.98759 0
M  V30 19249 H 1431.96 -2.57728 -6.42 0
M  V30 19250 H 1431.09 -5.02657 -6.42673 0
M  V30 19251 H 1428.44 -4.11708 -4.08956 0
M  V30 19252 H 1428.16 -2.49626 -6.61679 0
M  V30 19253 H 1427.17 -3.8662 -6.00862 0
M  V30 19254 H 1429 -4.29991 -7.97006 0
M  V30 19255 P 1427.13 -6.144 -6.45285 0
M  V30 19256 O 1426.91 -7.54673 -6.86199 0
M  V30 19257 O 1426.34 -5.12391 -7.179 0
M  V30 19258 O 1426.88 -5.99158 -4.88404 0
M  V30 19259 C 1427.82 -6.60234 -3.96415 0
M  V30 19260 C 1427.09 -7.08259 -2.72856 0
M  V30 19261 O 1426.88 -5.9427 -1.83651 0
M  V30 19262 C 1425.69 -7.64886 -2.9555 0
M  V30 19263 O 1425.3 -8.53963 -1.90717 0
M  V30 19264 C 1424.81 -6.4116 -2.90739 0
M  V30 19265 C 1425.52 -5.55375 -1.86963 0
M  V30 19266 N 1425.47 -4.09664 -2.15742 0
M  V30 19267 H 1428.31 -7.45574 -4.45629 0
M  V30 19268 H 1428.58 -5.86232 -3.67314 0
M  V30 19269 H 1427.71 -7.84412 -2.24479 0
M  V30 19270 P 1423.75 -8.7635 -1.60911 0
M  V30 19271 O 1423.53 -10.1388 -1.11561 0
M  V30 19272 O 1422.96 -8.36503 -2.79617 0
M  V30 19273 O 1423.5 -7.71806 -0.42951 0
M  V30 19274 C 1424.44 -7.67148 0.673689 0
M  V30 19275 C 1423.71 -7.33374 1.95559 0
M  V30 19276 O 1423.5 -5.88721 2.00726 0
M  V30 19277 C 1422.31 -7.92526 2.10483 0
M  V30 19278 O 1421.92 -8.02971 3.47653 0
M  V30 19279 C 1421.43 -6.89602 1.41652 0
M  V30 19280 C 1422.14 -5.59201 1.75185 0
M  V30 19281 N 1422.09 -4.58301 0.657969 0
M  V30 19282 H 1424.93 -8.65116 0.777161 0
M  V30 19283 H 1425.2 -6.9022 0.46725 0
M  V30 19284 H 1424.33 -7.66548 2.79458 0
M  V30 19285 H 1421.68 -5.16165 2.65183 0
M  V30 19286 H 1421.4 -7.06433 0.329384 0
M  V30 19287 H 1420.41 -6.90926 1.82021 0
M  V30 19288 H 1422.24 -8.90873 1.62657 0
M  V30 19289 P 1420.37 -8.03563 3.84925 0
M  V30 19290 O 1420.15 -8.85821 5.0569 0
M  V30 19291 O 1419.58 -8.41101 2.65469 0
M  V30 19292 O 1420.12 -6.4965 4.18908 0
M  V30 19293 C 1421.06 -5.81037 5.05421 0
M  V30 19294 C 1420.33 -4.78366 5.89277 0
M  V30 19295 O 1420.12 -3.58302 5.08433 0
M  V30 19296 C 1418.93 -5.17448 6.36119 0
M  V30 19297 O 1418.54 -4.45271 7.53232 0
M  V30 19298 C 1418.05 -4.74639 5.19936 0
M  V30 19299 C 1418.76 -3.49432 4.70418 0
M  V30 19300 N 1418.71 -3.31776 3.22945 0
M  V30 19301 H 1421.55 -6.54213 5.71376 0
M  V30 19302 H 1421.82 -5.30492 4.44033 0
M  V30 19303 H 1420.95 -4.55889 6.76652 0
M  V30 19304 P 1416.99 -4.23843 7.83734 0
M  V30 19305 O 1416.77 -4.19407 9.29784 0
M  V30 19306 O 1416.2 -5.24426 7.09156 0
M  V30 19307 O 1416.74 -2.7935 7.20758 0
M  V30 19308 C 1417.68 -1.7299 7.50419 0
M  V30 19309 C 1416.95 -0.406376 7.57911 0
M  V30 19310 O 1416.74 0.0897726 6.21935 0
M  V30 19311 C 1415.55 -0.447224 8.1878 0
M  V30 19312 O 1415.16 0.825065 8.71101 0
M  V30 19313 C 1414.67 -0.783801 6.99623 0
M  V30 19314 C 1415.38 -0.0619192 5.85967 0
M  V30 19315 N 1415.33 -0.7859 4.56281 0
M  V30 19316 H 1418.17 -1.93423 8.4679 0
M  V30 19317 H 1418.44 -1.68181 6.71046 0
M  V30 19318 H 1417.57 0.289041 8.15388 0
M  V30 19319 P 1413.61 1.17771 8.83182 0
M  V30 19320 O 1413.39 2.07206 9.98732 0
M  V30 19321 O 1412.82 -0.0743816 8.81969 0
M  V30 19322 O 1413.36 1.97652 7.47304 0
M  V30 19323 C 1414.3 3.01133 7.08783 0
M  V30 19324 C 1413.57 4.12613 6.37049 0
M  V30 19325 O 1413.36 3.72827 4.97879 0
M  V30 19326 C 1412.17 4.45085 6.88694 0
M  V30 19327 O 1411.78 5.7877 6.5624 0
M  V30 19328 C 1411.29 3.47817 6.12078 0
M  V30 19329 C 1412 3.39414 4.77697 0
M  V30 19330 N 1411.95 2.04199 4.15538 0
M  V30 19331 C 1412.03 0.821545 4.76977 0
M  V30 19332 N 1411.96 -0.1794 3.94592 0
M  V30 19333 C 1411.81 0.419121 2.70776 0
M  V30 19334 C 1411.68 -0.109072 1.40577 0
M  V30 19335 N 1411.67 -1.4104 1.1344 0
M  V30 19336 N 1411.56 0.764381 0.39411 0
M  V30 19337 C 1411.57 2.06587 0.664135 0
M  V30 19338 N 1411.69 2.67948 1.82153 0
M  V30 19339 C 1411.81 1.77942 2.8147 0
M  V30 19340 H 1414.79 3.41248 7.98759 0
M  V30 19341 H 1415.06 2.57728 6.42 0
M  V30 19342 H 1414.19 5.02657 6.42673 0
M  V30 19343 H 1411.54 4.11708 4.08956 0
M  V30 19344 H 1411.26 2.49626 6.61679 0
M  V30 19345 H 1410.27 3.8662 6.00862 0
M  V30 19346 H 1412.1 4.29991 7.97006 0
M  V30 19347 H 1412.14 0.702451 5.84696 0
M  V30 19348 H 1411.76 -2.09647 1.89651 0
M  V30 19349 H 1411.57 -1.73358 0.160575 0
M  V30 19350 H 1411.47 2.71695 -0.195838 0
M  V30 19351 P 1410.23 6.144 6.45285 0
M  V30 19352 O 1410.01 7.54673 6.86199 0
M  V30 19353 O 1409.44 5.12391 7.179 0
M  V30 19354 O 1409.98 5.99236 4.88467 0
M  V30 19355 C 1410.92 6.60234 3.96415 0
M  V30 19356 C 1410.19 7.08079 2.736 0
M  V30 19357 O 1409.98 5.94365 1.8368 0
M  V30 19358 C 1408.79 7.64886 2.9555 0
M  V30 19359 O 1408.4 8.5406 1.90739 0
M  V30 19360 C 1407.91 6.4116 2.90739 0
M  V30 19361 C 1408.62 5.55375 1.86963 0
M  V30 19362 N 1408.57 4.09664 2.15742 0
M  V30 19363 C 1408.42 3.22231 1.08477 0
M  V30 19364 O 1408.33 3.68951 -0.0600489 0
M  V30 19365 N 1408.37 1.76692 1.48799 0
M  V30 19366 C 1408.47 1.41695 2.57602 0
M  V30 19367 N 1408.42 0.107296 2.75791 0
M  V30 19368 C 1408.62 2.29178 3.69733 0
M  V30 19369 C 1408.67 3.62753 3.42653 0
M  V30 19370 H 1411.41 7.45488 4.45578 0
M  V30 19371 H 1411.68 5.86232 3.67314 0
M  V30 19372 H 1410.81 7.84508 2.24507 0
M  V30 19373 H 1408.16 5.73556 0.888715 0
M  V30 19374 H 1407.88 5.9096 3.88638 0
M  V30 19375 H 1406.89 6.66053 2.58894 0
M  V30 19376 H 1408.72 8.16339 3.92049 0
M  V30 19377 H 1408.79 4.33052 4.24913 0
M  V30 19378 H 1408.69 1.9103 4.71577 0
M  V30 19379 H 1408.3 -0.521221 1.95056 0
M  V30 19380 H 1408.5 -0.286429 3.70695 0
M  V30 19381 P 1406.85 8.7635 1.60911 0
M  V30 19382 O 1406.63 10.1388 1.11561 0
M  V30 19383 O 1406.06 8.36503 2.79617 0
M  V30 19384 O 1406.6 7.71806 0.42951 0
M  V30 19385 C 1407.54 7.67148 -0.673689 0
M  V30 19386 C 1406.81 7.33374 -1.95559 0
M  V30 19387 O 1406.6 5.88721 -2.00726 0
M  V30 19388 C 1405.41 7.92526 -2.10483 0
M  V30 19389 O 1405.02 8.02971 -3.47653 0
M  V30 19390 C 1404.53 6.89602 -1.41652 0
M  V30 19391 C 1405.24 5.59201 -1.75185 0
M  V30 19392 N 1405.19 4.58235 -0.662552 0
M  V30 19393 H 1408.03 8.65116 -0.777161 0
M  V30 19394 H 1408.3 6.90173 -0.474152 0
M  V30 19395 H 1407.43 7.66548 -2.79458 0
M  V30 19396 P 1403.47 8.03563 -3.84925 0
M  V30 19397 O 1403.25 8.85821 -5.0569 0
M  V30 19398 O 1402.68 8.41101 -2.65469 0
M  V30 19399 O 1403.22 6.4965 -4.18908 0
M  V30 19400 C 1404.16 5.81037 -5.05421 0
M  V30 19401 C 1403.43 4.78366 -5.89277 0
M  V30 19402 O 1403.22 3.58302 -5.08433 0
M  V30 19403 C 1402.03 5.17448 -6.36119 0
M  V30 19404 O 1401.64 4.45271 -7.53232 0
M  V30 19405 C 1401.15 4.74639 -5.19936 0
M  V30 19406 C 1401.86 3.49432 -4.70418 0
M  V30 19407 N 1401.81 3.31776 -3.22945 0
M  V30 19408 C 1401.89 4.27147 -2.23315 0
M  V30 19409 N 1401.81 3.78447 -1.02186 0
M  V30 19410 C 1401.67 2.41001 -1.21732 0
M  V30 19411 C 1401.54 1.36111 -0.27694 0
M  V30 19412 N 1401.42 0.113683 -0.912949 0
M  V30 19413 C 1401.42 -0.0846396 -2.27943 0
M  V30 19414 N 1401.29 -1.34737 -2.6916 0
M  V30 19415 N 1401.55 0.902521 -3.16379 0
M  V30 19416 C 1401.67 2.11937 -2.56849 0
M  V30 19417 H 1404.65 6.54213 -5.71376 0
M  V30 19418 H 1404.92 5.30492 -4.44033 0
M  V30 19419 H 1404.05 4.55889 -6.76652 0
M  V30 19420 P 1400.09 4.23843 -7.83734 0
M  V30 19421 O 1399.87 4.19407 -9.29784 0
M  V30 19422 O 1399.3 5.24426 -7.09156 0
M  V30 19423 O 1399.84 2.7935 -7.20758 0
M  V30 19424 C 1400.78 1.7299 -7.50419 0
M  V30 19425 C 1400.05 0.406376 -7.57911 0
M  V30 19426 O 1399.84 -0.0897726 -6.21935 0
M  V30 19427 C 1398.65 0.447224 -8.1878 0
M  V30 19428 O 1398.26 -0.825065 -8.71101 0
M  V30 19429 C 1397.77 0.783801 -6.99623 0
M  V30 19430 C 1398.48 0.0619192 -5.85967 0
M  V30 19431 N 1398.43 0.7859 -4.56281 0
M  V30 19432 H 1401.27 1.93423 -8.4679 0
M  V30 19433 H 1401.54 1.68181 -6.71046 0
M  V30 19434 H 1400.67 -0.289041 -8.15388 0
M  V30 19435 P 1396.71 -1.17771 -8.83182 0
M  V30 19436 O 1396.49 -2.07206 -9.98732 0
M  V30 19437 O 1395.92 0.0743816 -8.81969 0
M  V30 19438 O 1396.46 -1.97652 -7.47304 0
M  V30 19439 C 1397.4 -3.01133 -7.08783 0
M  V30 19440 C 1396.67 -4.12613 -6.37049 0
M  V30 19441 O 1396.46 -3.72827 -4.97879 0
M  V30 19442 C 1395.27 -4.45085 -6.88694 0
M  V30 19443 O 1394.88 -5.7877 -6.5624 0
M  V30 19444 C 1394.39 -3.47817 -6.12078 0
M  V30 19445 C 1395.1 -3.39414 -4.77697 0
M  V30 19446 N 1395.05 -2.04615 -4.15333 0
M  V30 19447 C 1395.13 -0.803897 -4.75249 0
M  V30 19448 N 1395.05 0.197615 -3.91502 0
M  V30 19449 C 1394.91 -0.413002 -2.66823 0
M  V30 19450 C 1394.78 0.157221 -1.38007 0
M  V30 19451 O 1394.76 1.34419 -1.057 0
M  V30 19452 N 1394.66 -0.833136 -0.390236 0
M  V30 19453 C 1394.66 -2.19402 -0.623885 0
M  V30 19454 N 1394.53 -2.97622 0.449677 0
M  V30 19455 N 1394.79 -2.73005 -1.83601 0
M  V30 19456 C 1394.91 -1.78786 -2.80935 0
M  V30 19457 H 1397.89 -3.41248 -7.98759 0
M  V30 19458 H 1398.16 -2.5837 -6.41742 0
M  V30 19459 H 1397.29 -5.02657 -6.42673 0
M  V30 19460 H 1394.64 -4.11779 -4.09026 0
M  V30 19461 H 1394.36 -2.49661 -6.61772 0
M  V30 19462 H 1393.37 -3.86674 -6.00946 0
M  V30 19463 H 1395.2 -4.30038 -7.97094 0
M  V30 19464 H 1395.25 -0.670579 -5.82754 0
M  V30 19465 H 1394.57 -0.528446 0.557287 0
M  V30 19466 H 1394.53 -4.00117 0.344773 0
M  V30 19467 H 1394.43 -2.55448 1.38544 0
M  V30 19468 P 1393.33 -6.144 -6.45285 0
M  V30 19469 O 1393.11 -7.54673 -6.86199 0
M  V30 19470 O 1392.54 -5.12391 -7.179 0
M  V30 19471 O 1393.08 -5.99236 -4.88467 0
M  V30 19472 C 1394.02 -6.60234 -3.96415 0
M  V30 19473 C 1393.29 -7.08079 -2.736 0
M  V30 19474 O 1393.08 -5.94365 -1.8368 0
M  V30 19475 C 1391.89 -7.64886 -2.9555 0
M  V30 19476 O 1391.5 -8.5406 -1.90739 0
M  V30 19477 C 1391.01 -6.4116 -2.90739 0
M  V30 19478 C 1391.72 -5.55375 -1.86963 0
M  V30 19479 N 1391.67 -4.09664 -2.15742 0
M  V30 19480 C 1391.52 -3.22231 -1.08477 0
M  V30 19481 O 1391.43 -3.68951 0.0600489 0
M  V30 19482 N 1391.47 -1.76692 -1.48799 0
M  V30 19483 C 1391.57 -1.41695 -2.57602 0
M  V30 19484 N 1391.52 -0.107296 -2.75791 0
M  V30 19485 C 1391.72 -2.29178 -3.69733 0
M  V30 19486 C 1391.77 -3.62753 -3.42653 0
M  V30 19487 H 1394.51 -7.45488 -4.45578 0
M  V30 19488 H 1394.78 -5.86232 -3.67314 0
M  V30 19489 H 1393.91 -7.84508 -2.24507 0
M  V30 19490 H 1391.26 -5.73556 -0.888715 0
M  V30 19491 H 1390.98 -5.9096 -3.88638 0
M  V30 19492 H 1389.99 -6.66053 -2.58894 0
M  V30 19493 H 1391.82 -8.16339 -3.92049 0
M  V30 19494 H 1391.89 -4.33052 -4.24913 0
M  V30 19495 H 1391.79 -1.9103 -4.71577 0
M  V30 19496 H 1391.4 0.521221 -1.95056 0
M  V30 19497 H 1391.6 0.286429 -3.70695 0
M  V30 19498 P 1389.95 -8.7635 -1.60911 0
M  V30 19499 O 1389.73 -10.1388 -1.11561 0
M  V30 19500 O 1389.16 -8.36503 -2.79617 0
M  V30 19501 O 1389.7 -7.71806 -0.42951 0
M  V30 19502 C 1390.64 -7.67148 0.673689 0
M  V30 19503 C 1389.91 -7.33374 1.95559 0
M  V30 19504 O 1389.7 -5.88721 2.00726 0
M  V30 19505 C 1388.51 -7.92526 2.10483 0
M  V30 19506 O 1388.12 -8.02971 3.47653 0
M  V30 19507 C 1387.63 -6.89602 1.41652 0
M  V30 19508 C 1388.34 -5.59201 1.75185 0
M  V30 19509 N 1388.29 -4.58235 0.662552 0
M  V30 19510 H 1391.13 -8.65116 0.777161 0
M  V30 19511 H 1391.4 -6.90173 0.474152 0
M  V30 19512 H 1390.53 -7.66548 2.79458 0
M  V30 19513 P 1386.57 -8.03563 3.84925 0
M  V30 19514 O 1386.35 -8.85821 5.0569 0
M  V30 19515 O 1385.78 -8.41101 2.65469 0
M  V30 19516 O 1386.32 -6.4965 4.18908 0
M  V30 19517 C 1387.26 -5.81037 5.05421 0
M  V30 19518 C 1386.53 -4.78366 5.89277 0
M  V30 19519 O 1386.32 -3.58302 5.08433 0
M  V30 19520 C 1385.13 -5.17448 6.36119 0
M  V30 19521 O 1384.74 -4.45271 7.53232 0
M  V30 19522 C 1384.25 -4.74639 5.19936 0
M  V30 19523 C 1384.96 -3.49432 4.70418 0
M  V30 19524 N 1384.91 -3.31776 3.22945 0
M  V30 19525 H 1387.75 -6.54213 5.71376 0
M  V30 19526 H 1388.02 -5.30492 4.44033 0
M  V30 19527 H 1387.15 -4.55889 6.76652 0
M  V30 19528 P 1383.19 -4.23843 7.83734 0
M  V30 19529 O 1382.97 -4.19407 9.29784 0
M  V30 19530 O 1382.4 -5.24426 7.09156 0
M  V30 19531 O 1382.94 -2.79386 7.20852 0
M  V30 19532 C 1383.88 -1.7299 7.50419 0
M  V30 19533 C 1383.15 -0.41401 7.5797 0
M  V30 19534 O 1382.94 0.089787 6.22035 0
M  V30 19535 C 1381.75 -0.447224 8.1878 0
M  V30 19536 O 1381.36 0.825159 8.71201 0
M  V30 19537 C 1380.87 -0.783801 6.99623 0
M  V30 19538 C 1381.58 -0.0619192 5.85967 0
M  V30 19539 N 1381.53 -0.7859 4.56281 0
M  V30 19540 C 1381.38 -0.0359258 3.39981 0
M  V30 19541 O 1381.29 1.19723 3.49038 0
M  V30 19542 N 1381.33 -0.869151 2.14025 0
M  V30 19543 C 1381.43 -2.01207 2.14363 0
M  V30 19544 N 1381.38 -2.58978 0.954287 0
M  V30 19545 C 1381.58 -2.80817 3.32215 0
M  V30 19546 C 1381.63 -2.13785 4.50884 0
M  V30 19547 H 1384.37 -1.93401 8.46693 0
M  V30 19548 H 1384.64 -1.68181 6.71046 0
M  V30 19549 H 1383.77 0.289076 8.15488 0
M  V30 19550 H 1381.12 0.927166 5.72947 0
M  V30 19551 H 1380.84 -1.87 6.82132 0
M  V30 19552 H 1379.85 -0.404009 7.13457 0
M  V30 19553 H 1381.68 -1.20599 8.97534 0
M  V30 19554 H 1381.75 -2.70295 5.43162 0
M  V30 19555 H 1381.65 -3.89465 3.27406 0
M  V30 19556 H 1381.26 -2.01616 0.107046 0
M  V30 19557 H 1381.46 -3.61403 0.873101 0
M  V30 19558 P 1379.81 1.17771 8.83182 0
M  V30 19559 O 1379.59 2.07206 9.98732 0
M  V30 19560 O 1379.02 -0.0743816 8.81969 0
M  V30 19561 O 1379.56 1.97652 7.47304 0
M  V30 19562 C 1380.5 3.01055 7.08599 0
M  V30 19563 C 1379.77 4.12613 6.37049 0
M  V30 19564 O 1379.56 3.72827 4.97879 0
M  V30 19565 C 1378.37 4.45719 6.88164 0
M  V30 19566 O 1377.98 5.7877 6.5624 0
M  V30 19567 C 1377.49 3.47768 6.11991 0
M  V30 19568 C 1378.2 3.39356 4.77615 0
M  V30 19569 N 1378.15 2.04571 4.15244 0
M  V30 19570 C 1378 1.98587 2.78314 0
M  V30 19571 O 1377.91 2.98134 2.08835 0
M  V30 19572 N 1377.96 0.714467 2.24925 0
M  V30 19573 C 1378.05 -0.470001 2.94169 0
M  V30 19574 C 1378.2 -0.312541 4.36783 0
M  V30 19575 C 1378.25 0.914512 4.92583 0
M  V30 19576 H 1380.99 3.41169 7.98575 0
M  V30 19577 H 1381.26 2.58295 6.41556 0
M  V30 19578 H 1380.39 5.02657 6.42673 0
M  V30 19579 H 1377.74 4.11637 4.08885 0
M  V30 19580 H 1377.46 2.49626 6.61679 0
M  V30 19581 H 1376.47 3.86566 6.00778 0
M  V30 19582 H 1378.3 4.29943 7.96918 0
M  V30 19583 H 1378.37 1.00937 6.00374 0
M  V30 19584 P 1376.43 6.144 6.45285 0
M  V30 19585 O 1376.21 7.54673 6.86199 0
M  V30 19586 O 1375.64 5.12391 7.179 0
M  V30 19587 O 1376.18 5.99236 4.88467 0
M  V30 19588 C 1377.12 6.60234 3.96415 0
M  V30 19589 C 1376.39 7.08079 2.736 0
M  V30 19590 O 1376.18 5.94365 1.8368 0
M  V30 19591 C 1374.99 7.64886 2.9555 0
M  V30 19592 O 1374.6 8.5406 1.90739 0
M  V30 19593 C 1374.11 6.4116 2.90739 0
M  V30 19594 C 1374.82 5.55375 1.86963 0
M  V30 19595 N 1374.77 4.09664 2.15742 0
M  V30 19596 C 1374.62 3.22231 1.08477 0
M  V30 19597 O 1374.53 3.68951 -0.0600489 0
M  V30 19598 N 1374.57 1.76692 1.48799 0
M  V30 19599 C 1374.67 1.41695 2.57602 0
M  V30 19600 N 1374.62 0.107296 2.75791 0
M  V30 19601 C 1374.82 2.29178 3.69733 0
M  V30 19602 C 1374.87 3.62753 3.42653 0
M  V30 19603 H 1377.61 7.45488 4.45578 0
M  V30 19604 H 1377.88 5.86232 3.67314 0
M  V30 19605 H 1377.01 7.84508 2.24507 0
M  V30 19606 H 1374.36 5.73556 0.888715 0
M  V30 19607 H 1374.08 5.9096 3.88638 0
M  V30 19608 H 1373.09 6.66053 2.58894 0
M  V30 19609 H 1374.92 8.16339 3.92049 0
M  V30 19610 H 1374.99 4.33052 4.24913 0
M  V30 19611 H 1374.89 1.9103 4.71577 0
M  V30 19612 H 1374.5 -0.521221 1.95056 0
M  V30 19613 H 1374.7 -0.286429 3.70695 0
M  V30 19614 P 1373.05 8.7635 1.60911 0
M  V30 19615 O 1372.83 10.1388 1.11561 0
M  V30 19616 O 1372.26 8.36503 2.79617 0
M  V30 19617 O 1372.8 7.71806 0.42951 0
M  V30 19618 C 1373.74 7.67148 -0.673689 0
M  V30 19619 C 1373.01 7.33374 -1.95559 0
M  V30 19620 O 1372.8 5.88721 -2.00726 0
M  V30 19621 C 1371.61 7.92526 -2.10483 0
M  V30 19622 O 1371.22 8.02971 -3.47653 0
M  V30 19623 C 1370.73 6.89602 -1.41652 0
M  V30 19624 C 1371.44 5.59201 -1.75185 0
M  V30 19625 N 1371.39 4.58235 -0.662552 0
M  V30 19626 H 1374.23 8.65116 -0.777161 0
M  V30 19627 H 1374.5 6.90173 -0.474152 0
M  V30 19628 H 1373.63 7.66548 -2.79458 0
M  V30 19629 P 1369.67 8.03563 -3.84925 0
M  V30 19630 O 1369.45 8.85821 -5.0569 0
M  V30 19631 O 1368.88 8.41101 -2.65469 0
M  V30 19632 O 1369.42 6.4965 -4.18908 0
M  V30 19633 C 1370.36 5.81037 -5.05421 0
M  V30 19634 C 1369.63 4.78366 -5.89277 0
M  V30 19635 O 1369.42 3.58302 -5.08433 0
M  V30 19636 C 1368.23 5.17448 -6.36119 0
M  V30 19637 O 1367.84 4.45271 -7.53232 0
M  V30 19638 C 1367.35 4.74639 -5.19936 0
M  V30 19639 C 1368.06 3.49432 -4.70418 0
M  V30 19640 N 1368.01 3.31776 -3.22945 0
M  V30 19641 H 1370.85 6.54213 -5.71376 0
M  V30 19642 H 1371.12 5.30492 -4.44033 0
M  V30 19643 H 1370.25 4.55889 -6.76652 0
M  V30 19644 P 1366.29 4.23843 -7.83734 0
M  V30 19645 O 1366.07 4.19407 -9.29784 0
M  V30 19646 O 1365.5 5.24426 -7.09156 0
M  V30 19647 O 1366.04 2.7935 -7.20758 0
M  V30 19648 C 1366.98 1.7299 -7.50419 0
M  V30 19649 C 1366.25 0.406376 -7.57911 0
M  V30 19650 O 1366.04 -0.0897726 -6.21935 0
M  V30 19651 C 1364.85 0.447224 -8.1878 0
M  V30 19652 O 1364.46 -0.825065 -8.71101 0
M  V30 19653 C 1363.97 0.783801 -6.99623 0
M  V30 19654 C 1364.68 0.0619192 -5.85967 0
M  V30 19655 N 1364.63 0.7859 -4.56281 0
M  V30 19656 H 1367.47 1.93423 -8.4679 0
M  V30 19657 H 1367.74 1.68181 -6.71046 0
M  V30 19658 H 1366.87 -0.289041 -8.15388 0
M  V30 19659 P 1362.91 -1.17771 -8.83182 0
M  V30 19660 O 1362.69 -2.07206 -9.98732 0
M  V30 19661 O 1362.12 0.0743816 -8.81969 0
M  V30 19662 O 1362.66 -1.97652 -7.47304 0
M  V30 19663 C 1363.6 -3.01133 -7.08783 0
M  V30 19664 C 1362.87 -4.12613 -6.37049 0
M  V30 19665 O 1362.66 -3.72827 -4.97879 0
M  V30 19666 C 1361.47 -4.45085 -6.88694 0
M  V30 19667 O 1361.08 -5.7877 -6.5624 0
M  V30 19668 C 1360.59 -3.47817 -6.12078 0
M  V30 19669 C 1361.3 -3.39414 -4.77697 0
M  V30 19670 N 1361.25 -2.04615 -4.15333 0
M  V30 19671 H 1364.09 -3.41248 -7.98759 0
M  V30 19672 H 1364.36 -2.5837 -6.41742 0
M  V30 19673 H 1363.49 -5.02657 -6.42673 0
M  V30 19674 P 1359.53 -6.144 -6.45285 0
M  V30 19675 O 1359.31 -7.54673 -6.86199 0
M  V30 19676 O 1358.74 -5.12391 -7.179 0
M  V30 19677 O 1359.28 -5.99158 -4.88404 0
M  V30 19678 C 1360.22 -6.60234 -3.96415 0
M  V30 19679 C 1359.49 -7.08259 -2.72856 0
M  V30 19680 O 1359.28 -5.9427 -1.83651 0
M  V30 19681 C 1358.09 -7.64886 -2.9555 0
M  V30 19682 O 1357.7 -8.53963 -1.90717 0
M  V30 19683 C 1357.21 -6.4116 -2.90739 0
M  V30 19684 C 1357.92 -5.55375 -1.86963 0
M  V30 19685 N 1357.87 -4.09664 -2.15742 0
M  V30 19686 H 1360.71 -7.45574 -4.45629 0
M  V30 19687 H 1360.98 -5.86232 -3.67314 0
M  V30 19688 H 1360.11 -7.84412 -2.24479 0
M  V30 19689 P 1356.15 -8.7635 -1.60911 0
M  V30 19690 O 1355.93 -10.1388 -1.11561 0
M  V30 19691 O 1355.36 -8.36503 -2.79617 0
M  V30 19692 O 1355.9 -7.71806 -0.42951 0
M  V30 19693 C 1356.84 -7.67148 0.673689 0
M  V30 19694 C 1356.11 -7.33374 1.95559 0
M  V30 19695 O 1355.9 -5.88721 2.00726 0
M  V30 19696 C 1354.71 -7.92526 2.10483 0
M  V30 19697 O 1354.32 -8.02971 3.47653 0
M  V30 19698 C 1353.83 -6.89602 1.41652 0
M  V30 19699 C 1354.54 -5.59201 1.75185 0
M  V30 19700 N 1354.49 -4.58235 0.662552 0
M  V30 19701 H 1357.33 -8.65116 0.777161 0
M  V30 19702 H 1357.6 -6.90173 0.474152 0
M  V30 19703 H 1356.73 -7.66548 2.79458 0
M  V30 19704 P 1352.77 -8.03563 3.84925 0
M  V30 19705 O 1352.55 -8.85821 5.0569 0
M  V30 19706 O 1351.98 -8.41101 2.65469 0
M  V30 19707 O 1352.52 -6.4965 4.18908 0
M  V30 19708 C 1353.46 -5.81037 5.05421 0
M  V30 19709 C 1352.73 -4.78366 5.89277 0
M  V30 19710 O 1352.52 -3.58302 5.08433 0
M  V30 19711 C 1351.33 -5.17448 6.36119 0
M  V30 19712 O 1350.94 -4.45271 7.53232 0
M  V30 19713 C 1350.45 -4.74639 5.19936 0
M  V30 19714 C 1351.16 -3.49432 4.70418 0
M  V30 19715 N 1351.11 -3.31776 3.22945 0
M  V30 19716 H 1353.95 -6.54213 5.71376 0
M  V30 19717 H 1354.22 -5.30492 4.44033 0
M  V30 19718 H 1353.36 -4.55889 6.76652 0
M  V30 19719 P 1349.39 -4.23843 7.83734 0
M  V30 19720 O 1349.17 -4.19407 9.29784 0
M  V30 19721 O 1348.6 -5.24426 7.09156 0
M  V30 19722 O 1349.14 -2.7935 7.20758 0
M  V30 19723 C 1350.08 -1.7299 7.50419 0
M  V30 19724 C 1349.35 -0.406376 7.57911 0
M  V30 19725 O 1349.14 0.0897726 6.21935 0
M  V30 19726 C 1347.95 -0.447224 8.1878 0
M  V30 19727 O 1347.56 0.825065 8.71101 0
M  V30 19728 C 1347.07 -0.783801 6.99623 0
M  V30 19729 C 1347.78 -0.0619192 5.85967 0
M  V30 19730 N 1347.73 -0.7859 4.56281 0
M  V30 19731 H 1350.57 -1.93423 8.4679 0
M  V30 19732 H 1350.84 -1.68181 6.71046 0
M  V30 19733 H 1349.98 0.289041 8.15388 0
M  V30 19734 P 1346.01 1.17771 8.83182 0
M  V30 19735 O 1345.79 2.07206 9.98732 0
M  V30 19736 O 1345.22 -0.0743816 8.81969 0
M  V30 19737 O 1345.76 1.97652 7.47304 0
M  V30 19738 C 1346.7 3.01133 7.08783 0
M  V30 19739 C 1345.97 4.12613 6.37049 0
M  V30 19740 O 1345.76 3.72827 4.97879 0
M  V30 19741 C 1344.57 4.45085 6.88694 0
M  V30 19742 O 1344.18 5.7877 6.5624 0
M  V30 19743 C 1343.69 3.47817 6.12078 0
M  V30 19744 C 1344.4 3.39414 4.77697 0
M  V30 19745 N 1344.35 2.04615 4.15333 0
M  V30 19746 H 1347.19 3.41248 7.98759 0
M  V30 19747 H 1347.46 2.5837 6.41742 0
M  V30 19748 H 1346.6 5.02657 6.42673 0
M  V30 19749 P 1342.63 6.144 6.45285 0
M  V30 19750 O 1342.41 7.54673 6.86199 0
M  V30 19751 O 1341.84 5.12391 7.179 0
M  V30 19752 O 1342.38 5.99158 4.88404 0
M  V30 19753 C 1343.32 6.60234 3.96415 0
M  V30 19754 C 1342.59 7.08259 2.72856 0
M  V30 19755 O 1342.38 5.9427 1.83651 0
M  V30 19756 C 1341.19 7.64886 2.9555 0
M  V30 19757 O 1340.8 8.53963 1.90717 0
M  V30 19758 C 1340.31 6.4116 2.90739 0
M  V30 19759 C 1341.02 5.55375 1.86963 0
M  V30 19760 N 1340.97 4.09448 2.16152 0
M  V30 19761 H 1343.81 7.45574 4.45629 0
M  V30 19762 H 1344.08 5.85864 3.679 0
M  V30 19763 H 1343.22 7.84412 2.24479 0
M  V30 19764 H 1340.56 5.73457 0.888562 0
M  V30 19765 H 1340.28 5.90877 3.88583 0
M  V30 19766 H 1339.29 6.6596 2.58858 0
M  V30 19767 H 1341.12 8.16339 3.92049 0
M  V30 19768 P 1339.25 8.7635 1.60911 0
M  V30 19769 O 1339.03 10.1388 1.11561 0
M  V30 19770 O 1338.46 8.36503 2.79617 0
M  V30 19771 O 1339 7.71806 0.42951 0
M  V30 19772 C 1339.94 7.67148 -0.673689 0
M  V30 19773 C 1339.21 7.33374 -1.95559 0
M  V30 19774 O 1339 5.88721 -2.00726 0
M  V30 19775 C 1337.81 7.92526 -2.10483 0
M  V30 19776 O 1337.42 8.02971 -3.47653 0
M  V30 19777 C 1336.93 6.89602 -1.41652 0
M  V30 19778 C 1337.64 5.59201 -1.75185 0
M  V30 19779 N 1337.59 4.58301 -0.657969 0
M  V30 19780 H 1340.43 8.65116 -0.777161 0
M  V30 19781 H 1340.7 6.9022 -0.46725 0
M  V30 19782 H 1339.84 7.66548 -2.79458 0
M  V30 19783 H 1337.18 5.16165 -2.65183 0
M  V30 19784 H 1336.9 7.06433 -0.329384 0
M  V30 19785 H 1335.91 6.90926 -1.82021 0
M  V30 19786 H 1337.74 8.90873 -1.62657 0
M  V30 19787 P 1335.87 8.03563 -3.84925 0
M  V30 19788 O 1335.65 8.85821 -5.0569 0
M  V30 19789 O 1335.08 8.41101 -2.65469 0
M  V30 19790 O 1335.62 6.4965 -4.18908 0
M  V30 19791 C 1336.56 5.81037 -5.05421 0
M  V30 19792 C 1335.83 4.78366 -5.89277 0
M  V30 19793 O 1335.62 3.58302 -5.08433 0
M  V30 19794 C 1334.43 5.17448 -6.36119 0
M  V30 19795 O 1334.04 4.45271 -7.53232 0
M  V30 19796 C 1333.55 4.74639 -5.19936 0
M  V30 19797 C 1334.26 3.49432 -4.70418 0
M  V30 19798 N 1334.21 3.31776 -3.22945 0
M  V30 19799 H 1337.05 6.54213 -5.71376 0
M  V30 19800 H 1337.32 5.30492 -4.44033 0
M  V30 19801 H 1336.46 4.55889 -6.76652 0
M  V30 19802 P 1332.49 4.23843 -7.83734 0
M  V30 19803 O 1332.27 4.19407 -9.29784 0
M  V30 19804 O 1331.7 5.24426 -7.09156 0
M  V30 19805 O 1332.24 2.79386 -7.20852 0
M  V30 19806 C 1333.18 1.7299 -7.50419 0
M  V30 19807 C 1332.45 0.41401 -7.5797 0
M  V30 19808 O 1332.24 -0.089787 -6.22035 0
M  V30 19809 C 1331.05 0.447224 -8.1878 0
M  V30 19810 O 1330.66 -0.825159 -8.71201 0
M  V30 19811 C 1330.17 0.783801 -6.99623 0
M  V30 19812 C 1330.88 0.0619192 -5.85967 0
M  V30 19813 N 1330.83 0.7859 -4.56281 0
M  V30 19814 C 1330.68 0.0359258 -3.39981 0
M  V30 19815 O 1330.59 -1.19723 -3.49038 0
M  V30 19816 N 1330.63 0.869151 -2.14025 0
M  V30 19817 C 1330.73 2.01207 -2.14363 0
M  V30 19818 N 1330.68 2.58978 -0.954287 0
M  V30 19819 C 1330.88 2.80817 -3.32215 0
M  V30 19820 C 1330.93 2.13785 -4.50884 0
M  V30 19821 H 1333.67 1.93401 -8.46693 0
M  V30 19822 H 1333.94 1.68181 -6.71046 0
M  V30 19823 H 1333.08 -0.289076 -8.15488 0
M  V30 19824 H 1330.42 -0.927166 -5.72947 0
M  V30 19825 H 1330.14 1.87 -6.82132 0
M  V30 19826 H 1329.15 0.404009 -7.13457 0
M  V30 19827 H 1330.98 1.20599 -8.97534 0
M  V30 19828 H 1331.06 2.70295 -5.43162 0
M  V30 19829 H 1330.95 3.89465 -3.27406 0
M  V30 19830 H 1330.57 2.01616 -0.107046 0
M  V30 19831 H 1330.76 3.61403 -0.873101 0
M  V30 19832 P 1329.11 -1.17771 -8.83182 0
M  V30 19833 O 1328.89 -2.07206 -9.98732 0
M  V30 19834 O 1328.32 0.0743816 -8.81969 0
M  V30 19835 O 1328.86 -1.97652 -7.47304 0
M  V30 19836 C 1329.8 -3.01133 -7.08783 0
M  V30 19837 C 1329.07 -4.12613 -6.37049 0
M  V30 19838 O 1328.86 -3.72827 -4.97879 0
M  V30 19839 C 1327.67 -4.45085 -6.88694 0
M  V30 19840 O 1327.28 -5.7877 -6.5624 0
M  V30 19841 C 1326.79 -3.47817 -6.12078 0
M  V30 19842 C 1327.5 -3.39414 -4.77697 0
M  V30 19843 N 1327.45 -2.04615 -4.15333 0
M  V30 19844 H 1330.29 -3.41248 -7.98759 0
M  V30 19845 H 1330.56 -2.5837 -6.41742 0
M  V30 19846 H 1329.7 -5.02657 -6.42673 0
M  V30 19847 P 1325.73 -6.144 -6.45285 0
M  V30 19848 O 1325.51 -7.54673 -6.86199 0
M  V30 19849 O 1324.94 -5.12391 -7.179 0
M  V30 19850 O 1325.48 -5.99158 -4.88404 0
M  V30 19851 C 1326.42 -6.60234 -3.96415 0
M  V30 19852 C 1325.69 -7.08259 -2.72856 0
M  V30 19853 O 1325.48 -5.9427 -1.83651 0
M  V30 19854 C 1324.29 -7.64886 -2.9555 0
M  V30 19855 O 1323.9 -8.53963 -1.90717 0
M  V30 19856 C 1323.41 -6.4116 -2.90739 0
M  V30 19857 C 1324.12 -5.55375 -1.86963 0
M  V30 19858 N 1324.07 -4.09664 -2.15742 0
M  V30 19859 H 1326.91 -7.45574 -4.45629 0
M  V30 19860 H 1327.18 -5.86232 -3.67314 0
M  V30 19861 H 1326.32 -7.84412 -2.24479 0
M  V30 19862 P 1322.35 -8.7635 -1.60911 0
M  V30 19863 O 1322.13 -10.1388 -1.11561 0
M  V30 19864 O 1321.56 -8.36503 -2.79617 0
M  V30 19865 O 1322.1 -7.71806 -0.42951 0
M  V30 19866 C 1323.04 -7.67148 0.673689 0
M  V30 19867 C 1322.31 -7.33374 1.95559 0
M  V30 19868 O 1322.1 -5.88721 2.00726 0
M  V30 19869 C 1320.91 -7.92526 2.10483 0
M  V30 19870 O 1320.52 -8.02971 3.47653 0
M  V30 19871 C 1320.03 -6.89602 1.41652 0
M  V30 19872 C 1320.74 -5.59201 1.75185 0
M  V30 19873 N 1320.69 -4.58235 0.662552 0
M  V30 19874 H 1323.53 -8.65116 0.777161 0
M  V30 19875 H 1323.8 -6.90173 0.474152 0
M  V30 19876 H 1322.94 -7.66548 2.79458 0
M  V30 19877 P 1318.97 -8.03563 3.84925 0
M  V30 19878 O 1318.75 -8.85821 5.0569 0
M  V30 19879 O 1318.18 -8.41101 2.65469 0
M  V30 19880 O 1318.72 -6.4965 4.18908 0
M  V30 19881 C 1319.66 -5.81037 5.05421 0
M  V30 19882 C 1318.93 -4.78366 5.89277 0
M  V30 19883 O 1318.72 -3.58302 5.08433 0
M  V30 19884 C 1317.53 -5.17448 6.36119 0
M  V30 19885 O 1317.14 -4.45271 7.53232 0
M  V30 19886 C 1316.65 -4.74639 5.19936 0
M  V30 19887 C 1317.36 -3.49432 4.70418 0
M  V30 19888 N 1317.31 -3.31776 3.22945 0
M  V30 19889 H 1320.15 -6.54213 5.71376 0
M  V30 19890 H 1320.42 -5.30492 4.44033 0
M  V30 19891 H 1319.56 -4.55889 6.76652 0
M  V30 19892 P 1315.59 -4.23843 7.83734 0
M  V30 19893 O 1315.37 -4.19407 9.29784 0
M  V30 19894 O 1314.8 -5.24426 7.09156 0
M  V30 19895 O 1315.34 -2.7935 7.20758 0
M  V30 19896 C 1316.28 -1.7299 7.50419 0
M  V30 19897 C 1315.55 -0.406376 7.57911 0
M  V30 19898 O 1315.34 0.0897726 6.21935 0
M  V30 19899 C 1314.15 -0.447224 8.1878 0
M  V30 19900 O 1313.76 0.825065 8.71101 0
M  V30 19901 C 1313.27 -0.783801 6.99623 0
M  V30 19902 C 1313.98 -0.0619192 5.85967 0
M  V30 19903 N 1313.93 -0.7859 4.56281 0
M  V30 19904 H 1316.77 -1.93423 8.4679 0
M  V30 19905 H 1317.04 -1.68181 6.71046 0
M  V30 19906 H 1316.18 0.289041 8.15388 0
M  V30 19907 P 1312.21 1.17771 8.83182 0
M  V30 19908 O 1311.99 2.07206 9.98732 0
M  V30 19909 O 1311.42 -0.0743816 8.81969 0
M  V30 19910 O 1311.96 1.97652 7.47304 0
M  V30 19911 C 1312.9 3.01133 7.08783 0
M  V30 19912 C 1312.17 4.12613 6.37049 0
M  V30 19913 O 1311.96 3.72827 4.97879 0
M  V30 19914 C 1310.77 4.45085 6.88694 0
M  V30 19915 O 1310.38 5.7877 6.5624 0
M  V30 19916 C 1309.89 3.47817 6.12078 0
M  V30 19917 C 1310.6 3.39414 4.77697 0
M  V30 19918 N 1310.55 2.04615 4.15333 0
M  V30 19919 H 1313.39 3.41248 7.98759 0
M  V30 19920 H 1313.66 2.5837 6.41742 0
M  V30 19921 H 1312.8 5.02657 6.42673 0
M  V30 19922 P 1308.83 6.144 6.45285 0
M  V30 19923 O 1308.61 7.54673 6.86199 0
M  V30 19924 O 1308.04 5.12391 7.179 0
M  V30 19925 O 1308.58 5.99158 4.88404 0
M  V30 19926 C 1309.52 6.60062 3.96313 0
M  V30 19927 C 1308.79 7.08259 2.72856 0
M  V30 19928 O 1308.58 5.9427 1.83651 0
M  V30 19929 C 1307.39 7.65087 2.94749 0
M  V30 19930 O 1307 8.53963 1.90717 0
M  V30 19931 C 1306.51 6.41069 2.90698 0
M  V30 19932 C 1307.22 5.5528 1.86931 0
M  V30 19933 N 1307.17 4.09575 2.15696 0
M  V30 19934 C 1307.02 3.24249 1.08435 0
M  V30 19935 O 1306.93 3.63946 -0.0628747 0
M  V30 19936 N 1306.98 1.90009 1.39973 0
M  V30 19937 C 1307.07 1.34884 2.65614 0
M  V30 19938 O 1307.02 0.123716 2.81728 0
M  V30 19939 C 1307.22 2.3145 3.71736 0
M  V30 19940 C 1307.33 1.75913 5.10438 0
M  V30 19941 C 1307.27 3.63518 3.44754 0
M  V30 19942 H 1310.01 7.45402 4.45526 0
M  V30 19943 H 1310.28 5.86062 3.67208 0
M  V30 19944 H 1309.42 7.84412 2.24479 0
M  V30 19945 H 1306.76 5.73358 0.888409 0
M  V30 19946 H 1306.48 5.90877 3.88583 0
M  V30 19947 H 1305.49 6.65867 2.58821 0
M  V30 19948 H 1307.32 8.16248 3.92006 0
M  V30 19949 H 1307.39 4.34551 4.26383 0
M  V30 19950 H 1306.36 1.85471 5.61775 0
M  V30 19951 H 1308.1 2.31364 5.66257 0
M  V30 19952 H 1307.61 0.695936 5.05229 0
M  V30 19953 H 1306.88 1.26277 0.63625 0
M  V30 19954 P 1305.45 8.7635 1.60911 0
M  V30 19955 O 1305.23 10.1388 1.11561 0
M  V30 19956 O 1304.66 8.36503 2.79617 0
M  V30 19957 O 1305.2 7.71806 0.42951 0
M  V30 19958 C 1306.14 7.67148 -0.673689 0
M  V30 19959 C 1305.41 7.33374 -1.95559 0
M  V30 19960 O 1305.2 5.88721 -2.00726 0
M  V30 19961 C 1304.01 7.92526 -2.10483 0
M  V30 19962 O 1303.62 8.02971 -3.47653 0
M  V30 19963 C 1303.13 6.89602 -1.41652 0
M  V30 19964 C 1303.84 5.59201 -1.75185 0
M  V30 19965 N 1303.79 4.58235 -0.662552 0
M  V30 19966 H 1306.63 8.65116 -0.777161 0
M  V30 19967 H 1306.9 6.90173 -0.474152 0
M  V30 19968 H 1306.04 7.66548 -2.79458 0
M  V30 19969 P 1302.07 8.03563 -3.84925 0
M  V30 19970 O 1301.85 8.85821 -5.0569 0
M  V30 19971 O 1301.28 8.41101 -2.65469 0
M  V30 19972 O 1301.82 6.4965 -4.18908 0
M  V30 19973 C 1302.76 5.81037 -5.05421 0
M  V30 19974 C 1302.03 4.78366 -5.89277 0
M  V30 19975 O 1301.82 3.58302 -5.08433 0
M  V30 19976 C 1300.63 5.17448 -6.36119 0
M  V30 19977 O 1300.24 4.45271 -7.53232 0
M  V30 19978 C 1299.75 4.74639 -5.19936 0
M  V30 19979 C 1300.46 3.49432 -4.70418 0
M  V30 19980 N 1300.41 3.31776 -3.22945 0
M  V30 19981 H 1303.25 6.54213 -5.71376 0
M  V30 19982 H 1303.52 5.30492 -4.44033 0
M  V30 19983 H 1302.66 4.55889 -6.76652 0
M  V30 19984 P 1298.69 4.23843 -7.83734 0
M  V30 19985 O 1298.47 4.19407 -9.29784 0
M  V30 19986 O 1297.9 5.24426 -7.09156 0
M  V30 19987 O 1298.44 2.7935 -7.20758 0
M  V30 19988 C 1299.38 1.7299 -7.50419 0
M  V30 19989 C 1298.65 0.406376 -7.57911 0
M  V30 19990 O 1298.44 -0.0897726 -6.21935 0
M  V30 19991 C 1297.25 0.447224 -8.1878 0
M  V30 19992 O 1296.86 -0.825065 -8.71101 0
M  V30 19993 C 1296.37 0.783801 -6.99623 0
M  V30 19994 C 1297.08 0.0619192 -5.85967 0
M  V30 19995 N 1297.03 0.7859 -4.56281 0
M  V30 19996 H 1299.87 1.93423 -8.4679 0
M  V30 19997 H 1300.14 1.68181 -6.71046 0
M  V30 19998 H 1299.28 -0.289041 -8.15388 0
M  V30 19999 P 1295.31 -1.17771 -8.83182 0
M  V30 20000 O 1295.09 -2.07206 -9.98732 0
M  V30 20001 O 1294.52 0.0743816 -8.81969 0
M  V30 20002 O 1295.06 -1.97652 -7.47304 0
M  V30 20003 C 1296 -3.01133 -7.08783 0
M  V30 20004 C 1295.27 -4.12613 -6.37049 0
M  V30 20005 O 1295.06 -3.72827 -4.97879 0
M  V30 20006 C 1293.87 -4.45085 -6.88694 0
M  V30 20007 O 1293.48 -5.7877 -6.5624 0
M  V30 20008 C 1292.99 -3.47817 -6.12078 0
M  V30 20009 C 1293.7 -3.39414 -4.77697 0
M  V30 20010 N 1293.65 -2.04615 -4.15333 0
M  V30 20011 H 1296.49 -3.41248 -7.98759 0
M  V30 20012 H 1296.76 -2.5837 -6.41742 0
M  V30 20013 H 1295.9 -5.02657 -6.42673 0
M  V30 20014 P 1291.93 -6.144 -6.45285 0
M  V30 20015 O 1291.71 -7.54673 -6.86199 0
M  V30 20016 O 1291.14 -5.12391 -7.179 0
M  V30 20017 O 1291.68 -5.99158 -4.88404 0
M  V30 20018 C 1292.62 -6.60234 -3.96415 0
M  V30 20019 C 1291.89 -7.08259 -2.72856 0
M  V30 20020 O 1291.68 -5.9427 -1.83651 0
M  V30 20021 C 1290.49 -7.64886 -2.9555 0
M  V30 20022 O 1290.1 -8.53963 -1.90717 0
M  V30 20023 C 1289.61 -6.4116 -2.90739 0
M  V30 20024 C 1290.32 -5.55375 -1.86963 0
M  V30 20025 N 1290.27 -4.09664 -2.15742 0
M  V30 20026 H 1293.11 -7.45574 -4.45629 0
M  V30 20027 H 1293.38 -5.86232 -3.67314 0
M  V30 20028 H 1292.52 -7.84412 -2.24479 0
M  V30 20029 P 1288.55 -8.7635 -1.60911 0
M  V30 20030 O 1288.33 -10.1388 -1.11561 0
M  V30 20031 O 1287.76 -8.36503 -2.79617 0
M  V30 20032 O 1288.3 -7.71806 -0.42951 0
M  V30 20033 C 1289.24 -7.67148 0.673689 0
M  V30 20034 C 1288.51 -7.33374 1.95559 0
M  V30 20035 O 1288.3 -5.88721 2.00726 0
M  V30 20036 C 1287.11 -7.92526 2.10483 0
M  V30 20037 O 1286.72 -8.02971 3.47653 0
M  V30 20038 C 1286.23 -6.89602 1.41652 0
M  V30 20039 C 1286.94 -5.59201 1.75185 0
M  V30 20040 N 1286.89 -4.58235 0.662552 0
M  V30 20041 H 1289.73 -8.65116 0.777161 0
M  V30 20042 H 1290 -6.90173 0.474152 0
M  V30 20043 H 1289.14 -7.66548 2.79458 0
M  V30 20044 P 1285.17 -8.03563 3.84925 0
M  V30 20045 O 1284.95 -8.85821 5.0569 0
M  V30 20046 O 1284.38 -8.41101 2.65469 0
M  V30 20047 O 1284.92 -6.4965 4.18908 0
M  V30 20048 C 1285.86 -5.81037 5.05421 0
M  V30 20049 C 1285.13 -4.78366 5.89277 0
M  V30 20050 O 1284.92 -3.58302 5.08433 0
M  V30 20051 C 1283.73 -5.17448 6.36119 0
M  V30 20052 O 1283.34 -4.45271 7.53232 0
M  V30 20053 C 1282.85 -4.74639 5.19936 0
M  V30 20054 C 1283.56 -3.49432 4.70418 0
M  V30 20055 N 1283.51 -3.31776 3.22945 0
M  V30 20056 H 1286.35 -6.54213 5.71376 0
M  V30 20057 H 1286.62 -5.30492 4.44033 0
M  V30 20058 H 1285.76 -4.55889 6.76652 0
M  V30 20059 P 1281.79 -4.23843 7.83734 0
M  V30 20060 O 1281.57 -4.19407 9.29784 0
M  V30 20061 O 1281 -5.24426 7.09156 0
M  V30 20062 O 1281.54 -2.7935 7.20758 0
M  V30 20063 C 1282.48 -1.72945 7.50224 0
M  V30 20064 C 1281.75 -0.406376 7.57911 0
M  V30 20065 O 1281.54 0.0897726 6.21935 0
M  V30 20066 C 1280.35 -0.438983 8.18724 0
M  V30 20067 O 1279.96 0.825065 8.71101 0
M  V30 20068 C 1279.47 -0.783689 6.99524 0
M  V30 20069 C 1280.18 -0.0619086 5.85867 0
M  V30 20070 N 1280.13 -0.78573 4.56183 0
M  V30 20071 C 1279.98 -0.0292889 3.41887 0
M  V30 20072 O 1279.89 1.18445 3.4419 0
M  V30 20073 N 1279.94 -0.744061 2.23964 0
M  V30 20074 C 1280.03 -2.10932 2.10362 0
M  V30 20075 O 1279.98 -2.64117 0.98825 0
M  V30 20076 C 1280.18 -2.8202 3.34994 0
M  V30 20077 C 1280.29 -4.31095 3.25037 0
M  V30 20078 C 1280.23 -2.15547 4.52261 0
M  V30 20079 H 1282.97 -1.93379 8.46595 0
M  V30 20080 H 1283.24 -1.68132 6.70852 0
M  V30 20081 H 1282.38 0.289041 8.15388 0
M  V30 20082 H 1279.72 0.926847 5.72749 0
M  V30 20083 H 1279.44 -1.86973 6.82036 0
M  V30 20084 H 1278.45 -0.403896 7.13257 0
M  V30 20085 H 1280.28 -1.20585 8.97435 0
M  V30 20086 H 1280.35 -2.71231 5.45042 0
M  V30 20087 H 1279.32 -4.76966 3.49992 0
M  V30 20088 H 1281.06 -4.67047 3.95024 0
M  V30 20089 H 1280.57 -4.58996 2.22312 0
M  V30 20090 H 1279.84 -0.214893 1.39758 0
M  V30 20091 P 1278.41 1.17771 8.83182 0
M  V30 20092 O 1278.19 2.07206 9.98732 0
M  V30 20093 O 1277.62 -0.0743816 8.81969 0
M  V30 20094 O 1278.16 1.97652 7.47304 0
M  V30 20095 C 1279.1 3.01133 7.08783 0
M  V30 20096 C 1278.37 4.12613 6.37049 0
M  V30 20097 O 1278.16 3.72827 4.97879 0
M  V30 20098 C 1276.97 4.45085 6.88694 0
M  V30 20099 O 1276.58 5.7877 6.5624 0
M  V30 20100 C 1276.09 3.47817 6.12078 0
M  V30 20101 C 1276.8 3.39414 4.77697 0
M  V30 20102 N 1276.75 2.04199 4.15538 0
M  V30 20103 H 1279.59 3.41248 7.98759 0
M  V30 20104 H 1279.86 2.57728 6.42 0
M  V30 20105 H 1279 5.02657 6.42673 0
M  V30 20106 H 1276.34 4.11708 4.08956 0
M  V30 20107 H 1276.06 2.49626 6.61679 0
M  V30 20108 H 1275.07 3.8662 6.00862 0
M  V30 20109 H 1276.9 4.29991 7.97006 0
M  V30 20110 P 1275.03 6.144 6.45285 0
M  V30 20111 O 1274.81 7.54673 6.86199 0
M  V30 20112 O 1274.24 5.12391 7.179 0
M  V30 20113 O 1274.78 5.99158 4.88404 0
M  V30 20114 C 1275.72 6.60234 3.96415 0
M  V30 20115 C 1274.99 7.08259 2.72856 0
M  V30 20116 O 1274.78 5.9427 1.83651 0
M  V30 20117 C 1273.59 7.64886 2.9555 0
M  V30 20118 O 1273.2 8.53963 1.90717 0
M  V30 20119 C 1272.71 6.4116 2.90739 0
M  V30 20120 C 1273.42 5.55375 1.86963 0
M  V30 20121 N 1273.37 4.09664 2.15742 0
M  V30 20122 H 1276.21 7.45574 4.45629 0
M  V30 20123 H 1276.48 5.86232 3.67314 0
M  V30 20124 H 1275.62 7.84412 2.24479 0
M  V30 20125 P 1271.65 8.7635 1.60911 0
M  V30 20126 O 1271.43 10.1388 1.11561 0
M  V30 20127 O 1270.86 8.36503 2.79617 0
M  V30 20128 O 1271.4 7.71806 0.42951 0
M  V30 20129 C 1272.34 7.67148 -0.673689 0
M  V30 20130 C 1271.61 7.33374 -1.95559 0
M  V30 20131 O 1271.4 5.88721 -2.00726 0
M  V30 20132 C 1270.21 7.92526 -2.10483 0
M  V30 20133 O 1269.82 8.02971 -3.47653 0
M  V30 20134 C 1269.33 6.89602 -1.41652 0
M  V30 20135 C 1270.04 5.59201 -1.75185 0
M  V30 20136 N 1269.99 4.58301 -0.657969 0
M  V30 20137 H 1272.83 8.65116 -0.777161 0
M  V30 20138 H 1273.1 6.9022 -0.46725 0
M  V30 20139 H 1272.24 7.66548 -2.79458 0
M  V30 20140 H 1269.58 5.16165 -2.65183 0
M  V30 20141 H 1269.3 7.06433 -0.329384 0
M  V30 20142 H 1268.31 6.90926 -1.82021 0
M  V30 20143 H 1270.14 8.90873 -1.62657 0
M  V30 20144 P 1268.27 8.03563 -3.84925 0
M  V30 20145 O 1268.05 8.85821 -5.0569 0
M  V30 20146 O 1267.48 8.41101 -2.65469 0
M  V30 20147 O 1268.02 6.4965 -4.18908 0
M  V30 20148 C 1268.96 5.81037 -5.05421 0
M  V30 20149 C 1268.23 4.78366 -5.89277 0
M  V30 20150 O 1268.02 3.58302 -5.08433 0
M  V30 20151 C 1266.83 5.17448 -6.36119 0
M  V30 20152 O 1266.44 4.45271 -7.53232 0
M  V30 20153 C 1265.95 4.74639 -5.19936 0
M  V30 20154 C 1266.66 3.49432 -4.70418 0
M  V30 20155 N 1266.61 3.31776 -3.22945 0
M  V30 20156 H 1269.45 6.54213 -5.71376 0
M  V30 20157 H 1269.72 5.30492 -4.44033 0
M  V30 20158 H 1268.86 4.55889 -6.76652 0
M  V30 20159 P 1264.89 4.23843 -7.83734 0
M  V30 20160 O 1264.67 4.19407 -9.29784 0
M  V30 20161 O 1264.1 5.24426 -7.09156 0
M  V30 20162 O 1264.64 2.7935 -7.20758 0
M  V30 20163 C 1265.58 1.7299 -7.50419 0
M  V30 20164 C 1264.85 0.406376 -7.57911 0
M  V30 20165 O 1264.64 -0.0897726 -6.21935 0
M  V30 20166 C 1263.45 0.447224 -8.1878 0
M  V30 20167 O 1263.06 -0.825065 -8.71101 0
M  V30 20168 C 1262.57 0.783801 -6.99623 0
M  V30 20169 C 1263.28 0.0619192 -5.85967 0
M  V30 20170 N 1263.23 0.7859 -4.56281 0
M  V30 20171 H 1266.07 1.93423 -8.4679 0
M  V30 20172 H 1266.34 1.68181 -6.71046 0
M  V30 20173 H 1265.48 -0.289041 -8.15388 0
M  V30 20174 P 1261.51 -1.17771 -8.83182 0
M  V30 20175 O 1261.29 -2.07206 -9.98732 0
M  V30 20176 O 1260.72 0.0743816 -8.81969 0
M  V30 20177 O 1261.26 -1.97652 -7.47304 0
M  V30 20178 C 1262.2 -3.01133 -7.08783 0
M  V30 20179 C 1261.47 -4.12613 -6.37049 0
M  V30 20180 O 1261.26 -3.72827 -4.97879 0
M  V30 20181 C 1260.07 -4.45085 -6.88694 0
M  V30 20182 O 1259.68 -5.7877 -6.5624 0
M  V30 20183 C 1259.19 -3.47817 -6.12078 0
M  V30 20184 C 1259.9 -3.39414 -4.77697 0
M  V30 20185 N 1259.85 -2.04615 -4.15333 0
M  V30 20186 H 1262.69 -3.41248 -7.98759 0
M  V30 20187 H 1262.96 -2.5837 -6.41742 0
M  V30 20188 H 1262.1 -5.02657 -6.42673 0
M  V30 20189 P 1258.13 -6.144 -6.45285 0
M  V30 20190 O 1257.91 -7.54673 -6.86199 0
M  V30 20191 O 1257.34 -5.12391 -7.179 0
M  V30 20192 O 1257.88 -5.99158 -4.88404 0
M  V30 20193 C 1258.82 -6.60234 -3.96415 0
M  V30 20194 C 1258.09 -7.08259 -2.72856 0
M  V30 20195 O 1257.88 -5.9427 -1.83651 0
M  V30 20196 C 1256.69 -7.64886 -2.9555 0
M  V30 20197 O 1256.3 -8.53963 -1.90717 0
M  V30 20198 C 1255.81 -6.4116 -2.90739 0
M  V30 20199 C 1256.52 -5.55375 -1.86963 0
M  V30 20200 N 1256.47 -4.09448 -2.16152 0
M  V30 20201 C 1256.55 -3.46824 -3.37593 0
M  V30 20202 N 1256.48 -2.17422 -3.29777 0
M  V30 20203 C 1256.33 -1.93065 -1.94427 0
M  V30 20204 C 1256.2 -0.738053 -1.20141 0
M  V30 20205 N 1256.19 0.474256 -1.74676 0
M  V30 20206 N 1256.08 -0.850049 0.13045 0
M  V30 20207 C 1256.09 -2.06169 0.676992 0
M  V30 20208 N 1256.21 -3.23842 0.101312 0
M  V30 20209 C 1256.33 -3.09402 -1.23122 0
M  V30 20210 H 1259.31 -7.45574 -4.45629 0
M  V30 20211 H 1259.58 -5.85864 -3.679 0
M  V30 20212 H 1258.72 -7.84412 -2.24479 0
M  V30 20213 H 1256.06 -5.73457 -0.888562 0
M  V30 20214 H 1255.78 -5.90877 -3.88583 0
M  V30 20215 H 1254.79 -6.6596 -2.58858 0
M  V30 20216 H 1256.62 -8.16339 -3.92049 0
M  V30 20217 H 1256.66 -4.00505 -4.3174 0
M  V30 20218 H 1256.28 0.581337 -2.76658 0
M  V30 20219 H 1256.09 1.30811 -1.14888 0
M  V30 20220 H 1255.99 -2.08295 1.75542 0
M  V30 20221 P 1254.75 -8.7635 -1.60911 0
M  V30 20222 O 1254.53 -10.1388 -1.11561 0
M  V30 20223 O 1253.96 -8.36503 -2.79617 0
M  V30 20224 O 1254.5 -7.71806 -0.42951 0
M  V30 20225 C 1255.44 -7.67148 0.673689 0
M  V30 20226 C 1254.71 -7.33374 1.95559 0
M  V30 20227 O 1254.5 -5.88721 2.00726 0
M  V30 20228 C 1253.31 -7.92526 2.10483 0
M  V30 20229 O 1252.92 -8.02971 3.47653 0
M  V30 20230 C 1252.43 -6.89602 1.41652 0
M  V30 20231 C 1253.14 -5.59201 1.75185 0
M  V30 20232 N 1253.09 -4.58235 0.662552 0
M  V30 20233 H 1255.93 -8.65116 0.777161 0
M  V30 20234 H 1256.2 -6.90173 0.474152 0
M  V30 20235 H 1255.34 -7.66548 2.79458 0
M  V30 20236 P 1251.37 -8.03563 3.84925 0
M  V30 20237 O 1251.15 -8.85821 5.0569 0
M  V30 20238 O 1250.58 -8.41101 2.65469 0
M  V30 20239 O 1251.12 -6.4965 4.18908 0
M  V30 20240 C 1252.06 -5.81037 5.05421 0
M  V30 20241 C 1251.33 -4.78366 5.89277 0
M  V30 20242 O 1251.12 -3.58302 5.08433 0
M  V30 20243 C 1249.93 -5.17448 6.36119 0
M  V30 20244 O 1249.54 -4.45271 7.53232 0
M  V30 20245 C 1249.05 -4.74639 5.19936 0
M  V30 20246 C 1249.76 -3.49432 4.70418 0
M  V30 20247 N 1249.71 -3.31776 3.22945 0
M  V30 20248 H 1252.55 -6.54213 5.71376 0
M  V30 20249 H 1252.82 -5.30492 4.44033 0
M  V30 20250 H 1251.96 -4.55889 6.76652 0
M  V30 20251 P 1247.99 -4.23843 7.83734 0
M  V30 20252 O 1247.77 -4.19407 9.29784 0
M  V30 20253 O 1247.2 -5.24426 7.09156 0
M  V30 20254 O 1247.74 -2.7935 7.20758 0
M  V30 20255 C 1248.68 -1.7299 7.50419 0
M  V30 20256 C 1247.95 -0.406376 7.57911 0
M  V30 20257 O 1247.74 0.0897726 6.21935 0
M  V30 20258 C 1246.55 -0.447224 8.1878 0
M  V30 20259 O 1246.16 0.825065 8.71101 0
M  V30 20260 C 1245.67 -0.783801 6.99623 0
M  V30 20261 C 1246.38 -0.0619192 5.85967 0
M  V30 20262 N 1246.33 -0.7859 4.56281 0
M  V30 20263 H 1249.17 -1.93423 8.4679 0
M  V30 20264 H 1249.44 -1.68181 6.71046 0
M  V30 20265 H 1248.58 0.289041 8.15388 0
M  V30 20266 P 1244.61 1.17771 8.83182 0
M  V30 20267 O 1244.39 2.07206 9.98732 0
M  V30 20268 O 1243.82 -0.0743816 8.81969 0
M  V30 20269 O 1244.36 1.97652 7.47304 0
M  V30 20270 C 1245.3 3.01133 7.08783 0
M  V30 20271 C 1244.57 4.12613 6.37049 0
M  V30 20272 O 1244.36 3.72827 4.97879 0
M  V30 20273 C 1243.17 4.45085 6.88694 0
M  V30 20274 O 1242.78 5.7877 6.5624 0
M  V30 20275 C 1242.29 3.47817 6.12078 0
M  V30 20276 C 1243 3.39414 4.77697 0
M  V30 20277 N 1242.95 2.04615 4.15333 0
M  V30 20278 H 1245.79 3.41248 7.98759 0
M  V30 20279 H 1246.06 2.5837 6.41742 0
M  V30 20280 H 1245.2 5.02657 6.42673 0
M  V30 20281 P 1241.23 6.144 6.45285 0
M  V30 20282 O 1241.01 7.54673 6.86199 0
M  V30 20283 O 1240.44 5.12391 7.179 0
M  V30 20284 O 1240.98 5.99158 4.88404 0
M  V30 20285 C 1241.92 6.60234 3.96415 0
M  V30 20286 C 1241.19 7.08259 2.72856 0
M  V30 20287 O 1240.98 5.9427 1.83651 0
M  V30 20288 C 1239.79 7.64886 2.9555 0
M  V30 20289 O 1239.4 8.53963 1.90717 0
M  V30 20290 C 1238.91 6.4116 2.90739 0
M  V30 20291 C 1239.62 5.55375 1.86963 0
M  V30 20292 N 1239.57 4.09664 2.15742 0
M  V30 20293 H 1242.41 7.45574 4.45629 0
M  V30 20294 H 1242.68 5.86232 3.67314 0
M  V30 20295 H 1241.82 7.84412 2.24479 0
M  V30 20296 P 1237.85 8.7635 1.60911 0
M  V30 20297 O 1237.63 10.1388 1.11561 0
M  V30 20298 O 1237.06 8.36503 2.79617 0
M  V30 20299 O 1237.6 7.71806 0.42951 0
M  V30 20300 C 1238.54 7.67148 -0.673689 0
M  V30 20301 C 1237.81 7.33374 -1.95559 0
M  V30 20302 O 1237.6 5.88721 -2.00726 0
M  V30 20303 C 1236.41 7.92526 -2.10483 0
M  V30 20304 O 1236.02 8.02971 -3.47653 0
M  V30 20305 C 1235.53 6.89602 -1.41652 0
M  V30 20306 C 1236.24 5.59201 -1.75185 0
M  V30 20307 N 1236.19 4.58301 -0.657969 0
M  V30 20308 H 1239.03 8.65116 -0.777161 0
M  V30 20309 H 1239.3 6.9022 -0.46725 0
M  V30 20310 H 1238.44 7.66548 -2.79458 0
M  V30 20311 H 1235.78 5.16165 -2.65183 0
M  V30 20312 H 1235.5 7.06433 -0.329384 0
M  V30 20313 H 1234.51 6.90926 -1.82021 0
M  V30 20314 H 1236.34 8.90873 -1.62657 0
M  V30 20315 P 1234.47 8.03563 -3.84925 0
M  V30 20316 O 1234.25 8.85821 -5.0569 0
M  V30 20317 O 1233.68 8.41101 -2.65469 0
M  V30 20318 O 1234.22 6.4965 -4.18908 0
M  V30 20319 C 1235.16 5.81037 -5.05421 0
M  V30 20320 C 1234.43 4.78366 -5.89277 0
M  V30 20321 O 1234.22 3.58302 -5.08433 0
M  V30 20322 C 1233.03 5.17448 -6.36119 0
M  V30 20323 O 1232.64 4.45271 -7.53232 0
M  V30 20324 C 1232.15 4.74639 -5.19936 0
M  V30 20325 C 1232.86 3.49432 -4.70418 0
M  V30 20326 N 1232.81 3.32099 -3.22613 0
M  V30 20327 H 1235.65 6.54213 -5.71376 0
M  V30 20328 H 1235.92 5.30936 -4.43503 0
M  V30 20329 H 1235.06 4.55889 -6.76652 0
M  V30 20330 H 1232.4 2.61715 -5.17932 0
M  V30 20331 H 1232.12 5.52155 -4.41878 0
M  V30 20332 H 1231.13 4.51981 -5.53374 0
M  V30 20333 H 1232.96 6.25124 -6.55234 0
M  V30 20334 P 1231.09 4.23843 -7.83734 0
M  V30 20335 O 1230.87 4.19407 -9.29784 0
M  V30 20336 O 1230.3 5.24426 -7.09156 0
M  V30 20337 O 1230.84 2.7935 -7.20758 0
M  V30 20338 C 1231.78 1.7299 -7.50419 0
M  V30 20339 C 1231.05 0.406376 -7.57911 0
M  V30 20340 O 1230.84 -0.0897726 -6.21935 0
M  V30 20341 C 1229.65 0.447224 -8.1878 0
M  V30 20342 O 1229.26 -0.825065 -8.71101 0
M  V30 20343 C 1228.77 0.783801 -6.99623 0
M  V30 20344 C 1229.48 0.0619192 -5.85967 0
M  V30 20345 N 1229.43 0.7859 -4.56281 0
M  V30 20346 H 1232.27 1.93423 -8.4679 0
M  V30 20347 H 1232.54 1.68181 -6.71046 0
M  V30 20348 H 1231.68 -0.289041 -8.15388 0
M  V30 20349 P 1227.71 -1.17771 -8.83182 0
M  V30 20350 O 1227.49 -2.07206 -9.98732 0
M  V30 20351 O 1226.92 0.0743816 -8.81969 0
M  V30 20352 O 1227.46 -1.97652 -7.47304 0
M  V30 20353 C 1228.4 -3.01133 -7.08783 0
M  V30 20354 C 1227.67 -4.12613 -6.37049 0
M  V30 20355 O 1227.46 -3.72827 -4.97879 0
M  V30 20356 C 1226.27 -4.45085 -6.88694 0
M  V30 20357 O 1225.88 -5.7877 -6.5624 0
M  V30 20358 C 1225.39 -3.47817 -6.12078 0
M  V30 20359 C 1226.1 -3.39414 -4.77697 0
M  V30 20360 N 1226.05 -2.04199 -4.15538 0
M  V30 20361 H 1228.89 -3.41248 -7.98759 0
M  V30 20362 H 1229.16 -2.57728 -6.42 0
M  V30 20363 H 1228.3 -5.02657 -6.42673 0
M  V30 20364 H 1225.64 -4.11708 -4.08956 0
M  V30 20365 H 1225.36 -2.49626 -6.61679 0
M  V30 20366 H 1224.37 -3.8662 -6.00862 0
M  V30 20367 H 1226.2 -4.29991 -7.97006 0
M  V30 20368 P 1224.33 -6.144 -6.45285 0
M  V30 20369 O 1224.11 -7.54673 -6.86199 0
M  V30 20370 O 1223.54 -5.12391 -7.179 0
M  V30 20371 O 1224.08 -5.99158 -4.88404 0
M  V30 20372 C 1225.02 -6.60234 -3.96415 0
M  V30 20373 C 1224.29 -7.08259 -2.72856 0
M  V30 20374 O 1224.08 -5.9427 -1.83651 0
M  V30 20375 C 1222.89 -7.64886 -2.9555 0
M  V30 20376 O 1222.5 -8.53963 -1.90717 0
M  V30 20377 C 1222.01 -6.4116 -2.90739 0
M  V30 20378 C 1222.72 -5.55375 -1.86963 0
M  V30 20379 N 1222.67 -4.09448 -2.16152 0
M  V30 20380 H 1225.51 -7.45574 -4.45629 0
M  V30 20381 H 1225.78 -5.85864 -3.679 0
M  V30 20382 H 1224.92 -7.84412 -2.24479 0
M  V30 20383 H 1222.26 -5.73457 -0.888562 0
M  V30 20384 H 1221.98 -5.90877 -3.88583 0
M  V30 20385 H 1220.99 -6.6596 -2.58858 0
M  V30 20386 H 1222.82 -8.16339 -3.92049 0
M  V30 20387 P 1220.95 -8.7635 -1.60911 0
M  V30 20388 O 1220.73 -10.1388 -1.11561 0
M  V30 20389 O 1220.16 -8.36503 -2.79617 0
M  V30 20390 O 1220.7 -7.71806 -0.42951 0
M  V30 20391 C 1221.64 -7.67148 0.673689 0
M  V30 20392 C 1220.91 -7.33374 1.95559 0
M  V30 20393 O 1220.7 -5.88721 2.00726 0
M  V30 20394 C 1219.51 -7.92526 2.10483 0
M  V30 20395 O 1219.12 -8.02971 3.47653 0
M  V30 20396 C 1218.63 -6.89602 1.41652 0
M  V30 20397 C 1219.34 -5.59201 1.75185 0
M  V30 20398 N 1219.29 -4.58301 0.657969 0
M  V30 20399 H 1222.13 -8.65116 0.777161 0
M  V30 20400 H 1222.4 -6.9022 0.46725 0
M  V30 20401 H 1221.54 -7.66548 2.79458 0
M  V30 20402 H 1218.88 -5.16165 2.65183 0
M  V30 20403 H 1218.6 -7.06433 0.329384 0
M  V30 20404 H 1217.61 -6.90926 1.82021 0
M  V30 20405 H 1219.44 -8.90873 1.62657 0
M  V30 20406 P 1217.57 -8.03563 3.84925 0
M  V30 20407 O 1217.35 -8.85821 5.0569 0
M  V30 20408 O 1216.78 -8.41101 2.65469 0
M  V30 20409 O 1217.32 -6.49734 4.18962 0
M  V30 20410 C 1218.26 -5.81037 5.05421 0
M  V30 20411 C 1217.53 -4.79018 5.88876 0
M  V30 20412 O 1217.32 -3.58359 5.08515 0
M  V30 20413 C 1216.13 -5.17448 6.36119 0
M  V30 20414 O 1215.74 -4.45322 7.53318 0
M  V30 20415 C 1215.25 -4.74639 5.19936 0
M  V30 20416 C 1215.96 -3.49432 4.70418 0
M  V30 20417 N 1215.91 -3.31776 3.22945 0
M  V30 20418 C 1215.76 -2.02742 2.72939 0
M  V30 20419 O 1215.67 -1.08301 3.52749 0
M  V30 20420 N 1215.71 -1.96117 1.22063 0
M  V30 20421 C 1215.81 -2.8878 0.551566 0
M  V30 20422 N 1215.76 -2.65609 -0.750198 0
M  V30 20423 C 1215.96 -4.22457 1.03707 0
M  V30 20424 C 1216.01 -4.37979 2.39113 0
M  V30 20425 H 1218.75 -6.54138 5.7131 0
M  V30 20426 H 1219.02 -5.30492 4.44033 0
M  V30 20427 H 1218.16 -4.55945 6.76735 0
M  V30 20428 H 1215.5 -2.6176 5.18021 0
M  V30 20429 H 1215.22 -5.52233 4.41941 0
M  V30 20430 H 1214.23 -4.52045 5.53452 0
M  V30 20431 H 1216.06 -6.25124 6.55234 0
M  V30 20432 H 1216.14 -5.37936 2.80552 0
M  V30 20433 H 1216.03 -5.07528 0.359553 0
M  V30 20434 H 1215.65 -1.69403 -1.09847 0
M  V30 20435 H 1215.84 -3.43701 -1.41792 0
M  V30 20436 P 1214.19 -4.23843 7.83734 0
M  V30 20437 O 1213.97 -4.19407 9.29784 0
M  V30 20438 O 1213.4 -5.24426 7.09156 0
M  V30 20439 O 1213.94 -2.7935 7.20758 0
M  V30 20440 C 1214.88 -1.7299 7.50419 0
M  V30 20441 C 1214.15 -0.406376 7.57911 0
M  V30 20442 O 1213.94 0.0897726 6.21935 0
M  V30 20443 C 1212.75 -0.447224 8.1878 0
M  V30 20444 O 1212.36 0.825065 8.71101 0
M  V30 20445 C 1211.87 -0.783801 6.99623 0
M  V30 20446 C 1212.58 -0.0619192 5.85967 0
M  V30 20447 N 1212.53 -0.790462 4.56202 0
M  V30 20448 H 1215.37 -1.93423 8.4679 0
M  V30 20449 H 1215.64 -1.68852 6.70877 0
M  V30 20450 H 1214.78 0.289041 8.15388 0
M  V30 20451 H 1212.12 0.927006 5.72848 0
M  V30 20452 H 1211.84 -1.86973 6.82036 0
M  V30 20453 H 1210.85 -0.403953 7.13357 0
M  V30 20454 H 1212.68 -1.20599 8.97534 0
M  V30 20455 P 1210.81 1.17771 8.83182 0
M  V30 20456 O 1210.59 2.07206 9.98732 0
M  V30 20457 O 1210.02 -0.0743816 8.81969 0
M  V30 20458 O 1210.56 1.97652 7.47304 0
M  V30 20459 C 1211.5 3.01133 7.08783 0
M  V30 20460 C 1210.77 4.12613 6.37049 0
M  V30 20461 O 1210.56 3.72827 4.97879 0
M  V30 20462 C 1209.37 4.45085 6.88694 0
M  V30 20463 O 1208.98 5.7877 6.5624 0
M  V30 20464 C 1208.49 3.47817 6.12078 0
M  V30 20465 C 1209.2 3.39414 4.77697 0
M  V30 20466 N 1209.15 2.04199 4.15538 0
M  V30 20467 C 1209.23 0.821545 4.76977 0
M  V30 20468 N 1209.16 -0.1794 3.94592 0
M  V30 20469 C 1209.01 0.419121 2.70776 0
M  V30 20470 C 1208.88 -0.109072 1.40577 0
M  V30 20471 N 1208.87 -1.4104 1.1344 0
M  V30 20472 N 1208.76 0.764381 0.39411 0
M  V30 20473 C 1208.77 2.06587 0.664135 0
M  V30 20474 N 1208.89 2.67948 1.82153 0
M  V30 20475 C 1209.01 1.77942 2.8147 0
M  V30 20476 H 1211.99 3.41248 7.98759 0
M  V30 20477 H 1212.26 2.57728 6.42 0
M  V30 20478 H 1211.4 5.02657 6.42673 0
M  V30 20479 H 1208.74 4.11708 4.08956 0
M  V30 20480 H 1208.46 2.49626 6.61679 0
M  V30 20481 H 1207.47 3.8662 6.00862 0
M  V30 20482 H 1209.3 4.29991 7.97006 0
M  V30 20483 H 1209.34 0.702451 5.84696 0
M  V30 20484 H 1208.96 -2.09647 1.89651 0
M  V30 20485 H 1208.77 -1.73358 0.160575 0
M  V30 20486 H 1208.67 2.71695 -0.195838 0
M  V30 20487 P 1207.43 6.144 6.45285 0
M  V30 20488 O 1207.21 7.54673 6.86199 0
M  V30 20489 O 1206.64 5.12391 7.179 0
M  V30 20490 O 1207.18 5.99158 4.88404 0
M  V30 20491 C 1208.12 6.60234 3.96415 0
M  V30 20492 C 1207.39 7.08259 2.72856 0
M  V30 20493 O 1207.18 5.9427 1.83651 0
M  V30 20494 C 1205.99 7.64886 2.9555 0
M  V30 20495 O 1205.6 8.53963 1.90717 0
M  V30 20496 C 1205.11 6.4116 2.90739 0
M  V30 20497 C 1205.82 5.55375 1.86963 0
M  V30 20498 N 1205.77 4.09664 2.15742 0
M  V30 20499 H 1208.61 7.45574 4.45629 0
M  V30 20500 H 1208.88 5.86232 3.67314 0
M  V30 20501 H 1208.02 7.84412 2.24479 0
M  V30 20502 P 1204.05 8.7635 1.60911 0
M  V30 20503 O 1203.83 10.1388 1.11561 0
M  V30 20504 O 1203.26 8.36503 2.79617 0
M  V30 20505 O 1203.8 7.71806 0.42951 0
M  V30 20506 C 1204.74 7.67148 -0.673689 0
M  V30 20507 C 1204.01 7.33374 -1.95559 0
M  V30 20508 O 1203.8 5.88721 -2.00726 0
M  V30 20509 C 1202.61 7.92526 -2.10483 0
M  V30 20510 O 1202.22 8.02971 -3.47653 0
M  V30 20511 C 1201.73 6.89602 -1.41652 0
M  V30 20512 C 1202.44 5.59201 -1.75185 0
M  V30 20513 N 1202.39 4.58235 -0.662552 0
M  V30 20514 H 1205.23 8.65116 -0.777161 0
M  V30 20515 H 1205.5 6.90173 -0.474152 0
M  V30 20516 H 1204.64 7.66548 -2.79458 0
M  V30 20517 P 1200.67 8.03563 -3.84925 0
M  V30 20518 O 1200.45 8.85821 -5.0569 0
M  V30 20519 O 1199.88 8.41101 -2.65469 0
M  V30 20520 O 1200.42 6.4965 -4.18908 0
M  V30 20521 C 1201.36 5.81037 -5.05421 0
M  V30 20522 C 1200.63 4.78366 -5.89277 0
M  V30 20523 O 1200.42 3.58302 -5.08433 0
M  V30 20524 C 1199.23 5.17448 -6.36119 0
M  V30 20525 O 1198.84 4.45271 -7.53232 0
M  V30 20526 C 1198.35 4.74639 -5.19936 0
M  V30 20527 C 1199.06 3.49432 -4.70418 0
M  V30 20528 N 1199.01 3.31776 -3.22945 0
M  V30 20529 H 1201.85 6.54213 -5.71376 0
M  V30 20530 H 1202.12 5.30492 -4.44033 0
M  V30 20531 H 1201.26 4.55889 -6.76652 0
M  V30 20532 P 1197.29 4.23843 -7.83734 0
M  V30 20533 O 1197.07 4.19407 -9.29784 0
M  V30 20534 O 1196.5 5.24426 -7.09156 0
M  V30 20535 O 1197.04 2.7935 -7.20758 0
M  V30 20536 C 1197.98 1.7299 -7.50419 0
M  V30 20537 C 1197.25 0.406376 -7.57911 0
M  V30 20538 O 1197.04 -0.0897726 -6.21935 0
M  V30 20539 C 1195.85 0.447224 -8.1878 0
M  V30 20540 O 1195.46 -0.825065 -8.71101 0
M  V30 20541 C 1194.97 0.783801 -6.99623 0
M  V30 20542 C 1195.68 0.0619192 -5.85967 0
M  V30 20543 N 1195.63 0.790462 -4.56202 0
M  V30 20544 H 1198.47 1.93423 -8.4679 0
M  V30 20545 H 1198.74 1.68852 -6.70877 0
M  V30 20546 H 1197.88 -0.289041 -8.15388 0
M  V30 20547 H 1195.22 -0.927006 -5.72848 0
M  V30 20548 H 1194.94 1.86973 -6.82036 0
M  V30 20549 H 1193.95 0.403953 -7.13357 0
M  V30 20550 H 1195.78 1.20599 -8.97534 0
M  V30 20551 P 1193.91 -1.17771 -8.83182 0
M  V30 20552 O 1193.69 -2.07206 -9.98732 0
M  V30 20553 O 1193.12 0.0743816 -8.81969 0
M  V30 20554 O 1193.66 -1.97652 -7.47304 0
M  V30 20555 C 1194.6 -3.01133 -7.08783 0
M  V30 20556 C 1193.87 -4.12613 -6.37049 0
M  V30 20557 O 1193.66 -3.72827 -4.97879 0
M  V30 20558 C 1192.47 -4.45085 -6.88694 0
M  V30 20559 O 1192.08 -5.7877 -6.5624 0
M  V30 20560 C 1191.59 -3.47817 -6.12078 0
M  V30 20561 C 1192.3 -3.39414 -4.77697 0
M  V30 20562 N 1192.25 -2.04615 -4.15333 0
M  V30 20563 H 1195.09 -3.41248 -7.98759 0
M  V30 20564 H 1195.36 -2.5837 -6.41742 0
M  V30 20565 H 1194.5 -5.02657 -6.42673 0
M  V30 20566 P 1190.53 -6.144 -6.45285 0
M  V30 20567 O 1190.31 -7.54673 -6.86199 0
M  V30 20568 O 1189.74 -5.12391 -7.179 0
M  V30 20569 O 1190.28 -5.99158 -4.88404 0
M  V30 20570 C 1191.22 -6.60234 -3.96415 0
M  V30 20571 C 1190.49 -7.08259 -2.72856 0
M  V30 20572 O 1190.28 -5.9427 -1.83651 0
M  V30 20573 C 1189.09 -7.64886 -2.9555 0
M  V30 20574 O 1188.7 -8.53963 -1.90717 0
M  V30 20575 C 1188.21 -6.4116 -2.90739 0
M  V30 20576 C 1188.92 -5.55375 -1.86963 0
M  V30 20577 N 1188.87 -4.09448 -2.16152 0
M  V30 20578 H 1191.71 -7.45574 -4.45629 0
M  V30 20579 H 1191.98 -5.85864 -3.679 0
M  V30 20580 H 1191.12 -7.84412 -2.24479 0
M  V30 20581 H 1188.46 -5.73457 -0.888562 0
M  V30 20582 H 1188.18 -5.90877 -3.88583 0
M  V30 20583 H 1187.19 -6.6596 -2.58858 0
M  V30 20584 H 1189.02 -8.16339 -3.92049 0
M  V30 20585 P 1187.15 -8.7635 -1.60911 0
M  V30 20586 O 1186.93 -10.1388 -1.11561 0
M  V30 20587 O 1186.36 -8.36503 -2.79617 0
M  V30 20588 O 1186.9 -7.71806 -0.42951 0
M  V30 20589 C 1187.84 -7.67148 0.673689 0
M  V30 20590 C 1187.11 -7.33374 1.95559 0
M  V30 20591 O 1186.9 -5.88721 2.00726 0
M  V30 20592 C 1185.71 -7.92526 2.10483 0
M  V30 20593 O 1185.32 -8.02971 3.47653 0
M  V30 20594 C 1184.83 -6.89602 1.41652 0
M  V30 20595 C 1185.54 -5.59201 1.75185 0
M  V30 20596 N 1185.49 -4.58301 0.657969 0
M  V30 20597 C 1185.57 -4.79019 -0.692603 0
M  V30 20598 N 1185.5 -3.69736 -1.38998 0
M  V30 20599 C 1185.35 -2.70474 -0.438135 0
M  V30 20600 C 1185.22 -1.30327 -0.538142 0
M  V30 20601 N 1185.21 -0.64304 -1.69192 0
M  V30 20602 N 1185.1 -0.611027 0.605183 0
M  V30 20603 C 1185.11 -1.27002 1.75953 0
M  V30 20604 N 1185.23 -2.56038 1.98546 0
M  V30 20605 C 1185.35 -3.22681 0.822541 0
M  V30 20606 H 1188.33 -8.65116 0.777161 0
M  V30 20607 H 1188.6 -6.9022 0.46725 0
M  V30 20608 H 1187.74 -7.66548 2.79458 0
M  V30 20609 H 1185.08 -5.16165 2.65183 0
M  V30 20610 H 1184.8 -7.06433 0.329384 0
M  V30 20611 H 1183.81 -6.90926 1.82021 0
M  V30 20612 H 1185.64 -8.90873 1.62657 0
M  V30 20613 H 1185.69 -5.77785 -1.13874 0
M  V30 20614 H 1185.3 -1.15585 -2.57991 0
M  V30 20615 H 1185.12 0.382989 -1.69835 0
M  V30 20616 H 1185.01 -0.653331 2.64449 0
M  V30 20617 P 1183.77 -8.03563 3.84925 0
M  V30 20618 O 1183.55 -8.85821 5.0569 0
M  V30 20619 O 1182.98 -8.41101 2.65469 0
M  V30 20620 O 1183.52 -6.4965 4.18908 0
M  V30 20621 C 1184.46 -5.81037 5.05421 0
M  V30 20622 C 1183.73 -4.78366 5.89277 0
M  V30 20623 O 1183.52 -3.58302 5.08433 0
M  V30 20624 C 1182.33 -5.17448 6.36119 0
M  V30 20625 O 1181.94 -4.45271 7.53232 0
M  V30 20626 C 1181.45 -4.74639 5.19936 0
M  V30 20627 C 1182.16 -3.49432 4.70418 0
M  V30 20628 N 1182.11 -3.31776 3.22945 0
M  V30 20629 H 1184.95 -6.54213 5.71376 0
M  V30 20630 H 1185.22 -5.30492 4.44033 0
M  V30 20631 H 1184.36 -4.55889 6.76652 0
M  V30 20632 P 1180.39 -4.23843 7.83734 0
M  V30 20633 O 1180.17 -4.19407 9.29784 0
M  V30 20634 O 1179.6 -5.24426 7.09156 0
M  V30 20635 O 1180.14 -2.7935 7.20758 0
M  V30 20636 C 1181.08 -1.7299 7.50419 0
M  V30 20637 C 1180.35 -0.406376 7.57911 0
M  V30 20638 O 1180.14 0.0897726 6.21935 0
M  V30 20639 C 1178.95 -0.447224 8.1878 0
M  V30 20640 O 1178.56 0.825065 8.71101 0
M  V30 20641 C 1178.07 -0.783801 6.99623 0
M  V30 20642 C 1178.78 -0.0619192 5.85967 0
M  V30 20643 N 1178.73 -0.7859 4.56281 0
M  V30 20644 H 1181.57 -1.93423 8.4679 0
M  V30 20645 H 1181.84 -1.68181 6.71046 0
M  V30 20646 H 1180.98 0.289041 8.15388 0
M  V30 20647 P 1177.01 1.17771 8.83182 0
M  V30 20648 O 1176.79 2.07206 9.98732 0
M  V30 20649 O 1176.22 -0.0743816 8.81969 0
M  V30 20650 O 1176.76 1.97652 7.47304 0
M  V30 20651 C 1177.7 3.01133 7.08783 0
M  V30 20652 C 1176.97 4.12613 6.37049 0
M  V30 20653 O 1176.76 3.72827 4.97879 0
M  V30 20654 C 1175.57 4.45085 6.88694 0
M  V30 20655 O 1175.18 5.7877 6.5624 0
M  V30 20656 C 1174.69 3.47817 6.12078 0
M  V30 20657 C 1175.4 3.39414 4.77697 0
M  V30 20658 N 1175.35 2.04615 4.15333 0
M  V30 20659 C 1175.43 0.803897 4.75249 0
M  V30 20660 N 1175.35 -0.197615 3.91502 0
M  V30 20661 C 1175.21 0.413002 2.66823 0
M  V30 20662 C 1175.08 -0.157221 1.38007 0
M  V30 20663 N 1174.96 0.833136 0.390236 0
M  V30 20664 C 1174.96 2.19402 0.623885 0
M  V30 20665 N 1174.83 2.97622 -0.449677 0
M  V30 20666 N 1175.09 2.73005 1.83601 0
M  V30 20667 C 1175.21 1.78786 2.80935 0
M  V30 20668 H 1178.19 3.41248 7.98759 0
M  V30 20669 H 1178.46 2.5837 6.41742 0
M  V30 20670 H 1177.6 5.02657 6.42673 0
M  V30 20671 P 1173.63 6.144 6.45285 0
M  V30 20672 O 1173.41 7.54673 6.86199 0
M  V30 20673 O 1172.84 5.12391 7.179 0
M  V30 20674 O 1173.38 5.99158 4.88404 0
M  V30 20675 C 1174.32 6.60234 3.96415 0
M  V30 20676 C 1173.59 7.08259 2.72856 0
M  V30 20677 O 1173.38 5.9427 1.83651 0
M  V30 20678 C 1172.19 7.64886 2.9555 0
M  V30 20679 O 1171.8 8.53963 1.90717 0
M  V30 20680 C 1171.31 6.4116 2.90739 0
M  V30 20681 C 1172.02 5.55375 1.86963 0
M  V30 20682 N 1171.97 4.09664 2.15742 0
M  V30 20683 H 1174.81 7.45574 4.45629 0
M  V30 20684 H 1175.08 5.86232 3.67314 0
M  V30 20685 H 1174.22 7.84412 2.24479 0
M  V30 20686 P 1170.25 8.7635 1.60911 0
M  V30 20687 O 1170.03 10.1388 1.11561 0
M  V30 20688 O 1169.46 8.36503 2.79617 0
M  V30 20689 O 1170 7.71806 0.42951 0
M  V30 20690 C 1170.94 7.67148 -0.673689 0
M  V30 20691 C 1170.21 7.33374 -1.95559 0
M  V30 20692 O 1170 5.88721 -2.00726 0
M  V30 20693 C 1168.81 7.92526 -2.10483 0
M  V30 20694 O 1168.42 8.02971 -3.47653 0
M  V30 20695 C 1167.93 6.89602 -1.41652 0
M  V30 20696 C 1168.64 5.59201 -1.75185 0
M  V30 20697 N 1168.59 4.58235 -0.662552 0
M  V30 20698 H 1171.43 8.65116 -0.777161 0
M  V30 20699 H 1171.7 6.90173 -0.474152 0
M  V30 20700 H 1170.84 7.66548 -2.79458 0
M  V30 20701 P 1166.87 8.03563 -3.84925 0
M  V30 20702 O 1166.65 8.85821 -5.0569 0
M  V30 20703 O 1166.08 8.41101 -2.65469 0
M  V30 20704 O 1166.62 6.4965 -4.18908 0
M  V30 20705 C 1167.56 5.81037 -5.05421 0
M  V30 20706 C 1166.83 4.78366 -5.89277 0
M  V30 20707 O 1166.62 3.58302 -5.08433 0
M  V30 20708 C 1165.43 5.17448 -6.36119 0
M  V30 20709 O 1165.04 4.45271 -7.53232 0
M  V30 20710 C 1164.55 4.74639 -5.19936 0
M  V30 20711 C 1165.26 3.49432 -4.70418 0
M  V30 20712 N 1165.21 3.31776 -3.22945 0
M  V30 20713 H 1168.05 6.54213 -5.71376 0
M  V30 20714 H 1168.32 5.30492 -4.44033 0
M  V30 20715 H 1167.46 4.55889 -6.76652 0
M  V30 20716 P 1163.49 4.23843 -7.83734 0
M  V30 20717 O 1163.27 4.19407 -9.29784 0
M  V30 20718 O 1162.7 5.24426 -7.09156 0
M  V30 20719 O 1163.24 2.7935 -7.20758 0
M  V30 20720 C 1164.18 1.72945 -7.50224 0
M  V30 20721 C 1163.45 0.406376 -7.57911 0
M  V30 20722 O 1163.24 -0.0897726 -6.21935 0
M  V30 20723 C 1162.05 0.438983 -8.18724 0
M  V30 20724 O 1161.66 -0.825065 -8.71101 0
M  V30 20725 C 1161.17 0.783689 -6.99524 0
M  V30 20726 C 1161.88 0.0619086 -5.85867 0
M  V30 20727 N 1161.83 0.78573 -4.56183 0
M  V30 20728 C 1161.68 0.0292889 -3.41887 0
M  V30 20729 O 1161.59 -1.18445 -3.4419 0
M  V30 20730 N 1161.64 0.744061 -2.23964 0
M  V30 20731 C 1161.73 2.10932 -2.10362 0
M  V30 20732 C 1161.88 2.8202 -3.34994 0
M  V30 20733 C 1161.93 2.15547 -4.52261 0
M  V30 20734 H 1164.67 1.93379 -8.46595 0
M  V30 20735 H 1164.94 1.68132 -6.70852 0
M  V30 20736 H 1164.08 -0.289041 -8.15388 0
M  V30 20737 H 1161.42 -0.926847 -5.72749 0
M  V30 20738 H 1161.14 1.86973 -6.82036 0
M  V30 20739 H 1160.15 0.403896 -7.13257 0
M  V30 20740 H 1161.98 1.20585 -8.97435 0
M  V30 20741 H 1162.06 2.71231 -5.45042 0
M  V30 20742 P 1160.11 -1.17771 -8.83182 0
M  V30 20743 O 1159.89 -2.07206 -9.98732 0
M  V30 20744 O 1159.32 0.0743816 -8.81969 0
M  V30 20745 O 1159.86 -1.97652 -7.47304 0
M  V30 20746 C 1160.8 -3.01133 -7.08783 0
M  V30 20747 C 1160.07 -4.12613 -6.37049 0
M  V30 20748 O 1159.86 -3.72827 -4.97879 0
M  V30 20749 C 1158.67 -4.45085 -6.88694 0
M  V30 20750 O 1158.28 -5.7877 -6.5624 0
M  V30 20751 C 1157.79 -3.47817 -6.12078 0
M  V30 20752 C 1158.5 -3.39414 -4.77697 0
M  V30 20753 N 1158.45 -2.04615 -4.15333 0
M  V30 20754 C 1158.53 -0.803897 -4.75249 0
M  V30 20755 N 1158.45 0.197615 -3.91502 0
M  V30 20756 C 1158.31 -0.413002 -2.66823 0
M  V30 20757 C 1158.18 0.157221 -1.38007 0
M  V30 20758 O 1158.16 1.34419 -1.057 0
M  V30 20759 N 1158.06 -0.833136 -0.390236 0
M  V30 20760 C 1158.06 -2.19402 -0.623885 0
M  V30 20761 N 1157.93 -2.97622 0.449677 0
M  V30 20762 N 1158.19 -2.73005 -1.83601 0
M  V30 20763 C 1158.31 -1.78786 -2.80935 0
M  V30 20764 H 1161.29 -3.41248 -7.98759 0
M  V30 20765 H 1161.56 -2.5837 -6.41742 0
M  V30 20766 H 1160.7 -5.02657 -6.42673 0
M  V30 20767 H 1158.04 -4.11779 -4.09026 0
M  V30 20768 H 1157.76 -2.49661 -6.61772 0
M  V30 20769 H 1156.77 -3.86674 -6.00946 0
M  V30 20770 H 1158.6 -4.30038 -7.97094 0
M  V30 20771 H 1158.65 -0.670579 -5.82754 0
M  V30 20772 H 1157.97 -0.528446 0.557287 0
M  V30 20773 H 1157.93 -4.00117 0.344773 0
M  V30 20774 H 1157.83 -2.55448 1.38544 0
M  V30 20775 P 1156.73 -6.144 -6.45285 0
M  V30 20776 O 1156.51 -7.54673 -6.86199 0
M  V30 20777 O 1155.94 -5.12391 -7.179 0
M  V30 20778 O 1156.48 -5.99158 -4.88404 0
M  V30 20779 C 1157.42 -6.60234 -3.96415 0
M  V30 20780 C 1156.69 -7.08259 -2.72856 0
M  V30 20781 O 1156.48 -5.9427 -1.83651 0
M  V30 20782 C 1155.29 -7.64886 -2.9555 0
M  V30 20783 O 1154.9 -8.53963 -1.90717 0
M  V30 20784 C 1154.41 -6.4116 -2.90739 0
M  V30 20785 C 1155.12 -5.55375 -1.86963 0
M  V30 20786 N 1155.07 -4.09448 -2.16152 0
M  V30 20787 H 1157.91 -7.45574 -4.45629 0
M  V30 20788 H 1158.18 -5.85864 -3.679 0
M  V30 20789 H 1157.32 -7.84412 -2.24479 0
M  V30 20790 H 1154.66 -5.73457 -0.888562 0
M  V30 20791 H 1154.38 -5.90877 -3.88583 0
M  V30 20792 H 1153.39 -6.6596 -2.58858 0
M  V30 20793 H 1155.22 -8.16339 -3.92049 0
M  V30 20794 P 1153.35 -8.7635 -1.60911 0
M  V30 20795 O 1153.13 -10.1388 -1.11561 0
M  V30 20796 O 1152.56 -8.36503 -2.79617 0
M  V30 20797 O 1153.1 -7.71906 -0.429565 0
M  V30 20798 C 1154.04 -7.67148 0.673689 0
M  V30 20799 C 1153.31 -7.33666 1.94851 0
M  V30 20800 O 1153.1 -5.88816 2.00759 0
M  V30 20801 C 1151.91 -7.92526 2.10483 0
M  V30 20802 O 1151.52 -8.03063 3.47693 0
M  V30 20803 C 1151.03 -6.89602 1.41652 0
M  V30 20804 C 1151.74 -5.59201 1.75185 0
M  V30 20805 N 1151.69 -4.58235 0.662552 0
M  V30 20806 C 1151.54 -3.24451 1.01643 0
M  V30 20807 O 1151.45 -2.94958 2.21722 0
M  V30 20808 N 1151.49 -2.30408 -0.165238 0
M  V30 20809 C 1151.59 -2.66048 -1.25118 0
M  V30 20810 N 1151.54 -1.70787 -2.16813 0
M  V30 20811 C 1151.74 -4.02732 -1.64413 0
M  V30 20812 C 1151.79 -4.9488 -0.63991 0
M  V30 20813 H 1154.53 -8.65017 0.777072 0
M  V30 20814 H 1154.8 -6.90173 0.474152 0
M  V30 20815 H 1153.94 -7.66642 2.79492 0
M  V30 20816 H 1151.28 -5.16254 2.65229 0
M  V30 20817 H 1151 -7.06532 0.329431 0
M  V30 20818 H 1150.01 -6.91023 1.82047 0
M  V30 20819 H 1151.84 -8.90873 1.62657 0
M  V30 20820 H 1151.92 -6.00104 -0.892197 0
M  V30 20821 H 1151.81 -4.31733 -2.69229 0
M  V30 20822 H 1151.43 -0.724835 -1.8844 0
M  V30 20823 H 1151.62 -1.94716 -3.16734 0
M  V30 20824 P 1149.97 -8.03563 3.84925 0
M  V30 20825 O 1149.75 -8.85821 5.0569 0
M  V30 20826 O 1149.18 -8.41101 2.65469 0
M  V30 20827 O 1149.72 -6.4965 4.18908 0
M  V30 20828 C 1150.66 -5.81037 5.05421 0
M  V30 20829 C 1149.93 -4.78366 5.89277 0
M  V30 20830 O 1149.72 -3.58302 5.08433 0
M  V30 20831 C 1148.53 -5.17448 6.36119 0
M  V30 20832 O 1148.14 -4.45271 7.53232 0
M  V30 20833 C 1147.65 -4.74639 5.19936 0
M  V30 20834 C 1148.36 -3.49432 4.70418 0
M  V30 20835 N 1148.31 -3.31776 3.22945 0
M  V30 20836 H 1151.15 -6.54213 5.71376 0
M  V30 20837 H 1151.42 -5.30492 4.44033 0
M  V30 20838 H 1150.56 -4.55889 6.76652 0
M  V30 20839 P 1146.59 -4.23843 7.83734 0
M  V30 20840 O 1146.37 -4.19407 9.29784 0
M  V30 20841 O 1145.8 -5.24426 7.09156 0
M  V30 20842 O 1146.34 -2.7935 7.20758 0
M  V30 20843 C 1147.28 -1.7299 7.50419 0
M  V30 20844 C 1146.55 -0.406376 7.57911 0
M  V30 20845 O 1146.34 0.0897726 6.21935 0
M  V30 20846 C 1145.15 -0.447224 8.1878 0
M  V30 20847 O 1144.76 0.825065 8.71101 0
M  V30 20848 C 1144.27 -0.783801 6.99623 0
M  V30 20849 C 1144.98 -0.0619192 5.85967 0
M  V30 20850 N 1144.93 -0.7859 4.56281 0
M  V30 20851 H 1147.77 -1.93423 8.4679 0
M  V30 20852 H 1148.04 -1.68181 6.71046 0
M  V30 20853 H 1147.18 0.289041 8.15388 0
M  V30 20854 P 1143.21 1.17771 8.83182 0
M  V30 20855 O 1142.99 2.07206 9.98732 0
M  V30 20856 O 1142.42 -0.0743816 8.81969 0
M  V30 20857 O 1142.96 1.97652 7.47304 0
M  V30 20858 C 1143.9 3.01133 7.08783 0
M  V30 20859 C 1143.17 4.12613 6.37049 0
M  V30 20860 O 1142.96 3.72827 4.97879 0
M  V30 20861 C 1141.77 4.45085 6.88694 0
M  V30 20862 O 1141.38 5.7877 6.5624 0
M  V30 20863 C 1140.89 3.47817 6.12078 0
M  V30 20864 C 1141.6 3.39414 4.77697 0
M  V30 20865 N 1141.55 2.04199 4.15538 0
M  V30 20866 H 1144.39 3.41248 7.98759 0
M  V30 20867 H 1144.66 2.57728 6.42 0
M  V30 20868 H 1143.8 5.02657 6.42673 0
M  V30 20869 H 1141.14 4.11708 4.08956 0
M  V30 20870 H 1140.86 2.49626 6.61679 0
M  V30 20871 H 1139.87 3.8662 6.00862 0
M  V30 20872 H 1141.7 4.29991 7.97006 0
M  V30 20873 P 1139.83 6.144 6.45285 0
M  V30 20874 O 1139.61 7.54673 6.86199 0
M  V30 20875 O 1139.04 5.12391 7.179 0
M  V30 20876 O 1139.58 5.99158 4.88404 0
M  V30 20877 C 1140.52 6.60234 3.96415 0
M  V30 20878 C 1139.79 7.08259 2.72856 0
M  V30 20879 O 1139.58 5.9427 1.83651 0
M  V30 20880 C 1138.39 7.64886 2.9555 0
M  V30 20881 O 1138 8.53963 1.90717 0
M  V30 20882 C 1137.51 6.4116 2.90739 0
M  V30 20883 C 1138.22 5.55375 1.86963 0
M  V30 20884 N 1138.17 4.09448 2.16152 0
M  V30 20885 H 1141.01 7.45574 4.45629 0
M  V30 20886 H 1141.28 5.85864 3.679 0
M  V30 20887 H 1140.42 7.84412 2.24479 0
M  V30 20888 H 1137.76 5.73457 0.888562 0
M  V30 20889 H 1137.48 5.90877 3.88583 0
M  V30 20890 H 1136.49 6.6596 2.58858 0
M  V30 20891 H 1138.32 8.16339 3.92049 0
M  V30 20892 P 1136.45 8.7635 1.60911 0
M  V30 20893 O 1136.23 10.1388 1.11561 0
M  V30 20894 O 1135.66 8.36503 2.79617 0
M  V30 20895 O 1136.2 7.71806 0.42951 0
M  V30 20896 C 1137.14 7.67148 -0.673689 0
M  V30 20897 C 1136.41 7.33374 -1.95559 0
M  V30 20898 O 1136.2 5.88721 -2.00726 0
M  V30 20899 C 1135.01 7.92526 -2.10483 0
M  V30 20900 O 1134.62 8.02971 -3.47653 0
M  V30 20901 C 1134.13 6.89602 -1.41652 0
M  V30 20902 C 1134.84 5.59201 -1.75185 0
M  V30 20903 N 1134.79 4.58235 -0.662552 0
M  V30 20904 H 1137.63 8.65116 -0.777161 0
M  V30 20905 H 1137.9 6.90173 -0.474152 0
M  V30 20906 H 1137.04 7.66548 -2.79458 0
M  V30 20907 P 1133.07 8.03563 -3.84925 0
M  V30 20908 O 1132.85 8.85821 -5.0569 0
M  V30 20909 O 1132.28 8.41101 -2.65469 0
M  V30 20910 O 1132.82 6.4965 -4.18908 0
M  V30 20911 C 1133.76 5.81037 -5.05421 0
M  V30 20912 C 1133.03 4.78366 -5.89277 0
M  V30 20913 O 1132.82 3.58302 -5.08433 0
M  V30 20914 C 1131.63 5.17448 -6.36119 0
M  V30 20915 O 1131.24 4.45271 -7.53232 0
M  V30 20916 C 1130.75 4.74639 -5.19936 0
M  V30 20917 C 1131.46 3.49432 -4.70418 0
M  V30 20918 N 1131.41 3.31776 -3.22945 0
M  V30 20919 H 1134.25 6.54213 -5.71376 0
M  V30 20920 H 1134.52 5.30492 -4.44033 0
M  V30 20921 H 1133.66 4.55889 -6.76652 0
M  V30 20922 P 1129.69 4.23843 -7.83734 0
M  V30 20923 O 1129.47 4.19407 -9.29784 0
M  V30 20924 O 1128.9 5.24426 -7.09156 0
M  V30 20925 O 1129.44 2.7935 -7.20758 0
M  V30 20926 C 1130.38 1.7299 -7.50419 0
M  V30 20927 C 1129.65 0.406376 -7.57911 0
M  V30 20928 O 1129.44 -0.0897726 -6.21935 0
M  V30 20929 C 1128.25 0.447224 -8.1878 0
M  V30 20930 O 1127.86 -0.825065 -8.71101 0
M  V30 20931 C 1127.37 0.783801 -6.99623 0
M  V30 20932 C 1128.08 0.0619192 -5.85967 0
M  V30 20933 N 1128.03 0.7859 -4.56281 0
M  V30 20934 H 1130.87 1.93423 -8.4679 0
M  V30 20935 H 1131.14 1.68181 -6.71046 0
M  V30 20936 H 1130.28 -0.289041 -8.15388 0
M  V30 20937 P 1126.31 -1.17771 -8.83182 0
M  V30 20938 O 1126.09 -2.07206 -9.98732 0
M  V30 20939 O 1125.52 0.0743816 -8.81969 0
M  V30 20940 O 1126.06 -1.97652 -7.47304 0
M  V30 20941 C 1127 -3.01133 -7.08783 0
M  V30 20942 C 1126.27 -4.12613 -6.37049 0
M  V30 20943 O 1126.06 -3.72827 -4.97879 0
M  V30 20944 C 1124.87 -4.45085 -6.88694 0
M  V30 20945 O 1124.48 -5.7877 -6.5624 0
M  V30 20946 C 1123.99 -3.47817 -6.12078 0
M  V30 20947 C 1124.7 -3.39414 -4.77697 0
M  V30 20948 N 1124.65 -2.04615 -4.15333 0
M  V30 20949 H 1127.49 -3.41248 -7.98759 0
M  V30 20950 H 1127.76 -2.5837 -6.41742 0
M  V30 20951 H 1126.9 -5.02657 -6.42673 0
M  V30 20952 P 1122.93 -6.144 -6.45285 0
M  V30 20953 O 1122.71 -7.54673 -6.86199 0
M  V30 20954 O 1122.14 -5.12391 -7.179 0
M  V30 20955 O 1122.68 -5.99158 -4.88404 0
M  V30 20956 C 1123.62 -6.60234 -3.96415 0
M  V30 20957 C 1122.89 -7.08259 -2.72856 0
M  V30 20958 O 1122.68 -5.9427 -1.83651 0
M  V30 20959 C 1121.49 -7.64886 -2.9555 0
M  V30 20960 O 1121.1 -8.53963 -1.90717 0
M  V30 20961 C 1120.61 -6.4116 -2.90739 0
M  V30 20962 C 1121.32 -5.55375 -1.86963 0
M  V30 20963 N 1121.27 -4.09448 -2.16152 0
M  V30 20964 H 1124.11 -7.45574 -4.45629 0
M  V30 20965 H 1124.38 -5.85864 -3.679 0
M  V30 20966 H 1123.52 -7.84412 -2.24479 0
M  V30 20967 H 1120.86 -5.73457 -0.888562 0
M  V30 20968 H 1120.58 -5.90877 -3.88583 0
M  V30 20969 H 1119.59 -6.6596 -2.58858 0
M  V30 20970 H 1121.42 -8.16339 -3.92049 0
M  V30 20971 P 1119.55 -8.7635 -1.60911 0
M  V30 20972 O 1119.33 -10.1388 -1.11561 0
M  V30 20973 O 1118.76 -8.36503 -2.79617 0
M  V30 20974 O 1119.3 -7.71806 -0.42951 0
M  V30 20975 C 1120.24 -7.67148 0.673689 0
M  V30 20976 C 1119.51 -7.33374 1.95559 0
M  V30 20977 O 1119.3 -5.88721 2.00726 0
M  V30 20978 C 1118.11 -7.92526 2.10483 0
M  V30 20979 O 1117.72 -8.02971 3.47653 0
M  V30 20980 C 1117.23 -6.89602 1.41652 0
M  V30 20981 C 1117.94 -5.59201 1.75185 0
M  V30 20982 N 1117.89 -4.58235 0.662552 0
M  V30 20983 H 1120.73 -8.65116 0.777161 0
M  V30 20984 H 1121 -6.90173 0.474152 0
M  V30 20985 H 1120.14 -7.66548 2.79458 0
M  V30 20986 P 1116.17 -8.03563 3.84925 0
M  V30 20987 O 1115.95 -8.85821 5.0569 0
M  V30 20988 O 1115.38 -8.41101 2.65469 0
M  V30 20989 O 1115.92 -6.4965 4.18908 0
M  V30 20990 C 1116.86 -5.81037 5.05421 0
M  V30 20991 C 1116.13 -4.78366 5.89277 0
M  V30 20992 O 1115.92 -3.58302 5.08433 0
M  V30 20993 C 1114.73 -5.17448 6.36119 0
M  V30 20994 O 1114.34 -4.45271 7.53232 0
M  V30 20995 C 1113.85 -4.74639 5.19936 0
M  V30 20996 C 1114.56 -3.49432 4.70418 0
M  V30 20997 N 1114.51 -3.31776 3.22945 0
M  V30 20998 H 1117.35 -6.54213 5.71376 0
M  V30 20999 H 1117.62 -5.30492 4.44033 0
M  V30 21000 H 1116.76 -4.55889 6.76652 0
M  V30 21001 P 1112.79 -4.23843 7.83734 0
M  V30 21002 O 1112.57 -4.19407 9.29784 0
M  V30 21003 O 1112 -5.24426 7.09156 0
M  V30 21004 O 1112.54 -2.7935 7.20758 0
M  V30 21005 C 1113.48 -1.7299 7.50419 0
M  V30 21006 C 1112.75 -0.406376 7.57911 0
M  V30 21007 O 1112.54 0.0897726 6.21935 0
M  V30 21008 C 1111.35 -0.447224 8.1878 0
M  V30 21009 O 1110.96 0.825065 8.71101 0
M  V30 21010 C 1110.47 -0.783801 6.99623 0
M  V30 21011 C 1111.18 -0.0619192 5.85967 0
M  V30 21012 N 1111.13 -0.7859 4.56281 0
M  V30 21013 H 1113.97 -1.93423 8.4679 0
M  V30 21014 H 1114.24 -1.68181 6.71046 0
M  V30 21015 H 1113.38 0.289041 8.15388 0
M  V30 21016 P 1109.41 1.17771 8.83182 0
M  V30 21017 O 1109.19 2.07206 9.98732 0
M  V30 21018 O 1108.62 -0.0743816 8.81969 0
M  V30 21019 O 1109.16 1.97652 7.47304 0
M  V30 21020 C 1110.1 3.01133 7.08783 0
M  V30 21021 C 1109.37 4.12613 6.37049 0
M  V30 21022 O 1109.16 3.72827 4.97879 0
M  V30 21023 C 1107.97 4.45085 6.88694 0
M  V30 21024 O 1107.58 5.7877 6.5624 0
M  V30 21025 C 1107.09 3.47817 6.12078 0
M  V30 21026 C 1107.8 3.39414 4.77697 0
M  V30 21027 N 1107.75 2.04199 4.15538 0
M  V30 21028 C 1107.83 0.821545 4.76977 0
M  V30 21029 N 1107.76 -0.1794 3.94592 0
M  V30 21030 C 1107.61 0.419121 2.70776 0
M  V30 21031 C 1107.48 -0.109072 1.40577 0
M  V30 21032 N 1107.47 -1.4104 1.1344 0
M  V30 21033 N 1107.36 0.764381 0.39411 0
M  V30 21034 C 1107.37 2.06587 0.664135 0
M  V30 21035 N 1107.49 2.67948 1.82153 0
M  V30 21036 C 1107.61 1.77942 2.8147 0
M  V30 21037 H 1110.59 3.41248 7.98759 0
M  V30 21038 H 1110.86 2.57728 6.42 0
M  V30 21039 H 1110 5.02657 6.42673 0
M  V30 21040 H 1107.34 4.11708 4.08956 0
M  V30 21041 H 1107.06 2.49626 6.61679 0
M  V30 21042 H 1106.07 3.8662 6.00862 0
M  V30 21043 H 1107.9 4.29991 7.97006 0
M  V30 21044 H 1107.95 0.702451 5.84696 0
M  V30 21045 H 1107.56 -2.09647 1.89651 0
M  V30 21046 H 1107.38 -1.73358 0.160575 0
M  V30 21047 H 1107.27 2.71695 -0.195838 0
M  V30 21048 P 1106.03 6.144 6.45285 0
M  V30 21049 O 1105.81 7.54673 6.86199 0
M  V30 21050 O 1105.24 5.12391 7.179 0
M  V30 21051 O 1105.78 5.99158 4.88404 0
M  V30 21052 C 1106.72 6.60062 3.96313 0
M  V30 21053 C 1105.99 7.08259 2.72856 0
M  V30 21054 O 1105.78 5.9427 1.83651 0
M  V30 21055 C 1104.59 7.65087 2.94749 0
M  V30 21056 O 1104.2 8.53963 1.90717 0
M  V30 21057 C 1103.71 6.41069 2.90698 0
M  V30 21058 C 1104.42 5.5528 1.86931 0
M  V30 21059 N 1104.37 4.09575 2.15696 0
M  V30 21060 C 1104.22 3.24249 1.08435 0
M  V30 21061 O 1104.13 3.63946 -0.0628747 0
M  V30 21062 N 1104.18 1.90009 1.39973 0
M  V30 21063 C 1104.27 1.34884 2.65614 0
M  V30 21064 O 1104.22 0.123716 2.81728 0
M  V30 21065 C 1104.42 2.3145 3.71736 0
M  V30 21066 C 1104.53 1.75913 5.10438 0
M  V30 21067 C 1104.47 3.63518 3.44754 0
M  V30 21068 H 1107.21 7.45402 4.45526 0
M  V30 21069 H 1107.48 5.86062 3.67208 0
M  V30 21070 H 1106.62 7.84412 2.24479 0
M  V30 21071 H 1103.96 5.73358 0.888409 0
M  V30 21072 H 1103.68 5.90877 3.88583 0
M  V30 21073 H 1102.69 6.65867 2.58821 0
M  V30 21074 H 1104.52 8.16248 3.92006 0
M  V30 21075 H 1104.6 4.34551 4.26383 0
M  V30 21076 H 1103.57 1.85471 5.61775 0
M  V30 21077 H 1105.3 2.31364 5.66257 0
M  V30 21078 H 1104.81 0.695936 5.05229 0
M  V30 21079 H 1104.08 1.26277 0.63625 0
M  V30 21080 P 1102.65 8.7635 1.60911 0
M  V30 21081 O 1102.43 10.1388 1.11561 0
M  V30 21082 O 1101.86 8.36503 2.79617 0
M  V30 21083 O 1102.4 7.71806 0.42951 0
M  V30 21084 C 1103.34 7.66948 -0.673514 0
M  V30 21085 C 1102.61 7.33374 -1.95559 0
M  V30 21086 O 1102.4 5.88721 -2.00726 0
M  V30 21087 C 1101.21 7.92218 -2.1125 0
M  V30 21088 O 1100.82 8.02971 -3.47653 0
M  V30 21089 C 1100.33 6.89504 -1.41631 0
M  V30 21090 C 1101.04 5.59106 -1.75155 0
M  V30 21091 N 1100.99 4.58136 -0.662409 0
M  V30 21092 C 1100.84 3.26059 -1.02863 0
M  V30 21093 O 1100.75 2.90743 -2.19009 0
M  V30 21094 N 1100.8 2.35995 0.0155585 0
M  V30 21095 C 1100.89 2.65248 1.35603 0
M  V30 21096 C 1101.04 4.05747 1.64698 0
M  V30 21097 C 1101.09 4.96734 0.652411 0
M  V30 21098 H 1103.83 8.64917 -0.776982 0
M  V30 21099 H 1104.1 6.89974 -0.474015 0
M  V30 21100 H 1103.24 7.66548 -2.79458 0
M  V30 21101 H 1100.58 5.16076 -2.65138 0
M  V30 21102 H 1100.3 7.06433 -0.329384 0
M  V30 21103 H 1099.31 6.90829 -1.81996 0
M  V30 21104 H 1101.14 8.90774 -1.62639 0
M  V30 21105 H 1101.22 6.02181 0.895285 0
M  V30 21106 P 1099.27 8.03563 -3.84925 0
M  V30 21107 O 1099.05 8.85821 -5.0569 0
M  V30 21108 O 1098.48 8.41101 -2.65469 0
M  V30 21109 O 1099.02 6.4965 -4.18908 0
M  V30 21110 C 1099.96 5.81037 -5.05421 0
M  V30 21111 C 1099.23 4.78366 -5.89277 0
M  V30 21112 O 1099.02 3.58302 -5.08433 0
M  V30 21113 C 1097.83 5.17448 -6.36119 0
M  V30 21114 O 1097.44 4.45271 -7.53232 0
M  V30 21115 C 1096.95 4.74639 -5.19936 0
M  V30 21116 C 1097.66 3.49432 -4.70418 0
M  V30 21117 N 1097.61 3.31776 -3.22945 0
M  V30 21118 C 1097.69 4.27147 -2.23315 0
M  V30 21119 N 1097.61 3.78447 -1.02186 0
M  V30 21120 C 1097.47 2.41001 -1.21732 0
M  V30 21121 C 1097.34 1.36111 -0.27694 0
M  V30 21122 N 1097.22 0.113683 -0.912949 0
M  V30 21123 C 1097.22 -0.0846396 -2.27943 0
M  V30 21124 N 1097.09 -1.34737 -2.6916 0
M  V30 21125 N 1097.35 0.902521 -3.16379 0
M  V30 21126 C 1097.47 2.11937 -2.56849 0
M  V30 21127 H 1100.45 6.54213 -5.71376 0
M  V30 21128 H 1100.72 5.30492 -4.44033 0
M  V30 21129 H 1099.86 4.55889 -6.76652 0
M  V30 21130 P 1095.89 4.23843 -7.83734 0
M  V30 21131 O 1095.67 4.19407 -9.29784 0
M  V30 21132 O 1095.1 5.24426 -7.09156 0
M  V30 21133 O 1095.64 2.7935 -7.20758 0
M  V30 21134 C 1096.58 1.7299 -7.50419 0
M  V30 21135 C 1095.85 0.406376 -7.57911 0
M  V30 21136 O 1095.64 -0.0897726 -6.21935 0
M  V30 21137 C 1094.45 0.447224 -8.1878 0
M  V30 21138 O 1094.06 -0.825065 -8.71101 0
M  V30 21139 C 1093.57 0.783801 -6.99623 0
M  V30 21140 C 1094.28 0.0619192 -5.85967 0
M  V30 21141 N 1094.23 0.790462 -4.56202 0
M  V30 21142 H 1097.07 1.93423 -8.4679 0
M  V30 21143 H 1097.34 1.68852 -6.70877 0
M  V30 21144 H 1096.48 -0.289041 -8.15388 0
M  V30 21145 H 1093.82 -0.927006 -5.72848 0
M  V30 21146 H 1093.54 1.86973 -6.82036 0
M  V30 21147 H 1092.55 0.403953 -7.13357 0
M  V30 21148 H 1094.38 1.20599 -8.97534 0
M  V30 21149 P 1092.51 -1.17771 -8.83182 0
M  V30 21150 O 1092.29 -2.07206 -9.98732 0
M  V30 21151 O 1091.72 0.0743816 -8.81969 0
M  V30 21152 O 1092.26 -1.97652 -7.47304 0
M  V30 21153 C 1093.2 -3.01133 -7.08783 0
M  V30 21154 C 1092.47 -4.12613 -6.37049 0
M  V30 21155 O 1092.26 -3.72827 -4.97879 0
M  V30 21156 C 1091.07 -4.45085 -6.88694 0
M  V30 21157 O 1090.68 -5.7877 -6.5624 0
M  V30 21158 C 1090.19 -3.47817 -6.12078 0
M  V30 21159 C 1090.9 -3.39414 -4.77697 0
M  V30 21160 N 1090.85 -2.04615 -4.15333 0
M  V30 21161 H 1093.69 -3.41248 -7.98759 0
M  V30 21162 H 1093.96 -2.5837 -6.41742 0
M  V30 21163 H 1093.1 -5.02657 -6.42673 0
M  V30 21164 P 1089.13 -6.144 -6.45285 0
M  V30 21165 O 1088.91 -7.54673 -6.86199 0
M  V30 21166 O 1088.34 -5.12391 -7.179 0
M  V30 21167 O 1088.88 -5.99158 -4.88404 0
M  V30 21168 C 1089.82 -6.60234 -3.96415 0
M  V30 21169 C 1089.09 -7.08259 -2.72856 0
M  V30 21170 O 1088.88 -5.9427 -1.83651 0
M  V30 21171 C 1087.69 -7.64886 -2.9555 0
M  V30 21172 O 1087.3 -8.53963 -1.90717 0
M  V30 21173 C 1086.81 -6.4116 -2.90739 0
M  V30 21174 C 1087.52 -5.55375 -1.86963 0
M  V30 21175 N 1087.47 -4.09448 -2.16152 0
M  V30 21176 H 1090.31 -7.45574 -4.45629 0
M  V30 21177 H 1090.58 -5.85864 -3.679 0
M  V30 21178 H 1089.72 -7.84412 -2.24479 0
M  V30 21179 H 1087.06 -5.73457 -0.888562 0
M  V30 21180 H 1086.78 -5.90877 -3.88583 0
M  V30 21181 H 1085.79 -6.6596 -2.58858 0
M  V30 21182 H 1087.62 -8.16339 -3.92049 0
M  V30 21183 P 1085.75 -8.7635 -1.60911 0
M  V30 21184 O 1085.53 -10.1388 -1.11561 0
M  V30 21185 O 1084.96 -8.36503 -2.79617 0
M  V30 21186 O 1085.5 -7.71806 -0.42951 0
M  V30 21187 C 1086.44 -7.67148 0.673689 0
M  V30 21188 C 1085.71 -7.33374 1.95559 0
M  V30 21189 O 1085.5 -5.88721 2.00726 0
M  V30 21190 C 1084.31 -7.92526 2.10483 0
M  V30 21191 O 1083.92 -8.02971 3.47653 0
M  V30 21192 C 1083.43 -6.89602 1.41652 0
M  V30 21193 C 1084.14 -5.59201 1.75185 0
M  V30 21194 N 1084.09 -4.58235 0.662552 0
M  V30 21195 H 1086.93 -8.65116 0.777161 0
M  V30 21196 H 1087.2 -6.90173 0.474152 0
M  V30 21197 H 1086.34 -7.66548 2.79458 0
M  V30 21198 P 1082.37 -8.03563 3.84925 0
M  V30 21199 O 1082.15 -8.85821 5.0569 0
M  V30 21200 O 1081.58 -8.41101 2.65469 0
M  V30 21201 O 1082.12 -6.4965 4.18908 0
M  V30 21202 C 1083.06 -5.81037 5.05421 0
M  V30 21203 C 1082.33 -4.78366 5.89277 0
M  V30 21204 O 1082.12 -3.58302 5.08433 0
M  V30 21205 C 1080.93 -5.17448 6.36119 0
M  V30 21206 O 1080.54 -4.45271 7.53232 0
M  V30 21207 C 1080.05 -4.74639 5.19936 0
M  V30 21208 C 1080.76 -3.49432 4.70418 0
M  V30 21209 N 1080.71 -3.31776 3.22945 0
M  V30 21210 H 1083.55 -6.54213 5.71376 0
M  V30 21211 H 1083.82 -5.30492 4.44033 0
M  V30 21212 H 1082.96 -4.55889 6.76652 0
M  V30 21213 P 1078.99 -4.23843 7.83734 0
M  V30 21214 O 1078.77 -4.19407 9.29784 0
M  V30 21215 O 1078.2 -5.24426 7.09156 0
M  V30 21216 O 1078.74 -2.7935 7.20758 0
M  V30 21217 C 1079.68 -1.7299 7.50419 0
M  V30 21218 C 1078.95 -0.406376 7.57911 0
M  V30 21219 O 1078.74 0.0897726 6.21935 0
M  V30 21220 C 1077.55 -0.447224 8.1878 0
M  V30 21221 O 1077.16 0.825065 8.71101 0
M  V30 21222 C 1076.67 -0.783801 6.99623 0
M  V30 21223 C 1077.38 -0.0619192 5.85967 0
M  V30 21224 N 1077.33 -0.790462 4.56202 0
M  V30 21225 H 1080.17 -1.93423 8.4679 0
M  V30 21226 H 1080.44 -1.68852 6.70877 0
M  V30 21227 H 1079.58 0.289041 8.15388 0
M  V30 21228 H 1076.92 0.927006 5.72848 0
M  V30 21229 H 1076.64 -1.86973 6.82036 0
M  V30 21230 H 1075.65 -0.403953 7.13357 0
M  V30 21231 H 1077.48 -1.20599 8.97534 0
M  V30 21232 P 1075.61 1.17771 8.83182 0
M  V30 21233 O 1075.39 2.07206 9.98732 0
M  V30 21234 O 1074.82 -0.0743816 8.81969 0
M  V30 21235 O 1075.36 1.97652 7.47304 0
M  V30 21236 C 1076.3 3.01133 7.08783 0
M  V30 21237 C 1075.57 4.12613 6.37049 0
M  V30 21238 O 1075.36 3.72827 4.97879 0
M  V30 21239 C 1074.17 4.45085 6.88694 0
M  V30 21240 O 1073.78 5.7877 6.5624 0
M  V30 21241 C 1073.29 3.47817 6.12078 0
M  V30 21242 C 1074 3.39414 4.77697 0
M  V30 21243 N 1073.95 2.04615 4.15333 0
M  V30 21244 H 1076.79 3.41248 7.98759 0
M  V30 21245 H 1077.06 2.5837 6.41742 0
M  V30 21246 H 1076.2 5.02657 6.42673 0
M  V30 21247 P 1072.23 6.144 6.45285 0
M  V30 21248 O 1072.01 7.54673 6.86199 0
M  V30 21249 O 1071.44 5.12391 7.179 0
M  V30 21250 O 1071.98 5.99158 4.88404 0
M  V30 21251 C 1072.92 6.60234 3.96415 0
M  V30 21252 C 1072.19 7.08259 2.72856 0
M  V30 21253 O 1071.98 5.9427 1.83651 0
M  V30 21254 C 1070.79 7.64886 2.9555 0
M  V30 21255 O 1070.4 8.53963 1.90717 0
M  V30 21256 C 1069.91 6.4116 2.90739 0
M  V30 21257 C 1070.62 5.55375 1.86963 0
M  V30 21258 N 1070.57 4.09664 2.15742 0
M  V30 21259 H 1073.41 7.45574 4.45629 0
M  V30 21260 H 1073.68 5.86232 3.67314 0
M  V30 21261 H 1072.82 7.84412 2.24479 0
M  V30 21262 P 1068.85 8.7635 1.60911 0
M  V30 21263 O 1068.63 10.1388 1.11561 0
M  V30 21264 O 1068.06 8.36503 2.79617 0
M  V30 21265 O 1068.6 7.71806 0.42951 0
M  V30 21266 C 1069.54 7.67148 -0.673689 0
M  V30 21267 C 1068.81 7.33374 -1.95559 0
M  V30 21268 O 1068.6 5.88721 -2.00726 0
M  V30 21269 C 1067.41 7.92526 -2.10483 0
M  V30 21270 O 1067.02 8.02971 -3.47653 0
M  V30 21271 C 1066.53 6.89602 -1.41652 0
M  V30 21272 C 1067.24 5.59201 -1.75185 0
M  V30 21273 N 1067.19 4.58235 -0.662552 0
M  V30 21274 H 1070.03 8.65116 -0.777161 0
M  V30 21275 H 1070.3 6.90173 -0.474152 0
M  V30 21276 H 1069.44 7.66548 -2.79458 0
M  V30 21277 P 1065.47 8.03563 -3.84925 0
M  V30 21278 O 1065.25 8.85821 -5.0569 0
M  V30 21279 O 1064.68 8.41101 -2.65469 0
M  V30 21280 O 1065.22 6.4965 -4.18908 0
M  V30 21281 C 1066.16 5.81037 -5.05421 0
M  V30 21282 C 1065.43 4.78366 -5.89277 0
M  V30 21283 O 1065.22 3.58302 -5.08433 0
M  V30 21284 C 1064.03 5.17448 -6.36119 0
M  V30 21285 O 1063.64 4.45271 -7.53232 0
M  V30 21286 C 1063.15 4.74639 -5.19936 0
M  V30 21287 C 1063.86 3.49432 -4.70418 0
M  V30 21288 N 1063.81 3.32099 -3.22613 0
M  V30 21289 C 1063.89 4.28245 -2.25527 0
M  V30 21290 N 1063.82 3.80823 -1.04874 0
M  V30 21291 C 1063.67 2.44571 -1.23535 0
M  V30 21292 C 1063.54 1.37068 -0.330675 0
M  V30 21293 N 1063.53 1.51472 0.990824 0
M  V30 21294 N 1063.42 0.138614 -0.848756 0
M  V30 21295 C 1063.43 -0.00675923 -2.16999 0
M  V30 21296 N 1063.55 0.904372 -3.11122 0
M  V30 21297 C 1063.67 2.12707 -2.56212 0
M  V30 21298 H 1066.65 6.54213 -5.71376 0
M  V30 21299 H 1066.92 5.30936 -4.43503 0
M  V30 21300 H 1066.06 4.55889 -6.76652 0
M  V30 21301 H 1063.4 2.61715 -5.17932 0
M  V30 21302 H 1063.12 5.52155 -4.41878 0
M  V30 21303 H 1062.13 4.51981 -5.53374 0
M  V30 21304 H 1063.96 6.25124 -6.55234 0
M  V30 21305 H 1064.01 5.34372 -2.47488 0
M  V30 21306 H 1063.62 2.45153 1.4078 0
M  V30 21307 H 1063.44 0.688422 1.59911 0
M  V30 21308 H 1063.33 -1.02584 -2.52346 0
M  V30 21309 P 1062.09 4.23843 -7.83734 0
M  V30 21310 O 1061.87 4.19407 -9.29784 0
M  V30 21311 O 1061.3 5.24426 -7.09156 0
M  V30 21312 O 1061.84 2.7935 -7.20758 0
M  V30 21313 C 1062.78 1.7299 -7.50419 0
M  V30 21314 C 1062.05 0.406376 -7.57911 0
M  V30 21315 O 1061.84 -0.0897726 -6.21935 0
M  V30 21316 C 1060.65 0.447224 -8.1878 0
M  V30 21317 O 1060.26 -0.825065 -8.71101 0
M  V30 21318 C 1059.77 0.783801 -6.99623 0
M  V30 21319 C 1060.48 0.0619192 -5.85967 0
M  V30 21320 N 1060.43 0.790462 -4.56202 0
M  V30 21321 C 1060.51 2.13895 -4.34171 0
M  V30 21322 N 1060.44 2.46449 -3.08687 0
M  V30 21323 C 1060.29 1.2525 -2.43697 0
M  V30 21324 C 1060.16 0.914535 -1.07318 0
M  V30 21325 N 1060.15 1.80782 -0.0887348 0
M  V30 21326 N 1060.04 -0.386745 -0.768133 0
M  V30 21327 C 1060.05 -1.28096 -1.75159 0
M  V30 21328 N 1060.17 -1.09708 -3.04861 0
M  V30 21329 C 1060.29 0.214857 -3.32306 0
M  V30 21330 H 1063.27 1.93423 -8.4679 0
M  V30 21331 H 1063.54 1.68852 -6.70877 0
M  V30 21332 H 1062.68 -0.289041 -8.15388 0
M  V30 21333 H 1060.02 -0.927006 -5.72848 0
M  V30 21334 H 1059.74 1.86973 -6.82036 0
M  V30 21335 H 1058.75 0.403953 -7.13357 0
M  V30 21336 H 1060.58 1.20599 -8.97534 0
M  V30 21337 H 1060.63 2.86846 -5.14318 0
M  V30 21338 H 1060.24 2.81082 -0.302037 0
M  V30 21339 H 1060.06 1.49688 0.889064 0
M  V30 21340 H 1059.95 -2.31317 -1.43855 0
M  V30 21341 P 1058.71 -1.17771 -8.83182 0
M  V30 21342 O 1058.49 -2.07206 -9.98732 0
M  V30 21343 O 1057.92 0.0743816 -8.81969 0
M  V30 21344 O 1058.46 -1.97652 -7.47304 0
M  V30 21345 C 1059.4 -3.01133 -7.08783 0
M  V30 21346 C 1058.67 -4.12613 -6.37049 0
M  V30 21347 O 1058.46 -3.72827 -4.97879 0
M  V30 21348 C 1057.27 -4.45085 -6.88694 0
M  V30 21349 O 1056.88 -5.7877 -6.5624 0
M  V30 21350 C 1056.39 -3.47817 -6.12078 0
M  V30 21351 C 1057.1 -3.39414 -4.77697 0
M  V30 21352 N 1057.05 -2.04615 -4.15333 0
M  V30 21353 H 1059.89 -3.41248 -7.98759 0
M  V30 21354 H 1060.16 -2.5837 -6.41742 0
M  V30 21355 H 1059.3 -5.02657 -6.42673 0
M  V30 21356 P 1055.33 -6.144 -6.45285 0
M  V30 21357 O 1055.11 -7.54673 -6.86199 0
M  V30 21358 O 1054.54 -5.12391 -7.179 0
M  V30 21359 O 1055.08 -5.99158 -4.88404 0
M  V30 21360 C 1056.02 -6.60234 -3.96415 0
M  V30 21361 C 1055.29 -7.08259 -2.72856 0
M  V30 21362 O 1055.08 -5.9427 -1.83651 0
M  V30 21363 C 1053.89 -7.64886 -2.9555 0
M  V30 21364 O 1053.5 -8.53963 -1.90717 0
M  V30 21365 C 1053.01 -6.4116 -2.90739 0
M  V30 21366 C 1053.72 -5.55375 -1.86963 0
M  V30 21367 N 1053.67 -4.09448 -2.16152 0
M  V30 21368 H 1056.51 -7.45574 -4.45629 0
M  V30 21369 H 1056.78 -5.85864 -3.679 0
M  V30 21370 H 1055.92 -7.84412 -2.24479 0
M  V30 21371 H 1053.26 -5.73457 -0.888562 0
M  V30 21372 H 1052.98 -5.90877 -3.88583 0
M  V30 21373 H 1051.99 -6.6596 -2.58858 0
M  V30 21374 H 1053.82 -8.16339 -3.92049 0
M  V30 21375 P 1051.95 -8.7635 -1.60911 0
M  V30 21376 O 1051.73 -10.1388 -1.11561 0
M  V30 21377 O 1051.16 -8.36503 -2.79617 0
M  V30 21378 O 1051.7 -7.71806 -0.42951 0
M  V30 21379 C 1052.64 -7.67148 0.673689 0
M  V30 21380 C 1051.91 -7.33374 1.95559 0
M  V30 21381 O 1051.7 -5.88721 2.00726 0
M  V30 21382 C 1050.51 -7.92526 2.10483 0
M  V30 21383 O 1050.12 -8.02971 3.47653 0
M  V30 21384 C 1049.63 -6.89602 1.41652 0
M  V30 21385 C 1050.34 -5.59201 1.75185 0
M  V30 21386 N 1050.29 -4.58235 0.662552 0
M  V30 21387 H 1053.13 -8.65116 0.777161 0
M  V30 21388 H 1053.4 -6.90173 0.474152 0
M  V30 21389 H 1052.54 -7.66548 2.79458 0
M  V30 21390 P 1048.57 -8.03563 3.84925 0
M  V30 21391 O 1048.35 -8.85821 5.0569 0
M  V30 21392 O 1047.78 -8.41101 2.65469 0
M  V30 21393 O 1048.32 -6.4965 4.18908 0
M  V30 21394 C 1049.26 -5.81037 5.05421 0
M  V30 21395 C 1048.53 -4.78366 5.89277 0
M  V30 21396 O 1048.32 -3.58302 5.08433 0
M  V30 21397 C 1047.13 -5.17448 6.36119 0
M  V30 21398 O 1046.74 -4.45271 7.53232 0
M  V30 21399 C 1046.25 -4.74639 5.19936 0
M  V30 21400 C 1046.96 -3.49432 4.70418 0
M  V30 21401 N 1046.91 -3.32099 3.22613 0
M  V30 21402 H 1049.75 -6.54213 5.71376 0
M  V30 21403 H 1050.02 -5.30936 4.43503 0
M  V30 21404 H 1049.16 -4.55889 6.76652 0
M  V30 21405 H 1046.5 -2.61715 5.17932 0
M  V30 21406 H 1046.22 -5.52155 4.41878 0
M  V30 21407 H 1045.23 -4.51981 5.53374 0
M  V30 21408 H 1047.06 -6.25124 6.55234 0
M  V30 21409 P 1045.19 -4.23843 7.83734 0
M  V30 21410 O 1044.97 -4.19407 9.29784 0
M  V30 21411 O 1044.4 -5.24426 7.09156 0
M  V30 21412 O 1044.94 -2.7935 7.20758 0
M  V30 21413 C 1045.88 -1.72945 7.50224 0
M  V30 21414 C 1045.15 -0.406376 7.57911 0
M  V30 21415 O 1044.94 0.0897726 6.21935 0
M  V30 21416 C 1043.75 -0.438983 8.18724 0
M  V30 21417 O 1043.36 0.825065 8.71101 0
M  V30 21418 C 1042.87 -0.783689 6.99524 0
M  V30 21419 C 1043.58 -0.0619086 5.85867 0
M  V30 21420 N 1043.53 -0.78573 4.56183 0
M  V30 21421 C 1043.38 -0.0292889 3.41887 0
M  V30 21422 O 1043.29 1.18445 3.4419 0
M  V30 21423 N 1043.34 -0.744061 2.23964 0
M  V30 21424 C 1043.43 -2.10932 2.10362 0
M  V30 21425 C 1043.58 -2.8202 3.34994 0
M  V30 21426 C 1043.63 -2.15547 4.52261 0
M  V30 21427 H 1046.37 -1.93379 8.46595 0
M  V30 21428 H 1046.64 -1.68132 6.70852 0
M  V30 21429 H 1045.78 0.289041 8.15388 0
M  V30 21430 H 1043.12 0.926847 5.72749 0
M  V30 21431 H 1042.84 -1.86973 6.82036 0
M  V30 21432 H 1041.85 -0.403896 7.13257 0
M  V30 21433 H 1043.68 -1.20585 8.97435 0
M  V30 21434 H 1043.76 -2.71231 5.45042 0
M  V30 21435 P 1041.81 1.17771 8.83182 0
M  V30 21436 O 1041.59 2.07206 9.98732 0
M  V30 21437 O 1041.02 -0.0743816 8.81969 0
M  V30 21438 O 1041.56 1.97652 7.47304 0
M  V30 21439 C 1042.5 3.01055 7.08599 0
M  V30 21440 C 1041.77 4.12613 6.37049 0
M  V30 21441 O 1041.56 3.72827 4.97879 0
M  V30 21442 C 1040.37 4.45719 6.88164 0
M  V30 21443 O 1039.98 5.7877 6.5624 0
M  V30 21444 C 1039.49 3.47768 6.11991 0
M  V30 21445 C 1040.2 3.39356 4.77615 0
M  V30 21446 N 1040.15 2.04571 4.15244 0
M  V30 21447 C 1040 1.98587 2.78314 0
M  V30 21448 O 1039.91 2.98134 2.08835 0
M  V30 21449 N 1039.96 0.714467 2.24925 0
M  V30 21450 C 1040.05 -0.470001 2.94169 0
M  V30 21451 O 1040 -1.55587 2.35195 0
M  V30 21452 C 1040.2 -0.312541 4.36783 0
M  V30 21453 C 1040.31 -1.57711 5.16352 0
M  V30 21454 C 1040.25 0.914512 4.92583 0
M  V30 21455 H 1042.99 3.41169 7.98575 0
M  V30 21456 H 1043.26 2.58295 6.41556 0
M  V30 21457 H 1042.4 5.02657 6.42673 0
M  V30 21458 H 1039.74 4.11637 4.08885 0
M  V30 21459 H 1039.46 2.49626 6.61679 0
M  V30 21460 H 1038.47 3.86566 6.00778 0
M  V30 21461 H 1040.3 4.29943 7.96918 0
M  V30 21462 H 1040.38 1.00937 6.00374 0
M  V30 21463 H 1039.35 -1.80153 5.63503 0
M  V30 21464 H 1041.08 -1.4566 5.94104 0
M  V30 21465 H 1040.59 -2.40664 4.49645 0
M  V30 21466 H 1039.86 0.647622 1.25697 0
M  V30 21467 P 1038.43 6.144 6.45285 0
M  V30 21468 O 1038.21 7.54673 6.86199 0
M  V30 21469 O 1037.64 5.12391 7.179 0
M  V30 21470 O 1038.18 5.99158 4.88404 0
M  V30 21471 C 1039.12 6.60234 3.96415 0
M  V30 21472 C 1038.39 7.08259 2.72856 0
M  V30 21473 O 1038.18 5.9427 1.83651 0
M  V30 21474 C 1036.99 7.64886 2.9555 0
M  V30 21475 O 1036.6 8.53963 1.90717 0
M  V30 21476 C 1036.11 6.4116 2.90739 0
M  V30 21477 C 1036.82 5.55375 1.86963 0
M  V30 21478 N 1036.77 4.09448 2.16152 0
M  V30 21479 H 1039.61 7.45574 4.45629 0
M  V30 21480 H 1039.88 5.85864 3.679 0
M  V30 21481 H 1039.02 7.84412 2.24479 0
M  V30 21482 H 1036.36 5.73457 0.888562 0
M  V30 21483 H 1036.08 5.90877 3.88583 0
M  V30 21484 H 1035.09 6.6596 2.58858 0
M  V30 21485 H 1036.92 8.16339 3.92049 0
M  V30 21486 P 1035.05 8.7635 1.60911 0
M  V30 21487 O 1034.83 10.1388 1.11561 0
M  V30 21488 O 1034.26 8.36503 2.79617 0
M  V30 21489 O 1034.8 7.71806 0.42951 0
M  V30 21490 C 1035.74 7.67148 -0.673689 0
M  V30 21491 C 1035.01 7.33374 -1.95559 0
M  V30 21492 O 1034.8 5.88721 -2.00726 0
M  V30 21493 C 1033.61 7.92526 -2.10483 0
M  V30 21494 O 1033.22 8.02971 -3.47653 0
M  V30 21495 C 1032.73 6.89602 -1.41652 0
M  V30 21496 C 1033.44 5.59201 -1.75185 0
M  V30 21497 N 1033.39 4.58235 -0.662552 0
M  V30 21498 H 1036.23 8.65116 -0.777161 0
M  V30 21499 H 1036.5 6.90173 -0.474152 0
M  V30 21500 H 1035.64 7.66548 -2.79458 0
M  V30 21501 P 1031.67 8.03563 -3.84925 0
M  V30 21502 O 1031.45 8.85821 -5.0569 0
M  V30 21503 O 1030.88 8.41101 -2.65469 0
M  V30 21504 O 1031.42 6.4965 -4.18908 0
M  V30 21505 C 1032.36 5.81037 -5.05421 0
M  V30 21506 C 1031.63 4.78366 -5.89277 0
M  V30 21507 O 1031.42 3.58302 -5.08433 0
M  V30 21508 C 1030.23 5.17448 -6.36119 0
M  V30 21509 O 1029.84 4.45271 -7.53232 0
M  V30 21510 C 1029.35 4.74639 -5.19936 0
M  V30 21511 C 1030.06 3.49432 -4.70418 0
M  V30 21512 N 1030.01 3.31776 -3.22945 0
M  V30 21513 H 1032.85 6.54213 -5.71376 0
M  V30 21514 H 1033.12 5.30492 -4.44033 0
M  V30 21515 H 1032.26 4.55889 -6.76652 0
M  V30 21516 P 1028.29 4.23843 -7.83734 0
M  V30 21517 O 1028.07 4.19407 -9.29784 0
M  V30 21518 O 1027.5 5.24426 -7.09156 0
M  V30 21519 O 1028.04 2.7935 -7.20758 0
M  V30 21520 C 1028.98 1.72945 -7.50224 0
M  V30 21521 C 1028.25 0.406376 -7.57911 0
M  V30 21522 O 1028.04 -0.0897726 -6.21935 0
M  V30 21523 C 1026.85 0.438983 -8.18724 0
M  V30 21524 O 1026.46 -0.825065 -8.71101 0
M  V30 21525 C 1025.97 0.783689 -6.99524 0
M  V30 21526 C 1026.68 0.0619086 -5.85867 0
M  V30 21527 N 1026.63 0.78573 -4.56183 0
M  V30 21528 C 1026.48 0.0292889 -3.41887 0
M  V30 21529 O 1026.39 -1.18445 -3.4419 0
M  V30 21530 N 1026.44 0.744061 -2.23964 0
M  V30 21531 C 1026.53 2.10932 -2.10362 0
M  V30 21532 C 1026.68 2.8202 -3.34994 0
M  V30 21533 C 1026.73 2.15547 -4.52261 0
M  V30 21534 H 1029.47 1.93379 -8.46595 0
M  V30 21535 H 1029.74 1.68132 -6.70852 0
M  V30 21536 H 1028.88 -0.289041 -8.15388 0
M  V30 21537 H 1026.22 -0.926847 -5.72749 0
M  V30 21538 H 1025.94 1.86973 -6.82036 0
M  V30 21539 H 1024.95 0.403896 -7.13257 0
M  V30 21540 H 1026.78 1.20585 -8.97435 0
M  V30 21541 H 1026.86 2.71231 -5.45042 0
M  V30 21542 P 1024.91 -1.17771 -8.83182 0
M  V30 21543 O 1024.69 -2.07206 -9.98732 0
M  V30 21544 O 1024.12 0.0743816 -8.81969 0
M  V30 21545 O 1024.66 -1.97652 -7.47304 0
M  V30 21546 C 1025.6 -3.01133 -7.08783 0
M  V30 21547 C 1024.87 -4.12613 -6.37049 0
M  V30 21548 O 1024.66 -3.72827 -4.97879 0
M  V30 21549 C 1023.47 -4.45085 -6.88694 0
M  V30 21550 O 1023.08 -5.7877 -6.5624 0
M  V30 21551 C 1022.59 -3.47817 -6.12078 0
M  V30 21552 C 1023.3 -3.39414 -4.77697 0
M  V30 21553 N 1023.25 -2.04199 -4.15538 0
M  V30 21554 H 1026.09 -3.41248 -7.98759 0
M  V30 21555 H 1026.36 -2.57728 -6.42 0
M  V30 21556 H 1025.5 -5.02657 -6.42673 0
M  V30 21557 H 1022.84 -4.11708 -4.08956 0
M  V30 21558 H 1022.56 -2.49626 -6.61679 0
M  V30 21559 H 1021.57 -3.8662 -6.00862 0
M  V30 21560 H 1023.4 -4.29991 -7.97006 0
M  V30 21561 P 1021.53 -6.144 -6.45285 0
M  V30 21562 O 1021.31 -7.54673 -6.86199 0
M  V30 21563 O 1020.74 -5.12391 -7.179 0
M  V30 21564 O 1021.28 -5.99158 -4.88404 0
M  V30 21565 C 1022.22 -6.60234 -3.96415 0
M  V30 21566 C 1021.49 -7.08259 -2.72856 0
M  V30 21567 O 1021.28 -5.9427 -1.83651 0
M  V30 21568 C 1020.09 -7.64886 -2.9555 0
M  V30 21569 O 1019.7 -8.53963 -1.90717 0
M  V30 21570 C 1019.21 -6.4116 -2.90739 0
M  V30 21571 C 1019.92 -5.55375 -1.86963 0
M  V30 21572 N 1019.87 -4.09664 -2.15742 0
M  V30 21573 H 1022.71 -7.45574 -4.45629 0
M  V30 21574 H 1022.98 -5.86232 -3.67314 0
M  V30 21575 H 1022.12 -7.84412 -2.24479 0
M  V30 21576 P 1018.15 -8.7635 -1.60911 0
M  V30 21577 O 1017.93 -10.1388 -1.11561 0
M  V30 21578 O 1017.36 -8.36503 -2.79617 0
M  V30 21579 O 1017.9 -7.71806 -0.42951 0
M  V30 21580 C 1018.84 -7.67148 0.673689 0
M  V30 21581 C 1018.11 -7.33374 1.95559 0
M  V30 21582 O 1017.9 -5.88721 2.00726 0
M  V30 21583 C 1016.71 -7.92526 2.10483 0
M  V30 21584 O 1016.32 -8.02971 3.47653 0
M  V30 21585 C 1015.83 -6.89602 1.41652 0
M  V30 21586 C 1016.54 -5.59201 1.75185 0
M  V30 21587 N 1016.49 -4.58235 0.662552 0
M  V30 21588 H 1019.33 -8.65116 0.777161 0
M  V30 21589 H 1019.61 -6.90173 0.474152 0
M  V30 21590 H 1018.74 -7.66548 2.79458 0
M  V30 21591 P 1014.77 -8.03563 3.84925 0
M  V30 21592 O 1014.55 -8.85821 5.0569 0
M  V30 21593 O 1013.98 -8.41101 2.65469 0
M  V30 21594 O 1014.52 -6.4965 4.18908 0
M  V30 21595 C 1015.46 -5.81037 5.05421 0
M  V30 21596 C 1014.73 -4.78366 5.89277 0
M  V30 21597 O 1014.52 -3.58302 5.08433 0
M  V30 21598 C 1013.33 -5.17448 6.36119 0
M  V30 21599 O 1012.94 -4.45271 7.53232 0
M  V30 21600 C 1012.45 -4.74639 5.19936 0
M  V30 21601 C 1013.16 -3.49432 4.70418 0
M  V30 21602 N 1013.11 -3.31776 3.22945 0
M  V30 21603 H 1015.95 -6.54213 5.71376 0
M  V30 21604 H 1016.23 -5.30492 4.44033 0
M  V30 21605 H 1015.36 -4.55889 6.76652 0
M  V30 21606 P 1011.39 -4.23843 7.83734 0
M  V30 21607 O 1011.17 -4.19407 9.29784 0
M  V30 21608 O 1010.6 -5.24426 7.09156 0
M  V30 21609 O 1011.14 -2.7935 7.20758 0
M  V30 21610 C 1012.08 -1.7299 7.50419 0
M  V30 21611 C 1011.35 -0.406376 7.57911 0
M  V30 21612 O 1011.14 0.0897726 6.21935 0
M  V30 21613 C 1009.95 -0.447224 8.1878 0
M  V30 21614 O 1009.56 0.825065 8.71101 0
M  V30 21615 C 1009.07 -0.783801 6.99623 0
M  V30 21616 C 1009.78 -0.0619192 5.85967 0
M  V30 21617 N 1009.73 -0.790462 4.56202 0
M  V30 21618 C 1009.81 -2.13895 4.34171 0
M  V30 21619 N 1009.74 -2.46449 3.08687 0
M  V30 21620 C 1009.59 -1.2525 2.43697 0
M  V30 21621 C 1009.46 -0.914535 1.07318 0
M  V30 21622 N 1009.45 -1.80782 0.0887348 0
M  V30 21623 N 1009.34 0.386745 0.768133 0
M  V30 21624 C 1009.35 1.28096 1.75159 0
M  V30 21625 N 1009.47 1.09708 3.04861 0
M  V30 21626 C 1009.59 -0.214857 3.32306 0
M  V30 21627 H 1012.57 -1.93423 8.4679 0
M  V30 21628 H 1012.85 -1.68852 6.70877 0
M  V30 21629 H 1011.98 0.289041 8.15388 0
M  V30 21630 H 1009.32 0.927006 5.72848 0
M  V30 21631 H 1009.04 -1.86973 6.82036 0
M  V30 21632 H 1008.05 -0.403953 7.13357 0
M  V30 21633 H 1009.89 -1.20599 8.97534 0
M  V30 21634 H 1009.93 -2.86846 5.14318 0
M  V30 21635 H 1009.55 -2.81082 0.302037 0
M  V30 21636 H 1009.36 -1.49688 -0.889064 0
M  V30 21637 H 1009.25 2.31317 1.43855 0
M  V30 21638 P 1008.01 1.17771 8.83182 0
M  V30 21639 O 1007.79 2.07206 9.98732 0
M  V30 21640 O 1007.22 -0.0743816 8.81969 0
M  V30 21641 O 1007.76 1.97652 7.47304 0
M  V30 21642 C 1008.7 3.01133 7.08783 0
M  V30 21643 C 1007.97 4.12613 6.37049 0
M  V30 21644 O 1007.76 3.72827 4.97879 0
M  V30 21645 C 1006.57 4.45085 6.88694 0
M  V30 21646 O 1006.18 5.7877 6.5624 0
M  V30 21647 C 1005.69 3.47817 6.12078 0
M  V30 21648 C 1006.4 3.39414 4.77697 0
M  V30 21649 N 1006.35 2.04615 4.15333 0
M  V30 21650 H 1009.19 3.41248 7.98759 0
M  V30 21651 H 1009.47 2.5837 6.41742 0
M  V30 21652 H 1008.6 5.02657 6.42673 0
M  V30 21653 P 1004.63 6.144 6.45285 0
M  V30 21654 O 1004.41 7.54673 6.86199 0
M  V30 21655 O 1003.84 5.12391 7.179 0
M  V30 21656 O 1004.38 5.99158 4.88404 0
M  V30 21657 C 1005.32 6.60234 3.96415 0
M  V30 21658 C 1004.59 7.08259 2.72856 0
M  V30 21659 O 1004.38 5.9427 1.83651 0
M  V30 21660 C 1003.19 7.64886 2.9555 0
M  V30 21661 O 1002.8 8.53963 1.90717 0
M  V30 21662 C 1002.31 6.4116 2.90739 0
M  V30 21663 C 1003.02 5.55375 1.86963 0
M  V30 21664 N 1002.97 4.09664 2.15742 0
M  V30 21665 H 1005.81 7.45574 4.45629 0
M  V30 21666 H 1006.09 5.86232 3.67314 0
M  V30 21667 H 1005.22 7.84412 2.24479 0
M  V30 21668 P 1001.25 8.7635 1.60911 0
M  V30 21669 O 1001.03 10.1388 1.11561 0
M  V30 21670 O 1000.46 8.36503 2.79617 0
M  V30 21671 O 1001 7.71806 0.42951 0
M  V30 21672 C 1001.94 7.66948 -0.673514 0
M  V30 21673 C 1001.21 7.33374 -1.95559 0
M  V30 21674 O 1001 5.88721 -2.00726 0
M  V30 21675 C 999.814 7.92218 -2.1125 0
M  V30 21676 O 999.424 8.02971 -3.47653 0
M  V30 21677 C 998.934 6.89504 -1.41631 0
M  V30 21678 C 999.644 5.59106 -1.75155 0
M  V30 21679 N 999.594 4.58136 -0.662409 0
M  V30 21680 C 999.444 3.26059 -1.02863 0
M  V30 21681 O 999.354 2.90743 -2.19009 0
M  V30 21682 N 999.404 2.35995 0.0155585 0
M  V30 21683 C 999.494 2.65248 1.35603 0
M  V30 21684 C 999.644 4.05747 1.64698 0
M  V30 21685 C 999.694 4.96734 0.652411 0
M  V30 21686 H 1002.44 8.64917 -0.776982 0
M  V30 21687 H 1002.7 6.89974 -0.474015 0
M  V30 21688 H 1001.84 7.66548 -2.79458 0
M  V30 21689 H 999.182 5.16076 -2.65138 0
M  V30 21690 H 998.903 7.06433 -0.329384 0
M  V30 21691 H 997.911 6.90829 -1.81996 0
M  V30 21692 H 999.745 8.90774 -1.62639 0
M  V30 21693 H 999.816 6.02181 0.895285 0
M  V30 21694 P 997.874 8.03563 -3.84925 0
M  V30 21695 O 997.654 8.85821 -5.0569 0
M  V30 21696 O 997.084 8.41101 -2.65469 0
M  V30 21697 O 997.624 6.4965 -4.18908 0
M  V30 21698 C 998.564 5.80886 -5.05289 0
M  V30 21699 C 997.834 4.78366 -5.89277 0
M  V30 21700 O 997.624 3.58302 -5.08433 0
M  V30 21701 C 996.434 5.16748 -6.36559 0
M  V30 21702 O 996.044 4.45271 -7.53232 0
M  V30 21703 C 995.554 4.74572 -5.19863 0
M  V30 21704 C 996.264 3.49373 -4.70338 0
M  V30 21705 N 996.214 3.31704 -3.22876 0
M  V30 21706 C 996.064 2.03326 -2.74871 0
M  V30 21707 O 995.974 1.06486 -3.48076 0
M  V30 21708 N 996.024 1.91838 -1.37456 0
M  V30 21709 C 996.114 2.94295 -0.462035 0
M  V30 21710 O 996.064 2.71763 0.752928 0
M  V30 21711 C 996.264 4.25064 -1.05249 0
M  V30 21712 C 996.374 5.39815 -0.095697 0
M  V30 21713 C 996.314 4.40214 -2.39192 0
M  V30 21714 H 999.055 6.54063 -5.71245 0
M  V30 21715 H 999.324 5.30339 -4.43905 0
M  V30 21716 H 998.457 4.55889 -6.76652 0
M  V30 21717 H 995.802 2.6167 -5.17842 0
M  V30 21718 H 995.523 5.52155 -4.41878 0
M  V30 21719 H 994.531 4.51918 -5.53297 0
M  V30 21720 H 996.365 6.25055 -6.55162 0
M  V30 21721 H 996.436 5.39798 -2.81523 0
M  V30 21722 H 995.406 5.91593 -0.0279582 0
M  V30 21723 H 997.143 6.10038 -0.450573 0
M  V30 21724 H 996.655 5.02007 0.89937 0
M  V30 21725 H 995.919 0.995326 -1.00435 0
M  V30 21726 P 994.494 4.23843 -7.83734 0
M  V30 21727 O 994.274 4.19407 -9.29784 0
M  V30 21728 O 993.704 5.24426 -7.09156 0
M  V30 21729 O 994.244 2.7935 -7.20758 0
M  V30 21730 C 995.184 1.7299 -7.50419 0
M  V30 21731 C 994.454 0.406376 -7.57911 0
M  V30 21732 O 994.244 -0.0897726 -6.21935 0
M  V30 21733 C 993.054 0.447224 -8.1878 0
M  V30 21734 O 992.664 -0.825065 -8.71101 0
M  V30 21735 C 992.174 0.783801 -6.99623 0
M  V30 21736 C 992.884 0.0619192 -5.85967 0
M  V30 21737 N 992.834 0.790462 -4.56202 0
M  V30 21738 H 995.673 1.93423 -8.4679 0
M  V30 21739 H 995.945 1.68852 -6.70877 0
M  V30 21740 H 995.077 -0.289041 -8.15388 0
M  V30 21741 H 992.422 -0.927006 -5.72848 0
M  V30 21742 H 992.142 1.86973 -6.82036 0
M  V30 21743 H 991.151 0.403953 -7.13357 0
M  V30 21744 H 992.985 1.20599 -8.97534 0
M  V30 21745 P 991.114 -1.17771 -8.83182 0
M  V30 21746 O 990.894 -2.07206 -9.98732 0
M  V30 21747 O 990.324 0.0743816 -8.81969 0
M  V30 21748 O 990.864 -1.97652 -7.47304 0
M  V30 21749 C 991.804 -3.01133 -7.08783 0
M  V30 21750 C 991.074 -4.12613 -6.37049 0
M  V30 21751 O 990.864 -3.72827 -4.97879 0
M  V30 21752 C 989.674 -4.45085 -6.88694 0
M  V30 21753 O 989.284 -5.7877 -6.5624 0
M  V30 21754 C 988.794 -3.47817 -6.12078 0
M  V30 21755 C 989.504 -3.39414 -4.77697 0
M  V30 21756 N 989.454 -2.04615 -4.15333 0
M  V30 21757 C 989.534 -0.803897 -4.75249 0
M  V30 21758 N 989.454 0.197615 -3.91502 0
M  V30 21759 C 989.314 -0.413002 -2.66823 0
M  V30 21760 C 989.184 0.157221 -1.38007 0
M  V30 21761 N 989.064 -0.833136 -0.390236 0
M  V30 21762 C 989.064 -2.19402 -0.623885 0
M  V30 21763 N 988.934 -2.97622 0.449677 0
M  V30 21764 N 989.194 -2.73005 -1.83601 0
M  V30 21765 C 989.314 -1.78786 -2.80935 0
M  V30 21766 H 992.293 -3.41248 -7.98759 0
M  V30 21767 H 992.565 -2.5837 -6.41742 0
M  V30 21768 H 991.697 -5.02657 -6.42673 0
M  V30 21769 P 987.734 -6.144 -6.45285 0
M  V30 21770 O 987.514 -7.54673 -6.86199 0
M  V30 21771 O 986.944 -5.12391 -7.179 0
M  V30 21772 O 987.484 -5.99158 -4.88404 0
M  V30 21773 C 988.424 -6.60062 -3.96313 0
M  V30 21774 C 987.694 -7.08259 -2.72856 0
M  V30 21775 O 987.484 -5.9427 -1.83651 0
M  V30 21776 C 986.294 -7.65087 -2.94749 0
M  V30 21777 O 985.904 -8.53963 -1.90717 0
M  V30 21778 C 985.414 -6.41069 -2.90698 0
M  V30 21779 C 986.124 -5.5528 -1.86931 0
M  V30 21780 N 986.074 -4.09575 -2.15696 0
M  V30 21781 C 985.924 -3.24249 -1.08435 0
M  V30 21782 O 985.834 -3.63946 0.0628747 0
M  V30 21783 N 985.884 -1.90009 -1.39973 0
M  V30 21784 C 985.974 -1.34884 -2.65614 0
M  V30 21785 C 986.124 -2.3145 -3.71736 0
M  V30 21786 C 986.174 -3.63518 -3.44754 0
M  V30 21787 H 988.915 -7.45402 -4.45526 0
M  V30 21788 H 989.184 -5.86062 -3.67208 0
M  V30 21789 H 988.317 -7.84412 -2.24479 0
M  V30 21790 H 985.662 -5.73358 -0.888409 0
M  V30 21791 H 985.383 -5.90877 -3.88583 0
M  V30 21792 H 984.391 -6.65867 -2.58821 0
M  V30 21793 H 986.225 -8.16248 -3.92006 0
M  V30 21794 H 986.296 -4.34551 -4.26383 0
M  V30 21795 P 984.354 -8.7635 -1.60911 0
M  V30 21796 O 984.134 -10.1388 -1.11561 0
M  V30 21797 O 983.564 -8.36503 -2.79617 0
M  V30 21798 O 984.104 -7.71806 -0.42951 0
M  V30 21799 C 985.044 -7.67148 0.673689 0
M  V30 21800 C 984.314 -7.33374 1.95559 0
M  V30 21801 O 984.104 -5.88721 2.00726 0
M  V30 21802 C 982.914 -7.92526 2.10483 0
M  V30 21803 O 982.524 -8.02971 3.47653 0
M  V30 21804 C 982.034 -6.89602 1.41652 0
M  V30 21805 C 982.744 -5.59201 1.75185 0
M  V30 21806 N 982.694 -4.58235 0.662552 0
M  V30 21807 H 985.533 -8.65116 0.777161 0
M  V30 21808 H 985.805 -6.90173 0.474152 0
M  V30 21809 H 984.937 -7.66548 2.79458 0
M  V30 21810 P 980.974 -8.03563 3.84925 0
M  V30 21811 O 980.754 -8.85821 5.0569 0
M  V30 21812 O 980.184 -8.41101 2.65469 0
M  V30 21813 O 980.724 -6.4965 4.18908 0
M  V30 21814 C 981.664 -5.81037 5.05421 0
M  V30 21815 C 980.934 -4.78366 5.89277 0
M  V30 21816 O 980.724 -3.58302 5.08433 0
M  V30 21817 C 979.534 -5.17448 6.36119 0
M  V30 21818 O 979.144 -4.45271 7.53232 0
M  V30 21819 C 978.654 -4.74639 5.19936 0
M  V30 21820 C 979.364 -3.49432 4.70418 0
M  V30 21821 N 979.314 -3.31776 3.22945 0
M  V30 21822 H 982.153 -6.54213 5.71376 0
M  V30 21823 H 982.425 -5.30492 4.44033 0
M  V30 21824 H 981.557 -4.55889 6.76652 0
M  V30 21825 P 977.594 -4.23843 7.83734 0
M  V30 21826 O 977.374 -4.19407 9.29784 0
M  V30 21827 O 976.804 -5.24426 7.09156 0
M  V30 21828 O 977.344 -2.7935 7.20758 0
M  V30 21829 C 978.284 -1.7299 7.50419 0
M  V30 21830 C 977.554 -0.406376 7.57911 0
M  V30 21831 O 977.344 0.0897726 6.21935 0
M  V30 21832 C 976.154 -0.447224 8.1878 0
M  V30 21833 O 975.764 0.825065 8.71101 0
M  V30 21834 C 975.274 -0.783801 6.99623 0
M  V30 21835 C 975.984 -0.0619192 5.85967 0
M  V30 21836 N 975.934 -0.7859 4.56281 0
M  V30 21837 H 978.773 -1.93423 8.4679 0
M  V30 21838 H 979.045 -1.68181 6.71046 0
M  V30 21839 H 978.177 0.289041 8.15388 0
M  V30 21840 P 974.214 1.17771 8.83182 0
M  V30 21841 O 973.994 2.07206 9.98732 0
M  V30 21842 O 973.424 -0.0743816 8.81969 0
M  V30 21843 O 973.964 1.97652 7.47304 0
M  V30 21844 C 974.904 3.01133 7.08783 0
M  V30 21845 C 974.174 4.12613 6.37049 0
M  V30 21846 O 973.964 3.72827 4.97879 0
M  V30 21847 C 972.774 4.45085 6.88694 0
M  V30 21848 O 972.384 5.7877 6.5624 0
M  V30 21849 C 971.894 3.47817 6.12078 0
M  V30 21850 C 972.604 3.39414 4.77697 0
M  V30 21851 N 972.554 2.04199 4.15538 0
M  V30 21852 H 975.393 3.41248 7.98759 0
M  V30 21853 H 975.665 2.57728 6.42 0
M  V30 21854 H 974.797 5.02657 6.42673 0
M  V30 21855 H 972.142 4.11708 4.08956 0
M  V30 21856 H 971.862 2.49626 6.61679 0
M  V30 21857 H 970.871 3.8662 6.00862 0
M  V30 21858 H 972.705 4.29991 7.97006 0
M  V30 21859 P 970.834 6.144 6.45285 0
M  V30 21860 O 970.614 7.54673 6.86199 0
M  V30 21861 O 970.044 5.12391 7.179 0
M  V30 21862 O 970.584 5.99236 4.88467 0
M  V30 21863 C 971.524 6.60234 3.96415 0
M  V30 21864 C 970.794 7.08079 2.736 0
M  V30 21865 O 970.584 5.94365 1.8368 0
M  V30 21866 C 969.394 7.64886 2.9555 0
M  V30 21867 O 969.004 8.5406 1.90739 0
M  V30 21868 C 968.514 6.4116 2.90739 0
M  V30 21869 C 969.224 5.55375 1.86963 0
M  V30 21870 N 969.174 4.09664 2.15742 0
M  V30 21871 C 969.024 3.22231 1.08477 0
M  V30 21872 O 968.934 3.68951 -0.0600489 0
M  V30 21873 N 968.974 1.76692 1.48799 0
M  V30 21874 C 969.074 1.41695 2.57602 0
M  V30 21875 N 969.024 0.107296 2.75791 0
M  V30 21876 C 969.224 2.29178 3.69733 0
M  V30 21877 C 969.274 3.62753 3.42653 0
M  V30 21878 H 972.014 7.45488 4.45578 0
M  V30 21879 H 972.284 5.86232 3.67314 0
M  V30 21880 H 971.417 7.84508 2.24507 0
M  V30 21881 H 968.762 5.73556 0.888715 0
M  V30 21882 H 968.482 5.9096 3.88638 0
M  V30 21883 H 967.491 6.66053 2.58894 0
M  V30 21884 H 969.325 8.16339 3.92049 0
M  V30 21885 H 969.397 4.33052 4.24913 0
M  V30 21886 H 969.295 1.9103 4.71577 0
M  V30 21887 H 968.907 -0.521221 1.95056 0
M  V30 21888 H 969.103 -0.286429 3.70695 0
M  V30 21889 P 967.454 8.7635 1.60911 0
M  V30 21890 O 967.234 10.1388 1.11561 0
M  V30 21891 O 966.664 8.36503 2.79617 0
M  V30 21892 O 967.204 7.71806 0.42951 0
M  V30 21893 C 968.144 7.67148 -0.673689 0
M  V30 21894 C 967.414 7.33374 -1.95559 0
M  V30 21895 O 967.204 5.88721 -2.00726 0
M  V30 21896 C 966.014 7.92526 -2.10483 0
M  V30 21897 O 965.624 8.02971 -3.47653 0
M  V30 21898 C 965.134 6.89602 -1.41652 0
M  V30 21899 C 965.844 5.59201 -1.75185 0
M  V30 21900 N 965.794 4.58235 -0.662552 0
M  V30 21901 H 968.633 8.65116 -0.777161 0
M  V30 21902 H 968.905 6.90173 -0.474152 0
M  V30 21903 H 968.037 7.66548 -2.79458 0
M  V30 21904 P 964.074 8.03563 -3.84925 0
M  V30 21905 O 963.854 8.85821 -5.0569 0
M  V30 21906 O 963.284 8.41101 -2.65469 0
M  V30 21907 O 963.824 6.4965 -4.18908 0
M  V30 21908 C 964.764 5.81037 -5.05421 0
M  V30 21909 C 964.034 4.78366 -5.89277 0
M  V30 21910 O 963.824 3.58302 -5.08433 0
M  V30 21911 C 962.634 5.17448 -6.36119 0
M  V30 21912 O 962.244 4.45271 -7.53232 0
M  V30 21913 C 961.754 4.74639 -5.19936 0
M  V30 21914 C 962.464 3.49432 -4.70418 0
M  V30 21915 N 962.414 3.32099 -3.22613 0
M  V30 21916 H 965.253 6.54213 -5.71376 0
M  V30 21917 H 965.525 5.30936 -4.43503 0
M  V30 21918 H 964.657 4.55889 -6.76652 0
M  V30 21919 H 962.002 2.61715 -5.17932 0
M  V30 21920 H 961.722 5.52155 -4.41878 0
M  V30 21921 H 960.731 4.51981 -5.53374 0
M  V30 21922 H 962.565 6.25124 -6.55234 0
M  V30 21923 P 960.694 4.23843 -7.83734 0
M  V30 21924 O 960.474 4.19407 -9.29784 0
M  V30 21925 O 959.904 5.24426 -7.09156 0
M  V30 21926 O 960.444 2.7935 -7.20758 0
M  V30 21927 C 961.384 1.7299 -7.50419 0
M  V30 21928 C 960.654 0.406376 -7.57911 0
M  V30 21929 O 960.444 -0.0897726 -6.21935 0
M  V30 21930 C 959.254 0.447224 -8.1878 0
M  V30 21931 O 958.864 -0.825065 -8.71101 0
M  V30 21932 C 958.374 0.783801 -6.99623 0
M  V30 21933 C 959.084 0.0619192 -5.85967 0
M  V30 21934 N 959.034 0.790462 -4.56202 0
M  V30 21935 H 961.873 1.93423 -8.4679 0
M  V30 21936 H 962.145 1.68852 -6.70877 0
M  V30 21937 H 961.277 -0.289041 -8.15388 0
M  V30 21938 H 958.622 -0.927006 -5.72848 0
M  V30 21939 H 958.342 1.86973 -6.82036 0
M  V30 21940 H 957.351 0.403953 -7.13357 0
M  V30 21941 H 959.185 1.20599 -8.97534 0
M  V30 21942 P 957.314 -1.17771 -8.83182 0
M  V30 21943 O 957.094 -2.07206 -9.98732 0
M  V30 21944 O 956.524 0.0743816 -8.81969 0
M  V30 21945 O 957.064 -1.97652 -7.47304 0
M  V30 21946 C 958.004 -3.01133 -7.08783 0
M  V30 21947 C 957.274 -4.12613 -6.37049 0
M  V30 21948 O 957.064 -3.72827 -4.97879 0
M  V30 21949 C 955.874 -4.45085 -6.88694 0
M  V30 21950 O 955.484 -5.7877 -6.5624 0
M  V30 21951 C 954.994 -3.47817 -6.12078 0
M  V30 21952 C 955.704 -3.39414 -4.77697 0
M  V30 21953 N 955.654 -2.04615 -4.15333 0
M  V30 21954 H 958.493 -3.41248 -7.98759 0
M  V30 21955 H 958.765 -2.5837 -6.41742 0
M  V30 21956 H 957.897 -5.02657 -6.42673 0
M  V30 21957 P 953.934 -6.144 -6.45285 0
M  V30 21958 O 953.714 -7.54673 -6.86199 0
M  V30 21959 O 953.144 -5.12391 -7.179 0
M  V30 21960 O 953.684 -5.99158 -4.88404 0
M  V30 21961 C 954.624 -6.60234 -3.96415 0
M  V30 21962 C 953.894 -7.08259 -2.72856 0
M  V30 21963 O 953.684 -5.9427 -1.83651 0
M  V30 21964 C 952.494 -7.64886 -2.9555 0
M  V30 21965 O 952.104 -8.53963 -1.90717 0
M  V30 21966 C 951.614 -6.4116 -2.90739 0
M  V30 21967 C 952.324 -5.55375 -1.86963 0
M  V30 21968 N 952.274 -4.09664 -2.15742 0
M  V30 21969 H 955.113 -7.45574 -4.45629 0
M  V30 21970 H 955.385 -5.86232 -3.67314 0
M  V30 21971 H 954.517 -7.84412 -2.24479 0
M  V30 21972 P 950.554 -8.7635 -1.60911 0
M  V30 21973 O 950.334 -10.1388 -1.11561 0
M  V30 21974 O 949.764 -8.36503 -2.79617 0
M  V30 21975 O 950.304 -7.71806 -0.42951 0
M  V30 21976 C 951.244 -7.67148 0.673689 0
M  V30 21977 C 950.514 -7.33374 1.95559 0
M  V30 21978 O 950.304 -5.88721 2.00726 0
M  V30 21979 C 949.114 -7.92526 2.10483 0
M  V30 21980 O 948.724 -8.02971 3.47653 0
M  V30 21981 C 948.234 -6.89602 1.41652 0
M  V30 21982 C 948.944 -5.59201 1.75185 0
M  V30 21983 N 948.894 -4.58301 0.657969 0
M  V30 21984 H 951.733 -8.65116 0.777161 0
M  V30 21985 H 952.005 -6.9022 0.46725 0
M  V30 21986 H 951.137 -7.66548 2.79458 0
M  V30 21987 H 948.482 -5.16165 2.65183 0
M  V30 21988 H 948.202 -7.06433 0.329384 0
M  V30 21989 H 947.211 -6.90926 1.82021 0
M  V30 21990 H 949.045 -8.90873 1.62657 0
M  V30 21991 P 947.174 -8.03563 3.84925 0
M  V30 21992 O 946.954 -8.85821 5.0569 0
M  V30 21993 O 946.384 -8.41101 2.65469 0
M  V30 21994 O 946.924 -6.4965 4.18908 0
M  V30 21995 C 947.864 -5.80886 5.05289 0
M  V30 21996 C 947.134 -4.78366 5.89277 0
M  V30 21997 O 946.924 -3.58302 5.08433 0
M  V30 21998 C 945.734 -5.16748 6.36559 0
M  V30 21999 O 945.344 -4.45271 7.53232 0
M  V30 22000 C 944.854 -4.74572 5.19863 0
M  V30 22001 C 945.564 -3.49373 4.70338 0
M  V30 22002 N 945.514 -3.31704 3.22876 0
M  V30 22003 C 945.364 -2.03326 2.74871 0
M  V30 22004 O 945.274 -1.06486 3.48076 0
M  V30 22005 N 945.324 -1.91838 1.37456 0
M  V30 22006 C 945.414 -2.94295 0.462035 0
M  V30 22007 C 945.564 -4.25064 1.05249 0
M  V30 22008 C 945.614 -4.40214 2.39192 0
M  V30 22009 H 948.355 -6.54063 5.71245 0
M  V30 22010 H 948.624 -5.30339 4.43905 0
M  V30 22011 H 947.757 -4.55889 6.76652 0
M  V30 22012 H 945.102 -2.6167 5.17842 0
M  V30 22013 H 944.823 -5.52155 4.41878 0
M  V30 22014 H 943.831 -4.51918 5.53297 0
M  V30 22015 H 945.665 -6.25055 6.55162 0
M  V30 22016 H 945.736 -5.39798 2.81523 0
M  V30 22017 P 943.794 -4.23843 7.83734 0
M  V30 22018 O 943.574 -4.19407 9.29784 0
M  V30 22019 O 943.004 -5.24426 7.09156 0
M  V30 22020 O 943.544 -2.7935 7.20758 0
M  V30 22021 C 944.484 -1.7299 7.50419 0
M  V30 22022 C 943.754 -0.406376 7.57911 0
M  V30 22023 O 943.544 0.0897726 6.21935 0
M  V30 22024 C 942.354 -0.447224 8.1878 0
M  V30 22025 O 941.964 0.825065 8.71101 0
M  V30 22026 C 941.474 -0.783801 6.99623 0
M  V30 22027 C 942.184 -0.0619192 5.85967 0
M  V30 22028 N 942.134 -0.790462 4.56202 0
M  V30 22029 H 944.973 -1.93423 8.4679 0
M  V30 22030 H 945.245 -1.68852 6.70877 0
M  V30 22031 H 944.377 0.289041 8.15388 0
M  V30 22032 H 941.722 0.927006 5.72848 0
M  V30 22033 H 941.442 -1.86973 6.82036 0
M  V30 22034 H 940.451 -0.403953 7.13357 0
M  V30 22035 H 942.285 -1.20599 8.97534 0
M  V30 22036 P 940.414 1.17771 8.83182 0
M  V30 22037 O 940.194 2.07206 9.98732 0
M  V30 22038 O 939.624 -0.0743816 8.81969 0
M  V30 22039 O 940.164 1.97652 7.47304 0
M  V30 22040 C 941.104 3.01133 7.08783 0
M  V30 22041 C 940.374 4.12613 6.37049 0
M  V30 22042 O 940.164 3.72827 4.97879 0
M  V30 22043 C 938.974 4.45085 6.88694 0
M  V30 22044 O 938.584 5.7877 6.5624 0
M  V30 22045 C 938.094 3.47817 6.12078 0
M  V30 22046 C 938.804 3.39414 4.77697 0
M  V30 22047 N 938.754 2.04199 4.15538 0
M  V30 22048 H 941.593 3.41248 7.98759 0
M  V30 22049 H 941.865 2.57728 6.42 0
M  V30 22050 H 940.997 5.02657 6.42673 0
M  V30 22051 H 938.342 4.11708 4.08956 0
M  V30 22052 H 938.062 2.49626 6.61679 0
M  V30 22053 H 937.071 3.8662 6.00862 0
M  V30 22054 H 938.905 4.29991 7.97006 0
M  V30 22055 P 937.034 6.144 6.45285 0
M  V30 22056 O 936.814 7.54673 6.86199 0
M  V30 22057 O 936.244 5.12391 7.179 0
M  V30 22058 O 936.784 5.99158 4.88404 0
M  V30 22059 C 937.724 6.60234 3.96415 0
M  V30 22060 C 936.994 7.08259 2.72856 0
M  V30 22061 O 936.784 5.9427 1.83651 0
M  V30 22062 C 935.594 7.64886 2.9555 0
M  V30 22063 O 935.204 8.53963 1.90717 0
M  V30 22064 C 934.714 6.4116 2.90739 0
M  V30 22065 C 935.424 5.55375 1.86963 0
M  V30 22066 N 935.374 4.09664 2.15742 0
M  V30 22067 H 938.213 7.45574 4.45629 0
M  V30 22068 H 938.485 5.86232 3.67314 0
M  V30 22069 H 937.617 7.84412 2.24479 0
M  V30 22070 P 933.655 8.7635 1.60911 0
M  V30 22071 O 933.435 10.1388 1.11561 0
M  V30 22072 O 932.865 8.36503 2.79617 0
M  V30 22073 O 933.405 7.71806 0.42951 0
M  V30 22074 C 934.345 7.67148 -0.673689 0
M  V30 22075 C 933.615 7.33374 -1.95559 0
M  V30 22076 O 933.405 5.88721 -2.00726 0
M  V30 22077 C 932.215 7.92526 -2.10483 0
M  V30 22078 O 931.825 8.02971 -3.47653 0
M  V30 22079 C 931.335 6.89602 -1.41652 0
M  V30 22080 C 932.045 5.59201 -1.75185 0
M  V30 22081 N 931.995 4.58235 -0.662552 0
M  V30 22082 H 934.834 8.65116 -0.777161 0
M  V30 22083 H 935.106 6.90173 -0.474152 0
M  V30 22084 H 934.238 7.66548 -2.79458 0
M  V30 22085 P 930.275 8.03563 -3.84925 0
M  V30 22086 O 930.055 8.85821 -5.0569 0
M  V30 22087 O 929.485 8.41101 -2.65469 0
M  V30 22088 O 930.025 6.4965 -4.18908 0
M  V30 22089 C 930.965 5.81037 -5.05421 0
M  V30 22090 C 930.235 4.78366 -5.89277 0
M  V30 22091 O 930.025 3.58302 -5.08433 0
M  V30 22092 C 928.835 5.17448 -6.36119 0
M  V30 22093 O 928.445 4.45271 -7.53232 0
M  V30 22094 C 927.955 4.74639 -5.19936 0
M  V30 22095 C 928.665 3.49432 -4.70418 0
M  V30 22096 N 928.615 3.31776 -3.22945 0
M  V30 22097 H 931.454 6.54213 -5.71376 0
M  V30 22098 H 931.726 5.30492 -4.44033 0
M  V30 22099 H 930.858 4.55889 -6.76652 0
M  V30 22100 P 926.895 4.23843 -7.83734 0
M  V30 22101 O 926.675 4.19407 -9.29784 0
M  V30 22102 O 926.105 5.24426 -7.09156 0
M  V30 22103 O 926.645 2.7935 -7.20758 0
M  V30 22104 C 927.585 1.7299 -7.50419 0
M  V30 22105 C 926.855 0.406376 -7.57911 0
M  V30 22106 O 926.645 -0.0897726 -6.21935 0
M  V30 22107 C 925.455 0.447224 -8.1878 0
M  V30 22108 O 925.065 -0.825065 -8.71101 0
M  V30 22109 C 924.575 0.783801 -6.99623 0
M  V30 22110 C 925.285 0.0619192 -5.85967 0
M  V30 22111 N 925.235 0.7859 -4.56281 0
M  V30 22112 H 928.074 1.93423 -8.4679 0
M  V30 22113 H 928.346 1.68181 -6.71046 0
M  V30 22114 H 927.478 -0.289041 -8.15388 0
M  V30 22115 P 923.515 -1.17771 -8.83182 0
M  V30 22116 O 923.295 -2.07206 -9.98732 0
M  V30 22117 O 922.725 0.0743816 -8.81969 0
M  V30 22118 O 923.265 -1.97652 -7.47304 0
M  V30 22119 C 924.205 -3.01133 -7.08783 0
M  V30 22120 C 923.475 -4.12613 -6.37049 0
M  V30 22121 O 923.265 -3.72827 -4.97879 0
M  V30 22122 C 922.075 -4.45085 -6.88694 0
M  V30 22123 O 921.685 -5.7877 -6.5624 0
M  V30 22124 C 921.195 -3.47817 -6.12078 0
M  V30 22125 C 921.905 -3.39414 -4.77697 0
M  V30 22126 N 921.855 -2.04615 -4.15333 0
M  V30 22127 H 924.694 -3.41248 -7.98759 0
M  V30 22128 H 924.966 -2.5837 -6.41742 0
M  V30 22129 H 924.098 -5.02657 -6.42673 0
M  V30 22130 P 920.135 -6.144 -6.45285 0
M  V30 22131 O 919.915 -7.54673 -6.86199 0
M  V30 22132 O 919.345 -5.12391 -7.179 0
M  V30 22133 O 919.885 -5.99236 -4.88467 0
M  V30 22134 C 920.825 -6.60234 -3.96415 0
M  V30 22135 C 920.095 -7.08079 -2.736 0
M  V30 22136 O 919.885 -5.94365 -1.8368 0
M  V30 22137 C 918.695 -7.64886 -2.9555 0
M  V30 22138 O 918.305 -8.5406 -1.90739 0
M  V30 22139 C 917.815 -6.4116 -2.90739 0
M  V30 22140 C 918.525 -5.55375 -1.86963 0
M  V30 22141 N 918.475 -4.09664 -2.15742 0
M  V30 22142 C 918.325 -3.22231 -1.08477 0
M  V30 22143 O 918.235 -3.68951 0.0600489 0
M  V30 22144 N 918.275 -1.76692 -1.48799 0
M  V30 22145 C 918.375 -1.41695 -2.57602 0
M  V30 22146 N 918.325 -0.107296 -2.75791 0
M  V30 22147 C 918.525 -2.29178 -3.69733 0
M  V30 22148 C 918.575 -3.62753 -3.42653 0
M  V30 22149 H 921.315 -7.45488 -4.45578 0
M  V30 22150 H 921.585 -5.86232 -3.67314 0
M  V30 22151 H 920.718 -7.84508 -2.24507 0
M  V30 22152 H 918.063 -5.73556 -0.888715 0
M  V30 22153 H 917.783 -5.9096 -3.88638 0
M  V30 22154 H 916.792 -6.66053 -2.58894 0
M  V30 22155 H 918.626 -8.16339 -3.92049 0
M  V30 22156 H 918.698 -4.33052 -4.24913 0
M  V30 22157 H 918.596 -1.9103 -4.71577 0
M  V30 22158 H 918.208 0.521221 -1.95056 0
M  V30 22159 H 918.404 0.286429 -3.70695 0
M  V30 22160 P 916.755 -8.7635 -1.60911 0
M  V30 22161 O 916.535 -10.1388 -1.11561 0
M  V30 22162 O 915.965 -8.36503 -2.79617 0
M  V30 22163 O 916.505 -7.71806 -0.42951 0
M  V30 22164 C 917.445 -7.67148 0.673689 0
M  V30 22165 C 916.715 -7.33374 1.95559 0
M  V30 22166 O 916.505 -5.88721 2.00726 0
M  V30 22167 C 915.315 -7.92526 2.10483 0
M  V30 22168 O 914.925 -8.02971 3.47653 0
M  V30 22169 C 914.435 -6.89602 1.41652 0
M  V30 22170 C 915.145 -5.59201 1.75185 0
M  V30 22171 N 915.095 -4.58235 0.662552 0
M  V30 22172 H 917.934 -8.65116 0.777161 0
M  V30 22173 H 918.206 -6.90173 0.474152 0
M  V30 22174 H 917.338 -7.66548 2.79458 0
M  V30 22175 P 913.375 -8.03563 3.84925 0
M  V30 22176 O 913.155 -8.85821 5.0569 0
M  V30 22177 O 912.585 -8.41101 2.65469 0
M  V30 22178 O 913.125 -6.4965 4.18908 0
M  V30 22179 C 914.065 -5.81037 5.05421 0
M  V30 22180 C 913.335 -4.78366 5.89277 0
M  V30 22181 O 913.125 -3.58302 5.08433 0
M  V30 22182 C 911.935 -5.17448 6.36119 0
M  V30 22183 O 911.545 -4.45271 7.53232 0
M  V30 22184 C 911.055 -4.74639 5.19936 0
M  V30 22185 C 911.765 -3.49432 4.70418 0
M  V30 22186 N 911.715 -3.31776 3.22945 0
M  V30 22187 H 914.554 -6.54213 5.71376 0
M  V30 22188 H 914.826 -5.30492 4.44033 0
M  V30 22189 H 913.958 -4.55889 6.76652 0
M  V30 22190 P 909.995 -4.23843 7.83734 0
M  V30 22191 O 909.775 -4.19407 9.29784 0
M  V30 22192 O 909.205 -5.24426 7.09156 0
M  V30 22193 O 909.745 -2.7935 7.20758 0
M  V30 22194 C 910.685 -1.7299 7.50419 0
M  V30 22195 C 909.955 -0.406376 7.57911 0
M  V30 22196 O 909.745 0.0897726 6.21935 0
M  V30 22197 C 908.555 -0.447224 8.1878 0
M  V30 22198 O 908.165 0.825065 8.71101 0
M  V30 22199 C 907.675 -0.783801 6.99623 0
M  V30 22200 C 908.385 -0.0619192 5.85967 0
M  V30 22201 N 908.335 -0.7859 4.56281 0
M  V30 22202 H 911.174 -1.93423 8.4679 0
M  V30 22203 H 911.446 -1.68181 6.71046 0
M  V30 22204 H 910.578 0.289041 8.15388 0
M  V30 22205 P 906.615 1.17771 8.83182 0
M  V30 22206 O 906.395 2.07206 9.98732 0
M  V30 22207 O 905.825 -0.0743816 8.81969 0
M  V30 22208 O 906.365 1.97652 7.47304 0
M  V30 22209 C 907.305 3.01133 7.08783 0
M  V30 22210 C 906.575 4.12613 6.37049 0
M  V30 22211 O 906.365 3.72827 4.97879 0
M  V30 22212 C 905.175 4.45085 6.88694 0
M  V30 22213 O 904.785 5.7877 6.5624 0
M  V30 22214 C 904.295 3.47817 6.12078 0
M  V30 22215 C 905.005 3.39414 4.77697 0
M  V30 22216 N 904.955 2.04615 4.15333 0
M  V30 22217 H 907.794 3.41248 7.98759 0
M  V30 22218 H 908.066 2.5837 6.41742 0
M  V30 22219 H 907.198 5.02657 6.42673 0
M  V30 22220 P 903.235 6.144 6.45285 0
M  V30 22221 O 903.015 7.54673 6.86199 0
M  V30 22222 O 902.445 5.12391 7.179 0
M  V30 22223 O 902.985 5.99158 4.88404 0
M  V30 22224 C 903.925 6.60234 3.96415 0
M  V30 22225 C 903.195 7.08259 2.72856 0
M  V30 22226 O 902.985 5.9427 1.83651 0
M  V30 22227 C 901.795 7.64886 2.9555 0
M  V30 22228 O 901.405 8.53963 1.90717 0
M  V30 22229 C 900.915 6.4116 2.90739 0
M  V30 22230 C 901.625 5.55375 1.86963 0
M  V30 22231 N 901.575 4.09664 2.15742 0
M  V30 22232 H 904.414 7.45574 4.45629 0
M  V30 22233 H 904.686 5.86232 3.67314 0
M  V30 22234 H 903.818 7.84412 2.24479 0
M  V30 22235 P 899.855 8.7635 1.60911 0
M  V30 22236 O 899.635 10.1388 1.11561 0
M  V30 22237 O 899.065 8.36503 2.79617 0
M  V30 22238 O 899.605 7.71806 0.42951 0
M  V30 22239 C 900.545 7.66948 -0.673514 0
M  V30 22240 C 899.815 7.33374 -1.95559 0
M  V30 22241 O 899.605 5.88721 -2.00726 0
M  V30 22242 C 898.415 7.92218 -2.1125 0
M  V30 22243 O 898.025 8.02971 -3.47653 0
M  V30 22244 C 897.535 6.89504 -1.41631 0
M  V30 22245 C 898.245 5.59106 -1.75155 0
M  V30 22246 N 898.195 4.58136 -0.662409 0
M  V30 22247 C 898.045 3.26059 -1.02863 0
M  V30 22248 O 897.955 2.90743 -2.19009 0
M  V30 22249 N 898.005 2.35995 0.0155585 0
M  V30 22250 C 898.095 2.65248 1.35603 0
M  V30 22251 O 898.045 1.75605 2.20651 0
M  V30 22252 C 898.245 4.05747 1.64698 0
M  V30 22253 C 898.355 4.42345 3.09553 0
M  V30 22254 C 898.295 4.96734 0.652411 0
M  V30 22255 H 901.036 8.64917 -0.776982 0
M  V30 22256 H 901.305 6.89974 -0.474015 0
M  V30 22257 H 900.438 7.66548 -2.79458 0
M  V30 22258 H 897.783 5.16076 -2.65138 0
M  V30 22259 H 897.504 7.06433 -0.329384 0
M  V30 22260 H 896.512 6.90829 -1.81996 0
M  V30 22261 H 898.346 8.90774 -1.62639 0
M  V30 22262 H 898.417 6.02181 0.895285 0
M  V30 22263 H 897.387 4.80252 3.45468 0
M  V30 22264 H 899.124 5.20015 3.22119 0
M  V30 22265 H 898.636 3.53269 3.67833 0
M  V30 22266 H 897.9 1.39558 -0.227499 0
M  V30 22267 P 896.475 8.03563 -3.84925 0
M  V30 22268 O 896.255 8.85821 -5.0569 0
M  V30 22269 O 895.685 8.41101 -2.65469 0
M  V30 22270 O 896.225 6.4965 -4.18908 0
M  V30 22271 C 897.165 5.81037 -5.05421 0
M  V30 22272 C 896.435 4.78366 -5.89277 0
M  V30 22273 O 896.225 3.58302 -5.08433 0
M  V30 22274 C 895.035 5.17448 -6.36119 0
M  V30 22275 O 894.645 4.45271 -7.53232 0
M  V30 22276 C 894.155 4.74639 -5.19936 0
M  V30 22277 C 894.865 3.49432 -4.70418 0
M  V30 22278 N 894.815 3.32099 -3.22613 0
M  V30 22279 C 894.895 4.28245 -2.25527 0
M  V30 22280 N 894.825 3.80823 -1.04874 0
M  V30 22281 C 894.675 2.44571 -1.23535 0
M  V30 22282 C 894.545 1.37068 -0.330675 0
M  V30 22283 N 894.535 1.51472 0.990824 0
M  V30 22284 N 894.425 0.138614 -0.848756 0
M  V30 22285 C 894.435 -0.00675923 -2.16999 0
M  V30 22286 N 894.555 0.904372 -3.11122 0
M  V30 22287 C 894.675 2.12707 -2.56212 0
M  V30 22288 H 897.654 6.54213 -5.71376 0
M  V30 22289 H 897.926 5.30936 -4.43503 0
M  V30 22290 H 897.058 4.55889 -6.76652 0
M  V30 22291 H 894.403 2.61715 -5.17932 0
M  V30 22292 H 894.123 5.52155 -4.41878 0
M  V30 22293 H 893.132 4.51981 -5.53374 0
M  V30 22294 H 894.966 6.25124 -6.55234 0
M  V30 22295 H 895.007 5.34372 -2.47488 0
M  V30 22296 H 894.626 2.45153 1.4078 0
M  V30 22297 H 894.437 0.688422 1.59911 0
M  V30 22298 H 894.329 -1.02584 -2.52346 0
M  V30 22299 P 893.095 4.23843 -7.83734 0
M  V30 22300 O 892.875 4.19407 -9.29784 0
M  V30 22301 O 892.305 5.24426 -7.09156 0
M  V30 22302 O 892.845 2.7935 -7.20758 0
M  V30 22303 C 893.785 1.7299 -7.50419 0
M  V30 22304 C 893.055 0.406376 -7.57911 0
M  V30 22305 O 892.845 -0.0897726 -6.21935 0
M  V30 22306 C 891.655 0.447224 -8.1878 0
M  V30 22307 O 891.265 -0.825065 -8.71101 0
M  V30 22308 C 890.775 0.783801 -6.99623 0
M  V30 22309 C 891.485 0.0619192 -5.85967 0
M  V30 22310 N 891.435 0.790462 -4.56202 0
M  V30 22311 H 894.274 1.93423 -8.4679 0
M  V30 22312 H 894.546 1.68852 -6.70877 0
M  V30 22313 H 893.678 -0.289041 -8.15388 0
M  V30 22314 H 891.023 -0.927006 -5.72848 0
M  V30 22315 H 890.743 1.86973 -6.82036 0
M  V30 22316 H 889.752 0.403953 -7.13357 0
M  V30 22317 H 891.586 1.20599 -8.97534 0
M  V30 22318 P 889.715 -1.17771 -8.83182 0
M  V30 22319 O 889.495 -2.07206 -9.98732 0
M  V30 22320 O 888.925 0.0743816 -8.81969 0
M  V30 22321 O 889.465 -1.97652 -7.47304 0
M  V30 22322 C 890.405 -3.01133 -7.08783 0
M  V30 22323 C 889.675 -4.12613 -6.37049 0
M  V30 22324 O 889.465 -3.72827 -4.97879 0
M  V30 22325 C 888.275 -4.45085 -6.88694 0
M  V30 22326 O 887.885 -5.7877 -6.5624 0
M  V30 22327 C 887.395 -3.47817 -6.12078 0
M  V30 22328 C 888.105 -3.39414 -4.77697 0
M  V30 22329 N 888.055 -2.04615 -4.15333 0
M  V30 22330 H 890.894 -3.41248 -7.98759 0
M  V30 22331 H 891.166 -2.5837 -6.41742 0
M  V30 22332 H 890.298 -5.02657 -6.42673 0
M  V30 22333 P 886.335 -6.144 -6.45285 0
M  V30 22334 O 886.115 -7.54673 -6.86199 0
M  V30 22335 O 885.545 -5.12391 -7.179 0
M  V30 22336 O 886.085 -5.99158 -4.88404 0
M  V30 22337 C 887.025 -6.60234 -3.96415 0
M  V30 22338 C 886.295 -7.08259 -2.72856 0
M  V30 22339 O 886.085 -5.9427 -1.83651 0
M  V30 22340 C 884.895 -7.64886 -2.9555 0
M  V30 22341 O 884.505 -8.53963 -1.90717 0
M  V30 22342 C 884.015 -6.4116 -2.90739 0
M  V30 22343 C 884.725 -5.55375 -1.86963 0
M  V30 22344 N 884.675 -4.09448 -2.16152 0
M  V30 22345 H 887.514 -7.45574 -4.45629 0
M  V30 22346 H 887.786 -5.85864 -3.679 0
M  V30 22347 H 886.918 -7.84412 -2.24479 0
M  V30 22348 H 884.263 -5.73457 -0.888562 0
M  V30 22349 H 883.983 -5.90877 -3.88583 0
M  V30 22350 H 882.992 -6.6596 -2.58858 0
M  V30 22351 H 884.826 -8.16339 -3.92049 0
M  V30 22352 P 882.955 -8.7635 -1.60911 0
M  V30 22353 O 882.735 -10.1388 -1.11561 0
M  V30 22354 O 882.165 -8.36503 -2.79617 0
M  V30 22355 O 882.705 -7.71806 -0.42951 0
M  V30 22356 C 883.645 -7.67148 0.673689 0
M  V30 22357 C 882.915 -7.33374 1.95559 0
M  V30 22358 O 882.705 -5.88721 2.00726 0
M  V30 22359 C 881.515 -7.92526 2.10483 0
M  V30 22360 O 881.125 -8.02971 3.47653 0
M  V30 22361 C 880.635 -6.89602 1.41652 0
M  V30 22362 C 881.345 -5.59201 1.75185 0
M  V30 22363 N 881.295 -4.58235 0.662552 0
M  V30 22364 H 884.134 -8.65116 0.777161 0
M  V30 22365 H 884.406 -6.90173 0.474152 0
M  V30 22366 H 883.538 -7.66548 2.79458 0
M  V30 22367 P 879.575 -8.03563 3.84925 0
M  V30 22368 O 879.355 -8.85821 5.0569 0
M  V30 22369 O 878.785 -8.41101 2.65469 0
M  V30 22370 O 879.325 -6.4965 4.18908 0
M  V30 22371 C 880.265 -5.81037 5.05421 0
M  V30 22372 C 879.535 -4.78366 5.89277 0
M  V30 22373 O 879.325 -3.58302 5.08433 0
M  V30 22374 C 878.135 -5.17448 6.36119 0
M  V30 22375 O 877.745 -4.45271 7.53232 0
M  V30 22376 C 877.255 -4.74639 5.19936 0
M  V30 22377 C 877.965 -3.49432 4.70418 0
M  V30 22378 N 877.915 -3.31776 3.22945 0
M  V30 22379 H 880.754 -6.54213 5.71376 0
M  V30 22380 H 881.026 -5.30492 4.44033 0
M  V30 22381 H 880.158 -4.55889 6.76652 0
M  V30 22382 P 876.195 -4.23843 7.83734 0
M  V30 22383 O 875.975 -4.19407 9.29784 0
M  V30 22384 O 875.405 -5.24426 7.09156 0
M  V30 22385 O 875.945 -2.79386 7.20852 0
M  V30 22386 C 876.885 -1.7299 7.50419 0
M  V30 22387 C 876.155 -0.41401 7.5797 0
M  V30 22388 O 875.945 0.089787 6.22035 0
M  V30 22389 C 874.755 -0.447224 8.1878 0
M  V30 22390 O 874.365 0.825159 8.71201 0
M  V30 22391 C 873.875 -0.783801 6.99623 0
M  V30 22392 C 874.585 -0.0619192 5.85967 0
M  V30 22393 N 874.535 -0.7859 4.56281 0
M  V30 22394 C 874.385 -0.0359258 3.39981 0
M  V30 22395 O 874.295 1.19723 3.49038 0
M  V30 22396 N 874.335 -0.869151 2.14025 0
M  V30 22397 C 874.435 -2.01207 2.14363 0
M  V30 22398 N 874.385 -2.58978 0.954287 0
M  V30 22399 C 874.585 -2.80817 3.32215 0
M  V30 22400 C 874.635 -2.13785 4.50884 0
M  V30 22401 H 877.375 -1.93401 8.46693 0
M  V30 22402 H 877.645 -1.68181 6.71046 0
M  V30 22403 H 876.778 0.289076 8.15488 0
M  V30 22404 H 874.123 0.927166 5.72947 0
M  V30 22405 H 873.843 -1.87 6.82132 0
M  V30 22406 H 872.852 -0.404009 7.13457 0
M  V30 22407 H 874.686 -1.20599 8.97534 0
M  V30 22408 H 874.758 -2.70295 5.43162 0
M  V30 22409 H 874.656 -3.89465 3.27406 0
M  V30 22410 H 874.268 -2.01616 0.107046 0
M  V30 22411 H 874.464 -3.61403 0.873101 0
M  V30 22412 P 872.815 1.17771 8.83182 0
M  V30 22413 O 872.595 2.07206 9.98732 0
M  V30 22414 O 872.025 -0.0743816 8.81969 0
M  V30 22415 O 872.565 1.97652 7.47304 0
M  V30 22416 C 873.505 3.01055 7.08599 0
M  V30 22417 C 872.775 4.12613 6.37049 0
M  V30 22418 O 872.565 3.72827 4.97879 0
M  V30 22419 C 871.375 4.45719 6.88164 0
M  V30 22420 O 870.985 5.7877 6.5624 0
M  V30 22421 C 870.495 3.47768 6.11991 0
M  V30 22422 C 871.205 3.39356 4.77615 0
M  V30 22423 N 871.155 2.04571 4.15244 0
M  V30 22424 C 871.005 1.98587 2.78314 0
M  V30 22425 O 870.915 2.98134 2.08835 0
M  V30 22426 N 870.965 0.714467 2.24925 0
M  V30 22427 C 871.055 -0.470001 2.94169 0
M  V30 22428 O 871.005 -1.55587 2.35195 0
M  V30 22429 C 871.205 -0.312541 4.36783 0
M  V30 22430 C 871.315 -1.57711 5.16352 0
M  V30 22431 C 871.255 0.914512 4.92583 0
M  V30 22432 H 873.996 3.41169 7.98575 0
M  V30 22433 H 874.265 2.58295 6.41556 0
M  V30 22434 H 873.398 5.02657 6.42673 0
M  V30 22435 H 870.743 4.11637 4.08885 0
M  V30 22436 H 870.464 2.49626 6.61679 0
M  V30 22437 H 869.472 3.86566 6.00778 0
M  V30 22438 H 871.306 4.29943 7.96918 0
M  V30 22439 H 871.377 1.00937 6.00374 0
M  V30 22440 H 870.347 -1.80153 5.63503 0
M  V30 22441 H 872.084 -1.4566 5.94104 0
M  V30 22442 H 871.596 -2.40664 4.49645 0
M  V30 22443 H 870.86 0.647622 1.25697 0
M  V30 22444 P 869.435 6.144 6.45285 0
M  V30 22445 O 869.215 7.54673 6.86199 0
M  V30 22446 O 868.645 5.12391 7.179 0
M  V30 22447 O 869.185 5.99158 4.88404 0
M  V30 22448 C 870.125 6.60234 3.96415 0
M  V30 22449 C 869.395 7.08259 2.72856 0
M  V30 22450 O 869.185 5.9427 1.83651 0
M  V30 22451 C 867.995 7.64886 2.9555 0
M  V30 22452 O 867.605 8.53963 1.90717 0
M  V30 22453 C 867.115 6.4116 2.90739 0
M  V30 22454 C 867.825 5.55375 1.86963 0
M  V30 22455 N 867.775 4.09664 2.15742 0
M  V30 22456 H 870.614 7.45574 4.45629 0
M  V30 22457 H 870.886 5.86232 3.67314 0
M  V30 22458 H 870.018 7.84412 2.24479 0
M  V30 22459 P 866.055 8.7635 1.60911 0
M  V30 22460 O 865.835 10.1388 1.11561 0
M  V30 22461 O 865.265 8.36503 2.79617 0
M  V30 22462 O 865.805 7.71806 0.42951 0
M  V30 22463 C 866.745 7.67148 -0.673689 0
M  V30 22464 C 866.015 7.33374 -1.95559 0
M  V30 22465 O 865.805 5.88721 -2.00726 0
M  V30 22466 C 864.615 7.92526 -2.10483 0
M  V30 22467 O 864.225 8.02971 -3.47653 0
M  V30 22468 C 863.735 6.89602 -1.41652 0
M  V30 22469 C 864.445 5.59201 -1.75185 0
M  V30 22470 N 864.395 4.58235 -0.662552 0
M  V30 22471 H 867.234 8.65116 -0.777161 0
M  V30 22472 H 867.506 6.90173 -0.474152 0
M  V30 22473 H 866.638 7.66548 -2.79458 0
M  V30 22474 P 862.675 8.03563 -3.84925 0
M  V30 22475 O 862.455 8.85821 -5.0569 0
M  V30 22476 O 861.885 8.41101 -2.65469 0
M  V30 22477 O 862.425 6.49734 -4.18962 0
M  V30 22478 C 863.365 5.81037 -5.05421 0
M  V30 22479 C 862.635 4.79018 -5.88876 0
M  V30 22480 O 862.425 3.58359 -5.08515 0
M  V30 22481 C 861.235 5.17448 -6.36119 0
M  V30 22482 O 860.845 4.45322 -7.53318 0
M  V30 22483 C 860.355 4.74639 -5.19936 0
M  V30 22484 C 861.065 3.49432 -4.70418 0
M  V30 22485 N 861.015 3.31776 -3.22945 0
M  V30 22486 C 860.865 2.02742 -2.72939 0
M  V30 22487 O 860.775 1.08301 -3.52749 0
M  V30 22488 N 860.815 1.96117 -1.22063 0
M  V30 22489 C 860.915 2.8878 -0.551566 0
M  V30 22490 N 860.865 2.65609 0.750198 0
M  V30 22491 C 861.065 4.22457 -1.03707 0
M  V30 22492 C 861.115 4.37979 -2.39113 0
M  V30 22493 H 863.855 6.54138 -5.7131 0
M  V30 22494 H 864.125 5.30492 -4.44033 0
M  V30 22495 H 863.258 4.55945 -6.76735 0
M  V30 22496 H 860.603 2.6176 -5.18021 0
M  V30 22497 H 860.323 5.52233 -4.41941 0
M  V30 22498 H 859.332 4.52045 -5.53452 0
M  V30 22499 H 861.166 6.25124 -6.55234 0
M  V30 22500 H 861.238 5.37936 -2.80552 0
M  V30 22501 H 861.136 5.07528 -0.359553 0
M  V30 22502 H 860.748 1.69403 1.09847 0
M  V30 22503 H 860.944 3.43701 1.41792 0
M  V30 22504 P 859.295 4.23843 -7.83734 0
M  V30 22505 O 859.075 4.19407 -9.29784 0
M  V30 22506 O 858.505 5.24426 -7.09156 0
M  V30 22507 O 859.045 2.7935 -7.20758 0
M  V30 22508 C 859.985 1.7299 -7.50419 0
M  V30 22509 C 859.255 0.406376 -7.57911 0
M  V30 22510 O 859.045 -0.0897726 -6.21935 0
M  V30 22511 C 857.855 0.447224 -8.1878 0
M  V30 22512 O 857.465 -0.825065 -8.71101 0
M  V30 22513 C 856.975 0.783801 -6.99623 0
M  V30 22514 C 857.685 0.0619192 -5.85967 0
M  V30 22515 N 857.635 0.790462 -4.56202 0
M  V30 22516 C 857.715 2.13895 -4.34171 0
M  V30 22517 N 857.645 2.46449 -3.08687 0
M  V30 22518 C 857.495 1.2525 -2.43697 0
M  V30 22519 C 857.365 0.914535 -1.07318 0
M  V30 22520 N 857.355 1.80782 -0.0887348 0
M  V30 22521 N 857.245 -0.386745 -0.768133 0
M  V30 22522 C 857.255 -1.28096 -1.75159 0
M  V30 22523 N 857.375 -1.09708 -3.04861 0
M  V30 22524 C 857.495 0.214857 -3.32306 0
M  V30 22525 H 860.474 1.93423 -8.4679 0
M  V30 22526 H 860.746 1.68852 -6.70877 0
M  V30 22527 H 859.878 -0.289041 -8.15388 0
M  V30 22528 H 857.223 -0.927006 -5.72848 0
M  V30 22529 H 856.943 1.86973 -6.82036 0
M  V30 22530 H 855.952 0.403953 -7.13357 0
M  V30 22531 H 857.786 1.20599 -8.97534 0
M  V30 22532 H 857.827 2.86846 -5.14318 0
M  V30 22533 H 857.446 2.81082 -0.302037 0
M  V30 22534 H 857.257 1.49688 0.889064 0
M  V30 22535 H 857.149 -2.31317 -1.43855 0
M  V30 22536 P 855.915 -1.17771 -8.83182 0
M  V30 22537 O 855.695 -2.07206 -9.98732 0
M  V30 22538 O 855.125 0.0743816 -8.81969 0
M  V30 22539 O 855.665 -1.97652 -7.47304 0
M  V30 22540 C 856.605 -3.01133 -7.08783 0
M  V30 22541 C 855.875 -4.12613 -6.37049 0
M  V30 22542 O 855.665 -3.72827 -4.97879 0
M  V30 22543 C 854.475 -4.45085 -6.88694 0
M  V30 22544 O 854.085 -5.7877 -6.5624 0
M  V30 22545 C 853.595 -3.47817 -6.12078 0
M  V30 22546 C 854.305 -3.39414 -4.77697 0
M  V30 22547 N 854.255 -2.04615 -4.15333 0
M  V30 22548 H 857.094 -3.41248 -7.98759 0
M  V30 22549 H 857.366 -2.5837 -6.41742 0
M  V30 22550 H 856.498 -5.02657 -6.42673 0
M  V30 22551 P 852.535 -6.144 -6.45285 0
M  V30 22552 O 852.315 -7.54673 -6.86199 0
M  V30 22553 O 851.745 -5.12391 -7.179 0
M  V30 22554 O 852.285 -5.99158 -4.88404 0
M  V30 22555 C 853.225 -6.60234 -3.96415 0
M  V30 22556 C 852.495 -7.08259 -2.72856 0
M  V30 22557 O 852.285 -5.9427 -1.83651 0
M  V30 22558 C 851.095 -7.64886 -2.9555 0
M  V30 22559 O 850.705 -8.53963 -1.90717 0
M  V30 22560 C 850.215 -6.4116 -2.90739 0
M  V30 22561 C 850.925 -5.55375 -1.86963 0
M  V30 22562 N 850.875 -4.09664 -2.15742 0
M  V30 22563 H 853.714 -7.45574 -4.45629 0
M  V30 22564 H 853.986 -5.86232 -3.67314 0
M  V30 22565 H 853.118 -7.84412 -2.24479 0
M  V30 22566 P 849.155 -8.7635 -1.60911 0
M  V30 22567 O 848.935 -10.1388 -1.11561 0
M  V30 22568 O 848.365 -8.36503 -2.79617 0
M  V30 22569 O 848.905 -7.71806 -0.42951 0
M  V30 22570 C 849.845 -7.67148 0.673689 0
M  V30 22571 C 849.115 -7.33374 1.95559 0
M  V30 22572 O 848.905 -5.88721 2.00726 0
M  V30 22573 C 847.715 -7.92526 2.10483 0
M  V30 22574 O 847.325 -8.02971 3.47653 0
M  V30 22575 C 846.835 -6.89602 1.41652 0
M  V30 22576 C 847.545 -5.59201 1.75185 0
M  V30 22577 N 847.495 -4.58235 0.662552 0
M  V30 22578 H 850.334 -8.65116 0.777161 0
M  V30 22579 H 850.606 -6.90173 0.474152 0
M  V30 22580 H 849.738 -7.66548 2.79458 0
M  V30 22581 P 845.775 -8.03563 3.84925 0
M  V30 22582 O 845.555 -8.85821 5.0569 0
M  V30 22583 O 844.985 -8.41101 2.65469 0
M  V30 22584 O 845.525 -6.4965 4.18908 0
M  V30 22585 C 846.465 -5.81037 5.05421 0
M  V30 22586 C 845.735 -4.78366 5.89277 0
M  V30 22587 O 845.525 -3.58302 5.08433 0
M  V30 22588 C 844.335 -5.17448 6.36119 0
M  V30 22589 O 843.945 -4.45271 7.53232 0
M  V30 22590 C 843.455 -4.74639 5.19936 0
M  V30 22591 C 844.165 -3.49432 4.70418 0
M  V30 22592 N 844.115 -3.32099 3.22613 0
M  V30 22593 H 846.954 -6.54213 5.71376 0
M  V30 22594 H 847.226 -5.30936 4.43503 0
M  V30 22595 H 846.358 -4.55889 6.76652 0
M  V30 22596 H 843.703 -2.61715 5.17932 0
M  V30 22597 H 843.423 -5.52155 4.41878 0
M  V30 22598 H 842.432 -4.51981 5.53374 0
M  V30 22599 H 844.266 -6.25124 6.55234 0
M  V30 22600 P 842.395 -4.23843 7.83734 0
M  V30 22601 O 842.175 -4.19407 9.29784 0
M  V30 22602 O 841.605 -5.24426 7.09156 0
M  V30 22603 O 842.145 -2.7935 7.20758 0
M  V30 22604 C 843.085 -1.7299 7.50419 0
M  V30 22605 C 842.355 -0.406376 7.57911 0
M  V30 22606 O 842.145 0.0897726 6.21935 0
M  V30 22607 C 840.955 -0.447224 8.1878 0
M  V30 22608 O 840.565 0.825065 8.71101 0
M  V30 22609 C 840.075 -0.783801 6.99623 0
M  V30 22610 C 840.785 -0.0619192 5.85967 0
M  V30 22611 N 840.735 -0.7859 4.56281 0
M  V30 22612 H 843.574 -1.93423 8.4679 0
M  V30 22613 H 843.846 -1.68181 6.71046 0
M  V30 22614 H 842.978 0.289041 8.15388 0
M  V30 22615 P 839.015 1.17771 8.83182 0
M  V30 22616 O 838.795 2.07206 9.98732 0
M  V30 22617 O 838.225 -0.0743816 8.81969 0
M  V30 22618 O 838.765 1.97652 7.47304 0
M  V30 22619 C 839.705 3.01133 7.08783 0
M  V30 22620 C 838.975 4.12613 6.37049 0
M  V30 22621 O 838.765 3.72827 4.97879 0
M  V30 22622 C 837.575 4.45085 6.88694 0
M  V30 22623 O 837.185 5.7877 6.5624 0
M  V30 22624 C 836.695 3.47817 6.12078 0
M  V30 22625 C 837.405 3.39414 4.77697 0
M  V30 22626 N 837.355 2.04615 4.15333 0
M  V30 22627 H 840.194 3.41248 7.98759 0
M  V30 22628 H 840.466 2.5837 6.41742 0
M  V30 22629 H 839.598 5.02657 6.42673 0
M  V30 22630 P 835.635 6.144 6.45285 0
M  V30 22631 O 835.415 7.54673 6.86199 0
M  V30 22632 O 834.845 5.12391 7.179 0
M  V30 22633 O 835.385 5.99158 4.88404 0
M  V30 22634 C 836.325 6.60234 3.96415 0
M  V30 22635 C 835.595 7.08259 2.72856 0
M  V30 22636 O 835.385 5.9427 1.83651 0
M  V30 22637 C 834.195 7.64886 2.9555 0
M  V30 22638 O 833.805 8.53963 1.90717 0
M  V30 22639 C 833.315 6.4116 2.90739 0
M  V30 22640 C 834.025 5.55375 1.86963 0
M  V30 22641 N 833.975 4.09664 2.15742 0
M  V30 22642 H 836.814 7.45574 4.45629 0
M  V30 22643 H 837.086 5.86232 3.67314 0
M  V30 22644 H 836.218 7.84412 2.24479 0
M  V30 22645 P 832.255 8.7635 1.60911 0
M  V30 22646 O 832.035 10.1388 1.11561 0
M  V30 22647 O 831.465 8.36503 2.79617 0
M  V30 22648 O 832.005 7.71806 0.42951 0
M  V30 22649 C 832.945 7.67148 -0.673689 0
M  V30 22650 C 832.215 7.33374 -1.95559 0
M  V30 22651 O 832.005 5.88721 -2.00726 0
M  V30 22652 C 830.815 7.92526 -2.10483 0
M  V30 22653 O 830.425 8.02971 -3.47653 0
M  V30 22654 C 829.935 6.89602 -1.41652 0
M  V30 22655 C 830.645 5.59201 -1.75185 0
M  V30 22656 N 830.595 4.58235 -0.662552 0
M  V30 22657 H 833.434 8.65116 -0.777161 0
M  V30 22658 H 833.706 6.90173 -0.474152 0
M  V30 22659 H 832.838 7.66548 -2.79458 0
M  V30 22660 P 828.875 8.03563 -3.84925 0
M  V30 22661 O 828.655 8.85821 -5.0569 0
M  V30 22662 O 828.085 8.41101 -2.65469 0
M  V30 22663 O 828.625 6.4965 -4.18908 0
M  V30 22664 C 829.565 5.81037 -5.05421 0
M  V30 22665 C 828.835 4.78366 -5.89277 0
M  V30 22666 O 828.625 3.58302 -5.08433 0
M  V30 22667 C 827.435 5.17448 -6.36119 0
M  V30 22668 O 827.045 4.45271 -7.53232 0
M  V30 22669 C 826.555 4.74639 -5.19936 0
M  V30 22670 C 827.265 3.49432 -4.70418 0
M  V30 22671 N 827.215 3.31776 -3.22945 0
M  V30 22672 H 830.054 6.54213 -5.71376 0
M  V30 22673 H 830.326 5.30492 -4.44033 0
M  V30 22674 H 829.458 4.55889 -6.76652 0
M  V30 22675 P 825.495 4.23843 -7.83734 0
M  V30 22676 O 825.275 4.19407 -9.29784 0
M  V30 22677 O 824.705 5.24426 -7.09156 0
M  V30 22678 O 825.245 2.7935 -7.20758 0
M  V30 22679 C 826.185 1.7299 -7.50419 0
M  V30 22680 C 825.455 0.406376 -7.57911 0
M  V30 22681 O 825.245 -0.0897726 -6.21935 0
M  V30 22682 C 824.055 0.447224 -8.1878 0
M  V30 22683 O 823.665 -0.825065 -8.71101 0
M  V30 22684 C 823.175 0.783801 -6.99623 0
M  V30 22685 C 823.885 0.0619192 -5.85967 0
M  V30 22686 N 823.835 0.790462 -4.56202 0
M  V30 22687 H 826.674 1.93423 -8.4679 0
M  V30 22688 H 826.946 1.68852 -6.70877 0
M  V30 22689 H 826.078 -0.289041 -8.15388 0
M  V30 22690 H 823.423 -0.927006 -5.72848 0
M  V30 22691 H 823.143 1.86973 -6.82036 0
M  V30 22692 H 822.152 0.403953 -7.13357 0
M  V30 22693 H 823.986 1.20599 -8.97534 0
M  V30 22694 P 822.115 -1.17771 -8.83182 0
M  V30 22695 O 821.895 -2.07206 -9.98732 0
M  V30 22696 O 821.325 0.0743816 -8.81969 0
M  V30 22697 O 821.865 -1.97678 -7.474 0
M  V30 22698 C 822.805 -3.01133 -7.08783 0
M  V30 22699 C 822.075 -4.1203 -6.37546 0
M  V30 22700 O 821.865 -3.72887 -4.9796 0
M  V30 22701 C 820.675 -4.45085 -6.88694 0
M  V30 22702 O 820.285 -5.78836 -6.56315 0
M  V30 22703 C 819.795 -3.47817 -6.12078 0
M  V30 22704 C 820.505 -3.39414 -4.77697 0
M  V30 22705 N 820.455 -2.04615 -4.15333 0
M  V30 22706 C 820.305 -1.96929 -2.77162 0
M  V30 22707 O 820.215 -3.02017 -2.12006 0
M  V30 22708 N 820.255 -0.55485 -2.24237 0
M  V30 22709 C 820.355 0.367808 -2.9169 0
M  V30 22710 N 820.305 1.53426 -2.29427 0
M  V30 22711 C 820.505 0.319148 -4.33828 0
M  V30 22712 C 820.555 -0.920672 -4.90433 0
M  V30 22713 H 823.295 -3.41209 -7.98667 0
M  V30 22714 H 823.565 -2.5837 -6.41742 0
M  V30 22715 H 822.698 -5.02718 -6.42752 0
M  V30 22716 H 820.043 -4.11779 -4.09026 0
M  V30 22717 H 819.763 -2.49661 -6.61772 0
M  V30 22718 H 818.772 -3.86674 -6.00946 0
M  V30 22719 H 820.606 -4.29991 -7.97006 0
M  V30 22720 H 820.678 -1.00589 -5.98303 0
M  V30 22721 H 820.576 1.22639 -4.93799 0
M  V30 22722 H 820.188 1.56819 -1.27167 0
M  V30 22723 H 820.384 2.41062 -2.83063 0
M  V30 22724 P 818.735 -6.144 -6.45285 0
M  V30 22725 O 818.515 -7.54673 -6.86199 0
M  V30 22726 O 817.945 -5.12391 -7.179 0
M  V30 22727 O 818.485 -5.99158 -4.88404 0
M  V30 22728 C 819.425 -6.60234 -3.96415 0
M  V30 22729 C 818.695 -7.08259 -2.72856 0
M  V30 22730 O 818.485 -5.9427 -1.83651 0
M  V30 22731 C 817.295 -7.64886 -2.9555 0
M  V30 22732 O 816.905 -8.53963 -1.90717 0
M  V30 22733 C 816.415 -6.4116 -2.90739 0
M  V30 22734 C 817.125 -5.55375 -1.86963 0
M  V30 22735 N 817.075 -4.09664 -2.15742 0
M  V30 22736 H 819.914 -7.45574 -4.45629 0
M  V30 22737 H 820.186 -5.86232 -3.67314 0
M  V30 22738 H 819.318 -7.84412 -2.24479 0
M  V30 22739 P 815.355 -8.7635 -1.60911 0
M  V30 22740 O 815.135 -10.1388 -1.11561 0
M  V30 22741 O 814.565 -8.36503 -2.79617 0
M  V30 22742 O 815.105 -7.71806 -0.42951 0
M  V30 22743 C 816.045 -7.67148 0.673689 0
M  V30 22744 C 815.315 -7.33374 1.95559 0
M  V30 22745 O 815.105 -5.88721 2.00726 0
M  V30 22746 C 813.915 -7.92526 2.10483 0
M  V30 22747 O 813.525 -8.02971 3.47653 0
M  V30 22748 C 813.035 -6.89602 1.41652 0
M  V30 22749 C 813.745 -5.59201 1.75185 0
M  V30 22750 N 813.695 -4.58235 0.662552 0
M  V30 22751 H 816.534 -8.65116 0.777161 0
M  V30 22752 H 816.806 -6.90173 0.474152 0
M  V30 22753 H 815.938 -7.66548 2.79458 0
M  V30 22754 P 811.975 -8.03563 3.84925 0
M  V30 22755 O 811.755 -8.85821 5.0569 0
M  V30 22756 O 811.185 -8.41101 2.65469 0
M  V30 22757 O 811.725 -6.4965 4.18908 0
M  V30 22758 C 812.665 -5.81037 5.05421 0
M  V30 22759 C 811.935 -4.78366 5.89277 0
M  V30 22760 O 811.725 -3.58302 5.08433 0
M  V30 22761 C 810.535 -5.17448 6.36119 0
M  V30 22762 O 810.145 -4.45271 7.53232 0
M  V30 22763 C 809.655 -4.74639 5.19936 0
M  V30 22764 C 810.365 -3.49432 4.70418 0
M  V30 22765 N 810.315 -3.32099 3.22613 0
M  V30 22766 C 810.395 -4.28245 2.25527 0
M  V30 22767 N 810.325 -3.80823 1.04874 0
M  V30 22768 C 810.175 -2.44571 1.23535 0
M  V30 22769 C 810.045 -1.37068 0.330675 0
M  V30 22770 N 810.035 -1.51472 -0.990824 0
M  V30 22771 N 809.925 -0.138614 0.848756 0
M  V30 22772 C 809.935 0.00675923 2.16999 0
M  V30 22773 N 810.055 -0.904372 3.11122 0
M  V30 22774 C 810.175 -2.12707 2.56212 0
M  V30 22775 H 813.154 -6.54213 5.71376 0
M  V30 22776 H 813.426 -5.30936 4.43503 0
M  V30 22777 H 812.558 -4.55889 6.76652 0
M  V30 22778 H 809.903 -2.61715 5.17932 0
M  V30 22779 H 809.623 -5.52155 4.41878 0
M  V30 22780 H 808.632 -4.51981 5.53374 0
M  V30 22781 H 810.466 -6.25124 6.55234 0
M  V30 22782 H 810.507 -5.34372 2.47488 0
M  V30 22783 H 810.126 -2.45153 -1.4078 0
M  V30 22784 H 809.937 -0.688422 -1.59911 0
M  V30 22785 H 809.829 1.02584 2.52346 0
M  V30 22786 P 808.595 -4.23843 7.83734 0
M  V30 22787 O 808.375 -4.19407 9.29784 0
M  V30 22788 O 807.805 -5.24426 7.09156 0
M  V30 22789 O 808.345 -2.7935 7.20758 0
M  V30 22790 C 809.285 -1.7299 7.50419 0
M  V30 22791 C 808.555 -0.406376 7.57911 0
M  V30 22792 O 808.345 0.0897726 6.21935 0
M  V30 22793 C 807.155 -0.447224 8.1878 0
M  V30 22794 O 806.765 0.825065 8.71101 0
M  V30 22795 C 806.275 -0.783801 6.99623 0
M  V30 22796 C 806.985 -0.0619192 5.85967 0
M  V30 22797 N 806.935 -0.790462 4.56202 0
M  V30 22798 H 809.774 -1.93423 8.4679 0
M  V30 22799 H 810.046 -1.68852 6.70877 0
M  V30 22800 H 809.178 0.289041 8.15388 0
M  V30 22801 H 806.523 0.927006 5.72848 0
M  V30 22802 H 806.243 -1.86973 6.82036 0
M  V30 22803 H 805.252 -0.403953 7.13357 0
M  V30 22804 H 807.086 -1.20599 8.97534 0
M  V30 22805 P 805.215 1.17771 8.83182 0
M  V30 22806 O 804.995 2.07206 9.98732 0
M  V30 22807 O 804.425 -0.0743816 8.81969 0
M  V30 22808 O 804.965 1.97652 7.47304 0
M  V30 22809 C 805.905 3.01133 7.08783 0
M  V30 22810 C 805.175 4.12613 6.37049 0
M  V30 22811 O 804.965 3.72827 4.97879 0
M  V30 22812 C 803.775 4.45085 6.88694 0
M  V30 22813 O 803.385 5.7877 6.5624 0
M  V30 22814 C 802.895 3.47817 6.12078 0
M  V30 22815 C 803.605 3.39414 4.77697 0
M  V30 22816 N 803.555 2.04199 4.15538 0
M  V30 22817 H 806.394 3.41248 7.98759 0
M  V30 22818 H 806.666 2.57728 6.42 0
M  V30 22819 H 805.798 5.02657 6.42673 0
M  V30 22820 H 803.143 4.11708 4.08956 0
M  V30 22821 H 802.863 2.49626 6.61679 0
M  V30 22822 H 801.872 3.8662 6.00862 0
M  V30 22823 H 803.706 4.29991 7.97006 0
M  V30 22824 P 801.835 6.144 6.45285 0
M  V30 22825 O 801.615 7.54673 6.86199 0
M  V30 22826 O 801.045 5.12391 7.179 0
M  V30 22827 O 801.585 5.99158 4.88404 0
M  V30 22828 C 802.525 6.60234 3.96415 0
M  V30 22829 C 801.795 7.08259 2.72856 0
M  V30 22830 O 801.585 5.9427 1.83651 0
M  V30 22831 C 800.395 7.64886 2.9555 0
M  V30 22832 O 800.005 8.53963 1.90717 0
M  V30 22833 C 799.515 6.4116 2.90739 0
M  V30 22834 C 800.225 5.55375 1.86963 0
M  V30 22835 N 800.175 4.09664 2.15742 0
M  V30 22836 H 803.014 7.45574 4.45629 0
M  V30 22837 H 803.286 5.86232 3.67314 0
M  V30 22838 H 802.418 7.84412 2.24479 0
M  V30 22839 P 798.455 8.7635 1.60911 0
M  V30 22840 O 798.235 10.1388 1.11561 0
M  V30 22841 O 797.665 8.36503 2.79617 0
M  V30 22842 O 798.205 7.71806 0.42951 0
M  V30 22843 C 799.145 7.66948 -0.673514 0
M  V30 22844 C 798.415 7.33374 -1.95559 0
M  V30 22845 O 798.205 5.88721 -2.00726 0
M  V30 22846 C 797.015 7.92218 -2.1125 0
M  V30 22847 O 796.625 8.02971 -3.47653 0
M  V30 22848 C 796.135 6.89504 -1.41631 0
M  V30 22849 C 796.845 5.59106 -1.75155 0
M  V30 22850 N 796.795 4.58136 -0.662409 0
M  V30 22851 C 796.645 3.26059 -1.02863 0
M  V30 22852 O 796.555 2.90743 -2.19009 0
M  V30 22853 N 796.605 2.35995 0.0155585 0
M  V30 22854 C 796.695 2.65248 1.35603 0
M  V30 22855 O 796.645 1.75605 2.20651 0
M  V30 22856 C 796.845 4.05747 1.64698 0
M  V30 22857 C 796.955 4.42345 3.09553 0
M  V30 22858 C 796.895 4.96734 0.652411 0
M  V30 22859 H 799.636 8.64917 -0.776982 0
M  V30 22860 H 799.905 6.89974 -0.474015 0
M  V30 22861 H 799.038 7.66548 -2.79458 0
M  V30 22862 H 796.383 5.16076 -2.65138 0
M  V30 22863 H 796.104 7.06433 -0.329384 0
M  V30 22864 H 795.112 6.90829 -1.81996 0
M  V30 22865 H 796.946 8.90774 -1.62639 0
M  V30 22866 H 797.017 6.02181 0.895285 0
M  V30 22867 H 795.987 4.80252 3.45468 0
M  V30 22868 H 797.724 5.20015 3.22119 0
M  V30 22869 H 797.236 3.53269 3.67833 0
M  V30 22870 H 796.5 1.39558 -0.227499 0
M  V30 22871 P 795.075 8.03563 -3.84925 0
M  V30 22872 O 794.855 8.85821 -5.0569 0
M  V30 22873 O 794.285 8.41101 -2.65469 0
M  V30 22874 O 794.825 6.4965 -4.18908 0
M  V30 22875 C 795.765 5.81037 -5.05421 0
M  V30 22876 C 795.035 4.78366 -5.89277 0
M  V30 22877 O 794.825 3.58302 -5.08433 0
M  V30 22878 C 793.635 5.17448 -6.36119 0
M  V30 22879 O 793.245 4.45271 -7.53232 0
M  V30 22880 C 792.755 4.74639 -5.19936 0
M  V30 22881 C 793.465 3.49432 -4.70418 0
M  V30 22882 N 793.415 3.31776 -3.22945 0
M  V30 22883 H 796.254 6.54213 -5.71376 0
M  V30 22884 H 796.526 5.30492 -4.44033 0
M  V30 22885 H 795.658 4.55889 -6.76652 0
M  V30 22886 P 791.695 4.23843 -7.83734 0
M  V30 22887 O 791.475 4.19407 -9.29784 0
M  V30 22888 O 790.905 5.24426 -7.09156 0
M  V30 22889 O 791.445 2.7935 -7.20758 0
M  V30 22890 C 792.385 1.7299 -7.50419 0
M  V30 22891 C 791.655 0.406376 -7.57911 0
M  V30 22892 O 791.445 -0.0897726 -6.21935 0
M  V30 22893 C 790.255 0.447224 -8.1878 0
M  V30 22894 O 789.865 -0.825065 -8.71101 0
M  V30 22895 C 789.375 0.783801 -6.99623 0
M  V30 22896 C 790.085 0.0619192 -5.85967 0
M  V30 22897 N 790.035 0.790462 -4.56202 0
M  V30 22898 H 792.874 1.93423 -8.4679 0
M  V30 22899 H 793.146 1.68852 -6.70877 0
M  V30 22900 H 792.278 -0.289041 -8.15388 0
M  V30 22901 H 789.623 -0.927006 -5.72848 0
M  V30 22902 H 789.343 1.86973 -6.82036 0
M  V30 22903 H 788.352 0.403953 -7.13357 0
M  V30 22904 H 790.186 1.20599 -8.97534 0
M  V30 22905 P 788.315 -1.17771 -8.83182 0
M  V30 22906 O 788.095 -2.07206 -9.98732 0
M  V30 22907 O 787.525 0.0743816 -8.81969 0
M  V30 22908 O 788.065 -1.97652 -7.47304 0
M  V30 22909 C 789.005 -3.01133 -7.08783 0
M  V30 22910 C 788.275 -4.12613 -6.37049 0
M  V30 22911 O 788.065 -3.72827 -4.97879 0
M  V30 22912 C 786.875 -4.45085 -6.88694 0
M  V30 22913 O 786.485 -5.7877 -6.5624 0
M  V30 22914 C 785.995 -3.47817 -6.12078 0
M  V30 22915 C 786.705 -3.39414 -4.77697 0
M  V30 22916 N 786.655 -2.04615 -4.15333 0
M  V30 22917 H 789.494 -3.41248 -7.98759 0
M  V30 22918 H 789.766 -2.5837 -6.41742 0
M  V30 22919 H 788.898 -5.02657 -6.42673 0
M  V30 22920 P 784.935 -6.144 -6.45285 0
M  V30 22921 O 784.715 -7.54673 -6.86199 0
M  V30 22922 O 784.145 -5.12391 -7.179 0
M  V30 22923 O 784.685 -5.99158 -4.88404 0
M  V30 22924 C 785.625 -6.60234 -3.96415 0
M  V30 22925 C 784.895 -7.08259 -2.72856 0
M  V30 22926 O 784.685 -5.9427 -1.83651 0
M  V30 22927 C 783.495 -7.64886 -2.9555 0
M  V30 22928 O 783.105 -8.53963 -1.90717 0
M  V30 22929 C 782.615 -6.4116 -2.90739 0
M  V30 22930 C 783.325 -5.55375 -1.86963 0
M  V30 22931 N 783.275 -4.09664 -2.15742 0
M  V30 22932 H 786.114 -7.45574 -4.45629 0
M  V30 22933 H 786.386 -5.86232 -3.67314 0
M  V30 22934 H 785.518 -7.84412 -2.24479 0
M  V30 22935 P 781.555 -8.7635 -1.60911 0
M  V30 22936 O 781.335 -10.1388 -1.11561 0
M  V30 22937 O 780.765 -8.36503 -2.79617 0
M  V30 22938 O 781.305 -7.71806 -0.42951 0
M  V30 22939 C 782.245 -7.67148 0.673689 0
M  V30 22940 C 781.515 -7.33374 1.95559 0
M  V30 22941 O 781.305 -5.88721 2.00726 0
M  V30 22942 C 780.115 -7.92526 2.10483 0
M  V30 22943 O 779.725 -8.02971 3.47653 0
M  V30 22944 C 779.235 -6.89602 1.41652 0
M  V30 22945 C 779.945 -5.59201 1.75185 0
M  V30 22946 N 779.895 -4.58235 0.662552 0
M  V30 22947 H 782.734 -8.65116 0.777161 0
M  V30 22948 H 783.006 -6.90173 0.474152 0
M  V30 22949 H 782.138 -7.66548 2.79458 0
M  V30 22950 P 778.175 -8.03563 3.84925 0
M  V30 22951 O 777.955 -8.85821 5.0569 0
M  V30 22952 O 777.385 -8.41101 2.65469 0
M  V30 22953 O 777.925 -6.4965 4.18908 0
M  V30 22954 C 778.865 -5.81037 5.05421 0
M  V30 22955 C 778.135 -4.78366 5.89277 0
M  V30 22956 O 777.925 -3.58302 5.08433 0
M  V30 22957 C 776.735 -5.17448 6.36119 0
M  V30 22958 O 776.345 -4.45271 7.53232 0
M  V30 22959 C 775.855 -4.74639 5.19936 0
M  V30 22960 C 776.565 -3.49432 4.70418 0
M  V30 22961 N 776.515 -3.31776 3.22945 0
M  V30 22962 H 779.354 -6.54213 5.71376 0
M  V30 22963 H 779.626 -5.30492 4.44033 0
M  V30 22964 H 778.758 -4.55889 6.76652 0
M  V30 22965 P 774.795 -4.23843 7.83734 0
M  V30 22966 O 774.575 -4.19407 9.29784 0
M  V30 22967 O 774.005 -5.24426 7.09156 0
M  V30 22968 O 774.545 -2.7935 7.20758 0
M  V30 22969 C 775.485 -1.7299 7.50419 0
M  V30 22970 C 774.755 -0.406376 7.57911 0
M  V30 22971 O 774.545 0.0897726 6.21935 0
M  V30 22972 C 773.355 -0.447224 8.1878 0
M  V30 22973 O 772.965 0.825065 8.71101 0
M  V30 22974 C 772.475 -0.783801 6.99623 0
M  V30 22975 C 773.185 -0.0619192 5.85967 0
M  V30 22976 N 773.135 -0.7859 4.56281 0
M  V30 22977 H 775.974 -1.93423 8.4679 0
M  V30 22978 H 776.246 -1.68181 6.71046 0
M  V30 22979 H 775.378 0.289041 8.15388 0
M  V30 22980 P 771.415 1.17771 8.83182 0
M  V30 22981 O 771.195 2.07206 9.98732 0
M  V30 22982 O 770.625 -0.0743816 8.81969 0
M  V30 22983 O 771.165 1.97652 7.47304 0
M  V30 22984 C 772.105 3.01133 7.08783 0
M  V30 22985 C 771.375 4.12613 6.37049 0
M  V30 22986 O 771.165 3.72827 4.97879 0
M  V30 22987 C 769.975 4.45085 6.88694 0
M  V30 22988 O 769.585 5.7877 6.5624 0
M  V30 22989 C 769.095 3.47817 6.12078 0
M  V30 22990 C 769.805 3.39414 4.77697 0
M  V30 22991 N 769.755 2.04615 4.15333 0
M  V30 22992 H 772.594 3.41248 7.98759 0
M  V30 22993 H 772.866 2.5837 6.41742 0
M  V30 22994 H 771.998 5.02657 6.42673 0
M  V30 22995 P 768.035 6.144 6.45285 0
M  V30 22996 O 767.815 7.54673 6.86199 0
M  V30 22997 O 767.245 5.12391 7.179 0
M  V30 22998 O 767.785 5.99158 4.88404 0
M  V30 22999 C 768.725 6.60234 3.96415 0
M  V30 23000 C 767.995 7.08259 2.72856 0
M  V30 23001 O 767.785 5.9427 1.83651 0
M  V30 23002 C 766.595 7.64886 2.9555 0
M  V30 23003 O 766.205 8.53963 1.90717 0
M  V30 23004 C 765.715 6.4116 2.90739 0
M  V30 23005 C 766.425 5.55375 1.86963 0
M  V30 23006 N 766.375 4.09448 2.16152 0
M  V30 23007 H 769.214 7.45574 4.45629 0
M  V30 23008 H 769.486 5.85864 3.679 0
M  V30 23009 H 768.618 7.84412 2.24479 0
M  V30 23010 H 765.963 5.73457 0.888562 0
M  V30 23011 H 765.683 5.90877 3.88583 0
M  V30 23012 H 764.692 6.6596 2.58858 0
M  V30 23013 H 766.526 8.16339 3.92049 0
M  V30 23014 P 764.656 8.7635 1.60911 0
M  V30 23015 O 764.436 10.1388 1.11561 0
M  V30 23016 O 763.866 8.36503 2.79617 0
M  V30 23017 O 764.406 7.71806 0.42951 0
M  V30 23018 C 765.346 7.67148 -0.673689 0
M  V30 23019 C 764.616 7.33374 -1.95559 0
M  V30 23020 O 764.406 5.88721 -2.00726 0
M  V30 23021 C 763.216 7.92526 -2.10483 0
M  V30 23022 O 762.826 8.02971 -3.47653 0
M  V30 23023 C 762.336 6.89602 -1.41652 0
M  V30 23024 C 763.046 5.59201 -1.75185 0
M  V30 23025 N 762.996 4.58235 -0.662552 0
M  V30 23026 H 765.835 8.65116 -0.777161 0
M  V30 23027 H 766.107 6.90173 -0.474152 0
M  V30 23028 H 765.239 7.66548 -2.79458 0
M  V30 23029 P 761.276 8.03563 -3.84925 0
M  V30 23030 O 761.056 8.85821 -5.0569 0
M  V30 23031 O 760.486 8.41101 -2.65469 0
M  V30 23032 O 761.026 6.4965 -4.18908 0
M  V30 23033 C 761.966 5.81037 -5.05421 0
M  V30 23034 C 761.236 4.78366 -5.89277 0
M  V30 23035 O 761.026 3.58302 -5.08433 0
M  V30 23036 C 759.836 5.17448 -6.36119 0
M  V30 23037 O 759.446 4.45271 -7.53232 0
M  V30 23038 C 758.956 4.74639 -5.19936 0
M  V30 23039 C 759.666 3.49432 -4.70418 0
M  V30 23040 N 759.616 3.31776 -3.22945 0
M  V30 23041 H 762.455 6.54213 -5.71376 0
M  V30 23042 H 762.727 5.30492 -4.44033 0
M  V30 23043 H 761.859 4.55889 -6.76652 0
M  V30 23044 P 757.896 4.23843 -7.83734 0
M  V30 23045 O 757.676 4.19407 -9.29784 0
M  V30 23046 O 757.106 5.24426 -7.09156 0
M  V30 23047 O 757.646 2.7935 -7.20758 0
M  V30 23048 C 758.586 1.7299 -7.50419 0
M  V30 23049 C 757.856 0.406376 -7.57911 0
M  V30 23050 O 757.646 -0.0897726 -6.21935 0
M  V30 23051 C 756.456 0.447224 -8.1878 0
M  V30 23052 O 756.066 -0.825065 -8.71101 0
M  V30 23053 C 755.576 0.783801 -6.99623 0
M  V30 23054 C 756.286 0.0619192 -5.85967 0
M  V30 23055 N 756.236 0.790462 -4.56202 0
M  V30 23056 H 759.075 1.93423 -8.4679 0
M  V30 23057 H 759.347 1.68852 -6.70877 0
M  V30 23058 H 758.479 -0.289041 -8.15388 0
M  V30 23059 H 755.824 -0.927006 -5.72848 0
M  V30 23060 H 755.544 1.86973 -6.82036 0
M  V30 23061 H 754.553 0.403953 -7.13357 0
M  V30 23062 H 756.387 1.20599 -8.97534 0
M  V30 23063 P 754.516 -1.17771 -8.83182 0
M  V30 23064 O 754.296 -2.07206 -9.98732 0
M  V30 23065 O 753.726 0.0743816 -8.81969 0
M  V30 23066 O 754.266 -1.97652 -7.47304 0
M  V30 23067 C 755.206 -3.01133 -7.08783 0
M  V30 23068 C 754.476 -4.12613 -6.37049 0
M  V30 23069 O 754.266 -3.72827 -4.97879 0
M  V30 23070 C 753.076 -4.45085 -6.88694 0
M  V30 23071 O 752.686 -5.7877 -6.5624 0
M  V30 23072 C 752.196 -3.47817 -6.12078 0
M  V30 23073 C 752.906 -3.39414 -4.77697 0
M  V30 23074 N 752.856 -2.04615 -4.15333 0
M  V30 23075 H 755.695 -3.41248 -7.98759 0
M  V30 23076 H 755.967 -2.5837 -6.41742 0
M  V30 23077 H 755.099 -5.02657 -6.42673 0
M  V30 23078 P 751.136 -6.144 -6.45285 0
M  V30 23079 O 750.916 -7.54673 -6.86199 0
M  V30 23080 O 750.346 -5.12391 -7.179 0
M  V30 23081 O 750.886 -5.99158 -4.88404 0
M  V30 23082 C 751.826 -6.60234 -3.96415 0
M  V30 23083 C 751.096 -7.08259 -2.72856 0
M  V30 23084 O 750.886 -5.9427 -1.83651 0
M  V30 23085 C 749.696 -7.64886 -2.9555 0
M  V30 23086 O 749.306 -8.53963 -1.90717 0
M  V30 23087 C 748.816 -6.4116 -2.90739 0
M  V30 23088 C 749.526 -5.55375 -1.86963 0
M  V30 23089 N 749.476 -4.09664 -2.15742 0
M  V30 23090 H 752.315 -7.45574 -4.45629 0
M  V30 23091 H 752.587 -5.86232 -3.67314 0
M  V30 23092 H 751.719 -7.84412 -2.24479 0
M  V30 23093 P 747.756 -8.7635 -1.60911 0
M  V30 23094 O 747.536 -10.1388 -1.11561 0
M  V30 23095 O 746.966 -8.36503 -2.79617 0
M  V30 23096 O 747.506 -7.71806 -0.42951 0
M  V30 23097 C 748.446 -7.67148 0.673689 0
M  V30 23098 C 747.716 -7.33374 1.95559 0
M  V30 23099 O 747.506 -5.88721 2.00726 0
M  V30 23100 C 746.316 -7.92526 2.10483 0
M  V30 23101 O 745.926 -8.02971 3.47653 0
M  V30 23102 C 745.436 -6.89602 1.41652 0
M  V30 23103 C 746.146 -5.59201 1.75185 0
M  V30 23104 N 746.096 -4.58301 0.657969 0
M  V30 23105 H 748.935 -8.65116 0.777161 0
M  V30 23106 H 749.207 -6.9022 0.46725 0
M  V30 23107 H 748.339 -7.66548 2.79458 0
M  V30 23108 H 745.684 -5.16165 2.65183 0
M  V30 23109 H 745.404 -7.06433 0.329384 0
M  V30 23110 H 744.413 -6.90926 1.82021 0
M  V30 23111 H 746.247 -8.90873 1.62657 0
M  V30 23112 P 744.376 -8.03563 3.84925 0
M  V30 23113 O 744.156 -8.85821 5.0569 0
M  V30 23114 O 743.586 -8.41101 2.65469 0
M  V30 23115 O 744.126 -6.4965 4.18908 0
M  V30 23116 C 745.066 -5.81037 5.05421 0
M  V30 23117 C 744.336 -4.78366 5.89277 0
M  V30 23118 O 744.126 -3.58302 5.08433 0
M  V30 23119 C 742.936 -5.17448 6.36119 0
M  V30 23120 O 742.546 -4.45271 7.53232 0
M  V30 23121 C 742.056 -4.74639 5.19936 0
M  V30 23122 C 742.766 -3.49432 4.70418 0
M  V30 23123 N 742.716 -3.31776 3.22945 0
M  V30 23124 H 745.555 -6.54213 5.71376 0
M  V30 23125 H 745.827 -5.30492 4.44033 0
M  V30 23126 H 744.959 -4.55889 6.76652 0
M  V30 23127 P 740.996 -4.23843 7.83734 0
M  V30 23128 O 740.776 -4.19407 9.29784 0
M  V30 23129 O 740.206 -5.24426 7.09156 0
M  V30 23130 O 740.746 -2.7935 7.20758 0
M  V30 23131 C 741.686 -1.7299 7.50419 0
M  V30 23132 C 740.956 -0.406376 7.57911 0
M  V30 23133 O 740.746 0.0897726 6.21935 0
M  V30 23134 C 739.556 -0.447224 8.1878 0
M  V30 23135 O 739.166 0.825065 8.71101 0
M  V30 23136 C 738.676 -0.783801 6.99623 0
M  V30 23137 C 739.386 -0.0619192 5.85967 0
M  V30 23138 N 739.336 -0.7859 4.56281 0
M  V30 23139 H 742.175 -1.93423 8.4679 0
M  V30 23140 H 742.447 -1.68181 6.71046 0
M  V30 23141 H 741.579 0.289041 8.15388 0
M  V30 23142 P 737.616 1.17771 8.83182 0
M  V30 23143 O 737.396 2.07206 9.98732 0
M  V30 23144 O 736.826 -0.0743816 8.81969 0
M  V30 23145 O 737.366 1.97652 7.47304 0
M  V30 23146 C 738.306 3.01133 7.08783 0
M  V30 23147 C 737.576 4.12613 6.37049 0
M  V30 23148 O 737.366 3.72827 4.97879 0
M  V30 23149 C 736.176 4.45085 6.88694 0
M  V30 23150 O 735.786 5.7877 6.5624 0
M  V30 23151 C 735.296 3.47817 6.12078 0
M  V30 23152 C 736.006 3.39414 4.77697 0
M  V30 23153 N 735.956 2.04615 4.15333 0
M  V30 23154 H 738.795 3.41248 7.98759 0
M  V30 23155 H 739.067 2.5837 6.41742 0
M  V30 23156 H 738.199 5.02657 6.42673 0
M  V30 23157 P 734.236 6.144 6.45285 0
M  V30 23158 O 734.016 7.54673 6.86199 0
M  V30 23159 O 733.446 5.12391 7.179 0
M  V30 23160 O 733.986 5.99158 4.88404 0
M  V30 23161 C 734.926 6.60234 3.96415 0
M  V30 23162 C 734.196 7.08259 2.72856 0
M  V30 23163 O 733.986 5.9427 1.83651 0
M  V30 23164 C 732.796 7.64886 2.9555 0
M  V30 23165 O 732.406 8.53963 1.90717 0
M  V30 23166 C 731.916 6.4116 2.90739 0
M  V30 23167 C 732.626 5.55375 1.86963 0
M  V30 23168 N 732.576 4.09448 2.16152 0
M  V30 23169 C 732.656 3.46824 3.37593 0
M  V30 23170 N 732.586 2.17422 3.29777 0
M  V30 23171 C 732.436 1.93065 1.94427 0
M  V30 23172 C 732.306 0.738053 1.20141 0
M  V30 23173 N 732.296 -0.474256 1.74676 0
M  V30 23174 N 732.186 0.850049 -0.13045 0
M  V30 23175 C 732.196 2.06169 -0.676992 0
M  V30 23176 N 732.316 3.23842 -0.101312 0
M  V30 23177 C 732.436 3.09402 1.23122 0
M  V30 23178 H 735.415 7.45574 4.45629 0
M  V30 23179 H 735.687 5.85864 3.679 0
M  V30 23180 H 734.819 7.84412 2.24479 0
M  V30 23181 H 732.164 5.73457 0.888562 0
M  V30 23182 H 731.884 5.90877 3.88583 0
M  V30 23183 H 730.893 6.6596 2.58858 0
M  V30 23184 H 732.727 8.16339 3.92049 0
M  V30 23185 H 732.768 4.00505 4.3174 0
M  V30 23186 H 732.387 -0.581337 2.76658 0
M  V30 23187 H 732.198 -1.30811 1.14888 0
M  V30 23188 H 732.09 2.08295 -1.75542 0
M  V30 23189 P 730.856 8.7635 1.60911 0
M  V30 23190 O 730.636 10.1388 1.11561 0
M  V30 23191 O 730.066 8.36503 2.79617 0
M  V30 23192 O 730.606 7.71806 0.42951 0
M  V30 23193 C 731.546 7.67148 -0.673689 0
M  V30 23194 C 730.816 7.33374 -1.95559 0
M  V30 23195 O 730.606 5.88721 -2.00726 0
M  V30 23196 C 729.416 7.92526 -2.10483 0
M  V30 23197 O 729.026 8.02971 -3.47653 0
M  V30 23198 C 728.536 6.89602 -1.41652 0
M  V30 23199 C 729.246 5.59201 -1.75185 0
M  V30 23200 N 729.196 4.58235 -0.662552 0
M  V30 23201 C 729.276 4.7683 0.704049 0
M  V30 23202 N 729.196 3.66233 1.39775 0
M  V30 23203 C 729.056 2.66526 0.431739 0
M  V30 23204 C 728.926 1.26394 0.575992 0
M  V30 23205 O 728.906 0.589894 1.60503 0
M  V30 23206 N 728.806 0.62859 -0.67177 0
M  V30 23207 C 728.806 1.27134 -1.89385 0
M  V30 23208 N 728.676 0.492035 -2.96951 0
M  V30 23209 N 728.936 2.58978 -2.02907 0
M  V30 23210 C 729.056 3.22433 -0.832218 0
M  V30 23211 H 732.035 8.65116 -0.777161 0
M  V30 23212 H 732.307 6.90173 -0.474152 0
M  V30 23213 H 731.439 7.66548 -2.79458 0
M  V30 23214 H 728.784 5.16254 -2.65229 0
M  V30 23215 H 728.504 7.06532 -0.329431 0
M  V30 23216 H 727.513 6.91023 -1.82047 0
M  V30 23217 H 729.347 8.90971 -1.62675 0
M  V30 23218 H 729.396 5.74954 1.16305 0
M  V30 23219 H 728.714 -0.366713 -0.674793 0
M  V30 23220 H 728.677 0.908532 -3.91188 0
M  V30 23221 H 728.576 -0.528253 -2.85758 0
M  V30 23222 P 727.476 8.03563 -3.84925 0
M  V30 23223 O 727.256 8.85821 -5.0569 0
M  V30 23224 O 726.686 8.41101 -2.65469 0
M  V30 23225 O 727.226 6.4965 -4.18908 0
M  V30 23226 C 728.166 5.81037 -5.05421 0
M  V30 23227 C 727.436 4.78366 -5.89277 0
M  V30 23228 O 727.226 3.58302 -5.08433 0
M  V30 23229 C 726.036 5.17448 -6.36119 0
M  V30 23230 O 725.646 4.45271 -7.53232 0
M  V30 23231 C 725.156 4.74639 -5.19936 0
M  V30 23232 C 725.866 3.49432 -4.70418 0
M  V30 23233 N 725.816 3.31776 -3.22945 0
M  V30 23234 H 728.655 6.54213 -5.71376 0
M  V30 23235 H 728.927 5.30492 -4.44033 0
M  V30 23236 H 728.059 4.55889 -6.76652 0
M  V30 23237 P 724.096 4.23843 -7.83734 0
M  V30 23238 O 723.876 4.19407 -9.29784 0
M  V30 23239 O 723.306 5.24426 -7.09156 0
M  V30 23240 O 723.846 2.7935 -7.20758 0
M  V30 23241 C 724.786 1.7299 -7.50419 0
M  V30 23242 C 724.056 0.406376 -7.57911 0
M  V30 23243 O 723.846 -0.0897726 -6.21935 0
M  V30 23244 C 722.656 0.447224 -8.1878 0
M  V30 23245 O 722.266 -0.825065 -8.71101 0
M  V30 23246 C 721.776 0.783801 -6.99623 0
M  V30 23247 C 722.486 0.0619192 -5.85967 0
M  V30 23248 N 722.436 0.7859 -4.56281 0
M  V30 23249 H 725.275 1.93423 -8.4679 0
M  V30 23250 H 725.547 1.68181 -6.71046 0
M  V30 23251 H 724.679 -0.289041 -8.15388 0
M  V30 23252 P 720.716 -1.17771 -8.83182 0
M  V30 23253 O 720.496 -2.07206 -9.98732 0
M  V30 23254 O 719.926 0.0743816 -8.81969 0
M  V30 23255 O 720.466 -1.97652 -7.47304 0
M  V30 23256 C 721.406 -3.01055 -7.08599 0
M  V30 23257 C 720.676 -4.12613 -6.37049 0
M  V30 23258 O 720.466 -3.72827 -4.97879 0
M  V30 23259 C 719.276 -4.45719 -6.88164 0
M  V30 23260 O 718.886 -5.7877 -6.5624 0
M  V30 23261 C 718.396 -3.47768 -6.11991 0
M  V30 23262 C 719.106 -3.39356 -4.77615 0
M  V30 23263 N 719.056 -2.04571 -4.15244 0
M  V30 23264 C 718.906 -1.98587 -2.78314 0
M  V30 23265 O 718.816 -2.98134 -2.08835 0
M  V30 23266 N 718.866 -0.714467 -2.24925 0
M  V30 23267 C 718.956 0.470001 -2.94169 0
M  V30 23268 O 718.906 1.55587 -2.35195 0
M  V30 23269 C 719.106 0.312541 -4.36783 0
M  V30 23270 C 719.216 1.57711 -5.16352 0
M  V30 23271 C 719.156 -0.914512 -4.92583 0
M  V30 23272 H 721.897 -3.41169 -7.98575 0
M  V30 23273 H 722.166 -2.58295 -6.41556 0
M  V30 23274 H 721.299 -5.02657 -6.42673 0
M  V30 23275 H 718.644 -4.11637 -4.08885 0
M  V30 23276 H 718.365 -2.49626 -6.61679 0
M  V30 23277 H 717.373 -3.86566 -6.00778 0
M  V30 23278 H 719.207 -4.29943 -7.96918 0
M  V30 23279 H 719.278 -1.00937 -6.00374 0
M  V30 23280 H 718.248 1.80153 -5.63503 0
M  V30 23281 H 719.985 1.4566 -5.94104 0
M  V30 23282 H 719.497 2.40664 -4.49645 0
M  V30 23283 H 718.761 -0.647622 -1.25697 0
M  V30 23284 P 717.336 -6.144 -6.45285 0
M  V30 23285 O 717.116 -7.54673 -6.86199 0
M  V30 23286 O 716.546 -5.12391 -7.179 0
M  V30 23287 O 717.086 -5.99158 -4.88404 0
M  V30 23288 C 718.026 -6.60234 -3.96415 0
M  V30 23289 C 717.296 -7.08259 -2.72856 0
M  V30 23290 O 717.086 -5.9427 -1.83651 0
M  V30 23291 C 715.896 -7.64886 -2.9555 0
M  V30 23292 O 715.506 -8.53963 -1.90717 0
M  V30 23293 C 715.016 -6.4116 -2.90739 0
M  V30 23294 C 715.726 -5.55375 -1.86963 0
M  V30 23295 N 715.676 -4.09664 -2.15742 0
M  V30 23296 H 718.515 -7.45574 -4.45629 0
M  V30 23297 H 718.787 -5.86232 -3.67314 0
M  V30 23298 H 717.919 -7.84412 -2.24479 0
M  V30 23299 P 713.956 -8.7635 -1.60911 0
M  V30 23300 O 713.736 -10.1388 -1.11561 0
M  V30 23301 O 713.166 -8.36503 -2.79617 0
M  V30 23302 O 713.706 -7.71806 -0.42951 0
M  V30 23303 C 714.646 -7.67148 0.673689 0
M  V30 23304 C 713.916 -7.33374 1.95559 0
M  V30 23305 O 713.706 -5.88721 2.00726 0
M  V30 23306 C 712.516 -7.92526 2.10483 0
M  V30 23307 O 712.126 -8.02971 3.47653 0
M  V30 23308 C 711.636 -6.89602 1.41652 0
M  V30 23309 C 712.346 -5.59201 1.75185 0
M  V30 23310 N 712.296 -4.58301 0.657969 0
M  V30 23311 H 715.135 -8.65116 0.777161 0
M  V30 23312 H 715.407 -6.9022 0.46725 0
M  V30 23313 H 714.539 -7.66548 2.79458 0
M  V30 23314 H 711.884 -5.16165 2.65183 0
M  V30 23315 H 711.604 -7.06433 0.329384 0
M  V30 23316 H 710.613 -6.90926 1.82021 0
M  V30 23317 H 712.447 -8.90873 1.62657 0
M  V30 23318 P 710.576 -8.03563 3.84925 0
M  V30 23319 O 710.356 -8.85821 5.0569 0
M  V30 23320 O 709.786 -8.41101 2.65469 0
M  V30 23321 O 710.326 -6.4965 4.18908 0
M  V30 23322 C 711.266 -5.81037 5.05421 0
M  V30 23323 C 710.536 -4.78366 5.89277 0
M  V30 23324 O 710.326 -3.58302 5.08433 0
M  V30 23325 C 709.136 -5.17448 6.36119 0
M  V30 23326 O 708.746 -4.45271 7.53232 0
M  V30 23327 C 708.256 -4.74639 5.19936 0
M  V30 23328 C 708.966 -3.49432 4.70418 0
M  V30 23329 N 708.916 -3.31776 3.22945 0
M  V30 23330 H 711.755 -6.54213 5.71376 0
M  V30 23331 H 712.027 -5.30492 4.44033 0
M  V30 23332 H 711.159 -4.55889 6.76652 0
M  V30 23333 P 707.196 -4.23843 7.83734 0
M  V30 23334 O 706.976 -4.19407 9.29784 0
M  V30 23335 O 706.406 -5.24426 7.09156 0
M  V30 23336 O 706.946 -2.7935 7.20758 0
M  V30 23337 C 707.886 -1.7299 7.50419 0
M  V30 23338 C 707.156 -0.406376 7.57911 0
M  V30 23339 O 706.946 0.0897726 6.21935 0
M  V30 23340 C 705.756 -0.447224 8.1878 0
M  V30 23341 O 705.366 0.825065 8.71101 0
M  V30 23342 C 704.876 -0.783801 6.99623 0
M  V30 23343 C 705.586 -0.0619192 5.85967 0
M  V30 23344 N 705.536 -0.7859 4.56281 0
M  V30 23345 H 708.375 -1.93423 8.4679 0
M  V30 23346 H 708.647 -1.68181 6.71046 0
M  V30 23347 H 707.779 0.289041 8.15388 0
M  V30 23348 P 703.816 1.17771 8.83182 0
M  V30 23349 O 703.596 2.07206 9.98732 0
M  V30 23350 O 703.026 -0.0743816 8.81969 0
M  V30 23351 O 703.566 1.97652 7.47304 0
M  V30 23352 C 704.506 3.01133 7.08783 0
M  V30 23353 C 703.776 4.12613 6.37049 0
M  V30 23354 O 703.566 3.72827 4.97879 0
M  V30 23355 C 702.376 4.45085 6.88694 0
M  V30 23356 O 701.986 5.7877 6.5624 0
M  V30 23357 C 701.496 3.47817 6.12078 0
M  V30 23358 C 702.206 3.39414 4.77697 0
M  V30 23359 N 702.156 2.04615 4.15333 0
M  V30 23360 H 704.995 3.41248 7.98759 0
M  V30 23361 H 705.267 2.5837 6.41742 0
M  V30 23362 H 704.399 5.02657 6.42673 0
M  V30 23363 P 700.436 6.144 6.45285 0
M  V30 23364 O 700.216 7.54673 6.86199 0
M  V30 23365 O 699.646 5.12391 7.179 0
M  V30 23366 O 700.186 5.99158 4.88404 0
M  V30 23367 C 701.126 6.60234 3.96415 0
M  V30 23368 C 700.396 7.08259 2.72856 0
M  V30 23369 O 700.186 5.9427 1.83651 0
M  V30 23370 C 698.996 7.64886 2.9555 0
M  V30 23371 O 698.606 8.53963 1.90717 0
M  V30 23372 C 698.116 6.4116 2.90739 0
M  V30 23373 C 698.826 5.55375 1.86963 0
M  V30 23374 N 698.776 4.09664 2.15742 0
M  V30 23375 H 701.615 7.45574 4.45629 0
M  V30 23376 H 701.887 5.86232 3.67314 0
M  V30 23377 H 701.019 7.84412 2.24479 0
M  V30 23378 P 697.056 8.7635 1.60911 0
M  V30 23379 O 696.836 10.1388 1.11561 0
M  V30 23380 O 696.266 8.36503 2.79617 0
M  V30 23381 O 696.806 7.71806 0.42951 0
M  V30 23382 C 697.746 7.67148 -0.673689 0
M  V30 23383 C 697.016 7.33374 -1.95559 0
M  V30 23384 O 696.806 5.88721 -2.00726 0
M  V30 23385 C 695.616 7.92526 -2.10483 0
M  V30 23386 O 695.226 8.02971 -3.47653 0
M  V30 23387 C 694.736 6.89602 -1.41652 0
M  V30 23388 C 695.446 5.59201 -1.75185 0
M  V30 23389 N 695.396 4.58235 -0.662552 0
M  V30 23390 H 698.235 8.65116 -0.777161 0
M  V30 23391 H 698.507 6.90173 -0.474152 0
M  V30 23392 H 697.639 7.66548 -2.79458 0
M  V30 23393 P 693.676 8.03563 -3.84925 0
M  V30 23394 O 693.456 8.85821 -5.0569 0
M  V30 23395 O 692.886 8.41101 -2.65469 0
M  V30 23396 O 693.426 6.4965 -4.18908 0
M  V30 23397 C 694.366 5.81037 -5.05421 0
M  V30 23398 C 693.636 4.78366 -5.89277 0
M  V30 23399 O 693.426 3.58302 -5.08433 0
M  V30 23400 C 692.236 5.17448 -6.36119 0
M  V30 23401 O 691.846 4.45271 -7.53232 0
M  V30 23402 C 691.356 4.74639 -5.19936 0
M  V30 23403 C 692.066 3.49432 -4.70418 0
M  V30 23404 N 692.016 3.31776 -3.22945 0
M  V30 23405 H 694.855 6.54213 -5.71376 0
M  V30 23406 H 695.127 5.30492 -4.44033 0
M  V30 23407 H 694.259 4.55889 -6.76652 0
M  V30 23408 P 690.296 4.23843 -7.83734 0
M  V30 23409 O 690.076 4.19407 -9.29784 0
M  V30 23410 O 689.506 5.24426 -7.09156 0
M  V30 23411 O 690.046 2.7935 -7.20758 0
M  V30 23412 C 690.986 1.7299 -7.50419 0
M  V30 23413 C 690.256 0.406376 -7.57911 0
M  V30 23414 O 690.046 -0.0897726 -6.21935 0
M  V30 23415 C 688.856 0.447224 -8.1878 0
M  V30 23416 O 688.466 -0.825065 -8.71101 0
M  V30 23417 C 687.976 0.783801 -6.99623 0
M  V30 23418 C 688.686 0.0619192 -5.85967 0
M  V30 23419 N 688.636 0.7859 -4.56281 0
M  V30 23420 C 688.716 2.14308 -4.31736 0
M  V30 23421 N 688.636 2.46106 -3.05116 0
M  V30 23422 C 688.496 1.23422 -2.4014 0
M  V30 23423 C 688.366 0.938381 -1.02409 0
M  V30 23424 O 688.346 1.70876 -0.0650402 0
M  V30 23425 N 688.246 -0.444647 -0.805413 0
M  V30 23426 C 688.246 -1.40829 -1.79435 0
M  V30 23427 N 688.116 -2.67213 -1.38558 0
M  V30 23428 N 688.376 -1.12947 -3.09005 0
M  V30 23429 C 688.496 0.204887 -3.32369 0
M  V30 23430 H 691.475 1.93423 -8.4679 0
M  V30 23431 H 691.747 1.68181 -6.71046 0
M  V30 23432 H 690.879 -0.289041 -8.15388 0
M  V30 23433 H 688.224 -0.927166 -5.72947 0
M  V30 23434 H 687.944 1.87 -6.82132 0
M  V30 23435 H 686.953 0.404009 -7.13457 0
M  V30 23436 H 688.787 1.20612 -8.97633 0
M  V30 23437 H 688.836 2.88284 -5.10874 0
M  V30 23438 H 688.154 -0.755087 0.140242 0
M  V30 23439 H 688.117 -3.43967 -2.0729 0
M  V30 23440 H 688.016 -2.88096 -0.380644 0
M  V30 23441 P 686.916 -1.17771 -8.83182 0
M  V30 23442 O 686.696 -2.07206 -9.98732 0
M  V30 23443 O 686.126 0.0743816 -8.81969 0
M  V30 23444 O 686.666 -1.97652 -7.47304 0
M  V30 23445 C 687.606 -3.01133 -7.08783 0
M  V30 23446 C 686.876 -4.12613 -6.37049 0
M  V30 23447 O 686.666 -3.72827 -4.97879 0
M  V30 23448 C 685.476 -4.45085 -6.88694 0
M  V30 23449 O 685.086 -5.7877 -6.5624 0
M  V30 23450 C 684.596 -3.47817 -6.12078 0
M  V30 23451 C 685.306 -3.39414 -4.77697 0
M  V30 23452 N 685.256 -2.04199 -4.15538 0
M  V30 23453 H 688.095 -3.41248 -7.98759 0
M  V30 23454 H 688.367 -2.57728 -6.42 0
M  V30 23455 H 687.499 -5.02657 -6.42673 0
M  V30 23456 H 684.844 -4.11708 -4.08956 0
M  V30 23457 H 684.564 -2.49626 -6.61679 0
M  V30 23458 H 683.573 -3.8662 -6.00862 0
M  V30 23459 H 685.407 -4.29991 -7.97006 0
M  V30 23460 P 683.536 -6.144 -6.45285 0
M  V30 23461 O 683.316 -7.54673 -6.86199 0
M  V30 23462 O 682.746 -5.12391 -7.179 0
M  V30 23463 O 683.286 -5.99158 -4.88404 0
M  V30 23464 C 684.226 -6.60234 -3.96415 0
M  V30 23465 C 683.496 -7.08259 -2.72856 0
M  V30 23466 O 683.286 -5.9427 -1.83651 0
M  V30 23467 C 682.096 -7.64886 -2.9555 0
M  V30 23468 O 681.706 -8.53963 -1.90717 0
M  V30 23469 C 681.216 -6.4116 -2.90739 0
M  V30 23470 C 681.926 -5.55375 -1.86963 0
M  V30 23471 N 681.876 -4.09448 -2.16152 0
M  V30 23472 H 684.715 -7.45574 -4.45629 0
M  V30 23473 H 684.987 -5.85864 -3.679 0
M  V30 23474 H 684.119 -7.84412 -2.24479 0
M  V30 23475 H 681.464 -5.73457 -0.888562 0
M  V30 23476 H 681.184 -5.90877 -3.88583 0
M  V30 23477 H 680.193 -6.6596 -2.58858 0
M  V30 23478 H 682.027 -8.16339 -3.92049 0
M  V30 23479 P 680.156 -8.7635 -1.60911 0
M  V30 23480 O 679.936 -10.1388 -1.11561 0
M  V30 23481 O 679.366 -8.36503 -2.79617 0
M  V30 23482 O 679.906 -7.71806 -0.42951 0
M  V30 23483 C 680.846 -7.67148 0.673689 0
M  V30 23484 C 680.116 -7.33374 1.95559 0
M  V30 23485 O 679.906 -5.88721 2.00726 0
M  V30 23486 C 678.716 -7.92526 2.10483 0
M  V30 23487 O 678.326 -8.02971 3.47653 0
M  V30 23488 C 677.836 -6.89602 1.41652 0
M  V30 23489 C 678.546 -5.59201 1.75185 0
M  V30 23490 N 678.496 -4.58235 0.662552 0
M  V30 23491 H 681.335 -8.65116 0.777161 0
M  V30 23492 H 681.607 -6.90173 0.474152 0
M  V30 23493 H 680.739 -7.66548 2.79458 0
M  V30 23494 P 676.776 -8.03563 3.84925 0
M  V30 23495 O 676.556 -8.85821 5.0569 0
M  V30 23496 O 675.986 -8.41101 2.65469 0
M  V30 23497 O 676.526 -6.49734 4.18962 0
M  V30 23498 C 677.466 -5.81037 5.05421 0
M  V30 23499 C 676.736 -4.79018 5.88876 0
M  V30 23500 O 676.526 -3.58359 5.08515 0
M  V30 23501 C 675.336 -5.17448 6.36119 0
M  V30 23502 O 674.946 -4.45322 7.53318 0
M  V30 23503 C 674.456 -4.74639 5.19936 0
M  V30 23504 C 675.166 -3.49432 4.70418 0
M  V30 23505 N 675.116 -3.31776 3.22945 0
M  V30 23506 C 674.966 -2.02742 2.72939 0
M  V30 23507 O 674.876 -1.08301 3.52749 0
M  V30 23508 N 674.916 -1.96117 1.22063 0
M  V30 23509 C 675.016 -2.8878 0.551566 0
M  V30 23510 N 674.966 -2.65609 -0.750198 0
M  V30 23511 C 675.166 -4.22457 1.03707 0
M  V30 23512 C 675.216 -4.37979 2.39113 0
M  V30 23513 H 677.956 -6.54138 5.7131 0
M  V30 23514 H 678.226 -5.30492 4.44033 0
M  V30 23515 H 677.359 -4.55945 6.76735 0
M  V30 23516 H 674.704 -2.6176 5.18021 0
M  V30 23517 H 674.424 -5.52233 4.41941 0
M  V30 23518 H 673.433 -4.52045 5.53452 0
M  V30 23519 H 675.267 -6.25124 6.55234 0
M  V30 23520 H 675.339 -5.37936 2.80552 0
M  V30 23521 H 675.237 -5.07528 0.359553 0
M  V30 23522 H 674.849 -1.69403 -1.09847 0
M  V30 23523 H 675.045 -3.43701 -1.41792 0
M  V30 23524 P 673.396 -4.23843 7.83734 0
M  V30 23525 O 673.176 -4.19407 9.29784 0
M  V30 23526 O 672.606 -5.24426 7.09156 0
M  V30 23527 O 673.146 -2.7935 7.20758 0
M  V30 23528 C 674.086 -1.7299 7.50419 0
M  V30 23529 C 673.356 -0.406376 7.57911 0
M  V30 23530 O 673.146 0.0897726 6.21935 0
M  V30 23531 C 671.956 -0.447224 8.1878 0
M  V30 23532 O 671.566 0.825065 8.71101 0
M  V30 23533 C 671.076 -0.783801 6.99623 0
M  V30 23534 C 671.786 -0.0619192 5.85967 0
M  V30 23535 N 671.736 -0.7859 4.56281 0
M  V30 23536 H 674.575 -1.93423 8.4679 0
M  V30 23537 H 674.847 -1.68181 6.71046 0
M  V30 23538 H 673.979 0.289041 8.15388 0
M  V30 23539 P 670.016 1.17771 8.83182 0
M  V30 23540 O 669.796 2.07206 9.98732 0
M  V30 23541 O 669.226 -0.0743816 8.81969 0
M  V30 23542 O 669.766 1.97652 7.47304 0
M  V30 23543 C 670.706 3.01133 7.08783 0
M  V30 23544 C 669.976 4.12613 6.37049 0
M  V30 23545 O 669.766 3.72827 4.97879 0
M  V30 23546 C 668.576 4.45085 6.88694 0
M  V30 23547 O 668.186 5.7877 6.5624 0
M  V30 23548 C 667.696 3.47817 6.12078 0
M  V30 23549 C 668.406 3.39414 4.77697 0
M  V30 23550 N 668.356 2.04199 4.15538 0
M  V30 23551 H 671.195 3.41248 7.98759 0
M  V30 23552 H 671.467 2.57728 6.42 0
M  V30 23553 H 670.599 5.02657 6.42673 0
M  V30 23554 H 667.944 4.11708 4.08956 0
M  V30 23555 H 667.664 2.49626 6.61679 0
M  V30 23556 H 666.673 3.8662 6.00862 0
M  V30 23557 H 668.507 4.29991 7.97006 0
M  V30 23558 P 666.636 6.144 6.45285 0
M  V30 23559 O 666.416 7.54673 6.86199 0
M  V30 23560 O 665.846 5.12391 7.179 0
M  V30 23561 O 666.386 5.99158 4.88404 0
M  V30 23562 C 667.326 6.60234 3.96415 0
M  V30 23563 C 666.596 7.08259 2.72856 0
M  V30 23564 O 666.386 5.9427 1.83651 0
M  V30 23565 C 665.196 7.64886 2.9555 0
M  V30 23566 O 664.806 8.53963 1.90717 0
M  V30 23567 C 664.316 6.4116 2.90739 0
M  V30 23568 C 665.026 5.55375 1.86963 0
M  V30 23569 N 664.976 4.09664 2.15742 0
M  V30 23570 H 667.815 7.45574 4.45629 0
M  V30 23571 H 668.087 5.86232 3.67314 0
M  V30 23572 H 667.219 7.84412 2.24479 0
M  V30 23573 P 663.256 8.7635 1.60911 0
M  V30 23574 O 663.036 10.1388 1.11561 0
M  V30 23575 O 662.466 8.36503 2.79617 0
M  V30 23576 O 663.006 7.71806 0.42951 0
M  V30 23577 C 663.946 7.67148 -0.673689 0
M  V30 23578 C 663.216 7.33374 -1.95559 0
M  V30 23579 O 663.006 5.88721 -2.00726 0
M  V30 23580 C 661.816 7.92526 -2.10483 0
M  V30 23581 O 661.426 8.02971 -3.47653 0
M  V30 23582 C 660.936 6.89602 -1.41652 0
M  V30 23583 C 661.646 5.59201 -1.75185 0
M  V30 23584 N 661.596 4.58235 -0.662552 0
M  V30 23585 H 664.435 8.65116 -0.777161 0
M  V30 23586 H 664.707 6.90173 -0.474152 0
M  V30 23587 H 663.839 7.66548 -2.79458 0
M  V30 23588 P 659.876 8.03563 -3.84925 0
M  V30 23589 O 659.656 8.85821 -5.0569 0
M  V30 23590 O 659.086 8.41101 -2.65469 0
M  V30 23591 O 659.626 6.4965 -4.18908 0
M  V30 23592 C 660.566 5.81037 -5.05421 0
M  V30 23593 C 659.836 4.78366 -5.89277 0
M  V30 23594 O 659.626 3.58302 -5.08433 0
M  V30 23595 C 658.436 5.17448 -6.36119 0
M  V30 23596 O 658.046 4.45271 -7.53232 0
M  V30 23597 C 657.556 4.74639 -5.19936 0
M  V30 23598 C 658.266 3.49432 -4.70418 0
M  V30 23599 N 658.216 3.31776 -3.22945 0
M  V30 23600 H 661.055 6.54213 -5.71376 0
M  V30 23601 H 661.327 5.30492 -4.44033 0
M  V30 23602 H 660.459 4.55889 -6.76652 0
M  V30 23603 P 656.496 4.23843 -7.83734 0
M  V30 23604 O 656.276 4.19407 -9.29784 0
M  V30 23605 O 655.706 5.24426 -7.09156 0
M  V30 23606 O 656.246 2.79386 -7.20852 0
M  V30 23607 C 657.186 1.7299 -7.50419 0
M  V30 23608 C 656.456 0.41401 -7.5797 0
M  V30 23609 O 656.246 -0.089787 -6.22035 0
M  V30 23610 C 655.056 0.447224 -8.1878 0
M  V30 23611 O 654.666 -0.825159 -8.71201 0
M  V30 23612 C 654.176 0.783801 -6.99623 0
M  V30 23613 C 654.886 0.0619192 -5.85967 0
M  V30 23614 N 654.836 0.7859 -4.56281 0
M  V30 23615 C 654.686 0.0359258 -3.39981 0
M  V30 23616 O 654.596 -1.19723 -3.49038 0
M  V30 23617 N 654.636 0.869151 -2.14025 0
M  V30 23618 C 654.736 2.01207 -2.14363 0
M  V30 23619 N 654.686 2.58978 -0.954287 0
M  V30 23620 C 654.886 2.80817 -3.32215 0
M  V30 23621 C 654.936 2.13785 -4.50884 0
M  V30 23622 H 657.676 1.93401 -8.46693 0
M  V30 23623 H 657.946 1.68181 -6.71046 0
M  V30 23624 H 657.079 -0.289076 -8.15488 0
M  V30 23625 H 654.424 -0.927166 -5.72947 0
M  V30 23626 H 654.144 1.87 -6.82132 0
M  V30 23627 H 653.153 0.404009 -7.13457 0
M  V30 23628 H 654.987 1.20599 -8.97534 0
M  V30 23629 H 655.059 2.70295 -5.43162 0
M  V30 23630 H 654.957 3.89465 -3.27406 0
M  V30 23631 H 654.569 2.01616 -0.107046 0
M  V30 23632 H 654.765 3.61403 -0.873101 0
M  V30 23633 P 653.116 -1.17771 -8.83182 0
M  V30 23634 O 652.896 -2.07206 -9.98732 0
M  V30 23635 O 652.326 0.0743816 -8.81969 0
M  V30 23636 O 652.866 -1.97652 -7.47304 0
M  V30 23637 C 653.806 -3.01133 -7.08783 0
M  V30 23638 C 653.076 -4.12613 -6.37049 0
M  V30 23639 O 652.866 -3.72827 -4.97879 0
M  V30 23640 C 651.676 -4.45085 -6.88694 0
M  V30 23641 O 651.286 -5.7877 -6.5624 0
M  V30 23642 C 650.796 -3.47817 -6.12078 0
M  V30 23643 C 651.506 -3.39414 -4.77697 0
M  V30 23644 N 651.456 -2.04199 -4.15538 0
M  V30 23645 H 654.295 -3.41248 -7.98759 0
M  V30 23646 H 654.567 -2.57728 -6.42 0
M  V30 23647 H 653.699 -5.02657 -6.42673 0
M  V30 23648 H 651.044 -4.11708 -4.08956 0
M  V30 23649 H 650.764 -2.49626 -6.61679 0
M  V30 23650 H 649.773 -3.8662 -6.00862 0
M  V30 23651 H 651.607 -4.29991 -7.97006 0
M  V30 23652 P 649.736 -6.144 -6.45285 0
M  V30 23653 O 649.516 -7.54673 -6.86199 0
M  V30 23654 O 648.946 -5.12391 -7.179 0
M  V30 23655 O 649.486 -5.99158 -4.88404 0
M  V30 23656 C 650.426 -6.60234 -3.96415 0
M  V30 23657 C 649.696 -7.08259 -2.72856 0
M  V30 23658 O 649.486 -5.9427 -1.83651 0
M  V30 23659 C 648.296 -7.64886 -2.9555 0
M  V30 23660 O 647.906 -8.53963 -1.90717 0
M  V30 23661 C 647.416 -6.4116 -2.90739 0
M  V30 23662 C 648.126 -5.55375 -1.86963 0
M  V30 23663 N 648.076 -4.09664 -2.15742 0
M  V30 23664 H 650.915 -7.45574 -4.45629 0
M  V30 23665 H 651.187 -5.86232 -3.67314 0
M  V30 23666 H 650.319 -7.84412 -2.24479 0
M  V30 23667 P 646.356 -8.7635 -1.60911 0
M  V30 23668 O 646.136 -10.1388 -1.11561 0
M  V30 23669 O 645.566 -8.36503 -2.79617 0
M  V30 23670 O 646.106 -7.71806 -0.42951 0
M  V30 23671 C 647.046 -7.66948 0.673514 0
M  V30 23672 C 646.316 -7.33374 1.95559 0
M  V30 23673 O 646.106 -5.88721 2.00726 0
M  V30 23674 C 644.916 -7.92218 2.1125 0
M  V30 23675 O 644.526 -8.02971 3.47653 0
M  V30 23676 C 644.036 -6.89504 1.41631 0
M  V30 23677 C 644.746 -5.59106 1.75155 0
M  V30 23678 N 644.696 -4.58136 0.662409 0
M  V30 23679 C 644.546 -3.26059 1.02863 0
M  V30 23680 O 644.456 -2.90743 2.19009 0
M  V30 23681 N 644.506 -2.35995 -0.0155585 0
M  V30 23682 C 644.596 -2.65248 -1.35603 0
M  V30 23683 O 644.546 -1.75605 -2.20651 0
M  V30 23684 C 644.746 -4.05747 -1.64698 0
M  V30 23685 C 644.856 -4.42345 -3.09553 0
M  V30 23686 C 644.796 -4.96734 -0.652411 0
M  V30 23687 H 647.537 -8.64917 0.776982 0
M  V30 23688 H 647.806 -6.89974 0.474015 0
M  V30 23689 H 646.939 -7.66548 2.79458 0
M  V30 23690 H 644.284 -5.16076 2.65138 0
M  V30 23691 H 644.005 -7.06433 0.329384 0
M  V30 23692 H 643.013 -6.90829 1.81996 0
M  V30 23693 H 644.847 -8.90774 1.62639 0
M  V30 23694 H 644.918 -6.02181 -0.895285 0
M  V30 23695 H 643.888 -4.80252 -3.45468 0
M  V30 23696 H 645.625 -5.20015 -3.22119 0
M  V30 23697 H 645.137 -3.53269 -3.67833 0
M  V30 23698 H 644.401 -1.39558 0.227499 0
M  V30 23699 P 642.976 -8.03563 3.84925 0
M  V30 23700 O 642.756 -8.85821 5.0569 0
M  V30 23701 O 642.186 -8.41101 2.65469 0
M  V30 23702 O 642.726 -6.4965 4.18908 0
M  V30 23703 C 643.666 -5.81037 5.05421 0
M  V30 23704 C 642.936 -4.78366 5.89277 0
M  V30 23705 O 642.726 -3.58302 5.08433 0
M  V30 23706 C 641.536 -5.17448 6.36119 0
M  V30 23707 O 641.146 -4.45271 7.53232 0
M  V30 23708 C 640.656 -4.74639 5.19936 0
M  V30 23709 C 641.366 -3.49432 4.70418 0
M  V30 23710 N 641.316 -3.31776 3.22945 0
M  V30 23711 H 644.155 -6.54213 5.71376 0
M  V30 23712 H 644.427 -5.30492 4.44033 0
M  V30 23713 H 643.559 -4.55889 6.76652 0
M  V30 23714 P 639.596 -4.23843 7.83734 0
M  V30 23715 O 639.376 -4.19407 9.29784 0
M  V30 23716 O 638.806 -5.24426 7.09156 0
M  V30 23717 O 639.346 -2.7935 7.20758 0
M  V30 23718 C 640.286 -1.7299 7.50419 0
M  V30 23719 C 639.556 -0.406376 7.57911 0
M  V30 23720 O 639.346 0.0897726 6.21935 0
M  V30 23721 C 638.156 -0.447224 8.1878 0
M  V30 23722 O 637.766 0.825065 8.71101 0
M  V30 23723 C 637.276 -0.783801 6.99623 0
M  V30 23724 C 637.986 -0.0619192 5.85967 0
M  V30 23725 N 637.936 -0.7859 4.56281 0
M  V30 23726 H 640.775 -1.93423 8.4679 0
M  V30 23727 H 641.047 -1.68181 6.71046 0
M  V30 23728 H 640.179 0.289041 8.15388 0
M  V30 23729 P 636.216 1.17771 8.83182 0
M  V30 23730 O 635.996 2.07206 9.98732 0
M  V30 23731 O 635.426 -0.0743816 8.81969 0
M  V30 23732 O 635.966 1.97652 7.47304 0
M  V30 23733 C 636.906 3.01133 7.08783 0
M  V30 23734 C 636.176 4.12613 6.37049 0
M  V30 23735 O 635.966 3.72827 4.97879 0
M  V30 23736 C 634.776 4.45085 6.88694 0
M  V30 23737 O 634.386 5.7877 6.5624 0
M  V30 23738 C 633.896 3.47817 6.12078 0
M  V30 23739 C 634.606 3.39414 4.77697 0
M  V30 23740 N 634.556 2.04199 4.15538 0
M  V30 23741 H 637.395 3.41248 7.98759 0
M  V30 23742 H 637.667 2.57728 6.42 0
M  V30 23743 H 636.799 5.02657 6.42673 0
M  V30 23744 H 634.144 4.11708 4.08956 0
M  V30 23745 H 633.864 2.49626 6.61679 0
M  V30 23746 H 632.873 3.8662 6.00862 0
M  V30 23747 H 634.707 4.29991 7.97006 0
M  V30 23748 P 632.836 6.144 6.45285 0
M  V30 23749 O 632.616 7.54673 6.86199 0
M  V30 23750 O 632.046 5.12391 7.179 0
M  V30 23751 O 632.586 5.99158 4.88404 0
M  V30 23752 C 633.526 6.60234 3.96415 0
M  V30 23753 C 632.796 7.08259 2.72856 0
M  V30 23754 O 632.586 5.9427 1.83651 0
M  V30 23755 C 631.396 7.64886 2.9555 0
M  V30 23756 O 631.006 8.53963 1.90717 0
M  V30 23757 C 630.516 6.4116 2.90739 0
M  V30 23758 C 631.226 5.55375 1.86963 0
M  V30 23759 N 631.176 4.09664 2.15742 0
M  V30 23760 H 634.015 7.45574 4.45629 0
M  V30 23761 H 634.287 5.86232 3.67314 0
M  V30 23762 H 633.419 7.84412 2.24479 0
M  V30 23763 P 629.456 8.7635 1.60911 0
M  V30 23764 O 629.236 10.1388 1.11561 0
M  V30 23765 O 628.666 8.36503 2.79617 0
M  V30 23766 O 629.206 7.71806 0.42951 0
M  V30 23767 C 630.146 7.67148 -0.673689 0
M  V30 23768 C 629.416 7.33374 -1.95559 0
M  V30 23769 O 629.206 5.88721 -2.00726 0
M  V30 23770 C 628.016 7.92526 -2.10483 0
M  V30 23771 O 627.626 8.02971 -3.47653 0
M  V30 23772 C 627.136 6.89602 -1.41652 0
M  V30 23773 C 627.846 5.59201 -1.75185 0
M  V30 23774 N 627.796 4.58301 -0.657969 0
M  V30 23775 H 630.635 8.65116 -0.777161 0
M  V30 23776 H 630.907 6.9022 -0.46725 0
M  V30 23777 H 630.039 7.66548 -2.79458 0
M  V30 23778 H 627.384 5.16165 -2.65183 0
M  V30 23779 H 627.104 7.06433 -0.329384 0
M  V30 23780 H 626.113 6.90926 -1.82021 0
M  V30 23781 H 627.947 8.90873 -1.62657 0
M  V30 23782 P 626.076 8.03563 -3.84925 0
M  V30 23783 O 625.856 8.85821 -5.0569 0
M  V30 23784 O 625.286 8.41101 -2.65469 0
M  V30 23785 O 625.826 6.4965 -4.18908 0
M  V30 23786 C 626.766 5.81037 -5.05421 0
M  V30 23787 C 626.036 4.78366 -5.89277 0
M  V30 23788 O 625.826 3.58302 -5.08433 0
M  V30 23789 C 624.636 5.17448 -6.36119 0
M  V30 23790 O 624.246 4.45271 -7.53232 0
M  V30 23791 C 623.756 4.74639 -5.19936 0
M  V30 23792 C 624.466 3.49432 -4.70418 0
M  V30 23793 N 624.416 3.31776 -3.22945 0
M  V30 23794 H 627.255 6.54213 -5.71376 0
M  V30 23795 H 627.527 5.30492 -4.44033 0
M  V30 23796 H 626.659 4.55889 -6.76652 0
M  V30 23797 P 622.696 4.23843 -7.83734 0
M  V30 23798 O 622.476 4.19407 -9.29784 0
M  V30 23799 O 621.906 5.24426 -7.09156 0
M  V30 23800 O 622.446 2.79386 -7.20852 0
M  V30 23801 C 623.386 1.7299 -7.50419 0
M  V30 23802 C 622.656 0.41401 -7.5797 0
M  V30 23803 O 622.446 -0.089787 -6.22035 0
M  V30 23804 C 621.256 0.447224 -8.1878 0
M  V30 23805 O 620.866 -0.825159 -8.71201 0
M  V30 23806 C 620.376 0.783801 -6.99623 0
M  V30 23807 C 621.086 0.0619192 -5.85967 0
M  V30 23808 N 621.036 0.7859 -4.56281 0
M  V30 23809 C 620.886 0.0359258 -3.39981 0
M  V30 23810 O 620.796 -1.19723 -3.49038 0
M  V30 23811 N 620.836 0.869151 -2.14025 0
M  V30 23812 C 620.936 2.01207 -2.14363 0
M  V30 23813 N 620.886 2.58978 -0.954287 0
M  V30 23814 C 621.086 2.80817 -3.32215 0
M  V30 23815 C 621.136 2.13785 -4.50884 0
M  V30 23816 H 623.876 1.93401 -8.46693 0
M  V30 23817 H 624.146 1.68181 -6.71046 0
M  V30 23818 H 623.279 -0.289076 -8.15488 0
M  V30 23819 H 620.624 -0.927166 -5.72947 0
M  V30 23820 H 620.344 1.87 -6.82132 0
M  V30 23821 H 619.353 0.404009 -7.13457 0
M  V30 23822 H 621.187 1.20599 -8.97534 0
M  V30 23823 H 621.259 2.70295 -5.43162 0
M  V30 23824 H 621.157 3.89465 -3.27406 0
M  V30 23825 H 620.769 2.01616 -0.107046 0
M  V30 23826 H 620.965 3.61403 -0.873101 0
M  V30 23827 P 619.316 -1.17771 -8.83182 0
M  V30 23828 O 619.096 -2.07206 -9.98732 0
M  V30 23829 O 618.526 0.0743816 -8.81969 0
M  V30 23830 O 619.066 -1.97652 -7.47304 0
M  V30 23831 C 620.006 -3.01133 -7.08783 0
M  V30 23832 C 619.276 -4.12613 -6.37049 0
M  V30 23833 O 619.066 -3.72827 -4.97879 0
M  V30 23834 C 617.876 -4.45085 -6.88694 0
M  V30 23835 O 617.486 -5.7877 -6.5624 0
M  V30 23836 C 616.996 -3.47817 -6.12078 0
M  V30 23837 C 617.706 -3.39414 -4.77697 0
M  V30 23838 N 617.656 -2.04199 -4.15538 0
M  V30 23839 H 620.495 -3.41248 -7.98759 0
M  V30 23840 H 620.767 -2.57728 -6.42 0
M  V30 23841 H 619.899 -5.02657 -6.42673 0
M  V30 23842 H 617.244 -4.11708 -4.08956 0
M  V30 23843 H 616.964 -2.49626 -6.61679 0
M  V30 23844 H 615.973 -3.8662 -6.00862 0
M  V30 23845 H 617.807 -4.29991 -7.97006 0
M  V30 23846 P 615.936 -6.144 -6.45285 0
M  V30 23847 O 615.716 -7.54673 -6.86199 0
M  V30 23848 O 615.146 -5.12391 -7.179 0
M  V30 23849 O 615.686 -5.99158 -4.88404 0
M  V30 23850 C 616.626 -6.60234 -3.96415 0
M  V30 23851 C 615.896 -7.08259 -2.72856 0
M  V30 23852 O 615.686 -5.9427 -1.83651 0
M  V30 23853 C 614.496 -7.64886 -2.9555 0
M  V30 23854 O 614.106 -8.53963 -1.90717 0
M  V30 23855 C 613.616 -6.4116 -2.90739 0
M  V30 23856 C 614.326 -5.55375 -1.86963 0
M  V30 23857 N 614.276 -4.09664 -2.15742 0
M  V30 23858 H 617.115 -7.45574 -4.45629 0
M  V30 23859 H 617.387 -5.86232 -3.67314 0
M  V30 23860 H 616.519 -7.84412 -2.24479 0
M  V30 23861 P 612.556 -8.7635 -1.60911 0
M  V30 23862 O 612.336 -10.1388 -1.11561 0
M  V30 23863 O 611.766 -8.36503 -2.79617 0
M  V30 23864 O 612.306 -7.71806 -0.42951 0
M  V30 23865 C 613.246 -7.67148 0.673689 0
M  V30 23866 C 612.516 -7.33374 1.95559 0
M  V30 23867 O 612.306 -5.88721 2.00726 0
M  V30 23868 C 611.116 -7.92526 2.10483 0
M  V30 23869 O 610.726 -8.02971 3.47653 0
M  V30 23870 C 610.236 -6.89602 1.41652 0
M  V30 23871 C 610.946 -5.59201 1.75185 0
M  V30 23872 N 610.896 -4.58235 0.662552 0
M  V30 23873 H 613.735 -8.65116 0.777161 0
M  V30 23874 H 614.007 -6.90173 0.474152 0
M  V30 23875 H 613.139 -7.66548 2.79458 0
M  V30 23876 P 609.176 -8.03563 3.84925 0
M  V30 23877 O 608.956 -8.85821 5.0569 0
M  V30 23878 O 608.386 -8.41101 2.65469 0
M  V30 23879 O 608.926 -6.4965 4.18908 0
M  V30 23880 C 609.866 -5.81037 5.05421 0
M  V30 23881 C 609.136 -4.78366 5.89277 0
M  V30 23882 O 608.926 -3.58302 5.08433 0
M  V30 23883 C 607.736 -5.17448 6.36119 0
M  V30 23884 O 607.346 -4.45271 7.53232 0
M  V30 23885 C 606.856 -4.74639 5.19936 0
M  V30 23886 C 607.566 -3.49432 4.70418 0
M  V30 23887 N 607.516 -3.31776 3.22945 0
M  V30 23888 H 610.355 -6.54213 5.71376 0
M  V30 23889 H 610.627 -5.30492 4.44033 0
M  V30 23890 H 609.759 -4.55889 6.76652 0
M  V30 23891 P 605.796 -4.23843 7.83734 0
M  V30 23892 O 605.576 -4.19407 9.29784 0
M  V30 23893 O 605.006 -5.24426 7.09156 0
M  V30 23894 O 605.546 -2.7935 7.20758 0
M  V30 23895 C 606.486 -1.7299 7.50419 0
M  V30 23896 C 605.756 -0.406376 7.57911 0
M  V30 23897 O 605.546 0.0897726 6.21935 0
M  V30 23898 C 604.356 -0.447224 8.1878 0
M  V30 23899 O 603.966 0.825065 8.71101 0
M  V30 23900 C 603.476 -0.783801 6.99623 0
M  V30 23901 C 604.186 -0.0619192 5.85967 0
M  V30 23902 N 604.136 -0.7859 4.56281 0
M  V30 23903 H 606.975 -1.93423 8.4679 0
M  V30 23904 H 607.247 -1.68181 6.71046 0
M  V30 23905 H 606.379 0.289041 8.15388 0
M  V30 23906 P 602.416 1.17771 8.83182 0
M  V30 23907 O 602.196 2.07206 9.98732 0
M  V30 23908 O 601.626 -0.0743816 8.81969 0
M  V30 23909 O 602.166 1.97652 7.47304 0
M  V30 23910 C 603.106 3.01133 7.08783 0
M  V30 23911 C 602.376 4.12613 6.37049 0
M  V30 23912 O 602.166 3.72827 4.97879 0
M  V30 23913 C 600.976 4.45085 6.88694 0
M  V30 23914 O 600.586 5.7877 6.5624 0
M  V30 23915 C 600.096 3.47817 6.12078 0
M  V30 23916 C 600.806 3.39414 4.77697 0
M  V30 23917 N 600.756 2.04615 4.15333 0
M  V30 23918 H 603.595 3.41248 7.98759 0
M  V30 23919 H 603.867 2.5837 6.41742 0
M  V30 23920 H 602.999 5.02657 6.42673 0
M  V30 23921 P 599.036 6.144 6.45285 0
M  V30 23922 O 598.816 7.54673 6.86199 0
M  V30 23923 O 598.246 5.12391 7.179 0
M  V30 23924 O 598.786 5.99158 4.88404 0
M  V30 23925 C 599.726 6.60234 3.96415 0
M  V30 23926 C 598.996 7.08259 2.72856 0
M  V30 23927 O 598.786 5.9427 1.83651 0
M  V30 23928 C 597.596 7.64886 2.9555 0
M  V30 23929 O 597.206 8.53963 1.90717 0
M  V30 23930 C 596.716 6.4116 2.90739 0
M  V30 23931 C 597.426 5.55375 1.86963 0
M  V30 23932 N 597.376 4.09664 2.15742 0
M  V30 23933 H 600.215 7.45574 4.45629 0
M  V30 23934 H 600.487 5.86232 3.67314 0
M  V30 23935 H 599.619 7.84412 2.24479 0
M  V30 23936 P 595.656 8.7635 1.60911 0
M  V30 23937 O 595.437 10.1388 1.11561 0
M  V30 23938 O 594.866 8.36503 2.79617 0
M  V30 23939 O 595.406 7.71806 0.42951 0
M  V30 23940 C 596.346 7.67148 -0.673689 0
M  V30 23941 C 595.616 7.33374 -1.95559 0
M  V30 23942 O 595.406 5.88721 -2.00726 0
M  V30 23943 C 594.216 7.92526 -2.10483 0
M  V30 23944 O 593.827 8.02971 -3.47653 0
M  V30 23945 C 593.337 6.89602 -1.41652 0
M  V30 23946 C 594.046 5.59201 -1.75185 0
M  V30 23947 N 593.996 4.58235 -0.662552 0
M  V30 23948 H 596.836 8.65116 -0.777161 0
M  V30 23949 H 597.107 6.90173 -0.474152 0
M  V30 23950 H 596.24 7.66548 -2.79458 0
M  V30 23951 P 592.277 8.03563 -3.84925 0
M  V30 23952 O 592.057 8.85821 -5.0569 0
M  V30 23953 O 591.487 8.41101 -2.65469 0
M  V30 23954 O 592.027 6.49734 -4.18962 0
M  V30 23955 C 592.967 5.81037 -5.05421 0
M  V30 23956 C 592.237 4.79018 -5.88876 0
M  V30 23957 O 592.027 3.58359 -5.08515 0
M  V30 23958 C 590.837 5.17448 -6.36119 0
M  V30 23959 O 590.447 4.45322 -7.53318 0
M  V30 23960 C 589.957 4.74639 -5.19936 0
M  V30 23961 C 590.667 3.49432 -4.70418 0
M  V30 23962 N 590.617 3.31776 -3.22945 0
M  V30 23963 C 590.467 2.02742 -2.72939 0
M  V30 23964 O 590.377 1.08301 -3.52749 0
M  V30 23965 N 590.417 1.96117 -1.22063 0
M  V30 23966 C 590.517 2.8878 -0.551566 0
M  V30 23967 N 590.467 2.65609 0.750198 0
M  V30 23968 C 590.667 4.22457 -1.03707 0
M  V30 23969 C 590.717 4.37979 -2.39113 0
M  V30 23970 H 593.457 6.54138 -5.7131 0
M  V30 23971 H 593.727 5.30492 -4.44033 0
M  V30 23972 H 592.86 4.55945 -6.76735 0
M  V30 23973 H 590.205 2.6176 -5.18021 0
M  V30 23974 H 589.925 5.52233 -4.41941 0
M  V30 23975 H 588.934 4.52045 -5.53452 0
M  V30 23976 H 590.768 6.25124 -6.55234 0
M  V30 23977 H 590.84 5.37936 -2.80552 0
M  V30 23978 H 590.738 5.07528 -0.359553 0
M  V30 23979 H 590.35 1.69403 1.09847 0
M  V30 23980 H 590.546 3.43701 1.41792 0
M  V30 23981 P 588.897 4.23843 -7.83734 0
M  V30 23982 O 588.677 4.19407 -9.29784 0
M  V30 23983 O 588.107 5.24426 -7.09156 0
M  V30 23984 O 588.647 2.7935 -7.20758 0
M  V30 23985 C 589.587 1.7299 -7.50419 0
M  V30 23986 C 588.857 0.406376 -7.57911 0
M  V30 23987 O 588.647 -0.0897726 -6.21935 0
M  V30 23988 C 587.457 0.447224 -8.1878 0
M  V30 23989 O 587.067 -0.825065 -8.71101 0
M  V30 23990 C 586.577 0.783801 -6.99623 0
M  V30 23991 C 587.287 0.0619192 -5.85967 0
M  V30 23992 N 587.237 0.7859 -4.56281 0
M  V30 23993 H 590.076 1.93423 -8.4679 0
M  V30 23994 H 590.348 1.68181 -6.71046 0
M  V30 23995 H 589.48 -0.289041 -8.15388 0
M  V30 23996 P 585.517 -1.17771 -8.83182 0
M  V30 23997 O 585.297 -2.07206 -9.98732 0
M  V30 23998 O 584.727 0.0743816 -8.81969 0
M  V30 23999 O 585.267 -1.97652 -7.47304 0
M  V30 24000 C 586.207 -3.01133 -7.08783 0
M  V30 24001 C 585.477 -4.12613 -6.37049 0
M  V30 24002 O 585.267 -3.72827 -4.97879 0
M  V30 24003 C 584.077 -4.45085 -6.88694 0
M  V30 24004 O 583.687 -5.7877 -6.5624 0
M  V30 24005 C 583.197 -3.47817 -6.12078 0
M  V30 24006 C 583.907 -3.39414 -4.77697 0
M  V30 24007 N 583.857 -2.04199 -4.15538 0
M  V30 24008 H 586.696 -3.41248 -7.98759 0
M  V30 24009 H 586.968 -2.57728 -6.42 0
M  V30 24010 H 586.1 -5.02657 -6.42673 0
M  V30 24011 H 583.445 -4.11708 -4.08956 0
M  V30 24012 H 583.165 -2.49626 -6.61679 0
M  V30 24013 H 582.174 -3.8662 -6.00862 0
M  V30 24014 H 584.008 -4.29991 -7.97006 0
M  V30 24015 P 582.137 -6.144 -6.45285 0
M  V30 24016 O 581.917 -7.54673 -6.86199 0
M  V30 24017 O 581.347 -5.12391 -7.179 0
M  V30 24018 O 581.887 -5.99158 -4.88404 0
M  V30 24019 C 582.827 -6.60234 -3.96415 0
M  V30 24020 C 582.097 -7.08259 -2.72856 0
M  V30 24021 O 581.887 -5.9427 -1.83651 0
M  V30 24022 C 580.697 -7.64886 -2.9555 0
M  V30 24023 O 580.307 -8.53963 -1.90717 0
M  V30 24024 C 579.817 -6.4116 -2.90739 0
M  V30 24025 C 580.527 -5.55375 -1.86963 0
M  V30 24026 N 580.477 -4.09664 -2.15742 0
M  V30 24027 H 583.316 -7.45574 -4.45629 0
M  V30 24028 H 583.588 -5.86232 -3.67314 0
M  V30 24029 H 582.72 -7.84412 -2.24479 0
M  V30 24030 P 578.757 -8.7635 -1.60911 0
M  V30 24031 O 578.537 -10.1388 -1.11561 0
M  V30 24032 O 577.967 -8.36503 -2.79617 0
M  V30 24033 O 578.507 -7.71806 -0.42951 0
M  V30 24034 C 579.447 -7.67148 0.673689 0
M  V30 24035 C 578.717 -7.33374 1.95559 0
M  V30 24036 O 578.507 -5.88721 2.00726 0
M  V30 24037 C 577.317 -7.92526 2.10483 0
M  V30 24038 O 576.927 -8.02971 3.47653 0
M  V30 24039 C 576.437 -6.89602 1.41652 0
M  V30 24040 C 577.147 -5.59201 1.75185 0
M  V30 24041 N 577.097 -4.58235 0.662552 0
M  V30 24042 H 579.936 -8.65116 0.777161 0
M  V30 24043 H 580.208 -6.90173 0.474152 0
M  V30 24044 H 579.34 -7.66548 2.79458 0
M  V30 24045 P 575.377 -8.03563 3.84925 0
M  V30 24046 O 575.157 -8.85821 5.0569 0
M  V30 24047 O 574.587 -8.41101 2.65469 0
M  V30 24048 O 575.127 -6.4965 4.18908 0
M  V30 24049 C 576.067 -5.81037 5.05421 0
M  V30 24050 C 575.337 -4.78366 5.89277 0
M  V30 24051 O 575.127 -3.58302 5.08433 0
M  V30 24052 C 573.937 -5.17448 6.36119 0
M  V30 24053 O 573.547 -4.45271 7.53232 0
M  V30 24054 C 573.057 -4.74639 5.19936 0
M  V30 24055 C 573.767 -3.49432 4.70418 0
M  V30 24056 N 573.717 -3.31776 3.22945 0
M  V30 24057 H 576.556 -6.54213 5.71376 0
M  V30 24058 H 576.828 -5.30492 4.44033 0
M  V30 24059 H 575.96 -4.55889 6.76652 0
M  V30 24060 P 571.997 -4.23843 7.83734 0
M  V30 24061 O 571.777 -4.19407 9.29784 0
M  V30 24062 O 571.207 -5.24426 7.09156 0
M  V30 24063 O 571.747 -2.7935 7.20758 0
M  V30 24064 C 572.687 -1.7299 7.50419 0
M  V30 24065 C 571.957 -0.406376 7.57911 0
M  V30 24066 O 571.747 0.0897726 6.21935 0
M  V30 24067 C 570.557 -0.447224 8.1878 0
M  V30 24068 O 570.167 0.825065 8.71101 0
M  V30 24069 C 569.677 -0.783801 6.99623 0
M  V30 24070 C 570.387 -0.0619192 5.85967 0
M  V30 24071 N 570.337 -0.7859 4.56281 0
M  V30 24072 H 573.176 -1.93423 8.4679 0
M  V30 24073 H 573.448 -1.68181 6.71046 0
M  V30 24074 H 572.58 0.289041 8.15388 0
M  V30 24075 P 568.617 1.17771 8.83182 0
M  V30 24076 O 568.397 2.07206 9.98732 0
M  V30 24077 O 567.827 -0.0743816 8.81969 0
M  V30 24078 O 568.367 1.97652 7.47304 0
M  V30 24079 C 569.307 3.01133 7.08783 0
M  V30 24080 C 568.577 4.12613 6.37049 0
M  V30 24081 O 568.367 3.72827 4.97879 0
M  V30 24082 C 567.177 4.45085 6.88694 0
M  V30 24083 O 566.787 5.7877 6.5624 0
M  V30 24084 C 566.297 3.47817 6.12078 0
M  V30 24085 C 567.007 3.39414 4.77697 0
M  V30 24086 N 566.957 2.04199 4.15538 0
M  V30 24087 H 569.796 3.41248 7.98759 0
M  V30 24088 H 570.068 2.57728 6.42 0
M  V30 24089 H 569.2 5.02657 6.42673 0
M  V30 24090 H 566.545 4.11708 4.08956 0
M  V30 24091 H 566.265 2.49626 6.61679 0
M  V30 24092 H 565.274 3.8662 6.00862 0
M  V30 24093 H 567.108 4.29991 7.97006 0
M  V30 24094 P 565.237 6.144 6.45285 0
M  V30 24095 O 565.017 7.54673 6.86199 0
M  V30 24096 O 564.447 5.12391 7.179 0
M  V30 24097 O 564.987 5.99158 4.88404 0
M  V30 24098 C 565.927 6.60234 3.96415 0
M  V30 24099 C 565.197 7.08259 2.72856 0
M  V30 24100 O 564.987 5.9427 1.83651 0
M  V30 24101 C 563.797 7.64886 2.9555 0
M  V30 24102 O 563.407 8.53963 1.90717 0
M  V30 24103 C 562.917 6.4116 2.90739 0
M  V30 24104 C 563.627 5.55375 1.86963 0
M  V30 24105 N 563.577 4.09664 2.15742 0
M  V30 24106 H 566.416 7.45574 4.45629 0
M  V30 24107 H 566.688 5.86232 3.67314 0
M  V30 24108 H 565.82 7.84412 2.24479 0
M  V30 24109 P 561.857 8.7635 1.60911 0
M  V30 24110 O 561.637 10.1388 1.11561 0
M  V30 24111 O 561.067 8.36503 2.79617 0
M  V30 24112 O 561.607 7.71806 0.42951 0
M  V30 24113 C 562.547 7.67148 -0.673689 0
M  V30 24114 C 561.817 7.33374 -1.95559 0
M  V30 24115 O 561.607 5.88721 -2.00726 0
M  V30 24116 C 560.417 7.92526 -2.10483 0
M  V30 24117 O 560.027 8.02971 -3.47653 0
M  V30 24118 C 559.537 6.89602 -1.41652 0
M  V30 24119 C 560.247 5.59201 -1.75185 0
M  V30 24120 N 560.197 4.58235 -0.662552 0
M  V30 24121 H 563.036 8.65116 -0.777161 0
M  V30 24122 H 563.308 6.90173 -0.474152 0
M  V30 24123 H 562.44 7.66548 -2.79458 0
M  V30 24124 P 558.477 8.03563 -3.84925 0
M  V30 24125 O 558.257 8.85821 -5.0569 0
M  V30 24126 O 557.687 8.41101 -2.65469 0
M  V30 24127 O 558.227 6.4965 -4.18908 0
M  V30 24128 C 559.167 5.81037 -5.05421 0
M  V30 24129 C 558.437 4.78366 -5.89277 0
M  V30 24130 O 558.227 3.58302 -5.08433 0
M  V30 24131 C 557.037 5.17448 -6.36119 0
M  V30 24132 O 556.647 4.45271 -7.53232 0
M  V30 24133 C 556.157 4.74639 -5.19936 0
M  V30 24134 C 556.867 3.49432 -4.70418 0
M  V30 24135 N 556.817 3.31776 -3.22945 0
M  V30 24136 H 559.656 6.54213 -5.71376 0
M  V30 24137 H 559.928 5.30492 -4.44033 0
M  V30 24138 H 559.06 4.55889 -6.76652 0
M  V30 24139 P 555.097 4.23843 -7.83734 0
M  V30 24140 O 554.877 4.19407 -9.29784 0
M  V30 24141 O 554.307 5.24426 -7.09156 0
M  V30 24142 O 554.847 2.7935 -7.20758 0
M  V30 24143 C 555.787 1.7299 -7.50419 0
M  V30 24144 C 555.057 0.406376 -7.57911 0
M  V30 24145 O 554.847 -0.0897726 -6.21935 0
M  V30 24146 C 553.657 0.447224 -8.1878 0
M  V30 24147 O 553.267 -0.825065 -8.71101 0
M  V30 24148 C 552.777 0.783801 -6.99623 0
M  V30 24149 C 553.487 0.0619192 -5.85967 0
M  V30 24150 N 553.437 0.790462 -4.56202 0
M  V30 24151 H 556.276 1.93423 -8.4679 0
M  V30 24152 H 556.548 1.68852 -6.70877 0
M  V30 24153 H 555.68 -0.289041 -8.15388 0
M  V30 24154 H 553.025 -0.927006 -5.72848 0
M  V30 24155 H 552.745 1.86973 -6.82036 0
M  V30 24156 H 551.754 0.403953 -7.13357 0
M  V30 24157 H 553.588 1.20599 -8.97534 0
M  V30 24158 P 551.717 -1.17771 -8.83182 0
M  V30 24159 O 551.497 -2.07206 -9.98732 0
M  V30 24160 O 550.927 0.0743816 -8.81969 0
M  V30 24161 O 551.467 -1.97652 -7.47304 0
M  V30 24162 C 552.407 -3.01133 -7.08783 0
M  V30 24163 C 551.677 -4.12613 -6.37049 0
M  V30 24164 O 551.467 -3.72827 -4.97879 0
M  V30 24165 C 550.277 -4.45085 -6.88694 0
M  V30 24166 O 549.887 -5.7877 -6.5624 0
M  V30 24167 C 549.397 -3.47817 -6.12078 0
M  V30 24168 C 550.107 -3.39414 -4.77697 0
M  V30 24169 N 550.057 -2.04615 -4.15333 0
M  V30 24170 H 552.896 -3.41248 -7.98759 0
M  V30 24171 H 553.168 -2.5837 -6.41742 0
M  V30 24172 H 552.3 -5.02657 -6.42673 0
M  V30 24173 P 548.337 -6.144 -6.45285 0
M  V30 24174 O 548.117 -7.54673 -6.86199 0
M  V30 24175 O 547.547 -5.12391 -7.179 0
M  V30 24176 O 548.087 -5.99158 -4.88404 0
M  V30 24177 C 549.027 -6.60234 -3.96415 0
M  V30 24178 C 548.297 -7.08259 -2.72856 0
M  V30 24179 O 548.087 -5.9427 -1.83651 0
M  V30 24180 C 546.897 -7.64886 -2.9555 0
M  V30 24181 O 546.507 -8.53963 -1.90717 0
M  V30 24182 C 546.017 -6.4116 -2.90739 0
M  V30 24183 C 546.727 -5.55375 -1.86963 0
M  V30 24184 N 546.677 -4.09664 -2.15742 0
M  V30 24185 H 549.516 -7.45574 -4.45629 0
M  V30 24186 H 549.788 -5.86232 -3.67314 0
M  V30 24187 H 548.92 -7.84412 -2.24479 0
M  V30 24188 P 544.957 -8.7635 -1.60911 0
M  V30 24189 O 544.737 -10.1388 -1.11561 0
M  V30 24190 O 544.167 -8.36503 -2.79617 0
M  V30 24191 O 544.707 -7.71806 -0.42951 0
M  V30 24192 C 545.647 -7.67148 0.673689 0
M  V30 24193 C 544.917 -7.33374 1.95559 0
M  V30 24194 O 544.707 -5.88721 2.00726 0
M  V30 24195 C 543.517 -7.92526 2.10483 0
M  V30 24196 O 543.127 -8.02971 3.47653 0
M  V30 24197 C 542.637 -6.89602 1.41652 0
M  V30 24198 C 543.347 -5.59201 1.75185 0
M  V30 24199 N 543.297 -4.58235 0.662552 0
M  V30 24200 H 546.136 -8.65116 0.777161 0
M  V30 24201 H 546.408 -6.90173 0.474152 0
M  V30 24202 H 545.54 -7.66548 2.79458 0
M  V30 24203 P 541.577 -8.03563 3.84925 0
M  V30 24204 O 541.357 -8.85821 5.0569 0
M  V30 24205 O 540.787 -8.41101 2.65469 0
M  V30 24206 O 541.327 -6.4965 4.18908 0
M  V30 24207 C 542.267 -5.81037 5.05421 0
M  V30 24208 C 541.537 -4.78366 5.89277 0
M  V30 24209 O 541.327 -3.58302 5.08433 0
M  V30 24210 C 540.137 -5.17448 6.36119 0
M  V30 24211 O 539.747 -4.45271 7.53232 0
M  V30 24212 C 539.257 -4.74639 5.19936 0
M  V30 24213 C 539.967 -3.49432 4.70418 0
M  V30 24214 N 539.917 -3.31776 3.22945 0
M  V30 24215 H 542.756 -6.54213 5.71376 0
M  V30 24216 H 543.028 -5.30492 4.44033 0
M  V30 24217 H 542.16 -4.55889 6.76652 0
M  V30 24218 P 538.197 -4.23843 7.83734 0
M  V30 24219 O 537.977 -4.19407 9.29784 0
M  V30 24220 O 537.407 -5.24426 7.09156 0
M  V30 24221 O 537.947 -2.7935 7.20758 0
M  V30 24222 C 538.887 -1.7299 7.50419 0
M  V30 24223 C 538.157 -0.406376 7.57911 0
M  V30 24224 O 537.947 0.0897726 6.21935 0
M  V30 24225 C 536.757 -0.447224 8.1878 0
M  V30 24226 O 536.367 0.825065 8.71101 0
M  V30 24227 C 535.877 -0.783801 6.99623 0
M  V30 24228 C 536.587 -0.0619192 5.85967 0
M  V30 24229 N 536.537 -0.7859 4.56281 0
M  V30 24230 H 539.376 -1.93423 8.4679 0
M  V30 24231 H 539.648 -1.68181 6.71046 0
M  V30 24232 H 538.78 0.289041 8.15388 0
M  V30 24233 P 534.817 1.17771 8.83182 0
M  V30 24234 O 534.597 2.07206 9.98732 0
M  V30 24235 O 534.027 -0.0743816 8.81969 0
M  V30 24236 O 534.567 1.97652 7.47304 0
M  V30 24237 C 535.507 3.01133 7.08783 0
M  V30 24238 C 534.777 4.12613 6.37049 0
M  V30 24239 O 534.567 3.72827 4.97879 0
M  V30 24240 C 533.377 4.45085 6.88694 0
M  V30 24241 O 532.987 5.7877 6.5624 0
M  V30 24242 C 532.497 3.47817 6.12078 0
M  V30 24243 C 533.207 3.39414 4.77697 0
M  V30 24244 N 533.157 2.04615 4.15333 0
M  V30 24245 H 535.996 3.41248 7.98759 0
M  V30 24246 H 536.268 2.5837 6.41742 0
M  V30 24247 H 535.4 5.02657 6.42673 0
M  V30 24248 P 531.437 6.144 6.45285 0
M  V30 24249 O 531.217 7.54673 6.86199 0
M  V30 24250 O 530.647 5.12391 7.179 0
M  V30 24251 O 531.187 5.99158 4.88404 0
M  V30 24252 C 532.127 6.60234 3.96415 0
M  V30 24253 C 531.397 7.08259 2.72856 0
M  V30 24254 O 531.187 5.9427 1.83651 0
M  V30 24255 C 529.997 7.64886 2.9555 0
M  V30 24256 O 529.607 8.53963 1.90717 0
M  V30 24257 C 529.117 6.4116 2.90739 0
M  V30 24258 C 529.827 5.55375 1.86963 0
M  V30 24259 N 529.777 4.09664 2.15742 0
M  V30 24260 C 529.857 3.44381 3.37233 0
M  V30 24261 N 529.777 2.14131 3.28347 0
M  V30 24262 C 529.637 1.90247 1.91588 0
M  V30 24263 C 529.507 0.683992 1.20892 0
M  V30 24264 N 529.387 0.903396 -0.173998 0
M  V30 24265 C 529.387 2.14171 -0.784879 0
M  V30 24266 N 529.257 2.1435 -2.11317 0
M  V30 24267 N 529.517 3.28784 -0.119316 0
M  V30 24268 C 529.637 3.0977 1.22194 0
M  V30 24269 H 532.616 7.45574 4.45629 0
M  V30 24270 H 532.888 5.86232 3.67314 0
M  V30 24271 H 532.02 7.84412 2.24479 0
M  V30 24272 P 528.057 8.7635 1.60911 0
M  V30 24273 O 527.837 10.1388 1.11561 0
M  V30 24274 O 527.267 8.36503 2.79617 0
M  V30 24275 O 527.807 7.71806 0.42951 0
M  V30 24276 C 528.747 7.67148 -0.673689 0
M  V30 24277 C 528.017 7.33374 -1.95559 0
M  V30 24278 O 527.807 5.88721 -2.00726 0
M  V30 24279 C 526.617 7.92526 -2.10483 0
M  V30 24280 O 526.227 8.02971 -3.47653 0
M  V30 24281 C 525.737 6.89602 -1.41652 0
M  V30 24282 C 526.447 5.59201 -1.75185 0
M  V30 24283 N 526.397 4.58235 -0.662552 0
M  V30 24284 H 529.236 8.65116 -0.777161 0
M  V30 24285 H 529.508 6.90173 -0.474152 0
M  V30 24286 H 528.64 7.66548 -2.79458 0
M  V30 24287 P 524.677 8.03563 -3.84925 0
M  V30 24288 O 524.457 8.85821 -5.0569 0
M  V30 24289 O 523.887 8.41101 -2.65469 0
M  V30 24290 O 524.427 6.4965 -4.18908 0
M  V30 24291 C 525.367 5.81037 -5.05421 0
M  V30 24292 C 524.637 4.78366 -5.89277 0
M  V30 24293 O 524.427 3.58302 -5.08433 0
M  V30 24294 C 523.237 5.17448 -6.36119 0
M  V30 24295 O 522.847 4.45271 -7.53232 0
M  V30 24296 C 522.357 4.74639 -5.19936 0
M  V30 24297 C 523.067 3.49432 -4.70418 0
M  V30 24298 N 523.017 3.31776 -3.22945 0
M  V30 24299 H 525.856 6.54213 -5.71376 0
M  V30 24300 H 526.128 5.30492 -4.44033 0
M  V30 24301 H 525.26 4.55889 -6.76652 0
M  V30 24302 P 521.297 4.23843 -7.83734 0
M  V30 24303 O 521.077 4.19407 -9.29784 0
M  V30 24304 O 520.507 5.24426 -7.09156 0
M  V30 24305 O 521.047 2.7935 -7.20758 0
M  V30 24306 C 521.987 1.7299 -7.50419 0
M  V30 24307 C 521.257 0.406376 -7.57911 0
M  V30 24308 O 521.047 -0.0897726 -6.21935 0
M  V30 24309 C 519.857 0.447224 -8.1878 0
M  V30 24310 O 519.467 -0.825065 -8.71101 0
M  V30 24311 C 518.977 0.783801 -6.99623 0
M  V30 24312 C 519.687 0.0619192 -5.85967 0
M  V30 24313 N 519.637 0.790462 -4.56202 0
M  V30 24314 H 522.476 1.93423 -8.4679 0
M  V30 24315 H 522.748 1.68852 -6.70877 0
M  V30 24316 H 521.88 -0.289041 -8.15388 0
M  V30 24317 H 519.225 -0.927006 -5.72848 0
M  V30 24318 H 518.945 1.86973 -6.82036 0
M  V30 24319 H 517.954 0.403953 -7.13357 0
M  V30 24320 H 519.788 1.20599 -8.97534 0
M  V30 24321 P 517.917 -1.17771 -8.83182 0
M  V30 24322 O 517.697 -2.07206 -9.98732 0
M  V30 24323 O 517.127 0.0743816 -8.81969 0
M  V30 24324 O 517.667 -1.97652 -7.47304 0
M  V30 24325 C 518.607 -3.01133 -7.08783 0
M  V30 24326 C 517.877 -4.12613 -6.37049 0
M  V30 24327 O 517.667 -3.72827 -4.97879 0
M  V30 24328 C 516.477 -4.45085 -6.88694 0
M  V30 24329 O 516.087 -5.7877 -6.5624 0
M  V30 24330 C 515.597 -3.47817 -6.12078 0
M  V30 24331 C 516.307 -3.39414 -4.77697 0
M  V30 24332 N 516.257 -2.04615 -4.15333 0
M  V30 24333 H 519.096 -3.41248 -7.98759 0
M  V30 24334 H 519.368 -2.5837 -6.41742 0
M  V30 24335 H 518.5 -5.02657 -6.42673 0
M  V30 24336 P 514.537 -6.144 -6.45285 0
M  V30 24337 O 514.317 -7.54673 -6.86199 0
M  V30 24338 O 513.747 -5.12391 -7.179 0
M  V30 24339 O 514.287 -5.99158 -4.88404 0
M  V30 24340 C 515.227 -6.60234 -3.96415 0
M  V30 24341 C 514.497 -7.08259 -2.72856 0
M  V30 24342 O 514.287 -5.9427 -1.83651 0
M  V30 24343 C 513.097 -7.64886 -2.9555 0
M  V30 24344 O 512.707 -8.53963 -1.90717 0
M  V30 24345 C 512.217 -6.4116 -2.90739 0
M  V30 24346 C 512.927 -5.55375 -1.86963 0
M  V30 24347 N 512.877 -4.09664 -2.15742 0
M  V30 24348 C 512.957 -3.44381 -3.37233 0
M  V30 24349 N 512.877 -2.14131 -3.28347 0
M  V30 24350 C 512.737 -1.90247 -1.91588 0
M  V30 24351 C 512.607 -0.683992 -1.20892 0
M  V30 24352 N 512.487 -0.903396 0.173998 0
M  V30 24353 C 512.487 -2.14171 0.784879 0
M  V30 24354 N 512.357 -2.1435 2.11317 0
M  V30 24355 N 512.617 -3.28784 0.119316 0
M  V30 24356 C 512.737 -3.0977 -1.22194 0
M  V30 24357 H 515.716 -7.45574 -4.45629 0
M  V30 24358 H 515.988 -5.86232 -3.67314 0
M  V30 24359 H 515.12 -7.84412 -2.24479 0
M  V30 24360 P 511.157 -8.7635 -1.60911 0
M  V30 24361 O 510.937 -10.1388 -1.11561 0
M  V30 24362 O 510.367 -8.36503 -2.79617 0
M  V30 24363 O 510.907 -7.71806 -0.42951 0
M  V30 24364 C 511.847 -7.67148 0.673689 0
M  V30 24365 C 511.117 -7.33374 1.95559 0
M  V30 24366 O 510.907 -5.88721 2.00726 0
M  V30 24367 C 509.717 -7.92526 2.10483 0
M  V30 24368 O 509.327 -8.02971 3.47653 0
M  V30 24369 C 508.837 -6.89602 1.41652 0
M  V30 24370 C 509.547 -5.59201 1.75185 0
M  V30 24371 N 509.497 -4.58301 0.657969 0
M  V30 24372 H 512.336 -8.65116 0.777161 0
M  V30 24373 H 512.608 -6.9022 0.46725 0
M  V30 24374 H 511.74 -7.66548 2.79458 0
M  V30 24375 H 509.085 -5.16165 2.65183 0
M  V30 24376 H 508.805 -7.06433 0.329384 0
M  V30 24377 H 507.814 -6.90926 1.82021 0
M  V30 24378 H 509.648 -8.90873 1.62657 0
M  V30 24379 P 507.777 -8.03563 3.84925 0
M  V30 24380 O 507.557 -8.85821 5.0569 0
M  V30 24381 O 506.987 -8.41101 2.65469 0
M  V30 24382 O 507.527 -6.4965 4.18908 0
M  V30 24383 C 508.467 -5.81037 5.05421 0
M  V30 24384 C 507.737 -4.78366 5.89277 0
M  V30 24385 O 507.527 -3.58302 5.08433 0
M  V30 24386 C 506.337 -5.17448 6.36119 0
M  V30 24387 O 505.947 -4.45271 7.53232 0
M  V30 24388 C 505.457 -4.74639 5.19936 0
M  V30 24389 C 506.167 -3.49432 4.70418 0
M  V30 24390 N 506.117 -3.32099 3.22613 0
M  V30 24391 H 508.956 -6.54213 5.71376 0
M  V30 24392 H 509.228 -5.30936 4.43503 0
M  V30 24393 H 508.36 -4.55889 6.76652 0
M  V30 24394 H 505.705 -2.61715 5.17932 0
M  V30 24395 H 505.425 -5.52155 4.41878 0
M  V30 24396 H 504.434 -4.51981 5.53374 0
M  V30 24397 H 506.268 -6.25124 6.55234 0
M  V30 24398 P 504.397 -4.23843 7.83734 0
M  V30 24399 O 504.177 -4.19407 9.29784 0
M  V30 24400 O 503.607 -5.24426 7.09156 0
M  V30 24401 O 504.147 -2.7935 7.20758 0
M  V30 24402 C 505.087 -1.7299 7.50419 0
M  V30 24403 C 504.357 -0.406376 7.57911 0
M  V30 24404 O 504.147 0.0897726 6.21935 0
M  V30 24405 C 502.957 -0.447224 8.1878 0
M  V30 24406 O 502.567 0.825065 8.71101 0
M  V30 24407 C 502.077 -0.783801 6.99623 0
M  V30 24408 C 502.787 -0.0619192 5.85967 0
M  V30 24409 N 502.737 -0.7859 4.56281 0
M  V30 24410 H 505.576 -1.93423 8.4679 0
M  V30 24411 H 505.848 -1.68181 6.71046 0
M  V30 24412 H 504.98 0.289041 8.15388 0
M  V30 24413 P 501.017 1.17771 8.83182 0
M  V30 24414 O 500.797 2.07206 9.98732 0
M  V30 24415 O 500.227 -0.0743816 8.81969 0
M  V30 24416 O 500.767 1.97652 7.47304 0
M  V30 24417 C 501.707 3.01133 7.08783 0
M  V30 24418 C 500.977 4.12613 6.37049 0
M  V30 24419 O 500.767 3.72827 4.97879 0
M  V30 24420 C 499.577 4.45085 6.88694 0
M  V30 24421 O 499.187 5.7877 6.5624 0
M  V30 24422 C 498.697 3.47817 6.12078 0
M  V30 24423 C 499.407 3.39414 4.77697 0
M  V30 24424 N 499.357 2.04615 4.15333 0
M  V30 24425 H 502.196 3.41248 7.98759 0
M  V30 24426 H 502.468 2.5837 6.41742 0
M  V30 24427 H 501.6 5.02657 6.42673 0
M  V30 24428 P 497.637 6.144 6.45285 0
M  V30 24429 O 497.417 7.54673 6.86199 0
M  V30 24430 O 496.847 5.12391 7.179 0
M  V30 24431 O 497.387 5.99236 4.88467 0
M  V30 24432 C 498.327 6.60234 3.96415 0
M  V30 24433 C 497.597 7.08079 2.736 0
M  V30 24434 O 497.387 5.94365 1.8368 0
M  V30 24435 C 496.197 7.64886 2.9555 0
M  V30 24436 O 495.807 8.5406 1.90739 0
M  V30 24437 C 495.317 6.4116 2.90739 0
M  V30 24438 C 496.027 5.55375 1.86963 0
M  V30 24439 N 495.977 4.09664 2.15742 0
M  V30 24440 C 495.827 3.22231 1.08477 0
M  V30 24441 O 495.737 3.68951 -0.0600489 0
M  V30 24442 N 495.777 1.76692 1.48799 0
M  V30 24443 C 495.877 1.41695 2.57602 0
M  V30 24444 N 495.827 0.107296 2.75791 0
M  V30 24445 C 496.027 2.29178 3.69733 0
M  V30 24446 C 496.077 3.62753 3.42653 0
M  V30 24447 H 498.817 7.45488 4.45578 0
M  V30 24448 H 499.087 5.86232 3.67314 0
M  V30 24449 H 498.22 7.84508 2.24507 0
M  V30 24450 H 495.565 5.73556 0.888715 0
M  V30 24451 H 495.285 5.9096 3.88638 0
M  V30 24452 H 494.294 6.66053 2.58894 0
M  V30 24453 H 496.128 8.16339 3.92049 0
M  V30 24454 H 496.2 4.33052 4.24913 0
M  V30 24455 H 496.098 1.9103 4.71577 0
M  V30 24456 H 495.71 -0.521221 1.95056 0
M  V30 24457 H 495.906 -0.286429 3.70695 0
M  V30 24458 P 494.257 8.7635 1.60911 0
M  V30 24459 O 494.037 10.1388 1.11561 0
M  V30 24460 O 493.467 8.36503 2.79617 0
M  V30 24461 O 494.007 7.71806 0.42951 0
M  V30 24462 C 494.947 7.67148 -0.673689 0
M  V30 24463 C 494.217 7.33374 -1.95559 0
M  V30 24464 O 494.007 5.88721 -2.00726 0
M  V30 24465 C 492.817 7.92526 -2.10483 0
M  V30 24466 O 492.427 8.02971 -3.47653 0
M  V30 24467 C 491.937 6.89602 -1.41652 0
M  V30 24468 C 492.647 5.59201 -1.75185 0
M  V30 24469 N 492.597 4.58301 -0.657969 0
M  V30 24470 H 495.436 8.65116 -0.777161 0
M  V30 24471 H 495.708 6.9022 -0.46725 0
M  V30 24472 H 494.84 7.66548 -2.79458 0
M  V30 24473 H 492.185 5.16165 -2.65183 0
M  V30 24474 H 491.905 7.06433 -0.329384 0
M  V30 24475 H 490.914 6.90926 -1.82021 0
M  V30 24476 H 492.748 8.90873 -1.62657 0
M  V30 24477 P 490.877 8.03563 -3.84925 0
M  V30 24478 O 490.657 8.85821 -5.0569 0
M  V30 24479 O 490.087 8.41101 -2.65469 0
M  V30 24480 O 490.627 6.4965 -4.18908 0
M  V30 24481 C 491.567 5.81037 -5.05421 0
M  V30 24482 C 490.837 4.78366 -5.89277 0
M  V30 24483 O 490.627 3.58302 -5.08433 0
M  V30 24484 C 489.437 5.17448 -6.36119 0
M  V30 24485 O 489.047 4.45271 -7.53232 0
M  V30 24486 C 488.557 4.74639 -5.19936 0
M  V30 24487 C 489.267 3.49432 -4.70418 0
M  V30 24488 N 489.217 3.31776 -3.22945 0
M  V30 24489 H 492.056 6.54213 -5.71376 0
M  V30 24490 H 492.328 5.30492 -4.44033 0
M  V30 24491 H 491.46 4.55889 -6.76652 0
M  V30 24492 P 487.497 4.23843 -7.83734 0
M  V30 24493 O 487.277 4.19407 -9.29784 0
M  V30 24494 O 486.707 5.24426 -7.09156 0
M  V30 24495 O 487.247 2.7935 -7.20758 0
M  V30 24496 C 488.187 1.7299 -7.50419 0
M  V30 24497 C 487.457 0.406376 -7.57911 0
M  V30 24498 O 487.247 -0.0897726 -6.21935 0
M  V30 24499 C 486.057 0.447224 -8.1878 0
M  V30 24500 O 485.667 -0.825065 -8.71101 0
M  V30 24501 C 485.177 0.783801 -6.99623 0
M  V30 24502 C 485.887 0.0619192 -5.85967 0
M  V30 24503 N 485.837 0.7859 -4.56281 0
M  V30 24504 H 488.676 1.93423 -8.4679 0
M  V30 24505 H 488.948 1.68181 -6.71046 0
M  V30 24506 H 488.08 -0.289041 -8.15388 0
M  V30 24507 P 484.117 -1.17771 -8.83182 0
M  V30 24508 O 483.897 -2.07206 -9.98732 0
M  V30 24509 O 483.327 0.0743816 -8.81969 0
M  V30 24510 O 483.867 -1.97652 -7.47304 0
M  V30 24511 C 484.807 -3.01133 -7.08783 0
M  V30 24512 C 484.077 -4.12613 -6.37049 0
M  V30 24513 O 483.867 -3.72827 -4.97879 0
M  V30 24514 C 482.677 -4.45085 -6.88694 0
M  V30 24515 O 482.287 -5.7877 -6.5624 0
M  V30 24516 C 481.797 -3.47817 -6.12078 0
M  V30 24517 C 482.507 -3.39414 -4.77697 0
M  V30 24518 N 482.457 -2.04615 -4.15333 0
M  V30 24519 H 485.296 -3.41248 -7.98759 0
M  V30 24520 H 485.568 -2.5837 -6.41742 0
M  V30 24521 H 484.7 -5.02657 -6.42673 0
M  V30 24522 P 480.737 -6.144 -6.45285 0
M  V30 24523 O 480.517 -7.54673 -6.86199 0
M  V30 24524 O 479.947 -5.12391 -7.179 0
M  V30 24525 O 480.487 -5.99158 -4.88404 0
M  V30 24526 C 481.427 -6.60234 -3.96415 0
M  V30 24527 C 480.697 -7.08259 -2.72856 0
M  V30 24528 O 480.487 -5.9427 -1.83651 0
M  V30 24529 C 479.297 -7.64886 -2.9555 0
M  V30 24530 O 478.907 -8.53963 -1.90717 0
M  V30 24531 C 478.417 -6.4116 -2.90739 0
M  V30 24532 C 479.127 -5.55375 -1.86963 0
M  V30 24533 N 479.077 -4.09664 -2.15742 0
M  V30 24534 H 481.916 -7.45574 -4.45629 0
M  V30 24535 H 482.188 -5.86232 -3.67314 0
M  V30 24536 H 481.32 -7.84412 -2.24479 0
M  V30 24537 P 477.357 -8.7635 -1.60911 0
M  V30 24538 O 477.137 -10.1388 -1.11561 0
M  V30 24539 O 476.567 -8.36503 -2.79617 0
M  V30 24540 O 477.107 -7.71806 -0.42951 0
M  V30 24541 C 478.047 -7.66948 0.673514 0
M  V30 24542 C 477.317 -7.33374 1.95559 0
M  V30 24543 O 477.107 -5.88721 2.00726 0
M  V30 24544 C 475.917 -7.92218 2.1125 0
M  V30 24545 O 475.527 -8.02971 3.47653 0
M  V30 24546 C 475.037 -6.89504 1.41631 0
M  V30 24547 C 475.747 -5.59106 1.75155 0
M  V30 24548 N 475.697 -4.58136 0.662409 0
M  V30 24549 C 475.547 -3.26059 1.02863 0
M  V30 24550 O 475.457 -2.90743 2.19009 0
M  V30 24551 N 475.507 -2.35995 -0.0155585 0
M  V30 24552 C 475.597 -2.65248 -1.35603 0
M  V30 24553 O 475.547 -1.75605 -2.20651 0
M  V30 24554 C 475.747 -4.05747 -1.64698 0
M  V30 24555 C 475.857 -4.42345 -3.09553 0
M  V30 24556 C 475.797 -4.96734 -0.652411 0
M  V30 24557 H 478.538 -8.64917 0.776982 0
M  V30 24558 H 478.807 -6.89974 0.474015 0
M  V30 24559 H 477.94 -7.66548 2.79458 0
M  V30 24560 H 475.285 -5.16076 2.65138 0
M  V30 24561 H 475.006 -7.06433 0.329384 0
M  V30 24562 H 474.014 -6.90829 1.81996 0
M  V30 24563 H 475.848 -8.90774 1.62639 0
M  V30 24564 H 475.919 -6.02181 -0.895285 0
M  V30 24565 H 474.889 -4.80252 -3.45468 0
M  V30 24566 H 476.626 -5.20015 -3.22119 0
M  V30 24567 H 476.138 -3.53269 -3.67833 0
M  V30 24568 H 475.402 -1.39558 0.227499 0
M  V30 24569 P 473.977 -8.03563 3.84925 0
M  V30 24570 O 473.757 -8.85821 5.0569 0
M  V30 24571 O 473.187 -8.41101 2.65469 0
M  V30 24572 O 473.727 -6.4965 4.18908 0
M  V30 24573 C 474.667 -5.81037 5.05421 0
M  V30 24574 C 473.937 -4.78366 5.89277 0
M  V30 24575 O 473.727 -3.58302 5.08433 0
M  V30 24576 C 472.537 -5.17448 6.36119 0
M  V30 24577 O 472.147 -4.45271 7.53232 0
M  V30 24578 C 471.657 -4.74639 5.19936 0
M  V30 24579 C 472.367 -3.49432 4.70418 0
M  V30 24580 N 472.317 -3.32099 3.22613 0
M  V30 24581 H 475.156 -6.54213 5.71376 0
M  V30 24582 H 475.428 -5.30936 4.43503 0
M  V30 24583 H 474.56 -4.55889 6.76652 0
M  V30 24584 H 471.905 -2.61715 5.17932 0
M  V30 24585 H 471.625 -5.52155 4.41878 0
M  V30 24586 H 470.634 -4.51981 5.53374 0
M  V30 24587 H 472.468 -6.25124 6.55234 0
M  V30 24588 P 470.597 -4.23843 7.83734 0
M  V30 24589 O 470.377 -4.19407 9.29784 0
M  V30 24590 O 469.807 -5.24426 7.09156 0
M  V30 24591 O 470.347 -2.7935 7.20758 0
M  V30 24592 C 471.287 -1.7299 7.50419 0
M  V30 24593 C 470.557 -0.406376 7.57911 0
M  V30 24594 O 470.347 0.0897726 6.21935 0
M  V30 24595 C 469.157 -0.447224 8.1878 0
M  V30 24596 O 468.767 0.825065 8.71101 0
M  V30 24597 C 468.277 -0.783801 6.99623 0
M  V30 24598 C 468.987 -0.0619192 5.85967 0
M  V30 24599 N 468.937 -0.790462 4.56202 0
M  V30 24600 C 469.017 -2.13895 4.34171 0
M  V30 24601 N 468.947 -2.46449 3.08687 0
M  V30 24602 C 468.797 -1.2525 2.43697 0
M  V30 24603 C 468.667 -0.914535 1.07318 0
M  V30 24604 N 468.657 -1.80782 0.0887348 0
M  V30 24605 N 468.547 0.386745 0.768133 0
M  V30 24606 C 468.557 1.28096 1.75159 0
M  V30 24607 N 468.677 1.09708 3.04861 0
M  V30 24608 C 468.797 -0.214857 3.32306 0
M  V30 24609 H 471.776 -1.93423 8.4679 0
M  V30 24610 H 472.048 -1.68852 6.70877 0
M  V30 24611 H 471.18 0.289041 8.15388 0
M  V30 24612 H 468.525 0.927006 5.72848 0
M  V30 24613 H 468.245 -1.86973 6.82036 0
M  V30 24614 H 467.254 -0.403953 7.13357 0
M  V30 24615 H 469.088 -1.20599 8.97534 0
M  V30 24616 H 469.129 -2.86846 5.14318 0
M  V30 24617 H 468.748 -2.81082 0.302037 0
M  V30 24618 H 468.559 -1.49688 -0.889064 0
M  V30 24619 H 468.451 2.31317 1.43855 0
M  V30 24620 P 467.217 1.17771 8.83182 0
M  V30 24621 O 466.997 2.07206 9.98732 0
M  V30 24622 O 466.427 -0.0743816 8.81969 0
M  V30 24623 O 466.967 1.97652 7.47304 0
M  V30 24624 C 467.907 3.01133 7.08783 0
M  V30 24625 C 467.177 4.12613 6.37049 0
M  V30 24626 O 466.967 3.72827 4.97879 0
M  V30 24627 C 465.777 4.45085 6.88694 0
M  V30 24628 O 465.387 5.7877 6.5624 0
M  V30 24629 C 464.897 3.47817 6.12078 0
M  V30 24630 C 465.607 3.39414 4.77697 0
M  V30 24631 N 465.557 2.04199 4.15538 0
M  V30 24632 H 468.396 3.41248 7.98759 0
M  V30 24633 H 468.668 2.57728 6.42 0
M  V30 24634 H 467.8 5.02657 6.42673 0
M  V30 24635 H 465.145 4.11708 4.08956 0
M  V30 24636 H 464.865 2.49626 6.61679 0
M  V30 24637 H 463.874 3.8662 6.00862 0
M  V30 24638 H 465.708 4.29991 7.97006 0
M  V30 24639 P 463.837 6.144 6.45285 0
M  V30 24640 O 463.617 7.54673 6.86199 0
M  V30 24641 O 463.047 5.12391 7.179 0
M  V30 24642 O 463.587 5.99158 4.88404 0
M  V30 24643 C 464.527 6.60234 3.96415 0
M  V30 24644 C 463.797 7.08259 2.72856 0
M  V30 24645 O 463.587 5.9427 1.83651 0
M  V30 24646 C 462.397 7.64886 2.9555 0
M  V30 24647 O 462.007 8.53963 1.90717 0
M  V30 24648 C 461.517 6.4116 2.90739 0
M  V30 24649 C 462.227 5.55375 1.86963 0
M  V30 24650 N 462.177 4.09664 2.15742 0
M  V30 24651 H 465.016 7.45574 4.45629 0
M  V30 24652 H 465.288 5.86232 3.67314 0
M  V30 24653 H 464.42 7.84412 2.24479 0
M  V30 24654 P 460.457 8.7635 1.60911 0
M  V30 24655 O 460.237 10.1388 1.11561 0
M  V30 24656 O 459.667 8.36503 2.79617 0
M  V30 24657 O 460.207 7.71806 0.42951 0
M  V30 24658 C 461.147 7.67148 -0.673689 0
M  V30 24659 C 460.417 7.33374 -1.95559 0
M  V30 24660 O 460.207 5.88721 -2.00726 0
M  V30 24661 C 459.017 7.92526 -2.10483 0
M  V30 24662 O 458.627 8.02971 -3.47653 0
M  V30 24663 C 458.137 6.89602 -1.41652 0
M  V30 24664 C 458.847 5.59201 -1.75185 0
M  V30 24665 N 458.797 4.58235 -0.662552 0
M  V30 24666 H 461.636 8.65116 -0.777161 0
M  V30 24667 H 461.908 6.90173 -0.474152 0
M  V30 24668 H 461.04 7.66548 -2.79458 0
M  V30 24669 P 457.077 8.03563 -3.84925 0
M  V30 24670 O 456.857 8.85821 -5.0569 0
M  V30 24671 O 456.287 8.41101 -2.65469 0
M  V30 24672 O 456.827 6.4965 -4.18908 0
M  V30 24673 C 457.767 5.81037 -5.05421 0
M  V30 24674 C 457.037 4.78366 -5.89277 0
M  V30 24675 O 456.827 3.58302 -5.08433 0
M  V30 24676 C 455.637 5.17448 -6.36119 0
M  V30 24677 O 455.247 4.45271 -7.53232 0
M  V30 24678 C 454.757 4.74639 -5.19936 0
M  V30 24679 C 455.467 3.49432 -4.70418 0
M  V30 24680 N 455.417 3.31776 -3.22945 0
M  V30 24681 H 458.256 6.54213 -5.71376 0
M  V30 24682 H 458.528 5.30492 -4.44033 0
M  V30 24683 H 457.66 4.55889 -6.76652 0
M  V30 24684 P 453.697 4.23843 -7.83734 0
M  V30 24685 O 453.477 4.19407 -9.29784 0
M  V30 24686 O 452.907 5.24426 -7.09156 0
M  V30 24687 O 453.447 2.7935 -7.20758 0
M  V30 24688 C 454.387 1.7299 -7.50419 0
M  V30 24689 C 453.657 0.406376 -7.57911 0
M  V30 24690 O 453.447 -0.0897726 -6.21935 0
M  V30 24691 C 452.257 0.447224 -8.1878 0
M  V30 24692 O 451.867 -0.825065 -8.71101 0
M  V30 24693 C 451.377 0.783801 -6.99623 0
M  V30 24694 C 452.087 0.0619192 -5.85967 0
M  V30 24695 N 452.037 0.7859 -4.56281 0
M  V30 24696 H 454.876 1.93423 -8.4679 0
M  V30 24697 H 455.148 1.68181 -6.71046 0
M  V30 24698 H 454.28 -0.289041 -8.15388 0
M  V30 24699 P 450.317 -1.17771 -8.83182 0
M  V30 24700 O 450.097 -2.07206 -9.98732 0
M  V30 24701 O 449.527 0.0743816 -8.81969 0
M  V30 24702 O 450.067 -1.97652 -7.47304 0
M  V30 24703 C 451.007 -3.01133 -7.08783 0
M  V30 24704 C 450.277 -4.12613 -6.37049 0
M  V30 24705 O 450.067 -3.72827 -4.97879 0
M  V30 24706 C 448.877 -4.45085 -6.88694 0
M  V30 24707 O 448.487 -5.7877 -6.5624 0
M  V30 24708 C 447.997 -3.47817 -6.12078 0
M  V30 24709 C 448.707 -3.39414 -4.77697 0
M  V30 24710 N 448.657 -2.04615 -4.15333 0
M  V30 24711 H 451.496 -3.41248 -7.98759 0
M  V30 24712 H 451.768 -2.5837 -6.41742 0
M  V30 24713 H 450.9 -5.02657 -6.42673 0
M  V30 24714 P 446.937 -6.144 -6.45285 0
M  V30 24715 O 446.717 -7.54673 -6.86199 0
M  V30 24716 O 446.147 -5.12391 -7.179 0
M  V30 24717 O 446.687 -5.99158 -4.88404 0
M  V30 24718 C 447.627 -6.60234 -3.96415 0
M  V30 24719 C 446.897 -7.08259 -2.72856 0
M  V30 24720 O 446.687 -5.9427 -1.83651 0
M  V30 24721 C 445.497 -7.64886 -2.9555 0
M  V30 24722 O 445.107 -8.53963 -1.90717 0
M  V30 24723 C 444.617 -6.4116 -2.90739 0
M  V30 24724 C 445.327 -5.55375 -1.86963 0
M  V30 24725 N 445.277 -4.09664 -2.15742 0
M  V30 24726 H 448.116 -7.45574 -4.45629 0
M  V30 24727 H 448.388 -5.86232 -3.67314 0
M  V30 24728 H 447.52 -7.84412 -2.24479 0
M  V30 24729 P 443.557 -8.7635 -1.60911 0
M  V30 24730 O 443.337 -10.1388 -1.11561 0
M  V30 24731 O 442.767 -8.36503 -2.79617 0
M  V30 24732 O 443.307 -7.71806 -0.42951 0
M  V30 24733 C 444.247 -7.67148 0.673689 0
M  V30 24734 C 443.517 -7.33374 1.95559 0
M  V30 24735 O 443.307 -5.88721 2.00726 0
M  V30 24736 C 442.117 -7.92526 2.10483 0
M  V30 24737 O 441.727 -8.02971 3.47653 0
M  V30 24738 C 441.237 -6.89602 1.41652 0
M  V30 24739 C 441.947 -5.59201 1.75185 0
M  V30 24740 N 441.897 -4.58235 0.662552 0
M  V30 24741 H 444.736 -8.65116 0.777161 0
M  V30 24742 H 445.008 -6.90173 0.474152 0
M  V30 24743 H 444.14 -7.66548 2.79458 0
M  V30 24744 P 440.177 -8.03563 3.84925 0
M  V30 24745 O 439.957 -8.85821 5.0569 0
M  V30 24746 O 439.387 -8.41101 2.65469 0
M  V30 24747 O 439.927 -6.4965 4.18908 0
M  V30 24748 C 440.867 -5.81037 5.05421 0
M  V30 24749 C 440.137 -4.78366 5.89277 0
M  V30 24750 O 439.927 -3.58302 5.08433 0
M  V30 24751 C 438.737 -5.17448 6.36119 0
M  V30 24752 O 438.347 -4.45271 7.53232 0
M  V30 24753 C 437.857 -4.74639 5.19936 0
M  V30 24754 C 438.567 -3.49432 4.70418 0
M  V30 24755 N 438.517 -3.31776 3.22945 0
M  V30 24756 H 441.356 -6.54213 5.71376 0
M  V30 24757 H 441.628 -5.30492 4.44033 0
M  V30 24758 H 440.76 -4.55889 6.76652 0
M  V30 24759 P 436.797 -4.23843 7.83734 0
M  V30 24760 O 436.577 -4.19407 9.29784 0
M  V30 24761 O 436.007 -5.24426 7.09156 0
M  V30 24762 O 436.547 -2.7935 7.20758 0
M  V30 24763 C 437.487 -1.7299 7.50419 0
M  V30 24764 C 436.757 -0.406376 7.57911 0
M  V30 24765 O 436.547 0.0897726 6.21935 0
M  V30 24766 C 435.357 -0.447224 8.1878 0
M  V30 24767 O 434.967 0.825065 8.71101 0
M  V30 24768 C 434.477 -0.783801 6.99623 0
M  V30 24769 C 435.187 -0.0619192 5.85967 0
M  V30 24770 N 435.137 -0.7859 4.56281 0
M  V30 24771 H 437.976 -1.93423 8.4679 0
M  V30 24772 H 438.248 -1.68181 6.71046 0
M  V30 24773 H 437.38 0.289041 8.15388 0
M  V30 24774 P 433.417 1.17771 8.83182 0
M  V30 24775 O 433.197 2.07206 9.98732 0
M  V30 24776 O 432.627 -0.0743816 8.81969 0
M  V30 24777 O 433.167 1.97652 7.47304 0
M  V30 24778 C 434.107 3.01133 7.08783 0
M  V30 24779 C 433.377 4.12613 6.37049 0
M  V30 24780 O 433.167 3.72827 4.97879 0
M  V30 24781 C 431.977 4.45085 6.88694 0
M  V30 24782 O 431.587 5.7877 6.5624 0
M  V30 24783 C 431.097 3.47817 6.12078 0
M  V30 24784 C 431.807 3.39414 4.77697 0
M  V30 24785 N 431.757 2.04615 4.15333 0
M  V30 24786 H 434.596 3.41248 7.98759 0
M  V30 24787 H 434.868 2.5837 6.41742 0
M  V30 24788 H 434 5.02657 6.42673 0
M  V30 24789 P 430.037 6.144 6.45285 0
M  V30 24790 O 429.817 7.54673 6.86199 0
M  V30 24791 O 429.247 5.12391 7.179 0
M  V30 24792 O 429.787 5.99158 4.88404 0
M  V30 24793 C 430.727 6.60234 3.96415 0
M  V30 24794 C 429.997 7.08259 2.72856 0
M  V30 24795 O 429.787 5.9427 1.83651 0
M  V30 24796 C 428.597 7.64886 2.9555 0
M  V30 24797 O 428.207 8.53963 1.90717 0
M  V30 24798 C 427.717 6.4116 2.90739 0
M  V30 24799 C 428.427 5.55375 1.86963 0
M  V30 24800 N 428.377 4.09448 2.16152 0
M  V30 24801 H 431.216 7.45574 4.45629 0
M  V30 24802 H 431.488 5.85864 3.679 0
M  V30 24803 H 430.62 7.84412 2.24479 0
M  V30 24804 H 427.965 5.73457 0.888562 0
M  V30 24805 H 427.685 5.90877 3.88583 0
M  V30 24806 H 426.694 6.6596 2.58858 0
M  V30 24807 H 428.528 8.16339 3.92049 0
M  V30 24808 P 426.657 8.7635 1.60911 0
M  V30 24809 O 426.437 10.1388 1.11561 0
M  V30 24810 O 425.867 8.36503 2.79617 0
M  V30 24811 O 426.407 7.71806 0.42951 0
M  V30 24812 C 427.347 7.67148 -0.673689 0
M  V30 24813 C 426.617 7.33374 -1.95559 0
M  V30 24814 O 426.407 5.88721 -2.00726 0
M  V30 24815 C 425.217 7.92526 -2.10483 0
M  V30 24816 O 424.827 8.02971 -3.47653 0
M  V30 24817 C 424.337 6.89602 -1.41652 0
M  V30 24818 C 425.047 5.59201 -1.75185 0
M  V30 24819 N 424.997 4.58235 -0.662552 0
M  V30 24820 H 427.836 8.65116 -0.777161 0
M  V30 24821 H 428.108 6.90173 -0.474152 0
M  V30 24822 H 427.24 7.66548 -2.79458 0
M  V30 24823 P 423.278 8.03563 -3.84925 0
M  V30 24824 O 423.058 8.85821 -5.0569 0
M  V30 24825 O 422.488 8.41101 -2.65469 0
M  V30 24826 O 423.028 6.4965 -4.18908 0
M  V30 24827 C 423.968 5.81037 -5.05421 0
M  V30 24828 C 423.238 4.78366 -5.89277 0
M  V30 24829 O 423.028 3.58302 -5.08433 0
M  V30 24830 C 421.838 5.17448 -6.36119 0
M  V30 24831 O 421.448 4.45271 -7.53232 0
M  V30 24832 C 420.958 4.74639 -5.19936 0
M  V30 24833 C 421.668 3.49432 -4.70418 0
M  V30 24834 N 421.618 3.32099 -3.22613 0
M  V30 24835 C 421.698 4.28245 -2.25527 0
M  V30 24836 N 421.628 3.80823 -1.04874 0
M  V30 24837 C 421.478 2.44571 -1.23535 0
M  V30 24838 C 421.348 1.37068 -0.330675 0
M  V30 24839 N 421.338 1.51472 0.990824 0
M  V30 24840 N 421.228 0.138614 -0.848756 0
M  V30 24841 C 421.238 -0.00675923 -2.16999 0
M  V30 24842 N 421.358 0.904372 -3.11122 0
M  V30 24843 C 421.478 2.12707 -2.56212 0
M  V30 24844 H 424.457 6.54213 -5.71376 0
M  V30 24845 H 424.729 5.30936 -4.43503 0
M  V30 24846 H 423.861 4.55889 -6.76652 0
M  V30 24847 H 421.206 2.61715 -5.17932 0
M  V30 24848 H 420.926 5.52155 -4.41878 0
M  V30 24849 H 419.935 4.51981 -5.53374 0
M  V30 24850 H 421.769 6.25124 -6.55234 0
M  V30 24851 H 421.81 5.34372 -2.47488 0
M  V30 24852 H 421.429 2.45153 1.4078 0
M  V30 24853 H 421.24 0.688422 1.59911 0
M  V30 24854 H 421.132 -1.02584 -2.52346 0
M  V30 24855 P 419.898 4.23843 -7.83734 0
M  V30 24856 O 419.678 4.19407 -9.29784 0
M  V30 24857 O 419.108 5.24426 -7.09156 0
M  V30 24858 O 419.648 2.7935 -7.20758 0
M  V30 24859 C 420.588 1.7299 -7.50419 0
M  V30 24860 C 419.858 0.406376 -7.57911 0
M  V30 24861 O 419.648 -0.0897726 -6.21935 0
M  V30 24862 C 418.458 0.447224 -8.1878 0
M  V30 24863 O 418.068 -0.825065 -8.71101 0
M  V30 24864 C 417.578 0.783801 -6.99623 0
M  V30 24865 C 418.288 0.0619192 -5.85967 0
M  V30 24866 N 418.238 0.790462 -4.56202 0
M  V30 24867 C 418.318 2.13895 -4.34171 0
M  V30 24868 N 418.248 2.46449 -3.08687 0
M  V30 24869 C 418.098 1.2525 -2.43697 0
M  V30 24870 C 417.968 0.914535 -1.07318 0
M  V30 24871 N 417.958 1.80782 -0.0887348 0
M  V30 24872 N 417.848 -0.386745 -0.768133 0
M  V30 24873 C 417.858 -1.28096 -1.75159 0
M  V30 24874 N 417.978 -1.09708 -3.04861 0
M  V30 24875 C 418.098 0.214857 -3.32306 0
M  V30 24876 H 421.077 1.93423 -8.4679 0
M  V30 24877 H 421.349 1.68852 -6.70877 0
M  V30 24878 H 420.481 -0.289041 -8.15388 0
M  V30 24879 H 417.826 -0.927006 -5.72848 0
M  V30 24880 H 417.546 1.86973 -6.82036 0
M  V30 24881 H 416.555 0.403953 -7.13357 0
M  V30 24882 H 418.389 1.20599 -8.97534 0
M  V30 24883 H 418.43 2.86846 -5.14318 0
M  V30 24884 H 418.049 2.81082 -0.302037 0
M  V30 24885 H 417.86 1.49688 0.889064 0
M  V30 24886 H 417.752 -2.31317 -1.43855 0
M  V30 24887 P 416.518 -1.17771 -8.83182 0
M  V30 24888 O 416.298 -2.07206 -9.98732 0
M  V30 24889 O 415.728 0.0743816 -8.81969 0
M  V30 24890 O 416.268 -1.97652 -7.47304 0
M  V30 24891 C 417.208 -3.01133 -7.08783 0
M  V30 24892 C 416.478 -4.12613 -6.37049 0
M  V30 24893 O 416.268 -3.72827 -4.97879 0
M  V30 24894 C 415.078 -4.45085 -6.88694 0
M  V30 24895 O 414.688 -5.7877 -6.5624 0
M  V30 24896 C 414.198 -3.47817 -6.12078 0
M  V30 24897 C 414.908 -3.39414 -4.77697 0
M  V30 24898 N 414.858 -2.04615 -4.15333 0
M  V30 24899 C 414.938 -0.803897 -4.75249 0
M  V30 24900 N 414.858 0.197615 -3.91502 0
M  V30 24901 C 414.718 -0.413002 -2.66823 0
M  V30 24902 C 414.588 0.157221 -1.38007 0
M  V30 24903 O 414.568 1.34419 -1.057 0
M  V30 24904 N 414.468 -0.833136 -0.390236 0
M  V30 24905 C 414.468 -2.19402 -0.623885 0
M  V30 24906 N 414.338 -2.97622 0.449677 0
M  V30 24907 N 414.598 -2.73005 -1.83601 0
M  V30 24908 C 414.718 -1.78786 -2.80935 0
M  V30 24909 H 417.697 -3.41248 -7.98759 0
M  V30 24910 H 417.969 -2.5837 -6.41742 0
M  V30 24911 H 417.101 -5.02657 -6.42673 0
M  V30 24912 H 414.446 -4.11779 -4.09026 0
M  V30 24913 H 414.166 -2.49661 -6.61772 0
M  V30 24914 H 413.175 -3.86674 -6.00946 0
M  V30 24915 H 415.009 -4.30038 -7.97094 0
M  V30 24916 H 415.058 -0.670579 -5.82754 0
M  V30 24917 H 414.376 -0.528446 0.557287 0
M  V30 24918 H 414.339 -4.00117 0.344773 0
M  V30 24919 H 414.238 -2.55448 1.38544 0
M  V30 24920 P 413.138 -6.144 -6.45285 0
M  V30 24921 O 412.918 -7.54673 -6.86199 0
M  V30 24922 O 412.348 -5.12391 -7.179 0
M  V30 24923 O 412.888 -5.99158 -4.88404 0
M  V30 24924 C 413.828 -6.60234 -3.96415 0
M  V30 24925 C 413.098 -7.08259 -2.72856 0
M  V30 24926 O 412.888 -5.9427 -1.83651 0
M  V30 24927 C 411.698 -7.64886 -2.9555 0
M  V30 24928 O 411.308 -8.53963 -1.90717 0
M  V30 24929 C 410.818 -6.4116 -2.90739 0
M  V30 24930 C 411.528 -5.55375 -1.86963 0
M  V30 24931 N 411.478 -4.09664 -2.15742 0
M  V30 24932 C 411.558 -3.44381 -3.37233 0
M  V30 24933 N 411.478 -2.14131 -3.28347 0
M  V30 24934 C 411.338 -1.90247 -1.91588 0
M  V30 24935 C 411.208 -0.683992 -1.20892 0
M  V30 24936 O 411.188 0.46618 -1.64523 0
M  V30 24937 N 411.088 -0.903396 0.173998 0
M  V30 24938 C 411.088 -2.14171 0.784879 0
M  V30 24939 N 410.958 -2.1435 2.11317 0
M  V30 24940 N 411.218 -3.28784 0.119316 0
M  V30 24941 C 411.338 -3.0977 -1.22194 0
M  V30 24942 H 414.317 -7.45574 -4.45629 0
M  V30 24943 H 414.589 -5.86232 -3.67314 0
M  V30 24944 H 413.721 -7.84412 -2.24479 0
M  V30 24945 H 411.066 -5.73556 -0.888715 0
M  V30 24946 H 410.786 -5.9096 -3.88638 0
M  V30 24947 H 409.795 -6.66053 -2.58894 0
M  V30 24948 H 411.629 -8.16429 -3.92093 0
M  V30 24949 H 411.678 -3.96785 -4.32043 0
M  V30 24950 H 410.996 -0.0999567 0.761467 0
M  V30 24951 H 410.959 -3.03436 2.63076 0
M  V30 24952 H 410.858 -1.25228 2.62233 0
M  V30 24953 P 409.758 -8.7635 -1.60911 0
M  V30 24954 O 409.538 -10.1388 -1.11561 0
M  V30 24955 O 408.968 -8.36503 -2.79617 0
M  V30 24956 O 409.508 -7.71806 -0.42951 0
M  V30 24957 C 410.448 -7.67148 0.673689 0
M  V30 24958 C 409.718 -7.33374 1.95559 0
M  V30 24959 O 409.508 -5.88721 2.00726 0
M  V30 24960 C 408.318 -7.92526 2.10483 0
M  V30 24961 O 407.928 -8.02971 3.47653 0
M  V30 24962 C 407.438 -6.89602 1.41652 0
M  V30 24963 C 408.148 -5.59201 1.75185 0
M  V30 24964 N 408.098 -4.58235 0.662552 0
M  V30 24965 H 410.937 -8.65116 0.777161 0
M  V30 24966 H 411.209 -6.90173 0.474152 0
M  V30 24967 H 410.341 -7.66548 2.79458 0
M  V30 24968 P 406.378 -8.03563 3.84925 0
M  V30 24969 O 406.158 -8.85821 5.0569 0
M  V30 24970 O 405.588 -8.41101 2.65469 0
M  V30 24971 O 406.128 -6.4965 4.18908 0
M  V30 24972 C 407.068 -5.81037 5.05421 0
M  V30 24973 C 406.338 -4.78366 5.89277 0
M  V30 24974 O 406.128 -3.58302 5.08433 0
M  V30 24975 C 404.938 -5.17448 6.36119 0
M  V30 24976 O 404.548 -4.45271 7.53232 0
M  V30 24977 C 404.058 -4.74639 5.19936 0
M  V30 24978 C 404.768 -3.49432 4.70418 0
M  V30 24979 N 404.718 -3.31776 3.22945 0
M  V30 24980 H 407.557 -6.54213 5.71376 0
M  V30 24981 H 407.829 -5.30492 4.44033 0
M  V30 24982 H 406.961 -4.55889 6.76652 0
M  V30 24983 P 402.998 -4.23843 7.83734 0
M  V30 24984 O 402.778 -4.19407 9.29784 0
M  V30 24985 O 402.208 -5.24426 7.09156 0
M  V30 24986 O 402.748 -2.7935 7.20758 0
M  V30 24987 C 403.688 -1.7299 7.50419 0
M  V30 24988 C 402.958 -0.406376 7.57911 0
M  V30 24989 O 402.748 0.0897726 6.21935 0
M  V30 24990 C 401.558 -0.447224 8.1878 0
M  V30 24991 O 401.168 0.825065 8.71101 0
M  V30 24992 C 400.678 -0.783801 6.99623 0
M  V30 24993 C 401.388 -0.0619192 5.85967 0
M  V30 24994 N 401.338 -0.7859 4.56281 0
M  V30 24995 H 404.177 -1.93423 8.4679 0
M  V30 24996 H 404.449 -1.68181 6.71046 0
M  V30 24997 H 403.581 0.289041 8.15388 0
M  V30 24998 P 399.618 1.17771 8.83182 0
M  V30 24999 O 399.398 2.07206 9.98732 0
M  V30 25000 O 398.828 -0.0743816 8.81969 0
M  V30 25001 O 399.368 1.97652 7.47304 0
M  V30 25002 C 400.308 3.01133 7.08783 0
M  V30 25003 C 399.578 4.12613 6.37049 0
M  V30 25004 O 399.368 3.72827 4.97879 0
M  V30 25005 C 398.178 4.45085 6.88694 0
M  V30 25006 O 397.788 5.7877 6.5624 0
M  V30 25007 C 397.298 3.47817 6.12078 0
M  V30 25008 C 398.008 3.39414 4.77697 0
M  V30 25009 N 397.958 2.04199 4.15538 0
M  V30 25010 H 400.797 3.41248 7.98759 0
M  V30 25011 H 401.069 2.57728 6.42 0
M  V30 25012 H 400.201 5.02657 6.42673 0
M  V30 25013 H 397.546 4.11708 4.08956 0
M  V30 25014 H 397.266 2.49626 6.61679 0
M  V30 25015 H 396.275 3.8662 6.00862 0
M  V30 25016 H 398.109 4.29991 7.97006 0
M  V30 25017 P 396.238 6.144 6.45285 0
M  V30 25018 O 396.018 7.54673 6.86199 0
M  V30 25019 O 395.448 5.12391 7.179 0
M  V30 25020 O 395.988 5.99158 4.88404 0
M  V30 25021 C 396.928 6.60234 3.96415 0
M  V30 25022 C 396.198 7.08259 2.72856 0
M  V30 25023 O 395.988 5.9427 1.83651 0
M  V30 25024 C 394.798 7.64886 2.9555 0
M  V30 25025 O 394.408 8.53963 1.90717 0
M  V30 25026 C 393.918 6.4116 2.90739 0
M  V30 25027 C 394.628 5.55375 1.86963 0
M  V30 25028 N 394.578 4.09664 2.15742 0
M  V30 25029 H 397.417 7.45574 4.45629 0
M  V30 25030 H 397.689 5.86232 3.67314 0
M  V30 25031 H 396.821 7.84412 2.24479 0
M  V30 25032 P 392.858 8.7635 1.60911 0
M  V30 25033 O 392.638 10.1388 1.11561 0
M  V30 25034 O 392.068 8.36503 2.79617 0
M  V30 25035 O 392.608 7.71806 0.42951 0
M  V30 25036 C 393.548 7.67148 -0.673689 0
M  V30 25037 C 392.818 7.33374 -1.95559 0
M  V30 25038 O 392.608 5.88721 -2.00726 0
M  V30 25039 C 391.418 7.92526 -2.10483 0
M  V30 25040 O 391.028 8.02971 -3.47653 0
M  V30 25041 C 390.538 6.89602 -1.41652 0
M  V30 25042 C 391.248 5.59201 -1.75185 0
M  V30 25043 N 391.198 4.58301 -0.657969 0
M  V30 25044 H 394.037 8.65116 -0.777161 0
M  V30 25045 H 394.309 6.9022 -0.46725 0
M  V30 25046 H 393.441 7.66548 -2.79458 0
M  V30 25047 H 390.786 5.16165 -2.65183 0
M  V30 25048 H 390.506 7.06433 -0.329384 0
M  V30 25049 H 389.515 6.90926 -1.82021 0
M  V30 25050 H 391.349 8.90873 -1.62657 0
M  V30 25051 P 389.478 8.03563 -3.84925 0
M  V30 25052 O 389.258 8.85821 -5.0569 0
M  V30 25053 O 388.688 8.41101 -2.65469 0
M  V30 25054 O 389.228 6.4965 -4.18908 0
M  V30 25055 C 390.168 5.80886 -5.05289 0
M  V30 25056 C 389.438 4.78366 -5.89277 0
M  V30 25057 O 389.228 3.58302 -5.08433 0
M  V30 25058 C 388.038 5.16748 -6.36559 0
M  V30 25059 O 387.648 4.45271 -7.53232 0
M  V30 25060 C 387.158 4.74572 -5.19863 0
M  V30 25061 C 387.868 3.49373 -4.70338 0
M  V30 25062 N 387.818 3.31704 -3.22876 0
M  V30 25063 C 387.668 2.03326 -2.74871 0
M  V30 25064 O 387.578 1.06486 -3.48076 0
M  V30 25065 N 387.628 1.91838 -1.37456 0
M  V30 25066 C 387.718 2.94295 -0.462035 0
M  V30 25067 C 387.868 4.25064 -1.05249 0
M  V30 25068 C 387.918 4.40214 -2.39192 0
M  V30 25069 H 390.659 6.54063 -5.71245 0
M  V30 25070 H 390.928 5.30339 -4.43905 0
M  V30 25071 H 390.061 4.55889 -6.76652 0
M  V30 25072 H 387.406 2.6167 -5.17842 0
M  V30 25073 H 387.127 5.52155 -4.41878 0
M  V30 25074 H 386.135 4.51918 -5.53297 0
M  V30 25075 H 387.969 6.25055 -6.55162 0
M  V30 25076 H 388.04 5.39798 -2.81523 0
M  V30 25077 P 386.098 4.23843 -7.83734 0
M  V30 25078 O 385.878 4.19407 -9.29784 0
M  V30 25079 O 385.308 5.24426 -7.09156 0
M  V30 25080 O 385.848 2.7935 -7.20758 0
M  V30 25081 C 386.788 1.7299 -7.50419 0
M  V30 25082 C 386.058 0.406376 -7.57911 0
M  V30 25083 O 385.848 -0.0897726 -6.21935 0
M  V30 25084 C 384.658 0.447224 -8.1878 0
M  V30 25085 O 384.268 -0.825065 -8.71101 0
M  V30 25086 C 383.778 0.783801 -6.99623 0
M  V30 25087 C 384.488 0.0619192 -5.85967 0
M  V30 25088 N 384.438 0.7859 -4.56281 0
M  V30 25089 H 387.277 1.93423 -8.4679 0
M  V30 25090 H 387.549 1.68181 -6.71046 0
M  V30 25091 H 386.681 -0.289041 -8.15388 0
M  V30 25092 P 382.718 -1.17771 -8.83182 0
M  V30 25093 O 382.498 -2.07206 -9.98732 0
M  V30 25094 O 381.928 0.0743816 -8.81969 0
M  V30 25095 O 382.468 -1.97652 -7.47304 0
M  V30 25096 C 383.408 -3.01133 -7.08783 0
M  V30 25097 C 382.678 -4.12613 -6.37049 0
M  V30 25098 O 382.468 -3.72827 -4.97879 0
M  V30 25099 C 381.278 -4.45085 -6.88694 0
M  V30 25100 O 380.888 -5.7877 -6.5624 0
M  V30 25101 C 380.398 -3.47817 -6.12078 0
M  V30 25102 C 381.108 -3.39414 -4.77697 0
M  V30 25103 N 381.058 -2.04615 -4.15333 0
M  V30 25104 H 383.897 -3.41248 -7.98759 0
M  V30 25105 H 384.169 -2.5837 -6.41742 0
M  V30 25106 H 383.301 -5.02657 -6.42673 0
M  V30 25107 P 379.338 -6.144 -6.45285 0
M  V30 25108 O 379.118 -7.54673 -6.86199 0
M  V30 25109 O 378.548 -5.12391 -7.179 0
M  V30 25110 O 379.088 -5.99158 -4.88404 0
M  V30 25111 C 380.028 -6.60234 -3.96415 0
M  V30 25112 C 379.298 -7.08259 -2.72856 0
M  V30 25113 O 379.088 -5.9427 -1.83651 0
M  V30 25114 C 377.898 -7.64886 -2.9555 0
M  V30 25115 O 377.508 -8.53963 -1.90717 0
M  V30 25116 C 377.018 -6.4116 -2.90739 0
M  V30 25117 C 377.728 -5.55375 -1.86963 0
M  V30 25118 N 377.678 -4.09664 -2.15742 0
M  V30 25119 C 377.758 -3.44381 -3.37233 0
M  V30 25120 N 377.678 -2.14131 -3.28347 0
M  V30 25121 C 377.538 -1.90247 -1.91588 0
M  V30 25122 C 377.408 -0.683992 -1.20892 0
M  V30 25123 O 377.388 0.46618 -1.64523 0
M  V30 25124 N 377.288 -0.903396 0.173998 0
M  V30 25125 C 377.288 -2.14171 0.784879 0
M  V30 25126 N 377.158 -2.1435 2.11317 0
M  V30 25127 N 377.418 -3.28784 0.119316 0
M  V30 25128 C 377.538 -3.0977 -1.22194 0
M  V30 25129 H 380.517 -7.45574 -4.45629 0
M  V30 25130 H 380.789 -5.86232 -3.67314 0
M  V30 25131 H 379.921 -7.84412 -2.24479 0
M  V30 25132 H 377.266 -5.73556 -0.888715 0
M  V30 25133 H 376.986 -5.9096 -3.88638 0
M  V30 25134 H 375.995 -6.66053 -2.58894 0
M  V30 25135 H 377.829 -8.16429 -3.92093 0
M  V30 25136 H 377.878 -3.96785 -4.32043 0
M  V30 25137 H 377.196 -0.0999567 0.761467 0
M  V30 25138 H 377.159 -3.03436 2.63076 0
M  V30 25139 H 377.058 -1.25228 2.62233 0
M  V30 25140 P 375.958 -8.7635 -1.60911 0
M  V30 25141 O 375.738 -10.1388 -1.11561 0
M  V30 25142 O 375.168 -8.36503 -2.79617 0
M  V30 25143 O 375.708 -7.71806 -0.42951 0
M  V30 25144 C 376.648 -7.66948 0.673514 0
M  V30 25145 C 375.918 -7.33374 1.95559 0
M  V30 25146 O 375.708 -5.88721 2.00726 0
M  V30 25147 C 374.518 -7.92218 2.1125 0
M  V30 25148 O 374.128 -8.02971 3.47653 0
M  V30 25149 C 373.638 -6.89504 1.41631 0
M  V30 25150 C 374.348 -5.59106 1.75155 0
M  V30 25151 N 374.298 -4.58136 0.662409 0
M  V30 25152 C 374.148 -3.26059 1.02863 0
M  V30 25153 O 374.058 -2.90743 2.19009 0
M  V30 25154 N 374.108 -2.35995 -0.0155585 0
M  V30 25155 C 374.198 -2.65248 -1.35603 0
M  V30 25156 O 374.148 -1.75605 -2.20651 0
M  V30 25157 C 374.348 -4.05747 -1.64698 0
M  V30 25158 C 374.458 -4.42345 -3.09553 0
M  V30 25159 C 374.398 -4.96734 -0.652411 0
M  V30 25160 H 377.139 -8.64917 0.776982 0
M  V30 25161 H 377.408 -6.89974 0.474015 0
M  V30 25162 H 376.541 -7.66548 2.79458 0
M  V30 25163 H 373.886 -5.16076 2.65138 0
M  V30 25164 H 373.607 -7.06433 0.329384 0
M  V30 25165 H 372.615 -6.90829 1.81996 0
M  V30 25166 H 374.449 -8.90774 1.62639 0
M  V30 25167 H 374.52 -6.02181 -0.895285 0
M  V30 25168 H 373.49 -4.80252 -3.45468 0
M  V30 25169 H 375.227 -5.20015 -3.22119 0
M  V30 25170 H 374.739 -3.53269 -3.67833 0
M  V30 25171 H 374.003 -1.39558 0.227499 0
M  V30 25172 P 372.578 -8.03563 3.84925 0
M  V30 25173 O 372.358 -8.85821 5.0569 0
M  V30 25174 O 371.788 -8.41101 2.65469 0
M  V30 25175 O 372.328 -6.4965 4.18908 0
M  V30 25176 C 373.268 -5.81037 5.05421 0
M  V30 25177 C 372.538 -4.78366 5.89277 0
M  V30 25178 O 372.328 -3.58302 5.08433 0
M  V30 25179 C 371.138 -5.17448 6.36119 0
M  V30 25180 O 370.748 -4.45271 7.53232 0
M  V30 25181 C 370.258 -4.74639 5.19936 0
M  V30 25182 C 370.968 -3.49432 4.70418 0
M  V30 25183 N 370.918 -3.31776 3.22945 0
M  V30 25184 H 373.757 -6.54213 5.71376 0
M  V30 25185 H 374.029 -5.30492 4.44033 0
M  V30 25186 H 373.161 -4.55889 6.76652 0
M  V30 25187 P 369.198 -4.23843 7.83734 0
M  V30 25188 O 368.978 -4.19407 9.29784 0
M  V30 25189 O 368.408 -5.24426 7.09156 0
M  V30 25190 O 368.948 -2.7935 7.20758 0
M  V30 25191 C 369.888 -1.7299 7.50419 0
M  V30 25192 C 369.158 -0.406376 7.57911 0
M  V30 25193 O 368.948 0.0897726 6.21935 0
M  V30 25194 C 367.758 -0.447224 8.1878 0
M  V30 25195 O 367.368 0.825065 8.71101 0
M  V30 25196 C 366.878 -0.783801 6.99623 0
M  V30 25197 C 367.588 -0.0619192 5.85967 0
M  V30 25198 N 367.538 -0.790462 4.56202 0
M  V30 25199 C 367.618 -2.13895 4.34171 0
M  V30 25200 N 367.548 -2.46449 3.08687 0
M  V30 25201 C 367.398 -1.2525 2.43697 0
M  V30 25202 C 367.268 -0.914535 1.07318 0
M  V30 25203 N 367.258 -1.80782 0.0887348 0
M  V30 25204 N 367.148 0.386745 0.768133 0
M  V30 25205 C 367.158 1.28096 1.75159 0
M  V30 25206 N 367.278 1.09708 3.04861 0
M  V30 25207 C 367.398 -0.214857 3.32306 0
M  V30 25208 H 370.377 -1.93423 8.4679 0
M  V30 25209 H 370.649 -1.68852 6.70877 0
M  V30 25210 H 369.781 0.289041 8.15388 0
M  V30 25211 H 367.126 0.927006 5.72848 0
M  V30 25212 H 366.846 -1.86973 6.82036 0
M  V30 25213 H 365.855 -0.403953 7.13357 0
M  V30 25214 H 367.689 -1.20599 8.97534 0
M  V30 25215 H 367.73 -2.86846 5.14318 0
M  V30 25216 H 367.349 -2.81082 0.302037 0
M  V30 25217 H 367.16 -1.49688 -0.889064 0
M  V30 25218 H 367.052 2.31317 1.43855 0
M  V30 25219 P 365.818 1.17771 8.83182 0
M  V30 25220 O 365.598 2.07206 9.98732 0
M  V30 25221 O 365.028 -0.0743816 8.81969 0
M  V30 25222 O 365.568 1.97652 7.47304 0
M  V30 25223 C 366.508 3.01133 7.08783 0
M  V30 25224 C 365.778 4.12613 6.37049 0
M  V30 25225 O 365.568 3.72827 4.97879 0
M  V30 25226 C 364.378 4.45085 6.88694 0
M  V30 25227 O 363.988 5.7877 6.5624 0
M  V30 25228 C 363.498 3.47817 6.12078 0
M  V30 25229 C 364.208 3.39414 4.77697 0
M  V30 25230 N 364.158 2.04615 4.15333 0
M  V30 25231 H 366.997 3.41248 7.98759 0
M  V30 25232 H 367.269 2.5837 6.41742 0
M  V30 25233 H 366.401 5.02657 6.42673 0
M  V30 25234 P 362.438 6.144 6.45285 0
M  V30 25235 O 362.218 7.54673 6.86199 0
M  V30 25236 O 361.648 5.12391 7.179 0
M  V30 25237 O 362.188 5.99158 4.88404 0
M  V30 25238 C 363.128 6.60234 3.96415 0
M  V30 25239 C 362.398 7.08259 2.72856 0
M  V30 25240 O 362.188 5.9427 1.83651 0
M  V30 25241 C 360.998 7.64886 2.9555 0
M  V30 25242 O 360.608 8.53963 1.90717 0
M  V30 25243 C 360.118 6.4116 2.90739 0
M  V30 25244 C 360.828 5.55375 1.86963 0
M  V30 25245 N 360.778 4.09664 2.15742 0
M  V30 25246 H 363.617 7.45574 4.45629 0
M  V30 25247 H 363.889 5.86232 3.67314 0
M  V30 25248 H 363.021 7.84412 2.24479 0
M  V30 25249 P 359.058 8.7635 1.60911 0
M  V30 25250 O 358.838 10.1388 1.11561 0
M  V30 25251 O 358.268 8.36503 2.79617 0
M  V30 25252 O 358.808 7.71806 0.42951 0
M  V30 25253 C 359.748 7.66948 -0.673514 0
M  V30 25254 C 359.018 7.33374 -1.95559 0
M  V30 25255 O 358.808 5.88721 -2.00726 0
M  V30 25256 C 357.618 7.92218 -2.1125 0
M  V30 25257 O 357.228 8.02971 -3.47653 0
M  V30 25258 C 356.738 6.89504 -1.41631 0
M  V30 25259 C 357.448 5.59106 -1.75155 0
M  V30 25260 N 357.398 4.58136 -0.662409 0
M  V30 25261 C 357.248 3.26059 -1.02863 0
M  V30 25262 O 357.158 2.90743 -2.19009 0
M  V30 25263 N 357.208 2.35995 0.0155585 0
M  V30 25264 C 357.298 2.65248 1.35603 0
M  V30 25265 C 357.448 4.05747 1.64698 0
M  V30 25266 C 357.498 4.96734 0.652411 0
M  V30 25267 H 360.239 8.64917 -0.776982 0
M  V30 25268 H 360.508 6.89974 -0.474015 0
M  V30 25269 H 359.641 7.66548 -2.79458 0
M  V30 25270 H 356.986 5.16076 -2.65138 0
M  V30 25271 H 356.707 7.06433 -0.329384 0
M  V30 25272 H 355.715 6.90829 -1.81996 0
M  V30 25273 H 357.549 8.90774 -1.62639 0
M  V30 25274 H 357.62 6.02181 0.895285 0
M  V30 25275 P 355.678 8.03563 -3.84925 0
M  V30 25276 O 355.458 8.85821 -5.0569 0
M  V30 25277 O 354.888 8.41101 -2.65469 0
M  V30 25278 O 355.428 6.49734 -4.18962 0
M  V30 25279 C 356.368 5.81037 -5.05421 0
M  V30 25280 C 355.638 4.79018 -5.88876 0
M  V30 25281 O 355.428 3.58359 -5.08515 0
M  V30 25282 C 354.238 5.17448 -6.36119 0
M  V30 25283 O 353.848 4.45322 -7.53318 0
M  V30 25284 C 353.358 4.74639 -5.19936 0
M  V30 25285 C 354.068 3.49432 -4.70418 0
M  V30 25286 N 354.018 3.31776 -3.22945 0
M  V30 25287 C 353.868 2.02742 -2.72939 0
M  V30 25288 O 353.778 1.08301 -3.52749 0
M  V30 25289 N 353.818 1.96117 -1.22063 0
M  V30 25290 C 353.918 2.8878 -0.551566 0
M  V30 25291 N 353.868 2.65609 0.750198 0
M  V30 25292 C 354.068 4.22457 -1.03707 0
M  V30 25293 C 354.118 4.37979 -2.39113 0
M  V30 25294 H 356.858 6.54138 -5.7131 0
M  V30 25295 H 357.128 5.30492 -4.44033 0
M  V30 25296 H 356.261 4.55945 -6.76735 0
M  V30 25297 H 353.606 2.6176 -5.18021 0
M  V30 25298 H 353.326 5.52233 -4.41941 0
M  V30 25299 H 352.335 4.52045 -5.53452 0
M  V30 25300 H 354.169 6.25124 -6.55234 0
M  V30 25301 H 354.241 5.37936 -2.80552 0
M  V30 25302 H 354.139 5.07528 -0.359553 0
M  V30 25303 H 353.751 1.69403 1.09847 0
M  V30 25304 H 353.947 3.43701 1.41792 0
M  V30 25305 P 352.298 4.23843 -7.83734 0
M  V30 25306 O 352.078 4.19407 -9.29784 0
M  V30 25307 O 351.508 5.24426 -7.09156 0
M  V30 25308 O 352.048 2.7935 -7.20758 0
M  V30 25309 C 352.988 1.72945 -7.50224 0
M  V30 25310 C 352.258 0.406376 -7.57911 0
M  V30 25311 O 352.048 -0.0897726 -6.21935 0
M  V30 25312 C 350.858 0.438983 -8.18724 0
M  V30 25313 O 350.468 -0.825065 -8.71101 0
M  V30 25314 C 349.978 0.783689 -6.99524 0
M  V30 25315 C 350.688 0.0619086 -5.85867 0
M  V30 25316 N 350.638 0.78573 -4.56183 0
M  V30 25317 C 350.488 0.0292889 -3.41887 0
M  V30 25318 O 350.398 -1.18445 -3.4419 0
M  V30 25319 N 350.448 0.744061 -2.23964 0
M  V30 25320 C 350.538 2.10932 -2.10362 0
M  V30 25321 O 350.488 2.64117 -0.98825 0
M  V30 25322 C 350.688 2.8202 -3.34994 0
M  V30 25323 C 350.798 4.31095 -3.25037 0
M  V30 25324 C 350.738 2.15547 -4.52261 0
M  V30 25325 H 353.479 1.93379 -8.46595 0
M  V30 25326 H 353.748 1.68132 -6.70852 0
M  V30 25327 H 352.881 -0.289041 -8.15388 0
M  V30 25328 H 350.226 -0.926847 -5.72749 0
M  V30 25329 H 349.947 1.86973 -6.82036 0
M  V30 25330 H 348.955 0.403896 -7.13257 0
M  V30 25331 H 350.789 1.20585 -8.97435 0
M  V30 25332 H 350.86 2.71231 -5.45042 0
M  V30 25333 H 349.83 4.76966 -3.49992 0
M  V30 25334 H 351.567 4.67047 -3.95024 0
M  V30 25335 H 351.079 4.58996 -2.22312 0
M  V30 25336 H 350.343 0.214893 -1.39758 0
M  V30 25337 P 348.918 -1.17771 -8.83182 0
M  V30 25338 O 348.698 -2.07206 -9.98732 0
M  V30 25339 O 348.128 0.0743816 -8.81969 0
M  V30 25340 O 348.668 -1.97652 -7.47304 0
M  V30 25341 C 349.608 -3.01133 -7.08783 0
M  V30 25342 C 348.878 -4.12613 -6.37049 0
M  V30 25343 O 348.668 -3.72827 -4.97879 0
M  V30 25344 C 347.478 -4.45085 -6.88694 0
M  V30 25345 O 347.088 -5.7877 -6.5624 0
M  V30 25346 C 346.598 -3.47817 -6.12078 0
M  V30 25347 C 347.308 -3.39414 -4.77697 0
M  V30 25348 N 347.258 -2.04615 -4.15333 0
M  V30 25349 H 350.097 -3.41248 -7.98759 0
M  V30 25350 H 350.369 -2.5837 -6.41742 0
M  V30 25351 H 349.501 -5.02657 -6.42673 0
M  V30 25352 P 345.538 -6.144 -6.45285 0
M  V30 25353 O 345.318 -7.54673 -6.86199 0
M  V30 25354 O 344.748 -5.12391 -7.179 0
M  V30 25355 O 345.288 -5.99158 -4.88404 0
M  V30 25356 C 346.228 -6.60234 -3.96415 0
M  V30 25357 C 345.498 -7.08259 -2.72856 0
M  V30 25358 O 345.288 -5.9427 -1.83651 0
M  V30 25359 C 344.098 -7.64886 -2.9555 0
M  V30 25360 O 343.708 -8.53963 -1.90717 0
M  V30 25361 C 343.218 -6.4116 -2.90739 0
M  V30 25362 C 343.928 -5.55375 -1.86963 0
M  V30 25363 N 343.878 -4.09664 -2.15742 0
M  V30 25364 H 346.717 -7.45574 -4.45629 0
M  V30 25365 H 346.989 -5.86232 -3.67314 0
M  V30 25366 H 346.121 -7.84412 -2.24479 0
M  V30 25367 P 342.158 -8.7635 -1.60911 0
M  V30 25368 O 341.938 -10.1388 -1.11561 0
M  V30 25369 O 341.368 -8.36503 -2.79617 0
M  V30 25370 O 341.908 -7.71806 -0.42951 0
M  V30 25371 C 342.848 -7.67148 0.673689 0
M  V30 25372 C 342.118 -7.33374 1.95559 0
M  V30 25373 O 341.908 -5.88721 2.00726 0
M  V30 25374 C 340.718 -7.92526 2.10483 0
M  V30 25375 O 340.328 -8.02971 3.47653 0
M  V30 25376 C 339.838 -6.89602 1.41652 0
M  V30 25377 C 340.548 -5.59201 1.75185 0
M  V30 25378 N 340.498 -4.58235 0.662552 0
M  V30 25379 H 343.337 -8.65116 0.777161 0
M  V30 25380 H 343.609 -6.90173 0.474152 0
M  V30 25381 H 342.741 -7.66548 2.79458 0
M  V30 25382 P 338.778 -8.03563 3.84925 0
M  V30 25383 O 338.558 -8.85821 5.0569 0
M  V30 25384 O 337.988 -8.41101 2.65469 0
M  V30 25385 O 338.528 -6.4965 4.18908 0
M  V30 25386 C 339.468 -5.81037 5.05421 0
M  V30 25387 C 338.738 -4.78366 5.89277 0
M  V30 25388 O 338.528 -3.58302 5.08433 0
M  V30 25389 C 337.338 -5.17448 6.36119 0
M  V30 25390 O 336.948 -4.45271 7.53232 0
M  V30 25391 C 336.458 -4.74639 5.19936 0
M  V30 25392 C 337.168 -3.49432 4.70418 0
M  V30 25393 N 337.118 -3.31776 3.22945 0
M  V30 25394 H 339.957 -6.54213 5.71376 0
M  V30 25395 H 340.229 -5.30492 4.44033 0
M  V30 25396 H 339.361 -4.55889 6.76652 0
M  V30 25397 P 335.398 -4.23843 7.83734 0
M  V30 25398 O 335.178 -4.19407 9.29784 0
M  V30 25399 O 334.608 -5.24426 7.09156 0
M  V30 25400 O 335.148 -2.7935 7.20758 0
M  V30 25401 C 336.088 -1.7299 7.50419 0
M  V30 25402 C 335.358 -0.406376 7.57911 0
M  V30 25403 O 335.148 0.0897726 6.21935 0
M  V30 25404 C 333.958 -0.447224 8.1878 0
M  V30 25405 O 333.568 0.825065 8.71101 0
M  V30 25406 C 333.078 -0.783801 6.99623 0
M  V30 25407 C 333.788 -0.0619192 5.85967 0
M  V30 25408 N 333.738 -0.7859 4.56281 0
M  V30 25409 H 336.577 -1.93423 8.4679 0
M  V30 25410 H 336.849 -1.68181 6.71046 0
M  V30 25411 H 335.981 0.289041 8.15388 0
M  V30 25412 P 332.018 1.17771 8.83182 0
M  V30 25413 O 331.798 2.07206 9.98732 0
M  V30 25414 O 331.228 -0.0743816 8.81969 0
M  V30 25415 O 331.768 1.97652 7.47304 0
M  V30 25416 C 332.708 3.01133 7.08783 0
M  V30 25417 C 331.978 4.12613 6.37049 0
M  V30 25418 O 331.768 3.72827 4.97879 0
M  V30 25419 C 330.578 4.45085 6.88694 0
M  V30 25420 O 330.188 5.7877 6.5624 0
M  V30 25421 C 329.698 3.47817 6.12078 0
M  V30 25422 C 330.408 3.39414 4.77697 0
M  V30 25423 N 330.358 2.04615 4.15333 0
M  V30 25424 H 333.197 3.41248 7.98759 0
M  V30 25425 H 333.469 2.5837 6.41742 0
M  V30 25426 H 332.601 5.02657 6.42673 0
M  V30 25427 P 328.638 6.144 6.45285 0
M  V30 25428 O 328.418 7.54673 6.86199 0
M  V30 25429 O 327.848 5.12391 7.179 0
M  V30 25430 O 328.388 5.99158 4.88404 0
M  V30 25431 C 329.328 6.60234 3.96415 0
M  V30 25432 C 328.598 7.08259 2.72856 0
M  V30 25433 O 328.388 5.9427 1.83651 0
M  V30 25434 C 327.198 7.64886 2.9555 0
M  V30 25435 O 326.808 8.53963 1.90717 0
M  V30 25436 C 326.318 6.4116 2.90739 0
M  V30 25437 C 327.028 5.55375 1.86963 0
M  V30 25438 N 326.978 4.09664 2.15742 0
M  V30 25439 H 329.817 7.45574 4.45629 0
M  V30 25440 H 330.089 5.86232 3.67314 0
M  V30 25441 H 329.221 7.84412 2.24479 0
M  V30 25442 P 325.258 8.7635 1.60911 0
M  V30 25443 O 325.038 10.1388 1.11561 0
M  V30 25444 O 324.468 8.36503 2.79617 0
M  V30 25445 O 325.008 7.71806 0.42951 0
M  V30 25446 C 325.948 7.66948 -0.673514 0
M  V30 25447 C 325.218 7.33374 -1.95559 0
M  V30 25448 O 325.008 5.88721 -2.00726 0
M  V30 25449 C 323.818 7.92218 -2.1125 0
M  V30 25450 O 323.428 8.02971 -3.47653 0
M  V30 25451 C 322.938 6.89504 -1.41631 0
M  V30 25452 C 323.648 5.59106 -1.75155 0
M  V30 25453 N 323.598 4.58136 -0.662409 0
M  V30 25454 C 323.448 3.26059 -1.02863 0
M  V30 25455 O 323.358 2.90743 -2.19009 0
M  V30 25456 N 323.408 2.35995 0.0155585 0
M  V30 25457 C 323.498 2.65248 1.35603 0
M  V30 25458 C 323.648 4.05747 1.64698 0
M  V30 25459 C 323.698 4.96734 0.652411 0
M  V30 25460 H 326.439 8.64917 -0.776982 0
M  V30 25461 H 326.708 6.89974 -0.474015 0
M  V30 25462 H 325.841 7.66548 -2.79458 0
M  V30 25463 H 323.186 5.16076 -2.65138 0
M  V30 25464 H 322.907 7.06433 -0.329384 0
M  V30 25465 H 321.915 6.90829 -1.81996 0
M  V30 25466 H 323.749 8.90774 -1.62639 0
M  V30 25467 H 323.82 6.02181 0.895285 0
M  V30 25468 P 321.878 8.03563 -3.84925 0
M  V30 25469 O 321.658 8.85821 -5.0569 0
M  V30 25470 O 321.088 8.41101 -2.65469 0
M  V30 25471 O 321.628 6.4965 -4.18908 0
M  V30 25472 C 322.568 5.81037 -5.05421 0
M  V30 25473 C 321.838 4.78366 -5.89277 0
M  V30 25474 O 321.628 3.58302 -5.08433 0
M  V30 25475 C 320.438 5.17448 -6.36119 0
M  V30 25476 O 320.048 4.45271 -7.53232 0
M  V30 25477 C 319.558 4.74639 -5.19936 0
M  V30 25478 C 320.268 3.49432 -4.70418 0
M  V30 25479 N 320.218 3.31776 -3.22945 0
M  V30 25480 H 323.057 6.54213 -5.71376 0
M  V30 25481 H 323.329 5.30492 -4.44033 0
M  V30 25482 H 322.461 4.55889 -6.76652 0
M  V30 25483 P 318.498 4.23843 -7.83734 0
M  V30 25484 O 318.278 4.19407 -9.29784 0
M  V30 25485 O 317.708 5.24426 -7.09156 0
M  V30 25486 O 318.248 2.7935 -7.20758 0
M  V30 25487 C 319.188 1.7299 -7.50419 0
M  V30 25488 C 318.458 0.406376 -7.57911 0
M  V30 25489 O 318.248 -0.0897726 -6.21935 0
M  V30 25490 C 317.058 0.447224 -8.1878 0
M  V30 25491 O 316.668 -0.825065 -8.71101 0
M  V30 25492 C 316.178 0.783801 -6.99623 0
M  V30 25493 C 316.888 0.0619192 -5.85967 0
M  V30 25494 N 316.838 0.7859 -4.56281 0
M  V30 25495 H 319.677 1.93423 -8.4679 0
M  V30 25496 H 319.949 1.68181 -6.71046 0
M  V30 25497 H 319.081 -0.289041 -8.15388 0
M  V30 25498 P 315.118 -1.17771 -8.83182 0
M  V30 25499 O 314.898 -2.07206 -9.98732 0
M  V30 25500 O 314.328 0.0743816 -8.81969 0
M  V30 25501 O 314.868 -1.97652 -7.47304 0
M  V30 25502 C 315.808 -3.01133 -7.08783 0
M  V30 25503 C 315.078 -4.12613 -6.37049 0
M  V30 25504 O 314.868 -3.72827 -4.97879 0
M  V30 25505 C 313.678 -4.45085 -6.88694 0
M  V30 25506 O 313.288 -5.7877 -6.5624 0
M  V30 25507 C 312.798 -3.47817 -6.12078 0
M  V30 25508 C 313.508 -3.39414 -4.77697 0
M  V30 25509 N 313.458 -2.04199 -4.15538 0
M  V30 25510 H 316.297 -3.41248 -7.98759 0
M  V30 25511 H 316.569 -2.57728 -6.42 0
M  V30 25512 H 315.701 -5.02657 -6.42673 0
M  V30 25513 H 313.046 -4.11708 -4.08956 0
M  V30 25514 H 312.766 -2.49626 -6.61679 0
M  V30 25515 H 311.775 -3.8662 -6.00862 0
M  V30 25516 H 313.609 -4.29991 -7.97006 0
M  V30 25517 P 311.738 -6.144 -6.45285 0
M  V30 25518 O 311.518 -7.54673 -6.86199 0
M  V30 25519 O 310.948 -5.12391 -7.179 0
M  V30 25520 O 311.488 -5.99158 -4.88404 0
M  V30 25521 C 312.428 -6.60234 -3.96415 0
M  V30 25522 C 311.698 -7.08259 -2.72856 0
M  V30 25523 O 311.488 -5.9427 -1.83651 0
M  V30 25524 C 310.298 -7.64886 -2.9555 0
M  V30 25525 O 309.908 -8.53963 -1.90717 0
M  V30 25526 C 309.418 -6.4116 -2.90739 0
M  V30 25527 C 310.128 -5.55375 -1.86963 0
M  V30 25528 N 310.078 -4.09664 -2.15742 0
M  V30 25529 H 312.917 -7.45574 -4.45629 0
M  V30 25530 H 313.189 -5.86232 -3.67314 0
M  V30 25531 H 312.321 -7.84412 -2.24479 0
M  V30 25532 P 308.358 -8.7635 -1.60911 0
M  V30 25533 O 308.138 -10.1388 -1.11561 0
M  V30 25534 O 307.568 -8.36503 -2.79617 0
M  V30 25535 O 308.108 -7.71806 -0.42951 0
M  V30 25536 C 309.048 -7.67148 0.673689 0
M  V30 25537 C 308.318 -7.33374 1.95559 0
M  V30 25538 O 308.108 -5.88721 2.00726 0
M  V30 25539 C 306.918 -7.92526 2.10483 0
M  V30 25540 O 306.528 -8.02971 3.47653 0
M  V30 25541 C 306.038 -6.89602 1.41652 0
M  V30 25542 C 306.748 -5.59201 1.75185 0
M  V30 25543 N 306.698 -4.58301 0.657969 0
M  V30 25544 H 309.537 -8.65116 0.777161 0
M  V30 25545 H 309.809 -6.9022 0.46725 0
M  V30 25546 H 308.941 -7.66548 2.79458 0
M  V30 25547 H 306.286 -5.16165 2.65183 0
M  V30 25548 H 306.006 -7.06433 0.329384 0
M  V30 25549 H 305.015 -6.90926 1.82021 0
M  V30 25550 H 306.849 -8.90873 1.62657 0
M  V30 25551 P 304.978 -8.03563 3.84925 0
M  V30 25552 O 304.758 -8.85821 5.0569 0
M  V30 25553 O 304.188 -8.41101 2.65469 0
M  V30 25554 O 304.728 -6.4965 4.18908 0
M  V30 25555 C 305.668 -5.81037 5.05421 0
M  V30 25556 C 304.938 -4.78366 5.89277 0
M  V30 25557 O 304.728 -3.58302 5.08433 0
M  V30 25558 C 303.538 -5.17448 6.36119 0
M  V30 25559 O 303.148 -4.45271 7.53232 0
M  V30 25560 C 302.658 -4.74639 5.19936 0
M  V30 25561 C 303.368 -3.49432 4.70418 0
M  V30 25562 N 303.318 -3.31776 3.22945 0
M  V30 25563 H 306.157 -6.54213 5.71376 0
M  V30 25564 H 306.429 -5.30492 4.44033 0
M  V30 25565 H 305.561 -4.55889 6.76652 0
M  V30 25566 P 301.598 -4.23843 7.83734 0
M  V30 25567 O 301.378 -4.19407 9.29784 0
M  V30 25568 O 300.808 -5.24426 7.09156 0
M  V30 25569 O 301.348 -2.7935 7.20758 0
M  V30 25570 C 302.288 -1.7299 7.50419 0
M  V30 25571 C 301.558 -0.406376 7.57911 0
M  V30 25572 O 301.348 0.0897726 6.21935 0
M  V30 25573 C 300.158 -0.447224 8.1878 0
M  V30 25574 O 299.768 0.825065 8.71101 0
M  V30 25575 C 299.278 -0.783801 6.99623 0
M  V30 25576 C 299.988 -0.0619192 5.85967 0
M  V30 25577 N 299.938 -0.7859 4.56281 0
M  V30 25578 H 302.777 -1.93423 8.4679 0
M  V30 25579 H 303.049 -1.68181 6.71046 0
M  V30 25580 H 302.181 0.289041 8.15388 0
M  V30 25581 P 298.218 1.17771 8.83182 0
M  V30 25582 O 297.998 2.07206 9.98732 0
M  V30 25583 O 297.428 -0.0743816 8.81969 0
M  V30 25584 O 297.968 1.97652 7.47304 0
M  V30 25585 C 298.908 3.01133 7.08783 0
M  V30 25586 C 298.178 4.12613 6.37049 0
M  V30 25587 O 297.968 3.72827 4.97879 0
M  V30 25588 C 296.778 4.45085 6.88694 0
M  V30 25589 O 296.388 5.7877 6.5624 0
M  V30 25590 C 295.898 3.47817 6.12078 0
M  V30 25591 C 296.608 3.39414 4.77697 0
M  V30 25592 N 296.558 2.04615 4.15333 0
M  V30 25593 H 299.397 3.41248 7.98759 0
M  V30 25594 H 299.669 2.5837 6.41742 0
M  V30 25595 H 298.801 5.02657 6.42673 0
M  V30 25596 P 294.838 6.144 6.45285 0
M  V30 25597 O 294.618 7.54673 6.86199 0
M  V30 25598 O 294.048 5.12391 7.179 0
M  V30 25599 O 294.588 5.99158 4.88404 0
M  V30 25600 C 295.528 6.60234 3.96415 0
M  V30 25601 C 294.798 7.08259 2.72856 0
M  V30 25602 O 294.588 5.9427 1.83651 0
M  V30 25603 C 293.398 7.64886 2.9555 0
M  V30 25604 O 293.008 8.53963 1.90717 0
M  V30 25605 C 292.518 6.4116 2.90739 0
M  V30 25606 C 293.228 5.55375 1.86963 0
M  V30 25607 N 293.178 4.09448 2.16152 0
M  V30 25608 H 296.017 7.45574 4.45629 0
M  V30 25609 H 296.289 5.85864 3.679 0
M  V30 25610 H 295.421 7.84412 2.24479 0
M  V30 25611 H 292.766 5.73457 0.888562 0
M  V30 25612 H 292.486 5.90877 3.88583 0
M  V30 25613 H 291.495 6.6596 2.58858 0
M  V30 25614 H 293.329 8.16339 3.92049 0
M  V30 25615 P 291.458 8.7635 1.60911 0
M  V30 25616 O 291.238 10.1388 1.11561 0
M  V30 25617 O 290.668 8.36503 2.79617 0
M  V30 25618 O 291.208 7.71906 0.429565 0
M  V30 25619 C 292.148 7.67148 -0.673689 0
M  V30 25620 C 291.418 7.33666 -1.94851 0
M  V30 25621 O 291.208 5.88816 -2.00759 0
M  V30 25622 C 290.018 7.92526 -2.10483 0
M  V30 25623 O 289.628 8.03063 -3.47693 0
M  V30 25624 C 289.138 6.89602 -1.41652 0
M  V30 25625 C 289.848 5.59201 -1.75185 0
M  V30 25626 N 289.798 4.58235 -0.662552 0
M  V30 25627 C 289.648 3.24451 -1.01643 0
M  V30 25628 O 289.558 2.94958 -2.21722 0
M  V30 25629 N 289.598 2.30408 0.165238 0
M  V30 25630 C 289.698 2.66048 1.25118 0
M  V30 25631 N 289.648 1.70787 2.16813 0
M  V30 25632 C 289.848 4.02732 1.64413 0
M  V30 25633 C 289.898 4.9488 0.63991 0
M  V30 25634 H 292.638 8.65017 -0.777072 0
M  V30 25635 H 292.908 6.90173 -0.474152 0
M  V30 25636 H 292.041 7.66642 -2.79492 0
M  V30 25637 H 289.386 5.16254 -2.65229 0
M  V30 25638 H 289.106 7.06532 -0.329431 0
M  V30 25639 H 288.115 6.91023 -1.82047 0
M  V30 25640 H 289.949 8.90873 -1.62657 0
M  V30 25641 H 290.021 6.00104 0.892197 0
M  V30 25642 H 289.919 4.31733 2.69229 0
M  V30 25643 H 289.531 0.724835 1.8844 0
M  V30 25644 H 289.727 1.94716 3.16734 0
M  V30 25645 P 288.078 8.03563 -3.84925 0
M  V30 25646 O 287.858 8.85821 -5.0569 0
M  V30 25647 O 287.288 8.41101 -2.65469 0
M  V30 25648 O 287.828 6.4965 -4.18908 0
M  V30 25649 C 288.768 5.81037 -5.05421 0
M  V30 25650 C 288.038 4.78366 -5.89277 0
M  V30 25651 O 287.828 3.58302 -5.08433 0
M  V30 25652 C 286.638 5.17448 -6.36119 0
M  V30 25653 O 286.248 4.45271 -7.53232 0
M  V30 25654 C 285.758 4.74639 -5.19936 0
M  V30 25655 C 286.468 3.49432 -4.70418 0
M  V30 25656 N 286.418 3.31776 -3.22945 0
M  V30 25657 H 289.257 6.54213 -5.71376 0
M  V30 25658 H 289.529 5.30492 -4.44033 0
M  V30 25659 H 288.661 4.55889 -6.76652 0
M  V30 25660 P 284.698 4.23843 -7.83734 0
M  V30 25661 O 284.478 4.19407 -9.29784 0
M  V30 25662 O 283.908 5.24426 -7.09156 0
M  V30 25663 O 284.448 2.79386 -7.20852 0
M  V30 25664 C 285.388 1.7299 -7.50419 0
M  V30 25665 C 284.658 0.41401 -7.5797 0
M  V30 25666 O 284.448 -0.089787 -6.22035 0
M  V30 25667 C 283.258 0.447224 -8.1878 0
M  V30 25668 O 282.868 -0.825159 -8.71201 0
M  V30 25669 C 282.378 0.783801 -6.99623 0
M  V30 25670 C 283.088 0.0619192 -5.85967 0
M  V30 25671 N 283.038 0.7859 -4.56281 0
M  V30 25672 C 282.888 0.0359258 -3.39981 0
M  V30 25673 O 282.798 -1.19723 -3.49038 0
M  V30 25674 N 282.838 0.869151 -2.14025 0
M  V30 25675 C 282.938 2.01207 -2.14363 0
M  V30 25676 N 282.888 2.58978 -0.954287 0
M  V30 25677 C 283.088 2.80817 -3.32215 0
M  V30 25678 C 283.138 2.13785 -4.50884 0
M  V30 25679 H 285.878 1.93401 -8.46693 0
M  V30 25680 H 286.148 1.68181 -6.71046 0
M  V30 25681 H 285.281 -0.289076 -8.15488 0
M  V30 25682 H 282.626 -0.927166 -5.72947 0
M  V30 25683 H 282.346 1.87 -6.82132 0
M  V30 25684 H 281.355 0.404009 -7.13457 0
M  V30 25685 H 283.189 1.20599 -8.97534 0
M  V30 25686 H 283.261 2.70295 -5.43162 0
M  V30 25687 H 283.159 3.89465 -3.27406 0
M  V30 25688 H 282.771 2.01616 -0.107046 0
M  V30 25689 H 282.967 3.61403 -0.873101 0
M  V30 25690 P 281.318 -1.17771 -8.83182 0
M  V30 25691 O 281.098 -2.07206 -9.98732 0
M  V30 25692 O 280.528 0.0743816 -8.81969 0
M  V30 25693 O 281.068 -1.97652 -7.47304 0
M  V30 25694 C 282.008 -3.01133 -7.08783 0
M  V30 25695 C 281.278 -4.12613 -6.37049 0
M  V30 25696 O 281.068 -3.72827 -4.97879 0
M  V30 25697 C 279.878 -4.45085 -6.88694 0
M  V30 25698 O 279.488 -5.7877 -6.5624 0
M  V30 25699 C 278.998 -3.47817 -6.12078 0
M  V30 25700 C 279.708 -3.39414 -4.77697 0
M  V30 25701 N 279.658 -2.04199 -4.15538 0
M  V30 25702 C 279.738 -0.821545 -4.76977 0
M  V30 25703 N 279.668 0.1794 -3.94592 0
M  V30 25704 C 279.518 -0.419121 -2.70776 0
M  V30 25705 C 279.388 0.109072 -1.40577 0
M  V30 25706 N 279.378 1.4104 -1.1344 0
M  V30 25707 N 279.268 -0.764381 -0.39411 0
M  V30 25708 C 279.278 -2.06587 -0.664135 0
M  V30 25709 N 279.398 -2.67948 -1.82153 0
M  V30 25710 C 279.518 -1.77942 -2.8147 0
M  V30 25711 H 282.497 -3.41248 -7.98759 0
M  V30 25712 H 282.769 -2.57728 -6.42 0
M  V30 25713 H 281.901 -5.02657 -6.42673 0
M  V30 25714 H 279.246 -4.11708 -4.08956 0
M  V30 25715 H 278.966 -2.49626 -6.61679 0
M  V30 25716 H 277.975 -3.8662 -6.00862 0
M  V30 25717 H 279.809 -4.29991 -7.97006 0
M  V30 25718 H 279.85 -0.702451 -5.84696 0
M  V30 25719 H 279.469 2.09647 -1.89651 0
M  V30 25720 H 279.28 1.73358 -0.160575 0
M  V30 25721 H 279.172 -2.71695 0.195838 0
M  V30 25722 P 277.938 -6.144 -6.45285 0
M  V30 25723 O 277.718 -7.54673 -6.86199 0
M  V30 25724 O 277.148 -5.12391 -7.179 0
M  V30 25725 O 277.688 -5.99158 -4.88404 0
M  V30 25726 C 278.628 -6.60234 -3.96415 0
M  V30 25727 C 277.898 -7.08259 -2.72856 0
M  V30 25728 O 277.688 -5.9427 -1.83651 0
M  V30 25729 C 276.498 -7.64886 -2.9555 0
M  V30 25730 O 276.108 -8.53963 -1.90717 0
M  V30 25731 C 275.618 -6.4116 -2.90739 0
M  V30 25732 C 276.328 -5.55375 -1.86963 0
M  V30 25733 N 276.278 -4.09664 -2.15742 0
M  V30 25734 H 279.117 -7.45574 -4.45629 0
M  V30 25735 H 279.389 -5.86232 -3.67314 0
M  V30 25736 H 278.521 -7.84412 -2.24479 0
M  V30 25737 P 274.558 -8.7635 -1.60911 0
M  V30 25738 O 274.338 -10.1388 -1.11561 0
M  V30 25739 O 273.768 -8.36503 -2.79617 0
M  V30 25740 O 274.308 -7.71806 -0.42951 0
M  V30 25741 C 275.248 -7.67148 0.673689 0
M  V30 25742 C 274.518 -7.33374 1.95559 0
M  V30 25743 O 274.308 -5.88721 2.00726 0
M  V30 25744 C 273.118 -7.92526 2.10483 0
M  V30 25745 O 272.728 -8.02971 3.47653 0
M  V30 25746 C 272.238 -6.89602 1.41652 0
M  V30 25747 C 272.948 -5.59201 1.75185 0
M  V30 25748 N 272.898 -4.58301 0.657969 0
M  V30 25749 C 272.978 -4.79019 -0.692603 0
M  V30 25750 N 272.908 -3.69736 -1.38998 0
M  V30 25751 C 272.758 -2.70474 -0.438135 0
M  V30 25752 C 272.628 -1.30327 -0.538142 0
M  V30 25753 N 272.618 -0.64304 -1.69192 0
M  V30 25754 N 272.508 -0.611027 0.605183 0
M  V30 25755 C 272.518 -1.27002 1.75953 0
M  V30 25756 N 272.638 -2.56038 1.98546 0
M  V30 25757 C 272.758 -3.22681 0.822541 0
M  V30 25758 H 275.737 -8.65116 0.777161 0
M  V30 25759 H 276.009 -6.9022 0.46725 0
M  V30 25760 H 275.141 -7.66548 2.79458 0
M  V30 25761 H 272.486 -5.16165 2.65183 0
M  V30 25762 H 272.206 -7.06433 0.329384 0
M  V30 25763 H 271.215 -6.90926 1.82021 0
M  V30 25764 H 273.049 -8.90873 1.62657 0
M  V30 25765 H 273.09 -5.77785 -1.13874 0
M  V30 25766 H 272.709 -1.15585 -2.57991 0
M  V30 25767 H 272.52 0.382989 -1.69835 0
M  V30 25768 H 272.412 -0.653331 2.64449 0
M  V30 25769 P 271.178 -8.03563 3.84925 0
M  V30 25770 O 270.958 -8.85821 5.0569 0
M  V30 25771 O 270.388 -8.41101 2.65469 0
M  V30 25772 O 270.928 -6.4965 4.18908 0
M  V30 25773 C 271.868 -5.81037 5.05421 0
M  V30 25774 C 271.138 -4.78366 5.89277 0
M  V30 25775 O 270.928 -3.58302 5.08433 0
M  V30 25776 C 269.738 -5.17448 6.36119 0
M  V30 25777 O 269.348 -4.45271 7.53232 0
M  V30 25778 C 268.858 -4.74639 5.19936 0
M  V30 25779 C 269.568 -3.49432 4.70418 0
M  V30 25780 N 269.518 -3.32099 3.22613 0
M  V30 25781 H 272.357 -6.54213 5.71376 0
M  V30 25782 H 272.629 -5.30936 4.43503 0
M  V30 25783 H 271.761 -4.55889 6.76652 0
M  V30 25784 H 269.106 -2.61715 5.17932 0
M  V30 25785 H 268.826 -5.52155 4.41878 0
M  V30 25786 H 267.835 -4.51981 5.53374 0
M  V30 25787 H 269.669 -6.25124 6.55234 0
M  V30 25788 P 267.798 -4.23843 7.83734 0
M  V30 25789 O 267.578 -4.19407 9.29784 0
M  V30 25790 O 267.008 -5.24426 7.09156 0
M  V30 25791 O 267.548 -2.79386 7.20852 0
M  V30 25792 C 268.488 -1.7299 7.50419 0
M  V30 25793 C 267.758 -0.41401 7.5797 0
M  V30 25794 O 267.548 0.089787 6.22035 0
M  V30 25795 C 266.358 -0.447224 8.1878 0
M  V30 25796 O 265.968 0.825159 8.71201 0
M  V30 25797 C 265.478 -0.783801 6.99623 0
M  V30 25798 C 266.188 -0.0619192 5.85967 0
M  V30 25799 N 266.138 -0.7859 4.56281 0
M  V30 25800 C 265.988 -0.0359258 3.39981 0
M  V30 25801 O 265.898 1.19723 3.49038 0
M  V30 25802 N 265.938 -0.869151 2.14025 0
M  V30 25803 C 266.038 -2.01207 2.14363 0
M  V30 25804 N 265.988 -2.58978 0.954287 0
M  V30 25805 C 266.188 -2.80817 3.32215 0
M  V30 25806 C 266.238 -2.13785 4.50884 0
M  V30 25807 H 268.978 -1.93401 8.46693 0
M  V30 25808 H 269.248 -1.68181 6.71046 0
M  V30 25809 H 268.381 0.289076 8.15488 0
M  V30 25810 H 265.726 0.927166 5.72947 0
M  V30 25811 H 265.446 -1.87 6.82132 0
M  V30 25812 H 264.455 -0.404009 7.13457 0
M  V30 25813 H 266.289 -1.20599 8.97534 0
M  V30 25814 H 266.361 -2.70295 5.43162 0
M  V30 25815 H 266.259 -3.89465 3.27406 0
M  V30 25816 H 265.871 -2.01616 0.107046 0
M  V30 25817 H 266.067 -3.61403 0.873101 0
M  V30 25818 P 264.418 1.17771 8.83182 0
M  V30 25819 O 264.198 2.07206 9.98732 0
M  V30 25820 O 263.628 -0.0743816 8.81969 0
M  V30 25821 O 264.168 1.97678 7.474 0
M  V30 25822 C 265.108 3.01133 7.08783 0
M  V30 25823 C 264.378 4.1203 6.37546 0
M  V30 25824 O 264.168 3.72887 4.9796 0
M  V30 25825 C 262.978 4.45085 6.88694 0
M  V30 25826 O 262.588 5.78836 6.56315 0
M  V30 25827 C 262.098 3.47817 6.12078 0
M  V30 25828 C 262.808 3.39414 4.77697 0
M  V30 25829 N 262.758 2.04615 4.15333 0
M  V30 25830 C 262.608 1.96929 2.77162 0
M  V30 25831 O 262.518 3.02017 2.12006 0
M  V30 25832 N 262.558 0.55485 2.24237 0
M  V30 25833 C 262.658 -0.367808 2.9169 0
M  V30 25834 N 262.608 -1.53426 2.29427 0
M  V30 25835 C 262.808 -0.319148 4.33828 0
M  V30 25836 C 262.858 0.920672 4.90433 0
M  V30 25837 H 265.598 3.41209 7.98667 0
M  V30 25838 H 265.868 2.5837 6.41742 0
M  V30 25839 H 265.001 5.02718 6.42752 0
M  V30 25840 H 262.346 4.11779 4.09026 0
M  V30 25841 H 262.066 2.49661 6.61772 0
M  V30 25842 H 261.075 3.86674 6.00946 0
M  V30 25843 H 262.909 4.29991 7.97006 0
M  V30 25844 H 262.981 1.00589 5.98303 0
M  V30 25845 H 262.879 -1.22639 4.93799 0
M  V30 25846 H 262.491 -1.56819 1.27167 0
M  V30 25847 H 262.687 -2.41062 2.83063 0
M  V30 25848 P 261.038 6.144 6.45285 0
M  V30 25849 O 260.818 7.54673 6.86199 0
M  V30 25850 O 260.248 5.12391 7.179 0
M  V30 25851 O 260.788 5.99158 4.88404 0
M  V30 25852 C 261.728 6.60234 3.96415 0
M  V30 25853 C 260.998 7.08259 2.72856 0
M  V30 25854 O 260.788 5.9427 1.83651 0
M  V30 25855 C 259.598 7.64886 2.9555 0
M  V30 25856 O 259.208 8.53963 1.90717 0
M  V30 25857 C 258.718 6.4116 2.90739 0
M  V30 25858 C 259.428 5.55375 1.86963 0
M  V30 25859 N 259.378 4.09448 2.16152 0
M  V30 25860 H 262.217 7.45574 4.45629 0
M  V30 25861 H 262.489 5.85864 3.679 0
M  V30 25862 H 261.621 7.84412 2.24479 0
M  V30 25863 H 258.966 5.73457 0.888562 0
M  V30 25864 H 258.686 5.90877 3.88583 0
M  V30 25865 H 257.695 6.6596 2.58858 0
M  V30 25866 H 259.529 8.16339 3.92049 0
M  V30 25867 P 257.658 8.7635 1.60911 0
M  V30 25868 O 257.438 10.1388 1.11561 0
M  V30 25869 O 256.868 8.36503 2.79617 0
M  V30 25870 O 257.408 7.71806 0.42951 0
M  V30 25871 C 258.348 7.67148 -0.673689 0
M  V30 25872 C 257.618 7.33374 -1.95559 0
M  V30 25873 O 257.408 5.88721 -2.00726 0
M  V30 25874 C 256.218 7.92526 -2.10483 0
M  V30 25875 O 255.828 8.02971 -3.47653 0
M  V30 25876 C 255.338 6.89602 -1.41652 0
M  V30 25877 C 256.048 5.59201 -1.75185 0
M  V30 25878 N 255.998 4.58235 -0.662552 0
M  V30 25879 H 258.837 8.65116 -0.777161 0
M  V30 25880 H 259.109 6.90173 -0.474152 0
M  V30 25881 H 258.241 7.66548 -2.79458 0
M  V30 25882 P 254.279 8.03563 -3.84925 0
M  V30 25883 O 254.059 8.85821 -5.0569 0
M  V30 25884 O 253.489 8.41101 -2.65469 0
M  V30 25885 O 254.029 6.4965 -4.18908 0
M  V30 25886 C 254.969 5.81037 -5.05421 0
M  V30 25887 C 254.239 4.78366 -5.89277 0
M  V30 25888 O 254.029 3.58302 -5.08433 0
M  V30 25889 C 252.839 5.17448 -6.36119 0
M  V30 25890 O 252.449 4.45271 -7.53232 0
M  V30 25891 C 251.959 4.74639 -5.19936 0
M  V30 25892 C 252.669 3.49432 -4.70418 0
M  V30 25893 N 252.619 3.31776 -3.22945 0
M  V30 25894 H 255.458 6.54213 -5.71376 0
M  V30 25895 H 255.73 5.30492 -4.44033 0
M  V30 25896 H 254.862 4.55889 -6.76652 0
M  V30 25897 P 250.899 4.23843 -7.83734 0
M  V30 25898 O 250.679 4.19407 -9.29784 0
M  V30 25899 O 250.109 5.24426 -7.09156 0
M  V30 25900 O 250.649 2.7935 -7.20758 0
M  V30 25901 C 251.589 1.7299 -7.50419 0
M  V30 25902 C 250.859 0.406376 -7.57911 0
M  V30 25903 O 250.649 -0.0897726 -6.21935 0
M  V30 25904 C 249.459 0.447224 -8.1878 0
M  V30 25905 O 249.069 -0.825065 -8.71101 0
M  V30 25906 C 248.579 0.783801 -6.99623 0
M  V30 25907 C 249.289 0.0619192 -5.85967 0
M  V30 25908 N 249.239 0.790462 -4.56202 0
M  V30 25909 H 252.078 1.93423 -8.4679 0
M  V30 25910 H 252.35 1.68852 -6.70877 0
M  V30 25911 H 251.482 -0.289041 -8.15388 0
M  V30 25912 H 248.827 -0.927006 -5.72848 0
M  V30 25913 H 248.547 1.86973 -6.82036 0
M  V30 25914 H 247.556 0.403953 -7.13357 0
M  V30 25915 H 249.39 1.20599 -8.97534 0
M  V30 25916 P 247.519 -1.17771 -8.83182 0
M  V30 25917 O 247.299 -2.07206 -9.98732 0
M  V30 25918 O 246.729 0.0743816 -8.81969 0
M  V30 25919 O 247.269 -1.97652 -7.47304 0
M  V30 25920 C 248.209 -3.01133 -7.08783 0
M  V30 25921 C 247.479 -4.12613 -6.37049 0
M  V30 25922 O 247.269 -3.72827 -4.97879 0
M  V30 25923 C 246.079 -4.45085 -6.88694 0
M  V30 25924 O 245.689 -5.7877 -6.5624 0
M  V30 25925 C 245.199 -3.47817 -6.12078 0
M  V30 25926 C 245.909 -3.39414 -4.77697 0
M  V30 25927 N 245.859 -2.04199 -4.15538 0
M  V30 25928 H 248.698 -3.41248 -7.98759 0
M  V30 25929 H 248.97 -2.57728 -6.42 0
M  V30 25930 H 248.102 -5.02657 -6.42673 0
M  V30 25931 H 245.447 -4.11708 -4.08956 0
M  V30 25932 H 245.167 -2.49626 -6.61679 0
M  V30 25933 H 244.176 -3.8662 -6.00862 0
M  V30 25934 H 246.01 -4.29991 -7.97006 0
M  V30 25935 P 244.139 -6.144 -6.45285 0
M  V30 25936 O 243.919 -7.54673 -6.86199 0
M  V30 25937 O 243.349 -5.12391 -7.179 0
M  V30 25938 O 243.889 -5.99158 -4.88404 0
M  V30 25939 C 244.829 -6.60234 -3.96415 0
M  V30 25940 C 244.099 -7.08259 -2.72856 0
M  V30 25941 O 243.889 -5.9427 -1.83651 0
M  V30 25942 C 242.699 -7.64886 -2.9555 0
M  V30 25943 O 242.309 -8.53963 -1.90717 0
M  V30 25944 C 241.819 -6.4116 -2.90739 0
M  V30 25945 C 242.529 -5.55375 -1.86963 0
M  V30 25946 N 242.479 -4.09448 -2.16152 0
M  V30 25947 C 242.559 -3.46824 -3.37593 0
M  V30 25948 N 242.489 -2.17422 -3.29777 0
M  V30 25949 C 242.339 -1.93065 -1.94427 0
M  V30 25950 C 242.209 -0.738053 -1.20141 0
M  V30 25951 N 242.199 0.474256 -1.74676 0
M  V30 25952 N 242.089 -0.850049 0.13045 0
M  V30 25953 C 242.099 -2.06169 0.676992 0
M  V30 25954 N 242.219 -3.23842 0.101312 0
M  V30 25955 C 242.339 -3.09402 -1.23122 0
M  V30 25956 H 245.318 -7.45574 -4.45629 0
M  V30 25957 H 245.59 -5.85864 -3.679 0
M  V30 25958 H 244.722 -7.84412 -2.24479 0
M  V30 25959 H 242.067 -5.73457 -0.888562 0
M  V30 25960 H 241.787 -5.90877 -3.88583 0
M  V30 25961 H 240.796 -6.6596 -2.58858 0
M  V30 25962 H 242.63 -8.16339 -3.92049 0
M  V30 25963 H 242.671 -4.00505 -4.3174 0
M  V30 25964 H 242.29 0.581337 -2.76658 0
M  V30 25965 H 242.101 1.30811 -1.14888 0
M  V30 25966 H 241.993 -2.08295 1.75542 0
M  V30 25967 P 240.759 -8.7635 -1.60911 0
M  V30 25968 O 240.539 -10.1388 -1.11561 0
M  V30 25969 O 239.969 -8.36503 -2.79617 0
M  V30 25970 O 240.509 -7.71806 -0.42951 0
M  V30 25971 C 241.449 -7.67148 0.673689 0
M  V30 25972 C 240.719 -7.33374 1.95559 0
M  V30 25973 O 240.509 -5.88721 2.00726 0
M  V30 25974 C 239.319 -7.92526 2.10483 0
M  V30 25975 O 238.929 -8.02971 3.47653 0
M  V30 25976 C 238.439 -6.89602 1.41652 0
M  V30 25977 C 239.149 -5.59201 1.75185 0
M  V30 25978 N 239.099 -4.58235 0.662552 0
M  V30 25979 H 241.938 -8.65116 0.777161 0
M  V30 25980 H 242.21 -6.90173 0.474152 0
M  V30 25981 H 241.342 -7.66548 2.79458 0
M  V30 25982 P 237.379 -8.03563 3.84925 0
M  V30 25983 O 237.159 -8.85821 5.0569 0
M  V30 25984 O 236.589 -8.41101 2.65469 0
M  V30 25985 O 237.129 -6.4965 4.18908 0
M  V30 25986 C 238.069 -5.81037 5.05421 0
M  V30 25987 C 237.339 -4.78366 5.89277 0
M  V30 25988 O 237.129 -3.58302 5.08433 0
M  V30 25989 C 235.939 -5.17448 6.36119 0
M  V30 25990 O 235.549 -4.45271 7.53232 0
M  V30 25991 C 235.059 -4.74639 5.19936 0
M  V30 25992 C 235.769 -3.49432 4.70418 0
M  V30 25993 N 235.719 -3.31776 3.22945 0
M  V30 25994 H 238.558 -6.54213 5.71376 0
M  V30 25995 H 238.83 -5.30492 4.44033 0
M  V30 25996 H 237.962 -4.55889 6.76652 0
M  V30 25997 P 233.999 -4.23843 7.83734 0
M  V30 25998 O 233.779 -4.19407 9.29784 0
M  V30 25999 O 233.209 -5.24426 7.09156 0
M  V30 26000 O 233.749 -2.7935 7.20758 0
M  V30 26001 C 234.689 -1.7299 7.50419 0
M  V30 26002 C 233.959 -0.406376 7.57911 0
M  V30 26003 O 233.749 0.0897726 6.21935 0
M  V30 26004 C 232.559 -0.447224 8.1878 0
M  V30 26005 O 232.169 0.825065 8.71101 0
M  V30 26006 C 231.679 -0.783801 6.99623 0
M  V30 26007 C 232.389 -0.0619192 5.85967 0
M  V30 26008 N 232.339 -0.7859 4.56281 0
M  V30 26009 H 235.178 -1.93423 8.4679 0
M  V30 26010 H 235.45 -1.68181 6.71046 0
M  V30 26011 H 234.582 0.289041 8.15388 0
M  V30 26012 P 230.619 1.17771 8.83182 0
M  V30 26013 O 230.399 2.07206 9.98732 0
M  V30 26014 O 229.829 -0.0743816 8.81969 0
M  V30 26015 O 230.369 1.97652 7.47304 0
M  V30 26016 C 231.309 3.01133 7.08783 0
M  V30 26017 C 230.579 4.12613 6.37049 0
M  V30 26018 O 230.369 3.72827 4.97879 0
M  V30 26019 C 229.179 4.45085 6.88694 0
M  V30 26020 O 228.789 5.7877 6.5624 0
M  V30 26021 C 228.299 3.47817 6.12078 0
M  V30 26022 C 229.009 3.39414 4.77697 0
M  V30 26023 N 228.959 2.04615 4.15333 0
M  V30 26024 H 231.798 3.41248 7.98759 0
M  V30 26025 H 232.07 2.5837 6.41742 0
M  V30 26026 H 231.202 5.02657 6.42673 0
M  V30 26027 P 227.239 6.144 6.45285 0
M  V30 26028 O 227.019 7.54673 6.86199 0
M  V30 26029 O 226.449 5.12391 7.179 0
M  V30 26030 O 226.989 5.99158 4.88404 0
M  V30 26031 C 227.929 6.60234 3.96415 0
M  V30 26032 C 227.199 7.08259 2.72856 0
M  V30 26033 O 226.989 5.9427 1.83651 0
M  V30 26034 C 225.799 7.64886 2.9555 0
M  V30 26035 O 225.409 8.53963 1.90717 0
M  V30 26036 C 224.919 6.4116 2.90739 0
M  V30 26037 C 225.629 5.55375 1.86963 0
M  V30 26038 N 225.579 4.09664 2.15742 0
M  V30 26039 C 225.659 3.44381 3.37233 0
M  V30 26040 N 225.579 2.14131 3.28347 0
M  V30 26041 C 225.439 1.90247 1.91588 0
M  V30 26042 C 225.309 0.683992 1.20892 0
M  V30 26043 N 225.189 0.903396 -0.173998 0
M  V30 26044 C 225.189 2.14171 -0.784879 0
M  V30 26045 N 225.059 2.1435 -2.11317 0
M  V30 26046 N 225.319 3.28784 -0.119316 0
M  V30 26047 C 225.439 3.0977 1.22194 0
M  V30 26048 H 228.418 7.45574 4.45629 0
M  V30 26049 H 228.69 5.86232 3.67314 0
M  V30 26050 H 227.822 7.84412 2.24479 0
M  V30 26051 P 223.859 8.7635 1.60911 0
M  V30 26052 O 223.639 10.1388 1.11561 0
M  V30 26053 O 223.069 8.36503 2.79617 0
M  V30 26054 O 223.609 7.71806 0.42951 0
M  V30 26055 C 224.549 7.67148 -0.673689 0
M  V30 26056 C 223.819 7.33374 -1.95559 0
M  V30 26057 O 223.609 5.88721 -2.00726 0
M  V30 26058 C 222.419 7.92526 -2.10483 0
M  V30 26059 O 222.029 8.02971 -3.47653 0
M  V30 26060 C 221.539 6.89602 -1.41652 0
M  V30 26061 C 222.249 5.59201 -1.75185 0
M  V30 26062 N 222.199 4.58235 -0.662552 0
M  V30 26063 H 225.038 8.65116 -0.777161 0
M  V30 26064 H 225.31 6.90173 -0.474152 0
M  V30 26065 H 224.442 7.66548 -2.79458 0
M  V30 26066 P 220.479 8.03563 -3.84925 0
M  V30 26067 O 220.259 8.85821 -5.0569 0
M  V30 26068 O 219.689 8.41101 -2.65469 0
M  V30 26069 O 220.229 6.4965 -4.18908 0
M  V30 26070 C 221.169 5.81037 -5.05421 0
M  V30 26071 C 220.439 4.78366 -5.89277 0
M  V30 26072 O 220.229 3.58302 -5.08433 0
M  V30 26073 C 219.039 5.17448 -6.36119 0
M  V30 26074 O 218.649 4.45271 -7.53232 0
M  V30 26075 C 218.159 4.74639 -5.19936 0
M  V30 26076 C 218.869 3.49432 -4.70418 0
M  V30 26077 N 218.819 3.31776 -3.22945 0
M  V30 26078 H 221.658 6.54213 -5.71376 0
M  V30 26079 H 221.93 5.30492 -4.44033 0
M  V30 26080 H 221.062 4.55889 -6.76652 0
M  V30 26081 P 217.099 4.23843 -7.83734 0
M  V30 26082 O 216.879 4.19407 -9.29784 0
M  V30 26083 O 216.309 5.24426 -7.09156 0
M  V30 26084 O 216.849 2.7935 -7.20758 0
M  V30 26085 C 217.789 1.7299 -7.50419 0
M  V30 26086 C 217.059 0.406376 -7.57911 0
M  V30 26087 O 216.849 -0.0897726 -6.21935 0
M  V30 26088 C 215.659 0.447224 -8.1878 0
M  V30 26089 O 215.269 -0.825065 -8.71101 0
M  V30 26090 C 214.779 0.783801 -6.99623 0
M  V30 26091 C 215.489 0.0619192 -5.85967 0
M  V30 26092 N 215.439 0.7859 -4.56281 0
M  V30 26093 H 218.278 1.93423 -8.4679 0
M  V30 26094 H 218.55 1.68181 -6.71046 0
M  V30 26095 H 217.682 -0.289041 -8.15388 0
M  V30 26096 P 213.719 -1.17771 -8.83182 0
M  V30 26097 O 213.499 -2.07206 -9.98732 0
M  V30 26098 O 212.929 0.0743816 -8.81969 0
M  V30 26099 O 213.469 -1.97652 -7.47304 0
M  V30 26100 C 214.409 -3.01133 -7.08783 0
M  V30 26101 C 213.679 -4.12613 -6.37049 0
M  V30 26102 O 213.469 -3.72827 -4.97879 0
M  V30 26103 C 212.279 -4.45085 -6.88694 0
M  V30 26104 O 211.889 -5.7877 -6.5624 0
M  V30 26105 C 211.399 -3.47817 -6.12078 0
M  V30 26106 C 212.109 -3.39414 -4.77697 0
M  V30 26107 N 212.059 -2.04199 -4.15538 0
M  V30 26108 H 214.898 -3.41248 -7.98759 0
M  V30 26109 H 215.17 -2.57728 -6.42 0
M  V30 26110 H 214.302 -5.02657 -6.42673 0
M  V30 26111 H 211.647 -4.11708 -4.08956 0
M  V30 26112 H 211.367 -2.49626 -6.61679 0
M  V30 26113 H 210.376 -3.8662 -6.00862 0
M  V30 26114 H 212.21 -4.29991 -7.97006 0
M  V30 26115 P 210.339 -6.144 -6.45285 0
M  V30 26116 O 210.119 -7.54673 -6.86199 0
M  V30 26117 O 209.549 -5.12391 -7.179 0
M  V30 26118 O 210.089 -5.99158 -4.88404 0
M  V30 26119 C 211.029 -6.60234 -3.96415 0
M  V30 26120 C 210.299 -7.08259 -2.72856 0
M  V30 26121 O 210.089 -5.9427 -1.83651 0
M  V30 26122 C 208.899 -7.64886 -2.9555 0
M  V30 26123 O 208.509 -8.53963 -1.90717 0
M  V30 26124 C 208.019 -6.4116 -2.90739 0
M  V30 26125 C 208.729 -5.55375 -1.86963 0
M  V30 26126 N 208.679 -4.09664 -2.15742 0
M  V30 26127 H 211.518 -7.45574 -4.45629 0
M  V30 26128 H 211.79 -5.86232 -3.67314 0
M  V30 26129 H 210.922 -7.84412 -2.24479 0
M  V30 26130 P 206.959 -8.7635 -1.60911 0
M  V30 26131 O 206.739 -10.1388 -1.11561 0
M  V30 26132 O 206.169 -8.36503 -2.79617 0
M  V30 26133 O 206.709 -7.71806 -0.42951 0
M  V30 26134 C 207.649 -7.66948 0.673514 0
M  V30 26135 C 206.919 -7.33374 1.95559 0
M  V30 26136 O 206.709 -5.88721 2.00726 0
M  V30 26137 C 205.519 -7.92218 2.1125 0
M  V30 26138 O 205.129 -8.02971 3.47653 0
M  V30 26139 C 204.639 -6.89504 1.41631 0
M  V30 26140 C 205.349 -5.59106 1.75155 0
M  V30 26141 N 205.299 -4.58136 0.662409 0
M  V30 26142 C 205.149 -3.26059 1.02863 0
M  V30 26143 O 205.059 -2.90743 2.19009 0
M  V30 26144 N 205.109 -2.35995 -0.0155585 0
M  V30 26145 C 205.199 -2.65248 -1.35603 0
M  V30 26146 C 205.349 -4.05747 -1.64698 0
M  V30 26147 C 205.399 -4.96734 -0.652411 0
M  V30 26148 H 208.14 -8.64917 0.776982 0
M  V30 26149 H 208.409 -6.89974 0.474015 0
M  V30 26150 H 207.542 -7.66548 2.79458 0
M  V30 26151 H 204.887 -5.16076 2.65138 0
M  V30 26152 H 204.608 -7.06433 0.329384 0
M  V30 26153 H 203.616 -6.90829 1.81996 0
M  V30 26154 H 205.45 -8.90774 1.62639 0
M  V30 26155 H 205.521 -6.02181 -0.895285 0
M  V30 26156 P 203.579 -8.03563 3.84925 0
M  V30 26157 O 203.359 -8.85821 5.0569 0
M  V30 26158 O 202.789 -8.41101 2.65469 0
M  V30 26159 O 203.329 -6.4965 4.18908 0
M  V30 26160 C 204.269 -5.81037 5.05421 0
M  V30 26161 C 203.539 -4.78366 5.89277 0
M  V30 26162 O 203.329 -3.58302 5.08433 0
M  V30 26163 C 202.139 -5.17448 6.36119 0
M  V30 26164 O 201.749 -4.45271 7.53232 0
M  V30 26165 C 201.259 -4.74639 5.19936 0
M  V30 26166 C 201.969 -3.49432 4.70418 0
M  V30 26167 N 201.919 -3.31776 3.22945 0
M  V30 26168 C 201.999 -4.27147 2.23315 0
M  V30 26169 N 201.919 -3.78447 1.02186 0
M  V30 26170 C 201.779 -2.41001 1.21732 0
M  V30 26171 C 201.649 -1.36111 0.27694 0
M  V30 26172 N 201.529 -0.113683 0.912949 0
M  V30 26173 C 201.529 0.0846396 2.27943 0
M  V30 26174 N 201.399 1.34737 2.6916 0
M  V30 26175 N 201.659 -0.902521 3.16379 0
M  V30 26176 C 201.779 -2.11937 2.56849 0
M  V30 26177 H 204.758 -6.54213 5.71376 0
M  V30 26178 H 205.03 -5.30492 4.44033 0
M  V30 26179 H 204.162 -4.55889 6.76652 0
M  V30 26180 P 200.199 -4.23843 7.83734 0
M  V30 26181 O 199.979 -4.19407 9.29784 0
M  V30 26182 O 199.409 -5.24426 7.09156 0
M  V30 26183 O 199.949 -2.7935 7.20758 0
M  V30 26184 C 200.889 -1.7299 7.50419 0
M  V30 26185 C 200.159 -0.406376 7.57911 0
M  V30 26186 O 199.949 0.0897726 6.21935 0
M  V30 26187 C 198.759 -0.447224 8.1878 0
M  V30 26188 O 198.369 0.825065 8.71101 0
M  V30 26189 C 197.879 -0.783801 6.99623 0
M  V30 26190 C 198.589 -0.0619192 5.85967 0
M  V30 26191 N 198.539 -0.790462 4.56202 0
M  V30 26192 H 201.378 -1.93423 8.4679 0
M  V30 26193 H 201.65 -1.68852 6.70877 0
M  V30 26194 H 200.782 0.289041 8.15388 0
M  V30 26195 H 198.127 0.927006 5.72848 0
M  V30 26196 H 197.847 -1.86973 6.82036 0
M  V30 26197 H 196.856 -0.403953 7.13357 0
M  V30 26198 H 198.69 -1.20599 8.97534 0
M  V30 26199 P 196.819 1.17771 8.83182 0
M  V30 26200 O 196.599 2.07206 9.98732 0
M  V30 26201 O 196.029 -0.0743816 8.81969 0
M  V30 26202 O 196.569 1.97652 7.47304 0
M  V30 26203 C 197.509 3.01133 7.08783 0
M  V30 26204 C 196.779 4.12613 6.37049 0
M  V30 26205 O 196.569 3.72827 4.97879 0
M  V30 26206 C 195.379 4.45085 6.88694 0
M  V30 26207 O 194.989 5.7877 6.5624 0
M  V30 26208 C 194.499 3.47817 6.12078 0
M  V30 26209 C 195.209 3.39414 4.77697 0
M  V30 26210 N 195.159 2.04615 4.15333 0
M  V30 26211 H 197.998 3.41248 7.98759 0
M  V30 26212 H 198.27 2.5837 6.41742 0
M  V30 26213 H 197.402 5.02657 6.42673 0
M  V30 26214 P 193.439 6.144 6.45285 0
M  V30 26215 O 193.219 7.54673 6.86199 0
M  V30 26216 O 192.649 5.12391 7.179 0
M  V30 26217 O 193.189 5.99158 4.88404 0
M  V30 26218 C 194.129 6.60234 3.96415 0
M  V30 26219 C 193.399 7.08259 2.72856 0
M  V30 26220 O 193.189 5.9427 1.83651 0
M  V30 26221 C 191.999 7.64886 2.9555 0
M  V30 26222 O 191.609 8.53963 1.90717 0
M  V30 26223 C 191.119 6.4116 2.90739 0
M  V30 26224 C 191.829 5.55375 1.86963 0
M  V30 26225 N 191.779 4.09664 2.15742 0
M  V30 26226 H 194.618 7.45574 4.45629 0
M  V30 26227 H 194.89 5.86232 3.67314 0
M  V30 26228 H 194.022 7.84412 2.24479 0
M  V30 26229 P 190.059 8.7635 1.60911 0
M  V30 26230 O 189.839 10.1388 1.11561 0
M  V30 26231 O 189.269 8.36503 2.79617 0
M  V30 26232 O 189.809 7.71806 0.42951 0
M  V30 26233 C 190.749 7.67148 -0.673689 0
M  V30 26234 C 190.019 7.33374 -1.95559 0
M  V30 26235 O 189.809 5.88721 -2.00726 0
M  V30 26236 C 188.619 7.92526 -2.10483 0
M  V30 26237 O 188.229 8.02971 -3.47653 0
M  V30 26238 C 187.739 6.89602 -1.41652 0
M  V30 26239 C 188.449 5.59201 -1.75185 0
M  V30 26240 N 188.399 4.58301 -0.657969 0
M  V30 26241 H 191.238 8.65116 -0.777161 0
M  V30 26242 H 191.51 6.9022 -0.46725 0
M  V30 26243 H 190.642 7.66548 -2.79458 0
M  V30 26244 H 187.987 5.16165 -2.65183 0
M  V30 26245 H 187.707 7.06433 -0.329384 0
M  V30 26246 H 186.716 6.90926 -1.82021 0
M  V30 26247 H 188.55 8.90873 -1.62657 0
M  V30 26248 P 186.679 8.03563 -3.84925 0
M  V30 26249 O 186.459 8.85821 -5.0569 0
M  V30 26250 O 185.889 8.41101 -2.65469 0
M  V30 26251 O 186.429 6.4965 -4.18908 0
M  V30 26252 C 187.369 5.81037 -5.05421 0
M  V30 26253 C 186.639 4.78366 -5.89277 0
M  V30 26254 O 186.429 3.58302 -5.08433 0
M  V30 26255 C 185.239 5.17448 -6.36119 0
M  V30 26256 O 184.849 4.45271 -7.53232 0
M  V30 26257 C 184.359 4.74639 -5.19936 0
M  V30 26258 C 185.069 3.49432 -4.70418 0
M  V30 26259 N 185.019 3.32099 -3.22613 0
M  V30 26260 C 185.099 4.28245 -2.25527 0
M  V30 26261 N 185.029 3.80823 -1.04874 0
M  V30 26262 C 184.879 2.44571 -1.23535 0
M  V30 26263 C 184.749 1.37068 -0.330675 0
M  V30 26264 N 184.739 1.51472 0.990824 0
M  V30 26265 N 184.629 0.138614 -0.848756 0
M  V30 26266 C 184.639 -0.00675923 -2.16999 0
M  V30 26267 N 184.759 0.904372 -3.11122 0
M  V30 26268 C 184.879 2.12707 -2.56212 0
M  V30 26269 H 187.858 6.54213 -5.71376 0
M  V30 26270 H 188.13 5.30936 -4.43503 0
M  V30 26271 H 187.262 4.55889 -6.76652 0
M  V30 26272 H 184.607 2.61715 -5.17932 0
M  V30 26273 H 184.327 5.52155 -4.41878 0
M  V30 26274 H 183.336 4.51981 -5.53374 0
M  V30 26275 H 185.17 6.25124 -6.55234 0
M  V30 26276 H 185.211 5.34372 -2.47488 0
M  V30 26277 H 184.83 2.45153 1.4078 0
M  V30 26278 H 184.641 0.688422 1.59911 0
M  V30 26279 H 184.533 -1.02584 -2.52346 0
M  V30 26280 P 183.299 4.23843 -7.83734 0
M  V30 26281 O 183.079 4.19407 -9.29784 0
M  V30 26282 O 182.509 5.24426 -7.09156 0
M  V30 26283 O 183.049 2.7935 -7.20758 0
M  V30 26284 C 183.989 1.7299 -7.50419 0
M  V30 26285 C 183.259 0.406376 -7.57911 0
M  V30 26286 O 183.049 -0.0897726 -6.21935 0
M  V30 26287 C 181.859 0.447224 -8.1878 0
M  V30 26288 O 181.469 -0.825065 -8.71101 0
M  V30 26289 C 180.979 0.783801 -6.99623 0
M  V30 26290 C 181.689 0.0619192 -5.85967 0
M  V30 26291 N 181.639 0.7859 -4.56281 0
M  V30 26292 H 184.478 1.93423 -8.4679 0
M  V30 26293 H 184.75 1.68181 -6.71046 0
M  V30 26294 H 183.882 -0.289041 -8.15388 0
M  V30 26295 P 179.919 -1.17771 -8.83182 0
M  V30 26296 O 179.699 -2.07206 -9.98732 0
M  V30 26297 O 179.129 0.0743816 -8.81969 0
M  V30 26298 O 179.669 -1.97652 -7.47304 0
M  V30 26299 C 180.609 -3.01055 -7.08599 0
M  V30 26300 C 179.879 -4.12613 -6.37049 0
M  V30 26301 O 179.669 -3.72827 -4.97879 0
M  V30 26302 C 178.479 -4.45719 -6.88164 0
M  V30 26303 O 178.089 -5.7877 -6.5624 0
M  V30 26304 C 177.599 -3.47768 -6.11991 0
M  V30 26305 C 178.309 -3.39356 -4.77615 0
M  V30 26306 N 178.259 -2.04571 -4.15244 0
M  V30 26307 C 178.109 -1.98587 -2.78314 0
M  V30 26308 O 178.019 -2.98134 -2.08835 0
M  V30 26309 N 178.069 -0.714467 -2.24925 0
M  V30 26310 C 178.159 0.470001 -2.94169 0
M  V30 26311 C 178.309 0.312541 -4.36783 0
M  V30 26312 C 178.359 -0.914512 -4.92583 0
M  V30 26313 H 181.1 -3.41169 -7.98575 0
M  V30 26314 H 181.369 -2.58295 -6.41556 0
M  V30 26315 H 180.502 -5.02657 -6.42673 0
M  V30 26316 H 177.847 -4.11637 -4.08885 0
M  V30 26317 H 177.568 -2.49626 -6.61679 0
M  V30 26318 H 176.576 -3.86566 -6.00778 0
M  V30 26319 H 178.41 -4.29943 -7.96918 0
M  V30 26320 H 178.481 -1.00937 -6.00374 0
M  V30 26321 P 176.539 -6.144 -6.45285 0
M  V30 26322 O 176.319 -7.54673 -6.86199 0
M  V30 26323 O 175.749 -5.12391 -7.179 0
M  V30 26324 O 176.289 -5.99158 -4.88404 0
M  V30 26325 C 177.229 -6.60234 -3.96415 0
M  V30 26326 C 176.499 -7.08259 -2.72856 0
M  V30 26327 O 176.289 -5.9427 -1.83651 0
M  V30 26328 C 175.099 -7.64886 -2.9555 0
M  V30 26329 O 174.709 -8.53963 -1.90717 0
M  V30 26330 C 174.219 -6.4116 -2.90739 0
M  V30 26331 C 174.929 -5.55375 -1.86963 0
M  V30 26332 N 174.879 -4.09664 -2.15742 0
M  V30 26333 H 177.718 -7.45574 -4.45629 0
M  V30 26334 H 177.99 -5.86232 -3.67314 0
M  V30 26335 H 177.122 -7.84412 -2.24479 0
M  V30 26336 P 173.159 -8.7635 -1.60911 0
M  V30 26337 O 172.939 -10.1388 -1.11561 0
M  V30 26338 O 172.369 -8.36503 -2.79617 0
M  V30 26339 O 172.909 -7.71806 -0.42951 0
M  V30 26340 C 173.849 -7.66948 0.673514 0
M  V30 26341 C 173.119 -7.33374 1.95559 0
M  V30 26342 O 172.909 -5.88721 2.00726 0
M  V30 26343 C 171.719 -7.92218 2.1125 0
M  V30 26344 O 171.329 -8.02971 3.47653 0
M  V30 26345 C 170.839 -6.89504 1.41631 0
M  V30 26346 C 171.549 -5.59106 1.75155 0
M  V30 26347 N 171.499 -4.58136 0.662409 0
M  V30 26348 C 171.349 -3.26059 1.02863 0
M  V30 26349 O 171.259 -2.90743 2.19009 0
M  V30 26350 N 171.309 -2.35995 -0.0155585 0
M  V30 26351 C 171.399 -2.65248 -1.35603 0
M  V30 26352 O 171.349 -1.75605 -2.20651 0
M  V30 26353 C 171.549 -4.05747 -1.64698 0
M  V30 26354 C 171.659 -4.42345 -3.09553 0
M  V30 26355 C 171.599 -4.96734 -0.652411 0
M  V30 26356 H 174.34 -8.64917 0.776982 0
M  V30 26357 H 174.609 -6.89974 0.474015 0
M  V30 26358 H 173.742 -7.66548 2.79458 0
M  V30 26359 H 171.087 -5.16076 2.65138 0
M  V30 26360 H 170.808 -7.06433 0.329384 0
M  V30 26361 H 169.816 -6.90829 1.81996 0
M  V30 26362 H 171.65 -8.90774 1.62639 0
M  V30 26363 H 171.721 -6.02181 -0.895285 0
M  V30 26364 H 170.691 -4.80252 -3.45468 0
M  V30 26365 H 172.428 -5.20015 -3.22119 0
M  V30 26366 H 171.94 -3.53269 -3.67833 0
M  V30 26367 H 171.204 -1.39558 0.227499 0
M  V30 26368 P 169.779 -8.03563 3.84925 0
M  V30 26369 O 169.559 -8.85821 5.0569 0
M  V30 26370 O 168.989 -8.41101 2.65469 0
M  V30 26371 O 169.529 -6.4965 4.18908 0
M  V30 26372 C 170.469 -5.81037 5.05421 0
M  V30 26373 C 169.739 -4.78366 5.89277 0
M  V30 26374 O 169.529 -3.58302 5.08433 0
M  V30 26375 C 168.339 -5.17448 6.36119 0
M  V30 26376 O 167.949 -4.45271 7.53232 0
M  V30 26377 C 167.459 -4.74639 5.19936 0
M  V30 26378 C 168.169 -3.49432 4.70418 0
M  V30 26379 N 168.119 -3.31776 3.22945 0
M  V30 26380 H 170.958 -6.54213 5.71376 0
M  V30 26381 H 171.23 -5.30492 4.44033 0
M  V30 26382 H 170.362 -4.55889 6.76652 0
M  V30 26383 P 166.399 -4.23843 7.83734 0
M  V30 26384 O 166.179 -4.19407 9.29784 0
M  V30 26385 O 165.609 -5.24426 7.09156 0
M  V30 26386 O 166.149 -2.7935 7.20758 0
M  V30 26387 C 167.089 -1.7299 7.50419 0
M  V30 26388 C 166.359 -0.406376 7.57911 0
M  V30 26389 O 166.149 0.0897726 6.21935 0
M  V30 26390 C 164.959 -0.447224 8.1878 0
M  V30 26391 O 164.569 0.825065 8.71101 0
M  V30 26392 C 164.079 -0.783801 6.99623 0
M  V30 26393 C 164.789 -0.0619192 5.85967 0
M  V30 26394 N 164.739 -0.790462 4.56202 0
M  V30 26395 H 167.578 -1.93423 8.4679 0
M  V30 26396 H 167.85 -1.68852 6.70877 0
M  V30 26397 H 166.982 0.289041 8.15388 0
M  V30 26398 H 164.327 0.927006 5.72848 0
M  V30 26399 H 164.047 -1.86973 6.82036 0
M  V30 26400 H 163.056 -0.403953 7.13357 0
M  V30 26401 H 164.89 -1.20599 8.97534 0
M  V30 26402 P 163.019 1.17771 8.83182 0
M  V30 26403 O 162.799 2.07206 9.98732 0
M  V30 26404 O 162.229 -0.0743816 8.81969 0
M  V30 26405 O 162.769 1.97652 7.47304 0
M  V30 26406 C 163.709 3.01133 7.08783 0
M  V30 26407 C 162.979 4.12613 6.37049 0
M  V30 26408 O 162.769 3.72827 4.97879 0
M  V30 26409 C 161.579 4.45085 6.88694 0
M  V30 26410 O 161.189 5.7877 6.5624 0
M  V30 26411 C 160.699 3.47817 6.12078 0
M  V30 26412 C 161.409 3.39414 4.77697 0
M  V30 26413 N 161.359 2.04615 4.15333 0
M  V30 26414 H 164.198 3.41248 7.98759 0
M  V30 26415 H 164.47 2.5837 6.41742 0
M  V30 26416 H 163.602 5.02657 6.42673 0
M  V30 26417 P 159.639 6.144 6.45285 0
M  V30 26418 O 159.419 7.54673 6.86199 0
M  V30 26419 O 158.849 5.12391 7.179 0
M  V30 26420 O 159.389 5.99158 4.88404 0
M  V30 26421 C 160.329 6.60234 3.96415 0
M  V30 26422 C 159.599 7.08259 2.72856 0
M  V30 26423 O 159.389 5.9427 1.83651 0
M  V30 26424 C 158.199 7.64886 2.9555 0
M  V30 26425 O 157.809 8.53963 1.90717 0
M  V30 26426 C 157.319 6.4116 2.90739 0
M  V30 26427 C 158.029 5.55375 1.86963 0
M  V30 26428 N 157.979 4.09448 2.16152 0
M  V30 26429 H 160.818 7.45574 4.45629 0
M  V30 26430 H 161.09 5.85864 3.679 0
M  V30 26431 H 160.222 7.84412 2.24479 0
M  V30 26432 H 157.567 5.73457 0.888562 0
M  V30 26433 H 157.287 5.90877 3.88583 0
M  V30 26434 H 156.296 6.6596 2.58858 0
M  V30 26435 H 158.13 8.16339 3.92049 0
M  V30 26436 P 156.259 8.7635 1.60911 0
M  V30 26437 O 156.039 10.1388 1.11561 0
M  V30 26438 O 155.469 8.36503 2.79617 0
M  V30 26439 O 156.009 7.71806 0.42951 0
M  V30 26440 C 156.949 7.67148 -0.673689 0
M  V30 26441 C 156.219 7.33374 -1.95559 0
M  V30 26442 O 156.009 5.88721 -2.00726 0
M  V30 26443 C 154.819 7.92526 -2.10483 0
M  V30 26444 O 154.429 8.02971 -3.47653 0
M  V30 26445 C 153.939 6.89602 -1.41652 0
M  V30 26446 C 154.649 5.59201 -1.75185 0
M  V30 26447 N 154.599 4.58235 -0.662552 0
M  V30 26448 H 157.438 8.65116 -0.777161 0
M  V30 26449 H 157.71 6.90173 -0.474152 0
M  V30 26450 H 156.842 7.66548 -2.79458 0
M  V30 26451 P 152.879 8.03563 -3.84925 0
M  V30 26452 O 152.659 8.85821 -5.0569 0
M  V30 26453 O 152.089 8.41101 -2.65469 0
M  V30 26454 O 152.629 6.4965 -4.18908 0
M  V30 26455 C 153.569 5.81037 -5.05421 0
M  V30 26456 C 152.839 4.78366 -5.89277 0
M  V30 26457 O 152.629 3.58302 -5.08433 0
M  V30 26458 C 151.439 5.17448 -6.36119 0
M  V30 26459 O 151.049 4.45271 -7.53232 0
M  V30 26460 C 150.559 4.74639 -5.19936 0
M  V30 26461 C 151.269 3.49432 -4.70418 0
M  V30 26462 N 151.219 3.32099 -3.22613 0
M  V30 26463 H 154.058 6.54213 -5.71376 0
M  V30 26464 H 154.33 5.30936 -4.43503 0
M  V30 26465 H 153.462 4.55889 -6.76652 0
M  V30 26466 H 150.807 2.61715 -5.17932 0
M  V30 26467 H 150.527 5.52155 -4.41878 0
M  V30 26468 H 149.536 4.51981 -5.53374 0
M  V30 26469 H 151.37 6.25124 -6.55234 0
M  V30 26470 P 149.499 4.23843 -7.83734 0
M  V30 26471 O 149.279 4.19407 -9.29784 0
M  V30 26472 O 148.709 5.24426 -7.09156 0
M  V30 26473 O 149.249 2.7935 -7.20758 0
M  V30 26474 C 150.189 1.7299 -7.50419 0
M  V30 26475 C 149.459 0.406376 -7.57911 0
M  V30 26476 O 149.249 -0.0897726 -6.21935 0
M  V30 26477 C 148.059 0.447224 -8.1878 0
M  V30 26478 O 147.669 -0.825065 -8.71101 0
M  V30 26479 C 147.179 0.783801 -6.99623 0
M  V30 26480 C 147.889 0.0619192 -5.85967 0
M  V30 26481 N 147.839 0.7859 -4.56281 0
M  V30 26482 H 150.678 1.93423 -8.4679 0
M  V30 26483 H 150.95 1.68181 -6.71046 0
M  V30 26484 H 150.082 -0.289041 -8.15388 0
M  V30 26485 P 146.119 -1.17771 -8.83182 0
M  V30 26486 O 145.899 -2.07206 -9.98732 0
M  V30 26487 O 145.329 0.0743816 -8.81969 0
M  V30 26488 O 145.869 -1.97652 -7.47304 0
M  V30 26489 C 146.809 -3.01055 -7.08599 0
M  V30 26490 C 146.079 -4.12613 -6.37049 0
M  V30 26491 O 145.869 -3.72827 -4.97879 0
M  V30 26492 C 144.679 -4.45719 -6.88164 0
M  V30 26493 O 144.289 -5.7877 -6.5624 0
M  V30 26494 C 143.799 -3.47768 -6.11991 0
M  V30 26495 C 144.509 -3.39356 -4.77615 0
M  V30 26496 N 144.459 -2.04571 -4.15244 0
M  V30 26497 C 144.309 -1.98587 -2.78314 0
M  V30 26498 O 144.219 -2.98134 -2.08835 0
M  V30 26499 N 144.269 -0.714467 -2.24925 0
M  V30 26500 C 144.359 0.470001 -2.94169 0
M  V30 26501 O 144.309 1.55587 -2.35195 0
M  V30 26502 C 144.509 0.312541 -4.36783 0
M  V30 26503 C 144.619 1.57711 -5.16352 0
M  V30 26504 C 144.559 -0.914512 -4.92583 0
M  V30 26505 H 147.3 -3.41169 -7.98575 0
M  V30 26506 H 147.569 -2.58295 -6.41556 0
M  V30 26507 H 146.702 -5.02657 -6.42673 0
M  V30 26508 H 144.047 -4.11637 -4.08885 0
M  V30 26509 H 143.768 -2.49626 -6.61679 0
M  V30 26510 H 142.776 -3.86566 -6.00778 0
M  V30 26511 H 144.61 -4.29943 -7.96918 0
M  V30 26512 H 144.681 -1.00937 -6.00374 0
M  V30 26513 H 143.651 1.80153 -5.63503 0
M  V30 26514 H 145.388 1.4566 -5.94104 0
M  V30 26515 H 144.9 2.40664 -4.49645 0
M  V30 26516 H 144.164 -0.647622 -1.25697 0
M  V30 26517 P 142.739 -6.144 -6.45285 0
M  V30 26518 O 142.519 -7.54673 -6.86199 0
M  V30 26519 O 141.949 -5.12391 -7.179 0
M  V30 26520 O 142.489 -5.99158 -4.88404 0
M  V30 26521 C 143.429 -6.60234 -3.96415 0
M  V30 26522 C 142.699 -7.08259 -2.72856 0
M  V30 26523 O 142.489 -5.9427 -1.83651 0
M  V30 26524 C 141.299 -7.64886 -2.9555 0
M  V30 26525 O 140.909 -8.53963 -1.90717 0
M  V30 26526 C 140.419 -6.4116 -2.90739 0
M  V30 26527 C 141.129 -5.55375 -1.86963 0
M  V30 26528 N 141.079 -4.09664 -2.15742 0
M  V30 26529 H 143.918 -7.45574 -4.45629 0
M  V30 26530 H 144.19 -5.86232 -3.67314 0
M  V30 26531 H 143.322 -7.84412 -2.24479 0
M  V30 26532 P 139.359 -8.7635 -1.60911 0
M  V30 26533 O 139.139 -10.1388 -1.11561 0
M  V30 26534 O 138.569 -8.36503 -2.79617 0
M  V30 26535 O 139.109 -7.71806 -0.42951 0
M  V30 26536 C 140.049 -7.67148 0.673689 0
M  V30 26537 C 139.319 -7.33374 1.95559 0
M  V30 26538 O 139.109 -5.88721 2.00726 0
M  V30 26539 C 137.919 -7.92526 2.10483 0
M  V30 26540 O 137.529 -8.02971 3.47653 0
M  V30 26541 C 137.039 -6.89602 1.41652 0
M  V30 26542 C 137.749 -5.59201 1.75185 0
M  V30 26543 N 137.699 -4.58235 0.662552 0
M  V30 26544 H 140.538 -8.65116 0.777161 0
M  V30 26545 H 140.81 -6.90173 0.474152 0
M  V30 26546 H 139.942 -7.66548 2.79458 0
M  V30 26547 P 135.979 -8.03563 3.84925 0
M  V30 26548 O 135.759 -8.85821 5.0569 0
M  V30 26549 O 135.189 -8.41101 2.65469 0
M  V30 26550 O 135.729 -6.4965 4.18908 0
M  V30 26551 C 136.669 -5.81037 5.05421 0
M  V30 26552 C 135.939 -4.78366 5.89277 0
M  V30 26553 O 135.729 -3.58302 5.08433 0
M  V30 26554 C 134.539 -5.17448 6.36119 0
M  V30 26555 O 134.149 -4.45271 7.53232 0
M  V30 26556 C 133.659 -4.74639 5.19936 0
M  V30 26557 C 134.369 -3.49432 4.70418 0
M  V30 26558 N 134.319 -3.32099 3.22613 0
M  V30 26559 C 134.399 -4.28245 2.25527 0
M  V30 26560 N 134.329 -3.80823 1.04874 0
M  V30 26561 C 134.179 -2.44571 1.23535 0
M  V30 26562 C 134.049 -1.37068 0.330675 0
M  V30 26563 N 134.039 -1.51472 -0.990824 0
M  V30 26564 N 133.929 -0.138614 0.848756 0
M  V30 26565 C 133.939 0.00675923 2.16999 0
M  V30 26566 N 134.059 -0.904372 3.11122 0
M  V30 26567 C 134.179 -2.12707 2.56212 0
M  V30 26568 H 137.158 -6.54213 5.71376 0
M  V30 26569 H 137.43 -5.30936 4.43503 0
M  V30 26570 H 136.562 -4.55889 6.76652 0
M  V30 26571 H 133.907 -2.61715 5.17932 0
M  V30 26572 H 133.627 -5.52155 4.41878 0
M  V30 26573 H 132.636 -4.51981 5.53374 0
M  V30 26574 H 134.47 -6.25124 6.55234 0
M  V30 26575 H 134.511 -5.34372 2.47488 0
M  V30 26576 H 134.13 -2.45153 -1.4078 0
M  V30 26577 H 133.941 -0.688422 -1.59911 0
M  V30 26578 H 133.833 1.02584 2.52346 0
M  V30 26579 P 132.599 -4.23843 7.83734 0
M  V30 26580 O 132.379 -4.19407 9.29784 0
M  V30 26581 O 131.809 -5.24426 7.09156 0
M  V30 26582 O 132.349 -2.7935 7.20758 0
M  V30 26583 C 133.289 -1.7299 7.50419 0
M  V30 26584 C 132.559 -0.406376 7.57911 0
M  V30 26585 O 132.349 0.0897726 6.21935 0
M  V30 26586 C 131.159 -0.447224 8.1878 0
M  V30 26587 O 130.769 0.825065 8.71101 0
M  V30 26588 C 130.279 -0.783801 6.99623 0
M  V30 26589 C 130.989 -0.0619192 5.85967 0
M  V30 26590 N 130.939 -0.790462 4.56202 0
M  V30 26591 H 133.778 -1.93423 8.4679 0
M  V30 26592 H 134.05 -1.68852 6.70877 0
M  V30 26593 H 133.182 0.289041 8.15388 0
M  V30 26594 H 130.527 0.927006 5.72848 0
M  V30 26595 H 130.247 -1.86973 6.82036 0
M  V30 26596 H 129.256 -0.403953 7.13357 0
M  V30 26597 H 131.09 -1.20599 8.97534 0
M  V30 26598 P 129.219 1.17771 8.83182 0
M  V30 26599 O 128.999 2.07206 9.98732 0
M  V30 26600 O 128.429 -0.0743816 8.81969 0
M  V30 26601 O 128.969 1.97652 7.47304 0
M  V30 26602 C 129.909 3.01133 7.08783 0
M  V30 26603 C 129.179 4.12613 6.37049 0
M  V30 26604 O 128.969 3.72827 4.97879 0
M  V30 26605 C 127.779 4.45085 6.88694 0
M  V30 26606 O 127.389 5.7877 6.5624 0
M  V30 26607 C 126.899 3.47817 6.12078 0
M  V30 26608 C 127.609 3.39414 4.77697 0
M  V30 26609 N 127.559 2.04615 4.15333 0
M  V30 26610 H 130.398 3.41248 7.98759 0
M  V30 26611 H 130.67 2.5837 6.41742 0
M  V30 26612 H 129.802 5.02657 6.42673 0
M  V30 26613 P 125.839 6.144 6.45285 0
M  V30 26614 O 125.619 7.54673 6.86199 0
M  V30 26615 O 125.049 5.12391 7.179 0
M  V30 26616 O 125.589 5.99158 4.88404 0
M  V30 26617 C 126.529 6.60234 3.96415 0
M  V30 26618 C 125.799 7.08259 2.72856 0
M  V30 26619 O 125.589 5.9427 1.83651 0
M  V30 26620 C 124.399 7.64886 2.9555 0
M  V30 26621 O 124.009 8.53963 1.90717 0
M  V30 26622 C 123.519 6.4116 2.90739 0
M  V30 26623 C 124.229 5.55375 1.86963 0
M  V30 26624 N 124.179 4.09448 2.16152 0
M  V30 26625 C 124.259 3.46824 3.37593 0
M  V30 26626 N 124.189 2.17422 3.29777 0
M  V30 26627 C 124.039 1.93065 1.94427 0
M  V30 26628 C 123.909 0.738053 1.20141 0
M  V30 26629 N 123.899 -0.474256 1.74676 0
M  V30 26630 N 123.789 0.850049 -0.13045 0
M  V30 26631 C 123.799 2.06169 -0.676992 0
M  V30 26632 N 123.919 3.23842 -0.101312 0
M  V30 26633 C 124.039 3.09402 1.23122 0
M  V30 26634 H 127.018 7.45574 4.45629 0
M  V30 26635 H 127.29 5.85864 3.679 0
M  V30 26636 H 126.422 7.84412 2.24479 0
M  V30 26637 H 123.767 5.73457 0.888562 0
M  V30 26638 H 123.487 5.90877 3.88583 0
M  V30 26639 H 122.496 6.6596 2.58858 0
M  V30 26640 H 124.33 8.16339 3.92049 0
M  V30 26641 H 124.371 4.00505 4.3174 0
M  V30 26642 H 123.99 -0.581337 2.76658 0
M  V30 26643 H 123.801 -1.30811 1.14888 0
M  V30 26644 H 123.693 2.08295 -1.75542 0
M  V30 26645 P 122.459 8.7635 1.60911 0
M  V30 26646 O 122.239 10.1388 1.11561 0
M  V30 26647 O 121.669 8.36503 2.79617 0
M  V30 26648 O 122.209 7.71806 0.42951 0
M  V30 26649 C 123.149 7.67148 -0.673689 0
M  V30 26650 C 122.419 7.33374 -1.95559 0
M  V30 26651 O 122.209 5.88721 -2.00726 0
M  V30 26652 C 121.019 7.92526 -2.10483 0
M  V30 26653 O 120.629 8.02971 -3.47653 0
M  V30 26654 C 120.139 6.89602 -1.41652 0
M  V30 26655 C 120.849 5.59201 -1.75185 0
M  V30 26656 N 120.799 4.58235 -0.662552 0
M  V30 26657 H 123.638 8.65116 -0.777161 0
M  V30 26658 H 123.91 6.90173 -0.474152 0
M  V30 26659 H 123.042 7.66548 -2.79458 0
M  V30 26660 P 119.079 8.03563 -3.84925 0
M  V30 26661 O 118.859 8.85821 -5.0569 0
M  V30 26662 O 118.289 8.41101 -2.65469 0
M  V30 26663 O 118.829 6.4965 -4.18908 0
M  V30 26664 C 119.769 5.80886 -5.05289 0
M  V30 26665 C 119.039 4.78366 -5.89277 0
M  V30 26666 O 118.829 3.58302 -5.08433 0
M  V30 26667 C 117.639 5.16748 -6.36559 0
M  V30 26668 O 117.249 4.45271 -7.53232 0
M  V30 26669 C 116.759 4.74572 -5.19863 0
M  V30 26670 C 117.469 3.49373 -4.70338 0
M  V30 26671 N 117.419 3.31704 -3.22876 0
M  V30 26672 C 117.269 2.03326 -2.74871 0
M  V30 26673 O 117.179 1.06486 -3.48076 0
M  V30 26674 N 117.229 1.91838 -1.37456 0
M  V30 26675 C 117.319 2.94295 -0.462035 0
M  V30 26676 O 117.269 2.71763 0.752928 0
M  V30 26677 C 117.469 4.25064 -1.05249 0
M  V30 26678 C 117.579 5.39815 -0.095697 0
M  V30 26679 C 117.519 4.40214 -2.39192 0
M  V30 26680 H 120.26 6.54063 -5.71245 0
M  V30 26681 H 120.529 5.30339 -4.43905 0
M  V30 26682 H 119.662 4.55889 -6.76652 0
M  V30 26683 H 117.007 2.6167 -5.17842 0
M  V30 26684 H 116.728 5.52155 -4.41878 0
M  V30 26685 H 115.736 4.51918 -5.53297 0
M  V30 26686 H 117.57 6.25055 -6.55162 0
M  V30 26687 H 117.641 5.39798 -2.81523 0
M  V30 26688 H 116.611 5.91593 -0.0279582 0
M  V30 26689 H 118.348 6.10038 -0.450573 0
M  V30 26690 H 117.86 5.02007 0.89937 0
M  V30 26691 H 117.124 0.995326 -1.00435 0
M  V30 26692 P 115.699 4.23843 -7.83734 0
M  V30 26693 O 115.479 4.19407 -9.29784 0
M  V30 26694 O 114.909 5.24426 -7.09156 0
M  V30 26695 O 115.449 2.7935 -7.20758 0
M  V30 26696 C 116.389 1.7299 -7.50419 0
M  V30 26697 C 115.659 0.406376 -7.57911 0
M  V30 26698 O 115.449 -0.0897726 -6.21935 0
M  V30 26699 C 114.259 0.447224 -8.1878 0
M  V30 26700 O 113.869 -0.825065 -8.71101 0
M  V30 26701 C 113.379 0.783801 -6.99623 0
M  V30 26702 C 114.089 0.0619192 -5.85967 0
M  V30 26703 N 114.039 0.7859 -4.56281 0
M  V30 26704 H 116.878 1.93423 -8.4679 0
M  V30 26705 H 117.15 1.68181 -6.71046 0
M  V30 26706 H 116.282 -0.289041 -8.15388 0
M  V30 26707 P 112.319 -1.17771 -8.83182 0
M  V30 26708 O 112.099 -2.07206 -9.98732 0
M  V30 26709 O 111.529 0.0743816 -8.81969 0
M  V30 26710 O 112.069 -1.97652 -7.47304 0
M  V30 26711 C 113.009 -3.01133 -7.08783 0
M  V30 26712 C 112.279 -4.12613 -6.37049 0
M  V30 26713 O 112.069 -3.72827 -4.97879 0
M  V30 26714 C 110.879 -4.45085 -6.88694 0
M  V30 26715 O 110.489 -5.7877 -6.5624 0
M  V30 26716 C 109.999 -3.47817 -6.12078 0
M  V30 26717 C 110.709 -3.39414 -4.77697 0
M  V30 26718 N 110.659 -2.04199 -4.15538 0
M  V30 26719 C 110.739 -0.821545 -4.76977 0
M  V30 26720 N 110.669 0.1794 -3.94592 0
M  V30 26721 C 110.519 -0.419121 -2.70776 0
M  V30 26722 C 110.389 0.109072 -1.40577 0
M  V30 26723 N 110.379 1.4104 -1.1344 0
M  V30 26724 N 110.269 -0.764381 -0.39411 0
M  V30 26725 C 110.279 -2.06587 -0.664135 0
M  V30 26726 N 110.399 -2.67948 -1.82153 0
M  V30 26727 C 110.519 -1.77942 -2.8147 0
M  V30 26728 H 113.498 -3.41248 -7.98759 0
M  V30 26729 H 113.77 -2.57728 -6.42 0
M  V30 26730 H 112.902 -5.02657 -6.42673 0
M  V30 26731 H 110.247 -4.11708 -4.08956 0
M  V30 26732 H 109.967 -2.49626 -6.61679 0
M  V30 26733 H 108.976 -3.8662 -6.00862 0
M  V30 26734 H 110.81 -4.29991 -7.97006 0
M  V30 26735 H 110.851 -0.702451 -5.84696 0
M  V30 26736 H 110.47 2.09647 -1.89651 0
M  V30 26737 H 110.281 1.73358 -0.160575 0
M  V30 26738 H 110.173 -2.71695 0.195838 0
M  V30 26739 P 108.939 -6.144 -6.45285 0
M  V30 26740 O 108.719 -7.54673 -6.86199 0
M  V30 26741 O 108.149 -5.12391 -7.179 0
M  V30 26742 O 108.689 -5.99158 -4.88404 0
M  V30 26743 C 109.629 -6.60234 -3.96415 0
M  V30 26744 C 108.899 -7.08259 -2.72856 0
M  V30 26745 O 108.689 -5.9427 -1.83651 0
M  V30 26746 C 107.499 -7.64886 -2.9555 0
M  V30 26747 O 107.109 -8.53963 -1.90717 0
M  V30 26748 C 106.619 -6.4116 -2.90739 0
M  V30 26749 C 107.329 -5.55375 -1.86963 0
M  V30 26750 N 107.279 -4.09664 -2.15742 0
M  V30 26751 C 107.359 -3.44381 -3.37233 0
M  V30 26752 N 107.279 -2.14131 -3.28347 0
M  V30 26753 C 107.139 -1.90247 -1.91588 0
M  V30 26754 C 107.009 -0.683992 -1.20892 0
M  V30 26755 N 106.889 -0.903396 0.173998 0
M  V30 26756 C 106.889 -2.14171 0.784879 0
M  V30 26757 N 106.759 -2.1435 2.11317 0
M  V30 26758 N 107.019 -3.28784 0.119316 0
M  V30 26759 C 107.139 -3.0977 -1.22194 0
M  V30 26760 H 110.118 -7.45574 -4.45629 0
M  V30 26761 H 110.39 -5.86232 -3.67314 0
M  V30 26762 H 109.522 -7.84412 -2.24479 0
M  V30 26763 P 105.559 -8.7635 -1.60911 0
M  V30 26764 O 105.339 -10.1388 -1.11561 0
M  V30 26765 O 104.769 -8.36503 -2.79617 0
M  V30 26766 O 105.309 -7.71806 -0.42951 0
M  V30 26767 C 106.249 -7.67148 0.673689 0
M  V30 26768 C 105.519 -7.33374 1.95559 0
M  V30 26769 O 105.309 -5.88721 2.00726 0
M  V30 26770 C 104.119 -7.92526 2.10483 0
M  V30 26771 O 103.729 -8.02971 3.47653 0
M  V30 26772 C 103.239 -6.89602 1.41652 0
M  V30 26773 C 103.949 -5.59201 1.75185 0
M  V30 26774 N 103.899 -4.58235 0.662552 0
M  V30 26775 C 103.979 -4.7683 -0.704049 0
M  V30 26776 N 103.899 -3.66233 -1.39775 0
M  V30 26777 C 103.759 -2.66526 -0.431739 0
M  V30 26778 C 103.629 -1.26394 -0.575992 0
M  V30 26779 O 103.609 -0.589894 -1.60503 0
M  V30 26780 N 103.509 -0.62859 0.67177 0
M  V30 26781 C 103.509 -1.27134 1.89385 0
M  V30 26782 N 103.379 -0.492035 2.96951 0
M  V30 26783 N 103.639 -2.58978 2.02907 0
M  V30 26784 C 103.759 -3.22433 0.832218 0
M  V30 26785 H 106.738 -8.65116 0.777161 0
M  V30 26786 H 107.01 -6.90173 0.474152 0
M  V30 26787 H 106.142 -7.66548 2.79458 0
M  V30 26788 H 103.487 -5.16254 2.65229 0
M  V30 26789 H 103.207 -7.06532 0.329431 0
M  V30 26790 H 102.216 -6.91023 1.82047 0
M  V30 26791 H 104.05 -8.90971 1.62675 0
M  V30 26792 H 104.099 -5.74954 -1.16305 0
M  V30 26793 H 103.417 0.366713 0.674793 0
M  V30 26794 H 103.38 -0.908532 3.91188 0
M  V30 26795 H 103.279 0.528253 2.85758 0
M  V30 26796 P 102.179 -8.03563 3.84925 0
M  V30 26797 O 101.959 -8.85821 5.0569 0
M  V30 26798 O 101.389 -8.41101 2.65469 0
M  V30 26799 O 101.929 -6.4965 4.18908 0
M  V30 26800 C 102.869 -5.81037 5.05421 0
M  V30 26801 C 102.139 -4.78366 5.89277 0
M  V30 26802 O 101.929 -3.58302 5.08433 0
M  V30 26803 C 100.739 -5.17448 6.36119 0
M  V30 26804 O 100.349 -4.45271 7.53232 0
M  V30 26805 C 99.8594 -4.74639 5.19936 0
M  V30 26806 C 100.569 -3.49432 4.70418 0
M  V30 26807 N 100.519 -3.31776 3.22945 0
M  V30 26808 H 103.358 -6.54213 5.71376 0
M  V30 26809 H 103.63 -5.30492 4.44033 0
M  V30 26810 H 102.762 -4.55889 6.76652 0
M  V30 26811 P 98.7994 -4.23843 7.83734 0
M  V30 26812 O 98.5794 -4.19407 9.29784 0
M  V30 26813 O 98.0094 -5.24426 7.09156 0
M  V30 26814 O 98.5494 -2.7935 7.20758 0
M  V30 26815 C 99.4894 -1.7299 7.50419 0
M  V30 26816 C 98.7594 -0.406376 7.57911 0
M  V30 26817 O 98.5494 0.0897726 6.21935 0
M  V30 26818 C 97.3594 -0.447224 8.1878 0
M  V30 26819 O 96.9694 0.825065 8.71101 0
M  V30 26820 C 96.4794 -0.783801 6.99623 0
M  V30 26821 C 97.1894 -0.0619192 5.85967 0
M  V30 26822 N 97.1394 -0.7859 4.56281 0
M  V30 26823 H 99.9784 -1.93423 8.4679 0
M  V30 26824 H 100.25 -1.68181 6.71046 0
M  V30 26825 H 99.3824 0.289041 8.15388 0
M  V30 26826 P 95.4195 1.17771 8.83182 0
M  V30 26827 O 95.1995 2.07206 9.98732 0
M  V30 26828 O 94.6295 -0.0743816 8.81969 0
M  V30 26829 O 95.1695 1.97652 7.47304 0
M  V30 26830 C 96.1095 3.01133 7.08783 0
M  V30 26831 C 95.3795 4.12613 6.37049 0
M  V30 26832 O 95.1695 3.72827 4.97879 0
M  V30 26833 C 93.9795 4.45085 6.88694 0
M  V30 26834 O 93.5895 5.7877 6.5624 0
M  V30 26835 C 93.0995 3.47817 6.12078 0
M  V30 26836 C 93.8095 3.39414 4.77697 0
M  V30 26837 N 93.7595 2.04615 4.15333 0
M  V30 26838 H 96.5985 3.41248 7.98759 0
M  V30 26839 H 96.8705 2.5837 6.41742 0
M  V30 26840 H 96.0025 5.02657 6.42673 0
M  V30 26841 P 92.0395 6.144 6.45285 0
M  V30 26842 O 91.8195 7.54673 6.86199 0
M  V30 26843 O 91.2495 5.12391 7.179 0
M  V30 26844 O 91.7895 5.99158 4.88404 0
M  V30 26845 C 92.7295 6.60234 3.96415 0
M  V30 26846 C 91.9995 7.08259 2.72856 0
M  V30 26847 O 91.7895 5.9427 1.83651 0
M  V30 26848 C 90.5995 7.64886 2.9555 0
M  V30 26849 O 90.2095 8.53963 1.90717 0
M  V30 26850 C 89.7195 6.4116 2.90739 0
M  V30 26851 C 90.4295 5.55375 1.86963 0
M  V30 26852 N 90.3795 4.09448 2.16152 0
M  V30 26853 H 93.2185 7.45574 4.45629 0
M  V30 26854 H 93.4905 5.85864 3.679 0
M  V30 26855 H 92.6225 7.84412 2.24479 0
M  V30 26856 H 89.9675 5.73457 0.888562 0
M  V30 26857 H 89.6875 5.90877 3.88583 0
M  V30 26858 H 88.6965 6.6596 2.58858 0
M  V30 26859 H 90.5305 8.16339 3.92049 0
M  V30 26860 P 88.6595 8.7635 1.60911 0
M  V30 26861 O 88.4395 10.1388 1.11561 0
M  V30 26862 O 87.8695 8.36503 2.79617 0
M  V30 26863 O 88.4095 7.71806 0.42951 0
M  V30 26864 C 89.3495 7.67148 -0.673689 0
M  V30 26865 C 88.6195 7.33374 -1.95559 0
M  V30 26866 O 88.4095 5.88721 -2.00726 0
M  V30 26867 C 87.2195 7.92526 -2.10483 0
M  V30 26868 O 86.8295 8.02971 -3.47653 0
M  V30 26869 C 86.3395 6.89602 -1.41652 0
M  V30 26870 C 87.0495 5.59201 -1.75185 0
M  V30 26871 N 86.9995 4.58235 -0.662552 0
M  V30 26872 H 89.8385 8.65116 -0.777161 0
M  V30 26873 H 90.1105 6.90173 -0.474152 0
M  V30 26874 H 89.2425 7.66548 -2.79458 0
M  V30 26875 P 85.2795 8.03563 -3.84925 0
M  V30 26876 O 85.0595 8.85821 -5.0569 0
M  V30 26877 O 84.4895 8.41101 -2.65469 0
M  V30 26878 O 85.0295 6.4965 -4.18908 0
M  V30 26879 C 85.9695 5.81037 -5.05421 0
M  V30 26880 C 85.2395 4.78366 -5.89277 0
M  V30 26881 O 85.0295 3.58302 -5.08433 0
M  V30 26882 C 83.8395 5.17448 -6.36119 0
M  V30 26883 O 83.4495 4.45271 -7.53232 0
M  V30 26884 C 82.9595 4.74639 -5.19936 0
M  V30 26885 C 83.6695 3.49432 -4.70418 0
M  V30 26886 N 83.6195 3.32099 -3.22613 0
M  V30 26887 H 86.4585 6.54213 -5.71376 0
M  V30 26888 H 86.7305 5.30936 -4.43503 0
M  V30 26889 H 85.8625 4.55889 -6.76652 0
M  V30 26890 H 83.2075 2.61715 -5.17932 0
M  V30 26891 H 82.9275 5.52155 -4.41878 0
M  V30 26892 H 81.9365 4.51981 -5.53374 0
M  V30 26893 H 83.7705 6.25124 -6.55234 0
M  V30 26894 P 81.8995 4.23843 -7.83734 0
M  V30 26895 O 81.6795 4.19407 -9.29784 0
M  V30 26896 O 81.1095 5.24426 -7.09156 0
M  V30 26897 O 81.6495 2.7935 -7.20758 0
M  V30 26898 C 82.5895 1.7299 -7.50419 0
M  V30 26899 C 81.8595 0.406376 -7.57911 0
M  V30 26900 O 81.6495 -0.0897726 -6.21935 0
M  V30 26901 C 80.4595 0.447224 -8.1878 0
M  V30 26902 O 80.0695 -0.825065 -8.71101 0
M  V30 26903 C 79.5795 0.783801 -6.99623 0
M  V30 26904 C 80.2895 0.0619192 -5.85967 0
M  V30 26905 N 80.2395 0.7859 -4.56281 0
M  V30 26906 H 83.0785 1.93423 -8.4679 0
M  V30 26907 H 83.3505 1.68181 -6.71046 0
M  V30 26908 H 82.4825 -0.289041 -8.15388 0
M  V30 26909 P 78.5196 -1.17771 -8.83182 0
M  V30 26910 O 78.2996 -2.07206 -9.98732 0
M  V30 26911 O 77.7296 0.0743816 -8.81969 0
M  V30 26912 O 78.2696 -1.97652 -7.47304 0
M  V30 26913 C 79.2096 -3.01133 -7.08783 0
M  V30 26914 C 78.4796 -4.12613 -6.37049 0
M  V30 26915 O 78.2696 -3.72827 -4.97879 0
M  V30 26916 C 77.0796 -4.45085 -6.88694 0
M  V30 26917 O 76.6896 -5.7877 -6.5624 0
M  V30 26918 C 76.1996 -3.47817 -6.12078 0
M  V30 26919 C 76.9096 -3.39414 -4.77697 0
M  V30 26920 N 76.8596 -2.04199 -4.15538 0
M  V30 26921 H 79.6986 -3.41248 -7.98759 0
M  V30 26922 H 79.9706 -2.57728 -6.42 0
M  V30 26923 H 79.1026 -5.02657 -6.42673 0
M  V30 26924 H 76.4476 -4.11708 -4.08956 0
M  V30 26925 H 76.1676 -2.49626 -6.61679 0
M  V30 26926 H 75.1766 -3.8662 -6.00862 0
M  V30 26927 H 77.0106 -4.29991 -7.97006 0
M  V30 26928 P 75.1396 -6.144 -6.45285 0
M  V30 26929 O 74.9196 -7.54673 -6.86199 0
M  V30 26930 O 74.3496 -5.12391 -7.179 0
M  V30 26931 O 74.8896 -5.99158 -4.88404 0
M  V30 26932 C 75.8296 -6.60234 -3.96415 0
M  V30 26933 C 75.0996 -7.08259 -2.72856 0
M  V30 26934 O 74.8896 -5.9427 -1.83651 0
M  V30 26935 C 73.6996 -7.64886 -2.9555 0
M  V30 26936 O 73.3096 -8.53963 -1.90717 0
M  V30 26937 C 72.8196 -6.4116 -2.90739 0
M  V30 26938 C 73.5296 -5.55375 -1.86963 0
M  V30 26939 N 73.4796 -4.09448 -2.16152 0
M  V30 26940 H 76.3186 -7.45574 -4.45629 0
M  V30 26941 H 76.5906 -5.85864 -3.679 0
M  V30 26942 H 75.7226 -7.84412 -2.24479 0
M  V30 26943 H 73.0676 -5.73457 -0.888562 0
M  V30 26944 H 72.7876 -5.90877 -3.88583 0
M  V30 26945 H 71.7966 -6.6596 -2.58858 0
M  V30 26946 H 73.6306 -8.16339 -3.92049 0
M  V30 26947 P 71.7596 -8.7635 -1.60911 0
M  V30 26948 O 71.5396 -10.1388 -1.11561 0
M  V30 26949 O 70.9696 -8.36503 -2.79617 0
M  V30 26950 O 71.5096 -7.71806 -0.42951 0
M  V30 26951 C 72.4496 -7.67148 0.673689 0
M  V30 26952 C 71.7196 -7.33374 1.95559 0
M  V30 26953 O 71.5096 -5.88721 2.00726 0
M  V30 26954 C 70.3196 -7.92526 2.10483 0
M  V30 26955 O 69.9296 -8.02971 3.47653 0
M  V30 26956 C 69.4396 -6.89602 1.41652 0
M  V30 26957 C 70.1496 -5.59201 1.75185 0
M  V30 26958 N 70.0996 -4.58235 0.662552 0
M  V30 26959 H 72.9386 -8.65116 0.777161 0
M  V30 26960 H 73.2106 -6.90173 0.474152 0
M  V30 26961 H 72.3426 -7.66548 2.79458 0
M  V30 26962 P 68.3796 -8.03563 3.84925 0
M  V30 26963 O 68.1596 -8.85821 5.0569 0
M  V30 26964 O 67.5896 -8.41101 2.65469 0
M  V30 26965 O 68.1296 -6.4965 4.18908 0
M  V30 26966 C 69.0696 -5.81037 5.05421 0
M  V30 26967 C 68.3396 -4.78366 5.89277 0
M  V30 26968 O 68.1296 -3.58302 5.08433 0
M  V30 26969 C 66.9396 -5.17448 6.36119 0
M  V30 26970 O 66.5496 -4.45271 7.53232 0
M  V30 26971 C 66.0596 -4.74639 5.19936 0
M  V30 26972 C 66.7696 -3.49432 4.70418 0
M  V30 26973 N 66.7196 -3.32099 3.22613 0
M  V30 26974 C 66.7996 -4.28245 2.25527 0
M  V30 26975 N 66.7296 -3.80823 1.04874 0
M  V30 26976 C 66.5796 -2.44571 1.23535 0
M  V30 26977 C 66.4496 -1.37068 0.330675 0
M  V30 26978 N 66.4396 -1.51472 -0.990824 0
M  V30 26979 N 66.3296 -0.138614 0.848756 0
M  V30 26980 C 66.3396 0.00675923 2.16999 0
M  V30 26981 N 66.4596 -0.904372 3.11122 0
M  V30 26982 C 66.5796 -2.12707 2.56212 0
M  V30 26983 H 69.5586 -6.54213 5.71376 0
M  V30 26984 H 69.8306 -5.30936 4.43503 0
M  V30 26985 H 68.9626 -4.55889 6.76652 0
M  V30 26986 H 66.3076 -2.61715 5.17932 0
M  V30 26987 H 66.0276 -5.52155 4.41878 0
M  V30 26988 H 65.0366 -4.51981 5.53374 0
M  V30 26989 H 66.8706 -6.25124 6.55234 0
M  V30 26990 H 66.9116 -5.34372 2.47488 0
M  V30 26991 H 66.5306 -2.45153 -1.4078 0
M  V30 26992 H 66.3416 -0.688422 -1.59911 0
M  V30 26993 H 66.2336 1.02584 2.52346 0
M  V30 26994 P 64.9996 -4.23843 7.83734 0
M  V30 26995 O 64.7796 -4.19407 9.29784 0
M  V30 26996 O 64.2096 -5.24426 7.09156 0
M  V30 26997 O 64.7496 -2.7935 7.20758 0
M  V30 26998 C 65.6896 -1.7299 7.50419 0
M  V30 26999 C 64.9596 -0.406376 7.57911 0
M  V30 27000 O 64.7496 0.0897726 6.21935 0
M  V30 27001 C 63.5596 -0.447224 8.1878 0
M  V30 27002 O 63.1696 0.825065 8.71101 0
M  V30 27003 C 62.6796 -0.783801 6.99623 0
M  V30 27004 C 63.3896 -0.0619192 5.85967 0
M  V30 27005 N 63.3396 -0.7859 4.56281 0
M  V30 27006 C 63.4196 -2.14308 4.31736 0
M  V30 27007 N 63.3396 -2.46106 3.05116 0
M  V30 27008 C 63.1996 -1.23422 2.4014 0
M  V30 27009 C 63.0696 -0.938381 1.02409 0
M  V30 27010 O 63.0496 -1.70876 0.0650402 0
M  V30 27011 N 62.9496 0.444647 0.805413 0
M  V30 27012 C 62.9496 1.40829 1.79435 0
M  V30 27013 N 62.8196 2.67213 1.38558 0
M  V30 27014 N 63.0796 1.12947 3.09005 0
M  V30 27015 C 63.1996 -0.204887 3.32369 0
M  V30 27016 H 66.1786 -1.93423 8.4679 0
M  V30 27017 H 66.4506 -1.68181 6.71046 0
M  V30 27018 H 65.5826 0.289041 8.15388 0
M  V30 27019 H 62.9276 0.927166 5.72947 0
M  V30 27020 H 62.6476 -1.87 6.82132 0
M  V30 27021 H 61.6566 -0.404009 7.13457 0
M  V30 27022 H 63.4906 -1.20612 8.97633 0
M  V30 27023 H 63.5396 -2.88284 5.10874 0
M  V30 27024 H 62.8576 0.755087 -0.140242 0
M  V30 27025 H 62.8206 3.43967 2.0729 0
M  V30 27026 H 62.7196 2.88096 0.380644 0
M  V30 27027 P 61.6197 1.17771 8.83182 0
M  V30 27028 O 61.3997 2.07206 9.98732 0
M  V30 27029 O 60.8297 -0.0743816 8.81969 0
M  V30 27030 O 61.3697 1.97652 7.47304 0
M  V30 27031 C 62.3097 3.01133 7.08783 0
M  V30 27032 C 61.5797 4.12613 6.37049 0
M  V30 27033 O 61.3697 3.72827 4.97879 0
M  V30 27034 C 60.1797 4.45085 6.88694 0
M  V30 27035 O 59.7897 5.7877 6.5624 0
M  V30 27036 C 59.2997 3.47817 6.12078 0
M  V30 27037 C 60.0097 3.39414 4.77697 0
M  V30 27038 N 59.9597 2.04199 4.15538 0
M  V30 27039 C 60.0397 0.821545 4.76977 0
M  V30 27040 N 59.9697 -0.1794 3.94592 0
M  V30 27041 C 59.8197 0.419121 2.70776 0
M  V30 27042 C 59.6897 -0.109072 1.40577 0
M  V30 27043 N 59.6797 -1.4104 1.1344 0
M  V30 27044 N 59.5697 0.764381 0.39411 0
M  V30 27045 C 59.5797 2.06587 0.664135 0
M  V30 27046 N 59.6997 2.67948 1.82153 0
M  V30 27047 C 59.8197 1.77942 2.8147 0
M  V30 27048 H 62.7987 3.41248 7.98759 0
M  V30 27049 H 63.0707 2.57728 6.42 0
M  V30 27050 H 62.2027 5.02657 6.42673 0
M  V30 27051 H 59.5477 4.11708 4.08956 0
M  V30 27052 H 59.2677 2.49626 6.61679 0
M  V30 27053 H 58.2767 3.8662 6.00862 0
M  V30 27054 H 60.1107 4.29991 7.97006 0
M  V30 27055 H 60.1517 0.702451 5.84696 0
M  V30 27056 H 59.7707 -2.09647 1.89651 0
M  V30 27057 H 59.5817 -1.73358 0.160575 0
M  V30 27058 H 59.4737 2.71695 -0.195838 0
M  V30 27059 P 58.2397 6.144 6.45285 0
M  V30 27060 O 58.0197 7.54673 6.86199 0
M  V30 27061 O 57.4497 5.12391 7.179 0
M  V30 27062 O 57.9897 5.99158 4.88404 0
M  V30 27063 C 58.9297 6.60234 3.96415 0
M  V30 27064 C 58.1997 7.08259 2.72856 0
M  V30 27065 O 57.9897 5.9427 1.83651 0
M  V30 27066 C 56.7997 7.64886 2.9555 0
M  V30 27067 O 56.4097 8.53963 1.90717 0
M  V30 27068 C 55.9197 6.4116 2.90739 0
M  V30 27069 C 56.6297 5.55375 1.86963 0
M  V30 27070 N 56.5797 4.09448 2.16152 0
M  V30 27071 H 59.4187 7.45574 4.45629 0
M  V30 27072 H 59.6907 5.85864 3.679 0
M  V30 27073 H 58.8227 7.84412 2.24479 0
M  V30 27074 H 56.1677 5.73457 0.888562 0
M  V30 27075 H 55.8877 5.90877 3.88583 0
M  V30 27076 H 54.8967 6.6596 2.58858 0
M  V30 27077 H 56.7307 8.16339 3.92049 0
M  V30 27078 P 54.8597 8.7635 1.60911 0
M  V30 27079 O 54.6397 10.1388 1.11561 0
M  V30 27080 O 54.0697 8.36503 2.79617 0
M  V30 27081 O 54.6097 7.71906 0.429565 0
M  V30 27082 C 55.5497 7.67148 -0.673689 0
M  V30 27083 C 54.8197 7.33666 -1.94851 0
M  V30 27084 O 54.6097 5.88816 -2.00759 0
M  V30 27085 C 53.4197 7.92526 -2.10483 0
M  V30 27086 O 53.0297 8.03063 -3.47693 0
M  V30 27087 C 52.5397 6.89602 -1.41652 0
M  V30 27088 C 53.2497 5.59201 -1.75185 0
M  V30 27089 N 53.1997 4.58235 -0.662552 0
M  V30 27090 C 53.0497 3.24451 -1.01643 0
M  V30 27091 O 52.9597 2.94958 -2.21722 0
M  V30 27092 N 52.9997 2.30408 0.165238 0
M  V30 27093 C 53.0997 2.66048 1.25118 0
M  V30 27094 N 53.0497 1.70787 2.16813 0
M  V30 27095 C 53.2497 4.02732 1.64413 0
M  V30 27096 C 53.2997 4.9488 0.63991 0
M  V30 27097 H 56.0397 8.65017 -0.777072 0
M  V30 27098 H 56.3097 6.90173 -0.474152 0
M  V30 27099 H 55.4427 7.66642 -2.79492 0
M  V30 27100 H 52.7877 5.16254 -2.65229 0
M  V30 27101 H 52.5077 7.06532 -0.329431 0
M  V30 27102 H 51.5167 6.91023 -1.82047 0
M  V30 27103 H 53.3507 8.90873 -1.62657 0
M  V30 27104 H 53.4227 6.00104 0.892197 0
M  V30 27105 H 53.3207 4.31733 2.69229 0
M  V30 27106 H 52.9327 0.724835 1.8844 0
M  V30 27107 H 53.1287 1.94716 3.16734 0
M  V30 27108 P 51.4797 8.03563 -3.84925 0
M  V30 27109 O 51.2597 8.85821 -5.0569 0
M  V30 27110 O 50.6897 8.41101 -2.65469 0
M  V30 27111 O 51.2297 6.49734 -4.18962 0
M  V30 27112 C 52.1697 5.81037 -5.05421 0
M  V30 27113 C 51.4397 4.79018 -5.88876 0
M  V30 27114 O 51.2297 3.58359 -5.08515 0
M  V30 27115 C 50.0397 5.17448 -6.36119 0
M  V30 27116 O 49.6497 4.45322 -7.53318 0
M  V30 27117 C 49.1597 4.74639 -5.19936 0
M  V30 27118 C 49.8697 3.49432 -4.70418 0
M  V30 27119 N 49.8197 3.31776 -3.22945 0
M  V30 27120 C 49.6697 2.02742 -2.72939 0
M  V30 27121 O 49.5797 1.08301 -3.52749 0
M  V30 27122 N 49.6197 1.96117 -1.22063 0
M  V30 27123 C 49.7197 2.8878 -0.551566 0
M  V30 27124 N 49.6697 2.65609 0.750198 0
M  V30 27125 C 49.8697 4.22457 -1.03707 0
M  V30 27126 C 49.9197 4.37979 -2.39113 0
M  V30 27127 H 52.6597 6.54138 -5.7131 0
M  V30 27128 H 52.9297 5.30492 -4.44033 0
M  V30 27129 H 52.0627 4.55945 -6.76735 0
M  V30 27130 H 49.4077 2.6176 -5.18021 0
M  V30 27131 H 49.1277 5.52233 -4.41941 0
M  V30 27132 H 48.1367 4.52045 -5.53452 0
M  V30 27133 H 49.9707 6.25124 -6.55234 0
M  V30 27134 H 50.0427 5.37936 -2.80552 0
M  V30 27135 H 49.9407 5.07528 -0.359553 0
M  V30 27136 H 49.5527 1.69403 1.09847 0
M  V30 27137 H 49.7487 3.43701 1.41792 0
M  V30 27138 P 48.0997 4.23843 -7.83734 0
M  V30 27139 O 47.8797 4.19407 -9.29784 0
M  V30 27140 O 47.3097 5.24426 -7.09156 0
M  V30 27141 O 47.8497 2.7935 -7.20758 0
M  V30 27142 C 48.7897 1.7299 -7.50419 0
M  V30 27143 C 48.0597 0.406376 -7.57911 0
M  V30 27144 O 47.8497 -0.0897726 -6.21935 0
M  V30 27145 C 46.6597 0.447224 -8.1878 0
M  V30 27146 O 46.2697 -0.825065 -8.71101 0
M  V30 27147 C 45.7797 0.783801 -6.99623 0
M  V30 27148 C 46.4897 0.0619192 -5.85967 0
M  V30 27149 N 46.4397 0.7859 -4.56281 0
M  V30 27150 H 49.2787 1.93423 -8.4679 0
M  V30 27151 H 49.5507 1.68181 -6.71046 0
M  V30 27152 H 48.6827 -0.289041 -8.15388 0
M  V30 27153 P 44.7198 -1.17771 -8.83182 0
M  V30 27154 O 44.4998 -2.07206 -9.98732 0
M  V30 27155 O 43.9298 0.0743816 -8.81969 0
M  V30 27156 O 44.4698 -1.97652 -7.47304 0
M  V30 27157 C 45.4098 -3.01133 -7.08783 0
M  V30 27158 C 44.6798 -4.12613 -6.37049 0
M  V30 27159 O 44.4698 -3.72827 -4.97879 0
M  V30 27160 C 43.2798 -4.45085 -6.88694 0
M  V30 27161 O 42.8898 -5.7877 -6.5624 0
M  V30 27162 C 42.3998 -3.47817 -6.12078 0
M  V30 27163 C 43.1098 -3.39414 -4.77697 0
M  V30 27164 N 43.0598 -2.04199 -4.15538 0
M  V30 27165 H 45.8988 -3.41248 -7.98759 0
M  V30 27166 H 46.1708 -2.57728 -6.42 0
M  V30 27167 H 45.3028 -5.02657 -6.42673 0
M  V30 27168 H 42.6478 -4.11708 -4.08956 0
M  V30 27169 H 42.3678 -2.49626 -6.61679 0
M  V30 27170 H 41.3768 -3.8662 -6.00862 0
M  V30 27171 H 43.2108 -4.29991 -7.97006 0
M  V30 27172 P 41.3398 -6.144 -6.45285 0
M  V30 27173 O 41.1198 -7.54673 -6.86199 0
M  V30 27174 O 40.5498 -5.12391 -7.179 0
M  V30 27175 O 41.0898 -5.99158 -4.88404 0
M  V30 27176 C 42.0298 -6.60234 -3.96415 0
M  V30 27177 C 41.2998 -7.08259 -2.72856 0
M  V30 27178 O 41.0898 -5.9427 -1.83651 0
M  V30 27179 C 39.8998 -7.64886 -2.9555 0
M  V30 27180 O 39.5098 -8.53963 -1.90717 0
M  V30 27181 C 39.0198 -6.4116 -2.90739 0
M  V30 27182 C 39.7298 -5.55375 -1.86963 0
M  V30 27183 N 39.6798 -4.09664 -2.15742 0
M  V30 27184 H 42.5188 -7.45574 -4.45629 0
M  V30 27185 H 42.7908 -5.86232 -3.67314 0
M  V30 27186 H 41.9228 -7.84412 -2.24479 0
M  V30 27187 P 37.9598 -8.7635 -1.60911 0
M  V30 27188 O 37.7398 -10.1388 -1.11561 0
M  V30 27189 O 37.1698 -8.36503 -2.79617 0
M  V30 27190 O 37.7098 -7.71806 -0.42951 0
M  V30 27191 C 38.6498 -7.67148 0.673689 0
M  V30 27192 C 37.9198 -7.33374 1.95559 0
M  V30 27193 O 37.7098 -5.88721 2.00726 0
M  V30 27194 C 36.5198 -7.92526 2.10483 0
M  V30 27195 O 36.1298 -8.02971 3.47653 0
M  V30 27196 C 35.6398 -6.89602 1.41652 0
M  V30 27197 C 36.3498 -5.59201 1.75185 0
M  V30 27198 N 36.2998 -4.58235 0.662552 0
M  V30 27199 H 39.1388 -8.65116 0.777161 0
M  V30 27200 H 39.4108 -6.90173 0.474152 0
M  V30 27201 H 38.5428 -7.66548 2.79458 0
M  V30 27202 P 34.5798 -8.03563 3.84925 0
M  V30 27203 O 34.3598 -8.85821 5.0569 0
M  V30 27204 O 33.7898 -8.41101 2.65469 0
M  V30 27205 O 34.3298 -6.4965 4.18908 0
M  V30 27206 C 35.2698 -5.80886 5.05289 0
M  V30 27207 C 34.5398 -4.78366 5.89277 0
M  V30 27208 O 34.3298 -3.58302 5.08433 0
M  V30 27209 C 33.1398 -5.16748 6.36559 0
M  V30 27210 O 32.7498 -4.45271 7.53232 0
M  V30 27211 C 32.2598 -4.74572 5.19863 0
M  V30 27212 C 32.9698 -3.49373 4.70338 0
M  V30 27213 N 32.9198 -3.31704 3.22876 0
M  V30 27214 C 32.7698 -2.03326 2.74871 0
M  V30 27215 O 32.6798 -1.06486 3.48076 0
M  V30 27216 N 32.7298 -1.91838 1.37456 0
M  V30 27217 C 32.8198 -2.94295 0.462035 0
M  V30 27218 C 32.9698 -4.25064 1.05249 0
M  V30 27219 C 33.0198 -4.40214 2.39192 0
M  V30 27220 H 35.7608 -6.54063 5.71245 0
M  V30 27221 H 36.0298 -5.30339 4.43905 0
M  V30 27222 H 35.1628 -4.55889 6.76652 0
M  V30 27223 H 32.5078 -2.6167 5.17842 0
M  V30 27224 H 32.2288 -5.52155 4.41878 0
M  V30 27225 H 31.2368 -4.51918 5.53297 0
M  V30 27226 H 33.0708 -6.25055 6.55162 0
M  V30 27227 H 33.1418 -5.39798 2.81523 0
M  V30 27228 P 31.1998 -4.23843 7.83734 0
M  V30 27229 O 30.9798 -4.19407 9.29784 0
M  V30 27230 O 30.4098 -5.24426 7.09156 0
M  V30 27231 O 30.9498 -2.7935 7.20758 0
M  V30 27232 C 31.8898 -1.7299 7.50419 0
M  V30 27233 C 31.1598 -0.406376 7.57911 0
M  V30 27234 O 30.9498 0.0897726 6.21935 0
M  V30 27235 C 29.7598 -0.447224 8.1878 0
M  V30 27236 O 29.3698 0.825065 8.71101 0
M  V30 27237 C 28.8798 -0.783801 6.99623 0
M  V30 27238 C 29.5898 -0.0619192 5.85967 0
M  V30 27239 N 29.5398 -0.790462 4.56202 0
M  V30 27240 H 32.3788 -1.93423 8.4679 0
M  V30 27241 H 32.6508 -1.68852 6.70877 0
M  V30 27242 H 31.7828 0.289041 8.15388 0
M  V30 27243 H 29.1278 0.927006 5.72848 0
M  V30 27244 H 28.8478 -1.86973 6.82036 0
M  V30 27245 H 27.8568 -0.403953 7.13357 0
M  V30 27246 H 29.6908 -1.20599 8.97534 0
M  V30 27247 P 27.8199 1.17771 8.83182 0
M  V30 27248 O 27.5999 2.07206 9.98732 0
M  V30 27249 O 27.0299 -0.0743816 8.81969 0
M  V30 27250 O 27.5699 1.97652 7.47304 0
M  V30 27251 C 28.5099 3.01133 7.08783 0
M  V30 27252 C 27.7799 4.12613 6.37049 0
M  V30 27253 O 27.5699 3.72827 4.97879 0
M  V30 27254 C 26.3799 4.45085 6.88694 0
M  V30 27255 O 25.9899 5.7877 6.5624 0
M  V30 27256 C 25.4999 3.47817 6.12078 0
M  V30 27257 C 26.2099 3.39414 4.77697 0
M  V30 27258 N 26.1599 2.04615 4.15333 0
M  V30 27259 H 28.9989 3.41248 7.98759 0
M  V30 27260 H 29.2709 2.5837 6.41742 0
M  V30 27261 H 28.4029 5.02657 6.42673 0
M  V30 27262 P 24.4399 6.144 6.45285 0
M  V30 27263 O 24.2199 7.54673 6.86199 0
M  V30 27264 O 23.6499 5.12391 7.179 0
M  V30 27265 O 24.1899 5.99236 4.88467 0
M  V30 27266 C 25.1299 6.60234 3.96415 0
M  V30 27267 C 24.3999 7.08079 2.736 0
M  V30 27268 O 24.1899 5.94365 1.8368 0
M  V30 27269 C 22.9999 7.64886 2.9555 0
M  V30 27270 O 22.6099 8.5406 1.90739 0
M  V30 27271 C 22.1199 6.4116 2.90739 0
M  V30 27272 C 22.8299 5.55375 1.86963 0
M  V30 27273 N 22.7799 4.09664 2.15742 0
M  V30 27274 C 22.6299 3.22231 1.08477 0
M  V30 27275 O 22.5399 3.68951 -0.0600489 0
M  V30 27276 N 22.5799 1.76692 1.48799 0
M  V30 27277 C 22.6799 1.41695 2.57602 0
M  V30 27278 N 22.6299 0.107296 2.75791 0
M  V30 27279 C 22.8299 2.29178 3.69733 0
M  V30 27280 C 22.8799 3.62753 3.42653 0
M  V30 27281 H 25.6199 7.45488 4.45578 0
M  V30 27282 H 25.8899 5.86232 3.67314 0
M  V30 27283 H 25.0229 7.84508 2.24507 0
M  V30 27284 H 22.3679 5.73556 0.888715 0
M  V30 27285 H 22.0879 5.9096 3.88638 0
M  V30 27286 H 21.0969 6.66053 2.58894 0
M  V30 27287 H 22.9309 8.16339 3.92049 0
M  V30 27288 H 23.0029 4.33052 4.24913 0
M  V30 27289 H 22.9009 1.9103 4.71577 0
M  V30 27290 H 22.5129 -0.521221 1.95056 0
M  V30 27291 H 22.7089 -0.286429 3.70695 0
M  V30 27292 P 21.0599 8.7635 1.60911 0
M  V30 27293 O 20.8399 10.1388 1.11561 0
M  V30 27294 O 20.2699 8.36503 2.79617 0
M  V30 27295 O 20.8099 7.71806 0.42951 0
M  V30 27296 C 21.7499 7.67148 -0.673689 0
M  V30 27297 C 21.0199 7.33374 -1.95559 0
M  V30 27298 O 20.8099 5.88721 -2.00726 0
M  V30 27299 C 19.6199 7.92526 -2.10483 0
M  V30 27300 O 19.2299 8.02971 -3.47653 0
M  V30 27301 C 18.7399 6.89602 -1.41652 0
M  V30 27302 C 19.4499 5.59201 -1.75185 0
M  V30 27303 N 19.3999 4.58301 -0.657969 0
M  V30 27304 H 22.2389 8.65116 -0.777161 0
M  V30 27305 H 22.5109 6.9022 -0.46725 0
M  V30 27306 H 21.6429 7.66548 -2.79458 0
M  V30 27307 H 18.9879 5.16165 -2.65183 0
M  V30 27308 H 18.7079 7.06433 -0.329384 0
M  V30 27309 H 17.7169 6.90926 -1.82021 0
M  V30 27310 H 19.5509 8.90873 -1.62657 0
M  V30 27311 P 17.6799 8.03563 -3.84925 0
M  V30 27312 O 17.4599 8.85821 -5.0569 0
M  V30 27313 O 16.8899 8.41101 -2.65469 0
M  V30 27314 O 17.4299 6.4965 -4.18908 0
M  V30 27315 C 18.3699 5.81037 -5.05421 0
M  V30 27316 C 17.6399 4.78366 -5.89277 0
M  V30 27317 O 17.4299 3.58302 -5.08433 0
M  V30 27318 C 16.2399 5.17448 -6.36119 0
M  V30 27319 O 15.8499 4.45271 -7.53232 0
M  V30 27320 C 15.3599 4.74639 -5.19936 0
M  V30 27321 C 16.0699 3.49432 -4.70418 0
M  V30 27322 N 16.0199 3.31776 -3.22945 0
M  V30 27323 H 18.8589 6.54213 -5.71376 0
M  V30 27324 H 19.1309 5.30492 -4.44033 0
M  V30 27325 H 18.2629 4.55889 -6.76652 0
M  V30 27326 P 14.2999 4.23843 -7.83734 0
M  V30 27327 O 14.0799 4.19407 -9.29784 0
M  V30 27328 O 13.5099 5.24426 -7.09156 0
M  V30 27329 O 14.0499 2.7935 -7.20758 0
M  V30 27330 C 14.9899 1.7299 -7.50419 0
M  V30 27331 C 14.2599 0.406376 -7.57911 0
M  V30 27332 O 14.0499 -0.0897726 -6.21935 0
M  V30 27333 C 12.8599 0.447224 -8.1878 0
M  V30 27334 O 12.4699 -0.825065 -8.71101 0
M  V30 27335 C 11.9799 0.783801 -6.99623 0
M  V30 27336 C 12.6899 0.0619192 -5.85967 0
M  V30 27337 N 12.6399 0.7859 -4.56281 0
M  V30 27338 H 15.4789 1.93423 -8.4679 0
M  V30 27339 H 15.7509 1.68181 -6.71046 0
M  V30 27340 H 14.8829 -0.289041 -8.15388 0
M  V30 27341 P 10.92 -1.17771 -8.83182 0
M  V30 27342 O 10.7 -2.07206 -9.98732 0
M  V30 27343 O 10.13 0.0743816 -8.81969 0
M  V30 27344 O 10.67 -1.97652 -7.47304 0
M  V30 27345 C 11.61 -3.01133 -7.08783 0
M  V30 27346 C 10.88 -4.12613 -6.37049 0
M  V30 27347 O 10.67 -3.72827 -4.97879 0
M  V30 27348 C 9.47996 -4.45085 -6.88694 0
M  V30 27349 O 9.08996 -5.7877 -6.5624 0
M  V30 27350 C 8.59996 -3.47817 -6.12078 0
M  V30 27351 C 9.30996 -3.39414 -4.77697 0
M  V30 27352 N 9.25996 -2.04615 -4.15333 0
M  V30 27353 C 9.33996 -0.803897 -4.75249 0
M  V30 27354 N 9.25996 0.197615 -3.91502 0
M  V30 27355 C 9.11996 -0.413002 -2.66823 0
M  V30 27356 C 8.98996 0.157221 -1.38007 0
M  V30 27357 N 8.86996 -0.833136 -0.390236 0
M  V30 27358 C 8.86996 -2.19402 -0.623885 0
M  V30 27359 N 8.73996 -2.97622 0.449677 0
M  V30 27360 N 8.99996 -2.73005 -1.83601 0
M  V30 27361 C 9.11996 -1.78786 -2.80935 0
M  V30 27362 H 12.099 -3.41248 -7.98759 0
M  V30 27363 H 12.371 -2.5837 -6.41742 0
M  V30 27364 H 11.503 -5.02657 -6.42673 0
M  V30 27365 P 7.53998 -6.144 -6.45285 0
M  V30 27366 O 7.31998 -7.54673 -6.86199 0
M  V30 27367 O 6.74998 -5.12391 -7.179 0
M  V30 27368 O 7.28998 -5.99158 -4.88404 0
M  V30 27369 C 8.22998 -6.60234 -3.96415 0
M  V30 27370 C 7.49998 -7.08259 -2.72856 0
M  V30 27371 O 7.28998 -5.9427 -1.83651 0
M  V30 27372 C 6.09998 -7.64886 -2.9555 0
M  V30 27373 O 5.70998 -8.53963 -1.90717 0
M  V30 27374 C 5.21998 -6.4116 -2.90739 0
M  V30 27375 C 5.92998 -5.55375 -1.86963 0
M  V30 27376 N 5.87998 -4.09448 -2.16152 0
M  V30 27377 H 8.71898 -7.45574 -4.45629 0
M  V30 27378 H 8.99098 -5.85864 -3.679 0
M  V30 27379 H 8.12298 -7.84412 -2.24479 0
M  V30 27380 H 5.46798 -5.73457 -0.888562 0
M  V30 27381 H 5.18798 -5.90877 -3.88583 0
M  V30 27382 H 4.19698 -6.6596 -2.58858 0
M  V30 27383 H 6.03098 -8.16339 -3.92049 0
M  V30 27384 P 4.16 -8.7635 -1.60911 0
M  V30 27385 O 3.94 -10.1388 -1.11561 0
M  V30 27386 O 3.37 -8.36503 -2.79617 0
M  V30 27387 O 3.91 -7.71806 -0.42951 0
M  V30 27388 C 4.85 -7.67148 0.673689 0
M  V30 27389 C 4.12 -7.33374 1.95559 0
M  V30 27390 O 3.91 -5.88721 2.00726 0
M  V30 27391 C 2.72 -7.92526 2.10483 0
M  V30 27392 O 2.33 -8.02971 3.47653 0
M  V30 27393 C 1.84 -6.89602 1.41652 0
M  V30 27394 C 2.55 -5.59201 1.75185 0
M  V30 27395 N 2.5 -4.58235 0.662552 0
M  V30 27396 H 5.339 -8.65116 0.777161 0
M  V30 27397 H 5.611 -6.90173 0.474152 0
M  V30 27398 H 4.743 -7.66548 2.79458 0
M  V30 27399 H 1.613 -8.66322 3.55694 0
M  V30 END ATOM
M  V30 BEGIN BOND
M  V30 END BOND
M  V30 END CTAB
M  END
$$$$
