drugbank_target|Q59FW3 Thyroid hormone receptor, alpha isoform 1 variant (DB07425)
 OpenBabel12092120423D

  0  0  0     0  0            999 V3000
M  V30 BEGIN CTAB
M  V30 COUNTS 6371 6432 0 0 0
M  V30 BEGIN ATOM
M  V30 1 H -0.908 1.98254 -0.117106 0
M  V30 2 N 0 1.576 0 0
M  V30 3 C 1.225 1.95249 0.699468 0
M  V30 4 C 1.65 0.874934 1.66513 0
M  V30 5 O 1.008 -0.166929 1.8053 0
M  V30 6 C 1.056 3.31994 1.40756 0
M  V30 7 O 0.16 3.26298 2.52197 0
M  V30 8 H -0.499 0.637402 0.186051 0
M  V30 9 H 2.031 2.04531 -0.05319 0
M  V30 10 H 2.041 3.6756 1.77098 0
M  V30 11 H 0.716 4.09975 0.69953 0
M  V30 12 H -0.707 3.02408 2.18183 0
M  V30 13 N 1.4781 -0.272755 1.55222 0
M  V30 14 C 2.3881 -1.35918 1.91216 0
M  V30 15 C 3.4041 -1.54026 0.809436 0
M  V30 16 O 4.5801 -1.68148 1.10852 0
M  V30 17 C 1.6451 -2.69834 2.17693 0
M  V30 18 C 0.7061 -2.6047 3.41253 0
M  V30 19 C -0.0609 -3.88 3.66458 0
M  V30 20 O 0.1621 -4.88693 2.94169 0
M  V30 21 O -0.9039 -3.88189 4.59992 0
M  V30 22 H 2.9221 -1.0839 2.83699 0
M  V30 23 H 0.5071 -0.471301 1.41771 0
M  V30 24 H 2.3891 -3.49017 2.36147 0
M  V30 25 H 1.0641 -2.97148 1.28392 0
M  V30 26 H -0.0289 -1.79663 3.28134 0
M  V30 27 H 1.3041 -2.38106 4.30774 0
M  V30 28 N 2.9562 -1.48159 -0.537278 0
M  V30 29 C 4.2022 -1.57015 -1.29297 0
M  V30 30 C 4.5572 -0.237791 -1.90925 0
M  V30 31 O 3.8502 0.758621 -1.75942 0
M  V30 32 C 4.0442 -2.63956 -2.40961 0
M  V30 33 C 3.8732 -4.07461 -1.90278 0
M  V30 34 C 2.6432 -4.74685 -1.73213 0
M  V30 35 C 4.8412 -4.93858 -1.43556 0
M  V30 36 N 2.8232 -6.02633 -1.17078 0
M  V30 37 C 4.1942 -6.11993 -0.993204 0
M  V30 38 C 6.2492 -4.80141 -1.31792 0
M  V30 39 C 4.9522 -7.17923 -0.444872 0
M  V30 40 C 6.9782 -5.86186 -0.783585 0
M  V30 41 C 6.3402 -7.03524 -0.351261 0
M  V30 42 H 2.4392 -0.629154 -0.464423 0
M  V30 43 H 5.0232 -1.85006 -0.606705 0
M  V30 44 H 3.1942 -2.378 -3.07093 0
M  V30 45 H 4.9262 -2.62539 -3.07986 0
M  V30 46 H 1.6812 -4.30902 -1.9652 0
M  V30 47 H 2.1052 -6.7085 -0.910421 0
M  V30 48 H 6.7472 -3.89772 -1.63823 0
M  V30 49 H 4.4652 -8.08022 -0.11222 0
M  V30 50 H 8.0512 -5.77624 -0.695835 0
M  V30 51 H 6.9312 -7.8418 0.055777 0
M  V30 52 N 4.4343 0.785586 -1.36625 0
M  V30 53 C 5.3823 1.91978 -1.31329 0
M  V30 54 C 6.3763 1.68162 -0.204416 0
M  V30 55 O 7.5823 1.76122 -0.371645 0
M  V30 56 H 3.9573 0.631087 -0.408942 0
M  V30 57 H 5.9283 1.93562 -2.27104 0
M  V30 58 C 4.6773 3.29055 -1.12329 0
M  V30 59 H 4.0003 3.4795 -1.96903 0
M  V30 60 H 5.4403 4.08756 -1.12671 0
M  V30 61 C 3.8993 3.36461 0.171861 0
M  V30 62 O 4.4293 3.84576 1.16035 0
M  V30 63 N 2.6353 2.89782 0.217846 0
M  V30 64 H 2.1823 2.50819 -0.587183 0
M  V30 65 H 2.1403 2.95119 1.08408 0
M  V30 66 N 5.9124 1.20967 1.01018 0
M  V30 67 C 7.1374 1.0503 1.78839 0
M  V30 68 C 7.5624 -0.395752 1.8389 0
M  V30 69 O 6.9204 -1.28529 1.27867 0
M  V30 70 C 6.9684 1.64602 3.2084 0
M  V30 71 O 6.0724 0.887988 4.02726 0
M  V30 72 H 5.4134 0.369987 0.551367 0
M  V30 73 H 7.9434 1.60399 1.27018 0
M  V30 74 H 7.9534 1.68607 3.71532 0
M  V30 75 H 6.6284 2.69841 3.16479 0
M  V30 76 H 5.2054 0.922648 3.61305 0
M  V30 77 N 7.3905 -1.2043 1.01659 0
M  V30 78 C 8.3535 -2.21433 0.591616 0
M  V30 79 C 9.3535 -1.57203 -0.338226 0
M  V30 80 O 10.5435 -1.73737 -0.126918 0
M  V30 81 C 7.6755 -3.40628 -0.136058 0
M  V30 82 H 8.8685 -2.60545 1.48514 0
M  V30 83 H 6.4215 -1.33893 0.806379 0
M  V30 84 H 7.1565 -3.07019 -1.04449 0
M  V30 85 H 6.9415 -3.88475 0.531917 0
M  V30 86 H 8.4315 -4.15475 -0.420735 0
M  V30 87 N 8.8686 -0.792821 -1.36206 0
M  V30 88 C 10.2846 -0.474903 -1.52371 0
M  V30 89 C 10.4846 1.00622 -1.74578 0
M  V30 90 O 9.5406 1.79162 -1.77924 0
M  V30 91 C 10.8536 -1.3083 -2.70747 0
M  V30 92 C 12.4016 -1.30234 -2.84619 0
M  V30 93 C 12.8766 -2.11956 -4.06004 0
M  V30 94 N 14.3676 -2.09419 -4.13156 0
M  V30 95 C 15.1026 -2.69419 -5.06163 0
M  V30 96 N 14.5986 -3.3829 -6.04592 0
M  V30 97 N 16.3916 -2.59134 -4.98804 0
M  V30 98 H 8.5426 -1.75222 -1.20046 0
M  V30 99 H 10.8056 -0.745024 -0.586211 0
M  V30 100 H 10.5116 -2.35881 -2.6087 0
M  V30 101 H 10.3856 -0.95196 -3.6499 0
M  V30 102 H 12.7726 -0.259748 -2.93955 0
M  V30 103 H 12.8536 -1.69847 -1.91274 0
M  V30 104 H 12.4976 -3.16248 -3.97429 0
M  V30 105 H 12.4276 -1.69711 -4.98503 0
M  V30 106 H 14.9186 -1.59297 -3.42685 0
M  V30 107 H 15.2316 -3.81394 -6.7213 0
M  V30 108 H 13.5766 -3.42393 -6.04807 0
M  V30 109 H 16.7676 -2.04927 -4.20859 0
M  V30 110 H 16.9406 -3.06185 -5.711 0
M  V30 111 N 10.3467 1.47872 -0.545128 0
M  V30 112 C 11.5717 2.07391 -0.0190611 0
M  V30 113 C 11.9967 1.39688 1.25971 0
M  V30 114 O 11.3547 0.467816 1.7516 0
M  V30 115 C 11.4027 3.60188 0.172335 0
M  V30 116 O 10.5067 3.9339 1.23766 0
M  V30 117 H 9.8477 0.662411 -0.0459059 0
M  V30 118 H 12.3777 1.90066 -0.757365 0
M  V30 119 H 12.3877 4.06129 0.390305 0
M  V30 120 H 11.0627 4.08865 -0.761725 0
M  V30 121 H 9.6397 3.5921 1.00114 0
M  V30 122 N 11.8248 0.280983 1.55075 0
M  V30 123 C 13.2358 -0.215629 1.85451 0
M  V30 124 C 13.5868 -1.54991 1.203 0
M  V30 125 O 12.7118 -2.10699 0.493435 0
M  V30 126 C 13.3068 -0.398026 3.36454 0
M  V30 127 C 11.8658 -0.838866 3.66933 0
M  V30 128 C 11.0128 0.064458 2.77225 0
M  V30 129 H 13.9638 0.502601 1.50531 0
M  V30 130 H 13.9848 -1.23569 3.59876 0
M  V30 131 H 13.4968 0.573241 3.83843 0
M  V30 132 H 11.5978 -1.8214 3.25048 0
M  V30 133 H 11.7108 -0.672123 4.74362 0
M  V30 134 H 10.0748 -0.452863 2.50642 0
M  V30 135 H 10.8578 1.03172 3.2743 0
M  V30 136 N 13.3029 -1.57598 0.00835791 0
M  V30 137 C 14.5799 -1.82172 -0.712235 0
M  V30 138 C 14.9599 -0.887873 -1.9152 0
M  V30 139 O 14.3079 0.06146 -2.28417 0
M  V30 140 C 14.5179 -3.30875 -1.11008 0
M  V30 141 C 15.8659 -3.96826 -1.51044 0
M  V30 142 O 16.8899 -3.35248 -1.20364 0
M  V30 143 O 15.7489 -5.05318 -2.08125 0
M  V30 144 H 12.8429 -0.750435 -0.347529 0
M  V30 145 H 15.3889 -1.69665 0.0344523 0
M  V30 146 H 14.1609 -3.90481 -0.252982 0
M  V30 147 H 13.7839 -3.48412 -1.9156 0
M  V30 148 N 14.781 0.264519 -1.55364 0
M  V30 149 C 16.029 0.993021 -1.76021 0
M  V30 150 C 16.35 1.86511 -0.569099 0
M  V30 151 O 15.62 1.91438 0.415735 0
M  V30 152 H 14.2 0.369639 -0.649135 0
M  V30 153 H 16.862 0.286707 -1.9278 0
M  V30 154 H 15.958 1.62502 -2.66457 0
M  V30 155 N 16.2591 1.48442 0.529413 0
M  V30 156 C 17.2061 1.63007 1.63394 0
M  V30 157 C 18.1761 0.47212 1.59249 0
M  V30 158 O 19.3611 0.695673 1.77666 0
M  V30 159 C 16.5011 1.6763 3.01653 0
M  V30 160 C 15.6141 2.94535 3.16027 0
M  V30 161 C 14.7491 2.90316 4.44849 0
M  V30 162 C 13.7881 4.11923 4.52754 0
M  V30 163 N 12.9251 4.05777 5.72965 0
M  V30 164 H 17.7651 2.5733 1.50285 0
M  V30 165 H 15.3021 1.27613 0.731656 0
M  V30 166 H 17.2601 1.68292 3.81751 0
M  V30 167 H 15.8901 0.76797 3.13532 0
M  V30 168 H 14.9421 3.03615 2.29177 0
M  V30 169 H 16.2541 3.84512 3.17729 0
M  V30 170 H 15.4081 2.89382 5.33238 0
M  V30 171 H 14.1471 1.98068 4.45668 0
M  V30 172 H 13.1521 4.13131 3.62771 0
M  V30 173 H 14.3771 5.0533 4.53672 0
M  V30 174 H 12.3231 3.16351 5.74681 0
M  V30 175 H 12.2401 4.8946 5.76164 0
M  V30 176 H 13.5081 4.08904 6.6364 0
M  V30 177 N 17.7372 -0.778329 1.37039 0
M  V30 178 C 19.1532 -1.07796 1.17695 0
M  V30 179 C 19.3532 -2.01498 0.00860115 0
M  V30 180 O 18.4092 -2.43901 -0.653352 0
M  V30 181 C 19.7222 -1.68178 2.49272 0
M  V30 182 C 21.2702 -1.80467 2.55735 0
M  V30 183 C 21.7452 -2.44263 3.87427 0
M  V30 184 N 23.2362 -2.51721 3.88833 0
M  V30 185 C 23.9712 -3.01919 4.87476 0
M  V30 186 N 23.4672 -3.5234 5.96513 0
M  V30 187 N 25.2602 -3.00733 4.74885 0
M  V30 188 H 17.4112 -0.156032 2.11826 0
M  V30 189 H 19.6742 -0.131844 0.938787 0
M  V30 190 H 19.3802 -1.06796 3.35093 0
M  V30 191 H 19.2542 -2.67554 2.65885 0
M  V30 192 H 21.6412 -2.40984 1.70325 0
M  V30 193 H 21.7222 -0.798656 2.43013 0
M  V30 194 H 21.3662 -1.84388 4.73248 0
M  V30 195 H 21.2962 -3.45458 3.9745 0
M  V30 196 H 23.7872 -2.1603 3.10063 0
M  V30 197 H 24.1002 -3.89027 6.67741 0
M  V30 198 H 22.4452 -3.50462 6.00168 0
M  V30 199 H 25.6362 -2.60638 3.88826 0
M  V30 200 H 25.8092 -3.39545 5.51918 0
M  V30 201 N 19.2153 -1.21501 -1.00376 0
M  V30 202 C 20.1623 -0.975387 -2.09177 0
M  V30 203 C 21.1323 0.0990615 -1.65804 0
M  V30 204 O 22.3173 -0.0483147 -1.90739 0
M  V30 205 C 19.4573 -0.547507 -3.40729 0
M  V30 206 C 18.5703 -1.69153 -3.97506 0
M  V30 207 C 17.7053 -1.2127 -5.17172 0
M  V30 208 C 16.7443 -2.32897 -5.66061 0
M  V30 209 N 15.8813 -1.86138 -6.76976 0
M  V30 210 H 20.7213 -1.9068 -2.29009 0
M  V30 211 H 18.2583 -0.950257 -1.12288 0
M  V30 212 H 20.2163 -0.280667 -4.16255 0
M  V30 213 H 18.8463 0.346904 -3.20931 0
M  V30 214 H 17.8983 -2.07298 -3.18954 0
M  V30 215 H 19.2103 -2.5316 -4.29781 0
M  V30 216 H 18.3643 -0.902591 -5.99948 0
M  V30 217 H 17.1033 -0.342692 -4.86495 0
M  V30 218 H 16.1083 -2.64709 -4.81881 0
M  V30 219 H 17.3333 -3.20396 -5.98768 0
M  V30 220 H 15.2793 -1.01484 -6.48103 0
M  V30 221 H 15.1963 -2.63717 -7.08512 0
M  V30 222 H 16.4643 -1.58165 -7.63285 0
M  V30 223 N 20.6934 1.19889 -1.02296 0
M  V30 224 C 22.1094 1.41462 -0.738954 0
M  V30 225 C 22.3094 1.89721 0.678846 0
M  V30 226 O 21.3654 2.07016 1.4457 0
M  V30 227 C 22.6784 2.43083 -1.77005 0
M  V30 228 C 24.2264 2.5684 -1.78892 0
M  V30 229 C 24.7014 3.61709 -2.80945 0
M  V30 230 N 26.1924 3.69199 -2.79725 0
M  V30 231 C 26.9274 4.50019 -3.55345 0
M  V30 232 N 26.4234 5.34592 -4.40662 0
M  V30 233 N 28.2164 4.44612 -3.43914 0
M  V30 234 H 20.3674 0.868827 -1.93817 0
M  V30 235 H 22.6304 0.44399 -0.837602 0
M  V30 236 H 22.3364 2.14636 -2.78612 0
M  V30 237 H 22.2104 3.4217 -1.58744 0
M  V30 238 H 24.5974 2.84614 -0.779674 0
M  V30 239 H 24.6784 1.57927 -2.01228 0
M  V30 240 H 24.3224 3.34678 -3.82038 0
M  V30 241 H 24.2524 4.60259 -2.5587 0
M  V30 242 H 26.7434 3.08794 -2.17842 0
M  V30 243 H 27.0564 5.93363 -4.95116 0
M  V30 244 H 25.4014 5.34073 -4.44737 0
M  V30 245 H 28.5924 3.7758 -2.76679 0
M  V30 246 H 28.7654 5.0736 -4.031 0
M  V30 247 N 22.1715 0.800033 1.35784 0
M  V30 248 C 23.1185 0.203848 2.29898 0
M  V30 249 C 24.0885 -0.658375 1.52495 0
M  V30 250 O 25.2735 -0.604832 1.8096 0
M  V30 251 C 22.4135 -0.64688 3.38983 0
M  V30 252 C 21.5265 0.235054 4.3136 0
M  V30 253 C 20.6615 -0.623054 5.27533 0
M  V30 254 C 19.7005 0.259682 6.11549 0
M  V30 255 N 18.8375 -0.558019 6.99879 0
M  V30 256 H 23.6775 1.01186 2.80295 0
M  V30 257 H 21.2145 0.51053 1.37957 0
M  V30 258 H 23.1725 -1.15521 4.00887 0
M  V30 259 H 21.8025 -1.42021 2.89879 0
M  V30 260 H 20.8545 0.861438 3.70518 0
M  V30 261 H 22.1665 0.914768 4.9034 0
M  V30 262 H 21.3205 -1.19678 5.94779 0
M  V30 263 H 20.0595 -1.33636 4.69034 0
M  V30 264 H 19.0645 0.845726 5.43256 0
M  V30 265 H 20.2895 0.970748 6.72126 0
M  V30 266 H 18.2355 -1.25542 6.43875 0
M  V30 267 H 18.1525 0.0637872 7.55973 0
M  V30 268 H 19.4205 -1.11523 7.71481 0
M  V30 269 N 23.6496 -1.47581 0.552962 0
M  V30 270 C 24.5976 -2.31648 -0.21023 0
M  V30 271 C 25.5916 -1.42663 -0.913432 0
M  V30 272 O 26.7976 -1.5945 -0.835201 0
M  V30 273 H 23.1726 -0.746989 -0.0866676 0
M  V30 274 H 25.1436 -2.93869 0.518051 0
M  V30 275 C 23.8926 -3.25226 -1.22976 0
M  V30 276 H 23.2156 -3.93658 -0.698077 0
M  V30 277 H 24.6556 -3.86889 -1.73473 0
M  V30 278 C 23.1146 -2.48448 -2.27542 0
M  V30 279 O 23.6446 -2.22585 -3.34393 0
M  V30 280 N 21.8506 -2.09532 -2.01357 0
M  V30 281 H 21.3976 -2.30765 -1.14478 0
M  V30 282 H 21.3556 -1.58476 -2.71538 0
M  V30 283 N 25.1277 -0.289203 -1.54924 0
M  V30 284 C 26.3757 0.322879 -1.99504 0
M  V30 285 C 26.6967 1.55313 -1.1791 0
M  V30 286 O 25.9667 1.94001 -0.272097 0
M  V30 287 H 24.5467 0.122291 -0.736922 0
M  V30 288 H 27.2087 -0.397802 -1.90797 0
M  V30 289 H 26.3047 0.603061 -3.06218 0
M  V30 290 N 26.6058 1.57591 -0.0167156 0
M  V30 291 C 27.5378 2.06343 0.997753 0
M  V30 292 C 28.5508 0.984469 1.29661 0
M  V30 293 O 29.7398 1.26093 1.26344 0
M  V30 294 C 26.8398 2.46255 2.32834 0
M  V30 295 C 26.0128 3.77083 2.21646 0
M  V30 296 C 25.0718 4.0368 3.37534 0
M  V30 297 O 24.0978 4.7411 3.14973 0
M  V30 298 N 25.2998 3.52881 4.60929 0
M  V30 299 H 28.0648 2.93997 0.581875 0
M  V30 300 H 25.6258 1.61002 0.170316 0
M  V30 301 H 27.6178 2.61149 3.09166 0
M  V30 302 H 26.1878 1.64032 2.66106 0
M  V30 303 H 25.4078 3.72106 1.30119 0
M  V30 304 H 26.6958 4.62822 2.11361 0
M  V30 305 H 26.0938 2.95878 4.82154 0
M  V30 306 H 24.6508 3.73076 5.34469 0
M  V30 307 N 28.0839 -0.256276 1.55502 0
M  V30 308 C 29.3239 -0.993081 1.78654 0
M  V30 309 C 29.6879 -1.8288 0.584724 0
M  V30 310 O 30.8889 -2.59665 0.694822 0
M  V30 311 C 29.1599 -1.83856 3.06483 0
M  V30 312 S 30.7189 -2.63573 3.5082 0
M  V30 313 H 27.5369 -0.334199 0.62756 0
M  V30 314 H 30.1389 -0.26184 1.93739 0
M  V30 315 H 28.8429 -1.21414 3.92029 0
M  V30 316 H 28.3739 -2.61271 2.94111 0
M  V30 317 H 30.3889 -3.86312 3.11412 0
M  V30 318 N 29.562 -1.4872 -0.521534 0
M  V30 319 C 30.787 -1.61101 -1.30618 0
M  V30 320 C 31.212 -0.274611 -1.86085 0
M  V30 321 O 30.57 0.754937 -1.64834 0
M  V30 322 C 30.618 -2.66709 -2.4269 0
M  V30 323 O 29.722 -2.24456 -3.45967 0
M  V30 324 H 29.063 -0.539921 -0.386499 0
M  V30 325 H 31.593 -1.94767 -0.626645 0
M  V30 326 H 31.603 -2.88245 -2.88754 0
M  V30 327 H 30.278 -3.63727 -2.01682 0
M  V30 328 H 28.855 -2.13168 -3.05964 0
M  V30 329 N 31.0401 0.771051 -1.3745 0
M  V30 330 C 31.9701 1.89827 -1.3597 0
M  V30 331 C 32.9511 1.68562 -0.228216 0
M  V30 332 O 34.1361 1.8941 -0.428675 0
M  V30 333 C 31.2661 3.2712 -1.16662 0
M  V30 334 C 30.2201 3.6295 -2.2683 0
M  V30 335 C 29.5461 4.98791 -1.92644 0
M  V30 336 C 30.8461 3.69627 -3.69017 0
M  V30 337 H 32.5401 1.91323 -2.30295 0
M  V30 338 H 30.0861 0.919082 -1.10855 0
M  V30 339 H 32.0391 4.05615 -1.14256 0
M  V30 340 H 30.7631 3.26059 -0.187926 0
M  V30 341 H 29.4221 2.86763 -2.28392 0
M  V30 342 H 29.0701 4.94271 -0.933021 0
M  V30 343 H 28.7701 5.23733 -2.66416 0
M  V30 344 H 30.2941 5.79685 -1.91826 0
M  V30 345 H 31.7081 4.38273 -3.69581 0
M  V30 346 H 30.1051 4.06067 -4.41848 0
M  V30 347 H 31.1751 2.70273 -4.02592 0
M  V30 348 N 32.5182 1.22032 0.997298 0
M  V30 349 C 33.4652 0.986467 2.08656 0
M  V30 350 C 34.4352 -0.0902671 1.65855 0
M  V30 351 O 35.6202 0.0584294 1.90711 0
M  V30 352 C 32.7602 0.565569 3.40434 0
M  V30 353 C 31.8732 1.71259 3.96604 0
M  V30 354 C 31.0082 1.24011 5.16522 0
M  V30 355 C 30.0472 2.35896 5.64818 0
M  V30 356 N 29.1842 1.89726 6.7598 0
M  V30 357 H 34.0242 1.91892 2.27994 0
M  V30 358 H 31.5612 0.956199 1.11782 0
M  V30 359 H 33.5192 0.302738 4.161 0
M  V30 360 H 32.1492 -0.329879 3.2111 0
M  V30 361 H 31.2012 2.08986 3.17851 0
M  V30 362 H 32.5132 2.55436 4.28432 0
M  V30 363 H 31.6672 0.934395 5.99461 0
M  V30 364 H 30.4062 0.368487 4.86306 0
M  V30 365 H 29.4112 2.67261 4.8047 0
M  V30 366 H 30.6362 3.23567 5.97061 0
M  V30 367 H 28.5822 1.0492 6.47555 0
M  V30 368 H 28.4992 2.67471 7.07103 0
M  V30 369 H 29.7672 1.62211 7.62435 0
M  V30 370 N 33.9963 -1.19345 1.0293 0
M  V30 371 C 35.2243 -1.92997 0.745644 0
M  V30 372 C 35.6393 -1.75519 -0.695589 0
M  V30 373 O 34.9963 -1.07737 -1.47306 0
M  V30 374 C 35.0473 -3.44741 1.08792 0
M  V30 375 O 34.7683 -3.61658 2.47256 0
M  V30 376 C 36.2693 -4.35515 0.827129 0
M  V30 377 H 33.4893 -0.613042 0.272801 0
M  V30 378 H 36.0333 -1.51473 1.3739 0
M  V30 379 H 34.1883 -3.84097 0.504832 0
M  V30 380 H 34.6023 -4.55514 2.60015 0
M  V30 381 H 36.0763 -5.40589 1.11658 0
M  V30 382 H 36.5533 -4.38552 -0.238436 0
M  V30 383 H 37.1593 -4.01841 1.39297 0
M  V30 384 N 35.4744 -0.807222 -1.35358 0
M  V30 385 C 36.6994 -0.399309 -2.0352 0
M  V30 386 C 37.1244 0.981986 -1.60433 0
M  V30 387 O 36.4824 1.63601 -0.781299 0
M  V30 388 C 36.5304 -0.491552 -3.57234 0
M  V30 389 O 35.6344 0.494754 -4.09421 0
M  V30 390 H 34.9754 -0.166682 -0.642739 0
M  V30 391 H 37.5054 -1.09328 -1.72941 0
M  V30 392 H 37.5154 -0.361588 -4.06395 0
M  V30 393 H 36.1904 -1.49907 -3.87944 0
M  V30 394 H 34.7674 0.324977 -3.71481 0
M  V30 395 N 36.9525 1.47285 -0.560781 0
M  V30 396 C 37.8855 2.27009 0.232821 0
M  V30 397 C 38.8635 1.34273 0.917039 0
M  V30 398 O 40.0475 1.63659 0.935315 0
M  V30 399 C 37.1745 3.11406 1.33206 0
M  V30 400 C 36.2205 4.19746 0.756019 0
M  V30 401 S 37.0535 5.34003 -0.400165 0
M  V30 402 C 38.2095 6.21964 0.700805 0
M  V30 403 H 38.4425 2.93971 -0.443683 0
M  V30 404 H 35.9755 1.50446 -0.347181 0
M  V30 405 H 37.9335 3.60601 1.96156 0
M  V30 406 H 36.5945 2.438 1.98041 0
M  V30 407 H 35.7875 4.78541 1.5816 0
M  V30 408 H 35.3895 3.73451 0.202619 0
M  V30 409 H 37.6815 6.58529 1.59202 0
M  V30 410 H 38.6245 7.07941 0.150126 0
M  V30 411 H 39.0325 5.5566 0.995083 0
M  V30 412 N 38.4306 0.297415 1.54768 0
M  V30 413 C 39.6556 -0.318435 2.04941 0
M  V30 414 C 40.0806 -1.4701 1.17345 0
M  V30 415 O 39.4386 -1.80436 0.176758 0
M  V30 416 C 39.4866 -0.755749 3.52592 0
M  V30 417 O 38.5906 -1.86088 3.68028 0
M  V30 418 H 37.9316 -0.062421 0.661059 0
M  V30 419 H 40.4616 0.438215 1.99852 0
M  V30 420 H 40.4716 -1.04552 3.94376 0
M  V30 421 H 39.1466 0.0867233 4.1581 0
M  V30 422 H 37.7236 -1.57193 3.38149 0
M  V30 423 N 39.9087 -1.5758 0.0250728 0
M  V30 424 C 41.1567 -1.91255 -0.653151 0
M  V30 425 C 41.4777 -0.901691 -1.729 0
M  V30 426 O 40.7477 0.0573785 -1.95816 0
M  V30 427 H 39.3277 -0.705942 -0.244243 0
M  V30 428 H 41.9897 -1.94767 0.0719209 0
M  V30 429 H 41.0857 -2.91752 -1.10847 0
M  V30 430 N 41.3868 0.248026 -1.55636 0
M  V30 431 C 42.6168 0.992367 -1.81206 0
M  V30 432 C 43.0248 1.7949 -0.598324 0
M  V30 433 O 42.3678 1.78292 0.442434 0
M  V30 434 C 42.4298 1.97926 -3.00109 0
M  V30 435 C 42.0938 1.36377 -4.36177 0
M  V30 436 C 43.0908 0.76682 -5.14214 0
M  V30 437 C 40.7758 1.38347 -4.82872 0
M  V30 438 C 42.7698 0.197778 -6.37093 0
M  V30 439 C 40.4568 0.810574 -6.057 0
M  V30 440 C 41.4548 0.218754 -6.8265 0
M  V30 441 O 41.1428 -0.345298 -8.03158 0
M  V30 442 H 40.8748 0.297704 -0.606917 0
M  V30 443 H 43.4288 0.276517 -2.0353 0
M  V30 444 H 41.6588 2.73339 -2.73538 0
M  V30 445 H 43.3478 2.58694 -3.12781 0
M  V30 446 H 44.1138 0.744114 -4.79258 0
M  V30 447 H 39.9928 1.8335 -4.2297 0
M  V30 448 H 43.5368 -0.264788 -6.97097 0
M  V30 449 H 39.4338 0.830604 -6.40134 0
M  V30 450 H 40.2018 -0.237055 -8.18157 0
M  V30 451 N 42.8649 1.48995 0.513639 0
M  V30 452 C 44.1139 1.57093 1.2651 0
M  V30 453 C 44.4269 0.257091 1.93903 0
M  V30 454 O 45.6329 0.216478 2.70636 0
M  V30 455 C 44.0889 2.77118 2.29638 0
M  V30 456 C 43.6969 4.15209 1.68241 0
M  V30 457 C 45.4409 2.94538 3.05692 0
M  V30 458 C 43.3479 5.26474 2.69406 0
M  V30 459 H 42.2779 0.584876 0.475854 0
M  V30 460 H 44.9289 1.7536 0.540487 0
M  V30 461 H 43.3109 2.52319 3.05207 0
M  V30 462 H 44.4849 4.50094 0.987505 0
M  V30 463 H 42.7999 4.03042 1.04623 0
M  V30 464 H 45.3969 3.74832 3.8132 0
M  V30 465 H 45.7399 2.04614 3.62545 0
M  V30 466 H 46.2729 3.19316 2.37238 0
M  V30 467 H 43.0119 6.18417 2.17351 0
M  V30 468 H 42.5319 4.96058 3.37175 0
M  V30 469 H 44.2109 5.55277 3.32078 0
M  V30 470 N 44.343 -0.763751 1.37857 0
M  V30 471 C 45.754 -1.3405 1.29952 0
M  V30 472 C 46.105 -1.96138 -0.0492898 0
M  V30 473 O 45.23 -1.94372 -0.951239 0
M  V30 474 C 45.825 -2.43729 2.35333 0
M  V30 475 C 44.384 -2.97151 2.31037 0
M  V30 476 C 43.531 -1.70438 2.18738 0
M  V30 477 H 46.482 -0.563396 1.48363 0
M  V30 478 H 46.503 -3.23412 2.00462 0
M  V30 479 H 46.015 -1.9851 3.33489 0
M  V30 480 H 44.116 -3.46724 1.3643 0
M  V30 481 H 44.229 -3.52221 3.24772 0
M  V30 482 H 42.593 -1.93673 1.65418 0
M  V30 483 H 43.376 -1.27312 3.18821 0
M  V30 484 N 45.8211 -1.22559 -0.990812 0
M  V30 485 C 47.0461 -1.07862 -1.77145 0
M  V30 486 C 47.4711 0.366447 -1.84496 0
M  V30 487 O 46.8291 1.26478 -1.29896 0
M  V30 488 C 46.8771 -1.69686 -3.18181 0
M  V30 489 O 45.9811 -0.951946 -4.01263 0
M  V30 490 H 45.3221 -0.378712 -0.545411 0
M  V30 491 H 47.8521 -1.62399 -1.2445 0
M  V30 492 H 47.8621 -1.74496 -3.68802 0
M  V30 493 H 46.5371 -2.74841 -3.12146 0
M  V30 494 H 45.1141 -0.980011 -3.59792 0
M  V30 495 N 47.2992 1.18797 -1.03562 0
M  V30 496 C 48.5292 1.92319 -0.754773 0
M  V30 497 C 48.9372 1.7612 0.691248 0
M  V30 498 O 48.2802 1.08491 1.48241 0
M  V30 499 C 48.3422 3.44284 -1.03484 0
M  V30 500 C 48.0062 3.84258 -2.47376 0
M  V30 501 C 49.0032 3.88459 -3.45537 0
M  V30 502 C 46.6882 4.15701 -2.81954 0
M  V30 503 C 48.6822 4.23545 -4.76328 0
M  V30 504 C 46.3692 4.50458 -4.12954 0
M  V30 505 C 47.3672 4.54356 -5.09951 0
M  V30 506 O 47.0552 4.88305 -6.38603 0
M  V30 507 H 46.7872 0.617527 -0.275021 0
M  V30 508 H 49.3412 1.51683 -1.38497 0
M  V30 509 H 47.5712 3.85135 -0.347513 0
M  V30 510 H 49.2602 3.99049 -0.7426 0
M  V30 511 H 50.0262 3.6431 -3.20162 0
M  V30 512 H 45.9052 4.11847 -2.0713 0
M  V30 513 H 49.4492 4.26502 -5.52035 0
M  V30 514 H 45.3462 4.74067 -4.38099 0
M  V30 515 H 46.1142 5.06227 -6.43177 0
M  V30 516 N 48.7773 0.814389 1.34928 0
M  V30 517 C 49.7073 0.244827 2.32213 0
M  V30 518 C 50.6883 -0.634024 1.57842 0
M  V30 519 O 51.8733 -0.562676 1.8587 0
M  V30 520 C 49.0033 -0.601106 3.42058 0
M  V30 521 C 47.9573 0.179896 4.27622 0
M  V30 522 C 47.2833 -0.788237 5.28858 0
M  V30 523 C 48.5833 1.38329 5.03649 0
M  V30 524 H 50.2773 1.05763 2.80097 0
M  V30 525 H 47.8233 0.510029 1.34665 0
M  V30 526 H 49.7763 -1.00968 4.09125 0
M  V30 527 H 48.5003 -1.44688 2.92802 0
M  V30 528 H 47.1593 0.569739 3.62146 0
M  V30 529 H 46.8073 -1.62973 4.75866 0
M  V30 530 H 46.5073 -0.269942 5.8698 0
M  V30 531 H 48.0313 -1.19485 5.98795 0
M  V30 532 H 49.4453 1.04918 5.63618 0
M  V30 533 H 47.8423 1.83662 5.71304 0
M  V30 534 H 48.9123 2.16592 4.33839 0
M  V30 535 N 50.2554 -1.46986 0.568584 0
M  V30 536 C 51.5324 -1.95592 -0.0174074 0
M  V30 537 C 51.9124 -1.51124 -1.47393 0
M  V30 538 O 51.2604 -0.755329 -2.15655 0
M  V30 539 C 51.4704 -3.48719 0.139913 0
M  V30 540 C 52.8184 -4.246 0.000426376 0
M  V30 541 O 53.8424 -3.56135 0.0680316 0
M  V30 542 O 52.7014 -5.46302 -0.146988 0
M  V30 543 H 49.7954 -0.82498 -0.0577599 0
M  V30 544 H 52.3414 -1.57335 0.635909 0
M  V30 545 H 51.1134 -3.73927 1.15301 0
M  V30 546 H 50.7364 -3.93771 -0.550491 0
M  V30 547 N 51.7335 -0.305618 -1.54608 0
M  V30 548 C 52.6805 0.568421 -2.23691 0
M  V30 549 C 53.6505 1.12592 -1.22116 0
M  V30 550 O 54.8355 1.16959 -1.50749 0
M  V30 551 C 51.9755 1.7322 -2.98477 0
M  V30 552 C 51.0885 1.20566 -4.14835 0
M  V30 553 C 50.2235 2.33368 -4.77193 0
M  V30 554 C 49.2625 1.7787 -5.85686 0
M  V30 555 N 48.3995 2.84263 -6.4198 0
M  V30 556 H 53.2395 -0.0272867 -2.97988 0
M  V30 557 H 50.7765 -0.0252363 -1.47078 0
M  V30 558 H 52.7345 2.41675 -3.40072 0
M  V30 559 H 51.3645 2.29947 -2.26548 0
M  V30 560 H 50.4165 0.413223 -3.78149 0
M  V30 561 H 51.7285 0.759417 -4.92985 0
M  V30 562 H 50.8825 3.09761 -5.21664 0
M  V30 563 H 49.6215 2.8132 -3.98385 0
M  V30 564 H 48.6265 0.99968 -5.40635 0
M  V30 565 H 49.8515 1.30816 -6.66381 0
M  V30 566 H 47.7975 3.31541 -5.66053 0
M  V30 567 H 47.7145 2.44149 -7.15491 0
M  V30 568 H 48.9825 3.6054 -6.91109 0
M  V30 569 N 53.2116 1.57565 -0.0334293 0
M  V30 570 C 54.4886 1.83282 0.683163 0
M  V30 571 C 54.8686 0.91823 1.90084 0
M  V30 572 O 54.2166 -0.025113 2.28486 0
M  V30 573 C 54.4266 3.32599 1.0573 0
M  V30 574 C 55.7746 3.99179 1.44711 0
M  V30 575 O 56.7986 3.3712 1.15015 0
M  V30 576 O 55.6576 5.08565 2.0006 0
M  V30 577 H 52.7516 0.755869 0.335546 0
M  V30 578 H 55.2976 1.69589 -0.0614402 0
M  V30 579 H 54.0696 3.90834 0.190828 0
M  V30 580 H 53.6926 3.51415 1.85993 0
M  V30 581 N 54.6897 -0.239769 1.55765 0
M  V30 582 C 55.5997 -1.31831 1.94056 0
M  V30 583 C 56.6157 -1.52275 0.841925 0
M  V30 584 O 57.7917 -1.65759 1.14394 0
M  V30 585 C 54.8567 -2.65156 2.23368 0
M  V30 586 C 53.9177 -2.53173 3.46701 0
M  V30 587 C 53.1507 -3.8014 3.74606 0
M  V30 588 O 53.3737 -4.82343 3.04469 0
M  V30 589 O 52.3077 -3.78344 4.68123 0
M  V30 590 H 56.1337 -1.02347 2.85935 0
M  V30 591 H 53.7187 -0.441123 1.42739 0
M  V30 592 H 55.6007 -3.43929 2.43497 0
M  V30 593 H 54.2757 -2.94358 1.34666 0
M  V30 594 H 53.1827 -1.72662 3.31871 0
M  V30 595 H 54.5157 -2.28915 4.35728 0
M  V30 596 N 56.1678 -1.49265 -0.50573 0
M  V30 597 C 57.0998 -1.617 -1.62437 0
M  V30 598 C 58.1128 -0.499924 -1.54934 0
M  V30 599 O 59.3018 -0.771785 -1.60953 0
M  V30 600 C 56.4018 -1.5533 -3.01207 0
M  V30 601 C 55.5748 -2.8249 -3.33943 0
M  V30 602 C 54.6338 -2.69238 -4.52103 0
M  V30 603 O 53.6598 -3.43167 -4.5412 0
M  V30 604 N 54.8618 -1.80468 -5.51735 0
M  V30 605 H 57.6268 -2.58177 -1.52199 0
M  V30 606 H 55.1878 -1.46294 -0.693511 0
M  V30 607 H 57.1798 -1.44125 -3.78167 0
M  V30 608 H 55.7498 -0.667297 -3.05395 0
M  V30 609 H 54.9698 -3.08081 -2.45926 0
M  V30 610 H 56.2578 -3.66802 -3.5261 0
M  V30 611 H 55.6558 -1.19653 -5.52901 0
M  V30 612 H 54.2128 -1.75188 -6.27816 0
M  V30 613 N 57.6459 0.756429 -1.3826 0
M  V30 614 C 58.8859 1.52833 -1.35725 0
M  V30 615 C 59.2499 1.91926 0.0534106 0
M  V30 616 O 60.4509 2.68028 0.203613 0
M  V30 617 C 58.7219 2.74919 -2.28373 0
M  V30 618 S 60.2809 3.64817 -2.43832 0
M  V30 619 H 57.0989 0.523043 -0.481608 0
M  V30 620 H 59.7009 0.888212 -1.74158 0
M  V30 621 H 58.4049 2.44304 -3.29763 0
M  V30 622 H 57.9359 3.43878 -1.91079 0
M  V30 623 H 59.9509 4.676 -1.66027 0
M  V30 624 N 59.124 1.23083 0.984299 0
M  V30 625 C 60.37 1.06214 1.72761 0
M  V30 626 C 60.703 -0.400584 1.90024 0
M  V30 627 O 59.978 -1.29672 1.44967 0
M  V30 628 C 60.261 1.78375 3.12817 0
M  V30 629 C 60.114 3.32296 3.03149 0
M  V30 630 C 61.433 1.54309 4.12161 0
M  V30 631 H 58.552 0.387251 0.627061 0
M  V30 632 H 61.194 1.51536 1.14616 0
M  V30 633 H 59.344 1.39848 3.62457 0
M  V30 634 H 61.016 3.8032 2.61064 0
M  V30 635 H 59.259 3.6153 2.39747 0
M  V30 636 H 59.93 3.77972 4.02295 0
M  V30 637 H 62.406 1.87791 3.71314 0
M  V30 638 H 61.282 2.07281 5.08258 0
M  V30 639 H 61.543 0.477572 4.39513 0
M  V30 640 N 60.6021 -1.18246 1.0419 0
M  V30 641 C 61.8481 -1.88536 0.747122 0
M  V30 642 C 62.1811 -1.80223 -0.723409 0
M  V30 643 O 61.4561 -1.20337 -1.52804 0
M  V30 644 C 61.7391 -3.38968 1.21544 0
M  V30 645 C 61.5921 -3.56084 2.74816 0
M  V30 646 C 62.9111 -4.32648 0.806482 0
M  V30 647 H 60.0301 -0.684619 0.272883 0
M  V30 648 H 62.6721 -1.39113 1.29413 0
M  V30 649 H 60.8221 -3.8119 0.750081 0
M  V30 650 H 62.4941 -3.22946 3.29399 0
M  V30 651 H 60.7371 -2.98699 3.14582 0
M  V30 652 H 61.4081 -4.61639 3.02644 0
M  V30 653 H 63.8841 -3.98211 1.20695 0
M  V30 654 H 62.7601 -5.36462 1.1619 0
M  V30 655 H 63.0211 -4.41146 -0.29029 0
M  V30 656 N 62.0802 -0.821533 -1.34494 0
M  V30 657 C 63.3202 -0.414785 -2.00147 0
M  V30 658 C 63.6842 1.00299 -1.6372 0
M  V30 659 O 64.8852 1.51255 -2.22206 0
M  V30 660 C 63.1562 -0.609403 -3.52166 0
M  V30 661 S 64.7152 -0.295297 -4.37805 0
M  V30 662 H 61.5332 -0.15679 -0.693497 0
M  V30 663 H 64.1352 -1.06705 -1.63812 0
M  V30 664 H 62.8392 -1.64096 -3.76166 0
M  V30 665 H 62.3702 0.0576414 -3.93358 0
M  V30 666 H 64.3852 0.891531 -4.88125 0
M  V30 667 N 63.5583 1.46682 -0.576371 0
M  V30 668 C 64.8063 2.02013 -0.0594163 0
M  V30 669 C 65.1273 1.45101 1.30271 0
M  V30 670 O 64.3973 0.633317 1.8538 0
M  V30 671 H 62.9773 0.746759 -0.0189745 0
M  V30 672 H 65.6393 1.79862 -0.750717 0
M  V30 673 H 64.7353 3.12097 0.014345 0
M  V30 674 N 65.0364 0.313813 1.54444 0
M  V30 675 C 66.3134 -0.345447 1.92525 0
M  V30 676 C 66.6934 -1.70667 1.24242 0
M  V30 677 O 66.0414 -2.25273 0.382654 0
M  V30 678 C 66.2514 -0.44737 3.46121 0
M  V30 679 C 67.5994 -0.712238 4.18584 0
M  V30 680 O 68.6234 -0.530678 3.52225 0
M  V30 681 O 67.4824 -1.06183 5.36085 0
M  V30 682 H 64.5764 -0.195407 0.803583 0
M  V30 683 H 67.1224 0.362813 1.65776 0
M  V30 684 H 65.8944 0.509043 3.87975 0
M  V30 685 H 65.5174 -1.20359 3.78945 0
M  V30 686 N 66.5145 -1.57545 0.0417849 0
M  V30 687 C 67.4615 -2.10977 -0.935805 0
M  V30 688 C 68.4315 -1.01486 -1.31491 0
M  V30 689 O 69.6165 -1.2898 -1.40602 0
M  V30 690 C 66.7565 -2.65169 -2.2086 0
M  V30 691 C 65.8695 -3.88714 -1.88482 0
M  V30 692 C 65.0045 -4.31254 -3.1015 0
M  V30 693 C 64.0435 -5.47524 -2.7365 0
M  V30 694 N 63.1805 -5.85162 -3.87982 0
M  V30 695 H 68.0205 -2.94218 -0.473249 0
M  V30 696 H 65.5575 -1.45415 -0.221981 0
M  V30 697 H 67.5155 -2.94685 -2.95325 0
M  V30 698 H 66.1455 -1.8474 -2.64709 0
M  V30 699 H 65.1975 -3.65849 -1.04205 0
M  V30 700 H 66.5095 -4.73245 -1.57608 0
M  V30 701 H 65.6635 -4.62273 -3.92923 0
M  V30 702 H 64.4025 -3.45516 -3.44195 0
M  V30 703 H 63.4075 -5.16187 -1.89291 0
M  V30 704 H 64.6325 -6.34971 -2.40807 0
M  V30 705 H 62.5785 -5.02377 -4.21846 0
M  V30 706 H 62.4955 -6.64362 -3.60775 0
M  V30 707 H 63.7635 -6.20791 -4.71422 0
M  V30 708 N 67.9926 0.231505 -1.5589 0
M  V30 709 C 68.9556 1.27028 -1.90779 0
M  V30 710 C 69.9556 1.40308 -0.785507 0
M  V30 711 O 71.1456 1.38744 -1.05336 0
M  V30 712 C 68.2776 2.64566 -2.14983 0
M  V30 713 H 69.4706 0.973017 -2.83677 0
M  V30 714 H 67.0236 0.471486 -1.49019 0
M  V30 715 H 67.7586 2.99406 -1.24604 0
M  V30 716 H 67.5436 2.56305 -2.96732 0
M  V30 717 H 69.0336 3.39543 -2.43105 0
M  V30 718 N 69.4707 1.49531 0.497807 0
M  V30 719 C 70.6987 1.62893 1.27567 0
M  V30 720 C 71.1137 0.301585 1.86376 0
M  V30 721 O 70.4707 -0.713335 1.67982 0
M  V30 722 C 70.5217 2.70013 2.40364 0
M  V30 723 O 70.2427 3.976 1.83972 0
M  V30 724 C 71.7437 2.94109 3.31685 0
M  V30 725 H 68.9637 0.548298 0.386794 0
M  V30 726 H 71.5077 1.95584 0.597245 0
M  V30 727 H 69.6627 2.40092 3.04031 0
M  V30 728 H 70.0767 4.56631 2.58047 0
M  V30 729 H 71.5507 3.72788 4.07104 0
M  V30 730 H 72.0277 2.04147 3.88871 0
M  V30 731 H 72.6337 3.2546 2.73781 0
M  V30 732 N 70.9488 -0.749086 1.3866 0
M  V30 733 C 72.1968 -1.50535 1.34847 0
M  V30 734 C 72.5178 -1.94909 -0.0595016 0
M  V30 735 O 71.7878 -1.67973 -1.00806 0
M  V30 736 H 70.3678 -0.558395 0.49619 0
M  V30 737 H 73.0298 -0.890165 1.73384 0
M  V30 738 H 72.1258 -2.39413 2.00219 0
M  V30 739 N 72.4269 -1.23603 -0.977757 0
M  V30 740 C 73.6569 -1.09487 -1.75203 0
M  V30 741 C 74.0649 0.356321 -1.85814 0
M  V30 742 O 73.4079 1.25816 -1.33851 0
M  V30 743 C 73.4699 -1.64905 -3.19447 0
M  V30 744 C 73.1339 -3.13688 -3.32338 0
M  V30 745 C 74.1309 -4.10953 -3.18455 0
M  V30 746 C 71.8159 -3.53449 -3.56902 0
M  V30 747 C 73.8099 -5.45962 -3.28944 0
M  V30 748 C 71.4969 -4.88602 -3.6703 0
M  V30 749 C 72.4949 -5.84668 -3.53062 0
M  V30 750 O 72.1829 -7.17365 -3.62826 0
M  V30 751 H 71.9149 -0.38367 -0.556573 0
M  V30 752 H 74.4689 -1.6398 -1.23693 0
M  V30 753 H 72.6989 -1.04835 -3.72218 0
M  V30 754 H 74.3879 -1.46226 -3.78646 0
M  V30 755 H 75.1539 -3.81577 -2.99372 0
M  V30 756 H 71.0329 -2.79188 -3.66844 0
M  V30 757 H 74.5769 -6.20925 -3.17958 0
M  V30 758 H 70.4739 -5.17653 -3.85623 0
M  V30 759 H 71.2419 -7.2515 -3.79605 0
M  V30 760 N 73.905 1.17692 -1.04816 0
M  V30 761 C 74.855 2.1952 -0.616042 0
M  V30 762 C 75.839 1.57147 0.345485 0
M  V30 763 O 77.031 1.76245 0.163325 0
M  V30 764 C 74.16 3.43298 0.0116917 0
M  V30 765 C 73.246 4.12777 -0.973435 0
M  V30 766 N 73.637 4.5814 -2.14339 0
M  V30 767 C 71.935 4.38747 -0.80108 0
M  V30 768 C 72.636 5.11713 -2.7663 0
M  V30 769 N 71.612 5.03686 -2.04453 0
M  V30 770 H 75.414 2.52293 -1.5075 0
M  V30 771 H 72.928 1.3398 -0.917776 0
M  V30 772 H 74.925 4.15519 0.339006 0
M  V30 773 H 73.585 3.12018 0.898593 0
M  V30 774 H 74.596 4.52349 -2.52191 0
M  V30 775 H 71.273 4.17485 0.0350934 0
M  V30 776 H 72.663 5.56962 -3.75823 0
M  V30 777 N 75.3831 0.828654 1.34056 0
M  V30 778 C 76.6131 0.431993 2.02033 0
M  V30 779 C 77.0211 -0.96844 1.62536 0
M  V30 780 O 76.3641 -1.6391 0.829408 0
M  V30 781 C 76.4261 0.461224 3.56529 0
M  V30 782 C 76.0901 1.81599 4.1937 0
M  V30 783 C 77.0871 2.7777 4.39477 0
M  V30 784 C 74.7721 2.10604 4.56017 0
M  V30 785 C 76.7661 4.01115 4.95364 0
M  V30 786 C 74.4531 3.34207 5.11614 0
M  V30 787 C 75.4511 4.2928 5.31232 0
M  V30 788 O 75.1391 5.50699 5.8565 0
M  V30 789 H 74.8711 0.170943 0.654029 0
M  V30 790 H 77.4251 1.11988 1.72185 0
M  V30 791 H 75.6551 -0.283388 3.8566 0
M  V30 792 H 77.3441 0.0838149 4.05813 0
M  V30 793 H 78.1101 2.56659 4.11523 0
M  V30 794 H 73.9891 1.37402 4.40047 0
M  V30 795 H 77.5331 4.75333 5.10592 0
M  V30 796 H 73.4301 3.55179 5.38997 0
M  V30 797 H 74.1981 5.52298 6.04077 0
M  V30 798 N 76.8612 -1.46375 0.584142 0
M  V30 799 C 78.2772 -1.57694 0.245929 0
M  V30 800 C 78.4772 -1.57903 -1.25175 0
M  V30 801 O 77.5332 -1.49676 -2.03355 0
M  V30 802 C 78.8462 -2.87028 0.896402 0
M  V30 803 C 80.3942 -3.00662 0.870127 0
M  V30 804 C 80.8692 -4.32734 1.50017 0
M  V30 805 N 82.3602 -4.39436 1.46458 0
M  V30 806 C 83.0952 -5.40248 1.92144 0
M  V30 807 N 82.5912 -6.47726 2.4581 0
M  V30 808 N 84.3842 -5.31459 1.83052 0
M  V30 809 H 76.5352 -1.44483 1.55687 0
M  V30 810 H 78.7982 -0.689291 0.650831 0
M  V30 811 H 78.5042 -2.9269 1.95002 0
M  V30 812 H 78.3782 -3.75014 0.405486 0
M  V30 813 H 80.7652 -2.94581 -0.174871 0
M  V30 814 H 80.8462 -2.14148 1.39908 0
M  V30 815 H 80.4902 -4.39573 2.54437 0
M  V30 816 H 80.4202 -5.18025 0.946432 0
M  V30 817 H 82.9112 -3.62367 1.07231 0
M  V30 818 H 83.2242 -7.20863 2.78525 0
M  V30 819 H 81.5692 -6.48542 2.49836 0
M  V30 820 H 84.7602 -4.46396 1.40883 0
M  V30 821 H 84.9332 -6.09881 2.18973 0
M  V30 822 N 78.3393 -0.321999 -1.54275 0
M  V30 823 C 79.5793 0.281657 -2.0245 0
M  V30 824 C 79.9433 1.49468 -1.20513 0
M  V30 825 O 81.1443 2.17109 -1.58484 0
M  V30 826 C 79.4153 0.609014 -3.52173 0
M  V30 827 S 80.9743 1.19255 -4.22284 0
M  V30 828 H 77.7923 0.0852825 -0.705867 0
M  V30 829 H 80.3943 -0.454758 -1.90137 0
M  V30 830 H 79.0983 -0.281982 -4.0943 0
M  V30 831 H 78.6293 1.37567 -3.68563 0
M  V30 832 H 80.6443 2.47944 -4.29812 0
M  V30 833 N 79.8174 1.5752 -0.0501392 0
M  V30 834 C 81.0664 1.91827 0.623328 0
M  V30 835 C 81.3794 0.930222 1.72065 0
M  V30 836 O 82.5854 1.1653 2.4522 0
M  V30 837 C 81.0414 3.40692 1.16003 0
M  V30 838 C 80.6494 4.479 0.0948811 0
M  V30 839 C 82.3934 3.84034 1.80881 0
M  V30 840 C 80.3004 5.87879 0.644411 0
M  V30 841 H 79.2304 0.715918 0.236596 0
M  V30 842 H 81.8814 1.83115 -0.118861 0
M  V30 843 H 80.2634 3.44405 1.9545 0
M  V30 844 H 81.4374 4.55775 -0.678675 0
M  V30 845 H 79.7524 4.13892 -0.45637 0
M  V30 846 H 82.3494 4.85984 2.22988 0
M  V30 847 H 82.6924 3.20225 2.6601 0
M  V30 848 H 83.2254 3.82833 1.0809 0
M  V30 849 H 79.9644 6.55282 -0.169229 0
M  V30 850 H 79.4844 5.83567 1.38598 0
M  V30 851 H 81.1634 6.37098 1.12763 0
M  V30 852 N 81.2955 -0.223234 1.56011 0
M  V30 853 C 82.5235 -0.964812 1.83027 0
M  V30 854 C 82.9385 -1.78013 0.62904 0
M  V30 855 O 82.2955 -1.78008 -0.402414 0
M  V30 856 C 82.3465 -1.88373 3.08542 0
M  V30 857 O 82.0675 -1.10137 4.2403 0
M  V30 858 C 83.5685 -2.73934 3.48533 0
M  V30 859 H 80.7885 -0.282842 0.608475 0
M  V30 860 H 83.3325 -0.238971 2.03099 0
M  V30 861 H 81.4875 -2.56354 2.9045 0
M  V30 862 H 81.9015 -1.72501 4.95322 0
M  V30 863 H 83.3755 -3.34117 4.39397 0
M  V30 864 H 83.8525 -3.46244 2.70207 0
M  V30 865 H 84.4585 -2.11369 3.69057 0
M  V30 866 N 82.7736 -1.49793 -0.48987 0
M  V30 867 C 84.0136 -1.61466 -1.25332 0
M  V30 868 C 84.3776 -0.299688 -1.89647 0
M  V30 869 O 85.5786 -0.291687 -2.67213 0
M  V30 870 C 83.8496 -2.74944 -2.28343 0
M  V30 871 S 85.4086 -3.06637 -3.13878 0
M  V30 872 H 82.2266 -0.569411 -0.425784 0
M  V30 873 H 84.8286 -1.875 -0.553541 0
M  V30 874 H 83.5326 -3.68994 -1.79643 0
M  V30 875 H 83.0636 -2.50938 -3.02975 0
M  V30 876 H 85.0786 -2.49015 -4.29192 0
M  V30 877 N 84.2517 0.741722 -1.39055 0
M  V30 878 C 85.1617 1.88621 -1.39496 0
M  V30 879 C 86.1777 1.71557 -0.290578 0
M  V30 880 O 87.3537 1.94275 -0.530954 0
M  V30 881 C 84.4187 3.24134 -1.23037 0
M  V30 882 C 83.4797 3.5364 -2.43387 0
M  V30 883 C 82.7127 4.82687 -2.27703 0
M  V30 884 O 82.9357 5.55922 -1.27696 0
M  V30 885 O 81.8697 5.1194 -3.16545 0
M  V30 886 H 85.6957 1.91203 -2.35956 0
M  V30 887 H 83.2807 0.888625 -1.20099 0
M  V30 888 H 85.1627 4.0513 -1.15964 0
M  V30 889 H 83.8377 3.22337 -0.296691 0
M  V30 890 H 82.7447 2.72758 -2.56035 0
M  V30 891 H 84.0777 3.60209 -3.35425 0
M  V30 892 N 85.7298 1.2412 0.971189 0
M  V30 893 C 86.9778 1.07668 1.71032 0
M  V30 894 C 87.2988 -0.385797 1.91146 0
M  V30 895 O 86.5688 -1.27569 1.4867 0
M  V30 896 H 85.1488 0.395429 0.633755 0
M  V30 897 H 87.8108 1.55984 1.16855 0
M  V30 898 H 86.9068 1.57195 2.69622 0
M  V30 899 N 87.2079 -1.17134 1.05439 0
M  V30 900 C 88.4479 -1.89137 0.77502 0
M  V30 901 C 88.8119 -1.79345 -0.685526 0
M  V30 902 O 90.0129 -2.46188 -1.0791 0
M  V30 903 C 88.2839 -3.35003 1.2453 0
M  V30 904 S 89.8429 -4.24952 1.09367 0
M  V30 905 H 86.6609 -0.652949 0.281387 0
M  V30 906 H 89.2629 -1.4145 1.34953 0
M  V30 907 H 87.9669 -3.39666 2.30338 0
M  V30 908 H 87.4979 -3.87736 0.665166 0
M  V30 909 H 89.5129 -4.96196 0.0193397 0
M  V30 910 N 88.686 -0.835752 -1.33615 0
M  V30 911 C 89.633 -0.26473 -2.29277 0
M  V30 912 C 90.603 0.617712 -1.54187 0
M  V30 913 O 91.788 0.556641 -1.825 0
M  V30 914 C 88.928 0.556777 -3.40579 0
M  V30 915 C 88.041 -0.349339 -4.30585 0
M  V30 916 C 87.176 0.482969 -5.29 0
M  V30 917 C 86.215 -0.421732 -6.10645 0
M  V30 918 N 85.352 0.372262 -7.01112 0
M  V30 919 H 90.192 -1.08582 -2.77514 0
M  V30 920 H 87.729 -0.546927 -1.36554 0
M  V30 921 H 89.687 1.04852 -4.03809 0
M  V30 922 H 88.317 1.34286 -2.93542 0
M  V30 923 H 87.369 -0.959372 -3.68104 0
M  V30 924 H 88.681 -1.04445 -4.87742 0
M  V30 925 H 87.835 1.03866 -5.97743 0
M  V30 926 H 86.574 1.21153 -4.72412 0
M  V30 927 H 85.579 -0.989464 -5.40823 0
M  V30 928 H 86.804 -1.14861 -6.69316 0
M  V30 929 H 84.75 1.08426 -6.46977 0
M  V30 930 H 84.667 -0.264198 -7.55538 0
M  V30 931 H 85.935 0.910293 -7.74167 0
M  V30 932 N 90.1641 1.46063 -0.591896 0
M  V30 933 C 91.4121 2.01938 -0.0808391 0
M  V30 934 C 91.7331 1.46475 1.28725 0
M  V30 935 O 91.0031 0.652944 1.84698 0
M  V30 936 H 89.5831 0.746516 -0.0268938 0
M  V30 937 H 92.2451 1.79055 -0.769752 0
M  V30 938 H 91.3411 3.12094 -0.0187578 0
M  V30 939 N 91.6422 0.330177 1.54103 0
M  V30 940 C 92.8892 -0.270405 2.00686 0
M  V30 941 C 93.2172 -1.51621 1.21825 0
M  V30 942 O 92.4722 -1.93536 0.29025 0
M  V30 943 C 92.7712 -0.643134 3.51566 0
M  V30 944 C 92.4372 0.504251 4.48072 0
M  V30 945 C 91.0992 0.819163 4.74176 0
M  V30 946 C 93.4512 1.27465 5.05373 0
M  V30 947 C 90.7792 1.90708 5.5484 0
M  V30 948 C 93.1312 2.35271 5.87223 0
M  V30 949 C 91.7952 2.67336 6.11627 0
M  V30 950 H 91.0652 -0.0989482 0.734364 0
M  V30 951 H 93.7122 0.455324 1.86008 0
M  V30 952 H 92.0172 -1.44938 3.64006 0
M  V30 953 H 93.7142 -1.11949 3.85056 0
M  V30 954 H 90.3042 0.248733 4.27878 0
M  V30 955 H 94.4882 1.04462 4.85182 0
M  V30 956 H 89.7442 2.15991 5.71977 0
M  V30 957 H 93.9182 2.95405 6.30641 0
M  V30 958 H 91.5452 3.51763 6.73919 0
M  V30 959 N 93.1203 -1.57491 0.0584922 0
M  V30 960 C 94.3673 -1.92978 -0.613648 0
M  V30 961 C 94.6953 -0.937461 -1.70417 0
M  V30 962 O 93.9503 0.049078 -1.95638 0
M  V30 963 C 94.2493 -3.3513 -1.24188 0
M  V30 964 C 93.9153 -4.50037 -0.278826 0
M  V30 965 C 92.5773 -4.81198 -0.0138447 0
M  V30 966 C 94.9293 -5.19807 0.380777 0
M  V30 967 C 92.2573 -5.79473 0.918052 0
M  V30 968 C 94.6093 -6.19079 1.30091 0
M  V30 969 C 93.2733 -6.48665 1.57449 0
M  V30 970 H 92.5433 -0.706157 -0.22455 0
M  V30 971 H 95.1903 -1.91082 0.126533 0
M  V30 972 H 93.4953 -3.33429 -2.05749 0
M  V30 973 H 95.1923 -3.59871 -1.769 0
M  V30 974 H 91.7823 -4.25726 -0.495539 0
M  V30 975 H 95.9663 -4.95939 0.189158 0
M  V30 976 H 91.2223 -6.00727 1.1374 0
M  V30 977 H 95.3963 -6.7225 1.81804 0
M  V30 978 H 93.0233 -7.24628 2.29822 0
M  V30 979 N 94.5984 0.214957 -1.56127 0
M  V30 980 C 96.0144 0.564948 -1.49267 0
M  V30 981 C 96.2144 1.86827 -0.754838 0
M  V30 982 O 95.2704 2.50745 -0.297198 0
M  V30 983 C 96.5834 0.638071 -2.93852 0
M  V30 984 C 98.1314 0.728253 -3.0441 0
M  V30 985 C 98.6064 0.832663 -4.50367 0
M  V30 986 N 100.097 0.896712 -4.54437 0
M  V30 987 C 100.832 0.997324 -5.6466 0
M  V30 988 N 100.328 1.06147 -6.8462 0
M  V30 989 N 102.121 1.03297 -5.52527 0
M  V30 990 H 94.2724 -0.640211 -2.02522 0
M  V30 991 H 96.5354 -0.225507 -0.920788 0
M  V30 992 H 96.2414 -0.250126 -3.50809 0
M  V30 993 H 96.1154 1.49947 -3.46115 0
M  V30 994 H 98.5024 1.60689 -2.47514 0
M  V30 995 H 98.5834 -0.158952 -2.55306 0
M  V30 996 H 98.2274 -0.0415417 -5.07883 0
M  V30 997 H 98.1574 1.73538 -4.97184 0
M  V30 998 H 100.648 0.857188 -3.6805 0
M  V30 999 H 100.961 1.1382 -7.64372 0
M  V30 1000 H 99.3064 1.03049 -6.87318 0
M  V30 1001 H 102.497 0.979558 -4.57736 0
M  V30 1002 H 102.67 1.10793 -6.38458 0
M  V30 1003 N 96.0765 1.50051 0.48192 0
M  V30 1004 C 97.4925 1.37237 0.814756 0
M  V30 1005 C 97.6925 0.420109 1.97072 0
M  V30 1006 O 96.7485 -0.141246 2.52105 0
M  V30 1007 C 98.0615 2.78375 1.13701 0
M  V30 1008 C 99.6095 2.87213 1.2441 0
M  V30 1009 C 100.084 4.29161 1.59954 0
M  V30 1010 N 101.575 4.32061 1.66967 0
M  V30 1011 C 102.31 5.38879 1.95952 0
M  V30 1012 N 101.806 6.55918 2.23031 0
M  V30 1013 N 103.599 5.26312 1.97363 0
M  V30 1014 H 95.7505 2.10546 -0.28005 0
M  V30 1015 H 98.0135 0.945921 -0.0627454 0
M  V30 1016 H 97.7195 3.49845 0.360787 0
M  V30 1017 H 97.5935 3.14941 2.07586 0
M  V30 1018 H 99.9805 2.15969 2.01101 0
M  V30 1019 H 100.061 2.54204 0.285299 0
M  V30 1020 H 99.7055 5.00938 0.838067 0
M  V30 1021 H 99.6355 4.59648 2.56966 0
M  V30 1022 H 102.126 3.47661 1.48123 0
M  V30 1023 H 102.439 7.33139 2.44391 0
M  V30 1024 H 100.784 6.59112 2.20447 0
M  V30 1025 H 103.975 4.33876 1.75697 0
M  V30 1026 H 104.148 6.09649 2.19618 0
M  V30 1027 N 97.5546 -0.734337 1.39446 0
M  V30 1028 C 98.7826 -1.52358 1.39981 0
M  V30 1029 C 99.1976 -1.88799 -0.0054975 0
M  V30 1030 O 98.5546 -1.54146 -0.976998 0
M  V30 1031 C 98.6056 -2.81072 2.27333 0
M  V30 1032 O 98.3266 -2.46178 3.62392 0
M  V30 1033 C 99.8276 -3.75096 2.36259 0
M  V30 1034 H 97.0476 -0.470806 0.478103 0
M  V30 1035 H 99.5916 -0.907339 1.83269 0
M  V30 1036 H 97.7466 -3.39026 1.87457 0
M  V30 1037 H 98.1606 -3.28866 4.08592 0
M  V30 1038 H 99.6346 -4.62305 3.01626 0
M  V30 1039 H 100.112 -4.16892 1.38194 0
M  V30 1040 H 100.718 -3.23061 2.76608 0
M  V30 1041 N 99.0327 -1.24633 -0.964593 0
M  V30 1042 C 100.282 -1.08188 -1.7023 0
M  V30 1043 C 100.595 0.37873 -1.91898 0
M  V30 1044 O 101.801 0.663427 -2.6327 0
M  V30 1045 C 100.257 -1.88773 -3.06419 0
M  V30 1046 C 99.8647 -3.39263 -2.92582 0
M  V30 1047 C 101.609 -1.80867 -3.84041 0
M  V30 1048 C 99.5157 -4.1218 -4.24101 0
M  V30 1049 H 98.4457 -0.401245 -0.638372 0
M  V30 1050 H 101.097 -1.48742 -1.07462 0
M  V30 1051 H 99.4787 -1.41035 -3.70034 0
M  V30 1052 H 100.653 -3.94603 -2.37961 0
M  V30 1053 H 98.9677 -3.48154 -2.28424 0
M  V30 1054 H 101.565 -2.32646 -4.81435 0
M  V30 1055 H 101.908 -0.774543 -4.09031 0
M  V30 1056 H 102.441 -2.26301 -3.27159 0
M  V30 1057 H 99.1797 -5.15965 -4.04303 0
M  V30 1058 H 98.6997 -3.61626 -4.78526 0
M  V30 1059 H 100.379 -4.19349 -4.92702 0
M  V30 1060 N 100.511 1.16574 -1.06058 0
M  V30 1061 C 101.443 2.2045 -0.627239 0
M  V30 1062 C 102.456 1.59752 0.313534 0
M  V30 1063 O 103.645 1.78192 0.104896 0
M  V30 1064 C 100.745 3.3875 0.100974 0
M  V30 1065 C 99.9178 4.29008 -0.852687 0
M  V30 1066 C 98.9768 5.25944 -0.164152 0
M  V30 1067 O 98.0028 5.63535 -0.801047 0
M  V30 1068 N 99.2048 5.70075 1.09518 0
M  V30 1069 H 101.97 2.58249 -1.52077 0
M  V30 1070 H 99.5308 1.3156 -0.943594 0
M  V30 1071 H 101.523 4.00638 0.57194 0
M  V30 1072 H 100.093 2.99476 0.89628 0
M  V30 1073 H 99.3128 3.64419 -1.50308 0
M  V30 1074 H 100.601 4.86195 -1.49972 0
M  V30 1075 H 99.9988 5.41624 1.6328 0
M  V30 1076 H 98.5558 6.34067 1.51006 0
M  V30 1077 N 101.989 0.842826 1.3317 0
M  V30 1078 C 102.936 0.276885 2.29133 0
M  V30 1079 C 103.906 -0.609527 1.54512 0
M  V30 1080 O 105.091 -0.546955 1.82792 0
M  V30 1081 C 102.231 -0.538707 3.40869 0
M  V30 1082 C 101.344 0.372169 4.30394 0
M  V30 1083 C 100.479 -0.454908 5.29249 0
M  V30 1084 C 99.5179 0.45411 6.10413 0
M  V30 1085 N 98.6549 -0.335075 7.013 0
M  V30 1086 H 103.495 1.10052 2.76934 0
M  V30 1087 H 101.032 0.554161 1.36262 0
M  V30 1088 H 102.99 -1.02709 4.0436 0
M  V30 1089 H 101.62 -1.32727 2.9425 0
M  V30 1090 H 100.672 0.97888 3.6759 0
M  V30 1091 H 101.984 1.0703 4.87182 0
M  V30 1092 H 101.138 -1.00695 5.98285 0
M  V30 1093 H 99.8769 -1.18646 4.73048 0
M  V30 1094 H 98.8819 1.01813 5.40291 0
M  V30 1095 H 100.107 1.18409 6.68697 0
M  V30 1096 H 98.0529 -1.04994 6.47543 0
M  V30 1097 H 97.9699 0.304262 7.55387 0
M  V30 1098 H 99.2379 -0.869224 7.74638 0
M  V30 1099 N 103.467 -1.45747 0.599634 0
M  V30 1100 C 104.415 -2.322 -0.136426 0
M  V30 1101 C 105.409 -1.45497 -0.867583 0
M  V30 1102 O 106.615 -1.62027 -0.78405 0
M  V30 1103 H 102.99 -0.749368 -0.0628588 0
M  V30 1104 H 104.961 -2.92072 0.611281 0
M  V30 1105 C 103.71 -3.28974 -1.12567 0
M  V30 1106 H 103.033 -3.9568 -0.572484 0
M  V30 1107 H 104.473 -3.92212 -1.61077 0
M  V30 1108 C 102.932 -2.55561 -2.19523 0
M  V30 1109 O 103.462 -2.33111 -3.27143 0
M  V30 1110 N 101.668 -2.15832 -1.94589 0
M  V30 1111 H 101.215 -2.3429 -1.07078 0
M  V30 1112 H 101.173 -1.67034 -2.66359 0
M  V30 1113 N 104.945 -0.338344 -1.53925 0
M  V30 1114 C 105.875 0.51328 -2.27789 0
M  V30 1115 C 106.856 1.107 -1.29149 0
M  V30 1116 O 108.041 1.12937 -1.57984 0
M  V30 1117 C 105.171 1.66697 -3.04679 0
M  V30 1118 C 104.125 1.20183 -4.1078 0
M  V30 1119 C 103.451 2.44363 -4.75595 0
M  V30 1120 C 104.751 0.30605 -5.21403 0
M  V30 1121 H 106.445 -0.102883 -2.99223 0
M  V30 1122 H 103.991 -0.0509219 -1.4391 0
M  V30 1123 H 105.944 2.26915 -3.55088 0
M  V30 1124 H 104.668 2.30995 -2.30887 0
M  V30 1125 H 103.327 0.622499 -3.61276 0
M  V30 1126 H 102.975 3.07057 -3.98403 0
M  V30 1127 H 102.675 2.13925 -5.47275 0
M  V30 1128 H 104.199 3.05317 -5.28786 0
M  V30 1129 H 105.613 0.814929 -5.67478 0
M  V30 1130 H 104.01 0.0937929 -6.00027 0
M  V30 1131 H 105.08 -0.65921 -4.80398 0
M  V30 1132 N 106.423 1.57458 -0.0668435 0
M  V30 1133 C 107.373 2.0896 0.912119 0
M  V30 1134 C 108.357 0.998186 1.26195 0
M  V30 1135 O 109.549 1.26133 1.24175 0
M  V30 1136 C 106.678 2.6508 2.18145 0
M  V30 1137 C 105.764 3.81218 1.85832 0
M  V30 1138 N 106.155 4.90378 1.23948 0
M  V30 1139 C 104.453 3.9042 2.15612 0
M  V30 1140 C 105.154 5.71279 1.09616 0
M  V30 1141 N 104.13 5.19389 1.60423 0
M  V30 1142 H 107.932 2.90749 0.42924 0
M  V30 1143 H 105.446 1.6182 0.137184 0
M  V30 1144 H 107.443 3.0029 2.89192 0
M  V30 1145 H 106.103 1.84736 2.67025 0
M  V30 1146 H 107.114 5.09847 0.909731 0
M  V30 1147 H 103.791 3.21043 2.66903 0
M  V30 1148 H 105.181 6.69085 0.614425 0
M  V30 1149 N 107.901 -0.206675 1.56239 0
M  V30 1150 C 109.312 -0.772383 1.69974 0
M  V30 1151 C 109.663 -1.84353 0.671436 0
M  V30 1152 O 108.788 -2.15695 -0.174491 0
M  V30 1153 C 109.383 -1.40779 3.08167 0
M  V30 1154 C 107.942 -1.92072 3.23706 0
M  V30 1155 C 107.089 -0.786347 2.65917 0
M  V30 1156 H 110.04 0.0182223 1.5869 0
M  V30 1157 H 110.061 -2.27696 3.04852 0
M  V30 1158 H 109.573 -0.627958 3.82986 0
M  V30 1159 H 107.674 -2.7281 2.53782 0
M  V30 1160 H 107.787 -2.09046 4.31087 0
M  V30 1161 H 106.151 -1.1976 2.24788 0
M  V30 1162 H 106.934 -0.0189416 3.43295 0
M  V30 1163 N 109.379 -1.50304 -0.473955 0
M  V30 1164 C 110.607 -1.64902 -1.24959 0
M  V30 1165 C 111.022 -0.331198 -1.85872 0
M  V30 1166 O 110.379 0.68652 -1.69095 0
M  V30 1167 C 110.43 -2.73803 -2.36038 0
M  V30 1168 O 110.151 -4.00477 -1.77624 0
M  V30 1169 C 111.652 -2.99349 -3.26964 0
M  V30 1170 H 108.872 -0.554383 -0.378022 0
M  V30 1171 H 111.416 -1.9651 -0.566054 0
M  V30 1172 H 109.571 -2.44898 -3.00173 0
M  V30 1173 H 109.985 -4.60678 -2.5075 0
M  V30 1174 H 111.459 -3.79217 -4.01121 0
M  V30 1175 H 111.936 -2.10307 -3.85574 0
M  V30 1176 H 112.542 -3.29774 -2.68569 0
M  V30 1177 N 110.857 0.726932 -1.39834 0
M  V30 1178 C 112.087 1.51393 -1.40583 0
M  V30 1179 C 112.495 1.892 -0.000740625 0
M  V30 1180 O 111.838 1.55189 0.982951 0
M  V30 1181 C 111.9 2.82588 -2.22226 0
M  V30 1182 C 111.564 2.67169 -3.70769 0
M  V30 1183 C 112.561 2.3518 -4.63666 0
M  V30 1184 C 110.246 2.83788 -4.14451 0
M  V30 1185 C 112.24 2.20002 -5.98229 0
M  V30 1186 C 109.927 2.68229 -5.49087 0
M  V30 1187 C 110.925 2.36382 -6.4079 0
M  V30 1188 O 110.613 2.2093 -7.72946 0
M  V30 1189 H 110.345 0.474168 -0.48181 0
M  V30 1190 H 112.899 0.905247 -1.84376 0
M  V30 1191 H 111.129 3.45746 -1.73195 0
M  V30 1192 H 112.818 3.44247 -2.15055 0
M  V30 1193 H 113.584 2.21984 -4.31217 0
M  V30 1194 H 109.463 3.07566 -3.43401 0
M  V30 1195 H 113.007 1.95067 -6.69772 0
M  V30 1196 H 108.904 2.81006 -5.81125 0
M  V30 1197 H 109.672 2.35937 -7.83757 0
M  V30 1198 N 112.336 1.25143 0.95797 0
M  V30 1199 C 113.561 1.12521 1.74223 0
M  V30 1200 C 113.986 -0.317402 1.85403 0
M  V30 1201 O 113.344 -1.2299 1.33204 0
M  V30 1202 C 113.392 1.78062 3.1357 0
M  V30 1203 O 112.496 1.058 3.98598 0
M  V30 1204 H 111.837 0.39304 0.535178 0
M  V30 1205 H 114.367 1.65641 1.201 0
M  V30 1206 H 114.377 1.84213 3.64046 0
M  V30 1207 H 113.052 2.83021 3.04749 0
M  V30 1208 H 111.629 1.07506 3.57067 0
M  V30 1209 N 113.814 -1.1601 1.06675 0
M  V30 1210 C 115.054 -1.88304 0.795037 0
M  V30 1211 C 115.418 -1.80062 -0.666466 0
M  V30 1212 O 116.619 -2.47319 -1.05293 0
M  V30 1213 C 114.89 -3.33664 1.28076 0
M  V30 1214 S 116.449 -4.23768 1.13868 0
M  V30 1215 H 113.267 -0.649928 0.288296 0
M  V30 1216 H 115.869 -1.4001 1.36445 0
M  V30 1217 H 114.573 -3.37203 2.33927 0
M  V30 1218 H 114.104 -3.87009 0.706253 0
M  V30 1219 H 116.119 -4.96148 0.0719668 0
M  V30 1220 N 115.292 -0.849877 -1.32721 0
M  V30 1221 C 116.239 -0.289033 -2.28983 0
M  V30 1222 C 117.209 0.601324 -1.54833 0
M  V30 1223 O 118.394 0.537253 -1.8308 0
M  V30 1224 C 115.534 0.520623 -3.4115 0
M  V30 1225 C 114.647 -0.394989 -4.3019 0
M  V30 1226 C 113.782 0.426834 -5.29482 0
M  V30 1227 C 112.821 -0.486476 -6.10164 0
M  V30 1228 N 111.958 0.297879 -7.01468 0
M  V30 1229 H 116.798 -1.11519 -2.76347 0
M  V30 1230 H 114.335 -0.56138 -1.35967 0
M  V30 1231 H 116.293 1.00563 -4.04899 0
M  V30 1232 H 114.923 1.31165 -2.9495 0
M  V30 1233 H 113.975 -0.99836 -3.67065 0
M  V30 1234 H 115.287 -1.09612 -4.86607 0
M  V30 1235 H 114.441 0.975205 -5.98811 0
M  V30 1236 H 113.18 1.16136 -4.73671 0
M  V30 1237 H 112.185 -1.04677 -5.39743 0
M  V30 1238 H 113.41 -1.21953 -6.6806 0
M  V30 1239 H 111.356 1.01558 -6.48091 0
M  V30 1240 H 111.273 -0.344318 -7.55216 0
M  V30 1241 H 112.541 0.828131 -7.75089 0
M  V30 1242 N 116.77 1.45427 -0.607355 0
M  V30 1243 C 118 2.06314 -0.108656 0
M  V30 1244 C 118.408 1.45269 1.21217 0
M  V30 1245 O 117.751 0.561115 1.74921 0
M  V30 1246 C 117.813 3.59345 0.105618 0
M  V30 1247 C 117.477 4.42723 -1.13337 0
M  V30 1248 C 118.474 4.77715 -2.05145 0
M  V30 1249 C 116.159 4.83478 -1.36213 0
M  V30 1250 C 118.153 5.52317 -3.18158 0
M  V30 1251 C 115.84 5.57835 -2.49527 0
M  V30 1252 C 116.838 5.92171 -3.40327 0
M  V30 1253 O 116.526 6.65019 -4.51669 0
M  V30 1254 H 116.258 0.672782 -0.0658842 0
M  V30 1255 H 118.812 1.87664 -0.834945 0
M  V30 1256 H 117.042 3.76394 0.886796 0
M  V30 1257 H 118.731 4.02076 0.555886 0
M  V30 1258 H 119.497 4.46787 -1.88697 0
M  V30 1259 H 115.376 4.56188 -0.664362 0
M  V30 1260 H 118.92 5.79036 -3.89054 0
M  V30 1261 H 114.817 5.88177 -2.65928 0
M  V30 1262 H 115.585 6.83469 -4.50348 0
M  V30 1263 N 118.248 0.346503 1.53744 0
M  V30 1264 C 119.525 -0.304532 1.93215 0
M  V30 1265 C 119.905 -1.67993 1.27834 0
M  V30 1266 O 119.253 -2.24411 0.430352 0
M  V30 1267 C 119.463 -0.373852 3.46992 0
M  V30 1268 C 120.811 -0.62329 4.2 0
M  V30 1269 O 121.835 -0.455847 3.53271 0
M  V30 1270 O 120.694 -0.947879 5.38217 0
M  V30 1271 H 117.788 -0.178318 0.807547 0
M  V30 1272 H 120.334 0.397895 1.64969 0
M  V30 1273 H 119.106 0.591224 3.86808 0
M  V30 1274 H 118.729 -1.12294 3.81413 0
M  V30 1275 N 119.726 -1.57421 0.075193 0
M  V30 1276 C 120.951 -1.98364 -0.605515 0
M  V30 1277 C 121.376 -0.953383 -1.62149 0
M  V30 1278 O 120.734 0.0806053 -1.81121 0
M  V30 1279 C 120.782 -3.38332 -1.24756 0
M  V30 1280 O 119.886 -3.37959 -2.36342 0
M  V30 1281 H 119.227 -0.645553 -0.155428 0
M  V30 1282 H 121.757 -2.04044 0.150714 0
M  V30 1283 H 121.767 -3.75591 -1.5936 0
M  V30 1284 H 120.442 -4.12846 -0.503129 0
M  V30 1285 H 119.019 -3.12474 -2.03506 0
M  V30 1286 N 121.204 0.198386 -1.56346 0
M  V30 1287 C 122.444 0.92609 -1.82217 0
M  V30 1288 C 122.808 1.80584 -0.652195 0
M  V30 1289 O 124.009 2.56907 -0.790716 0
M  V30 1290 C 122.28 1.72354 -3.13096 0
M  V30 1291 S 123.839 2.50371 -3.6036 0
M  V30 1292 H 120.657 0.310677 -0.639532 0
M  V30 1293 H 123.259 0.189755 -1.94577 0
M  V30 1294 H 121.963 1.0678 -3.96265 0
M  V30 1295 H 121.494 2.50175 -3.03605 0
M  V30 1296 H 123.509 3.74488 -3.25535 0
M  V30 1297 N 122.682 1.50554 0.465978 0
M  V30 1298 C 123.922 1.63439 1.22747 0
M  V30 1299 C 124.286 0.329822 1.89146 0
M  V30 1300 O 125.487 0.334161 2.66715 0
M  V30 1301 C 123.758 2.78542 2.2394 0
M  V30 1302 S 125.317 3.11591 3.0896 0
M  V30 1303 H 122.135 0.576113 0.416672 0
M  V30 1304 H 124.737 1.88357 0.523641 0
M  V30 1305 H 123.441 3.71805 1.7375 0
M  V30 1306 H 122.972 2.55726 2.98944 0
M  V30 1307 H 124.987 2.55811 4.25176 0
M  V30 1308 N 124.16 -0.719506 1.40217 0
M  V30 1309 C 125.406 -1.48152 1.38488 0
M  V30 1310 C 125.739 -1.94195 -0.0141867 0
M  V30 1311 O 125.014 -1.67884 -0.982096 0
M  V30 1312 C 125.297 -2.71035 2.37091 0
M  V30 1313 C 125.15 -2.30912 3.86005 0
M  V30 1314 C 126.469 -3.73182 2.33288 0
M  V30 1315 H 123.588 -0.537395 0.504357 0
M  V30 1316 H 126.23 -0.821472 1.71324 0
M  V30 1317 H 124.38 -3.27352 2.0922 0
M  V30 1318 H 126.052 -1.80107 4.24687 0
M  V30 1319 H 124.295 -1.62958 4.02029 0
M  V30 1320 H 124.966 -3.18978 4.50508 0
M  V30 1321 H 127.442 -3.26485 2.57966 0
M  V30 1322 H 126.318 -4.56806 3.04334 0
M  V30 1323 H 126.579 -4.21202 1.34317 0
M  V30 1324 N 125.638 -1.25649 -0.95132 0
M  V30 1325 C 126.887 -1.09988 -1.69073 0
M  V30 1326 C 127.2 0.358355 -1.92289 0
M  V30 1327 O 128.406 0.635466 -2.63958 0
M  V30 1328 C 126.862 -1.92012 -3.044 0
M  V30 1329 C 126.47 -3.42347 -2.88968 0
M  V30 1330 C 128.214 -1.8493 -3.82101 0
M  V30 1331 C 126.121 -4.16655 -4.19705 0
M  V30 1332 H 125.051 -0.407993 -0.63408 0
M  V30 1333 H 127.702 -1.49873 -1.05879 0
M  V30 1334 H 126.084 -1.44952 -3.68517 0
M  V30 1335 H 127.258 -3.97104 -2.33762 0
M  V30 1336 H 125.573 -3.50557 -2.24719 0
M  V30 1337 H 128.17 -2.37739 -4.78941 0
M  V30 1338 H 128.513 -0.817883 -4.08187 0
M  V30 1339 H 129.046 -2.29758 -3.2474 0
M  V30 1340 H 125.785 -5.20224 -3.98807 0
M  V30 1341 H 125.305 -3.66681 -4.74663 0
M  V30 1342 H 126.984 -4.24551 -4.88227 0
M  V30 1343 N 127.117 1.15442 -1.07289 0
M  V30 1344 C 128.394 1.82306 -0.708792 0
M  V30 1345 C 128.774 1.94991 0.808807 0
M  V30 1346 O 128.122 1.50085 1.72298 0
M  V30 1347 C 128.332 3.18695 -1.42247 0
M  V30 1348 C 129.68 3.94341 -1.57417 0
M  V30 1349 O 130.704 3.28247 -1.38319 0
M  V30 1350 O 129.563 5.12839 -1.88834 0
M  V30 1351 H 126.657 0.787628 -0.252132 0
M  V30 1352 H 129.203 1.22559 -1.17377 0
M  V30 1353 H 127.975 3.04557 -2.45684 0
M  V30 1354 H 127.598 3.86128 -0.948223 0
M  V30 1355 N 128.595 0.856903 1.32268 0
M  V30 1356 C 129.542 0.301172 2.28827 0
M  V30 1357 C 130.512 -0.593104 1.5515 0
M  V30 1358 O 131.697 -0.527537 1.83362 0
M  V30 1359 C 128.837 -0.502523 3.41422 0
M  V30 1360 C 127.95 0.417797 4.29975 0
M  V30 1361 C 127.085 -0.398749 5.29701 0
M  V30 1362 C 126.124 0.518827 6.09897 0
M  V30 1363 N 125.261 -0.260674 7.01616 0
M  V30 1364 H 130.101 1.12983 2.75751 0
M  V30 1365 H 127.638 0.568582 1.35667 0
M  V30 1366 H 129.596 -0.984141 4.05426 0
M  V30 1367 H 128.226 -1.29599 2.95642 0
M  V30 1368 H 127.278 1.01781 3.66531 0
M  V30 1369 H 128.59 1.12191 4.86019 0
M  V30 1370 H 127.744 -0.943435 5.9932 0
M  V30 1371 H 126.483 -1.13622 4.7428 0
M  V30 1372 H 125.488 1.07538 5.39181 0
M  V30 1373 H 126.713 1.25495 6.67404 0
M  V30 1374 H 124.659 -0.981198 6.4862 0
M  V30 1375 H 124.576 0.384364 7.55022 0
M  V30 1376 H 125.844 -0.787014 7.75517 0
M  V30 1377 N 130.073 -1.45103 0.615059 0
M  V30 1378 C 131.322 -2.01396 0.110718 0
M  V30 1379 C 131.635 -1.48834 -1.26916 0
M  V30 1380 O 132.841 -1.97152 -1.86664 0
M  V30 1381 C 131.297 -3.59599 0.14723 0
M  V30 1382 C 130.905 -4.21158 1.52743 0
M  V30 1383 C 132.649 -4.23428 -0.30148 0
M  V30 1384 C 130.556 -5.71535 1.51992 0
M  V30 1385 H 129.486 -0.753061 0.0376241 0
M  V30 1386 H 132.137 -1.66494 0.77149 0
M  V30 1387 H 130.519 -3.91724 -0.580339 0
M  V30 1388 H 131.693 -4.00594 2.2773 0
M  V30 1389 H 130.008 -3.69552 1.91886 0
M  V30 1390 H 132.605 -5.33703 -0.326392 0
M  V30 1391 H 132.948 -3.94629 -1.32565 0
M  V30 1392 H 133.481 -3.96047 0.373065 0
M  V30 1393 H 130.22 -6.05044 2.52193 0
M  V30 1394 H 129.74 -5.94268 0.81274 0
M  V30 1395 H 131.419 -6.34873 1.24681 0
M  V30 1396 N 131.551 -0.354651 -1.53558 0
M  V30 1397 C 132.779 0.239515 -2.05509 0
M  V30 1398 C 133.194 1.4333 -1.2289 0
M  V30 1399 O 132.551 1.80538 -0.266899 0
M  V30 1400 C 132.602 0.643719 -3.55723 0
M  V30 1401 O 132.323 -0.502602 -4.35207 0
M  V30 1402 C 133.824 1.29743 -4.23889 0
M  V30 1403 H 131.044 0.0442697 -0.669538 0
M  V30 1404 H 133.588 -0.509856 -1.98042 0
M  V30 1405 H 131.743 1.34302 -3.63376 0
M  V30 1406 H 132.157 -0.178172 -5.24197 0
M  V30 1407 H 133.631 1.53091 -5.30346 0
M  V30 1408 H 134.108 2.25441 -3.76926 0
M  V30 1409 H 134.714 0.639865 -4.20459 0
M  V30 1410 N 133.029 1.57378 -0.0835403 0
M  V30 1411 C 134.445 1.57246 0.273109 0
M  V30 1412 C 134.645 1.09385 1.69225 0
M  V30 1413 O 133.701 0.765051 2.40631 0
M  V30 1414 C 135.014 3.00614 0.0720628 0
M  V30 1415 C 136.562 3.12684 0.1407 0
M  V30 1416 C 137.037 4.57989 -0.0322094 0
M  V30 1417 N 138.528 4.63194 0.0230085 0
M  V30 1418 C 139.263 5.73335 -0.0861941 0
M  V30 1419 N 138.759 6.9235 -0.24958 0
M  V30 1420 N 140.552 5.62093 -0.0282886 0
M  V30 1421 H 132.703 1.86801 -1.0109 0
M  V30 1422 H 134.966 0.861687 -0.395222 0
M  V30 1423 H 134.672 3.39786 -0.907662 0
M  V30 1424 H 134.546 3.68193 0.81936 0
M  V30 1425 H 136.933 2.73391 1.11092 0
M  V30 1426 H 137.014 2.47719 -0.637896 0
M  V30 1427 H 136.658 4.97973 -0.999247 0
M  V30 1428 H 136.588 5.21 0.765937 0
M  V30 1429 H 139.079 3.77613 0.14722 0
M  V30 1430 H 139.392 7.72117 -0.324733 0
M  V30 1431 H 137.737 6.94415 -0.285097 0
M  V30 1432 H 140.928 4.67997 0.0981408 0
M  V30 1433 H 141.101 6.47895 -0.116845 0
M  V30 1434 N 134.507 -0.190092 1.56449 0
M  V30 1435 C 135.455 -1.25501 1.95837 0
M  V30 1436 C 136.449 -1.4685 0.844485 0
M  V30 1437 O 137.655 -1.47651 1.02952 0
M  V30 1438 H 134.03 -0.421447 0.622805 0
M  V30 1439 H 136.001 -0.895821 2.84636 0
M  V30 1440 C 134.75 -2.59124 2.31841 0
M  V30 1441 H 134.073 -2.43514 3.17082 0
M  V30 1442 H 135.513 -3.32371 2.6326 0
M  V30 1443 C 133.972 -3.16488 1.15486 0
M  V30 1444 O 134.502 -3.99365 0.432535 0
M  V30 1445 N 132.708 -2.75305 0.930349 0
M  V30 1446 H 132.255 -2.08013 1.51948 0
M  V30 1447 H 132.213 -3.14024 0.153634 0
M  V30 1448 N 135.985 -1.50799 -0.457987 0
M  V30 1449 C 136.917 -1.66786 -1.57211 0
M  V30 1450 C 137.93 -0.548962 -1.53265 0
M  V30 1451 O 139.119 -0.8226 -1.58416 0
M  V30 1452 C 136.219 -1.64834 -2.96113 0
M  V30 1453 C 135.392 -2.92971 -3.24787 0
M  V30 1454 C 134.451 -2.83485 -4.43309 0
M  V30 1455 O 133.477 -3.5744 -4.42973 0
M  V30 1456 N 134.679 -1.97929 -5.45714 0
M  V30 1457 H 137.444 -2.62889 -1.43909 0
M  V30 1458 H 135.005 -1.48427 -0.646617 0
M  V30 1459 H 136.997 -1.56084 -3.7339 0
M  V30 1460 H 135.567 -0.764118 -3.03117 0
M  V30 1461 H 134.787 -3.15749 -2.36 0
M  V30 1462 H 136.075 -3.77834 -3.40762 0
M  V30 1463 H 135.473 -1.37182 -5.48815 0
M  V30 1464 H 134.03 -1.95073 -6.21924 0
M  V30 1465 N 137.463 0.71206 -1.40597 0
M  V30 1466 C 138.703 1.48438 -1.40519 0
M  V30 1467 C 139.067 1.91998 -0.00767611 0
M  V30 1468 O 140.268 2.6854 0.118239 0
M  V30 1469 C 138.539 2.67514 -2.37004 0
M  V30 1470 S 140.098 3.56875 -2.55315 0
M  V30 1471 H 136.916 0.507457 -0.498005 0
M  V30 1472 H 139.518 0.832355 -1.76896 0
M  V30 1473 H 138.222 2.33689 -3.37368 0
M  V30 1474 H 137.753 3.37625 -2.01923 0
M  V30 1475 H 139.768 4.62081 -1.8082 0
M  V30 1476 N 138.941 1.26152 0.944643 0
M  V30 1477 C 139.873 1.03199 2.04652 0
M  V30 1478 C 140.886 -0.00642356 1.62799 0
M  V30 1479 O 142.075 0.233263 1.76969 0
M  V30 1480 C 139.175 0.540111 3.34568 0
M  V30 1481 C 138.348 1.64697 4.05208 0
M  V30 1482 C 137.407 1.15374 5.13396 0
M  V30 1483 O 136.433 1.85013 5.38293 0
M  V30 1484 N 137.635 0.00031529 5.805 0
M  V30 1485 H 140.4 1.9808 2.2491 0
M  V30 1486 H 137.961 1.17491 1.11389 0
M  V30 1487 H 139.953 0.194401 4.04233 0
M  V30 1488 H 138.523 -0.315021 3.11009 0
M  V30 1489 H 137.743 2.16379 3.29506 0
M  V30 1490 H 139.031 2.3903 4.49157 0
M  V30 1491 H 138.429 -0.581336 5.62705 0
M  V30 1492 H 136.986 -0.286346 6.51171 0
M  V30 1493 N 140.419 -1.14872 1.07899 0
M  V30 1494 C 141.349 -2.2193 0.725887 0
M  V30 1495 C 142.33 -1.67622 -0.28927 0
M  V30 1496 O 143.515 -1.93533 -0.160787 0
M  V30 1497 C 140.645 -3.47061 0.128856 0
M  V30 1498 C 139.599 -4.14363 1.07178 0
M  V30 1499 C 138.925 -5.33636 0.337229 0
M  V30 1500 C 140.225 -4.63492 2.40775 0
M  V30 1501 H 141.919 -2.51724 1.62097 0
M  V30 1502 H 139.465 -1.20991 0.780838 0
M  V30 1503 H 141.418 -4.21199 -0.130147 0
M  V30 1504 H 140.142 -3.16617 -0.80134 0
M  V30 1505 H 138.801 -3.42173 1.3158 0
M  V30 1506 H 138.449 -4.99449 -0.596606 0
M  V30 1507 H 138.149 -5.79609 0.965788 0
M  V30 1508 H 139.673 -6.10539 0.0861567 0
M  V30 1509 H 141.087 -5.2913 2.20669 0
M  V30 1510 H 139.484 -5.20148 2.99276 0
M  V30 1511 H 140.554 -3.78834 3.02676 0
M  V30 1512 N 141.898 -0.863906 -1.31812 0
M  V30 1513 C 143.138 -0.47825 -1.98726 0
M  V30 1514 C 143.502 0.950397 -1.66828 0
M  V30 1515 O 144.703 1.44109 -2.26905 0
M  V30 1516 C 142.974 -0.721134 -3.50049 0
M  V30 1517 S 144.533 -0.434432 -4.36644 0
M  V30 1518 H 141.351 -0.178773 -0.688158 0
M  V30 1519 H 143.953 -1.11862 -1.60334 0
M  V30 1520 H 142.657 -1.75981 -3.70755 0
M  V30 1521 H 142.188 -0.0675315 -3.93342 0
M  V30 1522 H 144.203 0.735786 -4.90714 0
M  V30 1523 N 143.376 1.44774 -0.622745 0
M  V30 1524 C 144.792 1.56986 -0.287652 0
M  V30 1525 C 144.992 1.61167 1.20944 0
M  V30 1526 O 144.048 1.55015 1.99315 0
M  V30 1527 C 145.361 2.84551 -0.972188 0
M  V30 1528 C 146.909 2.9825 -0.949536 0
M  V30 1529 C 147.384 4.28605 -1.61437 0
M  V30 1530 N 148.875 4.35399 -1.58057 0
M  V30 1531 C 149.61 5.34964 -2.064 0
M  V30 1532 N 149.106 6.40981 -2.62897 0
M  V30 1533 N 150.899 5.26419 -1.97078 0
M  V30 1534 H 143.05 1.40304 -1.59463 0
M  V30 1535 H 145.313 0.671794 -0.668878 0
M  V30 1536 H 145.019 2.87417 -2.02693 0
M  V30 1537 H 144.893 3.73807 -0.504771 0
M  V30 1538 H 147.28 2.94941 0.0967067 0
M  V30 1539 H 147.361 2.10364 -1.45536 0
M  V30 1540 H 147.005 4.32672 -2.66002 0
M  V30 1541 H 146.935 5.15334 -1.08344 0
M  V30 1542 H 149.426 3.59397 -1.16801 0
M  V30 1543 H 149.739 7.13225 -2.97539 0
M  V30 1544 H 148.084 6.4169 -2.66943 0
M  V30 1545 H 151.275 4.42504 -1.52669 0
M  V30 1546 H 151.448 6.03861 -2.35066 0
M  V30 1547 N 144.854 0.36279 1.53368 0
M  V30 1548 C 146.101 -0.227776 2.01215 0
M  V30 1549 C 146.429 -1.49003 1.25014 0
M  V30 1550 O 145.684 -1.92876 0.331236 0
M  V30 1551 C 145.983 -0.568417 3.52851 0
M  V30 1552 C 145.649 0.59918 4.46901 0
M  V30 1553 C 144.311 0.919559 4.72332 0
M  V30 1554 C 146.663 1.38156 5.02556 0
M  V30 1555 C 143.991 2.02434 5.5067 0
M  V30 1556 C 146.343 2.47674 5.821 0
M  V30 1557 C 145.007 2.8025 6.05819 0
M  V30 1558 H 144.277 -0.083349 0.736297 0
M  V30 1559 H 146.924 0.494677 1.85001 0
M  V30 1560 H 145.229 -1.37185 3.66998 0
M  V30 1561 H 146.926 -1.03756 3.87344 0
M  V30 1562 H 143.516 0.339437 4.27254 0
M  V30 1563 H 147.7 1.14729 4.82857 0
M  V30 1564 H 142.956 2.28075 5.67267 0
M  V30 1565 H 147.13 3.08716 6.24234 0
M  V30 1566 H 144.757 3.65979 6.66306 0
M  V30 1567 N 146.332 -1.57332 0.0918853 0
M  V30 1568 C 147.279 -2.13847 -0.868211 0
M  V30 1569 C 148.249 -1.05618 -1.28196 0
M  V30 1570 O 149.434 -1.33387 -1.36427 0
M  V30 1571 C 146.574 -2.72062 -2.12312 0
M  V30 1572 C 145.687 -3.94514 -1.7602 0
M  V30 1573 C 144.822 -4.40903 -2.96273 0
M  V30 1574 C 143.861 -5.55953 -2.56092 0
M  V30 1575 N 142.998 -5.97209 -3.69169 0
M  V30 1576 H 147.838 -2.95575 -0.379406 0
M  V30 1577 H 145.375 -1.46048 -0.175606 0
M  V30 1578 H 147.333 -3.03931 -2.858 0
M  V30 1579 H 145.963 -1.93068 -2.58698 0
M  V30 1580 H 145.015 -3.68979 -0.925135 0
M  V30 1581 H 146.327 -4.7802 -1.42472 0
M  V30 1582 H 145.481 -4.74539 -3.78018 0
M  V30 1583 H 144.22 -3.56291 -3.33029 0
M  V30 1584 H 143.225 -5.21948 -1.72773 0
M  V30 1585 H 144.45 -6.42311 -2.20484 0
M  V30 1586 H 142.396 -5.15543 -4.05649 0
M  V30 1587 H 142.313 -6.75504 -3.39456 0
M  V30 1588 H 143.581 -6.35475 -4.51434 0
M  V30 1589 N 147.81 0.181792 -1.56548 0
M  V30 1590 C 148.757 1.22521 -1.95595 0
M  V30 1591 C 149.727 1.4454 -0.818373 0
M  V30 1592 O 150.912 1.57454 -1.07763 0
M  V30 1593 C 148.052 2.56193 -2.31212 0
M  V30 1594 C 147.165 2.41641 -3.58097 0
M  V30 1595 C 146.3 3.68108 -3.82975 0
M  V30 1596 C 145.339 3.48445 -5.03242 0
M  V30 1597 N 144.476 4.66956 -5.24306 0
M  V30 1598 H 149.316 0.885226 -2.84548 0
M  V30 1599 H 146.853 0.425718 -1.40805 0
M  V30 1600 H 148.811 3.34088 -2.49882 0
M  V30 1601 H 147.441 2.88208 -1.45382 0
M  V30 1602 H 146.493 1.54976 -3.474 0
M  V30 1603 H 147.805 2.23052 -4.46149 0
M  V30 1604 H 146.959 4.54441 -4.01956 0
M  V30 1605 H 145.698 3.89666 -2.93278 0
M  V30 1606 H 144.703 2.60499 -4.8417 0
M  V30 1607 H 145.928 3.2832 -5.9446 0
M  V30 1608 H 143.874 4.88752 -4.37559 0
M  V30 1609 H 143.791 4.51242 -6.06561 0
M  V30 1610 H 145.059 5.54602 -5.47756 0
M  V30 1611 N 149.288 1.51039 0.449983 0
M  V30 1612 C 150.528 1.64732 1.21007 0
M  V30 1613 C 150.892 0.349865 1.88785 0
M  V30 1614 O 152.093 0.362431 2.66345 0
M  V30 1615 C 150.364 2.80902 2.20973 0
M  V30 1616 S 151.923 3.14851 3.05638 0
M  V30 1617 H 148.741 0.5805 0.410538 0
M  V30 1618 H 151.343 1.88901 0.503634 0
M  V30 1619 H 150.047 3.73627 1.69796 0
M  V30 1620 H 149.578 2.58882 2.96215 0
M  V30 1621 H 151.593 2.60306 4.22439 0
M  V30 1622 N 150.766 -0.704594 1.40972 0
M  V30 1623 C 152.015 -1.46018 1.39146 0
M  V30 1624 C 152.328 -1.956 0.000589254 0
M  V30 1625 O 153.534 -2.71137 -0.1403 0
M  V30 1626 C 151.99 -2.63996 2.4461 0
M  V30 1627 C 151.598 -2.21238 3.89561 0
M  V30 1628 C 153.342 -3.41677 2.51907 0
M  V30 1629 C 151.249 -3.3612 4.86598 0
M  V30 1630 H 150.179 -0.548444 0.517422 0
M  V30 1631 H 152.83 -0.765784 1.66757 0
M  V30 1632 H 151.212 -3.3566 2.10115 0
M  V30 1633 H 152.386 -1.56923 4.33257 0
M  V30 1634 H 150.701 -1.56574 3.85841 0
M  V30 1635 H 153.298 -4.27182 3.2159 0
M  V30 1636 H 153.641 -3.86247 1.55303 0
M  V30 1637 H 154.174 -2.77064 2.85448 0
M  V30 1638 H 150.913 -2.96572 5.84573 0
M  V30 1639 H 150.433 -3.99315 4.47557 0
M  V30 1640 H 152.112 -4.02029 5.06934 0
M  V30 1641 N 152.244 -1.26651 -0.937939 0
M  V30 1642 C 153.207 -1.08546 -2.01867 0
M  V30 1643 C 154.207 -0.0327327 -1.60767 0
M  V30 1644 O 155.397 -0.276427 -1.71993 0
M  V30 1645 C 152.529 -0.651711 -3.34613 0
M  V30 1646 H 153.722 -2.04502 -2.1936 0
M  V30 1647 H 151.275 -1.09294 -1.11734 0
M  V30 1648 H 152.01 0.309696 -3.22818 0
M  V30 1649 H 151.795 -1.41189 -3.65798 0
M  V30 1650 H 153.285 -0.546973 -4.14002 0
M  V30 1651 N 153.722 1.14298 -1.08507 0
M  V30 1652 C 154.968 1.85633 -0.816581 0
M  V30 1653 C 155.301 1.82784 0.656021 0
M  V30 1654 O 154.576 1.25926 1.48233 0
M  V30 1655 C 154.859 3.34223 -1.34041 0
M  V30 1656 C 154.712 3.45639 -2.87843 0
M  V30 1657 C 156.031 4.29356 -0.9665 0
M  V30 1658 H 153.15 0.67402 -0.298104 0
M  V30 1659 H 155.792 1.34214 -1.34487 0
M  V30 1660 H 153.942 3.78144 -0.89104 0
M  V30 1661 H 155.614 3.10498 -3.41158 0
M  V30 1662 H 153.857 2.86817 -3.25451 0
M  V30 1663 H 154.528 4.50089 -3.19569 0
M  V30 1664 H 157.004 3.93457 -1.35391 0
M  V30 1665 H 155.88 5.3178 -1.3602 0
M  V30 1666 H 156.141 4.41919 0.126362 0
M  V30 1667 N 155.201 0.870884 1.31352 0
M  V30 1668 C 156.449 0.48132 1.96285 0
M  V30 1669 C 156.77 -0.969813 1.69173 0
M  V30 1670 O 156.04 -1.67998 1.00764 0
M  V30 1671 H 154.62 0.175002 0.726212 0
M  V30 1672 H 157.282 1.11087 1.60143 0
M  V30 1673 H 156.378 0.639825 3.05471 0
M  V30 1674 N 156.679 -1.44442 0.630414 0
M  V30 1675 C 157.612 -2.27862 -0.124247 0
M  V30 1676 C 158.59 -1.38495 -0.851931 0
M  V30 1677 O 159.774 -1.67935 -0.856166 0
M  V30 1678 C 156.901 -3.17407 -1.18197 0
M  V30 1679 C 155.947 -4.22875 -0.554892 0
M  V30 1680 S 156.78 -5.31485 0.654489 0
M  V30 1681 C 157.936 -6.246 -0.40326 0
M  V30 1682 H 158.169 -2.91519 0.583435 0
M  V30 1683 H 155.702 -1.48618 0.418565 0
M  V30 1684 H 157.66 -3.69549 -1.78728 0
M  V30 1685 H 156.321 -2.52971 -1.86184 0
M  V30 1686 H 155.514 -4.85542 -1.35148 0
M  V30 1687 H 155.116 -3.73992 -0.0242105 0
M  V30 1688 H 157.408 -6.65375 -1.27602 0
M  V30 1689 H 158.351 -7.07851 0.187813 0
M  V30 1690 H 158.759 -5.59775 -0.728837 0
M  V30 1691 N 158.157 -0.370918 -1.53173 0
M  V30 1692 C 159.12 0.460778 -2.24521 0
M  V30 1693 C 160.12 1.00536 -1.25496 0
M  V30 1694 O 161.31 0.890266 -1.49733 0
M  V30 1695 C 158.442 1.64457 -2.98608 0
M  V30 1696 H 159.635 -0.163613 -2.99453 0
M  V30 1697 H 157.188 -0.122699 -1.55818 0
M  V30 1698 H 157.923 2.30691 -2.2793 0
M  V30 1699 H 157.708 1.26099 -3.7127 0
M  V30 1700 H 159.198 2.23384 -3.5283 0
M  V30 1701 N 159.635 1.57281 -0.100228 0
M  V30 1702 C 160.568 2.09976 0.893612 0
M  V30 1703 C 161.546 1.01155 1.27304 0
M  V30 1704 O 162.73 1.28687 1.37739 0
M  V30 1705 C 159.857 2.58098 2.19324 0
M  V30 1706 C 158.903 3.78626 1.96328 0
M  V30 1707 S 159.736 5.21959 1.19662 0
M  V30 1708 C 160.892 5.73435 2.50844 0
M  V30 1709 H 161.125 2.93946 0.44534 0
M  V30 1710 H 158.658 1.53985 0.113167 0
M  V30 1711 H 160.616 2.8648 2.94005 0
M  V30 1712 H 159.277 1.74344 2.61272 0
M  V30 1713 H 158.47 4.10382 2.92579 0
M  V30 1714 H 158.072 3.50763 1.29775 0
M  V30 1715 H 160.364 5.82015 3.46792 0
M  V30 1716 H 161.307 6.7185 2.23659 0
M  V30 1717 H 161.715 5.01395 2.59352 0
M  V30 1718 N 161.113 -0.173488 1.56642 0
M  V30 1719 C 162.39 -0.917617 1.7274 0
M  V30 1720 C 162.77 -2.00484 0.661027 0
M  V30 1721 O 162.118 -2.26184 -0.32453 0
M  V30 1722 C 162.328 -1.48433 3.15862 0
M  V30 1723 C 163.676 -1.95809 3.76754 0
M  V30 1724 O 164.7 -1.58231 3.19126 0
M  V30 1725 O 163.559 -2.65024 4.77938 0
M  V30 1726 H 160.653 -0.431772 0.705338 0
M  V30 1727 H 163.199 -0.161487 1.6893 0
M  V30 1728 H 161.971 -0.701715 3.84957 0
M  V30 1729 H 161.594 -2.30471 3.23989 0
M  V30 1730 N 162.591 -1.51276 -0.441967 0
M  V30 1731 C 163.521 -1.752 -1.54361 0
M  V30 1732 C 164.502 -0.601682 -1.59103 0
M  V30 1733 O 165.687 -0.843913 -1.74905 0
M  V30 1734 C 162.817 -1.87282 -2.92477 0
M  V30 1735 C 161.771 -3.02687 -3.02596 0
M  V30 1736 C 161.097 -2.99947 -4.42647 0
M  V30 1737 C 162.397 -4.4273 -2.77106 0
M  V30 1738 H 164.091 -2.67442 -1.34592 0
M  V30 1739 H 161.637 -1.28694 -0.646048 0
M  V30 1740 H 163.59 -2.02602 -3.695 0
M  V30 1741 H 162.314 -0.916844 -3.13467 0
M  V30 1742 H 160.973 -2.87065 -2.28012 0
M  V30 1743 H 160.621 -2.02136 -4.60597 0
M  V30 1744 H 160.321 -3.77439 -4.50348 0
M  V30 1745 H 161.845 -3.17354 -5.2165 0
M  V30 1746 H 163.259 -4.58727 -3.43864 0
M  V30 1747 H 161.656 -5.21893 -2.96222 0
M  V30 1748 H 162.726 -4.53087 -1.72744 0
M  V30 1749 N 164.069 0.697108 -1.41344 0
M  V30 1750 C 165.315 1.4593 -1.40827 0
M  V30 1751 C 165.648 1.94193 -0.0167098 0
M  V30 1752 O 164.923 1.69425 0.955263 0
M  V30 1753 C 165.206 2.67229 -2.41373 0
M  V30 1754 C 165.059 2.24741 -3.8963 0
M  V30 1755 C 166.378 3.69423 -2.39196 0
M  V30 1756 H 163.497 0.529303 -0.512842 0
M  V30 1757 H 166.139 0.794112 -1.72609 0
M  V30 1758 H 164.289 3.23982 -2.14401 0
M  V30 1759 H 165.961 1.73327 -4.27499 0
M  V30 1760 H 164.204 1.56542 -4.0457 0
M  V30 1761 H 164.875 3.1177 -4.55525 0
M  V30 1762 H 167.351 3.2234 -2.63128 0
M  V30 1763 H 166.227 4.51907 -3.11563 0
M  V30 1764 H 166.488 4.19012 -1.41001 0
M  V30 1765 N 165.547 1.27147 0.931209 0
M  V30 1766 C 166.477 1.12081 2.04842 0
M  V30 1767 C 167.458 0.0232364 1.70084 0
M  V30 1768 O 168.643 0.197085 1.93197 0
M  V30 1769 C 165.773 0.76354 3.38803 0
M  V30 1770 C 164.727 1.81396 3.87659 0
M  V30 1771 C 164.053 1.31075 5.18385 0
M  V30 1772 C 165.353 3.21739 4.11438 0
M  V30 1773 H 167.047 2.05537 2.17703 0
M  V30 1774 H 164.593 0.989603 1.04608 0
M  V30 1775 H 166.546 0.644982 4.16435 0
M  V30 1776 H 165.27 -0.206727 3.25945 0
M  V30 1777 H 163.929 1.92136 3.12217 0
M  V30 1778 H 163.577 0.330037 5.01916 0
M  V30 1779 H 163.277 2.013 5.52044 0
M  V30 1780 H 164.801 1.20506 5.98591 0
M  V30 1781 H 166.215 3.14019 4.79651 0
M  V30 1782 H 164.612 3.89644 4.56397 0
M  V30 1783 H 165.682 3.67054 3.16859 0
M  V30 1784 N 167.025 -1.13721 1.09112 0
M  V30 1785 C 168.302 -1.81155 0.737706 0
M  V30 1786 C 168.682 -1.96253 -0.777683 0
M  V30 1787 O 168.03 -1.52807 -1.69889 0
M  V30 1788 C 168.24 -3.16392 1.47299 0
M  V30 1789 C 169.588 -3.91787 1.63671 0
M  V30 1790 O 170.612 -3.26005 1.43524 0
M  V30 1791 O 169.471 -5.0977 1.96969 0
M  V30 1792 H 166.565 -0.783518 0.26463 0
M  V30 1793 H 169.111 -1.20676 1.19312 0
M  V30 1794 H 167.883 -3.0061 2.50498 0
M  V30 1795 H 167.506 -3.8457 1.00953 0
M  V30 1796 N 168.503 -0.877838 -1.30888 0
M  V30 1797 C 169.78 -0.413052 -1.91189 0
M  V30 1798 C 170.16 1.1056 -1.79832 0
M  V30 1799 O 169.508 1.93771 -1.21099 0
M  V30 1800 C 169.718 -0.903191 -3.3711 0
M  V30 1801 C 171.066 -0.93395 -4.14201 0
M  V30 1802 O 172.09 -0.849373 -3.45925 0
M  V30 1803 O 170.949 -1.05772 -5.36167 0
M  V30 1804 H 168.043 -0.125035 -0.817493 0
M  V30 1805 H 170.589 -0.966269 -1.39504 0
M  V30 1806 H 169.361 -1.94692 -3.39427 0
M  V30 1807 H 168.984 -0.328732 -3.96239 0
M  V30 1808 N 169.982 1.44106 -0.638065 0
M  V30 1809 C 171.207 2.0685 -0.150916 0
M  V30 1810 C 171.632 1.47417 1.16833 0
M  V30 1811 O 170.99 0.578264 1.71831 0
M  V30 1812 C 171.038 3.60555 -0.05708 0
M  V30 1813 O 170.142 4.00465 0.984972 0
M  V30 1814 H 169.483 0.658151 -0.0879399 0
M  V30 1815 H 172.013 1.84865 -0.876707 0
M  V30 1816 H 172.023 4.07789 0.131232 0
M  V30 1817 H 170.698 4.03193 -1.02021 0
M  V30 1818 H 169.275 3.64849 0.770672 0
M  V30 1819 N 171.46 0.379036 1.52974 0
M  V30 1820 C 172.407 -0.461048 2.26148 0
M  V30 1821 C 173.377 -1.06637 1.27349 0
M  V30 1822 O 174.562 -1.09633 1.56157 0
M  V30 1823 C 171.702 -1.58782 3.06402 0
M  V30 1824 C 170.815 -1.00636 4.20115 0
M  V30 1825 C 169.95 -2.10334 4.87784 0
M  V30 1826 C 168.989 -1.49724 5.93506 0
M  V30 1827 N 168.126 -2.5331 6.54812 0
M  V30 1828 H 172.966 0.169429 2.97518 0
M  V30 1829 H 170.503 0.0953806 1.4679 0
M  V30 1830 H 172.461 -2.25174 3.51215 0
M  V30 1831 H 171.091 -2.18876 2.37261 0
M  V30 1832 H 170.143 -0.232332 3.7969 0
M  V30 1833 H 171.455 -0.523343 4.96047 0
M  V30 1834 H 170.609 -2.84519 5.35849 0
M  V30 1835 H 169.348 -2.61992 4.11353 0
M  V30 1836 H 168.353 -0.740598 5.44789 0
M  V30 1837 H 169.578 -0.988732 6.71864 0
M  V30 1838 H 167.524 -3.04156 5.81227 0
M  V30 1839 H 167.441 -2.09734 7.26325 0
M  V30 1840 H 168.709 -3.27155 7.07524 0
M  V30 1841 N 172.938 -1.57226 0.108567 0
M  V30 1842 C 174.354 -1.5766 -0.248058 0
M  V30 1843 C 174.554 -1.12063 -1.67464 0
M  V30 1844 O 173.61 -0.803236 -2.39383 0
M  V30 1845 C 174.923 -3.0069 -0.0242287 0
M  V30 1846 C 176.471 -3.12868 -0.0909372 0
M  V30 1847 C 176.946 -4.57879 0.105067 0
M  V30 1848 N 178.437 -4.63172 0.0506846 0
M  V30 1849 C 179.172 -5.73126 0.177396 0
M  V30 1850 N 178.668 -6.91866 0.359696 0
M  V30 1851 N 180.461 -5.61977 0.117709 0
M  V30 1852 H 172.612 -1.85169 1.04049 0
M  V30 1853 H 174.875 -0.85529 0.40888 0
M  V30 1854 H 174.581 -3.38299 0.961604 0
M  V30 1855 H 174.455 -3.6945 -0.76068 0
M  V30 1856 H 176.842 -2.75124 -1.06729 0
M  V30 1857 H 176.923 -2.46672 0.677225 0
M  V30 1858 H 176.567 -4.96321 1.07834 0
M  V30 1859 H 176.497 -5.22153 -0.682954 0
M  V30 1860 H 178.988 -3.778 -0.0871266 0
M  V30 1861 H 179.301 -7.71503 0.447529 0
M  V30 1862 H 177.646 -6.93874 0.395536 0
M  V30 1863 H 180.837 -4.68094 -0.0236741 0
M  V30 1864 H 181.01 -6.47627 0.219905 0
M  V30 1865 N 174.416 0.165178 -1.56732 0
M  V30 1866 C 175.662 0.882112 -1.82611 0
M  V30 1867 C 175.995 1.81628 -0.687378 0
M  V30 1868 O 175.27 1.92009 0.310267 0
M  V30 1869 C 175.553 1.67245 -3.18906 0
M  V30 1870 C 175.406 0.760987 -4.43316 0
M  V30 1871 C 176.725 2.63884 -3.52212 0
M  V30 1872 H 173.844 0.319242 -0.664269 0
M  V30 1873 H 176.486 0.148052 -1.89422 0
M  V30 1874 H 174.636 2.29824 -3.1323 0
M  V30 1875 H 176.308 0.147596 -4.61064 0
M  V30 1876 H 174.551 0.0694102 -4.33744 0
M  V30 1877 H 175.222 1.34962 -5.35247 0
M  V30 1878 H 177.698 2.11429 -3.58381 0
M  V30 1879 H 176.574 3.16245 -4.48643 0
M  V30 1880 H 176.835 3.44377 -2.77231 0
M  V30 1881 N 175.894 1.51508 0.433938 0
M  V30 1882 C 176.857 1.72473 1.50949 0
M  V30 1883 C 177.857 0.594725 1.49398 0
M  V30 1884 O 179.047 0.862315 1.5136 0
M  V30 1885 C 176.179 1.78431 2.90474 0
M  V30 1886 H 177.372 2.68467 1.33662 0
M  V30 1887 H 174.925 1.41549 0.662836 0
M  V30 1888 H 175.66 0.842645 3.13161 0
M  V30 1889 H 175.445 2.60558 2.93005 0
M  V30 1890 H 176.935 1.96479 3.68491 0
M  V30 1891 N 177.372 -0.689602 1.41712 0
M  V30 1892 C 178.319 -1.80345 1.44029 0
M  V30 1893 C 179.289 -1.63478 0.293948 0
M  V30 1894 O 180.474 -1.84244 0.495869 0
M  V30 1895 C 177.614 -3.18272 1.33405 0
M  V30 1896 C 176.727 -3.46529 2.57956 0
M  V30 1897 C 175.862 -4.74103 2.39582 0
M  V30 1898 C 174.901 -4.95347 3.5958 0
M  V30 1899 N 174.038 -6.14151 3.40239 0
M  V30 1900 H 178.878 -1.77698 2.39222 0
M  V30 1901 H 176.415 -0.867688 1.18784 0
M  V30 1902 H 178.373 -3.97956 1.25246 0
M  V30 1903 H 177.003 -3.2008 0.418164 0
M  V30 1904 H 176.055 -2.61207 2.76542 0
M  V30 1905 H 177.367 -3.58126 3.47199 0
M  V30 1906 H 176.521 -5.61853 2.28924 0
M  V30 1907 H 175.26 -4.64763 1.47805 0
M  V30 1908 H 174.265 -4.06044 3.70686 0
M  V30 1909 H 175.49 -5.06542 4.52318 0
M  V30 1910 H 173.436 -6.06013 2.51167 0
M  V30 1911 H 173.353 -6.26543 4.23061 0
M  V30 1912 H 174.621 -7.04619 3.33365 0
M  V30 1913 N 178.85 -1.27639 -0.924453 0
M  V30 1914 C 180.266 -1.05113 -1.20097 0
M  V30 1915 C 180.466 0.213262 -2.00368 0
M  V30 1916 O 179.522 0.91787 -2.35226 0
M  V30 1917 C 180.835 -2.29244 -1.94596 0
M  V30 1918 C 182.383 -2.34315 -2.07522 0
M  V30 1919 C 182.858 -3.58183 -2.85427 0
M  V30 1920 N 184.349 -3.5876 -2.92994 0
M  V30 1921 C 185.084 -4.51277 -3.53746 0
M  V30 1922 N 184.58 -5.54102 -4.15863 0
M  V30 1923 N 186.373 -4.38894 -3.51181 0
M  V30 1924 H 178.524 -2.08821 -0.388264 0
M  V30 1925 H 180.787 -0.918568 -0.234385 0
M  V30 1926 H 180.493 -3.21301 -1.43034 0
M  V30 1927 H 180.367 -2.34816 -2.95197 0
M  V30 1928 H 182.754 -1.42762 -2.58269 0
M  V30 1929 H 182.835 -2.32744 -1.06131 0
M  V30 1930 H 182.479 -4.50074 -2.35363 0
M  V30 1931 H 182.409 -3.57006 -3.8711 0
M  V30 1932 H 184.9 -2.84398 -2.4885 0
M  V30 1933 H 185.213 -6.20859 -4.60168 0
M  V30 1934 H 183.558 -5.57941 -4.144 0
M  V30 1935 H 186.749 -3.57772 -3.01856 0
M  V30 1936 H 186.922 -5.11186 -3.98237 0
M  V30 1937 N 180.328 1.1314 -1.09713 0
M  V30 1938 C 181.275 2.18642 -0.739196 0
M  V30 1939 C 182.245 1.63706 0.280978 0
M  V30 1940 O 183.43 1.90111 0.161946 0
M  V30 1941 C 180.57 3.44685 -0.169102 0
M  V30 1942 C 179.683 4.13711 -1.24367 0
M  V30 1943 C 178.818 5.27379 -0.636019 0
M  V30 1944 C 177.857 5.88259 -1.69169 0
M  V30 1945 N 176.994 6.93352 -1.10485 0
M  V30 1946 H 181.834 2.48607 -1.64312 0
M  V30 1947 H 179.371 1.22066 -0.820875 0
M  V30 1948 H 181.329 4.16815 0.179256 0
M  V30 1949 H 179.959 3.15161 0.698079 0
M  V30 1950 H 179.011 3.39835 -1.70927 0
M  V30 1951 H 180.323 4.55037 -2.04311 0
M  V30 1952 H 179.477 6.06238 -0.236677 0
M  V30 1953 H 178.216 4.8731 0.194928 0
M  V30 1954 H 177.221 5.08092 -2.10055 0
M  V30 1955 H 178.446 6.30399 -2.52536 0
M  V30 1956 H 176.392 6.55335 -0.295234 0
M  V30 1957 H 176.309 7.33236 -1.84121 0
M  V30 1958 H 177.577 7.76057 -0.73181 0
M  V30 1959 N 181.806 0.884767 1.30421 0
M  V30 1960 C 182.736 0.367574 2.30589 0
M  V30 1961 C 183.717 -0.549464 1.60981 0
M  V30 1962 O 184.902 -0.46336 1.88591 0
M  V30 1963 C 182.032 -0.418944 3.44764 0
M  V30 1964 C 180.986 0.406316 4.26067 0
M  V30 1965 C 180.312 -0.506793 5.32293 0
M  V30 1966 C 181.612 1.64832 4.95608 0
M  V30 1967 H 183.306 1.20462 2.74097 0
M  V30 1968 H 180.852 0.580695 1.31772 0
M  V30 1969 H 182.805 -0.791395 4.13902 0
M  V30 1970 H 181.529 -1.28964 3.0006 0
M  V30 1971 H 180.188 0.760903 3.58617 0
M  V30 1972 H 179.836 -1.37519 4.83836 0
M  V30 1973 H 179.536 0.0415828 5.87585 0
M  V30 1974 H 181.06 -0.875764 6.04287 0
M  V30 1975 H 182.474 1.34646 5.57264 0
M  V30 1976 H 180.871 2.13688 5.60765 0
M  V30 1977 H 181.941 2.39284 4.21748 0
M  V30 1978 N 183.284 -1.43765 0.645699 0
M  V30 1979 C 184.533 -2.01116 0.153412 0
M  V30 1980 C 184.846 -1.51493 -1.23731 0
M  V30 1981 O 186.052 -2.01067 -1.8244 0
M  V30 1982 C 184.508 -3.59206 0.223473 0
M  V30 1983 C 184.116 -4.17823 1.61642 0
M  V30 1984 C 185.86 -4.23972 -0.211597 0
M  V30 1985 C 183.767 -5.68183 1.64081 0
M  V30 1986 H 182.697 -0.752093 0.0535891 0
M  V30 1987 H 185.348 -1.6482 0.806633 0
M  V30 1988 H 183.73 -3.92867 -0.497118 0
M  V30 1989 H 184.904 -3.95674 2.36176 0
M  V30 1990 H 183.219 -3.65399 1.99681 0
M  V30 1991 H 185.816 -5.34275 -0.213112 0
M  V30 1992 H 186.159 -3.97352 -1.24165 0
M  V30 1993 H 186.692 -3.95166 0.456988 0
M  V30 1994 H 183.431 -5.99559 2.64971 0
M  V30 1995 H 182.951 -5.9241 0.938611 0
M  V30 1996 H 184.63 -6.32085 1.3812 0
M  V30 1997 N 184.763 -0.387143 -1.52771 0
M  V30 1998 C 185.673 0.456442 -2.30117 0
M  V30 1999 C 186.689 1.07342 -1.36944 0
M  V30 2000 O 187.865 1.07971 -1.70013 0
M  V30 2001 C 184.93 1.56957 -3.09136 0
M  V30 2002 C 183.991 0.977916 -4.18014 0
M  V30 2003 C 183.224 2.038 -4.93256 0
M  V30 2004 O 183.447 3.25271 -4.68567 0
M  V30 2005 O 182.381 1.6565 -5.78657 0
M  V30 2006 H 186.207 -0.17359 -3.03203 0
M  V30 2007 H 183.792 -0.150919 -1.48636 0
M  V30 2008 H 185.674 2.21628 -3.58412 0
M  V30 2009 H 184.349 2.18461 -2.38865 0
M  V30 2010 H 183.256 0.294525 -3.72939 0
M  V30 2011 H 184.589 0.407128 -4.90513 0
M  V30 2012 N 186.241 1.57166 -0.116904 0
M  V30 2013 C 187.173 2.12271 0.864507 0
M  V30 2014 C 188.186 1.06494 1.23138 0
M  V30 2015 O 189.375 1.33873 1.18069 0
M  V30 2016 C 186.475 2.60564 2.16702 0
M  V30 2017 C 185.648 3.90416 1.97216 0
M  V30 2018 C 184.707 4.24329 3.11178 0
M  V30 2019 O 183.733 4.93182 2.84184 0
M  V30 2020 N 184.935 3.8148 4.37554 0
M  V30 2021 H 187.7 2.97102 0.393726 0
M  V30 2022 H 185.261 1.61759 0.0675805 0
M  V30 2023 H 187.253 2.80282 2.91932 0
M  V30 2024 H 185.823 1.80623 2.55135 0
M  V30 2025 H 185.043 3.79627 1.06192 0
M  V30 2026 H 186.331 4.75327 1.81499 0
M  V30 2027 H 185.729 3.25943 4.62361 0
M  V30 2028 H 184.286 4.06311 5.09661 0
M  V30 2029 N 187.719 -0.156864 1.56817 0
M  V30 2030 C 188.667 -1.21319 1.98455 0
M  V30 2031 C 189.661 -1.45025 0.875444 0
M  V30 2032 O 190.867 -1.45435 1.0606 0
M  V30 2033 H 187.242 -0.408142 0.631605 0
M  V30 2034 H 189.213 -0.835244 2.86472 0
M  V30 2035 C 187.962 -2.54148 2.37285 0
M  V30 2036 H 187.285 -2.36733 3.22176 0
M  V30 2037 H 188.725 -3.26712 2.70251 0
M  V30 2038 C 187.184 -3.13967 1.22173 0
M  V30 2039 O 187.714 -3.98357 0.517149 0
M  V30 2040 N 185.92 -2.7327 0.988536 0
M  V30 2041 H 185.467 -2.04744 1.56326 0
M  V30 2042 H 185.425 -3.13628 0.220209 0
M  V30 2043 N 189.197 -1.51736 -0.425897 0
M  V30 2044 C 190.613 -1.40166 -0.76326 0
M  V30 2045 C 190.813 -0.492962 -1.95377 0
M  V30 2046 O 189.869 0.0475815 -2.52455 0
M  V30 2047 C 191.182 -2.82403 -1.03291 0
M  V30 2048 C 192.73 -2.91632 -1.13665 0
M  V30 2049 C 193.205 -4.34801 -1.43916 0
M  V30 2050 N 194.696 -4.3796 -1.50816 0
M  V30 2051 C 195.431 -5.4578 -1.75817 0
M  V30 2052 N 194.927 -6.63744 -1.98534 0
M  V30 2053 N 196.72 -5.33274 -1.77694 0
M  V30 2054 H 188.871 -2.09361 0.358 0
M  V30 2055 H 191.134 -0.942941 0.0978094 0
M  V30 2056 H 190.84 -3.50943 -0.230696 0
M  V30 2057 H 190.714 -3.22428 -1.95754 0
M  V30 2058 H 193.101 -2.23284 -1.92947 0
M  V30 2059 H 193.182 -2.55088 -0.190756 0
M  V30 2060 H 192.826 -5.03703 -0.65157 0
M  V30 2061 H 192.756 -4.68868 -2.39729 0
M  V30 2062 H 195.247 -3.52919 -1.35118 0
M  V30 2063 H 195.56 -7.41704 -2.17013 0
M  V30 2064 H 193.905 -6.66839 -1.95832 0
M  V30 2065 H 197.096 -4.40098 -1.59473 0
M  V30 2066 H 197.269 -6.1738 -1.9684 0
M  V30 2067 N 190.675 0.682077 -1.42076 0
M  V30 2068 C 191.585 1.82535 -1.47371 0
M  V30 2069 C 192.601 1.7017 -0.363079 0
M  V30 2070 O 193.777 1.91848 -0.612875 0
M  V30 2071 C 190.842 3.18624 -1.36674 0
M  V30 2072 C 189.903 3.42999 -2.58167 0
M  V30 2073 C 189.136 4.72595 -2.4797 0
M  V30 2074 O 189.359 5.50006 -1.5116 0
M  V30 2075 O 188.293 4.98054 -3.37974 0
M  V30 2076 H 192.119 1.81023 -2.43853 0
M  V30 2077 H 189.704 0.836887 -1.2376 0
M  V30 2078 H 191.586 3.99847 -1.33043 0
M  V30 2079 H 190.261 3.20789 -0.433138 0
M  V30 2080 H 189.168 2.61653 -2.67373 0
M  V30 2081 H 190.501 3.45659 -3.50401 0
M  V30 2082 N 192.153 1.28127 0.917671 0
M  V30 2083 C 193.569 1.05749 1.19538 0
M  V30 2084 C 193.769 -0.202633 2.00479 0
M  V30 2085 O 192.825 -0.905382 2.3571 0
M  V30 2086 C 194.138 2.30273 1.93378 0
M  V30 2087 C 195.686 2.35412 2.06277 0
M  V30 2088 C 196.161 3.59692 2.83524 0
M  V30 2089 N 197.652 3.60309 2.91087 0
M  V30 2090 C 198.387 4.53147 3.51348 0
M  V30 2091 N 197.883 5.563 4.12919 0
M  V30 2092 N 199.676 4.40751 3.48849 0
M  V30 2093 H 191.827 2.09024 0.377184 0
M  V30 2094 H 194.09 0.919798 0.22951 0
M  V30 2095 H 193.796 3.22055 1.41328 0
M  V30 2096 H 193.67 2.36378 2.93947 0
M  V30 2097 H 196.057 1.4413 2.57508 0
M  V30 2098 H 196.138 2.33304 1.04895 0
M  V30 2099 H 195.782 4.51316 2.32973 0
M  V30 2100 H 195.712 3.59054 3.85211 0
M  V30 2101 H 198.203 2.85714 2.47338 0
M  V30 2102 H 198.516 6.2329 4.56869 0
M  V30 2103 H 196.861 5.60131 4.11435 0
M  V30 2104 H 200.052 3.59367 2.99955 0
M  V30 2105 H 200.225 5.13291 3.9552 0
M  V30 2106 N 193.631 -1.12557 1.10312 0
M  V30 2107 C 195.047 -1.36036 0.834649 0
M  V30 2108 C 195.247 -1.93946 -0.546539 0
M  V30 2109 O 194.303 -2.16484 -1.29966 0
M  V30 2110 C 195.616 -2.30312 1.9333 0
M  V30 2111 C 197.164 -2.43906 1.9616 0
M  V30 2112 C 197.639 -3.41496 3.05195 0
M  V30 2113 N 199.13 -3.49053 3.04494 0
M  V30 2114 C 199.865 -4.24471 3.85502 0
M  V30 2115 N 199.361 -5.02966 4.76442 0
M  V30 2116 N 201.154 -4.19864 3.73725 0
M  V30 2117 H 193.305 -0.733246 1.99342 0
M  V30 2118 H 195.568 -0.385234 0.866198 0
M  V30 2119 H 195.274 -1.94933 2.92735 0
M  V30 2120 H 195.148 -3.30421 1.81939 0
M  V30 2121 H 197.535 -2.78567 0.973886 0
M  V30 2122 H 197.616 -1.4369 2.11629 0
M  V30 2123 H 197.26 -3.07565 4.04186 0
M  V30 2124 H 197.19 -4.41539 2.86968 0
M  V30 2125 H 199.681 -2.93053 2.38596 0
M  V30 2126 H 199.994 -5.57846 5.34815 0
M  V30 2127 H 198.339 -5.02167 4.80472 0
M  V30 2128 H 201.53 -3.57623 3.02032 0
M  V30 2129 H 201.703 -4.78386 4.37093 0
M  V30 2130 N 195.109 -0.891671 -1.2995 0
M  V30 2131 C 196.525 -0.58662 -1.48428 0
M  V30 2132 C 196.725 0.873951 -1.81561 0
M  V30 2133 O 195.781 1.65471 -1.90724 0
M  V30 2134 C 197.094 -1.50553 -2.60296 0
M  V30 2135 C 198.642 -1.50988 -2.74175 0
M  V30 2136 C 199.117 -2.41488 -3.89163 0
M  V30 2137 N 200.608 -2.39489 -3.96483 0
M  V30 2138 C 201.343 -3.06223 -4.84784 0
M  V30 2139 N 200.839 -3.82206 -5.77833 0
M  V30 2140 N 202.632 -2.95421 -4.78208 0
M  V30 2141 H 194.783 -1.83644 -1.06718 0
M  V30 2142 H 197.046 -0.786455 -0.529332 0
M  V30 2143 H 196.752 -2.54581 -2.42654 0
M  V30 2144 H 196.626 -1.22008 -3.56923 0
M  V30 2145 H 199.013 -0.47708 -2.91218 0
M  V30 2146 H 199.094 -1.83567 -1.78148 0
M  V30 2147 H 198.738 -3.44857 -3.72876 0
M  V30 2148 H 198.668 -2.06222 -4.84541 0
M  V30 2149 H 201.159 -1.84278 -3.29924 0
M  V30 2150 H 201.472 -4.302 -6.41988 0
M  V30 2151 H 199.817 -3.86313 -5.77743 0
M  V30 2152 H 203.008 -2.35581 -4.04499 0
M  V30 2153 H 203.181 -3.47704 -5.46814 0
M  V30 2154 N 196.587 1.43421 -0.653314 0
M  V30 2155 C 197.534 2.30768 0.0382271 0
M  V30 2156 C 198.504 1.44755 0.814576 0
M  V30 2157 O 199.689 1.73624 0.791162 0
M  V30 2158 C 196.829 3.30336 0.998599 0
M  V30 2159 C 195.942 4.31448 0.218342 0
M  V30 2160 C 195.077 5.18098 1.17252 0
M  V30 2161 C 194.116 6.10902 0.382702 0
M  V30 2162 N 193.253 6.90176 1.28848 0
M  V30 2163 H 198.093 2.89357 -0.712511 0
M  V30 2164 H 195.63 1.42548 -0.363128 0
M  V30 2165 H 197.588 3.86572 1.56901 0
M  V30 2166 H 196.218 2.73397 1.71621 0
M  V30 2167 H 195.27 3.77506 -0.46836 0
M  V30 2168 H 196.582 4.97227 -0.395812 0
M  V30 2169 H 195.736 5.7896 1.81356 0
M  V30 2170 H 194.475 4.52444 1.82058 0
M  V30 2171 H 193.48 5.49128 -0.27169 0
M  V30 2172 H 194.705 6.78598 -0.260957 0
M  V30 2173 H 192.651 6.27171 1.92334 0
M  V30 2174 H 192.568 7.52478 0.728887 0
M  V30 2175 H 193.836 7.55543 1.91766 0
M  V30 2176 N 198.065 0.39524 1.52563 0
M  V30 2177 C 198.975 -0.444232 2.30356 0
M  V30 2178 C 199.991 -1.06615 1.37511 0
M  V30 2179 O 201.167 -1.07067 1.70583 0
M  V30 2180 C 198.232 -1.55315 3.09964 0
M  V30 2181 C 197.293 -0.955734 4.18526 0
M  V30 2182 C 196.526 -2.01181 4.9433 0
M  V30 2183 O 196.749 -3.22781 4.70285 0
M  V30 2184 O 195.683 -1.62579 5.79527 0
M  V30 2185 H 199.509 0.189667 3.03107 0
M  V30 2186 H 197.094 0.1588 1.48554 0
M  V30 2187 H 198.976 -2.19724 3.59582 0
M  V30 2188 H 197.651 -2.17191 2.4002 0
M  V30 2189 H 196.558 -0.274743 3.7309 0
M  V30 2190 H 197.891 -0.381109 4.90722 0
M  V30 2191 N 199.544 -1.57102 0.125237 0
M  V30 2192 C 200.454 -2.19191 -0.8362 0
M  V30 2193 C 201.47 -1.16985 -1.28805 0
M  V30 2194 O 202.646 -1.49479 -1.34974 0
M  V30 2195 C 199.711 -2.78407 -2.06617 0
M  V30 2196 C 198.772 -3.9567 -1.66565 0
M  V30 2197 C 198.005 -4.52052 -2.83698 0
M  V30 2198 O 198.228 -4.07326 -3.99302 0
M  V30 2199 O 197.162 -5.42645 -2.60423 0
M  V30 2200 H 200.988 -3.01816 -0.337776 0
M  V30 2201 H 198.573 -1.4906 -0.100695 0
M  V30 2202 H 200.455 -3.16129 -2.7864 0
M  V30 2203 H 199.13 -1.9881 -2.55453 0
M  V30 2204 H 198.037 -3.62705 -0.916296 0
M  V30 2205 H 199.37 -4.76722 -1.22464 0
M  V30 2206 N 201.022 0.148545 -1.56898 0
M  V30 2207 C 201.955 1.21293 -1.93296 0
M  V30 2208 C 202.933 1.41637 -0.798599 0
M  V30 2209 O 204.117 1.56275 -1.05406 0
M  V30 2210 C 201.244 2.5721 -2.20365 0
M  V30 2211 C 200.29 2.53469 -3.4301 0
M  V30 2212 S 201.123 2.00315 -4.96623 0
M  V30 2213 C 202.279 3.37964 -5.26812 0
M  V30 2214 H 202.512 0.902393 -2.83274 0
M  V30 2215 H 200.045 0.354094 -1.50285 0
M  V30 2216 H 202.003 3.35427 -2.36641 0
M  V30 2217 H 200.664 2.85454 -1.31054 0
M  V30 2218 H 199.857 3.53518 -3.59223 0
M  V30 2219 H 199.459 1.83359 -3.25968 0
M  V30 2220 H 201.751 4.34066 -5.20185 0
M  V30 2221 H 202.694 3.26606 -6.28279 0
M  V30 2222 H 203.102 3.35028 -4.54331 0
M  V30 2223 N 202.5 1.5196 0.417844 0
M  V30 2224 C 203.749 1.6482 1.16264 0
M  V30 2225 C 204.062 0.379886 1.91876 0
M  V30 2226 O 205.268 0.388154 2.68711 0
M  V30 2227 C 203.724 2.91161 2.1155 0
M  V30 2228 C 203.332 4.25068 1.41495 0
M  V30 2229 C 205.076 3.13383 2.86341 0
M  V30 2230 C 202.983 5.42541 2.35379 0
M  V30 2231 H 201.913 0.613954 0.437694 0
M  V30 2232 H 204.564 1.78442 0.427871 0
M  V30 2233 H 202.946 2.71218 2.88543 0
M  V30 2234 H 204.12 4.55463 0.699263 0
M  V30 2235 H 202.435 4.0888 0.787792 0
M  V30 2236 H 205.032 3.98324 3.5671 0
M  V30 2237 H 205.375 2.27256 3.48798 0
M  V30 2238 H 205.908 3.33757 2.1645 0
M  V30 2239 H 202.647 6.30987 1.77582 0
M  V30 2240 H 202.167 5.16497 3.04945 0
M  V30 2241 H 203.846 5.75272 2.96093 0
M  V30 2242 N 203.978 -0.674533 1.42435 0
M  V30 2243 C 205.394 -0.98769 1.25367 0
M  V30 2244 C 205.594 -2.00879 0.158044 0
M  V30 2245 O 204.65 -2.48075 -0.470633 0
M  V30 2246 C 205.963 -1.49224 2.6106 0
M  V30 2247 C 207.511 -1.61 2.68417 0
M  V30 2248 C 207.986 -2.14852 4.04478 0
M  V30 2249 N 209.477 -2.22185 4.06434 0
M  V30 2250 C 210.212 -2.64928 5.08528 0
M  V30 2251 N 209.708 -3.07121 6.21006 0
M  V30 2252 N 211.501 -2.64679 4.95885 0
M  V30 2253 H 203.652 0.00152503 2.124 0
M  V30 2254 H 205.915 -0.0618434 0.945981 0
M  V30 2255 H 205.621 -0.816453 3.42092 0
M  V30 2256 H 205.495 -2.47094 2.84999 0
M  V30 2257 H 207.882 -2.27686 1.87732 0
M  V30 2258 H 207.963 -0.616195 2.48267 0
M  V30 2259 H 207.607 -1.48775 4.85622 0
M  V30 2260 H 207.537 -3.15024 4.2198 0
M  V30 2261 H 210.028 -1.92435 3.25234 0
M  V30 2262 H 210.341 -3.38423 6.94759 0
M  V30 2263 H 208.686 -3.04978 6.24511 0
M  V30 2264 H 211.877 -2.31078 4.07088 0
M  V30 2265 H 212.05 -2.9767 5.75584 0
M  V30 2266 N 205.456 -1.28612 -0.910864 0
M  V30 2267 C 206.681 -1.1891 -1.69927 0
M  V30 2268 C 207.106 0.248372 -1.86453 0
M  V30 2269 O 206.464 1.17961 -1.37676 0
M  V30 2270 C 206.512 -1.89578 -3.06745 0
M  V30 2271 O 205.616 -1.20521 -3.94396 0
M  V30 2272 H 204.957 -0.412632 -0.520222 0
M  V30 2273 H 207.487 -1.69985 -1.1387 0
M  V30 2274 H 207.497 -1.97597 -3.56958 0
M  V30 2275 H 206.172 -2.94136 -2.94035 0
M  V30 2276 H 204.749 -1.20684 -3.52831 0
M  V30 2277 N 206.934 1.1197 -1.10907 0
M  V30 2278 C 207.864 2.19928 -0.784473 0
M  V30 2279 C 208.845 1.6833 0.244726 0
M  V30 2280 O 210.03 1.93892 0.109418 0
M  V30 2281 C 207.16 3.46597 -0.220827 0
M  V30 2282 C 206.114 4.11376 -1.18127 0
M  V30 2283 C 205.44 5.32554 -0.478594 0
M  V30 2284 C 206.74 4.56945 -2.52979 0
M  V30 2285 H 208.434 2.47337 -1.68715 0
M  V30 2286 H 205.98 1.18879 -0.812642 0
M  V30 2287 H 207.933 4.21396 0.0184278 0
M  V30 2288 H 206.657 3.1863 0.717113 0
M  V30 2289 H 205.316 3.38564 -1.40606 0
M  V30 2290 H 204.964 5.00856 0.463976 0
M  V30 2291 H 204.664 5.76844 -1.11912 0
M  V30 2292 H 206.188 6.10096 -0.248 0
M  V30 2293 H 207.602 5.23093 -2.3462 0
M  V30 2294 H 205.999 5.1203 -3.12962 0
M  V30 2295 H 207.069 3.70676 -3.12614 0
M  V30 2296 N 208.412 0.89855 1.29475 0
M  V30 2297 C 209.344 0.332726 2.26772 0
M  V30 2298 C 210.357 -0.520323 1.54261 0
M  V30 2299 O 211.546 -0.337668 1.75277 0
M  V30 2300 C 208.646 -0.544334 3.345 0
M  V30 2301 C 207.819 0.282728 4.36485 0
M  V30 2302 C 206.878 -0.526982 5.23555 0
M  V30 2303 O 205.904 0.0551165 5.69173 0
M  V30 2304 N 207.106 -1.83331 5.5079 0
M  V30 2305 H 209.871 1.16897 2.75962 0
M  V30 2306 H 207.432 0.762919 1.42798 0
M  V30 2307 H 209.424 -1.09239 3.89678 0
M  V30 2308 H 207.994 -1.28127 2.85136 0
M  V30 2309 H 207.214 1.01221 3.80983 0
M  V30 2310 H 208.502 0.84918 5.01664 0
M  V30 2311 H 207.9 -2.32898 5.15534 0
M  V30 2312 H 206.457 -2.32852 6.08788 0
M  V30 2313 N 209.89 -1.43072 0.660911 0
M  V30 2314 C 210.822 -2.29108 -0.0647641 0
M  V30 2315 C 211.835 -1.42928 -0.779448 0
M  V30 2316 O 213.024 -1.66788 -0.635921 0
M  V30 2317 C 210.124 -3.20032 -1.11503 0
M  V30 2318 C 209.297 -4.34792 -0.476955 0
M  V30 2319 C 208.356 -5.06534 -1.42513 0
M  V30 2320 O 207.382 -5.61538 -0.930771 0
M  V30 2321 N 208.584 -5.1075 -2.75889 0
M  V30 2322 H 211.349 -2.92029 0.673731 0
M  V30 2323 H 208.91 -1.53846 0.50427 0
M  V30 2324 H 210.902 -3.64892 -1.75032 0
M  V30 2325 H 209.472 -2.58658 -1.75541 0
M  V30 2326 H 208.692 -3.92752 0.337572 0
M  V30 2327 H 209.98 -5.0879 -0.0318525 0
M  V30 2328 H 209.378 -4.67447 -3.18606 0
M  V30 2329 H 207.935 -5.59302 -3.347 0
M  V30 2330 N 211.368 -0.403325 -1.52352 0
M  V30 2331 C 212.784 -0.0539281 -1.59509 0
M  V30 2332 C 212.984 1.43307 -1.41652 0
M  V30 2333 O 212.04 2.19924 -1.24056 0
M  V30 2334 C 213.353 -0.543654 -2.95745 0
M  V30 2335 C 214.901 -0.501125 -3.08962 0
M  V30 2336 C 215.376 -0.967267 -4.47669 0
M  V30 2337 N 216.867 -0.923849 -4.53893 0
M  V30 2338 C 217.602 -1.25578 -5.5948 0
M  V30 2339 N 217.098 -1.65889 -6.72646 0
M  V30 2340 N 218.891 -1.17613 -5.49658 0
M  V30 2341 H 211.042 -1.37123 -1.62206 0
M  V30 2342 H 213.305 -0.56294 -0.76276 0
M  V30 2343 H 213.011 -1.58275 -3.14073 0
M  V30 2344 H 212.885 0.0498042 -3.77167 0
M  V30 2345 H 215.272 0.528909 -2.90321 0
M  V30 2346 H 215.353 -1.13056 -2.2946 0
M  V30 2347 H 214.997 -1.9956 -4.67053 0
M  V30 2348 H 214.927 -0.314698 -5.25659 0
M  V30 2349 H 217.418 -0.627403 -3.72655 0
M  V30 2350 H 217.731 -1.89543 -7.49195 0
M  V30 2351 H 216.076 -1.69787 -6.73942 0
M  V30 2352 H 219.267 -0.860115 -4.6013 0
M  V30 2353 H 219.44 -1.43812 -6.3184 0
M  V30 2354 N 212.846 1.57033 -0.133567 0
M  V30 2355 C 214.257 1.82593 0.389464 0
M  V30 2356 C 214.608 1.05156 1.6564 0
M  V30 2357 O 213.733 0.292644 2.14412 0
M  V30 2358 C 214.328 3.31204 0.713377 0
M  V30 2359 C 212.887 3.57393 1.18098 0
M  V30 2360 C 212.034 2.76598 0.197126 0
M  V30 2361 H 214.985 1.54598 -0.358481 0
M  V30 2362 H 215.006 3.46627 1.56939 0
M  V30 2363 H 214.518 3.87537 -0.2089 0
M  V30 2364 H 212.619 3.06433 2.11966 0
M  V30 2365 H 212.732 4.65915 1.11624 0
M  V30 2366 H 211.096 2.45257 0.687088 0
M  V30 2367 H 211.879 3.35697 -0.718504 0
M  V30 2368 N 214.325 -0.140222 1.56975 0
M  V30 2369 C 215.235 -1.19223 2.02047 0
M  V30 2370 C 216.251 -1.46612 0.937062 0
M  V30 2371 O 217.427 -1.58148 1.24704 0
M  V30 2372 C 214.492 -2.50414 2.39778 0
M  V30 2373 C 213.553 -2.30612 3.621 0
M  V30 2374 C 212.786 -3.55547 3.98023 0
M  V30 2375 O 213.009 -4.62004 3.34528 0
M  V30 2376 O 211.943 -3.47808 4.91237 0
M  V30 2377 H 215.769 -0.839559 2.91865 0
M  V30 2378 H 213.354 -0.349453 1.45256 0
M  V30 2379 H 215.236 -3.27747 2.64877 0
M  V30 2380 H 213.911 -2.85198 1.53114 0
M  V30 2381 H 212.818 -1.51207 3.4218 0
M  V30 2382 H 214.151 -2.00741 4.49404 0
M  V30 2383 N 215.803 -1.52179 -0.40978 0
M  V30 2384 C 217.214 -1.58377 -0.988615 0
M  V30 2385 C 217.565 -0.423879 -1.91566 0
M  V30 2386 O 216.69 0.455844 -2.11544 0
M  V30 2387 C 217.285 -2.87044 -1.79976 0
M  V30 2388 C 215.844 -2.95722 -2.32863 0
M  V30 2389 C 214.991 -2.53309 -1.12828 0
M  V30 2390 H 217.942 -1.57558 -0.190039 0
M  V30 2391 H 217.963 -2.7236 -2.65707 0
M  V30 2392 H 217.475 -3.71444 -1.12478 0
M  V30 2393 H 215.576 -2.15814 -3.03735 0
M  V30 2394 H 215.689 -3.99951 -2.63773 0
M  V30 2395 H 214.053 -2.07142 -1.48204 0
M  V30 2396 H 214.836 -3.40082 -0.46897 0
M  V30 2397 N 217.281 0.66697 -1.42791 0
M  V30 2398 C 218.509 1.45505 -1.47091 0
M  V30 2399 C 218.924 1.8861 -0.0845873 0
M  V30 2400 O 218.281 1.58632 0.90234 0
M  V30 2401 C 218.332 2.69906 -2.40485 0
M  V30 2402 O 218.053 2.28608 -3.73725 0
M  V30 2403 C 219.554 3.63396 -2.53886 0
M  V30 2404 H 216.774 0.447459 -0.500022 0
M  V30 2405 H 219.318 0.818866 -1.8739 0
M  V30 2406 H 217.473 3.29696 -2.03419 0
M  V30 2407 H 217.887 3.08997 -4.23817 0
M  V30 2408 H 219.361 4.47387 -3.2334 0
M  V30 2409 H 219.838 4.09824 -1.57927 0
M  V30 2410 H 220.444 3.09495 -2.91706 0
M  V30 2411 N 218.759 1.29093 0.90403 0
M  V30 2412 C 220.17 1.15186 1.46932 0
M  V30 2413 C 220.521 -0.254587 1.94541 0
M  V30 2414 O 219.646 -1.14972 1.83332 0
M  V30 2415 C 220.241 2.08492 2.67051 0
M  V30 2416 C 218.8 1.98621 3.19729 0
M  V30 2417 C 217.947 1.9967 1.92425 0
M  V30 2418 H 220.898 1.41641 0.715789 0
M  V30 2419 H 220.919 1.65461 3.42641 0
M  V30 2420 H 220.431 3.10847 2.3237 0
M  V30 2421 H 218.532 0.993389 3.59114 0
M  V30 2422 H 218.645 2.86068 3.8432 0
M  V30 2423 H 217.009 1.44208 2.09943 0
M  V30 2424 H 217.792 3.03721 1.60026 0
M  V30 2425 N 220.237 -1.11381 1.11499 0
M  V30 2426 C 221.147 -2.21019 0.786628 0
M  V30 2427 C 222.163 -1.72597 -0.220507 0
M  V30 2428 O 223.339 -2.01321 -0.0565251 0
M  V30 2429 C 220.404 -3.459 0.235333 0
M  V30 2430 C 219.465 -4.09107 1.30115 0
M  V30 2431 C 218.698 -5.28027 0.776068 0
M  V30 2432 O 218.921 -5.6904 -0.393661 0
M  V30 2433 O 217.855 -5.81835 1.54114 0
M  V30 2434 H 221.681 -2.51521 1.70209 0
M  V30 2435 H 219.266 -1.19928 0.890928 0
M  V30 2436 H 221.148 -4.21346 -0.067715 0
M  V30 2437 H 219.823 -3.17049 -0.652828 0
M  V30 2438 H 218.73 -3.35391 1.65722 0
M  V30 2439 H 220.063 -4.42139 2.16273 0
M  V30 2440 N 221.715 -0.905404 -1.28997 0
M  V30 2441 C 222.625 -0.392246 -2.31298 0
M  V30 2442 C 223.641 0.515889 -1.66176 0
M  V30 2443 O 224.817 0.404093 -1.97304 0
M  V30 2444 C 221.882 0.36686 -3.44754 0
M  V30 2445 C 220.943 -0.573485 -4.25452 0
M  V30 2446 C 220.176 0.149488 -5.33491 0
M  V30 2447 O 220.399 1.37255 -5.5364 0
M  V30 2448 O 219.333 -0.510919 -5.99728 0
M  V30 2449 H 223.159 -1.2411 -2.77183 0
M  V30 2450 H 220.744 -0.669926 -1.33538 0
M  V30 2451 H 222.626 0.795907 -4.13816 0
M  V30 2452 H 221.301 1.19169 -3.00966 0
M  V30 2453 H 220.208 -1.05176 -3.59011 0
M  V30 2454 H 221.541 -1.36489 -4.72897 0
M  V30 2455 N 223.193 1.4272 -0.668489 0
M  V30 2456 C 224.439 2.02443 -0.197076 0
M  V30 2457 C 224.794 1.51882 1.18109 0
M  V30 2458 O 224.087 0.708618 1.78015 0
M  V30 2459 C 224.281 3.57021 -0.164499 0
M  V30 2460 C 224.11 4.22583 -1.53797 0
M  V30 2461 C 222.88 4.58019 -2.13416 0
M  V30 2462 C 225.078 4.50588 -2.47941 0
M  V30 2463 N 223.06 5.08729 -3.4361 0
M  V30 2464 C 224.431 5.02782 -3.62782 0
M  V30 2465 C 226.486 4.32571 -2.46551 0
M  V30 2466 C 225.189 5.38852 -4.76478 0
M  V30 2467 C 227.215 4.69713 -3.59338 0
M  V30 2468 C 226.577 5.22053 -4.72906 0
M  V30 2469 H 222.676 0.773214 -0.116894 0
M  V30 2470 H 225.26 1.73673 -0.880108 0
M  V30 2471 H 223.431 3.85323 0.487925 0
M  V30 2472 H 225.163 4.03439 0.319207 0
M  V30 2473 H 221.918 4.43566 -1.65969 0
M  V30 2474 H 222.342 5.38521 -4.10273 0
M  V30 2475 H 226.984 3.91365 -1.59978 0
M  V30 2476 H 224.702 5.78993 -5.63731 0
M  V30 2477 H 228.288 4.57454 -3.59482 0
M  V30 2478 H 227.168 5.50258 -5.58736 0
M  V30 2479 N 224.671 0.411399 1.52136 0
M  V30 2480 C 225.948 -0.222308 1.94333 0
M  V30 2481 C 226.328 -1.6242 1.34844 0
M  V30 2482 O 225.676 -2.22384 0.525145 0
M  V30 2483 C 225.886 -0.226345 3.48265 0
M  V30 2484 C 227.234 -0.444592 4.22266 0
M  V30 2485 O 228.258 -0.305602 3.54887 0
M  V30 2486 O 227.117 -0.718749 5.41753 0
M  V30 2487 H 224.211 -0.143907 0.814383 0
M  V30 2488 H 226.757 0.467506 1.63133 0
M  V30 2489 H 225.529 0.75475 3.83952 0
M  V30 2490 H 225.152 -0.960163 3.85832 0
M  V30 2491 N 226.149 -1.5696 0.141893 0
M  V30 2492 C 227.079 -2.19516 -0.795936 0
M  V30 2493 C 228.06 -1.14187 -1.26077 0
M  V30 2494 O 229.245 -1.42511 -1.31925 0
M  V30 2495 C 226.375 -2.81272 -2.03723 0
M  V30 2496 C 225.329 -3.92384 -1.70936 0
M  V30 2497 C 224.655 -4.41052 -3.02287 0
M  V30 2498 C 225.955 -5.13403 -0.959954 0
M  V30 2499 H 227.649 -2.98138 -0.274596 0
M  V30 2500 H 225.195 -1.43406 -0.130636 0
M  V30 2501 H 227.148 -3.237 -2.69808 0
M  V30 2502 H 225.872 -1.99973 -2.58221 0
M  V30 2503 H 224.531 -3.50566 -1.07232 0
M  V30 2504 H 224.179 -3.56582 -3.54765 0
M  V30 2505 H 223.879 -5.15993 -2.81114 0
M  V30 2506 H 225.403 -4.86146 -3.69451 0
M  V30 2507 H 226.817 -5.52706 -1.52279 0
M  V30 2508 H 225.214 -5.94073 -0.848357 0
M  V30 2509 H 226.284 -4.84875 0.0492434 0
M  V30 2510 N 227.627 0.131896 -1.57047 0
M  V30 2511 C 228.876 0.84044 -1.83356 0
M  V30 2512 C 229.189 1.81646 -0.725535 0
M  V30 2513 O 230.395 2.57025 -0.874659 0
M  V30 2514 C 228.851 1.54528 -3.25037 0
M  V30 2515 C 228.459 0.610902 -4.43815 0
M  V30 2516 C 230.203 2.23972 -3.60606 0
M  V30 2517 C 228.11 1.31823 -5.76521 0
M  V30 2518 H 227.04 0.317599 -0.683847 0
M  V30 2519 H 229.691 0.0931561 -1.83263 0
M  V30 2520 H 228.073 2.33873 -3.19561 0
M  V30 2521 H 229.247 -0.148407 -4.60561 0
M  V30 2522 H 227.562 0.0241016 -4.16393 0
M  V30 2523 H 230.159 2.77558 -4.57018 0
M  V30 2524 H 230.502 3.01173 -2.87403 0
M  V30 2525 H 231.035 1.51529 -3.6781 0
M  V30 2526 H 227.774 0.587771 -6.52859 0
M  V30 2527 H 227.294 2.04987 -5.63685 0
M  V30 2528 H 228.973 1.855 -6.19838 0
M  V30 2529 N 229.106 1.52395 0.401703 0
M  V30 2530 C 230.056 1.72649 1.48917 0
M  V30 2531 C 231.04 0.580436 1.50066 0
M  V30 2532 O 232.232 0.83779 1.55917 0
M  V30 2533 C 229.361 1.88729 2.86769 0
M  V30 2534 C 228.447 3.09228 2.90239 0
M  V30 2535 N 228.838 4.31805 2.63396 0
M  V30 2536 C 227.136 3.09214 3.21408 0
M  V30 2537 C 227.837 5.13326 2.73625 0
M  V30 2538 N 226.813 4.48735 3.06819 0
M  V30 2539 H 230.615 2.65058 1.26971 0
M  V30 2540 H 228.129 1.50528 0.609504 0
M  V30 2541 H 230.126 2.01358 3.65049 0
M  V30 2542 H 228.786 0.975252 3.09708 0
M  V30 2543 H 229.797 4.60154 2.37653 0
M  V30 2544 H 226.474 2.27774 3.49893 0
M  V30 2545 H 227.864 6.21003 2.56524 0
M  V30 2546 N 230.584 -0.659388 1.43143 0
M  V30 2547 C 231.833 -1.41518 1.43721 0
M  V30 2548 C 232.146 -1.95499 0.0628176 0
M  V30 2549 O 233.352 -2.71446 -0.0539683 0
M  V30 2550 C 231.808 -2.5608 2.52885 0
M  V30 2551 C 231.416 -2.08733 3.96402 0
M  V30 2552 C 233.16 -3.3349 2.62649 0
M  V30 2553 C 231.067 -3.20469 4.97045 0
M  V30 2554 H 229.997 -0.531705 0.534608 0
M  V30 2555 H 232.648 -0.712343 1.69109 0
M  V30 2556 H 231.03 -3.28805 2.20688 0
M  V30 2557 H 232.204 -1.43059 4.3803 0
M  V30 2558 H 230.519 -1.44219 3.90627 0
M  V30 2559 H 233.116 -4.16734 3.35017 0
M  V30 2560 H 233.459 -3.8111 1.67513 0
M  V30 2561 H 233.992 -2.67842 2.94118 0
M  V30 2562 H 230.731 -2.77824 5.93712 0
M  V30 2563 H 230.251 -3.84874 4.60034 0
M  V30 2564 H 231.93 -3.85698 5.19467 0
M  V30 2565 N 232.062 -1.29571 -0.897171 0
M  V30 2566 C 233.025 -1.14913 -1.98312 0
M  V30 2567 C 234.025 -0.0838629 -1.60581 0
M  V30 2568 O 235.215 -0.331006 -1.71026 0
M  V30 2569 C 232.347 -0.757835 -3.3237 0
M  V30 2570 H 233.54 -2.11377 -2.12743 0
M  V30 2571 H 231.093 -1.12793 -1.08201 0
M  V30 2572 H 231.828 0.206837 -3.2364 0
M  V30 2573 H 231.613 -1.52755 -3.61121 0
M  V30 2574 H 233.103 -0.678408 -4.12053 0
M  V30 2575 N 233.54 1.10788 -1.12088 0
M  V30 2576 C 234.768 1.86461 -0.896651 0
M  V30 2577 C 235.183 1.80492 0.553912 0
M  V30 2578 O 234.54 1.19102 1.38278 0
M  V30 2579 C 234.591 3.35006 -1.35843 0
M  V30 2580 O 234.312 3.40866 -2.75213 0
M  V30 2581 C 235.813 4.27565 -1.1706 0
M  V30 2582 H 233.033 0.589425 -0.320654 0
M  V30 2583 H 235.577 1.40076 -1.48993 0
M  V30 2584 H 233.732 3.7887 -0.808458 0
M  V30 2585 H 234.146 4.33411 -2.9539 0
M  V30 2586 H 235.62 5.30007 -1.54263 0
M  V30 2587 H 236.097 4.3906 -0.110814 0
M  V30 2588 H 236.703 3.89501 -1.70789 0
M  V30 2589 N 235.018 0.912232 1.28515 0
M  V30 2590 C 235.928 0.404506 2.31086 0
M  V30 2591 C 236.944 -0.50707 1.66448 0
M  V30 2592 O 238.12 -0.393624 1.97516 0
M  V30 2593 C 235.185 -0.348572 3.44943 0
M  V30 2594 C 234.246 0.59604 4.25142 0
M  V30 2595 C 233.479 -0.121194 5.33562 0
M  V30 2596 O 233.702 -1.34317 5.5436 0
M  V30 2597 O 232.636 0.542716 5.99448 0
M  V30 2598 H 236.462 1.25579 2.76521 0
M  V30 2599 H 234.047 0.676998 1.33181 0
M  V30 2600 H 235.929 -0.77395 4.14232 0
M  V30 2601 H 234.604 -1.17571 3.01594 0
M  V30 2602 H 233.511 1.07079 3.58448 0
M  V30 2603 H 234.844 1.38995 4.72167 0
M  V30 2604 N 236.496 -1.42363 0.676048 0
M  V30 2605 C 237.459 -2.29199 0.00766941 0
M  V30 2606 C 238.459 -1.43389 -0.727745 0
M  V30 2607 O 239.649 -1.64764 -0.56556 0
M  V30 2608 C 236.781 -3.2591 -0.999785 0
M  V30 2609 H 237.974 -2.89794 0.771988 0
M  V30 2610 H 235.527 -1.50024 0.438468 0
M  V30 2611 H 236.262 -2.70256 -1.79255 0
M  V30 2612 H 236.047 -3.89202 -0.475829 0
M  V30 2613 H 237.537 -3.91028 -1.46583 0
M  V30 2614 N 237.974 -0.419461 -1.51915 0
M  V30 2615 C 238.924 0.418496 -2.24126 0
M  V30 2616 C 239.908 1.00495 -1.25656 0
M  V30 2617 O 241.1 0.926058 -1.50842 0
M  V30 2618 C 238.229 1.52899 -3.07371 0
M  V30 2619 C 237.315 0.952797 -4.13258 0
M  V30 2620 N 237.706 0.104175 -5.05693 0
M  V30 2621 C 236.004 1.22224 -4.28926 0
M  V30 2622 C 236.705 -0.21752 -5.81293 0
M  V30 2623 N 235.681 0.394293 -5.42168 0
M  V30 2624 H 239.483 -0.236048 -2.92951 0
M  V30 2625 H 236.997 -0.230481 -1.60756 0
M  V30 2626 H 238.994 2.14199 -3.57665 0
M  V30 2627 H 237.654 2.18605 -2.40088 0
M  V30 2628 H 238.665 -0.260924 -5.17242 0
M  V30 2629 H 235.342 1.87812 -3.72871 0
M  V30 2630 H 236.732 -0.906992 -6.6575 0
M  V30 2631 N 239.452 1.56882 -0.150215 0
M  V30 2632 C 240.868 1.58263 0.20617 0
M  V30 2633 C 241.068 1.16464 1.64434 0
M  V30 2634 O 240.124 0.866422 2.3717 0
M  V30 2635 C 241.437 3.00649 -0.0555025 0
M  V30 2636 C 242.985 3.12999 0.00795388 0
M  V30 2637 C 243.46 4.5744 -0.226429 0
M  V30 2638 N 244.951 4.62875 -0.173469 0
M  V30 2639 C 245.686 5.72454 -0.329288 0
M  V30 2640 N 245.182 6.90669 -0.543005 0
M  V30 2641 N 246.975 5.61467 -0.266666 0
M  V30 2642 H 239.126 1.82345 -1.08922 0
M  V30 2643 H 241.389 0.844149 -0.431413 0
M  V30 2644 H 241.095 3.3563 -1.05096 0
M  V30 2645 H 240.969 3.71337 0.66246 0
M  V30 2646 H 243.356 2.77857 0.993966 0
M  V30 2647 H 243.437 2.4479 -0.742388 0
M  V30 2648 H 243.081 4.93287 -1.20956 0
M  V30 2649 H 243.011 5.2378 0.544274 0
M  V30 2650 H 245.502 3.77898 -0.0130709 0
M  V30 2651 H 245.815 7.70045 -0.651922 0
M  V30 2652 H 244.16 6.92581 -0.579366 0
M  V30 2653 H 247.351 4.67992 -0.100441 0
M  V30 2654 H 247.524 6.46816 -0.391535 0
M  V30 2655 N 240.93 -0.123565 1.57115 0
M  V30 2656 C 242.155 -0.850398 1.89164 0
M  V30 2657 C 242.58 -1.7286 0.741688 0
M  V30 2658 O 241.938 -1.78665 -0.307958 0
M  V30 2659 C 241.986 -1.66353 3.19936 0
M  V30 2660 O 241.09 -2.77004 3.0552 0
M  V30 2661 H 240.431 -0.235454 0.620852 0
M  V30 2662 H 242.961 -0.107335 2.04318 0
M  V30 2663 H 242.971 -2.05372 3.52543 0
M  V30 2664 H 241.646 -1.01881 4.03228 0
M  V30 2665 H 240.223 -2.41221 2.84371 0
M  V30 2666 N 242.408 -1.52605 -0.393616 0
M  V30 2667 C 243.636 -1.71294 -1.16043 0
M  V30 2668 C 244.051 -0.429259 -1.83855 0
M  V30 2669 O 243.408 0.595921 -1.72496 0
M  V30 2670 C 243.459 -2.8593 -2.21193 0
M  V30 2671 O 243.18 -4.09329 -1.56146 0
M  V30 2672 C 244.681 -3.16259 -3.10636 0
M  V30 2673 H 241.901 -0.573641 -0.348104 0
M  V30 2674 H 244.445 -1.99234 -0.461092 0
M  V30 2675 H 242.6 -2.60465 -2.86769 0
M  V30 2676 H 243.014 -4.73323 -2.25978 0
M  V30 2677 H 244.488 -3.99946 -3.80456 0
M  V30 2678 H 244.965 -2.3045 -3.73884 0
M  V30 2679 H 245.571 -3.43547 -2.50711 0
M  V30 2680 N 243.887 0.651787 -1.4349 0
M  V30 2681 C 244.835 1.78586 -1.49029 0
M  V30 2682 C 245.829 1.65448 -0.363767 0
M  V30 2683 O 247.035 1.71777 -0.537821 0
M  V30 2684 H 243.41 0.589236 -0.467231 0
M  V30 2685 H 245.381 1.71035 -2.44519 0
M  V30 2686 C 244.13 3.16851 -1.43181 0
M  V30 2687 H 243.453 3.27598 -2.29171 0
M  V30 2688 H 244.893 3.96156 -1.51118 0
M  V30 2689 C 243.352 3.36568 -0.149616 0
M  V30 2690 O 243.882 3.93885 0.788509 0
M  V30 2691 N 242.088 2.90539 -0.0593484 0
M  V30 2692 H 241.635 2.4408 -0.823575 0
M  V30 2693 H 241.593 3.04108 0.797853 0
M  V30 2694 N 245.365 1.30045 0.890287 0
M  V30 2695 C 246.328 1.15963 1.977 0
M  V30 2696 C 247.328 0.0923777 1.60534 0
M  V30 2697 O 248.518 0.340071 1.70848 0
M  V30 2698 C 245.65 0.775451 3.31963 0
M  V30 2699 H 246.843 2.12502 2.11619 0
M  V30 2700 H 244.396 1.13366 1.07601 0
M  V30 2701 H 245.131 -0.189671 3.23745 0
M  V30 2702 H 244.916 1.54668 3.60306 0
M  V30 2703 H 246.406 0.700251 4.11687 0
M  V30 2704 N 246.843 -1.10192 1.12674 0
M  V30 2705 C 247.775 -2.16418 0.754701 0
M  V30 2706 C 248.788 -1.61309 -0.21986 0
M  V30 2707 O 249.977 -1.785 -0.000826841 0
M  V30 2708 C 247.077 -3.38762 0.096698 0
M  V30 2709 C 246.25 -4.23307 1.10136 0
M  V30 2710 C 245.309 -5.24092 0.470513 0
M  V30 2711 O 244.335 -5.57906 1.12824 0
M  V30 2712 N 245.537 -5.75491 -0.760948 0
M  V30 2713 H 248.302 -2.48943 1.66875 0
M  V30 2714 H 245.863 -1.25834 1.01869 0
M  V30 2715 H 247.855 -4.03291 -0.337384 0
M  V30 2716 H 246.425 -3.04192 -0.720153 0
M  V30 2717 H 245.645 -3.55036 1.71299 0
M  V30 2718 H 246.933 -4.76624 1.78064 0
M  V30 2719 H 246.331 -5.50222 -1.31424 0
M  V30 2720 H 244.888 -6.41792 -1.13781 0
M  V30 2721 N 248.321 -0.919034 -1.28029 0
M  V30 2722 C 249.569 -0.553838 -1.94363 0
M  V30 2723 C 249.89 0.906357 -1.72656 0
M  V30 2724 O 249.16 1.64143 -1.0693 0
M  V30 2725 H 247.74 -0.201834 -0.719216 0
M  V30 2726 H 250.402 -1.16954 -1.55909 0
M  V30 2727 H 249.498 -0.752758 -3.02886 0
M  V30 2728 N 249.799 1.42003 -0.683588 0
M  V30 2729 C 251.024 2.06265 -0.216647 0
M  V30 2730 C 251.449 1.51059 1.12083 0
M  V30 2731 O 250.807 0.632638 1.69904 0
M  V30 2732 C 250.855 3.60191 -0.171759 0
M  V30 2733 O 249.959 4.03396 0.857069 0
M  V30 2734 H 249.3 0.65502 -0.108834 0
M  V30 2735 H 251.83 1.81982 -0.935077 0
M  V30 2736 H 251.84 4.08 0.0014303 0
M  V30 2737 H 250.515 3.99743 -1.14796 0
M  V30 2738 H 249.092 3.67117 0.654208 0
M  V30 2739 N 251.277 0.427512 1.51691 0
M  V30 2740 C 252.227 -0.406604 2.24345 0
M  V30 2741 C 253.211 -0.998276 1.26187 0
M  V30 2742 O 254.403 -0.918045 1.51331 0
M  V30 2743 C 251.532 -1.51266 3.08177 0
M  V30 2744 C 250.618 -0.930868 4.13758 0
M  V30 2745 N 251.009 -0.0773552 5.05741 0
M  V30 2746 C 249.307 -1.19948 4.29568 0
M  V30 2747 C 250.008 0.248344 5.8117 0
M  V30 2748 N 248.984 -0.365535 5.4237 0
M  V30 2749 H 252.786 0.251581 2.92821 0
M  V30 2750 H 250.3 0.239003 1.60632 0
M  V30 2751 H 252.297 -2.123 3.58796 0
M  V30 2752 H 250.957 -2.17328 2.41244 0
M  V30 2753 H 251.968 0.288351 5.17097 0
M  V30 2754 H 248.645 -1.85832 3.73862 0
M  V30 2755 H 250.035 0.942286 6.6526 0
M  V30 2756 N 252.755 -1.56801 0.158532 0
M  V30 2757 C 254.001 -1.97559 -0.483957 0
M  V30 2758 C 254.356 -1.04239 -1.61716 0
M  V30 2759 O 253.649 -0.079603 -1.91435 0
M  V30 2760 C 253.843 -3.4235 -1.02623 0
M  V30 2761 C 253.672 -4.49669 0.0528929 0
M  V30 2762 C 252.442 -5.02838 0.498234 0
M  V30 2763 C 254.64 -5.0725 0.848616 0
M  V30 2764 N 252.622 -5.93775 1.559 0
M  V30 2765 C 253.993 -5.94506 1.7596 0
M  V30 2766 C 256.048 -4.89788 0.895121 0
M  V30 2767 C 254.751 -6.66169 2.71314 0
M  V30 2768 C 256.777 -5.62161 1.83654 0
M  V30 2769 C 256.139 -6.49134 2.73503 0
M  V30 2770 H 252.238 -0.768332 -0.145566 0
M  V30 2771 H 254.822 -1.93012 0.255799 0
M  V30 2772 H 252.993 -3.47467 -1.73555 0
M  V30 2773 H 254.725 -3.70145 -1.63629 0
M  V30 2774 H 251.48 -4.73498 0.0983222 0
M  V30 2775 H 251.904 -6.43948 2.08949 0
M  V30 2776 H 256.546 -4.22255 0.21453 0
M  V30 2777 H 254.264 -7.32923 3.40367 0
M  V30 2778 H 257.85 -5.5064 1.87847 0
M  V30 2779 H 256.73 -7.04153 3.45163 0
M  V30 2780 N 254.233 0.115231 -1.57178 0
M  V30 2781 C 255.18 1.14115 -2.00615 0
M  V30 2782 C 256.15 1.40939 -0.878941 0
M  V30 2783 O 257.335 1.52741 -1.14345 0
M  V30 2784 C 254.475 2.46156 -2.4187 0
M  V30 2785 C 253.588 2.26236 -3.68024 0
M  V30 2786 C 252.723 3.51534 -3.98243 0
M  V30 2787 C 251.762 3.26787 -5.17568 0
M  V30 2788 N 250.899 4.44298 -5.43639 0
M  V30 2789 H 255.739 0.763743 -2.88047 0
M  V30 2790 H 253.276 0.365615 -1.42484 0
M  V30 2791 H 255.234 3.23189 -2.63827 0
M  V30 2792 H 253.864 2.81783 -1.57475 0
M  V30 2793 H 252.916 1.40102 -3.5366 0
M  V30 2794 H 254.228 2.03929 -4.55208 0
M  V30 2795 H 253.382 4.36984 -4.20868 0
M  V30 2796 H 252.121 3.76876 -3.09541 0
M  V30 2797 H 251.126 2.39729 -4.94783 0
M  V30 2798 H 252.351 3.02812 -6.0785 0
M  V30 2799 H 250.297 4.69754 -4.57895 0
M  V30 2800 H 250.214 4.25109 -6.25154 0
M  V30 2801 H 251.482 5.3087 -5.70786 0
M  V30 2802 N 255.711 1.52812 0.385517 0
M  V30 2803 C 256.643 1.74096 1.49074 0
M  V30 2804 C 257.656 0.621462 1.50472 0
M  V30 2805 O 258.845 0.897245 1.54311 0
M  V30 2806 C 255.945 1.78774 2.87911 0
M  V30 2807 C 255.118 3.08134 3.10439 0
M  V30 2808 C 254.177 3.04313 4.29278 0
M  V30 2809 O 253.203 3.78168 4.25415 0
M  V30 2810 N 254.405 2.23741 5.35649 0
M  V30 2811 H 257.17 2.69455 1.31202 0
M  V30 2812 H 254.731 1.51343 0.575065 0
M  V30 2813 H 256.723 1.73721 3.65518 0
M  V30 2814 H 255.293 0.907869 2.99126 0
M  V30 2815 H 254.513 3.26649 2.20667 0
M  V30 2816 H 255.801 3.93662 3.22347 0
M  V30 2817 H 255.199 1.63211 5.41645 0
M  V30 2818 H 253.756 2.24524 6.11909 0
M  V30 2819 N 257.189 -0.644168 1.43834 0
M  V30 2820 C 258.605 -0.960875 1.27434 0
M  V30 2821 C 258.805 -2.00499 0.200618 0
M  V30 2822 O 257.861 -2.49018 -0.417906 0
M  V30 2823 C 259.174 -1.43653 2.64167 0
M  V30 2824 C 260.722 -1.55271 2.71772 0
M  V30 2825 C 261.197 -2.06224 4.08944 0
M  V30 2826 N 262.688 -2.13513 4.11055 0
M  V30 2827 C 263.423 -2.54081 5.14033 0
M  V30 2828 N 262.919 -2.9388 6.27381 0
M  V30 2829 N 264.712 -2.54101 5.01387 0
M  V30 2830 H 256.863 0.0465779 2.12349 0
M  V30 2831 H 259.126 -0.0417638 0.94708 0
M  V30 2832 H 258.832 -0.743706 3.43747 0
M  V30 2833 H 258.706 -2.40993 2.90176 0
M  V30 2834 H 261.093 -2.23653 1.92519 0
M  V30 2835 H 261.174 -0.563395 2.49519 0
M  V30 2836 H 260.818 -1.38441 4.88668 0
M  V30 2837 H 260.748 -3.06003 4.28567 0
M  V30 2838 H 263.239 -1.85493 3.29242 0
M  V30 2839 H 263.552 -3.2361 7.01781 0
M  V30 2840 H 261.897 -2.91663 6.30839 0
M  V30 2841 H 265.088 -2.22391 4.11898 0
M  V30 2842 H 265.261 -2.85394 5.81768 0
M  V30 2843 N 258.668 -1.30515 -0.883378 0
M  V30 2844 C 260.084 -1.08881 -1.16692 0
M  V30 2845 C 260.284 0.149409 -2.00945 0
M  V30 2846 O 259.34 0.84257 -2.38027 0
M  V30 2847 C 260.653 -2.35319 -1.87204 0
M  V30 2848 C 262.201 -2.40799 -1.99962 0
M  V30 2849 C 262.676 -3.67083 -2.73887 0
M  V30 2850 N 264.167 -3.679 -2.81432 0
M  V30 2851 C 264.902 -4.62303 -3.3921 0
M  V30 2852 N 264.398 -5.67052 -3.98025 0
M  V30 2853 N 266.191 -4.49845 -3.3704 0
M  V30 2854 H 258.342 -2.09951 -0.321633 0
M  V30 2855 H 260.605 -0.92556 -0.205043 0
M  V30 2856 H 260.311 -3.25689 -1.3274 0
M  V30 2857 H 260.185 -2.44089 -2.87577 0
M  V30 2858 H 262.572 -1.50907 -2.53597 0
M  V30 2859 H 262.653 -2.36003 -0.98673 0
M  V30 2860 H 262.297 -4.57334 -2.20925 0
M  V30 2861 H 262.227 -3.69141 -3.75556 0
M  V30 2862 H 264.718 -2.92171 -2.39676 0
M  V30 2863 H 265.031 -6.35184 -4.40183 0
M  V30 2864 H 263.376 -5.70842 -3.96439 0
M  V30 2865 H 266.567 -3.67194 -2.90321 0
M  V30 2866 H 266.74 -5.23597 -3.81772 0
M  V30 2867 N 260.146 1.09593 -1.13257 0
M  V30 2868 C 261.093 2.1618 -0.808381 0
M  V30 2869 C 262.063 1.64517 0.228754 0
M  V30 2870 O 263.248 1.9053 0.101381 0
M  V30 2871 C 260.388 3.43973 -0.278675 0
M  V30 2872 C 259.501 4.09545 -1.37466 0
M  V30 2873 C 258.636 5.25088 -0.803479 0
M  V30 2874 C 257.675 5.82579 -1.87799 0
M  V30 2875 N 256.812 6.89486 -1.32488 0
M  V30 2876 H 261.652 2.43254 -1.72138 0
M  V30 2877 H 259.189 1.19392 -0.859294 0
M  V30 2878 H 261.147 4.17174 0.0465583 0
M  V30 2879 H 259.777 3.17223 0.597459 0
M  V30 2880 H 258.829 3.34226 -1.81652 0
M  V30 2881 H 260.141 4.48307 -2.18684 0
M  V30 2882 H 259.295 6.05178 -0.429427 0
M  V30 2883 H 258.034 4.87684 0.0397956 0
M  V30 2884 H 257.039 5.01152 -2.26113 0
M  V30 2885 H 258.264 6.22045 -2.72463 0
M  V30 2886 H 256.21 6.54064 -0.503575 0
M  V30 2887 H 256.127 7.27007 -2.07355 0
M  V30 2888 H 257.395 7.73336 -0.978336 0
M  V30 2889 N 261.624 0.925811 1.2754 0
M  V30 2890 C 262.871 0.565255 1.94451 0
M  V30 2891 C 263.199 -0.89316 1.7278 0
M  V30 2892 O 262.454 -1.65213 1.04895 0
M  V30 2893 C 262.753 0.835296 3.47502 0
M  V30 2894 C 262.419 2.27515 3.89291 0
M  V30 2895 C 261.081 2.66879 4.00411 0
M  V30 2896 C 263.433 3.21158 4.10496 0
M  V30 2897 C 260.761 3.99014 4.30122 0
M  V30 2898 C 263.113 4.52871 4.4169 0
M  V30 2899 C 261.777 4.92072 4.51023 0
M  V30 2900 H 261.047 0.206841 0.711546 0
M  V30 2901 H 263.694 1.16942 1.51647 0
M  V30 2902 H 261.999 0.148442 3.91519 0
M  V30 2903 H 263.696 0.535322 3.97411 0
M  V30 2904 H 260.286 1.95976 3.81171 0
M  V30 2905 H 264.47 2.9195 4.01346 0
M  V30 2906 H 259.726 4.2907 4.35556 0
M  V30 2907 H 263.9 5.25436 4.57045 0
M  V30 2908 H 261.527 5.9449 4.738 0
M  V30 2909 N 263.102 -1.41638 0.69111 0
M  V30 2910 C 264.032 -2.3347 0.037248 0
M  V30 2911 C 265.013 -1.51575 -0.771947 0
M  V30 2912 O 266.198 -1.80126 -0.72582 0
M  V30 2913 C 263.328 -3.35354 -0.903064 0
M  V30 2914 C 262.282 -4.27526 -0.201288 0
M  V30 2915 C 261.608 -5.19747 -1.25565 0
M  V30 2916 C 262.908 -5.13959 0.929689 0
M  V30 2917 H 264.602 -2.88397 0.804227 0
M  V30 2918 H 262.148 -1.38669 0.388189 0
M  V30 2919 H 264.101 -3.98519 -1.36969 0
M  V30 2920 H 262.825 -2.78767 -1.70166 0
M  V30 2921 H 261.484 -3.65779 0.245265 0
M  V30 2922 H 261.132 -4.59479 -2.04666 0
M  V30 2923 H 260.832 -5.8225 -0.791128 0
M  V30 2924 H 262.356 -5.85789 -1.72288 0
M  V30 2925 H 263.77 -5.70718 0.543546 0
M  V30 2926 H 262.167 -5.85379 1.32103 0
M  V30 2927 H 263.237 -4.51389 1.77133 0
M  V30 2928 N 264.58 -0.43555 -1.51462 0
M  V30 2929 C 265.991 0.0279871 -1.86679 0
M  V30 2930 C 266.342 1.42104 -1.35281 0
M  V30 2931 O 265.467 2.04667 -0.702878 0
M  V30 2932 C 266.062 0.0575626 -3.38751 0
M  V30 2933 C 264.621 0.465507 -3.7351 0
M  V30 2934 C 263.768 -0.342996 -2.75171 0
M  V30 2935 H 266.719 -0.651473 -1.44712 0
M  V30 2936 H 266.74 0.867421 -3.70481 0
M  V30 2937 H 266.252 -0.956448 -3.7613 0
M  V30 2938 H 264.353 1.48519 -3.41721 0
M  V30 2939 H 264.466 0.191546 -4.78717 0
M  V30 2940 H 262.83 0.198442 -2.53926 0
M  V30 2941 H 263.613 -1.35585 -3.15391 0
M  V30 2942 N 266.058 1.56714 -0.166846 0
M  V30 2943 C 267.335 1.88412 0.525373 0
M  V30 2944 C 267.715 1.07602 1.81618 0
M  V30 2945 O 267.063 0.168621 2.27877 0
M  V30 2946 C 267.273 3.40363 0.771613 0
M  V30 2947 C 268.621 4.10007 1.1036 0
M  V30 2948 O 269.645 3.45655 0.860304 0
M  V30 2949 O 268.504 5.2369 1.56239 0
M  V30 2950 H 265.598 0.781587 0.270278 0
M  V30 2951 H 268.144 1.68458 -0.204946 0
M  V30 2952 H 266.916 3.91046 -0.141093 0
M  V30 2953 H 266.539 3.65914 1.55541 0
M  V30 2954 N 267.536 -0.106894 1.57237 0
M  V30 2955 C 268.813 -0.843526 1.76477 0
M  V30 2956 C 269.193 -1.97499 0.745464 0
M  V30 2957 O 268.541 -2.27357 -0.228306 0
M  V30 2958 C 268.751 -1.34903 3.21873 0
M  V30 2959 C 270.099 -1.79654 3.8472 0
M  V30 2960 O 271.123 -1.44554 3.2555 0
M  V30 2961 O 269.982 -2.44515 4.88748 0
M  V30 2962 H 267.076 -0.401468 0.723016 0
M  V30 2963 H 269.622 -0.0896927 1.69463 0
M  V30 2964 H 268.394 -0.53781 3.87586 0
M  V30 2965 H 268.017 -2.16522 3.33473 0
M  V30 2966 N 269.014 -1.53014 -0.377408 0
M  V30 2967 C 270.263 -1.67845 -1.11853 0
M  V30 2968 C 270.576 -0.430625 -1.90801 0
M  V30 2969 O 271.782 -0.459261 -2.67587 0
M  V30 2970 C 270.238 -2.96668 -2.03756 0
M  V30 2971 C 269.846 -4.28671 -1.30175 0
M  V30 2972 C 271.59 -3.20865 -2.77932 0
M  V30 2973 C 269.497 -5.48591 -2.20911 0
M  V30 2974 H 268.427 -0.625343 -0.421263 0
M  V30 2975 H 271.078 -1.79514 -0.380409 0
M  V30 2976 H 269.46 -2.78773 -2.8125 0
M  V30 2977 H 270.634 -4.57157 -0.578259 0
M  V30 2978 H 268.949 -4.10825 -0.679108 0
M  V30 2979 H 271.546 -4.07642 -3.46024 0
M  V30 2980 H 271.889 -2.36424 -3.4265 0
M  V30 2981 H 272.422 -3.39379 -2.07525 0
M  V30 2982 H 269.161 -6.35474 -1.6079 0
M  V30 2983 H 268.681 -5.244 -2.91144 0
M  V30 2984 H 270.36 -5.8292 -2.80736 0
M  V30 2985 N 270.492 0.636531 -1.44174 0
M  V30 2986 C 271.74 1.39343 -1.46383 0
M  V30 2987 C 272.061 1.94766 -0.0955715 0
M  V30 2988 O 271.331 1.75452 0.871395 0
M  V30 2989 H 269.911 0.517199 -0.538994 0
M  V30 2990 H 272.573 0.74957 -1.7991 0
M  V30 2991 H 271.669 2.22746 -2.18611 0
M  V30 2992 N 271.97 1.30982 0.876444 0
M  V30 2993 C 272.902 1.13902 1.98894 0
M  V30 2994 C 273.915 0.0798815 1.62604 0
M  V30 2995 O 275.104 0.326743 1.75484 0
M  V30 2996 C 272.204 0.716699 3.31235 0
M  V30 2997 C 271.377 1.85945 3.95908 0
M  V30 2998 C 270.436 1.42426 5.06558 0
M  V30 2999 O 269.462 2.13287 5.27729 0
M  V30 3000 N 270.664 0.308025 5.79682 0
M  V30 3001 H 273.429 2.09724 2.14094 0
M  V30 3002 H 270.99 1.2323 1.05004 0
M  V30 3003 H 272.982 0.408403 4.02634 0
M  V30 3004 H 271.552 -0.149719 3.12241 0
M  V30 3005 H 270.772 2.33541 3.17573 0
M  V30 3006 H 272.06 2.62503 4.35855 0
M  V30 3007 H 271.458 -0.282241 5.64995 0
M  V30 3008 H 270.015 0.0592282 6.51773 0
M  V30 3009 N 273.449 -1.08991 1.13837 0
M  V30 3010 C 274.674 -1.85551 0.926585 0
M  V30 3011 C 275.099 -1.80782 -0.519566 0
M  V30 3012 O 274.457 -1.18855 -1.36906 0
M  V30 3013 C 274.505 -3.31266 1.42462 0
M  V30 3014 O 273.609 -4.07822 0.612789 0
M  V30 3015 H 272.95 -0.575192 0.331738 0
M  V30 3016 H 275.48 -1.37604 1.51414 0
M  V30 3017 H 275.49 -3.82112 1.43019 0
M  V30 3018 H 274.165 -3.34052 2.47754 0
M  V30 3019 H 272.742 -3.66731 0.675463 0
M  V30 3020 N 274.927 -0.932562 -1.27047 0
M  V30 3021 C 276.338 -0.619451 -1.76124 0
M  V30 3022 C 276.689 0.865397 -1.76083 0
M  V30 3023 O 275.814 1.67722 -1.36742 0
M  V30 3024 C 276.409 -1.11771 -3.19832 0
M  V30 3025 C 274.968 -0.855174 -3.66557 0
M  V30 3026 C 274.115 -1.27362 -2.46321 0
M  V30 3027 H 277.066 -1.11181 -1.13245 0
M  V30 3028 H 277.087 -0.46759 -3.77616 0
M  V30 3029 H 276.599 -2.19842 -3.1983 0
M  V30 3030 H 274.7 0.211524 -3.71999 0
M  V30 3031 H 274.813 -1.47613 -4.55793 0
M  V30 3032 H 273.177 -0.692119 -2.45116 0
M  V30 3033 H 273.96 -2.36307 -2.49025 0
M  V30 3034 N 276.405 1.4127 -0.698611 0
M  V30 3035 C 277.654 2.00408 -0.227949 0
M  V30 3036 C 277.967 1.55981 1.18023 0
M  V30 3037 O 279.173 2.07699 1.74852 0
M  V30 3038 C 277.629 3.58129 -0.356636 0
M  V30 3039 C 277.237 4.11536 -1.77037 0
M  V30 3040 C 278.981 4.24466 0.0540969 0
M  V30 3041 C 276.888 5.61701 -1.85055 0
M  V30 3042 H 275.818 0.749586 -0.0814657 0
M  V30 3043 H 278.469 1.61713 -0.867249 0
M  V30 3044 H 276.851 3.94442 0.350965 0
M  V30 3045 H 278.025 3.86636 -2.50698 0
M  V30 3046 H 276.34 3.57736 -2.13105 0
M  V30 3047 H 278.937 5.34698 0.0146723 0
M  V30 3048 H 279.28 4.01687 1.09332 0
M  V30 3049 H 279.813 3.93198 -0.603337 0
M  V30 3050 H 276.552 5.89312 -2.8704 0
M  V30 3051 H 276.072 5.88519 -1.15783 0
M  V30 3052 H 277.751 6.26524 -1.61484 0
M  V30 3053 N 277.883 0.443576 1.51229 0
M  V30 3054 C 279.129 -0.120975 2.02439 0
M  V30 3055 C 279.462 -1.41815 1.32674 0
M  V30 3056 O 278.737 -1.89373 0.443622 0
M  V30 3057 C 279.02 -0.333291 3.58554 0
M  V30 3058 C 278.873 0.982968 4.38928 0
M  V30 3059 C 280.192 -1.10028 4.26124 0
M  V30 3060 H 277.311 -0.0424923 0.735774 0
M  V30 3061 H 279.953 0.583794 1.80809 0
M  V30 3062 H 278.103 -0.933614 3.77115 0
M  V30 3063 H 279.775 1.61775 4.32003 0
M  V30 3064 H 278.018 1.58611 4.03763 0
M  V30 3065 H 278.689 0.788379 5.46341 0
M  V30 3066 H 281.165 -0.591711 4.11871 0
M  V30 3067 H 280.041 -1.21761 5.35225 0
M  V30 3068 H 280.302 -2.12996 3.87408 0
M  V30 3069 N 279.361 -1.56624 0.175154 0
M  V30 3070 C 280.586 -2.01813 -0.478137 0
M  V30 3071 C 281.011 -1.05457 -1.55757 0
M  V30 3072 O 280.369 -0.0347439 -1.81267 0
M  V30 3073 C 280.417 -3.45581 -1.02987 0
M  V30 3074 O 279.521 -3.52305 -2.14371 0
M  V30 3075 H 278.862 -0.65413 -0.114059 0
M  V30 3076 H 281.392 -2.02673 0.280173 0
M  V30 3077 H 281.402 -3.84965 -1.35151 0
M  V30 3078 H 280.077 -4.1521 -0.239556 0
M  V30 3079 H 278.654 -3.24783 -1.83222 0
M  V30 3080 N 280.839 0.0985539 -1.57292 0
M  V30 3081 C 281.772 1.15082 -1.97057 0
M  V30 3082 C 282.75 1.39025 -0.843255 0
M  V30 3083 O 283.934 1.52842 -1.10325 0
M  V30 3084 C 281.061 2.50069 -2.28437 0
M  V30 3085 C 280.107 2.42428 -3.509 0
M  V30 3086 S 280.94 1.84414 -5.02744 0
M  V30 3087 C 282.096 3.21032 -5.37298 0
M  V30 3088 H 282.329 0.811815 -2.86002 0
M  V30 3089 H 279.862 0.306102 -1.51335 0
M  V30 3090 H 281.82 3.27729 -2.47192 0
M  V30 3091 H 280.481 2.8114 -1.40069 0
M  V30 3092 H 279.674 3.41911 -3.70288 0
M  V30 3093 H 279.276 1.72896 -3.31637 0
M  V30 3094 H 281.568 4.17297 -5.33731 0
M  V30 3095 H 282.511 3.06452 -6.38352 0
M  V30 3096 H 282.919 3.20404 -4.64759 0
M  V30 3097 N 282.317 1.53212 0.369288 0
M  V30 3098 C 283.728 1.60943 0.946276 0
M  V30 3099 C 284.079 0.47452 1.90375 0
M  V30 3100 O 283.204 -0.399597 2.12679 0
M  V30 3101 C 283.799 2.91715 1.72302 0
M  V30 3102 C 282.358 3.01792 2.24941 0
M  V30 3103 C 281.505 2.56211 1.06072 0
M  V30 3104 H 284.456 1.58007 0.148198 0
M  V30 3105 H 284.477 2.79309 2.58393 0
M  V30 3106 H 283.989 3.74295 1.0259 0
M  V30 3107 H 282.09 2.23791 2.97906 0
M  V30 3108 H 282.203 4.06803 2.53077 0
M  V30 3109 H 280.567 2.10998 1.4266 0
M  V30 3110 H 281.35 3.41206 0.378639 0
M  V30 3111 N 283.795 -0.628877 1.44509 0
M  V30 3112 C 285.072 -1.38733 1.37886 0
M  V30 3113 C 285.452 -2.11065 0.0387008 0
M  V30 3114 O 284.8 -2.06476 -0.97878 0
M  V30 3115 C 285.01 -2.35188 2.57852 0
M  V30 3116 C 286.358 -2.9845 3.02014 0
M  V30 3117 O 287.382 -2.45513 2.58073 0
M  V30 3118 O 286.241 -3.94487 3.78209 0
M  V30 3119 H 283.335 -0.621015 0.54614 0
M  V30 3120 H 285.881 -0.653744 1.56602 0
M  V30 3121 H 284.653 -1.80855 3.46998 0
M  V30 3122 H 284.276 -3.1596 2.4136 0
M  V30 3123 N 285.273 -1.31445 -0.869486 0
M  V30 3124 C 286.521 -1.20918 -1.61936 0
M  V30 3125 C 286.842 0.232683 -1.93607 0
M  V30 3126 O 286.112 1.15352 -1.58338 0
M  V30 3127 H 284.692 -0.44454 -0.600328 0
M  V30 3128 H 287.354 -1.64776 -1.0409 0
M  V30 3129 H 286.45 -1.78124 -2.56278 0
M  V30 3130 N 286.751 1.08385 -1.14413 0
M  V30 3131 C 288.028 1.77429 -0.823297 0
M  V30 3132 C 288.408 1.9974 0.683163 0
M  V30 3133 O 287.756 1.60739 1.62405 0
M  V30 3134 C 287.966 3.09004 -1.62227 0
M  V30 3135 C 289.314 3.83532 -1.82177 0
M  V30 3136 O 290.338 3.18786 -1.58915 0
M  V30 3137 O 289.197 4.99792 -2.21067 0
M  V30 3138 H 286.291 0.769999 -0.301712 0
M  V30 3139 H 288.837 1.14846 -1.24934 0
M  V30 3140 H 287.609 2.88316 -2.64555 0
M  V30 3141 H 287.232 3.79316 -1.19187 0
M  V30 3142 N 288.23 0.939286 1.26551 0
M  V30 3143 C 289.177 0.446088 2.26448 0
M  V30 3144 C 290.147 -0.493234 1.58608 0
M  V30 3145 O 291.332 -0.409857 1.86346 0
M  V30 3146 C 288.472 -0.284375 3.43926 0
M  V30 3147 C 287.585 0.690399 4.26448 0
M  V30 3148 C 286.72 -0.0610712 5.31165 0
M  V30 3149 C 285.759 0.905649 6.05363 0
M  V30 3150 N 284.896 0.186055 7.01853 0
M  V30 3151 H 289.736 1.30291 2.68008 0
M  V30 3152 H 287.273 0.65371 1.31776 0
M  V30 3153 H 289.231 -0.724313 4.10864 0
M  V30 3154 H 287.861 -1.10535 3.03285 0
M  V30 3155 H 286.913 1.24885 3.59316 0
M  V30 3156 H 288.225 1.42873 4.779 0
M  V30 3157 H 287.379 -0.56038 6.04106 0
M  V30 3158 H 286.118 -0.832297 4.80546 0
M  V30 3159 H 285.123 1.4161 5.3125 0
M  V30 3160 H 286.348 1.67685 6.58072 0
M  V30 3161 H 284.294 -0.566714 6.53548 0
M  V30 3162 H 284.211 0.863752 7.51049 0
M  V30 3163 H 285.479 -0.292221 7.78952 0
M  V30 3164 N 289.708 -1.40897 0.706093 0
M  V30 3165 C 290.954 -2.01352 0.241889 0
M  V30 3166 C 291.287 -1.55832 -1.15888 0
M  V30 3167 O 290.562 -0.774145 -1.7843 0
M  V30 3168 C 290.845 -3.58752 0.311311 0
M  V30 3169 C 290.698 -4.1437 1.74978 0
M  V30 3170 C 292.017 -4.38914 -0.322922 0
M  V30 3171 H 289.136 -0.731562 0.0893687 0
M  V30 3172 H 291.778 -1.67504 0.896802 0
M  V30 3173 H 289.928 -3.87718 -0.246302 0
M  V30 3174 H 291.6 -3.96239 2.36205 0
M  V30 3175 H 289.843 -3.69016 2.28057 0
M  V30 3176 H 290.514 -5.23532 1.74981 0
M  V30 3177 H 292.99 -4.15822 0.152089 0
M  V30 3178 H 291.866 -5.48358 -0.243855 0
M  V30 3179 H 292.127 -4.19176 -1.40513 0
M  V30 3180 N 291.186 -0.45159 -1.50991 0
M  V30 3181 C 292.463 0.170707 -1.94854 0
M  V30 3182 C 292.843 1.58788 -1.39103 0
M  V30 3183 O 292.191 2.20913 -0.583921 0
M  V30 3184 C 292.401 0.133929 -3.48743 0
M  V30 3185 C 293.749 0.33248 -4.23296 0
M  V30 3186 O 294.773 0.211403 -3.55572 0
M  V30 3187 O 293.632 0.57486 -5.43468 0
M  V30 3188 H 290.726 0.122264 -0.817912 0
M  V30 3189 H 293.272 -0.510594 -1.61836 0
M  V30 3190 H 292.044 -0.856283 -3.81816 0
M  V30 3191 H 291.667 0.857529 -3.88242 0
M  V30 3192 N 292.664 1.56529 -0.183458 0
M  V30 3193 C 293.594 2.21549 0.737456 0
M  V30 3194 C 294.575 1.17489 1.23005 0
M  V30 3195 O 295.76 1.45959 1.281 0
M  V30 3196 C 292.89 2.86575 1.96194 0
M  V30 3197 C 291.844 3.96778 1.60473 0
M  V30 3198 C 291.17 4.48911 2.90487 0
M  V30 3199 C 292.47 5.15767 0.823497 0
M  V30 3200 H 294.164 2.98761 0.195453 0
M  V30 3201 H 291.71 1.43702 0.0925686 0
M  V30 3202 H 293.663 3.30739 2.61131 0
M  V30 3203 H 292.387 2.06749 2.52828 0
M  V30 3204 H 291.046 3.53286 0.978997 0
M  V30 3205 H 290.694 3.65862 3.45186 0
M  V30 3206 H 290.394 5.23265 2.67335 0
M  V30 3207 H 291.918 4.95771 3.56432 0
M  V30 3208 H 293.332 5.56549 1.37571 0
M  V30 3209 H 291.729 5.96114 0.690551 0
M  V30 3210 H 292.799 4.84574 -0.177782 0
M  V30 3211 N 294.142 -0.090211 1.57342 0
M  V30 3212 C 295.052 -1.12735 2.05738 0
M  V30 3213 C 296.068 -1.43557 0.983231 0
M  V30 3214 O 297.244 -1.54101 1.29672 0
M  V30 3215 C 294.309 -2.42659 2.47624 0
M  V30 3216 C 293.37 -2.18975 3.69254 0
M  V30 3217 C 292.603 -3.42704 4.09133 0
M  V30 3218 O 292.826 -4.51127 3.49057 0
M  V30 3219 O 291.76 -3.32003 5.02053 0
M  V30 3220 H 295.586 -0.746279 2.94388 0
M  V30 3221 H 293.171 -0.303064 1.46294 0
M  V30 3222 H 295.053 -3.19155 2.7517 0
M  V30 3223 H 293.728 -2.80182 1.62109 0
M  V30 3224 H 292.635 -1.40244 3.46818 0
M  V30 3225 H 293.968 -1.86342 4.55563 0
M  V30 3226 N 295.62 -1.53406 -0.361157 0
M  V30 3227 C 296.583 -1.79479 -1.42548 0
M  V30 3228 C 297.583 -0.665327 -1.4639 0
M  V30 3229 O 298.773 -0.933549 -1.47073 0
M  V30 3230 C 295.905 -1.92087 -2.8163 0
M  V30 3231 H 297.098 -2.74538 -1.20701 0
M  V30 3232 H 294.651 -1.4455 -0.594546 0
M  V30 3233 H 295.386 -0.991099 -3.08784 0
M  V30 3234 H 295.171 -2.74241 -2.80239 0
M  V30 3235 H 296.661 -2.13836 -3.58697 0
M  V30 3236 N 297.098 0.621204 -1.44841 0
M  V30 3237 C 298.345 1.38055 -1.48145 0
M  V30 3238 C 298.673 1.94143 -0.117867 0
M  V30 3239 O 297.928 1.74713 0.881694 0
M  V30 3240 C 298.227 2.55675 -2.4973 0
M  V30 3241 C 297.893 2.17817 -3.94799 0
M  V30 3242 C 296.555 2.07205 -4.34303 0
M  V30 3243 C 298.907 1.88065 -4.86087 0
M  V30 3244 C 296.235 1.65045 -5.63007 0
M  V30 3245 C 298.587 1.47394 -6.15189 0
M  V30 3246 C 297.251 1.35331 -6.53637 0
M  V30 3247 H 296.521 0.505181 -0.542101 0
M  V30 3248 H 299.168 0.703477 -1.78111 0
M  V30 3249 H 297.473 3.2866 -2.13284 0
M  V30 3250 H 299.17 3.13904 -2.4953 0
M  V30 3251 H 295.76 2.26998 -3.63552 0
M  V30 3252 H 299.944 1.95168 -4.56315 0
M  V30 3253 H 295.2 1.54317 -5.91605 0
M  V30 3254 H 299.374 1.23415 -6.85377 0
M  V30 3255 H 297.001 1.02435 -7.53267 0
M  V30 3256 N 298.576 1.31904 0.862503 0
M  V30 3257 C 299.801 1.25135 1.65397 0
M  V30 3258 C 300.226 -0.179 1.87246 0
M  V30 3259 O 299.584 -1.1277 1.4196 0
M  V30 3260 C 299.632 2.00832 2.99498 0
M  V30 3261 O 298.736 1.35075 3.89652 0
M  V30 3262 H 298.077 0.431655 0.504549 0
M  V30 3263 H 300.607 1.74094 1.07483 0
M  V30 3264 H 300.617 2.10709 3.49379 0
M  V30 3265 H 299.292 3.04847 2.82916 0
M  V30 3266 H 297.869 1.33696 3.48109 0
M  V30 3267 N 300.054 -1.07777 1.14986 0
M  V30 3268 C 300.964 -2.18404 0.856546 0
M  V30 3269 C 301.98 -1.73211 -0.165485 0
M  V30 3270 O 303.156 -2.01399 0.00755219 0
M  V30 3271 C 300.221 -3.44977 0.34526 0
M  V30 3272 C 299.282 -4.0476 1.43065 0
M  V30 3273 C 298.515 -5.25291 0.943663 0
M  V30 3274 O 298.738 -5.70004 -0.212426 0
M  V30 3275 O 297.672 -5.76638 1.72547 0
M  V30 3276 H 301.498 -2.45978 1.78125 0
M  V30 3277 H 299.083 -1.17033 0.928631 0
M  V30 3278 H 300.965 -4.21348 0.0663671 0
M  V30 3279 H 299.64 -3.18965 -0.551631 0
M  V30 3280 H 298.547 -3.29949 1.76309 0
M  V30 3281 H 299.88 -4.35035 2.30229 0
M  V30 3282 N 301.532 -0.945985 -1.26051 0
M  V30 3283 C 302.779 -0.596118 -1.93527 0
M  V30 3284 C 303.107 0.865559 -1.74179 0
M  V30 3285 O 302.362 1.63524 -1.0751 0
M  V30 3286 C 302.661 -0.890475 -3.46129 0
M  V30 3287 C 302.327 -2.3368 -3.85622 0
M  V30 3288 C 300.989 -2.73216 -3.96114 0
M  V30 3289 C 303.341 -3.27648 -4.05334 0
M  V30 3290 C 300.669 -4.05806 -4.2372 0
M  V30 3291 C 303.021 -4.59841 -4.3443 0
M  V30 3292 C 301.685 -4.99185 -4.43137 0
M  V30 3293 H 300.955 -0.218135 -0.708165 0
M  V30 3294 H 303.602 -1.1934 -1.49768 0
M  V30 3295 H 301.907 -0.210711 -3.91233 0
M  V30 3296 H 303.604 -0.598478 -3.96509 0
M  V30 3297 H 300.194 -2.02015 -3.78005 0
M  V30 3298 H 304.378 -2.98298 -3.96651 0
M  V30 3299 H 299.634 -4.35945 -4.28675 0
M  V30 3300 H 303.808 -5.32641 -4.48628 0
M  V30 3301 H 301.435 -6.01952 -4.64282 0
M  V30 3302 N 303.011 1.40521 -0.713556 0
M  V30 3303 C 304.239 2.05237 -0.261775 0
M  V30 3304 C 304.654 1.53755 1.09567 0
M  V30 3305 O 304.011 0.693268 1.6882 0
M  V30 3306 C 304.062 3.60763 -0.230706 0
M  V30 3307 O 303.783 4.10345 -1.53455 0
M  V30 3308 C 305.284 4.42651 0.239874 0
M  V30 3309 H 302.504 0.660533 -0.118057 0
M  V30 3310 H 305.048 1.79967 -0.971192 0
M  V30 3311 H 303.203 3.8501 0.429661 0
M  V30 3312 H 303.617 5.04526 -1.43366 0
M  V30 3313 H 305.091 5.51599 0.210468 0
M  V30 3314 H 305.568 4.20082 1.28171 0
M  V30 3315 H 306.174 4.23507 -0.390142 0
M  V30 3316 N 304.489 0.459591 1.5075 0
M  V30 3317 C 305.436 -0.340524 2.28274 0
M  V30 3318 C 306.406 -0.997371 1.32822 0
M  V30 3319 O 307.591 -1.01202 1.61749 0
M  V30 3320 C 304.731 -1.42317 3.14388 0
M  V30 3321 C 303.844 -0.782251 4.24859 0
M  V30 3322 C 302.979 -1.84182 4.98247 0
M  V30 3323 C 302.018 -1.18053 6.00608 0
M  V30 3324 N 301.155 -2.18244 6.67319 0
M  V30 3325 H 305.995 0.326899 2.96202 0
M  V30 3326 H 303.532 0.173057 1.46078 0
M  V30 3327 H 305.49 -2.06241 3.62658 0
M  V30 3328 H 304.12 -2.05992 2.4853 0
M  V30 3329 H 303.172 -0.0307404 3.80388 0
M  V30 3330 H 304.484 -0.259663 4.98124 0
M  V30 3331 H 303.638 -2.55714 5.50177 0
M  V30 3332 H 302.377 -2.39819 4.24662 0
M  V30 3333 H 301.382 -0.450776 5.47949 0
M  V30 3334 H 302.607 -0.631202 6.7616 0
M  V30 3335 H 300.553 -2.72919 5.96533 0
M  V30 3336 H 300.47 -1.70938 7.36421 0
M  V30 3337 H 301.738 -2.89191 7.23871 0
M  V30 3338 N 305.967 -1.56429 0.191757 0
M  V30 3339 C 307.216 -1.9666 -0.448088 0
M  V30 3340 C 307.529 -1.08136 -1.62991 0
M  V30 3341 O 308.735 -1.38135 -2.33733 0
M  V30 3342 C 307.191 -3.49753 -0.848585 0
M  V30 3343 C 306.799 -4.46935 0.308764 0
M  V30 3344 C 308.543 -3.9876 -1.4557 0
M  V30 3345 C 306.45 -5.91293 -0.112506 0
M  V30 3346 H 305.38 -0.734312 -0.171179 0
M  V30 3347 H 308.031 -1.81301 0.283242 0
M  V30 3348 H 306.413 -3.60604 -1.63649 0
M  V30 3349 H 307.587 -4.47813 1.08627 0
M  V30 3350 H 305.902 -4.08102 0.827158 0
M  V30 3351 H 308.499 -5.04086 -1.78328 0
M  V30 3352 H 308.842 -3.42875 -2.36099 0
M  V30 3353 H 309.375 -3.9101 -0.731836 0
M  V30 3354 H 306.114 -6.51097 0.758514 0
M  V30 3355 H 305.634 -5.93676 -0.854941 0
M  V30 3356 H 307.313 -6.44663 -0.549448 0
M  V30 3357 N 307.445 0.0818655 -1.57387 0
M  V30 3358 C 308.694 0.781681 -1.85937 0
M  V30 3359 C 309.007 1.79246 -0.782957 0
M  V30 3360 O 310.213 2.54112 -0.955987 0
M  V30 3361 C 308.669 1.44109 -3.29789 0
M  V30 3362 C 308.277 0.469396 -4.45534 0
M  V30 3363 C 310.021 2.12386 -3.67549 0
M  V30 3364 C 307.928 1.13415 -5.80423 0
M  V30 3365 H 306.858 0.295682 -0.693605 0
M  V30 3366 H 309.509 0.0348051 -1.83467 0
M  V30 3367 H 307.891 2.23588 -3.2684 0
M  V30 3368 H 309.065 -0.294856 -4.59856 0
M  V30 3369 H 307.38 -0.108383 -4.16259 0
M  V30 3370 H 309.977 2.62878 -4.65617 0
M  V30 3371 H 310.32 2.91877 -2.96839 0
M  V30 3372 H 310.853 1.39751 -3.72444 0
M  V30 3373 H 307.592 0.379771 -6.54399 0
M  V30 3374 H 307.112 1.8695 -5.69921 0
M  V30 3375 H 308.791 1.65686 -6.25426 0
M  V30 3376 N 308.923 1.53595 0.353017 0
M  V30 3377 C 310.151 1.74311 1.1146 0
M  V30 3378 C 310.566 0.477854 1.82653 0
M  V30 3379 O 309.923 -0.549977 1.74016 0
M  V30 3380 C 309.974 2.91694 2.13534 0
M  V30 3381 O 309.695 4.13325 1.45238 0
M  V30 3382 C 311.196 3.24384 3.02142 0
M  V30 3383 H 308.416 0.582669 0.332773 0
M  V30 3384 H 310.96 2.00386 0.408107 0
M  V30 3385 H 309.115 2.67977 2.79763 0
M  V30 3386 H 309.529 4.79148 2.13349 0
M  V30 3387 H 311.003 4.09893 3.69718 0
M  V30 3388 H 311.48 2.40282 3.67643 0
M  V30 3389 H 312.086 3.50073 2.41514 0
M  V30 3390 N 310.401 -0.613514 1.45168 0
M  V30 3391 C 311.812 -1.19539 1.43413 0
M  V30 3392 C 312.163 -1.95558 0.158632 0
M  V30 3393 O 311.288 -2.0335 -0.740119 0
M  V30 3394 C 311.883 -2.17445 2.59813 0
M  V30 3395 C 310.442 -2.71022 2.61197 0
M  V30 3396 C 309.589 -1.46323 2.35552 0
M  V30 3397 H 312.54 -0.403163 1.53494 0
M  V30 3398 H 312.561 -3.00373 2.33574 0
M  V30 3399 H 312.073 -1.62089 3.52631 0
M  V30 3400 H 310.174 -3.30332 1.7237 0
M  V30 3401 H 310.287 -3.15859 3.60236 0
M  V30 3402 H 308.651 -1.75072 1.84992 0
M  V30 3403 H 309.434 -0.92844 3.30507 0
M  V30 3404 N 311.879 -1.3236 -0.855495 0
M  V30 3405 C 312.842 -1.21164 -1.94556 0
M  V30 3406 C 313.842 -0.134908 -1.60233 0
M  V30 3407 O 315.032 -0.385249 -1.69887 0
M  V30 3408 C 312.164 -0.863192 -3.29791 0
M  V30 3409 H 313.357 -2.18038 -2.05911 0
M  V30 3410 H 310.91 -1.16179 -1.04557 0
M  V30 3411 H 311.645 0.103769 -3.24134 0
M  V30 3412 H 311.43 -1.64166 -3.56078 0
M  V30 3413 H 312.92 -0.809156 -4.09686 0
M  V30 3414 N 313.357 1.07166 -1.15556 0
M  V30 3415 C 314.606 1.79181 -0.926132 0
M  V30 3416 C 314.919 1.87768 0.547967 0
M  V30 3417 O 316.125 2.56323 0.895036 0
M  V30 3418 C 314.581 3.22 -1.60761 0
M  V30 3419 C 314.189 3.21607 -3.11886 0
M  V30 3420 C 315.933 3.9861 -1.4598 0
M  V30 3421 C 313.84 4.59092 -3.72812 0
M  V30 3422 H 312.77 0.67154 -0.342856 0
M  V30 3423 H 315.421 1.2027 -1.3859 0
M  V30 3424 H 313.803 3.81115 -1.07553 0
M  V30 3425 H 314.977 2.72127 -3.71865 0
M  V30 3426 H 313.292 2.58495 -3.2645 0
M  V30 3427 H 315.889 5.00225 -1.88888 0
M  V30 3428 H 316.232 4.143 -0.407541 0
M  V30 3429 H 316.765 3.45996 -1.96295 0
M  V30 3430 H 313.504 4.48606 -4.77946 0
M  V30 3431 H 313.024 5.08803 -3.17616 0
M  V30 3432 H 314.703 5.28059 -3.73848 0
M  V30 3433 N 314.835 0.952656 1.25548 0
M  V30 3434 C 316.063 0.623496 1.97282 0
M  V30 3435 C 316.478 -0.803987 1.70826 0
M  V30 3436 O 315.835 -1.53755 0.983147 0
M  V30 3437 C 315.886 0.870209 3.5087 0
M  V30 3438 O 315.607 2.24156 3.76412 0
M  V30 3439 C 317.108 0.553164 4.39835 0
M  V30 3440 H 314.328 0.233931 0.628902 0
M  V30 3441 H 316.872 1.27649 1.59768 0
M  V30 3442 H 315.027 0.263652 3.86502 0
M  V30 3443 H 315.441 2.31021 4.70882 0
M  V30 3444 H 316.915 0.776342 5.46513 0
M  V30 3445 H 317.392 -0.512215 4.36203 0
M  V30 3446 H 317.998 1.13896 4.09766 0
M  V30 3447 N 316.313 -1.40141 0.720998 0
M  V30 3448 C 317.729 -1.54632 0.395113 0
M  V30 3449 C 317.929 -1.69115 -1.09555 0
M  V30 3450 O 316.985 -1.68377 -1.88163 0
M  V30 3451 C 318.298 -2.77177 1.1659 0
M  V30 3452 C 319.846 -2.91 1.15274 0
M  V30 3453 C 320.321 -4.16465 1.90579 0
M  V30 3454 N 321.812 -4.23476 1.87675 0
M  V30 3455 C 322.547 -5.19475 2.42762 0
M  V30 3456 N 322.043 -6.21348 3.06428 0
M  V30 3457 N 323.836 -5.11592 2.32874 0
M  V30 3458 H 315.987 -1.28986 1.68749 0
M  V30 3459 H 318.25 -0.62412 0.713567 0
M  V30 3460 H 317.956 -2.72771 2.22011 0
M  V30 3461 H 317.83 -3.69442 0.76108 0
M  V30 3462 H 320.217 -2.94907 0.106702 0
M  V30 3463 H 320.298 -1.99838 1.59682 0
M  V30 3464 H 319.942 -4.1332 2.95176 0
M  V30 3465 H 319.872 -5.06646 1.43587 0
M  V30 3466 H 322.363 -3.50497 1.41281 0
M  V30 3467 H 322.676 -6.91034 3.45965 0
M  V30 3468 H 321.021 -6.21777 3.10514 0
M  V30 3469 H 324.212 -4.30936 1.82789 0
M  V30 3470 H 324.385 -5.86233 2.76106 0
M  V30 3471 N 317.792 -0.46758 -1.50504 0
M  V30 3472 C 319.038 0.0887532 -2.02606 0
M  V30 3473 C 319.371 1.39686 -1.34913 0
M  V30 3474 O 318.646 1.88644 -0.473694 0
M  V30 3475 C 318.929 0.276206 -3.59039 0
M  V30 3476 C 318.782 -1.05267 -4.37309 0
M  V30 3477 C 320.101 1.03235 -4.27821 0
M  V30 3478 H 317.22 0.0307814 -0.736357 0
M  V30 3479 H 319.862 -0.612485 -1.79857 0
M  V30 3480 H 318.012 0.8735 -3.78553 0
M  V30 3481 H 319.684 -1.68628 -4.29374 0
M  V30 3482 H 317.927 -1.65015 -4.01189 0
M  V30 3483 H 318.598 -0.875197 -5.45018 0
M  V30 3484 H 321.074 0.526111 -4.12761 0
M  V30 3485 H 319.95 1.1323 -5.37094 0
M  V30 3486 H 320.211 2.06806 -3.90748 0
M  V30 3487 N 319.27 1.56325 -0.20005 0
M  V30 3488 C 320.516 1.98012 0.438059 0
M  V30 3489 C 320.849 1.08702 1.60927 0
M  V30 3490 O 320.124 0.140064 1.93995 0
M  V30 3491 C 320.407 3.48841 0.893419 0
M  V30 3492 C 320.26 4.48928 -0.279947 0
M  V30 3493 C 321.579 4.03498 1.75719 0
M  V30 3494 H 318.698 0.719918 0.157757 0
M  V30 3495 H 321.34 1.87743 -0.291968 0
M  V30 3496 H 319.49 3.57723 1.51547 0
M  V30 3497 H 321.162 4.52079 -0.91772 0
M  V30 3498 H 319.405 4.23694 -0.930919 0
M  V30 3499 H 320.076 5.5194 0.0812601 0
M  V30 3500 H 322.552 3.97427 1.23253 0
M  V30 3501 H 321.428 5.09393 2.04476 0
M  V30 3502 H 321.689 3.4906 2.71311 0
M  V30 3503 N 320.748 -0.0735177 1.57428 0
M  V30 3504 C 322.025 -0.805903 1.78226 0
M  V30 3505 C 322.405 -1.95874 0.787189 0
M  V30 3506 O 321.753 -2.2779 -0.180029 0
M  V30 3507 C 321.963 -1.28045 3.24662 0
M  V30 3508 C 323.311 -1.71453 3.88444 0
M  V30 3509 O 324.335 -1.37616 3.28543 0
M  V30 3510 O 323.194 -2.34093 4.93825 0
M  V30 3511 H 320.288 -0.386041 0.73137 0
M  V30 3512 H 322.834 -0.0537269 1.69615 0
M  V30 3513 H 321.606 -0.455476 3.8864 0
M  V30 3514 H 321.229 -2.094 3.37991 0
M  V30 3515 N 322.226 -1.5378 -0.344866 0
M  V30 3516 C 323.473 -1.70963 -1.08526 0
M  V30 3517 C 323.801 -0.472126 -1.88683 0
M  V30 3518 O 323.056 0.546116 -1.87926 0
M  V30 3519 C 323.355 -2.92407 -2.05506 0
M  V30 3520 C 323.021 -4.28066 -1.41671 0
M  V30 3521 C 321.683 -4.64951 -1.2399 0
M  V30 3522 C 324.035 -5.12344 -0.956726 0
M  V30 3523 C 321.363 -5.83733 -0.589277 0
M  V30 3524 C 323.715 -6.3179 -0.320015 0
M  V30 3525 C 322.379 -6.67372 -0.130881 0
M  V30 3526 H 321.649 -0.625598 -0.397124 0
M  V30 3527 H 324.296 -1.87995 -0.36469 0
M  V30 3528 H 322.601 -2.69973 -2.8394 0
M  V30 3529 H 324.298 -3.02895 -2.62784 0
M  V30 3530 H 320.888 -3.99034 -1.56429 0
M  V30 3531 H 325.072 -4.8438 -1.08118 0
M  V30 3532 H 320.328 -6.09877 -0.431344 0
M  V30 3533 H 324.502 -6.96386 0.0445072 0
M  V30 3534 H 322.129 -7.59273 0.375318 0
M  V30 3535 N 323.704 0.605807 -1.45491 0
M  V30 3536 C 324.667 1.69836 -1.5391 0
M  V30 3537 C 325.667 1.55261 -0.418424 0
M  V30 3538 O 326.857 1.60296 -0.681965 0
M  V30 3539 C 323.989 3.09117 -1.43734 0
M  V30 3540 H 325.182 1.63738 -2.51257 0
M  V30 3541 H 322.735 0.821689 -1.32959 0
M  V30 3542 H 323.47 3.20791 -0.475788 0
M  V30 3543 H 323.255 3.21104 -2.25021 0
M  V30 3544 H 324.745 3.88696 -1.52661 0
M  V30 3545 N 325.182 1.32811 0.848464 0
M  V30 3546 C 326.129 1.22265 1.95755 0
M  V30 3547 C 327.099 0.103413 1.65778 0
M  V30 3548 O 328.284 0.280033 1.88734 0
M  V30 3549 C 325.424 0.958014 3.31536 0
M  V30 3550 C 324.537 2.16262 3.73971 0
M  V30 3551 C 323.672 1.83295 4.98575 0
M  V30 3552 C 322.711 3.00041 5.33518 0
M  V30 3553 N 321.848 2.67125 6.49299 0
M  V30 3554 H 326.688 2.17128 2.04107 0
M  V30 3555 H 324.225 1.07982 0.998913 0
M  V30 3556 H 326.183 0.785052 4.09747 0
M  V30 3557 H 324.813 0.046159 3.22767 0
M  V30 3558 H 323.865 2.44565 2.91362 0
M  V30 3559 H 325.177 3.03572 3.95785 0
M  V30 3560 H 324.331 1.62586 5.84509 0
M  V30 3561 H 323.07 0.932078 4.7871 0
M  V30 3562 H 322.075 3.21374 4.46093 0
M  V30 3563 H 323.3 3.90869 5.55336 0
M  V30 3564 H 321.246 1.79586 6.3094 0
M  V30 3565 H 321.163 3.47965 6.71161 0
M  V30 3566 H 322.431 2.49861 7.3837 0
M  V30 3567 N 326.66 -1.06551 1.16123 0
M  V30 3568 C 327.607 -2.13961 0.865414 0
M  V30 3569 C 328.577 -1.65066 -0.185055 0
M  V30 3570 O 329.762 -1.90732 -0.05083 0
M  V30 3571 C 326.902 -3.43113 0.369776 0
M  V30 3572 C 326.015 -4.05756 1.48276 0
M  V30 3573 C 325.15 -5.22773 0.942414 0
M  V30 3574 C 324.189 -5.77395 2.03179 0
M  V30 3575 N 323.326 -6.85731 1.50721 0
M  V30 3576 H 328.166 -2.38605 1.78527 0
M  V30 3577 H 325.703 -1.17072 0.890646 0
M  V30 3578 H 327.661 -4.17151 0.0640643 0
M  V30 3579 H 326.291 -3.18695 -0.513143 0
M  V30 3580 H 325.343 -3.29292 1.9045 0
M  V30 3581 H 326.655 -4.42351 2.30493 0
M  V30 3582 H 325.809 -6.03827 0.589729 0
M  V30 3583 H 324.548 -4.87618 0.0895191 0
M  V30 3584 H 323.553 -4.94981 2.3932 0
M  V30 3585 H 324.778 -6.14603 2.8886 0
M  V30 3586 H 322.724 -6.52499 0.676811 0
M  V30 3587 H 322.641 -7.21254 2.26557 0
M  V30 3588 H 323.909 -7.7047 1.18303 0
M  V30 3589 N 328.138 -0.959301 -1.25041 0
M  V30 3590 C 329.068 -0.501388 -2.28053 0
M  V30 3591 C 330.049 0.454673 -1.63911 0
M  V30 3592 O 331.234 0.352618 -1.90972 0
M  V30 3593 C 328.364 0.217224 -3.4662 0
M  V30 3594 C 327.318 -0.654034 -4.22973 0
M  V30 3595 C 326.644 0.195589 -5.34342 0
M  V30 3596 C 327.944 -1.93447 -4.85155 0
M  V30 3597 H 329.638 -1.36238 -2.66608 0
M  V30 3598 H 327.184 -0.656534 -1.28163 0
M  V30 3599 H 329.137 0.548732 -4.17812 0
M  V30 3600 H 327.861 1.1125 -3.07068 0
M  V30 3601 H 326.52 -0.968693 -3.5357 0
M  V30 3602 H 326.168 1.09076 -4.91031 0
M  V30 3603 H 325.868 -0.384091 -5.86343 0
M  V30 3604 H 327.392 0.521958 -6.08365 0
M  V30 3605 H 328.806 -1.66908 -5.48466 0
M  V30 3606 H 327.203 -2.46018 -5.47353 0
M  V30 3607 H 328.273 -2.63466 -4.07079 0
M  V30 3608 N 329.616 1.39756 -0.72842 0
M  V30 3609 C 331.027 1.83498 -0.344289 0
M  V30 3610 C 331.378 1.60868 1.12321 0
M  V30 3611 O 330.503 1.09634 1.86573 0
M  V30 3612 C 331.098 3.33114 -0.618112 0
M  V30 3613 C 329.657 3.753 -0.287549 0
M  V30 3614 C 328.804 2.62831 -0.884048 0
M  V30 3615 H 331.755 1.28842 -0.926578 0
M  V30 3616 H 331.776 3.80334 0.112349 0
M  V30 3617 H 331.288 3.49553 -1.68625 0
M  V30 3618 H 329.389 3.64451 0.775012 0
M  V30 3619 H 329.502 4.72945 -0.765512 0
M  V30 3620 H 327.866 2.52792 -0.311149 0
M  V30 3621 H 328.649 2.82078 -1.95671 0
M  V30 3622 N 331.094 0.475555 1.50254 0
M  V30 3623 C 332.027 -0.362381 2.25304 0
M  V30 3624 C 333.005 -0.992393 1.28803 0
M  V30 3625 O 334.189 -1.02746 1.58036 0
M  V30 3626 C 331.316 -1.50813 3.03271 0
M  V30 3627 C 330.362 -0.995044 4.1473 0
M  V30 3628 S 331.195 0.0938436 5.35418 0
M  V30 3629 C 332.351 -1.05567 6.16933 0
M  V30 3630 H 332.584 0.274686 2.96028 0
M  V30 3631 H 330.117 0.260495 1.52187 0
M  V30 3632 H 332.075 -2.16476 3.48781 0
M  V30 3633 H 330.736 -2.11672 2.32064 0
M  V30 3634 H 329.929 -1.85293 4.68703 0
M  V30 3635 H 329.531 -0.416052 3.71679 0
M  V30 3636 H 331.823 -1.96636 6.48337 0
M  V30 3637 H 332.766 -0.555109 7.05921 0
M  V30 3638 H 333.174 -1.31151 5.49053 0
M  V30 3639 N 332.573 -1.56217 0.208337 0
M  V30 3640 C 333.82 -1.97949 -0.42692 0
M  V30 3641 C 334.148 -1.09562 -1.60706 0
M  V30 3642 O 333.403 -0.137616 -1.95216 0
M  V30 3643 C 333.702 -3.45441 -0.916797 0
M  V30 3644 C 333.368 -4.50646 0.151391 0
M  V30 3645 C 332.03 -4.79139 0.444867 0
M  V30 3646 C 334.382 -5.13811 0.874492 0
M  V30 3647 C 331.71 -5.68084 1.46619 0
M  V30 3648 C 334.062 -6.03861 1.88506 0
M  V30 3649 C 332.726 -6.30704 2.18559 0
M  V30 3650 H 331.996 -0.724345 -0.156221 0
M  V30 3651 H 334.643 -1.89006 0.308084 0
M  V30 3652 H 332.948 -3.51521 -1.73032 0
M  V30 3653 H 334.645 -3.75094 -1.41794 0
M  V30 3654 H 331.235 -4.28511 -0.0875068 0
M  V30 3655 H 335.419 -4.91879 0.660996 0
M  V30 3656 H 330.675 -5.87151 1.7048 0
M  V30 3657 H 334.849 -6.51861 2.45051 0
M  V30 3658 H 332.476 -6.99424 2.97843 0
M  V30 3659 N 334.051 0.0651679 -1.57465 0
M  V30 3660 C 335.276 0.779605 -1.9219 0
M  V30 3661 C 335.701 1.69988 -0.805333 0
M  V30 3662 O 335.059 1.79685 0.241435 0
M  V30 3663 C 335.107 1.54364 -3.2589 0
M  V30 3664 O 334.211 2.65474 -3.1559 0
M  V30 3665 H 333.552 0.212249 -0.629163 0
M  V30 3666 H 336.082 0.0314294 -2.04576 0
M  V30 3667 H 336.092 1.92146 -3.59922 0
M  V30 3668 H 334.767 0.868457 -4.06732 0
M  V30 3669 H 333.344 2.30501 -2.93128 0
M  V30 3670 N 335.529 1.53961 0.336706 0
M  V30 3671 C 336.439 1.85432 1.43708 0
M  V30 3672 C 337.455 0.745053 1.57242 0
M  V30 3673 O 338.631 1.03804 1.72588 0
M  V30 3674 C 335.696 2.06349 2.78605 0
M  V30 3675 C 334.757 3.30191 2.74358 0
M  V30 3676 C 333.99 3.50101 4.02822 0
M  V30 3677 O 334.213 2.7371 5.00439 0
M  V30 3678 O 333.147 4.43547 4.06878 0
M  V30 3679 H 336.973 2.78975 1.20028 0
M  V30 3680 H 334.558 1.39701 0.52952 0
M  V30 3681 H 336.44 2.21513 3.58483 0
M  V30 3682 H 335.115 1.15995 3.02203 0
M  V30 3683 H 334.022 3.20425 1.93078 0
M  V30 3684 H 335.355 4.2056 2.55715 0
M  V30 3685 N 337.007 -0.598083 1.45811 0
M  V30 3686 C 337.937 -1.71873 1.58057 0
M  V30 3687 C 338.918 -1.64533 0.431615 0
M  V30 3688 O 340.103 -1.82787 0.65595 0
M  V30 3689 C 337.233 -3.10495 1.55597 0
M  V30 3690 C 336.187 -3.32654 2.69305 0
M  V30 3691 C 335.513 -4.71646 2.51902 0
M  V30 3692 C 336.813 -3.21981 4.11248 0
M  V30 3693 H 338.507 -1.61881 2.51863 0
M  V30 3694 H 336.053 -0.777372 1.21214 0
M  V30 3695 H 338.006 -3.88699 1.6276 0
M  V30 3696 H 336.73 -3.2135 0.583255 0
M  V30 3697 H 335.389 -2.56843 2.61586 0
M  V30 3698 H 335.037 -4.79246 1.52748 0
M  V30 3699 H 334.737 -4.87426 3.2816 0
M  V30 3700 H 336.261 -5.52038 2.60933 0
M  V30 3701 H 337.675 -3.90049 4.20161 0
M  V30 3702 H 336.072 -3.49289 4.87972 0
M  V30 3703 H 337.142 -2.1928 4.32486 0
M  V30 3704 N 338.485 -1.33259 -0.841409 0
M  V30 3705 C 339.896 -1.22066 -1.41269 0
M  V30 3706 C 340.247 0.161479 -1.95534 0
M  V30 3707 O 339.372 1.06094 -1.88608 0
M  V30 3708 C 339.967 -2.20996 -2.568 0
M  V30 3709 C 338.526 -2.13649 -3.09888 0
M  V30 3710 C 337.673 -2.08623 -1.82679 0
M  V30 3711 H 340.624 -1.44895 -0.647395 0
M  V30 3712 H 340.645 -1.81621 -3.34356 0
M  V30 3713 H 340.157 -3.2158 -2.17274 0
M  V30 3714 H 338.258 -1.16359 -3.53965 0
M  V30 3715 H 338.371 -3.04079 -3.70234 0
M  V30 3716 H 336.735 -1.54061 -2.02824 0
M  V30 3717 H 337.518 -3.1101 -1.45353 0
M  V30 3718 N 339.963 1.05934 -1.16686 0
M  V30 3719 C 341.203 1.80382 -0.961345 0
M  V30 3720 C 341.567 1.85331 0.501643 0
M  V30 3721 O 342.768 2.55795 0.825986 0
M  V30 3722 C 341.039 3.20777 -1.57596 0
M  V30 3723 S 342.598 4.11795 -1.51559 0
M  V30 3724 H 339.416 0.621332 -0.345641 0
M  V30 3725 H 342.018 1.27157 -1.48497 0
M  V30 3726 H 340.722 3.14773 -2.63337 0
M  V30 3727 H 340.253 3.79078 -1.05182 0
M  V30 3728 H 342.268 4.93485 -0.518374 0
M  V30 3729 N 341.441 0.965919 1.2453 0
M  V30 3730 C 342.351 0.502154 2.29163 0
M  V30 3731 C 343.367 -0.436017 1.68448 0
M  V30 3732 O 344.543 -0.309497 1.99008 0
M  V30 3733 C 341.608 -0.201956 3.46111 0
M  V30 3734 C 340.669 0.775821 4.22232 0
M  V30 3735 C 339.902 0.105217 5.33596 0
M  V30 3736 O 340.125 -1.10683 5.59558 0
M  V30 3737 O 339.059 0.796475 5.96607 0
M  V30 3738 H 342.885 1.37194 2.70946 0
M  V30 3739 H 340.47 0.732875 1.30189 0
M  V30 3740 H 342.352 -0.597564 4.17142 0
M  V30 3741 H 341.027 -1.04673 3.06309 0
M  V30 3742 H 339.934 1.22185 3.53584 0
M  V30 3743 H 341.267 1.58896 4.65846 0
M  V30 3744 N 342.919 -1.39368 0.735821 0
M  V30 3745 C 344.196 -1.94465 0.210395 0
M  V30 3746 C 344.576 -1.67254 -1.28799 0
M  V30 3747 O 343.924 -1.00123 -2.05396 0
M  V30 3748 C 344.134 -3.4472 0.544897 0
M  V30 3749 C 345.482 -4.21708 0.494689 0
M  V30 3750 O 346.506 -3.52922 0.482136 0
M  V30 3751 O 345.365 -5.44299 0.489947 0
M  V30 3752 H 342.459 -0.826096 0.0386666 0
M  V30 3753 H 345.005 -1.48863 0.814735 0
M  V30 3754 H 343.777 -3.57963 1.58045 0
M  V30 3755 H 343.4 -3.97502 -0.08837 0
M  V30 3756 N 344.397 -0.483516 -1.5 0
M  V30 3757 C 345.329 0.340634 -2.26655 0
M  V30 3758 C 346.342 0.946152 -1.32483 0
M  V30 3759 O 347.531 0.832453 -1.579 0
M  V30 3760 C 344.631 1.4929 -3.04246 0
M  V30 3761 C 343.804 0.997903 -4.25865 0
M  V30 3762 C 342.863 2.02569 -4.85646 0
M  V30 3763 O 341.889 1.60128 -5.46212 0
M  V30 3764 N 343.091 3.3548 -4.73744 0
M  V30 3765 H 345.856 -0.316577 -2.98023 0
M  V30 3766 H 343.417 -0.315024 -1.58806 0
M  V30 3767 H 345.409 2.17766 -3.41116 0
M  V30 3768 H 343.979 2.05458 -2.35597 0
M  V30 3769 H 343.199 0.138617 -3.93956 0
M  V30 3770 H 344.487 0.645305 -5.04691 0
M  V30 3771 H 343.885 3.72661 -4.25605 0
M  V30 3772 H 342.442 3.99718 -5.14848 0
M  V30 3773 N 345.875 1.56104 -0.216619 0
M  V30 3774 C 347.124 1.97348 0.416744 0
M  V30 3775 C 347.437 1.10715 1.6125 0
M  V30 3776 O 348.643 1.41836 2.31506 0
M  V30 3777 C 347.099 3.51059 0.792835 0
M  V30 3778 C 346.707 4.46387 -0.379828 0
M  V30 3779 C 348.451 4.01026 1.39208 0
M  V30 3780 C 346.358 5.91397 0.0184223 0
M  V30 3781 H 345.288 0.736942 0.159475 0
M  V30 3782 H 347.939 1.80827 -0.31205 0
M  V30 3783 H 346.321 3.63162 1.57891 0
M  V30 3784 H 347.495 4.46029 -1.15737 0
M  V30 3785 H 345.81 4.06734 -0.891979 0
M  V30 3786 H 348.407 5.0686 1.70286 0
M  V30 3787 H 348.75 3.46587 2.30614 0
M  V30 3788 H 349.283 3.92125 0.669537 0
M  V30 3789 H 346.022 6.49807 -0.862002 0
M  V30 3790 H 345.542 5.94961 0.760384 0
M  V30 3791 H 347.221 6.45455 0.446818 0
M  V30 3792 N 347.353 -0.0568162 1.57498 0
M  V30 3793 C 348.602 -0.752001 1.87157 0
M  V30 3794 C 348.915 -1.77978 0.811375 0
M  V30 3795 O 350.121 -2.52559 0.996293 0
M  V30 3796 C 348.577 -1.38844 3.3204 0
M  V30 3797 C 348.185 -0.398456 4.46225 0
M  V30 3798 C 349.929 -2.06512 3.70882 0
M  V30 3799 C 347.836 -1.04166 5.82154 0
M  V30 3800 H 346.766 -0.28461 0.698222 0
M  V30 3801 H 349.417 -0.00561272 1.83499 0
M  V30 3802 H 347.799 -2.1836 3.30356 0
M  V30 3803 H 348.973 0.367977 4.59328 0
M  V30 3804 H 347.288 0.174592 4.16034 0
M  V30 3805 H 349.885 -2.55437 4.6974 0
M  V30 3806 H 350.228 -2.87117 3.01445 0
M  V30 3807 H 350.761 -1.33808 3.7462 0
M  V30 3808 H 347.5 -0.275614 6.5492 0
M  V30 3809 H 347.02 -1.7786 5.72823 0
M  V30 3810 H 348.699 -1.55715 6.27982 0
M  V30 3811 N 348.832 -1.54138 -0.328536 0
M  V30 3812 C 349.762 -1.86167 -1.40939 0
M  V30 3813 C 350.743 -0.718044 -1.54202 0
M  V30 3814 O 351.928 -0.971328 -1.68163 0
M  V30 3815 C 349.058 -2.08461 -2.77779 0
M  V30 3816 C 348.012 -3.24299 -2.7931 0
M  V30 3817 C 347.338 -3.31955 -4.19178 0
M  V30 3818 C 348.638 -4.62065 -2.43502 0
M  V30 3819 H 350.332 -2.76689 -1.14383 0
M  V30 3820 H 347.878 -1.33132 -0.548806 0
M  V30 3821 H 349.831 -2.29453 -3.53454 0
M  V30 3822 H 348.555 -1.14684 -3.05802 0
M  V30 3823 H 347.214 -3.03187 -2.0609 0
M  V30 3824 H 346.862 -2.35745 -4.44335 0
M  V30 3825 H 346.562 -4.09805 -4.2111 0
M  V30 3826 H 348.086 -3.55175 -4.96672 0
M  V30 3827 H 349.5 -4.8297 -3.08889 0
M  V30 3828 H 347.897 -5.42429 -2.56693 0
M  V30 3829 H 348.967 -4.64652 -1.38659 0
M  V30 3830 N 350.31 0.590341 -1.46126 0
M  V30 3831 C 351.24 1.71032 -1.58966 0
M  V30 3832 C 352.221 1.64302 -0.440335 0
M  V30 3833 O 353.406 1.82436 -0.665634 0
M  V30 3834 C 350.536 3.09665 -1.57241 0
M  V30 3835 C 349.49 3.31221 -2.71066 0
M  V30 3836 C 348.816 4.70303 -2.54399 0
M  V30 3837 C 350.116 3.19796 -4.1295 0
M  V30 3838 H 351.81 1.60543 -2.52718 0
M  V30 3839 H 349.356 0.770933 -1.21625 0
M  V30 3840 H 351.309 3.87831 -1.64819 0
M  V30 3841 H 350.033 3.21036 -0.600289 0
M  V30 3842 H 348.692 2.55452 -2.62944 0
M  V30 3843 H 348.34 4.78429 -1.55288 0
M  V30 3844 H 348.04 4.85679 -3.30741 0
M  V30 3845 H 349.564 5.50647 -2.63857 0
M  V30 3846 H 350.978 3.87815 -4.22223 0
M  V30 3847 H 349.375 3.46696 -4.89818 0
M  V30 3848 H 350.445 2.16983 -4.33643 0
M  V30 3849 N 351.788 1.33704 0.83433 0
M  V30 3850 C 352.735 1.24335 1.94447 0
M  V30 3851 C 353.705 0.120991 1.65659 0
M  V30 3852 O 354.89 0.300035 1.88426 0
M  V30 3853 C 352.03 0.993124 3.30501 0
M  V30 3854 C 351.143 2.20217 3.71657 0
M  V30 3855 C 350.278 1.88572 4.96602 0
M  V30 3856 C 349.317 3.05683 5.30306 0
M  V30 3857 N 348.454 2.73997 6.46429 0
M  V30 3858 H 353.294 2.1928 2.01792 0
M  V30 3859 H 350.831 1.09035 0.987404 0
M  V30 3860 H 352.789 0.828467 4.08892 0
M  V30 3861 H 351.419 0.0803902 3.227 0
M  V30 3862 H 350.471 2.47642 2.88752 0
M  V30 3863 H 351.783 3.07752 3.92543 0
M  V30 3864 H 350.937 1.68776 5.82752 0
M  V30 3865 H 349.676 0.982799 4.77695 0
M  V30 3866 H 348.681 3.26088 4.42659 0
M  V30 3867 H 349.906 3.96737 5.51159 0
M  V30 3868 H 347.852 1.86268 6.28999 0
M  V30 3869 H 347.769 3.55064 6.67432 0
M  V30 3870 H 349.037 2.57679 7.35678 0
M  V30 3871 N 353.266 -1.05314 1.17247 0
M  V30 3872 C 354.514 -1.77941 0.958194 0
M  V30 3873 C 354.835 -1.88089 -0.514556 0
M  V30 3874 O 354.105 -1.39676 -1.37359 0
M  V30 3875 H 352.685 -0.659116 0.351533 0
M  V30 3876 H 355.347 -1.27166 1.47699 0
M  V30 3877 H 354.443 -2.79663 1.38546 0
M  V30 3878 N 354.744 -0.972509 -1.24016 0
M  V30 3879 C 355.984 -0.644951 -1.93958 0
M  V30 3880 C 356.348 0.80559 -1.74282 0
M  V30 3881 O 357.549 1.2436 -2.38302 0
M  V30 3882 C 355.82 -1.01521 -3.42678 0
M  V30 3883 S 357.379 -0.802927 -4.31391 0
M  V30 3884 H 354.197 -0.236452 -0.670531 0
M  V30 3885 H 356.799 -1.25048 -1.50277 0
M  V30 3886 H 355.503 -2.06769 -3.54506 0
M  V30 3887 H 355.034 -0.400648 -3.91355 0
M  V30 3888 H 357.049 0.317256 -4.95185 0
M  V30 3889 N 356.222 1.38976 -0.743202 0
M  V30 3890 C 357.462 2.02193 -0.29954 0
M  V30 3891 C 357.826 1.5771 1.09506 0
M  V30 3892 O 359.027 2.13184 1.63726 0
M  V30 3893 C 357.298 3.55077 -0.406822 0
M  V30 3894 S 358.857 4.38778 -0.0442109 0
M  V30 3895 H 355.675 0.701335 -0.116836 0
M  V30 3896 H 358.277 1.69651 -0.971529 0
M  V30 3897 H 356.981 3.84942 -1.42295 0
M  V30 3898 H 356.512 3.92383 0.282707 0
M  V30 3899 H 358.527 4.82222 1.16947 0
M  V30 3900 N 357.7 0.491464 1.49741 0
M  V30 3901 C 358.633 -0.338464 2.25676 0
M  V30 3902 C 359.611 -0.978676 1.29849 0
M  V30 3903 O 360.795 -1.01064 1.59117 0
M  V30 3904 C 357.922 -1.47588 3.04853 0
M  V30 3905 C 356.968 -0.951 4.15762 0
M  V30 3906 S 357.801 0.150626 5.35288 0
M  V30 3907 C 358.957 -0.990178 6.18018 0
M  V30 3908 H 359.19 0.306068 2.9572 0
M  V30 3909 H 356.723 0.276622 1.51902 0
M  V30 3910 H 358.681 -2.12764 3.51058 0
M  V30 3911 H 357.342 -2.09199 2.34296 0
M  V30 3912 H 356.535 -1.80311 4.70642 0
M  V30 3913 H 356.137 -0.376607 3.72099 0
M  V30 3914 H 358.429 -1.89748 6.50386 0
M  V30 3915 H 359.372 -0.480205 7.0647 0
M  V30 3916 H 359.78 -1.25321 5.50413 0
M  V30 3917 N 359.178 -1.55987 0.224894 0
M  V30 3918 C 360.088 -2.24066 -0.69511 0
M  V30 3919 C 361.104 -1.24939 -1.21104 0
M  V30 3920 O 362.28 -1.5776 -1.25195 0
M  V30 3921 C 359.345 -2.90983 -1.88493 0
M  V30 3922 C 358.406 -4.05462 -1.41064 0
M  V30 3923 C 357.639 -4.69179 -2.54375 0
M  V30 3924 O 357.862 -4.31895 -3.72589 0
M  V30 3925 O 356.796 -5.58108 -2.25386 0
M  V30 3926 H 360.622 -3.03353 -0.145149 0
M  V30 3927 H 358.207 -1.49399 -0.00569476 0
M  V30 3928 H 360.089 -3.33209 -2.57972 0
M  V30 3929 H 358.764 -2.14653 -2.42293 0
M  V30 3930 H 357.671 -3.67798 -0.683774 0
M  V30 3931 H 359.004 -4.83545 -0.918985 0
M  V30 3932 N 360.656 0.0484629 -1.57525 0
M  V30 3933 C 361.905 0.742065 -1.87553 0
M  V30 3934 C 362.218 1.77545 -0.820802 0
M  V30 3935 O 363.424 2.52027 -1.00967 0
M  V30 3936 C 361.88 1.37081 -3.32771 0
M  V30 3937 C 361.488 0.374786 -4.4643 0
M  V30 3938 C 363.232 2.04542 -3.71972 0
M  V30 3939 C 361.139 1.01077 -5.82698 0
M  V30 3940 H 360.069 0.280903 -0.699721 0
M  V30 3941 H 362.72 -0.00411877 -1.835 0
M  V30 3942 H 361.102 2.16605 -3.31509 0
M  V30 3943 H 362.276 -0.392331 -4.59127 0
M  V30 3944 H 360.591 -0.196653 -4.15935 0
M  V30 3945 H 363.188 2.52943 -4.71088 0
M  V30 3946 H 363.531 2.85515 -3.02964 0
M  V30 3947 H 364.064 1.31819 -3.75325 0
M  V30 3948 H 360.803 0.240878 -6.55057 0
M  V30 3949 H 360.323 1.74819 -5.73758 0
M  V30 3950 H 362.002 1.52383 -6.28799 0
M  V30 3951 N 362.134 1.5431 0.320358 0
M  V30 3952 C 363.067 1.78769 1.41834 0
M  V30 3953 C 364.045 0.63783 1.49568 0
M  V30 3954 O 365.229 0.875628 1.66928 0
M  V30 3955 C 362.356 1.90712 2.79905 0
M  V30 3956 C 361.402 3.13023 2.89687 0
M  V30 3957 S 362.235 4.71554 2.53766 0
M  V30 3958 C 363.391 4.86408 3.93902 0
M  V30 3959 H 363.624 2.71619 1.20874 0
M  V30 3960 H 361.157 1.45474 0.517377 0
M  V30 3961 H 363.115 1.98279 3.59438 0
M  V30 3962 H 361.776 0.988343 2.98145 0
M  V30 3963 H 360.969 3.18124 3.90913 0
M  V30 3964 H 360.571 3.03803 2.18128 0
M  V30 3965 H 362.863 4.69241 4.88691 0
M  V30 3966 H 363.806 5.88508 3.93782 0
M  V30 3967 H 364.214 4.14689 3.83005 0
M  V30 3968 N 363.613 -0.582584 1.46437 0
M  V30 3969 C 364.838 -1.37168 1.55563 0
M  V30 3970 C 365.263 -1.87061 0.19743 0
M  V30 3971 O 364.621 -1.61572 -0.822451 0
M  V30 3972 C 364.669 -2.53511 2.56446 0
M  V30 3973 O 363.773 -3.54953 2.09958 0
M  V30 3974 H 363.114 -0.408494 0.523477 0
M  V30 3975 H 365.644 -0.706646 1.9201 0
M  V30 3976 H 365.654 -3.00426 2.76058 0
M  V30 3977 H 364.329 -2.16549 3.55076 0
M  V30 3978 H 362.906 -3.14516 2.00334 0
M  V30 3979 N 365.091 -1.34144 -0.827227 0
M  V30 3980 C 366.021 -1.28005 -1.95287 0
M  V30 3981 C 367.002 -0.158321 -1.69362 0
M  V30 3982 O 368.187 -0.349987 -1.9102 0
M  V30 3983 C 365.317 -1.03036 -3.31664 0
M  V30 3984 C 364.271 -2.11628 -3.72019 0
M  V30 3985 C 363.597 -1.71854 -5.0633 0
M  V30 3986 C 364.897 -3.53417 -3.8457 0
M  V30 3987 H 366.591 -2.22187 -2.00682 0
M  V30 3988 H 364.137 -1.0696 -0.964135 0
M  V30 3989 H 366.09 -0.973863 -4.09993 0
M  V30 3990 H 364.814 -0.0529391 -3.26557 0
M  V30 3991 H 363.473 -2.16339 -2.95961 0
M  V30 3992 H 363.121 -0.727841 -4.97706 0
M  V30 3993 H 362.821 -2.44531 -5.34302 0
M  V30 3994 H 364.345 -1.67692 -5.87122 0
M  V30 3995 H 365.759 -3.51142 -4.5318 0
M  V30 3996 H 364.156 -4.24679 -4.2399 0
M  V30 3997 H 365.226 -3.91072 -2.86689 0
M  V30 3998 N 366.569 1.04691 -1.17803 0
M  V30 3999 C 367.985 1.29963 -0.926379 0
M  V30 4000 C 368.185 1.97251 0.411635 0
M  V30 4001 O 367.241 2.24922 1.14744 0
M  V30 4002 C 368.554 2.16447 -2.08737 0
M  V30 4003 C 370.102 2.29814 -2.12496 0
M  V30 4004 C 370.577 3.19661 -3.27995 0
M  V30 4005 N 372.068 3.27247 -3.27816 0
M  V30 4006 C 372.803 3.96906 -4.13827 0
M  V30 4007 N 372.299 4.6895 -5.09959 0
M  V30 4008 N 374.092 3.93122 -4.01761 0
M  V30 4009 H 366.243 0.594182 -2.0392 0
M  V30 4010 H 368.506 0.324649 -0.890678 0
M  V30 4011 H 368.212 1.74304 -3.05469 0
M  V30 4012 H 368.086 3.17103 -2.04268 0
M  V30 4013 H 370.473 2.71196 -1.16347 0
M  V30 4014 H 370.554 1.2877 -2.21025 0
M  V30 4015 H 370.198 2.78991 -4.24413 0
M  V30 4016 H 370.128 4.20722 -3.16703 0
M  V30 4017 H 372.619 2.75921 -2.58217 0
M  V30 4018 H 372.932 5.19679 -5.71974 0
M  V30 4019 H 371.277 4.67875 -5.13924 0
M  V30 4020 H 374.468 3.35967 -3.2595 0
M  V30 4021 H 374.641 4.47139 -4.6901 0
M  V30 4022 N 368.047 0.979072 1.23499 0
M  V30 4023 C 369.01 0.523244 2.23147 0
M  V30 4024 C 370.01 -0.386406 1.56088 0
M  V30 4025 O 371.2 -0.180283 1.73265 0
M  V30 4026 C 368.332 -0.240739 3.40049 0
M  V30 4027 H 369.525 1.40432 2.64989 0
M  V30 4028 H 367.078 0.764824 1.36309 0
M  V30 4029 H 367.813 -1.13841 3.03662 0
M  V30 4030 H 367.598 0.412207 3.89927 0
M  V30 4031 H 369.088 -0.548297 4.13985 0
M  V30 4032 N 369.525 -1.3858 0.750561 0
M  V30 4033 C 370.488 -2.28836 0.129152 0
M  V30 4034 C 371.488 -1.47045 -0.650714 0
M  V30 4035 O 372.678 -1.6753 -0.477428 0
M  V30 4036 C 369.81 -3.30751 -0.825622 0
M  V30 4037 H 371.003 -2.85294 0.924516 0
M  V30 4038 H 368.556 -1.47489 0.517376 0
M  V30 4039 H 369.291 -2.79378 -1.64677 0
M  V30 4040 H 369.076 -3.91177 -0.268852 0
M  V30 4041 H 370.566 -3.98249 -1.2565 0
M  V30 4042 N 371.003 -0.499398 -1.49478 0
M  V30 4043 C 372.249 0.0457576 -2.02748 0
M  V30 4044 C 372.582 1.36793 -1.37846 0
M  V30 4045 O 371.857 1.87596 -0.513601 0
M  V30 4046 C 372.14 0.199986 -3.59544 0
M  V30 4047 C 371.993 -1.1452 -4.34977 0
M  V30 4048 C 373.312 0.94137 -4.29914 0
M  V30 4049 H 370.431 0.0151552 -0.736844 0
M  V30 4050 H 373.073 -0.650498 -1.78518 0
M  V30 4051 H 371.223 0.793007 -3.8032 0
M  V30 4052 H 372.895 -1.77697 -4.25701 0
M  V30 4053 H 371.138 -1.73488 -3.97598 0
M  V30 4054 H 371.809 -0.990607 -5.43039 0
M  V30 4055 H 374.285 0.43844 -4.13784 0
M  V30 4056 H 373.161 1.01812 -5.39375 0
M  V30 4057 H 373.422 1.98471 -3.95046 0
M  V30 4058 N 372.481 1.55866 -0.233164 0
M  V30 4059 C 373.897 1.59133 0.121988 0
M  V30 4060 C 374.097 1.25016 1.58029 0
M  V30 4061 O 373.153 0.990922 2.32243 0
M  V30 4062 C 374.466 2.99932 -0.214792 0
M  V30 4063 C 376.014 3.12601 -0.157971 0
M  V30 4064 C 376.489 4.55597 -0.46859 0
M  V30 4065 N 377.98 4.61305 -0.418585 0
M  V30 4066 C 378.715 5.69903 -0.63227 0
M  V30 4067 N 378.211 6.86819 -0.90835 0
M  V30 4068 N 380.004 5.59264 -0.563913 0
M  V30 4069 H 372.155 1.76315 -1.18434 0
M  V30 4070 H 374.418 0.820093 -0.475553 0
M  V30 4071 H 374.124 3.29588 -1.22739 0
M  V30 4072 H 373.998 3.74327 0.464691 0
M  V30 4073 H 376.385 2.82735 0.845283 0
M  V30 4074 H 376.466 2.40511 -0.871102 0
M  V30 4075 H 376.11 4.86182 -1.46934 0
M  V30 4076 H 376.04 5.25928 0.265865 0
M  V30 4077 H 378.531 3.77297 -0.213368 0
M  V30 4078 H 378.844 7.65507 -1.05919 0
M  V30 4079 H 377.189 6.88536 -0.945673 0
M  V30 4080 H 380.38 4.66802 -0.348372 0
M  V30 4081 H 380.553 6.43831 -0.733847 0
M  V30 4082 N 373.959 -0.0401083 1.57549 0
M  V30 4083 C 375.189 -0.744115 1.92734 0
M  V30 4084 C 375.597 -1.70005 0.830348 0
M  V30 4085 O 374.94 -1.82576 -0.20286 0
M  V30 4086 C 375.002 -1.56516 3.2364 0
M  V30 4087 C 374.666 -0.7752 4.50377 0
M  V30 4088 C 375.663 -0.0803326 5.19838 0
M  V30 4089 C 373.348 -0.733002 4.96923 0
M  V30 4090 C 375.342 0.646154 6.34116 0
M  V30 4091 C 373.029 -0.00276321 6.111 0
M  V30 4092 C 374.027 0.685585 6.7955 0
M  V30 4093 O 373.715 1.40399 7.91545 0
M  V30 4094 H 373.447 -0.214861 0.640945 0
M  V30 4095 H 376.001 -0.00503675 2.05399 0
M  V30 4096 H 374.231 -2.3478 3.07271 0
M  V30 4097 H 375.92 -2.15076 3.44234 0
M  V30 4098 H 376.686 -0.104035 4.84888 0
M  V30 4099 H 372.565 -1.25827 4.43496 0
M  V30 4100 H 376.109 1.18398 6.87479 0
M  V30 4101 H 372.006 0.0229012 6.45496 0
M  V30 4102 H 372.774 1.31653 8.07843 0
M  V30 4103 N 375.437 -1.54477 -0.31217 0
M  V30 4104 C 376.714 -1.63891 -1.06767 0
M  V30 4105 C 377.094 -0.480028 -2.0557 0
M  V30 4106 O 376.442 0.524487 -2.22399 0
M  V30 4107 C 376.652 -3.01402 -1.75948 0
M  V30 4108 C 378 -3.57838 -2.28554 0
M  V30 4109 O 379.024 -3.03782 -1.85998 0
M  V30 4110 O 377.883 -4.52462 -3.06497 0
M  V30 4111 H 374.977 -0.664125 -0.492816 0
M  V30 4112 H 377.523 -1.66823 -0.311149 0
M  V30 4113 H 376.295 -3.77187 -1.04144 0
M  V30 4114 H 375.918 -3.02199 -2.58383 0
M  V30 4115 N 376.915 0.57481 -1.46744 0
M  V30 4116 C 378.326 1.15695 -1.46532 0
M  V30 4117 C 378.677 1.95068 -0.210425 0
M  V30 4118 O 377.802 2.05241 0.685944 0
M  V30 4119 C 378.397 2.1048 -2.65487 0
M  V30 4120 C 376.956 2.64002 -2.68291 0
M  V30 4121 C 376.103 1.40026 -2.39349 0
M  V30 4122 H 379.054 0.362325 -1.54509 0
M  V30 4123 H 379.075 2.94074 -2.41455 0
M  V30 4124 H 378.587 1.52683 -3.56805 0
M  V30 4125 H 376.688 3.25646 -1.81067 0
M  V30 4126 H 376.801 3.06197 -3.68483 0
M  V30 4127 H 375.165 1.70106 -1.89568 0
M  V30 4128 H 375.948 0.840485 -3.32852 0
M  V30 4129 N 378.394 1.34581 0.820102 0
M  V30 4130 C 379.304 1.28471 1.96297 0
M  V30 4131 C 380.32 0.191902 1.72939 0
M  V30 4132 O 381.496 0.418879 1.96996 0
M  V30 4133 C 378.561 1.04281 3.30645 0
M  V30 4134 C 377.622 2.22745 3.66992 0
M  V30 4135 C 376.855 1.997 4.9493 0
M  V30 4136 O 377.078 0.956656 5.6232 0
M  V30 4137 O 376.012 2.86723 5.2922 0
M  V30 4138 H 379.838 2.24624 2.04396 0
M  V30 4139 H 377.423 1.14816 0.955913 0
M  V30 4140 H 379.305 0.925841 4.11104 0
M  V30 4141 H 377.98 0.111697 3.23507 0
M  V30 4142 H 376.887 2.40003 2.86966 0
M  V30 4143 H 378.22 3.14257 3.78819 0
M  V30 4144 N 379.872 -1.04064 1.18357 0
M  V30 4145 C 381.097 -1.81454 1.00445 0
M  V30 4146 C 381.522 -1.82823 -0.442423 0
M  V30 4147 O 380.88 -1.24555 -1.31741 0
M  V30 4148 C 380.928 -3.24925 1.56384 0
M  V30 4149 O 380.032 -4.04856 0.785209 0
M  V30 4150 H 379.373 -0.560604 0.355835 0
M  V30 4151 H 381.903 -1.31059 1.57114 0
M  V30 4152 H 381.913 -3.75702 1.59097 0
M  V30 4153 H 380.588 -3.23244 2.61699 0
M  V30 4154 H 379.165 -3.63537 0.830399 0
M  V30 4155 N 381.35 -0.985608 -1.22978 0
M  V30 4156 C 382.627 -0.573599 -1.87001 0
M  V30 4157 C 383.007 0.949213 -1.88555 0
M  V30 4158 O 382.355 1.82811 -1.37086 0
M  V30 4159 C 382.565 -1.18564 -3.28243 0
M  V30 4160 C 383.913 -1.28163 -4.04796 0
M  V30 4161 O 384.937 -1.13949 -3.37482 0
M  V30 4162 O 383.796 -1.50832 -5.25273 0
M  V30 4163 H 380.89 -0.193868 -0.803955 0
M  V30 4164 H 383.436 -1.08102 -1.30813 0
M  V30 4165 H 382.208 -2.22758 -3.21706 0
M  V30 4166 H 381.831 -0.663363 -3.92027 0
M  V30 4167 N 382.828 1.3818 -0.7579 0
M  V30 4168 C 384.056 2.04301 -0.326937 0
M  V30 4169 C 384.471 1.57163 1.0462 0
M  V30 4170 O 383.828 0.746626 1.66529 0
M  V30 4171 C 383.879 3.59846 -0.345363 0
M  V30 4172 O 383.6 4.05256 -1.66432 0
M  V30 4173 C 385.101 4.4319 0.098927 0
M  V30 4174 H 382.321 0.656443 -0.139012 0
M  V30 4175 H 384.865 1.76786 -1.02796 0
M  V30 4176 H 383.02 3.86182 0.306955 0
M  V30 4177 H 383.434 4.99709 -1.59345 0
M  V30 4178 H 384.908 5.51989 0.0348745 0
M  V30 4179 H 385.385 4.23947 1.14741 0
M  V30 4180 H 385.991 4.22051 -0.52468 0
M  V30 4181 N 384.306 0.507319 1.49211 0
M  V30 4182 C 385.236 -0.256939 2.32082 0
M  V30 4183 C 386.217 -0.956609 1.40652 0
M  V30 4184 O 387.402 -0.946788 1.69557 0
M  V30 4185 C 384.532 -1.31802 3.21318 0
M  V30 4186 C 383.486 -0.737855 4.21592 0
M  V30 4187 C 382.812 -1.89992 4.99807 0
M  V30 4188 C 384.112 0.275325 5.21574 0
M  V30 4189 H 385.806 0.434798 2.96226 0
M  V30 4190 H 383.352 0.210546 1.42452 0
M  V30 4191 H 385.305 -1.86045 3.78107 0
M  V30 4192 H 384.029 -2.03903 2.5513 0
M  V30 4193 H 382.688 -0.217126 3.65956 0
M  V30 4194 H 382.336 -2.60877 4.30061 0
M  V30 4195 H 382.036 -1.51777 5.6766 0
M  V30 4196 H 383.56 -2.44657 5.59442 0
M  V30 4197 H 384.974 -0.179193 5.7302 0
M  V30 4198 H 383.371 0.573649 5.97352 0
M  V30 4199 H 384.441 1.18903 4.70096 0
M  V30 4200 N 385.784 -1.5574 0.241426 0
M  V30 4201 C 387.012 -2.03208 -0.389134 0
M  V30 4202 C 387.427 -1.12082 -1.51931 0
M  V30 4203 O 386.784 -0.134183 -1.82006 0
M  V30 4204 C 386.835 -3.50064 -0.902087 0
M  V30 4205 O 386.556 -4.37717 0.18305 0
M  V30 4206 C 388.057 -4.13268 -1.60389 0
M  V30 4207 H 385.277 -0.664509 -0.0931053 0
M  V30 4208 H 387.821 -2.0124 0.36369 0
M  V30 4209 H 385.976 -3.52583 -1.60511 0
M  V30 4210 H 386.39 -5.24097 -0.205579 0
M  V30 4211 H 387.864 -5.17733 -1.91458 0
M  V30 4212 H 388.341 -3.59434 -2.52397 0
M  V30 4213 H 388.947 -4.14655 -0.945576 0
M  V30 4214 N 387.262 0.0317525 -1.57568 0
M  V30 4215 C 388.192 1.03274 -2.0942 0
M  V30 4216 C 389.173 1.3788 -0.996143 0
M  V30 4217 O 390.358 1.46811 -1.27122 0
M  V30 4218 C 387.488 2.33448 -2.57137 0
M  V30 4219 C 386.442 2.13091 -3.71182 0
M  V30 4220 C 385.768 3.49001 -4.05095 0
M  V30 4221 C 387.068 1.51928 -4.99715 0
M  V30 4222 H 388.762 0.60112 -2.93303 0
M  V30 4223 H 386.308 0.287705 -1.41097 0
M  V30 4224 H 388.261 3.03802 -2.92032 0
M  V30 4225 H 386.985 2.78665 -1.70333 0
M  V30 4226 H 385.644 1.45171 -3.36632 0
M  V30 4227 H 385.292 3.91862 -3.15362 0
M  V30 4228 H 384.992 3.36207 -4.81911 0
M  V30 4229 H 386.516 4.20721 -4.42522 0
M  V30 4230 H 387.93 2.12196 -5.32584 0
M  V30 4231 H 386.327 1.49716 -5.81124 0
M  V30 4232 H 387.397 0.484811 -4.8247 0
M  V30 4233 N 388.74 1.54641 0.303973 0
M  V30 4234 C 389.965 1.78092 1.06292 0
M  V30 4235 C 390.39 0.537342 1.80262 0
M  V30 4236 O 389.748 -0.511993 1.7392 0
M  V30 4237 C 389.796 2.98612 2.02147 0
M  V30 4238 O 388.9 2.71528 3.10397 0
M  V30 4239 H 388.241 0.589548 0.305497 0
M  V30 4240 H 390.771 2.01716 0.3423 0
M  V30 4241 H 390.781 3.265 2.44667 0
M  V30 4242 H 389.456 3.88785 1.47714 0
M  V30 4243 H 388.033 2.54648 2.72413 0
M  V30 4244 N 390.218 -0.567019 1.47046 0
M  V30 4245 C 391.466 -1.322 1.52864 0
M  V30 4246 C 391.787 -1.94088 0.188388 0
M  V30 4247 O 391.057 -1.7941 -0.786693 0
M  V30 4248 H 389.637 -0.490894 0.563056 0
M  V30 4249 H 392.299 -0.662879 1.83281 0
M  V30 4250 H 391.395 -2.12062 2.2899 0
M  V30 4251 N 391.696 -1.35014 -0.812953 0
M  V30 4252 C 392.606 -1.2951 -1.95613 0
M  V30 4253 C 393.622 -0.20107 -1.72834 0
M  V30 4254 O 394.798 -0.42932 -1.96771 0
M  V30 4255 C 391.863 -1.06033 -3.30088 0
M  V30 4256 C 390.924 -2.24688 -3.65805 0
M  V30 4257 C 390.157 -2.02322 -4.93864 0
M  V30 4258 O 390.38 -0.986464 -5.61805 0
M  V30 4259 O 389.314 -2.89525 -5.27692 0
M  V30 4260 H 393.14 -2.25705 -2.03202 0
M  V30 4261 H 390.725 -1.15321 -0.949811 0
M  V30 4262 H 392.607 -0.94763 -4.10607 0
M  V30 4263 H 391.282 -0.128852 -3.23443 0
M  V30 4264 H 390.189 -2.41521 -2.85689 0
M  V30 4265 H 391.522 -3.16261 -3.77147 0
M  V30 4266 N 393.175 1.03435 -1.18907 0
M  V30 4267 C 394.108 2.11162 -0.86521 0
M  V30 4268 C 395.086 1.6165 0.175473 0
M  V30 4269 O 396.27 1.88425 0.0530129 0
M  V30 4270 C 393.397 3.37423 -0.293868 0
M  V30 4271 C 392.443 4.05795 -1.31274 0
M  V30 4272 S 393.276 4.52027 -2.8711 0
M  V30 4273 C 394.432 5.81513 -2.31504 0
M  V30 4274 H 394.665 2.38308 -1.77754 0
M  V30 4275 H 392.198 1.16295 -1.01562 0
M  V30 4276 H 394.156 4.1049 0.0292572 0
M  V30 4277 H 392.817 3.0838 0.596682 0
M  V30 4278 H 392.01 4.96574 -0.86198 0
M  V30 4279 H 391.612 3.38874 -1.58242 0
M  V30 4280 H 393.904 6.55784 -1.70157 0
M  V30 4281 H 394.847 6.3136 -3.20608 0
M  V30 4282 H 395.255 5.36921 -1.74286 0
M  V30 4283 N 394.653 0.992116 1.22453 0
M  V30 4284 C 395.616 0.546883 2.2258 0
M  V30 4285 C 396.616 -0.369829 1.56489 0
M  V30 4286 O 397.806 -0.161896 1.73446 0
M  V30 4287 C 394.938 -0.204659 3.40285 0
M  V30 4288 H 396.131 1.43234 2.63484 0
M  V30 4289 H 393.684 0.779239 1.3549 0
M  V30 4290 H 394.419 -1.10614 3.04853 0
M  V30 4291 H 394.204 0.45354 3.89468 0
M  V30 4292 H 395.694 -0.504358 4.14543 0
M  V30 4293 N 396.131 -1.37776 0.765217 0
M  V30 4294 C 397.377 -2.00145 0.327072 0
M  V30 4295 C 397.71 -1.60607 -1.09175 0
M  V30 4296 O 396.985 -0.849127 -1.74986 0
M  V30 4297 C 397.268 -3.57109 0.46319 0
M  V30 4298 C 397.121 -4.06576 1.92395 0
M  V30 4299 C 398.44 -4.39888 -0.136473 0
M  V30 4300 H 395.559 -0.727113 0.120316 0
M  V30 4301 H 398.201 -1.63549 0.967039 0
M  V30 4302 H 396.351 -3.88414 -0.0816358 0
M  V30 4303 H 398.023 -3.85864 2.52798 0
M  V30 4304 H 396.266 -3.59011 2.43503 0
M  V30 4305 H 396.937 -5.15639 1.97028 0
M  V30 4306 H 399.413 -4.14803 0.328317 0
M  V30 4307 H 398.289 -5.48899 -0.0110582 0
M  V30 4308 H 398.55 -4.24758 -1.22608 0
M  V30 4309 N 397.609 -0.515225 -1.4894 0
M  V30 4310 C 398.556 0.255567 -2.29381 0
M  V30 4311 C 399.526 0.947387 -1.36432 0
M  V30 4312 O 400.711 0.951288 -1.65394 0
M  V30 4313 C 397.851 1.30551 -3.19453 0
M  V30 4314 C 396.964 0.624029 -4.27469 0
M  V30 4315 C 396.099 1.65563 -5.0474 0
M  V30 4316 C 395.138 0.956802 -6.04576 0
M  V30 4317 N 394.275 1.93326 -6.74959 0
M  V30 4318 H 399.115 -0.436607 -2.94784 0
M  V30 4319 H 396.652 -0.227154 -1.45336 0
M  V30 4320 H 398.61 1.92639 -3.70062 0
M  V30 4321 H 397.24 1.96626 -2.56004 0
M  V30 4322 H 396.292 -0.110459 -3.8024 0
M  V30 4323 H 397.604 0.0746092 -4.98744 0
M  V30 4324 H 396.758 2.35119 -5.59289 0
M  V30 4325 H 395.497 2.23893 -4.3327 0
M  V30 4326 H 394.502 0.247097 -5.49244 0
M  V30 4327 H 395.727 0.379814 -6.78037 0
M  V30 4328 H 393.673 2.50591 -6.06251 0
M  V30 4329 H 393.59 1.43489 -7.42258 0
M  V30 4330 H 394.858 2.62126 -7.34105 0
M  V30 4331 N 399.087 1.5561 -0.249682 0
M  V30 4332 C 400.503 1.59254 0.105103 0
M  V30 4333 C 400.703 1.26685 1.56694 0
M  V30 4334 O 399.759 1.0155 2.31179 0
M  V30 4335 C 401.072 2.99687 -0.246592 0
M  V30 4336 C 402.62 3.12416 -0.191118 0
M  V30 4337 C 403.095 4.55074 -0.516885 0
M  V30 4338 N 404.586 4.60835 -0.467489 0
M  V30 4339 C 405.321 5.69201 -0.69268 0
M  V30 4340 N 404.817 6.85817 -0.981146 0
M  V30 4341 N 406.61 5.58635 -0.623198 0
M  V30 4342 H 398.761 1.75049 -1.20298 0
M  V30 4343 H 401.024 0.815003 -0.484225 0
M  V30 4344 H 400.73 3.28267 -1.26228 0
M  V30 4345 H 400.604 3.74798 0.424962 0
M  V30 4346 H 402.991 2.83615 0.815247 0
M  V30 4347 H 403.072 2.39573 -0.896563 0
M  V30 4348 H 402.716 4.84596 -1.52082 0
M  V30 4349 H 402.646 5.26181 0.210068 0
M  V30 4350 H 405.137 3.7705 -0.253373 0
M  V30 4351 H 405.45 7.64341 -1.14032 0
M  V30 4352 H 403.795 6.87494 -1.01865 0
M  V30 4353 H 406.986 4.66406 -0.397863 0
M  V30 4354 H 407.159 6.43017 -0.802093 0
M  V30 4355 N 400.565 -0.0233959 1.57583 0
M  V30 4356 C 401.475 -1.03907 2.10334 0
M  V30 4357 C 402.491 -1.39257 1.04323 0
M  V30 4358 O 403.667 -1.48462 1.36091 0
M  V30 4359 C 400.732 -2.31938 2.57693 0
M  V30 4360 C 399.793 -2.03117 3.78209 0
M  V30 4361 C 399.026 -3.25043 4.233 0
M  V30 4362 O 399.249 -4.35916 3.67876 0
M  V30 4363 O 398.183 -3.10411 5.15683 0
M  V30 4364 H 402.009 -0.620748 2.97288 0
M  V30 4365 H 399.594 -0.240743 1.47448 0
M  V30 4366 H 401.476 -3.07196 2.88458 0
M  V30 4367 H 400.151 -2.73055 1.73847 0
M  V30 4368 H 399.058 -1.25408 3.52454 0
M  V30 4369 H 400.391 -1.66852 4.63056 0
M  V30 4370 N 402.043 -1.548 -0.295768 0
M  V30 4371 C 402.975 -1.82492 -1.3867 0
M  V30 4372 C 403.988 -0.708134 -1.46592 0
M  V30 4373 O 405.177 -0.985686 -1.48817 0
M  V30 4374 C 402.277 -1.95256 -2.76999 0
M  V30 4375 C 401.45 -3.25709 -2.91946 0
M  V30 4376 C 400.509 -3.28824 -4.10806 0
M  V30 4377 O 399.535 -4.02328 -4.02643 0
M  V30 4378 N 400.737 -2.5459 -5.21694 0
M  V30 4379 H 403.502 -2.76646 -1.15269 0
M  V30 4380 H 401.063 -1.54438 -0.485849 0
M  V30 4381 H 403.055 -1.94736 -3.54768 0
M  V30 4382 H 401.625 -1.08072 -2.93324 0
M  V30 4383 H 400.845 -3.38959 -2.01247 0
M  V30 4384 H 402.133 -4.11786 -2.98847 0
M  V30 4385 H 401.531 -1.94512 -5.31208 0
M  V30 4386 H 400.088 -2.59818 -5.97778 0
M  V30 4387 N 403.521 0.559213 -1.47345 0
M  V30 4388 C 404.451 1.67622 -1.62558 0
M  V30 4389 C 405.432 1.63331 -0.475087 0
M  V30 4390 O 406.617 1.80983 -0.704182 0
M  V30 4391 C 403.747 3.0626 -1.63774 0
M  V30 4392 C 402.701 3.25397 -2.7803 0
M  V30 4393 C 402.027 4.64801 -2.64318 0
M  V30 4394 C 403.327 3.10965 -4.19641 0
M  V30 4395 H 405.021 1.55146 -2.56067 0
M  V30 4396 H 402.567 0.744961 -1.23233 0
M  V30 4397 H 404.52 3.84247 -1.73008 0
M  V30 4398 H 403.244 3.1969 -0.66825 0
M  V30 4399 H 401.903 2.49817 -2.68304 0
M  V30 4400 H 401.551 4.75028 -1.65401 0
M  V30 4401 H 401.251 4.78555 -3.40968 0
M  V30 4402 H 402.775 5.44926 -2.75478 0
M  V30 4403 H 404.189 3.78772 -4.30354 0
M  V30 4404 H 402.586 3.36229 -4.97062 0
M  V30 4405 H 403.656 2.07736 -4.38148 0
M  V30 4406 N 404.999 1.35443 0.805782 0
M  V30 4407 C 405.946 1.28431 1.91766 0
M  V30 4408 C 406.916 0.156102 1.65365 0
M  V30 4409 O 408.101 0.339936 1.87747 0
M  V30 4410 C 405.241 1.06301 3.2832 0
M  V30 4411 C 404.354 2.2805 3.66902 0
M  V30 4412 C 403.489 1.99064 4.92491 0
M  V30 4413 C 402.528 3.16863 5.23703 0
M  V30 4414 N 401.665 2.87647 6.40471 0
M  V30 4415 H 406.505 2.23511 1.97096 0
M  V30 4416 H 404.042 1.11105 0.964054 0
M  V30 4417 H 406 0.915012 4.07042 0
M  V30 4418 H 404.63 0.148822 3.22457 0
M  V30 4419 H 403.682 2.53711 2.83434 0
M  V30 4420 H 404.994 3.1601 3.85927 0
M  V30 4421 H 404.148 1.81099 5.7904 0
M  V30 4422 H 402.887 1.0839 4.75503 0
M  V30 4423 H 401.892 3.35404 4.35642 0
M  V30 4424 H 403.117 4.08339 5.4262 0
M  V30 4425 H 401.063 1.99568 6.24907 0
M  V30 4426 H 400.98 3.69141 6.59751 0
M  V30 4427 H 402.248 2.73226 7.30047 0
M  V30 4428 N 406.477 -1.02803 1.19454 0
M  V30 4429 C 407.425 -2.13213 0.929673 0
M  V30 4430 C 408.419 -1.69011 -0.114806 0
M  V30 4431 O 409.625 -1.79967 0.0345147 0
M  V30 4432 H 406 -0.69662 0.28324 0
M  V30 4433 H 407.971 -2.32744 1.86743 0
M  V30 4434 C 406.72 -3.4429 0.485797 0
M  V30 4435 H 406.043 -3.7872 1.28105 0
M  V30 4436 H 407.483 -4.22638 0.339582 0
M  V30 4437 C 405.942 -3.27258 -0.800244 0
M  V30 4438 O 406.472 -3.55967 -1.86146 0
M  V30 4439 N 404.678 -2.80545 -0.75781 0
M  V30 4440 H 404.225 -2.57382 0.106039 0
M  V30 4441 H 404.183 -2.6953 -1.61867 0
M  V30 4442 N 407.956 -0.998596 -1.21925 0
M  V30 4443 C 409.204 -0.676325 -1.90448 0
M  V30 4444 C 409.525 0.794719 -1.78071 0
M  V30 4445 O 408.795 1.5701 -1.17152 0
M  V30 4446 H 407.375 -0.247165 -0.704925 0
M  V30 4447 H 410.037 -1.26633 -1.48156 0
M  V30 4448 H 409.133 -0.943858 -2.97486 0
M  V30 4449 N 409.434 1.37368 -0.772513 0
M  V30 4450 C 410.682 1.99279 -0.336516 0
M  V30 4451 C 411.003 1.6163 1.09091 0
M  V30 4452 O 410.273 0.882109 1.74916 0
M  V30 4453 H 408.853 0.737063 -0.121435 0
M  V30 4454 H 411.515 1.67836 -0.990809 0
M  V30 4455 H 410.611 3.09332 -0.414763 0
M  V30 4456 N 410.912 0.523116 1.48665 0
M  V30 4457 C 411.842 -0.23231 2.32342 0
M  V30 4458 C 412.823 -0.941637 1.41659 0
M  V30 4459 O 414.008 -0.928751 1.70552 0
M  V30 4460 C 411.138 -1.28387 3.22698 0
M  V30 4461 C 410.092 -0.693098 4.22351 0
M  V30 4462 C 409.418 -1.8468 5.01794 0
M  V30 4463 C 410.718 0.33063 5.21252 0
M  V30 4464 H 412.412 0.466192 2.95748 0
M  V30 4465 H 409.958 0.225643 1.42221 0
M  V30 4466 H 411.911 -1.82024 3.80059 0
M  V30 4467 H 410.635 -2.01186 2.57278 0
M  V30 4468 H 409.294 -0.178299 3.66166 0
M  V30 4469 H 408.942 -2.56301 4.32804 0
M  V30 4470 H 408.642 -1.45747 5.69238 0
M  V30 4471 H 410.166 -2.38709 5.62006 0
M  V30 4472 H 411.58 -0.118407 5.73178 0
M  V30 4473 H 409.977 0.636974 5.9671 0
M  V30 4474 H 411.047 1.23883 4.68808 0
M  V30 4475 N 412.39 -1.55475 0.257931 0
M  V30 4476 C 413.638 -1.98813 -0.363009 0
M  V30 4477 C 413.959 -1.14757 -1.57657 0
M  V30 4478 O 413.229 -0.232956 -1.9451 0
M  V30 4479 H 411.809 -0.734308 -0.137113 0
M  V30 4480 H 414.471 -1.9156 0.359281 0
M  V30 4481 H 413.567 -3.04941 -0.664634 0
M  V30 4482 N 413.868 0.0150385 -1.57593 0
M  V30 4483 C 415.114 0.704043 -1.90187 0
M  V30 4484 C 415.447 1.74249 -0.857366 0
M  V30 4485 O 414.722 1.94092 0.125843 0
M  V30 4486 C 415.005 1.36087 -3.33395 0
M  V30 4487 C 414.858 0.334981 -4.48551 0
M  V30 4488 C 416.177 2.29112 -3.7576 0
M  V30 4489 H 413.296 0.254475 -0.691673 0
M  V30 4490 H 415.938 -0.0331678 -1.89971 0
M  V30 4491 H 414.088 1.98922 -3.3371 0
M  V30 4492 H 415.76 -0.292534 -4.60372 0
M  V30 4493 H 414.003 -0.344325 -4.32431 0
M  V30 4494 H 414.674 0.833316 -5.45674 0
M  V30 4495 H 417.15 1.76308 -3.76902 0
M  V30 4496 H 416.026 2.72043 -4.76743 0
M  V30 4497 H 416.287 3.16385 -3.08793 0
M  V30 4498 N 415.346 1.54954 0.287554 0
M  V30 4499 C 416.592 1.75132 1.02257 0
M  V30 4500 C 416.925 0.542858 1.86458 0
M  V30 4501 O 416.2 -0.459856 1.88986 0
M  V30 4502 C 416.483 3.04812 1.91733 0
M  V30 4503 C 416.336 4.35985 1.10622 0
M  V30 4504 C 417.655 3.30438 2.90687 0
M  V30 4505 H 414.774 0.637194 0.370341 0
M  V30 4506 H 417.416 1.87678 0.296111 0
M  V30 4507 H 415.566 2.94247 2.53675 0
M  V30 4508 H 417.238 4.58487 0.508636 0
M  V30 4509 H 415.481 4.31865 0.409271 0
M  V30 4510 H 416.152 5.23017 1.76513 0
M  V30 4511 H 418.628 3.40701 2.38877 0
M  V30 4512 H 417.504 4.22467 3.50447 0
M  V30 4513 H 417.765 2.49377 3.65053 0
M  V30 4514 N 416.824 -0.551391 1.4764 0
M  V30 4515 C 418.049 -1.33837 1.58437 0
M  V30 4516 C 418.474 -1.866 0.237063 0
M  V30 4517 O 417.832 -1.6328 -0.787994 0
M  V30 4518 C 417.88 -2.48014 2.61766 0
M  V30 4519 O 416.984 -3.50419 2.1744 0
M  V30 4520 H 416.325 -0.397299 0.532024 0
M  V30 4521 H 418.855 -0.665759 1.93465 0
M  V30 4522 H 418.865 -2.94503 2.82369 0
M  V30 4523 H 417.54 -2.08969 3.5959 0
M  V30 4524 H 416.117 -3.10196 2.06961 0
M  V30 4525 N 418.302 -1.35869 -0.798587 0
M  V30 4526 C 419.579 -1.20145 -1.54352 0
M  V30 4527 C 419.959 0.216161 -2.0999 0
M  V30 4528 O 419.307 1.22068 -1.93162 0
M  V30 4529 C 419.517 -2.27602 -2.64572 0
M  V30 4530 C 420.865 -2.63811 -3.32699 0
M  V30 4531 O 421.889 -2.26576 -2.74849 0
M  V30 4532 O 420.748 -3.27866 -4.37226 0
M  V30 4533 H 417.842 -0.467248 -0.682355 0
M  V30 4534 H 420.388 -1.47574 -0.837859 0
M  V30 4535 H 419.16 -3.2265 -2.21388 0
M  V30 4536 H 418.783 -2.01488 -3.42766 0
M  V30 4537 N 419.78 1.02168 -1.19998 0
M  V30 4538 C 420.743 2.08765 -0.94604 0
M  V30 4539 C 421.743 1.60618 0.0763846 0
M  V30 4540 O 422.933 1.73472 -0.159135 0
M  V30 4541 C 420.065 3.38262 -0.423255 0
M  V30 4542 H 421.258 2.32726 -1.89153 0
M  V30 4543 H 418.811 1.1889 -1.01464 0
M  V30 4544 H 419.546 3.19974 0.527938 0
M  V30 4545 H 419.331 3.74532 -1.16053 0
M  V30 4546 H 420.821 4.16759 -0.264911 0
M  V30 4547 N 421.258 1.00505 1.21394 0
M  V30 4548 C 422.507 0.683159 1.89778 0
M  V30 4549 C 422.82 -0.789471 1.7896 0
M  V30 4550 O 424.026 -1.22344 2.42372 0
M  V30 4551 C 422.482 1.17146 3.40301 0
M  V30 4552 C 422.09 2.67017 3.5973 0
M  V30 4553 C 423.834 0.924461 4.14311 0
M  V30 4554 C 421.741 3.09387 5.04017 0
M  V30 4555 H 420.671 0.25183 0.710702 0
M  V30 4556 H 423.322 1.21622 1.37406 0
M  V30 4557 H 421.704 0.566451 3.91928 0
M  V30 4558 H 422.878 3.32968 3.18542 0
M  V30 4559 H 421.193 2.89732 2.99073 0
M  V30 4560 H 423.79 1.21658 5.20676 0
M  V30 4561 H 424.133 -0.139286 4.16067 0
M  V30 4562 H 424.666 1.49226 3.6875 0
M  V30 4563 H 421.405 4.14989 5.07409 0
M  V30 4564 H 420.925 2.48149 5.46061 0
M  V30 4565 H 422.604 3.01371 5.72525 0
M  V30 4566 N 422.737 -1.36956 0.779787 0
M  V30 4567 C 423.984 -1.99491 0.347766 0
M  V30 4568 C 424.312 -1.61898 -1.07793 0
M  V30 4569 O 423.567 -0.86071 -1.75756 0
M  V30 4570 C 423.866 -3.54585 0.447686 0
M  V30 4571 C 423.532 -4.1197 1.83279 0
M  V30 4572 C 422.194 -4.27356 2.2118 0
M  V30 4573 C 424.546 -4.43354 2.74019 0
M  V30 4574 C 421.874 -4.71432 3.4924 0
M  V30 4575 C 424.226 -4.88858 4.01497 0
M  V30 4576 C 422.89 -5.0245 4.39432 0
M  V30 4577 H 422.16 -0.729991 0.127257 0
M  V30 4578 H 424.807 -1.63599 0.995376 0
M  V30 4579 H 423.112 -3.90773 -0.283447 0
M  V30 4580 H 424.809 -4.00888 0.0945948 0
M  V30 4581 H 421.399 -4.00428 1.52825 0
M  V30 4582 H 425.583 -4.31045 2.45995 0
M  V30 4583 H 420.839 -4.80141 3.78516 0
M  V30 4584 H 425.013 -5.12108 4.71931 0
M  V30 4585 H 422.64 -5.36362 5.38721 0
M  V30 4586 N 424.215 -0.530993 -1.48385 0
M  V30 4587 C 425.125 0.23503 -2.3342 0
M  V30 4588 C 426.141 0.93801 -1.46552 0
M  V30 4589 O 427.317 0.912745 -1.7953 0
M  V30 4590 C 424.382 1.26778 -3.22689 0
M  V30 4591 C 423.443 0.575038 -4.25431 0
M  V30 4592 C 422.676 1.55858 -5.10435 0
M  V30 4593 O 422.899 2.79129 -4.97437 0
M  V30 4594 O 421.833 1.09742 -5.91811 0
M  V30 4595 H 425.659 -0.461794 -3.00169 0
M  V30 4596 H 423.244 -0.291903 -1.46521 0
M  V30 4597 H 425.126 1.86457 -3.77904 0
M  V30 4598 H 423.801 1.94699 -2.586 0
M  V30 4599 H 422.708 -0.0622782 -3.74048 0
M  V30 4600 H 424.041 -0.062253 -4.92161 0
M  V30 4601 N 425.693 1.55336 -0.266172 0
M  V30 4602 C 426.623 2.25146 0.618981 0
M  V30 4603 C 427.604 1.23845 1.16604 0
M  V30 4604 O 428.789 1.52544 1.20183 0
M  V30 4605 C 425.919 2.96572 1.80728 0
M  V30 4606 C 424.873 4.04726 1.39215 0
M  V30 4607 C 424.199 4.63678 2.66283 0
M  V30 4608 C 425.499 5.19407 0.548942 0
M  V30 4609 H 427.193 2.99377 0.0368116 0
M  V30 4610 H 424.739 1.43991 0.0162651 0
M  V30 4611 H 426.692 3.44116 2.43232 0
M  V30 4612 H 425.416 2.19861 2.41514 0
M  V30 4613 H 424.075 3.57979 0.790351 0
M  V30 4614 H 423.723 3.83646 3.25308 0
M  V30 4615 H 423.423 5.367 2.39222 0
M  V30 4616 H 424.947 5.13967 3.29651 0
M  V30 4617 H 426.361 5.63059 1.07876 0
M  V30 4618 H 424.758 5.98936 0.373593 0
M  V30 4619 H 425.828 4.8295 -0.434394 0
M  V30 4620 N 427.171 -0.0066808 1.57599 0
M  V30 4621 C 428.419 -0.691552 1.899 0
M  V30 4622 C 428.74 -1.74682 0.866672 0
M  V30 4623 O 428.01 -1.95661 -0.0968189 0
M  V30 4624 H 426.59 -0.258416 0.700878 0
M  V30 4625 H 429.252 0.0326655 1.94873 0
M  V30 4626 H 428.348 -1.16702 2.8946 0
M  V30 4627 N 428.649 -1.55105 -0.279332 0
M  V30 4628 C 429.596 -1.8755 -1.34513 0
M  V30 4629 C 430.566 -0.726384 -1.49375 0
M  V30 4630 O 431.751 -0.977063 -1.63884 0
M  V30 4631 C 428.891 -2.14738 -2.70151 0
M  V30 4632 C 428.004 -3.42285 -2.63562 0
M  V30 4633 C 427.139 -3.59206 -3.91337 0
M  V30 4634 C 426.178 -4.80467 -3.79233 0
M  V30 4635 N 425.315 -4.94079 -4.98829 0
M  V30 4636 H 430.155 -2.78456 -1.06143 0
M  V30 4637 H 427.692 -1.37867 -0.512936 0
M  V30 4638 H 429.65 -2.28501 -3.49061 0
M  V30 4639 H 428.28 -1.27075 -2.96735 0
M  V30 4640 H 427.332 -3.37029 -1.76397 0
M  V30 4641 H 428.644 -4.31328 -2.50515 0
M  V30 4642 H 427.798 -3.72751 -4.78687 0
M  V30 4643 H 426.537 -2.68337 -4.07243 0
M  V30 4644 H 425.542 -4.66932 -2.90266 0
M  V30 4645 H 426.767 -5.72765 -3.64852 0
M  V30 4646 H 424.713 -4.06139 -5.15158 0
M  V30 4647 H 424.63 -5.77156 -4.8829 0
M  V30 4648 H 425.898 -5.12003 -5.8777 0
M  V30 4649 N 430.127 0.543554 -1.4793 0
M  V30 4650 C 431.352 1.32995 -1.59145 0
M  V30 4651 C 431.777 1.86472 -0.246956 0
M  V30 4652 O 431.135 1.63696 0.779324 0
M  V30 4653 C 431.183 2.46623 -2.63077 0
M  V30 4654 O 430.287 3.49261 -2.19295 0
M  V30 4655 H 429.628 0.394472 -0.534124 0
M  V30 4656 H 432.158 0.655489 -1.93816 0
M  V30 4657 H 432.168 2.93001 -2.83926 0
M  V30 4658 H 430.843 2.07059 -3.60693 0
M  V30 4659 H 429.42 3.09094 -2.08603 0
M  V30 4660 N 431.605 1.3629 0.791371 0
M  V30 4661 C 432.535 1.33137 1.91825 0
M  V30 4662 C 433.516 0.203168 1.68882 0
M  V30 4663 O 434.701 0.400509 1.90025 0
M  V30 4664 C 431.831 1.11793 3.28816 0
M  V30 4665 C 430.785 2.21417 3.66277 0
M  V30 4666 C 430.111 1.85218 5.01596 0
M  V30 4667 C 431.411 3.63489 3.75064 0
M  V30 4668 H 433.105 2.2743 1.9472 0
M  V30 4669 H 430.651 1.09479 0.935437 0
M  V30 4670 H 432.604 1.08222 4.07266 0
M  V30 4671 H 431.328 0.139501 3.26302 0
M  V30 4672 H 429.987 2.2411 2.90121 0
M  V30 4673 H 429.635 0.859544 4.95602 0
M  V30 4674 H 429.335 2.58611 5.27631 0
M  V30 4675 H 430.859 1.832 5.82469 0
M  V30 4676 H 432.273 3.63034 4.43711 0
M  V30 4677 H 430.67 4.35771 4.12582 0
M  V30 4678 H 431.74 3.98536 2.76219 0
M  V30 4679 N 433.083 -1.0153 1.20538 0
M  V30 4680 C 434.308 -1.79283 1.04271 0
M  V30 4681 C 434.733 -1.8372 -0.403544 0
M  V30 4682 O 434.091 -1.27321 -1.2907 0
M  V30 4683 C 434.139 -3.21535 1.63241 0
M  V30 4684 O 433.243 -4.03099 0.870908 0
M  V30 4685 H 432.584 -0.55293 0.367647 0
M  V30 4686 H 435.114 -1.27696 1.59859 0
M  V30 4687 H 435.124 -3.72243 1.6703 0
M  V30 4688 H 433.799 -3.1762 2.68497 0
M  V30 4689 H 432.376 -3.61693 0.907323 0
M  V30 4690 N 434.561 -1.01147 -1.20859 0
M  V30 4691 C 435.524 -0.582224 -2.21682 0
M  V30 4692 C 436.524 0.344887 -1.57058 0
M  V30 4693 O 437.714 0.134281 -1.73682 0
M  V30 4694 C 434.846 0.150496 -3.40568 0
M  V30 4695 H 436.039 -1.47408 -2.61172 0
M  V30 4696 H 433.592 -0.800695 -1.34233 0
M  V30 4697 H 434.327 1.0575 -3.06574 0
M  V30 4698 H 434.112 -0.515444 -3.88697 0
M  V30 4699 H 435.602 0.438344 -4.15293 0
M  V30 4700 N 436.039 1.36541 -0.78704 0
M  V30 4701 C 437.286 1.99304 -0.358341 0
M  V30 4702 C 437.614 1.62467 1.06933 0
M  V30 4703 O 436.869 0.870019 1.75297 0
M  V30 4704 C 437.168 3.54343 -0.466485 0
M  V30 4705 C 436.834 4.10993 -1.85461 0
M  V30 4706 C 435.496 4.26177 -2.23443 0
M  V30 4707 C 437.848 4.41895 -2.76366 0
M  V30 4708 C 435.176 4.69573 -3.51736 0
M  V30 4709 C 437.528 4.86722 -4.04084 0
M  V30 4710 C 436.192 5.00112 -4.42091 0
M  V30 4711 H 435.462 0.729306 -0.131126 0
M  V30 4712 H 438.109 1.63068 -1.00404 0
M  V30 4713 H 436.414 3.90918 0.262719 0
M  V30 4714 H 438.111 4.00833 -0.115854 0
M  V30 4715 H 434.701 3.99612 -1.54946 0
M  V30 4716 H 438.885 4.29735 -2.48277 0
M  V30 4717 H 434.141 4.78127 -3.81057 0
M  V30 4718 H 438.315 5.09598 -4.7464 0
M  V30 4719 H 435.942 5.33498 -5.41557 0
M  V30 4720 N 437.518 0.538854 1.48102 0
M  V30 4721 C 438.466 -0.232325 2.31437 0
M  V30 4722 C 439.46 -0.927004 1.41785 0
M  V30 4723 O 440.666 -0.850378 1.58646 0
M  V30 4724 H 437.041 -0.0937916 0.746128 0
M  V30 4725 H 439.012 0.489986 2.9435 0
M  V30 4726 C 437.761 -1.26074 3.24038 0
M  V30 4727 H 437.084 -0.735609 3.92974 0
M  V30 4728 H 438.524 -1.77157 3.85216 0
M  V30 4729 C 436.983 -2.29902 2.46265 0
M  V30 4730 O 437.513 -3.36502 2.19384 0
M  V30 4731 N 435.719 -2.03348 2.07601 0
M  V30 4732 H 435.266 -1.16675 2.29662 0
M  V30 4733 H 435.224 -2.73038 1.55877 0
M  V30 4734 N 438.996 -1.55193 0.274407 0
M  V30 4735 C 439.926 -2.25471 -0.607032 0
M  V30 4736 C 440.907 -1.24461 -1.15946 0
M  V30 4737 O 442.092 -1.53179 -1.19373 0
M  V30 4738 C 439.222 -2.97526 -1.79153 0
M  V30 4739 C 438.176 -4.05459 -1.37067 0
M  V30 4740 C 437.502 -4.65084 -2.6382 0
M  V30 4741 C 438.802 -5.19691 -0.521389 0
M  V30 4742 H 440.496 -2.99393 -0.0209343 0
M  V30 4743 H 438.042 -1.43997 -0.00862866 0
M  V30 4744 H 439.995 -3.45402 -2.41404 0
M  V30 4745 H 438.719 -2.21138 -2.40344 0
M  V30 4746 H 437.378 -3.58393 -0.771355 0
M  V30 4747 H 437.026 -3.85365 -3.23268 0
M  V30 4748 H 436.726 -5.37961 -2.36372 0
M  V30 4749 H 438.25 -5.15708 -3.26921 0
M  V30 4750 H 439.664 -5.63623 -1.04889 0
M  V30 4751 H 438.061 -5.99126 -0.341825 0
M  V30 4752 H 439.131 -4.82713 0.46 0
M  V30 4753 N 440.474 -0.00167713 -1.576 0
M  V30 4754 C 441.751 0.719951 -1.81868 0
M  V30 4755 C 442.131 1.91895 -0.879747 0
M  V30 4756 O 441.479 2.28389 0.0711423 0
M  V30 4757 C 441.689 1.12409 -3.30402 0
M  V30 4758 C 443.037 1.52724 -3.96182 0
M  V30 4759 O 444.061 1.21784 -3.34734 0
M  V30 4760 O 442.92 2.10265 -5.04431 0
M  V30 4761 H 440.014 0.350707 -0.748955 0
M  V30 4762 H 442.56 -0.0272597 -1.69678 0
M  V30 4763 H 441.332 0.269532 -3.90371 0
M  V30 4764 H 440.955 1.93035 -3.47596 0
M  V30 4765 N 441.952 1.55251 0.271103 0
M  V30 4766 C 443.229 1.66664 1.02384 0
M  V30 4767 C 443.609 0.534363 2.04225 0
M  V30 4768 O 442.957 -0.465337 2.23712 0
M  V30 4769 C 443.167 3.05961 1.67895 0
M  V30 4770 C 444.515 3.63772 2.18986 0
M  V30 4771 O 445.539 3.08606 1.77878 0
M  V30 4772 O 444.398 4.60429 2.94393 0
M  V30 4773 H 441.492 0.676957 0.475035 0
M  V30 4774 H 444.038 1.67589 0.26681 0
M  V30 4775 H 442.81 3.79815 0.941071 0
M  V30 4776 H 442.433 3.08943 2.5028 0
M  V30 4777 N 443.43 -0.535701 1.48216 0
M  V30 4778 C 444.658 -1.31671 1.59594 0
M  V30 4779 C 445.073 -1.87083 0.254056 0
M  V30 4780 O 444.43 -1.66112 -0.755854 0
M  V30 4781 C 444.481 -2.47158 2.63809 0
M  V30 4782 O 444.202 -1.94032 3.92789 0
M  V30 4783 C 445.703 -3.39062 2.85573 0
M  V30 4784 H 442.923 -0.400623 0.538277 0
M  V30 4785 H 445.467 -0.646827 1.94001 0
M  V30 4786 H 443.622 -3.10043 2.32276 0
M  V30 4787 H 444.036 -2.69585 4.49916 0
M  V30 4788 H 445.51 -4.16459 3.62306 0
M  V30 4789 H 445.987 -3.93941 1.94184 0
M  V30 4790 H 446.593 -2.81975 3.18387 0
M  V30 4791 N 444.908 -1.36708 -0.784132 0
M  V30 4792 C 445.818 -1.3363 -1.92822 0
M  V30 4793 C 446.834 -0.237686 -1.72369 0
M  V30 4794 O 448.01 -0.470962 -1.95816 0
M  V30 4795 C 445.075 -1.13011 -3.27764 0
M  V30 4796 C 444.136 -2.32397 -3.60957 0
M  V30 4797 C 443.369 -2.12752 -4.89461 0
M  V30 4798 O 443.592 -1.10541 -5.59586 0
M  V30 4799 O 442.526 -3.00653 -5.21432 0
M  V30 4800 H 446.352 -2.29964 -1.98369 0
M  V30 4801 H 443.937 -1.1731 -0.925136 0
M  V30 4802 H 445.819 -1.03451 -4.08504 0
M  V30 4803 H 444.494 -0.19743 -3.23097 0
M  V30 4804 H 443.401 -2.47527 -2.80502 0
M  V30 4805 H 444.734 -3.2419 -3.70354 0
M  V30 4806 N 446.386 1.0089 -1.21074 0
M  V30 4807 C 447.632 1.74866 -1.02712 0
M  V30 4808 C 447.965 1.89178 0.438787 0
M  V30 4809 O 447.24 1.42325 1.32567 0
M  V30 4810 C 447.523 3.16347 -1.72036 0
M  V30 4811 C 447.376 3.09782 -3.26121 0
M  V30 4812 C 448.695 4.15187 -1.45973 0
M  V30 4813 H 445.814 0.634736 -0.374539 0
M  V30 4814 H 448.456 1.17646 -1.49196 0
M  V30 4815 H 446.606 3.65201 -1.32517 0
M  V30 4816 H 448.278 2.68673 -3.74983 0
M  V30 4817 H 446.521 2.46982 -3.56626 0
M  V30 4818 H 447.192 4.09829 -3.6979 0
M  V30 4819 H 449.668 3.75022 -1.80272 0
M  V30 4820 H 448.544 5.12331 -1.96999 0
M  V30 4821 H 448.805 4.40386 -0.388924 0
M  V30 4822 N 447.864 1.01787 1.20321 0
M  V30 4823 C 448.827 0.593972 2.2137 0
M  V30 4824 C 449.827 -0.336553 1.57239 0
M  V30 4825 O 451.017 -0.125069 1.7375 0
M  V30 4826 C 448.149 -0.132433 3.40643 0
M  V30 4827 H 449.342 1.48791 2.60387 0
M  V30 4828 H 446.895 0.807803 1.33807 0
M  V30 4829 H 447.63 -1.04123 3.0713 0
M  V30 4830 H 447.415 0.53605 3.88418 0
M  V30 4831 H 448.905 -0.416314 4.1552 0
M  V30 4832 N 449.342 -1.36122 0.79427 0
M  V30 4833 C 450.272 -2.32551 0.210328 0
M  V30 4834 C 451.253 -1.56884 -0.657386 0
M  V30 4835 O 452.438 -1.85014 -0.590207 0
M  V30 4836 C 449.568 -3.41128 -0.651819 0
M  V30 4837 C 448.522 -4.27842 0.116395 0
M  V30 4838 C 447.848 -5.2763 -0.86666 0
M  V30 4839 C 449.148 -5.05647 1.30837 0
M  V30 4840 H 450.842 -2.81636 1.01594 0
M  V30 4841 H 448.388 -1.35407 0.489981 0
M  V30 4842 H 450.341 -4.07581 -1.07031 0
M  V30 4843 H 449.065 -2.90622 -1.49019 0
M  V30 4844 H 447.724 -3.62952 0.515915 0
M  V30 4845 H 447.372 -4.73395 -1.70019 0
M  V30 4846 H 447.072 -5.86514 -0.35705 0
M  V30 4847 H 448.596 -5.96955 -1.28361 0
M  V30 4848 H 450.01 -5.65113 0.965393 0
M  V30 4849 H 448.407 -5.73967 1.75161 0
M  V30 4850 H 449.477 -4.37006 2.10128 0
M  V30 4851 N 450.82 -0.546701 -1.47814 0
M  V30 4852 C 451.75 0.195317 -2.32682 0
M  V30 4853 C 452.731 0.918981 -1.43139 0
M  V30 4854 O 453.916 0.901501 -1.72008 0
M  V30 4855 C 451.046 1.23237 -3.247 0
M  V30 4856 C 450 0.625818 -4.234 0
M  V30 4857 C 449.326 1.76674 -5.04669 0
M  V30 4858 C 450.626 -0.413515 -5.2066 0
M  V30 4859 H 452.32 -0.513184 -2.94969 0
M  V30 4860 H 449.866 -0.248241 -1.41844 0
M  V30 4861 H 451.819 1.75955 -3.82907 0
M  V30 4862 H 450.543 1.97067 -2.60446 0
M  V30 4863 H 449.202 0.120023 -3.66403 0
M  V30 4864 H 448.85 2.49383 -4.36826 0
M  V30 4865 H 448.55 1.36673 -5.71484 0
M  V30 4866 H 450.074 2.29738 -5.65732 0
M  V30 4867 H 451.488 0.0272042 -5.73294 0
M  V30 4868 H 449.885 -0.731825 -5.95621 0
M  V30 4869 H 450.955 -1.31325 -4.66778 0
M  V30 4870 N 452.299 1.55045 -0.282633 0
M  V30 4871 C 453.231 2.2023 0.634924 0
M  V30 4872 C 454.244 1.18931 1.11172 0
M  V30 4873 O 455.433 1.4562 1.03233 0
M  V30 4874 C 452.533 2.82041 1.87899 0
M  V30 4875 C 451.706 4.091 1.54776 0
M  V30 4876 C 450.765 4.54887 2.64507 0
M  V30 4877 O 449.791 5.20496 2.30375 0
M  V30 4878 N 450.993 4.25659 3.94709 0
M  V30 4879 H 453.758 2.99601 0.0769811 0
M  V30 4880 H 451.319 1.61565 -0.104048 0
M  V30 4881 H 453.311 3.09613 2.60619 0
M  V30 4882 H 451.881 2.06618 2.3458 0
M  V30 4883 H 451.101 3.88736 0.654049 0
M  V30 4884 H 452.389 4.9187 1.30158 0
M  V30 4885 H 451.787 3.7306 4.25256 0
M  V30 4886 H 450.344 4.57984 4.63782 0
M  V30 4887 N 453.777 0.010035 1.57597 0
M  V30 4888 C 454.74 -0.963029 2.07986 0
M  V30 4889 C 455.74 -1.26619 0.991173 0
M  V30 4890 O 456.93 -1.2097 1.25347 0
M  V30 4891 C 454.062 -2.2851 2.52974 0
M  V30 4892 H 455.255 -0.526971 2.95234 0
M  V30 4893 H 452.808 -0.237639 1.54483 0
M  V30 4894 H 453.543 -2.76784 1.69 0
M  V30 4895 H 453.328 -2.07824 3.32493 0
M  V30 4896 H 454.818 -2.98294 2.9225 0
M  V30 4897 N 455.255 -1.55392 -0.262866 0
M  V30 4898 C 456.501 -1.76737 -0.99458 0
M  V30 4899 C 456.834 -0.572453 -1.85571 0
M  V30 4900 O 456.109 0.429732 -1.89693 0
M  V30 4901 C 456.392 -3.07824 -1.8686 0
M  V30 4902 C 456.245 -4.3769 -1.03672 0
M  V30 4903 C 457.564 -3.35021 -2.85393 0
M  V30 4904 H 454.683 -0.643005 -0.360157 0
M  V30 4905 H 457.325 -1.88126 -0.266216 0
M  V30 4906 H 455.475 -2.98245 -2.48962 0
M  V30 4907 H 457.147 -4.59238 -0.43563 0
M  V30 4908 H 455.39 -4.32461 -0.340513 0
M  V30 4909 H 456.061 -5.25759 -1.6817 0
M  V30 4910 H 458.537 -3.44458 -2.33426 0
M  V30 4911 H 457.413 -4.27989 -3.43681 0
M  V30 4912 H 457.674 -2.55153 -3.61039 0
M  V30 4913 N 456.733 0.527833 -1.48498 0
M  V30 4914 C 457.663 1.64136 -1.66077 0
M  V30 4915 C 458.644 1.62286 -0.509625 0
M  V30 4916 O 459.829 1.79449 -0.742413 0
M  V30 4917 C 456.959 3.02717 -1.70234 0
M  V30 4918 C 455.913 3.19426 -2.8487 0
M  V30 4919 C 455.239 4.5909 -2.74118 0
M  V30 4920 C 456.539 3.01993 -4.26142 0
M  V30 4921 H 458.233 1.4968 -2.593 0
M  V30 4922 H 455.779 0.718654 -1.24785 0
M  V30 4923 H 457.732 3.80491 -1.8112 0
M  V30 4924 H 456.456 3.18201 -0.735911 0
M  V30 4925 H 455.115 2.4407 -2.73542 0
M  V30 4926 H 454.763 4.71413 -1.7544 0
M  V30 4927 H 454.463 4.71214 -3.51042 0
M  V30 4928 H 455.987 5.3896 -2.86974 0
M  V30 4929 H 457.401 3.69558 -4.38292 0
M  V30 4930 H 455.798 3.2561 -5.04082 0
M  V30 4931 H 456.868 1.98396 -4.42456 0
M  V30 4932 N 458.211 1.37122 0.776871 0
M  V30 4933 C 459.141 1.35164 1.90402 0
M  V30 4934 C 460.122 0.221069 1.68657 0
M  V30 4935 O 461.307 0.420642 1.8959 0
M  V30 4936 C 458.437 1.15274 3.27611 0
M  V30 4937 C 457.391 2.25289 3.63908 0
M  V30 4938 C 456.717 1.90527 4.99603 0
M  V30 4939 C 458.017 3.67446 3.71188 0
M  V30 4940 H 459.711 2.29482 1.92297 0
M  V30 4941 H 457.257 1.10465 0.923773 0
M  V30 4942 H 459.21 1.12536 4.06096 0
M  V30 4943 H 457.934 0.174102 3.26136 0
M  V30 4944 H 456.593 2.27174 2.87728 0
M  V30 4945 H 456.241 0.91206 4.94662 0
M  V30 4946 H 455.941 2.64193 5.24858 0
M  V30 4947 H 457.465 1.89367 5.80493 0
M  V30 4948 H 458.879 3.67719 4.39836 0
M  V30 4949 H 457.276 4.40123 4.07936 0
M  V30 4950 H 458.346 4.01443 2.71977 0
M  V30 4951 N 459.689 -1.00246 1.21608 0
M  V30 4952 C 460.622 -2.08794 0.920892 0
M  V30 4953 C 461.6 -1.62059 -0.132552 0
M  V30 4954 O 462.784 -1.885 -0.0030366 0
M  V30 4955 C 459.911 -3.36525 0.383226 0
M  V30 4956 C 458.957 -4.02172 1.41987 0
M  V30 4957 S 459.79 -4.44256 2.98994 0
M  V30 4958 C 460.946 -5.7517 2.4684 0
M  V30 4959 H 461.179 -2.33511 1.8401 0
M  V30 4960 H 458.712 -1.13562 1.04609 0
M  V30 4961 H 460.67 -4.10423 0.0795871 0
M  V30 4962 H 459.331 -3.09854 -0.514711 0
M  V30 4963 H 458.524 -4.94114 0.993335 0
M  V30 4964 H 458.126 -3.34559 1.67171 0
M  V30 4965 H 460.418 -6.51042 1.87484 0
M  V30 4966 H 461.361 -6.22638 3.37235 0
M  V30 4967 H 461.769 -5.32112 1.88461 0
M  V30 4968 N 461.167 -1.02423 -1.1978 0
M  V30 4969 C 462.392 -0.7373 -1.93852 0
M  V30 4970 C 462.817 0.696923 -1.74713 0
M  V30 4971 O 462.175 1.48056 -1.04638 0
M  V30 4972 C 462.223 -1.08783 -3.438 0
M  V30 4973 O 461.327 -0.20383 -4.11896 0
M  V30 4974 H 460.668 -0.27284 -0.605355 0
M  V30 4975 H 463.198 -1.36966 -1.51992 0
M  V30 4976 H 463.208 -1.04276 -3.9445 0
M  V30 4977 H 461.883 -2.13274 -3.57053 0
M  V30 4978 H 460.46 -0.307091 -3.71633 0
M  V30 4979 N 462.645 1.35699 -0.801477 0
M  V30 4980 C 463.873 2.03157 -0.391768 0
M  V30 4981 C 464.288 1.60412 0.995668 0
M  V30 4982 O 463.645 0.799228 1.64069 0
M  V30 4983 C 463.696 3.58566 -0.459671 0
M  V30 4984 O 463.417 3.99756 -1.7924 0
M  V30 4985 C 464.918 4.4328 -0.0421205 0
M  V30 4986 H 462.138 0.651688 -0.159825 0
M  V30 4987 H 464.682 1.73426 -1.08368 0
M  V30 4988 H 462.837 3.86963 0.183939 0
M  V30 4989 H 463.251 4.94387 -1.75162 0
M  V30 4990 H 464.725 5.51821 -0.140754 0
M  V30 4991 H 465.202 4.27383 1.01196 0
M  V30 4992 H 465.808 4.20168 -0.658687 0
M  V30 4993 N 464.123 0.554532 1.47522 0
M  V30 4994 C 465.4 -0.0360704 1.95567 0
M  V30 4995 C 465.78 -1.48828 1.49711 0
M  V30 4996 O 465.128 -2.16366 0.734717 0
M  V30 4997 C 465.338 0.106631 3.48837 0
M  V30 4998 C 466.686 -0.0400899 4.24581 0
M  V30 4999 O 467.71 0.0340453 3.56184 0
M  V30 5000 O 466.569 -0.199111 5.46137 0
M  V30 5001 H 463.663 -0.0656294 0.824392 0
M  V30 5002 H 466.209 0.620867 1.57935 0
M  V30 5003 H 464.981 1.11727 3.7501 0
M  V30 5004 H 464.604 -0.58804 3.93227 0
M  V30 5005 N 465.601 -1.54893 0.290851 0
M  V30 5006 C 467.017 -1.59476 -0.0628432 0
M  V30 5007 C 467.217 -1.30795 -1.5328 0
M  V30 5008 O 466.273 -1.07644 -2.28406 0
M  V30 5009 C 467.586 -2.98928 0.325962 0
M  V30 5010 C 469.134 -3.11799 0.273882 0
M  V30 5011 C 469.609 -4.53544 0.637359 0
M  V30 5012 N 471.1 -4.59433 0.589507 0
M  V30 5013 C 471.835 -5.67164 0.84335 0
M  V30 5014 N 471.331 -6.82975 1.16263 0
M  V30 5015 N 473.124 -5.56786 0.771091 0
M  V30 5016 H 465.275 -1.71798 1.24896 0
M  V30 5017 H 467.538 -0.801879 0.505663 0
M  V30 5018 H 467.244 -3.24805 1.34887 0
M  V30 5019 H 467.118 -3.75793 -0.325441 0
M  V30 5020 H 469.505 -2.85677 -0.739765 0
M  V30 5021 H 469.586 -2.37112 0.959766 0
M  V30 5022 H 469.23 -4.80394 1.64877 0
M  V30 5023 H 469.16 -5.26553 -0.0704866 0
M  V30 5024 H 471.651 -3.76245 0.353252 0
M  V30 5025 H 471.964 -7.61048 1.34257 0
M  V30 5026 H 470.309 -6.84552 1.20057 0
M  V30 5027 H 473.5 -4.65187 0.521383 0
M  V30 5028 H 473.673 -6.40664 0.972295 0
M  V30 5029 N 467.08 -0.0183926 -1.57589 0
M  V30 5030 C 468.305 0.676634 -1.96052 0
M  V30 5031 C 468.73 1.6548 -0.894307 0
M  V30 5032 O 468.088 1.80712 0.145849 0
M  V30 5033 C 468.136 1.36872 -3.33614 0
M  V30 5034 O 467.24 2.48372 -3.29219 0
M  V30 5035 H 466.581 0.1786 -0.63953 0
M  V30 5036 H 469.111 -0.077056 -2.04455 0
M  V30 5037 H 469.121 1.72797 -3.69601 0
M  V30 5038 H 467.796 0.651636 -4.10763 0
M  V30 5039 H 466.373 2.14639 -3.04934 0
M  V30 5040 N 468.558 1.5553 0.254621 0
M  V30 5041 C 469.806 1.7665 0.981793 0
M  V30 5042 C 470.127 0.580963 1.86145 0
M  V30 5043 O 469.397 -0.403537 1.91699 0
M  V30 5044 H 467.977 0.651475 0.365498 0
M  V30 5045 H 470.639 1.92958 0.274426 0
M  V30 5046 H 469.735 2.67486 1.60802 0
M  V30 5047 N 470.036 -0.519951 1.48776 0
M  V30 5048 C 470.966 -1.63253 1.66945 0
M  V30 5049 C 471.947 -1.62014 0.518224 0
M  V30 5050 O 473.132 -1.79053 0.751919 0
M  V30 5051 C 470.262 -3.0181 1.71836 0
M  V30 5052 C 469.216 -3.17911 2.8656 0
M  V30 5053 C 468.542 -4.5763 2.76548 0
M  V30 5054 C 469.842 -2.99729 4.27738 0
M  V30 5055 H 471.536 -1.48302 2.6009 0
M  V30 5056 H 469.082 -0.712026 1.25165 0
M  V30 5057 H 471.035 -3.79525 1.83135 0
M  V30 5058 H 469.759 -3.17806 0.752775 0
M  V30 5059 H 468.418 -2.42616 2.74833 0
M  V30 5060 H 468.066 -4.70476 1.77937 0
M  V30 5061 H 467.766 -4.69346 3.53536 0
M  V30 5062 H 469.29 -5.37431 2.89828 0
M  V30 5063 H 470.704 -3.67228 4.40246 0
M  V30 5064 H 469.101 -3.22932 5.05801 0
M  V30 5065 H 470.171 -1.96047 4.43502 0
M  V30 5066 N 471.514 -1.37532 -0.769588 0
M  V30 5067 C 472.444 -1.36172 -1.89682 0
M  V30 5068 C 473.425 -0.23001 -1.68538 0
M  V30 5069 O 474.61 -0.43069 -1.89364 0
M  V30 5070 C 471.74 -1.1701 -3.26995 0
M  V30 5071 C 470.694 -2.27216 -3.62708 0
M  V30 5072 C 470.02 -1.93174 -4.98586 0
M  V30 5073 C 471.32 -3.6941 -3.69234 0
M  V30 5074 H 473.014 -2.30499 -1.91078 0
M  V30 5075 H 470.56 -1.10953 -0.917902 0
M  V30 5076 H 472.513 -1.14688 -4.05493 0
M  V30 5077 H 471.237 -0.191395 -3.26039 0
M  V30 5078 H 469.896 -2.28697 -2.86519 0
M  V30 5079 H 469.544 -0.938281 -4.94171 0
M  V30 5080 H 469.244 -2.66973 -5.23449 0
M  V30 5081 H 470.768 -1.92443 -5.79481 0
M  V30 5082 H 472.182 -3.70047 -4.37879 0
M  V30 5083 H 470.579 -4.4228 -4.05597 0
M  V30 5084 H 471.649 -4.0288 -2.69844 0
M  V30 5085 N 472.992 0.995999 -1.22138 0
M  V30 5086 C 474.232 1.75032 -1.05561 0
M  V30 5087 C 474.596 1.87729 0.402698 0
M  V30 5088 O 475.797 2.59813 0.689234 0
M  V30 5089 C 474.068 3.11973 -1.74379 0
M  V30 5090 S 475.627 4.03182 -1.73175 0
M  V30 5091 H 472.445 0.602137 -0.37809 0
M  V30 5092 H 475.047 1.19107 -1.55028 0
M  V30 5093 H 473.751 3.00371 -2.79652 0
M  V30 5094 H 473.282 3.7297 -1.25128 0
M  V30 5095 H 475.297 4.90043 -0.77923 0
M  V30 5096 N 474.47 1.03057 1.19235 0
M  V30 5097 C 475.716 0.729098 1.89241 0
M  V30 5098 C 476.049 -0.740573 1.79525 0
M  V30 5099 O 475.324 -1.53946 1.18874 0
M  V30 5100 C 475.607 1.18304 3.40112 0
M  V30 5101 C 475.46 2.71406 3.5869 0
M  V30 5102 C 476.779 0.765161 4.33397 0
M  V30 5103 H 473.898 0.266338 0.687192 0
M  V30 5104 H 476.54 1.28079 1.40341 0
M  V30 5105 H 474.69 0.713672 3.81889 0
M  V30 5106 H 476.362 3.26303 3.26074 0
M  V30 5107 H 474.605 3.11717 3.01687 0
M  V30 5108 H 475.276 2.98225 4.64506 0
M  V30 5109 H 477.752 1.16889 3.99345 0
M  V30 5110 H 476.628 1.11065 5.37546 0
M  V30 5111 H 476.889 -0.332372 4.40849 0
M  V30 5112 N 475.948 -1.35272 0.808662 0
M  V30 5113 C 477.225 -1.93077 0.313181 0
M  V30 5114 C 477.605 -1.73847 -1.19752 0
M  V30 5115 O 476.953 -1.1087 -1.998 0
M  V30 5116 C 477.163 -3.41347 0.726859 0
M  V30 5117 C 478.511 -4.18493 0.717532 0
M  V30 5118 O 479.535 -3.4987 0.668535 0
M  V30 5119 O 478.394 -5.40937 0.777779 0
M  V30 5120 H 475.488 -0.822885 0.0824018 0
M  V30 5121 H 478.034 -1.44335 0.892499 0
M  V30 5122 H 476.806 -3.49082 1.76797 0
M  V30 5123 H 476.429 -3.97411 0.122461 0
M  V30 5124 N 477.426 -0.562348 -1.47226 0
M  V30 5125 C 478.373 0.182461 -2.30078 0
M  V30 5126 C 479.343 0.903503 -1.39377 0
M  V30 5127 O 480.528 0.898188 -1.68337 0
M  V30 5128 C 477.668 1.20322 -3.23445 0
M  V30 5129 C 476.781 0.487717 -4.29238 0
M  V30 5130 C 475.916 1.49422 -5.09752 0
M  V30 5131 C 474.955 0.763976 -6.07314 0
M  V30 5132 N 474.092 1.71755 -6.80768 0
M  V30 5133 H 478.932 -0.530169 -2.93246 0
M  V30 5134 H 476.469 -0.273276 -1.44539 0
M  V30 5135 H 478.427 1.80768 -3.76004 0
M  V30 5136 H 477.057 1.88382 -2.6213 0
M  V30 5137 H 476.109 -0.231374 -3.79696 0
M  V30 5138 H 477.421 -0.0841003 -4.98729 0
M  V30 5139 H 476.575 2.17206 -5.66486 0
M  V30 5140 H 475.314 2.09995 -4.40174 0
M  V30 5141 H 474.319 0.0722344 -5.49753 0
M  V30 5142 H 475.544 0.16391 -6.78902 0
M  V30 5143 H 473.49 2.31177 -6.13916 0
M  V30 5144 H 473.407 1.19802 -7.46447 0
M  V30 5145 H 474.675 2.38638 -7.42073 0
M  V30 5146 N 478.904 1.54736 -0.299062 0
M  V30 5147 C 480.153 1.99279 0.311549 0
M  V30 5148 C 480.466 1.19107 1.55154 0
M  V30 5149 O 481.672 1.53908 2.23662 0
M  V30 5150 C 480.128 3.54768 0.605632 0
M  V30 5151 C 479.736 4.43746 -0.615914 0
M  V30 5152 C 481.48 4.07841 1.17754 0
M  V30 5153 C 479.387 5.90663 -0.29509 0
M  V30 5154 H 478.317 0.744359 0.120187 0
M  V30 5155 H 480.968 1.78919 -0.407464 0
M  V30 5156 H 479.35 3.71021 1.38419 0
M  V30 5157 H 480.524 4.39267 -1.39218 0
M  V30 5158 H 478.839 4.01434 -1.10633 0
M  V30 5159 H 481.436 5.15174 1.43179 0
M  V30 5160 H 481.779 3.58324 2.11918 0
M  V30 5161 H 482.312 3.95123 0.460739 0
M  V30 5162 H 479.051 6.44325 -1.20524 0
M  V30 5163 H 478.571 5.98155 0.44394 0
M  V30 5164 H 480.25 6.46916 0.104048 0
M  V30 5165 N 480.382 0.0267497 1.57577 0
M  V30 5166 C 481.292 -0.971633 2.13533 0
M  V30 5167 C 482.308 -1.35868 1.08701 0
M  V30 5168 O 483.484 -1.44058 1.40746 0
M  V30 5169 C 480.549 -2.23622 2.64941 0
M  V30 5170 C 479.61 -1.90982 3.8448 0
M  V30 5171 C 478.843 -3.11411 4.33427 0
M  V30 5172 O 479.066 -4.23992 3.81558 0
M  V30 5173 O 478 -2.93848 5.25297 0
M  V30 5174 H 481.826 -0.525853 2.99113 0
M  V30 5175 H 479.411 -0.193712 1.48139 0
M  V30 5176 H 481.293 -2.97864 2.98086 0
M  V30 5177 H 479.968 -2.67386 1.82446 0
M  V30 5178 H 478.875 -1.14132 3.56265 0
M  V30 5179 H 480.208 -1.52036 4.6813 0
M  V30 5180 N 481.861 -1.55662 -0.24637 0
M  V30 5181 C 482.808 -1.90361 -1.30504 0
M  V30 5182 C 483.778 -0.757905 -1.47801 0
M  V30 5183 O 484.963 -1.01161 -1.61775 0
M  V30 5184 C 482.103 -2.2042 -2.65535 0
M  V30 5185 C 481.216 -3.47799 -2.56242 0
M  V30 5186 C 480.351 -3.67426 -3.8363 0
M  V30 5187 C 479.39 -4.88403 -3.68956 0
M  V30 5188 N 478.527 -5.04548 -4.88237 0
M  V30 5189 H 483.367 -2.80645 -1.00213 0
M  V30 5190 H 480.904 -1.38924 -0.483577 0
M  V30 5191 H 482.862 -2.35853 -3.44135 0
M  V30 5192 H 481.492 -1.3334 -2.93973 0
M  V30 5193 H 480.544 -3.40694 -1.69208 0
M  V30 5194 H 481.856 -4.36544 -2.4131 0
M  V30 5195 H 481.01 -3.82821 -4.70673 0
M  V30 5196 H 479.749 -2.76914 -4.01459 0
M  V30 5197 H 478.754 -4.72984 -2.80296 0
M  V30 5198 H 479.979 -5.80375 -3.52621 0
M  V30 5199 H 477.925 -4.16974 -5.06427 0
M  V30 5200 H 477.842 -5.87384 -4.75937 0
M  V30 5201 H 479.11 -5.24355 -5.76777 0
M  V30 5202 N 483.339 0.512053 -1.4905 0
M  V30 5203 C 484.564 1.2959 -1.6193 0
M  V30 5204 C 484.989 1.85906 -0.286454 0
M  V30 5205 O 484.347 1.65312 0.744426 0
M  V30 5206 C 484.395 2.40987 -2.68249 0
M  V30 5207 O 483.499 3.44531 -2.26654 0
M  V30 5208 H 482.84 0.383053 -0.542371 0
M  V30 5209 H 485.37 0.614231 -1.95162 0
M  V30 5210 H 485.38 2.86913 -2.90078 0
M  V30 5211 H 484.055 1.99361 -3.65004 0
M  V30 5212 H 482.632 3.046 -2.15112 0
M  V30 5213 N 484.817 1.37938 0.762283 0
M  V30 5214 C 485.749 1.30349 1.88525 0
M  V30 5215 C 486.762 0.217402 1.61342 0
M  V30 5216 O 487.951 0.474291 1.72084 0
M  V30 5217 C 485.051 0.994844 3.23969 0
M  V30 5218 C 484.224 2.18829 3.78725 0
M  V30 5219 C 483.283 1.84844 4.92665 0
M  V30 5220 O 482.309 2.57244 5.07754 0
M  V30 5221 N 483.511 0.798201 5.74986 0
M  V30 5222 H 486.276 2.27114 1.95549 0
M  V30 5223 H 483.837 1.31686 0.941825 0
M  V30 5224 H 485.829 0.748168 3.97724 0
M  V30 5225 H 484.399 0.115446 3.12387 0
M  V30 5226 H 483.619 2.59615 2.96637 0
M  V30 5227 H 484.907 2.98497 4.1204 0
M  V30 5228 H 484.305 0.197611 5.65355 0
M  V30 5229 H 482.862 0.611396 6.48926 0
M  V30 5230 N 486.295 -0.989507 1.22664 0
M  V30 5231 C 487.205 -2.11449 1.01619 0
M  V30 5232 C 488.221 -1.73962 -0.036545 0
M  V30 5233 O 489.397 -2.00788 0.156924 0
M  V30 5234 C 486.462 -3.41465 0.600204 0
M  V30 5235 C 485.523 -3.93033 1.72695 0
M  V30 5236 C 484.756 -5.16844 1.33071 0
M  V30 5237 O 484.979 -5.7001 0.210975 0
M  V30 5238 O 483.913 -5.6225 2.14845 0
M  V30 5239 H 487.739 -2.32088 1.9588 0
M  V30 5240 H 485.324 -1.09823 1.01289 0
M  V30 5241 H 487.206 -4.19695 0.37873 0
M  V30 5242 H 485.881 -3.22178 -0.313511 0
M  V30 5243 H 484.788 -3.15961 2.00298 0
M  V30 5244 H 486.121 -4.16758 2.61865 0
M  V30 5245 N 487.773 -1.03688 -1.18687 0
M  V30 5246 C 488.736 -0.629115 -2.20397 0
M  V30 5247 C 489.736 0.311495 -1.57754 0
M  V30 5248 O 490.926 0.0974107 -1.73927 0
M  V30 5249 C 488.058 0.0782231 -3.4081 0
M  V30 5250 H 489.251 -1.52915 -2.57987 0
M  V30 5251 H 486.804 -0.828988 -1.32505 0
M  V30 5252 H 487.539 0.992233 -3.08748 0
M  V30 5253 H 487.324 -0.597776 -3.87517 0
M  V30 5254 H 488.814 0.350156 -4.16129 0
M  V30 5255 N 489.251 1.34841 -0.815825 0
M  V30 5256 C 490.481 2.02436 -0.412695 0
M  V30 5257 C 490.889 1.61604 0.983906 0
M  V30 5258 O 490.232 0.813729 1.64694 0
M  V30 5259 C 490.294 3.56953 -0.427182 0
M  V30 5260 C 489.958 4.21083 -1.77589 0
M  V30 5261 C 490.955 4.42107 -2.73564 0
M  V30 5262 C 488.64 4.58006 -2.06243 0
M  V30 5263 C 490.634 4.99169 -3.9637 0
M  V30 5264 C 488.321 5.1478 -3.2931 0
M  V30 5265 C 489.319 5.35304 -4.24191 0
M  V30 5266 O 489.007 5.90878 -5.45086 0
M  V30 5267 H 488.739 0.655631 -0.164695 0
M  V30 5268 H 491.293 1.73246 -1.1034 0
M  V30 5269 H 489.523 3.85372 0.320175 0
M  V30 5270 H 491.212 4.05875 -0.0450875 0
M  V30 5271 H 491.978 4.13953 -2.52721 0
M  V30 5272 H 487.857 4.41339 -1.33196 0
M  V30 5273 H 491.401 5.15105 -4.70439 0
M  V30 5274 H 487.298 5.42362 -3.5002 0
M  V30 5275 H 488.066 6.0932 -5.46508 0
M  V30 5276 N 490.729 0.570148 1.46925 0
M  V30 5277 C 491.659 -0.158274 2.32963 0
M  V30 5278 C 492.64 -0.896093 1.44583 0
M  V30 5279 O 493.825 -0.874022 1.7342 0
M  V30 5280 C 490.955 -1.18055 3.26619 0
M  V30 5281 C 489.909 -0.558379 4.24342 0
M  V30 5282 C 489.235 -1.68623 5.07415 0
M  V30 5283 C 490.535 0.496295 5.19937 0
M  V30 5284 H 492.229 0.560046 2.94115 0
M  V30 5285 H 489.775 0.270775 1.41431 0
M  V30 5286 H 491.728 -1.69841 3.85658 0
M  V30 5287 H 490.452 -1.92899 2.63548 0
M  V30 5288 H 489.111 -0.0617157 3.66548 0
M  V30 5289 H 488.759 -2.42402 4.40738 0
M  V30 5290 H 488.459 -1.27564 5.73586 0
M  V30 5291 H 489.983 -2.20709 5.69315 0
M  V30 5292 H 491.397 0.0640052 5.73264 0
M  V30 5293 H 489.794 0.82649 5.94381 0
M  V30 5294 H 490.864 1.38735 4.6463 0
M  V30 5295 N 492.207 -1.54576 0.307264 0
M  V30 5296 C 493.137 -2.26708 -0.55907 0
M  V30 5297 C 494.118 -1.26893 -1.1328 0
M  V30 5298 O 495.303 -1.55677 -1.16097 0
M  V30 5299 C 492.433 -3.01259 -1.72801 0
M  V30 5300 C 491.387 -4.08275 -1.28435 0
M  V30 5301 C 490.713 -4.70575 -2.53895 0
M  V30 5302 C 492.013 -5.2068 -0.411038 0
M  V30 5303 H 493.707 -2.9937 0.042576 0
M  V30 5304 H 491.253 -1.43983 0.0219173 0
M  V30 5305 H 493.206 -3.50444 -2.34023 0
M  V30 5306 H 491.93 -2.26187 -2.356 0
M  V30 5307 H 490.589 -3.59949 -0.695161 0
M  V30 5308 H 490.237 -3.92136 -3.15021 0
M  V30 5309 H 489.937 -5.42854 -2.24908 0
M  V30 5310 H 491.461 -5.22527 -3.15908 0
M  V30 5311 H 492.875 -5.65721 -0.929097 0
M  V30 5312 H 491.272 -5.99716 -0.214664 0
M  V30 5313 H 492.342 -4.81629 0.562287 0
M  V30 5314 N 493.685 -0.035106 -1.57561 0
M  V30 5315 C 494.648 0.929819 -2.09492 0
M  V30 5316 C 495.648 1.25026 -1.01119 0
M  V30 5317 O 496.838 1.18961 -1.27255 0
M  V30 5318 C 493.97 2.24457 -2.56577 0
M  V30 5319 H 495.163 0.479935 -2.96035 0
M  V30 5320 H 492.716 0.213033 -1.54841 0
M  V30 5321 H 493.451 2.74061 -1.73382 0
M  V30 5322 H 493.236 2.02508 -3.35757 0
M  V30 5323 H 494.726 2.93607 -2.96959 0
M  V30 5324 N 495.163 1.55791 0.238111 0
M  V30 5325 C 496.41 1.78033 0.964907 0
M  V30 5326 C 496.738 0.600984 1.84982 0
M  V30 5327 O 495.993 -0.41536 1.91241 0
M  V30 5328 C 496.292 3.05869 1.84875 0
M  V30 5329 C 495.958 4.36808 1.11846 0
M  V30 5330 C 494.62 4.72388 0.916662 0
M  V30 5331 C 496.972 5.17717 0.60151 0
M  V30 5332 C 494.3 5.86406 0.185756 0
M  V30 5333 C 496.652 6.32494 -0.115972 0
M  V30 5334 C 495.316 6.66688 -0.329168 0
M  V30 5335 H 494.586 0.651469 0.353085 0
M  V30 5336 H 497.233 1.90061 0.234318 0
M  V30 5337 H 495.538 2.88891 2.64668 0
M  V30 5338 H 497.235 3.20278 2.41294 0
M  V30 5339 H 493.825 4.08862 1.28569 0
M  V30 5340 H 498.009 4.90678 0.744932 0
M  V30 5341 H 493.265 6.11399 0.0101886 0
M  V30 5342 H 497.439 6.94425 -0.524127 0
M  V30 5343 H 495.066 7.54884 -0.897474 0
M  V30 5344 N 496.642 -0.504142 1.49319 0
M  V30 5345 C 497.552 -1.63248 1.68486 0
M  V30 5346 C 498.568 -1.64488 0.567432 0
M  V30 5347 O 499.744 -1.82966 0.841749 0
M  V30 5348 C 496.809 -2.99627 1.74426 0
M  V30 5349 C 495.87 -3.09039 2.97982 0
M  V30 5350 C 495.103 -4.38913 3.0363 0
M  V30 5351 O 495.326 -5.27528 2.16958 0
M  V30 5352 O 494.26 -4.53231 3.96062 0
M  V30 5353 H 498.086 -1.50008 2.64067 0
M  V30 5354 H 495.671 -0.680086 1.33023 0
M  V30 5355 H 497.553 -3.80689 1.80705 0
M  V30 5356 H 496.228 -3.13136 0.820233 0
M  V30 5357 H 495.135 -2.27177 2.97223 0
M  V30 5358 H 496.468 -3.00456 3.89855 0
M  V30 5359 N 498.12 -1.38341 -0.754957 0
M  V30 5360 C 499.07 -1.31964 -1.85929 0
M  V30 5361 C 500.054 -0.204181 -1.59599 0
M  V30 5362 O 501.246 -0.440036 -1.71443 0
M  V30 5363 C 498.375 -1.14565 -3.2362 0
M  V30 5364 C 497.461 -2.30727 -3.55846 0
M  V30 5365 N 497.852 -3.56165 -3.59138 0
M  V30 5366 C 496.15 -2.23249 -3.86104 0
M  V30 5367 C 496.851 -4.32865 -3.88591 0
M  V30 5368 N 495.827 -3.62203 -4.05351 0
M  V30 5369 H 499.629 -2.2694 -1.8675 0
M  V30 5370 H 497.143 -1.31553 -0.952243 0
M  V30 5371 H 499.14 -1.0808 -4.02647 0
M  V30 5372 H 497.8 -0.205212 -3.24051 0
M  V30 5373 H 498.811 -3.89854 -3.40932 0
M  V30 5374 H 495.488 -1.37357 -3.94258 0
M  V30 5375 H 496.878 -5.41504 -3.97773 0
M  V30 5376 N 499.598 0.982988 -1.23187 0
M  V30 5377 C 500.828 1.75666 -1.08743 0
M  V30 5378 C 501.236 1.85662 0.364195 0
M  V30 5379 O 500.579 1.33317 1.26382 0
M  V30 5380 C 500.641 3.20144 -1.63549 0
M  V30 5381 C 500.305 3.33665 -3.12277 0
M  V30 5382 C 501.302 3.20194 -4.096 0
M  V30 5383 C 498.987 3.58397 -3.51933 0
M  V30 5384 C 500.981 3.31256 -5.44563 0
M  V30 5385 C 498.668 3.69098 -4.87042 0
M  V30 5386 C 499.666 3.55537 -5.83166 0
M  V30 5387 O 499.354 3.65864 -7.1582 0
M  V30 5388 H 499.086 0.558194 -0.381307 0
M  V30 5389 H 501.64 1.24387 -1.63454 0
M  V30 5390 H 499.87 3.72659 -1.03256 0
M  V30 5391 H 501.559 3.79262 -1.4462 0
M  V30 5392 H 502.325 3.00987 -3.80305 0
M  V30 5393 H 498.204 3.68025 -2.77631 0
M  V30 5394 H 501.748 3.20588 -6.19572 0
M  V30 5395 H 497.645 3.87814 -5.16014 0
M  V30 5396 H 498.413 3.82675 -7.23534 0
M  V30 5397 N 501.076 1.04316 1.18135 0
M  V30 5398 C 502.322 0.749128 1.88457 0
M  V30 5399 C 502.655 -0.72149 1.803 0
M  V30 5400 O 501.93 -1.52676 1.205 0
M  V30 5401 C 502.213 1.21905 3.38838 0
M  V30 5402 C 502.066 2.75195 3.55792 0
M  V30 5403 C 503.385 0.811085 4.32561 0
M  V30 5404 H 500.504 0.273611 0.684329 0
M  V30 5405 H 503.146 1.29561 1.38975 0
M  V30 5406 H 501.296 0.754137 3.8111 0
M  V30 5407 H 502.968 3.29743 3.22595 0
M  V30 5408 H 501.211 3.14899 2.98364 0
M  V30 5409 H 501.882 3.03135 4.61317 0
M  V30 5410 H 504.358 1.21118 3.98082 0
M  V30 5411 H 503.234 1.16761 5.36338 0
M  V30 5412 H 503.495 -0.285596 4.41177 0
M  V30 5413 N 502.554 -1.34406 0.822964 0
M  V30 5414 C 503.502 -2.31428 0.233165 0
M  V30 5415 C 504.496 -1.57404 -0.626118 0
M  V30 5416 O 505.702 -1.72402 -0.517453 0
M  V30 5417 H 502.077 -0.749863 0.0566557 0
M  V30 5418 H 504.048 -2.78699 1.06628 0
M  V30 5419 C 502.797 -3.42653 -0.590264 0
M  V30 5420 H 502.12 -3.99753 0.0616129 0
M  V30 5421 H 503.56 -4.12778 -0.969054 0
M  V30 5422 C 502.019 -2.87112 -1.76262 0
M  V30 5423 O 502.549 -2.81995 -2.8608 0
M  V30 5424 N 500.755 -2.43934 -1.57938 0
M  V30 5425 H 500.302 -2.48296 -0.686078 0
M  V30 5426 H 500.26 -2.07123 -2.36532 0
M  V30 5427 N 504.032 -0.577932 -1.46621 0
M  V30 5428 C 504.982 0.178869 -2.27297 0
M  V30 5429 C 505.966 0.866279 -1.35589 0
M  V30 5430 O 507.158 0.761163 -1.59798 0
M  V30 5431 C 504.287 1.19499 -3.2183 0
M  V30 5432 C 503.373 0.50994 -4.21023 0
M  V30 5433 N 503.764 -0.43177 -5.03954 0
M  V30 5434 C 502.062 0.761287 -4.39455 0
M  V30 5435 C 502.763 -0.831693 -5.75724 0
M  V30 5436 N 501.739 -0.181897 -5.43296 0
M  V30 5437 H 505.541 -0.544859 -2.88805 0
M  V30 5438 H 503.055 -0.399373 -1.57413 0
M  V30 5439 H 505.052 1.75131 -3.78332 0
M  V30 5440 H 503.712 1.91959 -2.61881 0
M  V30 5441 H 504.723 -0.807045 -5.11573 0
M  V30 5442 H 501.4 1.47282 -3.90659 0
M  V30 5443 H 502.79 -1.6067 -6.52407 0
M  V30 5444 N 505.51 1.54411 -0.315457 0
M  V30 5445 C 506.926 1.59556 0.037464 0
M  V30 5446 C 507.126 1.33217 1.5118 0
M  V30 5447 O 506.182 1.11264 2.26664 0
M  V30 5448 C 507.495 2.98372 -0.373477 0
M  V30 5449 C 509.043 3.11324 -0.323452 0
M  V30 5450 C 509.518 4.52472 -0.709433 0
M  V30 5451 N 511.009 4.58437 -0.662524 0
M  V30 5452 C 511.744 5.65751 -0.933474 0
M  V30 5453 N 511.24 6.81039 -1.27114 0
M  V30 5454 N 513.033 5.55489 -0.859573 0
M  V30 5455 H 505.184 1.6979 -1.27614 0
M  V30 5456 H 507.447 0.793732 -0.518356 0
M  V30 5457 H 507.153 3.22618 -1.40037 0
M  V30 5458 H 507.027 3.76264 0.265615 0
M  V30 5459 H 509.414 2.86818 0.694223 0
M  V30 5460 H 509.495 2.35555 -0.997367 0
M  V30 5461 H 509.139 4.7771 -1.72498 0
M  V30 5462 H 509.069 5.26598 -0.0132923 0
M  V30 5463 H 511.56 3.75636 -0.413065 0
M  V30 5464 H 511.873 7.58816 -1.46348 0
M  V30 5465 H 510.218 6.82555 -1.30932 0
M  V30 5466 H 513.409 4.64299 -0.595324 0
M  V30 5467 H 513.582 6.39036 -1.0741 0
M  V30 5468 N 506.988 0.0434614 1.5754 0
M  V30 5469 C 507.935 -0.93356 2.11077 0
M  V30 5470 C 508.905 -1.31383 1.01626 0
M  V30 5471 O 510.09 -1.40465 1.29129 0
M  V30 5472 C 507.23 -2.20578 2.65404 0
M  V30 5473 C 506.343 -1.88068 3.88914 0
M  V30 5474 C 505.478 -3.09691 4.31584 0
M  V30 5475 C 504.517 -2.73067 5.47815 0
M  V30 5476 N 503.654 -3.87359 5.85574 0
M  V30 5477 H 508.494 -0.470118 2.94268 0
M  V30 5478 H 506.031 -0.220434 1.45439 0
M  V30 5479 H 507.989 -2.95011 2.94999 0
M  V30 5480 H 506.619 -2.64513 1.85021 0
M  V30 5481 H 505.671 -1.03816 3.6596 0
M  V30 5482 H 506.983 -1.57104 4.73413 0
M  V30 5483 H 506.137 -3.92431 4.62691 0
M  V30 5484 H 504.876 -3.43827 3.45882 0
M  V30 5485 H 503.881 -1.88742 5.16388 0
M  V30 5486 H 505.106 -2.40131 6.35227 0
M  V30 5487 H 503.052 -4.21311 5.02825 0
M  V30 5488 H 502.969 -3.60068 6.64746 0
M  V30 5489 H 504.237 -4.70761 6.21292 0
M  V30 5490 N 508.466 -1.55915 -0.229846 0
M  V30 5491 C 509.416 -1.8813 -1.28807 0
M  V30 5492 C 510.4 -0.743621 -1.42685 0
M  V30 5493 O 511.592 -1.00588 -1.4564 0
M  V30 5494 C 508.721 -2.19431 -2.64017 0
M  V30 5495 C 507.807 -3.39569 -2.54074 0
M  V30 5496 N 508.198 -4.58404 -2.13774 0
M  V30 5497 C 506.496 -3.43019 -2.85051 0
M  V30 5498 C 507.197 -5.40557 -2.1488 0
M  V30 5499 N 506.173 -4.80054 -2.55047 0
M  V30 5500 H 509.975 -2.77527 -0.967261 0
M  V30 5501 H 507.489 -1.5637 -0.438433 0
M  V30 5502 H 509.486 -2.40681 -3.40409 0
M  V30 5503 H 508.146 -1.31341 -2.9695 0
M  V30 5504 H 509.157 -4.83716 -1.8504 0
M  V30 5505 H 505.834 -2.65249 -3.22411 0
M  V30 5506 H 507.224 -6.45666 -1.85918 0
M  V30 5507 N 509.944 0.496216 -1.49584 0
M  V30 5508 C 510.892 1.61805 -1.67098 0
M  V30 5509 C 511.886 1.60667 -0.536877 0
M  V30 5510 O 513.092 1.65118 -0.716654 0
M  V30 5511 H 509.467 0.53646 -0.526986 0
M  V30 5512 H 511.438 1.44187 -2.61252 0
M  V30 5513 C 510.187 2.99912 -1.75921 0
M  V30 5514 H 509.51 3.01496 -2.62565 0
M  V30 5515 H 510.95 3.77931 -1.92209 0
M  V30 5516 C 509.409 3.33092 -0.505088 0
M  V30 5517 O 509.939 4.00019 0.367085 0
M  V30 5518 N 508.145 2.88278 -0.366599 0
M  V30 5519 H 507.692 2.33989 -1.07735 0
M  V30 5520 H 507.65 3.10846 0.47142 0
M  V30 5521 N 511.423 1.38739 0.74761 0
M  V30 5522 C 512.672 1.3459 1.50228 0
M  V30 5523 C 512.985 -0.0595592 1.95509 0
M  V30 5524 O 514.191 -0.22361 2.70578 0
M  V30 5525 C 512.647 2.36377 2.71393 0
M  V30 5526 C 512.255 3.82573 2.33113 0
M  V30 5527 C 513.999 2.41281 3.49262 0
M  V30 5528 C 511.906 4.76032 3.50924 0
M  V30 5529 H 510.836 0.500312 0.564096 0
M  V30 5530 H 513.487 1.64324 0.8167 0
M  V30 5531 H 511.869 1.99694 3.41962 0
M  V30 5532 H 513.043 4.28227 1.70171 0
M  V30 5533 H 511.358 3.80844 1.68365 0
M  V30 5534 H 513.955 3.08301 4.36869 0
M  V30 5535 H 514.298 1.43353 3.9084 0
M  V30 5536 H 514.831 2.76793 2.85711 0
M  V30 5537 H 511.57 5.75177 3.14408 0
M  V30 5538 H 511.09 4.35066 4.12889 0
M  V30 5539 H 512.769 4.94331 4.17427 0
M  V30 5540 N 512.901 -0.976442 1.23707 0
M  V30 5541 C 514.312 -1.53284 1.06587 0
M  V30 5542 C 514.663 -1.92765 -0.365526 0
M  V30 5543 O 513.788 -1.7645 -1.25277 0
M  V30 5544 C 514.383 -2.78548 1.92864 0
M  V30 5545 C 512.942 -3.30574 1.79994 0
M  V30 5546 C 512.089 -2.03538 1.88328 0
M  V30 5547 H 515.04 -0.795692 1.37311 0
M  V30 5548 H 515.061 -3.5155 1.45577 0
M  V30 5549 H 514.573 -2.49782 2.97037 0
M  V30 5550 H 512.674 -3.64211 0.786202 0
M  V30 5551 H 512.787 -4.00065 2.636 0
M  V30 5552 H 511.151 -2.17853 1.31954 0
M  V30 5553 H 511.934 -1.77149 2.94063 0
M  V30 5554 N 514.379 -1.04941 -1.1758 0
M  V30 5555 C 515.329 -0.618378 -2.19454 0
M  V30 5556 C 516.313 0.343813 -1.57184 0
M  V30 5557 O 517.505 0.16145 -1.76262 0
M  V30 5558 C 514.634 0.00803847 -3.43299 0
M  V30 5559 C 513.72 -0.977827 -4.12673 0
M  V30 5560 N 514.111 -2.14826 -4.57912 0
M  V30 5561 C 512.409 -0.805748 -4.38661 0
M  V30 5562 C 513.11 -2.77174 -5.11419 0
M  V30 5563 N 512.086 -2.04989 -5.03468 0
M  V30 5564 H 515.888 -1.51018 -2.52132 0
M  V30 5565 H 513.402 -0.919201 -1.33882 0
M  V30 5566 H 515.399 0.334584 -4.15555 0
M  V30 5567 H 514.059 0.895272 -3.12114 0
M  V30 5568 H 515.07 -2.52673 -4.52081 0
M  V30 5569 H 511.747 0.0306506 -4.17489 0
M  V30 5570 H 513.137 -3.76416 -5.56562 0
M  V30 5571 N 515.857 1.33968 -0.830081 0
M  V30 5572 C 517.104 1.98063 -0.421566 0
M  V30 5573 C 517.432 1.65787 1.0171 0
M  V30 5574 O 516.687 0.925348 1.72441 0
M  V30 5575 C 516.986 3.52679 -0.57898 0
M  V30 5576 C 516.652 4.04884 -1.98443 0
M  V30 5577 C 515.314 4.18852 -2.36888 0
M  V30 5578 C 517.666 4.32879 -2.90285 0
M  V30 5579 C 514.994 4.58145 -3.66497 0
M  V30 5580 C 517.346 4.7362 -4.19364 0
M  V30 5581 C 516.01 4.85794 -4.57778 0
M  V30 5582 H 515.28 0.724765 -0.154262 0
M  V30 5583 H 517.927 1.59792 -1.05541 0
M  V30 5584 H 516.232 3.91556 0.138219 0
M  V30 5585 H 517.929 4.00261 -0.243317 0
M  V30 5586 H 514.519 3.9448 -1.67581 0
M  V30 5587 H 518.703 4.21619 -2.61823 0
M  V30 5588 H 513.959 4.65762 -3.96075 0
M  V30 5589 H 518.133 4.9424 -4.90612 0
M  V30 5590 H 515.76 5.15998 -5.58256 0
M  V30 5591 N 517.335 0.585699 1.46312 0
M  V30 5592 C 518.581 0.0808731 2.03239 0
M  V30 5593 C 518.936 -1.26609 1.44872 0
M  V30 5594 O 518.229 -1.81779 0.60556 0
M  V30 5595 C 518.423 -0.0401312 3.57377 0
M  V30 5596 C 518.252 1.29356 4.30694 0
M  V30 5597 C 517.022 1.86849 4.69484 0
M  V30 5598 C 519.22 2.21742 4.64042 0
M  V30 5599 N 517.202 3.13926 5.27564 0
M  V30 5600 C 518.573 3.33408 5.22723 0
M  V30 5601 C 520.628 2.21386 4.45974 0
M  V30 5602 C 519.331 4.44852 5.65242 0
M  V30 5603 C 521.357 3.31862 4.89511 0
M  V30 5604 C 520.719 4.42248 5.48266 0
M  V30 5605 H 516.818 0.072443 0.778637 0
M  V30 5606 H 519.402 0.779254 1.78426 0
M  V30 5607 H 517.573 -0.707686 3.81898 0
M  V30 5608 H 519.305 -0.549615 4.00951 0
M  V30 5609 H 516.06 1.40307 4.52339 0
M  V30 5610 H 516.484 3.78775 5.61122 0
M  V30 5611 H 521.126 1.37314 3.99881 0
M  V30 5612 H 518.844 5.29665 6.10312 0
M  V30 5613 H 522.43 3.32708 4.7728 0
M  V30 5614 H 521.31 5.26323 5.81338 0
M  V30 5615 N 518.813 -1.54241 0.323641 0
M  V30 5616 C 520.224 -1.85975 -0.164405 0
M  V30 5617 C 520.575 -1.24529 -1.51615 0
M  V30 5618 O 519.7 -0.551351 -2.09258 0
M  V30 5619 C 520.295 -3.37424 -0.305091 0
M  V30 5620 C 518.854 -3.69107 -0.737358 0
M  V30 5621 C 518.001 -2.76942 0.140884 0
M  V30 5622 H 520.952 -1.49088 0.543922 0
M  V30 5623 H 520.973 -3.63147 -1.13598 0
M  V30 5624 H 520.485 -3.82116 0.678876 0
M  V30 5625 H 518.586 -3.29947 -1.73107 0
M  V30 5626 H 518.699 -4.76035 -0.541053 0
M  V30 5627 H 517.063 -2.51795 -0.383572 0
M  V30 5628 H 517.846 -3.24461 1.12162 0
M  V30 5629 N 520.291 -0.0518155 -1.57515 0
M  V30 5630 C 521.238 0.922352 -2.11569 0
M  V30 5631 C 522.208 1.30842 -1.02321 0
M  V30 5632 O 523.393 1.39778 -1.29872 0
M  V30 5633 C 520.533 2.19167 -2.6657 0
M  V30 5634 C 519.646 1.86003 -3.89906 0
M  V30 5635 C 518.781 3.07398 -4.33221 0
M  V30 5636 C 517.82 2.70158 -5.49255 0
M  V30 5637 N 516.957 3.84248 -5.8762 0
M  V30 5638 H 521.797 0.454506 -2.94514 0
M  V30 5639 H 519.334 0.212718 -1.45554 0
M  V30 5640 H 521.292 2.93443 -2.96559 0
M  V30 5641 H 519.922 2.63528 -1.86421 0
M  V30 5642 H 518.974 1.01874 -3.66505 0
M  V30 5643 H 520.286 1.54592 -4.74239 0
M  V30 5644 H 519.44 3.89972 -4.64765 0
M  V30 5645 H 518.179 3.41988 -3.477 0
M  V30 5646 H 517.184 1.86001 -5.17382 0
M  V30 5647 H 518.409 2.36759 -6.36492 0
M  V30 5648 H 516.355 4.18638 -5.05053 0
M  V30 5649 H 516.272 3.56538 -6.66646 0
M  V30 5650 H 517.54 4.6746 -6.2378 0
M  V30 5651 N 521.769 1.56035 0.221574 0
M  V30 5652 C 522.699 1.95434 1.2778 0
M  V30 5653 C 523.68 0.822564 1.48889 0
M  V30 5654 O 524.865 1.08486 1.61072 0
M  V30 5655 C 521.995 2.27102 2.62759 0
M  V30 5656 C 520.949 3.4277 2.56306 0
M  V30 5657 C 520.275 3.60043 3.95314 0
M  V30 5658 C 521.575 4.77742 2.11093 0
M  V30 5659 H 523.269 2.83912 0.950504 0
M  V30 5660 H 520.815 1.36596 0.455791 0
M  V30 5661 H 522.768 2.53256 3.36807 0
M  V30 5662 H 521.492 1.35478 2.97176 0
M  V30 5663 H 520.151 3.16664 1.84715 0
M  V30 5664 H 519.799 2.65794 4.27039 0
M  V30 5665 H 519.499 4.37841 3.91879 0
M  V30 5666 H 521.023 3.88545 4.71025 0
M  V30 5667 H 522.437 5.03102 2.74885 0
M  V30 5668 H 520.834 5.58823 2.18716 0
M  V30 5669 H 521.904 4.731 1.06321 0
M  V30 5670 N 523.247 -0.488276 1.49845 0
M  V30 5671 C 524.177 -1.59675 1.70371 0
M  V30 5672 C 525.158 -1.60878 0.552473 0
M  V30 5673 O 526.343 -1.77417 0.78973 0
M  V30 5674 C 523.473 -2.98098 1.782 0
M  V30 5675 C 522.427 -3.11761 2.93239 0
M  V30 5676 C 521.753 -4.51661 2.86193 0
M  V30 5677 C 523.053 -2.90589 4.33999 0
M  V30 5678 H 524.747 -1.42752 2.63177 0
M  V30 5679 H 522.293 -0.685317 1.26647 0
M  V30 5680 H 524.246 -3.75555 1.91144 0
M  V30 5681 H 522.97 -3.16138 0.820018 0
M  V30 5682 H 521.629 -2.36732 2.79917 0
M  V30 5683 H 521.277 -4.66595 1.87877 0
M  V30 5684 H 520.977 -4.61742 3.63412 0
M  V30 5685 H 522.501 -5.31162 3.01163 0
M  V30 5686 H 523.915 -3.57807 4.47936 0
M  V30 5687 H 522.312 -3.1213 5.12538 0
M  V30 5688 H 523.382 -1.86595 4.4756 0
M  V30 5689 N 524.725 -1.39134 -0.740242 0
M  V30 5690 C 525.658 -1.3182 -1.86276 0
M  V30 5691 C 526.636 -0.192794 -1.61453 0
M  V30 5692 O 527.82 -0.372365 -1.84786 0
M  V30 5693 C 524.947 -1.04564 -3.22155 0
M  V30 5694 C 523.993 -2.19224 -3.65846 0
M  V30 5695 S 524.826 -3.81466 -3.75824 0
M  V30 5696 C 525.982 -3.56425 -5.14502 0
M  V30 5697 H 526.215 -2.26822 -1.92195 0
M  V30 5698 H 523.748 -1.25127 -0.904576 0
M  V30 5699 H 525.706 -0.895228 -4.00619 0
M  V30 5700 H 524.367 -0.112578 -3.13898 0
M  V30 5701 H 523.56 -1.95732 -4.6444 0
M  V30 5702 H 523.162 -2.30441 -2.94572 0
M  V30 5703 H 525.454 -3.13366 -6.00673 0
M  V30 5704 H 526.397 -4.54462 -5.43019 0
M  V30 5705 H 526.805 -2.90641 -4.8393 0
M  V30 5706 N 526.204 0.969867 -1.24223 0
M  V30 5707 C 527.151 2.06407 -1.0327 0
M  V30 5708 C 528.121 1.66014 0.0533 0
M  V30 5709 O 529.306 1.90533 -0.100896 0
M  V30 5710 C 526.446 3.3909 -0.641262 0
M  V30 5711 C 525.559 3.9269 -1.80051 0
M  V30 5712 C 524.694 5.13631 -1.35486 0
M  V30 5713 C 523.733 5.59423 -2.48419 0
M  V30 5714 N 522.87 6.71586 -2.04737 0
M  V30 5715 H 527.71 2.23663 -1.96923 0
M  V30 5716 H 525.247 1.09624 -0.980862 0
M  V30 5717 H 527.205 4.15323 -0.395351 0
M  V30 5718 H 525.835 3.21765 0.258269 0
M  V30 5719 H 524.887 3.13116 -2.16014 0
M  V30 5720 H 526.199 4.22636 -2.64916 0
M  V30 5721 H 525.353 5.97231 -1.0677 0
M  V30 5722 H 524.092 4.85364 -0.476722 0
M  V30 5723 H 523.097 4.74398 -2.77897 0
M  V30 5724 H 524.322 5.89705 -3.36786 0
M  V30 5725 H 522.268 6.45058 -1.19318 0
M  V30 5726 H 522.185 7.0097 -2.83156 0
M  V30 5727 H 523.453 7.58633 -1.79154 0
M  V30 5728 N 527.682 1.05563 1.17022 0
M  V30 5729 C 528.928 0.769074 1.87652 0
M  V30 5730 C 529.261 -0.702326 1.81055 0
M  V30 5731 O 528.536 -1.5139 1.22112 0
M  V30 5732 C 528.819 1.25492 3.37526 0
M  V30 5733 C 528.672 2.78953 3.52853 0
M  V30 5734 C 529.991 0.856919 4.31677 0
M  V30 5735 H 527.11 0.280854 0.681388 0
M  V30 5736 H 529.752 1.31027 1.37593 0
M  V30 5737 H 527.902 0.794516 3.80289 0
M  V30 5738 H 529.574 3.33146 3.19079 0
M  V30 5739 H 527.817 3.18046 2.95007 0
M  V30 5740 H 528.488 3.08011 4.58076 0
M  V30 5741 H 530.964 1.25334 3.96775 0
M  V30 5742 H 529.84 1.22443 5.35069 0
M  V30 5743 H 530.101 -0.238787 4.41455 0
M  V30 5744 N 529.16 -1.33526 0.837174 0
M  V30 5745 C 530.388 -2.02047 0.445494 0
M  V30 5746 C 530.803 -1.62995 -0.952788 0
M  V30 5747 O 530.16 -0.842447 -1.61892 0
M  V30 5748 C 530.211 -3.57221 0.554577 0
M  V30 5749 O 529.932 -3.94863 1.89776 0
M  V30 5750 C 531.433 -4.43012 0.159634 0
M  V30 5751 H 528.653 -0.647221 0.177048 0
M  V30 5752 H 531.197 -1.70492 1.12928 0
M  V30 5753 H 529.352 -3.87315 -0.0812781 0
M  V30 5754 H 529.766 -4.89569 1.88208 0
M  V30 5755 H 531.24 -5.51253 0.28701 0
M  V30 5756 H 531.717 -4.29916 -0.898289 0
M  V30 5757 H 532.323 -4.18274 0.769855 0
M  V30 5758 N 530.638 -0.59345 -1.46 0
M  V30 5759 C 531.915 -0.0157933 -1.95594 0
M  V30 5760 C 532.295 1.44807 -1.53604 0
M  V30 5761 O 531.643 2.14342 -0.791824 0
M  V30 5762 C 531.853 -0.199081 -3.48432 0
M  V30 5763 C 533.201 -0.0724943 -4.24538 0
M  V30 5764 O 534.225 -0.128469 -3.55968 0
M  V30 5765 O 533.084 0.0542426 -5.46473 0
M  V30 5766 H 530.178 0.043749 -0.825842 0
M  V30 5767 H 532.724 -0.662522 -1.56233 0
M  V30 5768 H 531.496 -1.21631 -3.71916 0
M  V30 5769 H 531.119 0.483576 -3.94648 0
M  V30 5770 N 532.116 1.54067 -0.331816 0
M  V30 5771 C 533.046 2.27569 0.522932 0
M  V30 5772 C 534.027 1.28679 1.11247 0
M  V30 5773 O 535.212 1.57504 1.13605 0
M  V30 5774 C 532.342 3.0397 1.67987 0
M  V30 5775 C 531.296 4.10267 1.21924 0
M  V30 5776 C 530.622 4.74555 2.46377 0
M  V30 5777 C 531.922 5.21268 0.32815 0
M  V30 5778 H 533.616 2.99264 -0.0901977 0
M  V30 5779 H 531.162 1.4393 -0.044821 0
M  V30 5780 H 533.115 3.54123 2.28418 0
M  V30 5781 H 531.839 2.29906 2.31971 0
M  V30 5782 H 530.498 3.61009 0.637809 0
M  V30 5783 H 530.146 3.97098 3.08743 0
M  V30 5784 H 529.846 5.46363 2.16243 0
M  V30 5785 H 531.37 5.27487 3.07555 0
M  V30 5786 H 532.784 5.67128 0.838978 0
M  V30 5787 H 531.181 5.99982 0.119228 0
M  V30 5788 H 532.251 4.80673 -0.638839 0
M  V30 5789 N 533.594 0.0601682 1.57485 0
M  V30 5790 C 535.01 -0.296422 1.56823 0
M  V30 5791 C 535.21 -1.70831 1.0686 0
M  V30 5792 O 534.266 -2.4174 0.729245 0
M  V30 5793 C 535.579 -0.116681 3.00474 0
M  V30 5794 C 537.127 -0.187103 3.1244 0
M  V30 5795 C 537.602 -0.035783 4.57986 0
M  V30 5796 N 539.093 -0.0917676 4.63109 0
M  V30 5797 C 539.828 0.00107251 5.734 0
M  V30 5798 N 539.324 0.146773 6.92645 0
M  V30 5799 N 541.117 -0.0551577 5.62073 0
M  V30 5800 H 533.268 0.983055 1.88281 0
M  V30 5801 H 535.531 0.382386 0.867459 0
M  V30 5802 H 535.237 0.85712 3.41096 0
M  V30 5803 H 535.111 -0.873929 3.66936 0
M  V30 5804 H 537.498 -1.15138 2.71712 0
M  V30 5805 H 537.579 0.601052 2.48638 0
M  V30 5806 H 537.223 0.925212 4.99402 0
M  V30 5807 H 537.153 -0.843196 5.19806 0
M  V30 5808 H 539.644 -0.203261 3.77353 0
M  V30 5809 H 539.957 0.210076 7.72514 0
M  V30 5810 H 538.302 0.181979 6.94762 0
M  V30 5811 H 541.493 -0.167605 4.678 0
M  V30 5812 H 541.666 0.020652 6.47997 0
M  V30 5813 N 535.072 -1.5615 -0.213296 0
M  V30 5814 C 536.005 -1.88115 -1.29182 0
M  V30 5815 C 536.983 -0.739348 -1.44819 0
M  V30 5816 O 538.167 -0.988541 -1.605 0
M  V30 5817 C 535.294 -2.09541 -2.66102 0
M  V30 5818 C 534.34 -3.32236 -2.67436 0
M  V30 5819 S 535.173 -4.87915 -2.20679 0
M  V30 5820 C 536.329 -5.12387 -3.59458 0
M  V30 5821 H 536.562 -2.793 -1.01876 0
M  V30 5822 H 534.095 -1.48692 -0.415934 0
M  V30 5823 H 536.053 -2.22568 -3.44925 0
M  V30 5824 H 534.714 -1.19138 -2.90628 0
M  V30 5825 H 533.907 -3.44297 -3.6807 0
M  V30 5826 H 533.509 -3.18108 -1.96681 0
M  V30 5827 H 535.801 -5.01791 -4.55205 0
M  V30 5828 H 536.744 -6.14236 -3.52306 0
M  V30 5829 H 537.152 -4.40089 -3.53528 0
M  V30 5830 N 536.55 0.480323 -1.50102 0
M  V30 5831 C 537.799 1.22979 -1.59872 0
M  V30 5832 C 538.112 1.93282 -0.30022 0
M  V30 5833 O 539.318 2.70086 -0.276709 0
M  V30 5834 C 537.774 2.23408 -2.82164 0
M  V30 5835 C 537.382 1.5895 -4.18854 0
M  V30 5836 C 539.126 2.99055 -3.01275 0
M  V30 5837 C 537.033 2.57611 -5.32344 0
M  V30 5838 H 535.963 0.462707 -0.59533 0
M  V30 5839 H 538.614 0.501291 -1.7652 0
M  V30 5840 H 536.996 2.99511 -2.59055 0
M  V30 5841 H 538.17 0.887 -4.52182 0
M  V30 5842 H 536.485 0.956191 -4.05273 0
M  V30 5843 H 539.082 3.72876 -3.83233 0
M  V30 5844 H 539.425 3.57897 -2.12639 0
M  V30 5845 H 539.958 2.30066 -3.24522 0
M  V30 5846 H 536.697 2.03521 -6.23105 0
M  V30 5847 H 536.217 3.26041 -5.03445 0
M  V30 5848 H 537.896 3.19627 -5.62537 0
M  V30 5849 N 538.028 1.39524 0.732853 0
M  V30 5850 C 539.276 1.36594 1.48951 0
M  V30 5851 C 539.597 -0.0367507 1.94965 0
M  V30 5852 O 538.867 -0.988391 1.69138 0
M  V30 5853 H 537.447 0.502673 0.552566 0
M  V30 5854 H 540.109 1.74411 0.869869 0
M  V30 5855 H 539.205 2.03 2.3706 0
M  V30 5856 N 539.506 -0.963266 1.24736 0
M  V30 5857 C 540.469 -2.04013 1.04457 0
M  V30 5858 C 541.469 -1.608 0.000335555 0
M  V30 5859 O 542.659 -1.72515 0.241719 0
M  V30 5860 C 539.791 -3.35858 0.584162 0
M  V30 5861 H 540.984 -2.23436 2.00041 0
M  V30 5862 H 538.537 -1.13914 1.07021 0
M  V30 5863 H 539.272 -3.22128 -0.374673 0
M  V30 5864 H 539.057 -3.68568 1.3379 0
M  V30 5865 H 540.547 -4.1502 0.463451 0
M  V30 5866 N 540.985 -1.06182 -1.16461 0
M  V30 5867 C 542.225 -0.787048 -1.8864 0
M  V30 5868 C 542.589 0.674093 -1.79778 0
M  V30 5869 O 543.79 1.06341 -2.46871 0
M  V30 5870 C 542.061 -1.2666 -3.34203 0
M  V30 5871 S 543.62 -1.12071 -4.24247 0
M  V30 5872 H 540.438 -0.285539 -0.651144 0
M  V30 5873 H 543.04 -1.35851 -1.40587 0
M  V30 5874 H 541.744 -2.32496 -3.38192 0
M  V30 5875 H 541.275 -0.689841 -3.87304 0
M  V30 5876 H 543.29 -0.0509341 -4.96174 0
M  V30 5877 N 542.463 1.3308 -0.844243 0
M  V30 5878 C 543.413 2.26589 -0.253289 0
M  V30 5879 C 544.397 1.49501 0.594836 0
M  V30 5880 O 545.589 1.71291 0.445924 0
M  V30 5881 C 542.718 3.38599 0.566176 0
M  V30 5882 C 541.804 4.23081 -0.293756 0
M  V30 5883 N 542.195 4.86751 -1.37505 0
M  V30 5884 C 540.493 4.45925 -0.0817086 0
M  V30 5885 C 541.194 5.49684 -1.90323 0
M  V30 5886 N 540.17 5.30101 -1.20391 0
M  V30 5887 H 543.972 2.73334 -1.08009 0
M  V30 5888 H 541.486 1.47048 -0.689258 0
M  V30 5889 H 543.483 4.04584 1.00587 0
M  V30 5890 H 542.143 2.93401 1.39089 0
M  V30 5891 H 543.154 4.87151 -1.75796 0
M  V30 5892 H 539.831 4.11434 0.709129 0
M  V30 5893 H 541.221 6.10363 -2.80902 0
M  V30 5894 N 543.941 0.601185 1.45683 0
M  V30 5895 C 544.904 -0.111398 2.28929 0
M  V30 5896 C 545.904 -0.801246 1.39416 0
M  V30 5897 O 547.094 -0.650383 1.61603 0
M  V30 5898 C 544.226 -1.16773 3.20276 0
M  V30 5899 H 545.419 0.620412 2.93413 0
M  V30 5900 H 542.972 0.359946 1.52099 0
M  V30 5901 H 543.707 -1.93051 2.60579 0
M  V30 5902 H 543.492 -0.677358 3.86205 0
M  V30 5903 H 544.982 -1.66698 3.82886 0
M  V30 5904 N 545.419 -1.53889 0.339982 0
M  V30 5905 C 546.644 -2.05741 -0.261798 0
M  V30 5906 C 547.069 -1.21354 -1.43718 0
M  V30 5907 O 546.427 -0.22645 -1.7988 0
M  V30 5908 C 546.475 -3.54542 -0.658228 0
M  V30 5909 O 545.579 -3.7302 -1.75869 0
M  V30 5910 H 544.92 -0.662529 -0.0441672 0
M  V30 5911 H 547.45 -1.98568 0.493161 0
M  V30 5912 H 547.46 -3.9711 -0.936368 0
M  V30 5913 H 546.135 -4.15412 0.201358 0
M  V30 5914 H 544.712 -3.42355 -1.47809 0
M  V30 5915 N 546.897 -0.0685191 -1.57451 0
M  V30 5916 C 548.313 0.288101 -1.56978 0
M  V30 5917 C 548.513 1.70262 -1.07765 0
M  V30 5918 O 547.569 2.4135 -0.742054 0
M  V30 5919 C 548.882 0.100745 -3.00531 0
M  V30 5920 C 550.43 0.170531 -3.12535 0
M  V30 5921 C 550.905 0.0114944 -4.57999 0
M  V30 5922 N 552.396 0.0672065 -4.63151 0
M  V30 5923 C 553.131 -0.0314813 -5.73391 0
M  V30 5924 N 552.627 -0.183503 -6.92557 0
M  V30 5925 N 554.42 0.0253489 -5.62094 0
M  V30 5926 H 546.571 -0.993026 -1.87757 0
M  V30 5927 H 548.834 -0.386981 -0.865419 0
M  V30 5928 H 548.54 -0.875197 -3.40636 0
M  V30 5929 H 548.414 0.854457 -3.67395 0
M  V30 5930 H 550.801 1.13696 -2.72318 0
M  V30 5931 H 550.882 -0.614229 -2.48316 0
M  V30 5932 H 550.526 -0.951684 -4.98904 0
M  V30 5933 H 550.456 0.815617 -5.20245 0
M  V30 5934 H 552.947 0.183246 -3.77455 0
M  V30 5935 H 553.26 -0.251041 -7.72392 0
M  V30 5936 H 551.605 -0.218822 -6.94655 0
M  V30 5937 H 554.796 0.142794 -4.67882 0
M  V30 5938 H 554.969 -0.0550166 -6.47977 0
M  V30 5939 N 548.375 1.56261 0.205012 0
M  V30 5940 C 549.622 1.8004 0.926927 0
M  V30 5941 C 549.95 0.640086 1.83666 0
M  V30 5942 O 549.205 -0.374702 1.92079 0
M  V30 5943 C 549.504 3.09722 1.78345 0
M  V30 5944 C 549.17 4.39082 1.02555 0
M  V30 5945 C 547.832 4.74226 0.816256 0
M  V30 5946 C 550.184 5.18877 0.491559 0
M  V30 5947 C 547.512 5.86668 0.0613287 0
M  V30 5948 C 549.864 6.32105 -0.250107 0
M  V30 5949 C 548.528 6.6584 -0.470508 0
M  V30 5950 H 547.798 0.658812 0.339187 0
M  V30 5951 H 550.445 1.90515 0.19395 0
M  V30 5952 H 548.75 2.9444 2.5848 0
M  V30 5953 H 550.447 3.25324 2.34446 0
M  V30 5954 H 547.037 4.11497 1.19868 0
M  V30 5955 H 551.221 4.92147 0.640684 0
M  V30 5956 H 546.477 6.11283 -0.119501 0
M  V30 5957 H 550.651 6.93157 -0.671307 0
M  V30 5958 H 548.278 7.5281 -1.05739 0
M  V30 5959 N 549.853 -0.472356 1.50355 0
M  V30 5960 C 550.783 -1.57859 1.72055 0
M  V30 5961 C 551.764 -1.60283 0.569505 0
M  V30 5962 O 552.949 -1.7657 0.808503 0
M  V30 5963 C 550.079 -2.96191 1.81351 0
M  V30 5964 C 549.033 -3.08633 2.96529 0
M  V30 5965 C 548.359 -4.486 2.90968 0
M  V30 5966 C 549.659 -2.85969 4.37057 0
M  V30 5967 H 551.353 -1.39953 2.64676 0
M  V30 5968 H 548.899 -0.671846 1.27367 0
M  V30 5969 H 550.852 -3.73507 1.95117 0
M  V30 5970 H 549.576 -3.15251 0.853502 0
M  V30 5971 H 548.235 -2.33749 2.82413 0
M  V30 5972 H 547.883 -4.64577 1.92815 0
M  V30 5973 H 547.583 -4.57861 3.68289 0
M  V30 5974 H 549.107 -5.27938 3.0678 0
M  V30 5975 H 550.521 -3.53036 4.51706 0
M  V30 5976 H 548.918 -3.06677 5.15819 0
M  V30 5977 H 549.988 -1.81838 4.49514 0
M  V30 5978 N 551.331 -1.39911 -0.725443 0
M  V30 5979 C 552.281 -1.35878 -1.83088 0
M  V30 5980 C 553.265 -0.237989 -1.5913 0
M  V30 5981 O 554.457 -0.476302 -1.70471 0
M  V30 5982 C 551.586 -1.21403 -3.21117 0
M  V30 5983 C 550.672 -2.38223 -3.50871 0
M  V30 5984 N 551.063 -3.63703 -3.51502 0
M  V30 5985 C 549.361 -2.31388 -3.81281 0
M  V30 5986 C 550.062 -4.4101 -3.79322 0
M  V30 5987 N 549.038 -3.7072 -3.97577 0
M  V30 5988 H 552.84 -2.3085 -1.81895 0
M  V30 5989 H 550.354 -1.33543 -0.924125 0
M  V30 5990 H 552.351 -1.16597 -4.00263 0
M  V30 5991 H 551.011 -0.273902 -3.23543 0
M  V30 5992 H 552.022 -3.96998 -3.32586 0
M  V30 5993 H 548.699 -1.45689 -3.91256 0
M  V30 5994 H 550.089 -5.49819 -3.86198 0
M  V30 5995 N 552.809 0.956637 -1.25245 0
M  V30 5996 C 553.742 2.05232 -0.99775 0
M  V30 5997 C 554.72 1.62439 0.0723137 0
M  V30 5998 O 555.904 1.88381 -0.066926 0
M  V30 5999 C 553.031 3.34871 -0.507861 0
M  V30 6000 C 552.077 3.96625 -1.56815 0
M  V30 6001 S 552.91 4.32853 -3.15276 0
M  V30 6002 C 554.066 5.65613 -2.68017 0
M  V30 6003 H 554.299 2.26521 -1.9255 0
M  V30 6004 H 551.832 1.09601 -1.08752 0
M  V30 6005 H 553.79 4.09845 -0.231858 0
M  V30 6006 H 552.451 3.11551 0.399356 0
M  V30 6007 H 551.644 4.90087 -1.17604 0
M  V30 6008 H 551.246 3.28124 -1.79473 0
M  V30 6009 H 553.538 6.43635 -2.11518 0
M  V30 6010 H 554.481 6.09693 -3.60112 0
M  V30 6011 H 554.889 5.24751 -2.0808 0
M  V30 6012 N 554.287 1.06798 1.15896 0
M  V30 6013 C 555.234 0.683314 2.20453 0
M  V30 6014 C 556.204 -0.32255 1.62938 0
M  V30 6015 O 557.389 -0.210276 1.89638 0
M  V30 6016 C 554.529 0.0813266 3.45004 0
M  V30 6017 C 553.642 1.13799 4.16742 0
M  V30 6018 C 552.777 0.501598 5.28826 0
M  V30 6019 C 551.816 1.54144 5.92373 0
M  V30 6020 N 550.953 0.928038 6.9594 0
M  V30 6021 H 555.793 1.57932 2.52708 0
M  V30 6022 H 553.33 0.789544 1.24115 0
M  V30 6023 H 555.288 -0.285274 4.16224 0
M  V30 6024 H 553.918 -0.77806 3.13283 0
M  V30 6025 H 552.97 1.62223 3.44075 0
M  V30 6026 H 554.282 1.92664 4.60089 0
M  V30 6027 H 553.436 0.0823162 6.06644 0
M  V30 6028 H 552.175 -0.318883 4.86656 0
M  V30 6029 H 551.18 1.97056 5.13273 0
M  V30 6030 H 552.405 2.3641 6.36621 0
M  V30 6031 H 550.351 0.12836 6.55874 0
M  V30 6032 H 550.268 1.65401 7.37685 0
M  V30 6033 H 551.536 0.534071 7.77668 0
M  V30 6034 N 555.766 -1.3263 0.851289 0
M  V30 6035 C 557.012 -1.9766 0.453694 0
M  V30 6036 C 557.345 -1.67225 -0.987396 0
M  V30 6037 O 556.62 -0.958693 -1.69232 0
M  V30 6038 C 556.903 -3.5344 0.68936 0
M  V30 6039 C 556.756 -3.93517 2.17862 0
M  V30 6040 C 558.075 -4.39866 0.143555 0
M  V30 6041 H 555.194 -0.717989 0.166314 0
M  V30 6042 H 557.836 -1.57068 1.06909 0
M  V30 6043 H 555.986 -3.88147 0.165546 0
M  V30 6044 H 557.658 -3.69006 2.76826 0
M  V30 6045 H 555.901 -3.42798 2.65841 0
M  V30 6046 H 556.572 -5.02065 2.29422 0
M  V30 6047 H 559.048 -4.11875 0.591451 0
M  V30 6048 H 557.924 -5.47858 0.338043 0
M  V30 6049 H 558.185 -4.31696 -0.953466 0
M  V30 6050 N 557.244 -0.608902 -1.45362 0
M  V30 6051 C 558.154 0.110969 -2.34337 0
M  V30 6052 C 559.17 0.859007 -1.51318 0
M  V30 6053 O 560.346 0.816296 -1.84116 0
M  V30 6054 C 557.411 1.09494 -3.28956 0
M  V30 6055 C 556.472 0.348718 -4.27881 0
M  V30 6056 C 555.705 1.28582 -5.17979 0
M  V30 6057 O 555.928 2.52369 -5.11533 0
M  V30 6058 O 554.862 0.782172 -5.96796 0
M  V30 6059 H 558.688 -0.620258 -2.97299 0
M  V30 6060 H 556.273 -0.36916 -1.44767 0
M  V30 6061 H 558.155 1.66163 -3.87257 0
M  V30 6062 H 556.83 1.80717 -2.68557 0
M  V30 6063 H 555.737 -0.260465 -3.73192 0
M  V30 6064 H 557.07 -0.323049 -4.91139 0
M  V30 6065 N 558.722 1.53707 -0.348139 0
M  V30 6066 C 559.962 2.02899 0.247254 0
M  V30 6067 C 560.326 1.23033 1.47401 0
M  V30 6068 O 561.527 1.62146 2.14388 0
M  V30 6069 C 559.798 3.53156 0.549151 0
M  V30 6070 S 561.357 4.24247 1.1207 0
M  V30 6071 H 558.175 0.707213 0.0732894 0
M  V30 6072 H 560.777 1.89338 -0.486965 0
M  V30 6073 H 559.481 4.08893 -0.351435 0
M  V30 6074 H 559.012 3.70845 1.31291 0
M  V30 6075 H 561.027 4.33958 2.40613 0
M  V30 6076 N 560.2 0.0768682 1.57412 0
M  V30 6077 C 561.611 -0.455037 1.8107 0
M  V30 6078 C 561.962 -1.69323 0.991162 0
M  V30 6079 O 561.087 -2.15328 0.215156 0
M  V30 6080 C 561.682 -0.832316 3.28417 0
M  V30 6081 C 560.241 -1.30906 3.52903 0
M  V30 6082 C 559.388 -0.296714 2.75708 0
M  V30 6083 H 562.339 0.302514 1.5579 0
M  V30 6084 H 562.36 -1.69333 3.40744 0
M  V30 6085 H 561.872 0.0690532 3.88039 0
M  V30 6086 H 559.973 -2.22875 2.98592 0
M  V30 6087 H 560.086 -1.28348 4.61588 0
M  V30 6088 H 558.45 -0.775059 2.42621 0
M  V30 6089 H 559.233 0.597015 3.38069 0
M  V30 6090 N 561.678 -1.56367 -0.196722 0
M  V30 6091 C 562.906 -1.84639 -0.933608 0
M  V30 6092 C 563.321 -0.659164 -1.76919 0
M  V30 6093 O 562.678 0.372142 -1.78665 0
M  V30 6094 C 562.729 -3.11694 -1.83109 0
M  V30 6095 O 562.45 -4.25838 -1.02924 0
M  V30 6096 C 563.951 -3.53132 -2.67979 0
M  V30 6097 H 561.171 -0.613188 -0.272473 0
M  V30 6098 H 563.715 -2.03475 -0.204465 0
M  V30 6099 H 561.87 -2.94759 -2.51387 0
M  V30 6100 H 562.284 -4.98178 -1.64069 0
M  V30 6101 H 563.758 -4.45005 -3.26611 0
M  V30 6102 H 564.235 -2.76045 -3.41608 0
M  V30 6103 H 564.841 -3.72592 -2.05074 0
M  V30 6104 N 563.156 0.464375 -1.50603 0
M  V30 6105 C 564.066 1.58723 -1.72754 0
M  V30 6106 C 565.082 1.62925 -0.610844 0
M  V30 6107 O 566.258 1.8067 -0.889963 0
M  V30 6108 C 563.323 2.94897 -1.82309 0
M  V30 6109 C 562.384 3.0103 -3.06071 0
M  V30 6110 C 561.617 4.30708 -3.1516 0
M  V30 6111 O 561.84 5.2159 -2.30868 0
M  V30 6112 O 560.774 4.42571 -4.0794 0
M  V30 6113 H 564.6 1.42954 -2.67951 0
M  V30 6114 H 562.185 0.644579 -1.3478 0
M  V30 6115 H 564.067 3.75764 -1.90735 0
M  V30 6116 H 562.742 3.10851 -0.902967 0
M  V30 6117 H 561.649 2.19217 -3.03142 0
M  V30 6118 H 562.982 2.90014 -3.97684 0
M  V30 6119 N 564.634 1.40294 0.718013 0
M  V30 6120 C 565.564 1.43118 1.84498 0
M  V30 6121 C 566.545 0.292403 1.67568 0
M  V30 6122 O 567.73 0.500675 1.87635 0
M  V30 6123 C 564.86 1.29065 3.22427 0
M  V30 6124 C 563.814 2.40521 3.54025 0
M  V30 6125 C 563.14 2.11546 4.91073 0
M  V30 6126 C 564.44 3.82859 3.55269 0
M  V30 6127 H 566.134 2.37432 1.82391 0
M  V30 6128 H 563.68 1.14283 0.87609 0
M  V30 6129 H 565.633 1.29658 4.00957 0
M  V30 6130 H 564.357 0.312271 3.25104 0
M  V30 6131 H 563.016 2.39173 2.77834 0
M  V30 6132 H 562.664 1.12104 4.90348 0
M  V30 6133 H 562.364 2.86216 5.1318 0
M  V30 6134 H 563.888 2.13817 5.71939 0
M  V30 6135 H 565.302 3.86044 4.23843 0
M  V30 6136 H 563.699 4.57029 3.88902 0
M  V30 6137 H 564.769 4.12617 2.54706 0
M  V30 6138 N 566.112 -0.949982 1.2575 0
M  V30 6139 C 567.359 -1.69515 1.10774 0
M  V30 6140 C 567.687 -1.91316 -0.350479 0
M  V30 6141 O 566.942 -1.48515 -1.27443 0
M  V30 6142 C 567.241 -3.08039 1.81237 0
M  V30 6143 C 566.907 -3.06023 3.31151 0
M  V30 6144 C 565.569 -3.0518 3.72047 0
M  V30 6145 C 567.921 -2.98998 4.26907 0
M  V30 6146 C 565.249 -2.95067 5.07102 0
M  V30 6147 C 567.601 -2.90426 5.61992 0
M  V30 6148 C 566.265 -2.87922 6.0221 0
M  V30 6149 H 565.535 -0.6203 0.405351 0
M  V30 6150 H 568.182 -1.10953 1.56082 0
M  V30 6151 H 566.487 -3.70172 1.28373 0
M  V30 6152 H 568.184 -3.64526 1.67098 0
M  V30 6153 H 564.774 -3.07453 2.98614 0
M  V30 6154 H 568.958 -2.98764 3.963 0
M  V30 6155 H 564.214 -2.915 5.37436 0
M  V30 6156 H 568.388 -2.83952 6.35881 0
M  V30 6157 H 566.015 -2.79841 7.06819 0
M  V30 6158 N 567.59 -1.07411 -1.15328 0
M  V30 6159 C 569.001 -0.820261 -1.67716 0
M  V30 6160 C 569.352 0.654539 -1.8496 0
M  V30 6161 O 568.477 1.50664 -1.55337 0
M  V30 6162 C 569.072 -1.48242 -3.04647 0
M  V30 6163 C 567.631 -1.27606 -3.5411 0
M  V30 6164 C 566.778 -1.5517 -2.29821 0
M  V30 6165 H 569.729 -1.23608 -0.995332 0
M  V30 6166 H 569.75 -0.903984 -3.69606 0
M  V30 6167 H 569.262 -2.55578 -2.92064 0
M  V30 6168 H 567.363 -0.222948 -3.71932 0
M  V30 6169 H 567.476 -1.99667 -4.35511 0
M  V30 6170 H 565.84 -0.972747 -2.35393 0
M  V30 6171 H 566.623 -2.63689 -2.19824 0
M  V30 6172 N 569.068 1.32177 -0.85831 0
M  V30 6173 C 570.479 1.79381 -0.517621 0
M  V30 6174 C 570.83 1.70841 0.964769 0
M  V30 6175 O 569.955 1.26917 1.75274 0
M  V30 6176 C 570.55 3.25706 -0.932801 0
M  V30 6177 C 569.109 3.70851 -0.643953 0
M  V30 6178 C 568.256 2.53208 -1.13054 0
M  V30 6179 H 571.207 1.19424 -1.04516 0
M  V30 6180 H 571.228 3.79673 -0.250674 0
M  V30 6181 H 570.74 3.31889 -2.01174 0
M  V30 6182 H 568.841 3.70178 0.424112 0
M  V30 6183 H 568.954 4.63495 -1.21281 0
M  V30 6184 H 567.318 2.48676 -0.550679 0
M  V30 6185 H 568.101 2.62143 -2.21666 0
M  V30 6186 N 570.547 0.616602 1.45037 0
M  V30 6187 C 571.477 -0.0840787 2.33349 0
M  V30 6188 C 572.458 -0.849641 1.4736 0
M  V30 6189 O 573.643 -0.818407 1.76113 0
M  V30 6190 C 570.773 -1.07604 3.3021 0
M  V30 6191 C 569.727 -0.423096 4.25904 0
M  V30 6192 C 569.053 -1.52394 5.12523 0
M  V30 6193 C 570.353 0.661457 5.18095 0
M  V30 6194 H 572.047 0.653333 2.92185 0
M  V30 6195 H 569.593 0.315634 1.40498 0
M  V30 6196 H 571.546 -1.57485 3.90866 0
M  V30 6197 H 570.27 -1.84416 2.69552 0
M  V30 6198 H 568.929 0.05493 3.66559 0
M  V30 6199 H 568.577 -2.28257 4.48227 0
M  V30 6200 H 568.277 -1.09251 5.77354 0
M  V30 6201 H 569.801 -2.02485 5.76049 0
M  V30 6202 H 571.215 0.246353 5.7277 0
M  V30 6203 H 569.612 1.01517 5.91451 0
M  V30 6204 H 570.682 1.53446 4.59981 0
M  V30 6205 N 572.025 -1.5352 0.356285 0
M  V30 6206 C 573.272 -2.01117 -0.236303 0
M  V30 6207 C 573.6 -1.24381 -1.49531 0
M  V30 6208 O 572.855 -0.323057 -1.93015 0
M  V30 6209 C 573.154 -3.52607 -0.583369 0
M  V30 6210 C 572.82 -4.47151 0.58023 0
M  V30 6211 C 571.482 -4.72718 0.899528 0
M  V30 6212 C 573.834 -5.03137 1.36024 0
M  V30 6213 C 571.162 -5.51523 2.00098 0
M  V30 6214 C 573.514 -5.83145 2.45204 0
M  V30 6215 C 572.178 -6.07001 2.77679 0
M  V30 6216 H 571.448 -0.735938 -0.0864695 0
M  V30 6217 H 574.095 -1.85209 0.48683 0
M  V30 6218 H 572.4 -3.66413 -1.38739 0
M  V30 6219 H 574.097 -3.86901 -1.05397 0
M  V30 6220 H 570.687 -4.27394 0.321322 0
M  V30 6221 H 574.871 -4.83339 1.12682 0
M  V30 6222 H 570.127 -5.68229 2.25668 0
M  V30 6223 H 574.301 -6.25537 3.06067 0
M  V30 6224 H 571.928 -6.67851 3.63151 0
M  V30 6225 N 573.503 -0.0852151 -1.57369 0
M  V30 6226 C 574.433 0.874556 -2.16503 0
M  V30 6227 C 575.414 1.30111 -1.09568 0
M  V30 6228 O 576.599 1.36977 -1.37662 0
M  V30 6229 C 573.729 2.13731 -2.73745 0
M  V30 6230 C 572.683 1.84971 -3.85966 0
M  V30 6231 C 572.009 3.17991 -4.29867 0
M  V30 6232 C 573.309 1.14442 -5.09608 0
M  V30 6233 H 575.003 0.381899 -2.96954 0
M  V30 6234 H 572.549 0.18225 -1.42842 0
M  V30 6235 H 574.502 2.81302 -3.13763 0
M  V30 6236 H 573.226 2.65263 -1.90534 0
M  V30 6237 H 571.885 1.19801 -3.46473 0
M  V30 6238 H 571.533 3.6739 -3.4356 0
M  V30 6239 H 571.233 2.99534 -5.05523 0
M  V30 6240 H 572.757 3.86737 -4.72511 0
M  V30 6241 H 574.171 1.72105 -5.46857 0
M  V30 6242 H 572.568 1.06197 -5.90629 0
M  V30 6243 H 573.638 0.12559 -4.84737 0
M  V30 6244 N 574.981 1.5647 0.188427 0
M  V30 6245 C 575.891 1.98285 1.2538 0
M  V30 6246 C 576.907 0.891535 1.49424 0
M  V30 6247 O 578.083 1.19782 1.61908 0
M  V30 6248 C 575.148 2.31965 2.57669 0
M  V30 6249 C 574.209 3.54838 2.41638 0
M  V30 6250 C 573.442 3.86901 3.67618 0
M  V30 6251 O 573.665 3.20163 4.72072 0
M  V30 6252 O 572.599 4.80309 3.62749 0
M  V30 6253 H 576.425 2.89145 0.928912 0
M  V30 6254 H 574.01 1.44112 0.393955 0
M  V30 6255 H 575.892 2.54673 3.35737 0
M  V30 6256 H 574.567 1.44271 2.89771 0
M  V30 6257 H 573.474 3.37369 1.61658 0
M  V30 6258 H 574.807 4.43019 2.14465 0
M  V30 6259 N 576.459 -0.456382 1.50847 0
M  V30 6260 C 577.705 -1.20914 1.62811 0
M  V30 6261 C 578.038 -1.91301 0.334304 0
M  V30 6262 O 577.313 -1.82775 -0.665098 0
M  V30 6263 C 577.596 -2.24122 2.81853 0
M  V30 6264 C 577.449 -1.57944 4.21158 0
M  V30 6265 C 578.768 -3.25295 2.96431 0
M  V30 6266 H 575.887 -0.438233 0.592554 0
M  V30 6267 H 578.529 -0.50091 1.83278 0
M  V30 6268 H 576.679 -2.84524 2.64534 0
M  V30 6269 H 578.351 -1.01025 4.50102 0
M  V30 6270 H 576.594 -0.882185 4.24735 0
M  V30 6271 H 577.265 -2.33014 5.00408 0
M  V30 6272 H 579.741 -2.7493 3.12335 0
M  V30 6273 H 578.617 -3.94822 3.81322 0
M  V30 6274 H 578.878 -3.90286 2.07676 0
M  V30 6275 N 577.937 -1.40673 -0.710563 0
M  V30 6276 C 579.184 -1.39222 -1.47049 0
M  V30 6277 C 579.512 0.0037691 -1.945 0
M  V30 6278 O 578.767 0.989224 -1.68857 0
M  V30 6279 C 579.066 -2.33253 -2.70791 0
M  V30 6280 C 578.732 -3.80406 -2.42079 0
M  V30 6281 C 577.394 -4.20496 -2.33959 0
M  V30 6282 C 579.746 -4.73375 -2.18094 0
M  V30 6283 C 577.074 -5.51584 -1.99929 0
M  V30 6284 C 579.426 -6.04768 -1.85576 0
M  V30 6285 C 578.09 -6.43895 -1.75941 0
M  V30 6286 H 577.36 -0.509449 -0.538092 0
M  V30 6287 H 580.007 -1.73363 -0.81348 0
M  V30 6288 H 578.312 -1.92314 -3.41354 0
M  V30 6289 H 580.009 -2.29412 -3.28894 0
M  V30 6290 H 576.599 -3.48645 -2.49288 0
M  V30 6291 H 580.783 -4.43217 -2.23321 0
M  V30 6292 H 576.039 -5.80797 -1.91011 0
M  V30 6293 H 580.213 -6.76318 -1.66033 0
M  V30 6294 H 577.84 -7.45387 -1.4934 0
M  V30 6295 N 579.415 0.9433 -1.26252 0
M  V30 6296 C 580.325 2.07532 -1.09397 0
M  V30 6297 C 581.341 1.73977 -0.0280449 0
M  V30 6298 O 582.517 2.00067 -0.231337 0
M  V30 6299 C 579.582 3.39002 -0.726523 0
M  V30 6300 C 578.643 3.86353 -1.87163 0
M  V30 6301 C 577.876 5.11549 -1.52162 0
M  V30 6302 O 578.099 5.68834 -0.422385 0
M  V30 6303 O 577.033 5.53889 -2.35565 0
M  V30 6304 H 580.859 2.24658 -2.04359 0
M  V30 6305 H 578.444 1.05988 -1.05295 0
M  V30 6306 H 580.326 4.18 -0.534236 0
M  V30 6307 H 579.001 3.2312 0.193721 0
M  V30 6308 H 577.908 3.0831 -2.11886 0
M  V30 6309 H 579.241 4.06752 -2.77152 0
M  V30 6310 N 580.893 1.08022 1.14757 0
M  V30 6311 C 582.17 0.720386 1.81851 0
M  V30 6312 C 582.55 -0.796375 1.95502 0
M  V30 6313 O 581.898 -1.71339 1.51179 0
M  V30 6314 C 582.108 1.44273 3.17783 0
M  V30 6315 C 583.456 1.59925 3.93331 0
M  V30 6316 O 584.48 1.40407 3.2736 0
M  V30 6317 O 583.339 1.92096 5.11626 0
M  V30 6318 H 580.433 0.257142 0.786007 0
M  V30 6319 H 582.979 1.18155 1.21809 0
M  V30 6320 H 581.751 2.47618 3.02987 0
M  V30 6321 H 581.374 0.97279 3.85516 0
M  V30 6322 N 582.371 -1.3172 0.865308 0
M  V30 6323 C 583.303 -2.27545 0.274906 0
M  V30 6324 C 584.316 -1.52887 -0.559413 0
M  V30 6325 O 585.505 -1.74361 -0.382166 0
M  V30 6326 C 582.605 -3.33006 -0.629286 0
M  V30 6327 C 581.778 -4.37063 0.171553 0
M  V30 6328 C 580.837 -5.22044 -0.660052 0
M  V30 6329 O 579.863 -5.69129 -0.0897527 0
M  V30 6330 N 581.065 -5.45946 -1.97289 0
M  V30 6331 H 583.83 -2.78848 1.09836 0
M  V30 6332 H 581.391 -1.44693 0.726331 0
M  V30 6333 H 583.383 -3.86772 -1.19121 0
M  V30 6334 H 581.953 -2.81782 -1.35342 0
M  V30 6335 H 581.173 -3.83436 0.914919 0
M  V30 6336 H 582.461 -5.03662 0.721235 0
M  V30 6337 H 581.859 -5.0944 -2.45942 0
M  V30 6338 H 580.416 -6.02665 -2.4827 0
M  V30 6339 N 583.85 -0.624285 -1.44708 0
M  V30 6340 C 584.76 0.0861083 -2.34442 0
M  V30 6341 C 585.776 0.84291 -1.5222 0
M  V30 6342 O 586.952 0.796723 -1.84971 0
M  V30 6343 C 584.017 1.05999 -3.30099 0
M  V30 6344 C 583.077 0.303316 -4.28227 0
M  V30 6345 C 582.311 1.23081 -5.19314 0
M  V30 6346 O 582.534 2.46929 -5.14181 0
M  V30 6347 O 581.468 0.71883 -5.97592 0
M  V30 6348 H 585.293 -0.651756 -2.96624 0
M  V30 6349 H 582.879 -0.384493 -1.44368 0
M  V30 6350 H 584.76 1.62046 -3.88997 0
M  V30 6351 H 583.436 1.77859 -2.70459 0
M  V30 6352 H 582.343 -0.300033 -3.72895 0
M  V30 6353 H 583.676 -0.375123 -4.90768 0
M  V30 6354 N 585.328 1.53329 -0.364422 0
M  V30 6355 C 586.574 2.01537 0.225969 0
M  V30 6356 C 586.907 1.25128 1.48515 0
M  V30 6357 O 586.182 0.344653 1.91422 0
M  V30 6358 C 586.465 3.56339 0.519092 0
M  V30 6359 C 586.318 4.43441 -0.753639 0
M  V30 6360 C 587.637 4.19833 1.32015 0
M  V30 6361 H 584.756 0.732573 0.0806548 0
M  V30 6362 H 587.398 1.83597 -0.489084 0
M  V30 6363 H 585.548 3.71756 1.12825 0
M  V30 6364 H 587.22 4.39823 -1.39116 0
M  V30 6365 H 585.463 4.11457 -1.37424 0
M  V30 6366 H 586.134 5.49699 -0.503517 0
M  V30 6367 H 588.61 4.08242 0.804859 0
M  V30 6368 H 587.486 5.28177 1.49399 0
M  V30 6369 H 587.747 3.75821 2.32832 0
M  V30 6370 O 586.845 0.233579 1.59802 0
M  V30 6371 H 587.536 -0.344607 1.9061 0
M  V30 END ATOM
M  V30 BEGIN BOND
M  V30 END BOND
M  V30 END CTAB
M  END
$$$$
