drugbank_target|Q59FK2 Selenocysteine lyase variant (DB00114)
 OpenBabel12092120063D

  0  0  0     0  0            999 V3000
M  V30 BEGIN CTAB
M  V30 COUNTS 3603 3648 0 0 0
M  V30 BEGIN ATOM
M  V30 1 H -0.908 1.98254 -0.117106 0
M  V30 2 N 0 1.576 0 0
M  V30 3 C 1.247 1.90568 0.684848 0
M  V30 4 C 1.575 0.873566 1.73779 0
M  V30 5 O 0.83 -0.121654 1.95322 0
M  V30 6 C 1.129 3.3029 1.3654 0
M  V30 7 C 0.795 4.48692 0.445662 0
M  V30 8 C -0.543 4.80815 0.192429 0
M  V30 9 C 1.809 5.20862 -0.187591 0
M  V30 10 C -0.863 5.82481 -0.702352 0
M  V30 11 C 1.489 6.23481 -1.07025 0
M  V30 12 C 0.153 6.54062 -1.33266 0
M  V30 13 H -0.577 0.697337 0.250604 0
M  V30 14 H 2.07 1.91419 -0.0555272 0
M  V30 15 H 0.375 3.25563 2.17982 0
M  V30 16 H 2.072 3.53058 1.90135 0
M  V30 17 H -1.338 4.23593 0.653203 0
M  V30 18 H 2.846 4.963 -0.004963 0
M  V30 19 H -1.898 6.04535 -0.913665 0
M  V30 20 H 2.276 6.78535 -1.56729 0
M  V30 21 H -0.097 7.32659 -2.02769 0
M  V30 22 N 1.4781 -0.272755 1.55222 0
M  V30 23 C 2.7031 -1.02683 1.80197 0
M  V30 24 C 3.1281 -1.79142 0.573551 0
M  V30 25 O 2.4861 -1.74917 -0.476849 0
M  V30 26 C 2.5341 -1.9609 3.02624 0
M  V30 27 O 1.6381 -3.04863 2.77727 0
M  V30 28 H 0.9791 -0.293557 0.595584 0
M  V30 29 H 3.5091 -0.30159 2.02365 0
M  V30 30 H 3.5191 -2.38039 3.31363 0
M  V30 31 H 2.1941 -1.39851 3.91682 0
M  V30 32 H 0.7711 -2.67228 2.60084 0
M  V30 33 N 2.9562 -1.48159 -0.537278 0
M  V30 34 C 3.9042 -1.62573 -1.66352 0
M  V30 35 C 4.8982 -0.492366 -1.62087 0
M  V30 36 O 6.1042 -0.670847 -1.67032 0
M  V30 37 H 2.4792 -0.511992 -0.550789 0
M  V30 38 H 4.4502 -2.57176 -1.51337 0
M  V30 39 C 3.1992 -1.67583 -3.04649 0
M  V30 40 H 2.5222 -2.54151 -3.08622 0
M  V30 41 H 3.9622 -1.81713 -3.83088 0
M  V30 42 C 2.4212 -0.413039 -3.34358 0
M  V30 43 O 2.9512 0.477259 -3.98855 0
M  V30 44 N 1.1572 -0.286961 -2.8918 0
M  V30 45 H 0.7042 -1.01241 -2.36871 0
M  V30 46 H 0.6622 0.556963 -3.09427 0
M  V30 47 N 4.4343 0.785586 -1.36625 0
M  V30 48 C 5.8453 1.36101 -1.27803 0
M  V30 49 C 6.1963 1.96035 0.0804875 0
M  V30 50 O 5.3213 1.92834 0.982042 0
M  V30 51 C 5.9163 2.47442 -2.31426 0
M  V30 52 C 4.4753 3.00789 -2.26281 0
M  V30 53 C 3.6223 1.73896 -2.15999 0
M  V30 54 H 6.5733 0.586928 -1.47448 0
M  V30 55 H 6.5943 3.2656 -1.95291 0
M  V30 56 H 6.1063 2.03791 -3.30289 0
M  V30 57 H 4.2073 3.48851 -1.30896 0
M  V30 58 H 4.3203 3.57343 -3.19128 0
M  V30 59 H 2.6843 1.9628 -1.62316 0
M  V30 60 H 3.4673 1.32368 -3.16755 0
M  V30 61 N 5.9124 1.20967 1.01018 0
M  V30 62 C 7.1594 1.02374 1.74716 0
M  V30 63 C 7.4874 -0.443375 1.89379 0
M  V30 64 O 6.7424 -1.34535 1.42123 0
M  V30 65 C 7.0414 1.65997 3.16512 0
M  V30 66 C 6.7074 3.15831 3.2181 0
M  V30 67 C 5.3694 3.56719 3.22963 0
M  V30 68 C 7.7214 4.11816 3.19464 0
M  V30 69 C 5.0494 4.92107 3.19449 0
M  V30 70 C 7.4014 5.47158 3.17491 0
M  V30 71 C 6.0654 5.87451 3.16951 0
M  V30 72 H 5.3354 0.374614 0.639332 0
M  V30 73 H 7.9824 1.50485 1.18434 0
M  V30 74 H 6.2874 1.10166 3.75993 0
M  V30 75 H 7.9844 1.49119 3.72242 0
M  V30 76 H 4.5744 2.83263 3.21652 0
M  V30 77 H 8.7584 3.81257 3.17737 0
M  V30 78 H 4.0144 5.22579 3.17366 0
M  V30 79 H 8.1884 6.21274 3.14629 0
M  V30 80 H 5.8154 6.92329 3.13983 0
M  V30 81 N 7.3905 -1.2043 1.01659 0
M  V30 82 C 8.6305 -1.91507 0.714456 0
M  V30 83 C 8.9945 -1.77073 -0.742237 0
M  V30 84 O 10.1955 -2.42631 -1.15688 0
M  V30 85 C 8.4665 -3.38795 1.13809 0
M  V30 86 S 10.0255 -4.28216 0.957925 0
M  V30 87 H 6.8435 -0.661571 0.260471 0
M  V30 88 H 9.4455 -1.45671 1.30384 0
M  V30 89 H 8.1495 -3.46822 2.19415 0
M  V30 90 H 7.6805 -3.89656 0.541474 0
M  V30 91 H 9.6955 -4.96007 -0.138531 0
M  V30 92 N 8.8686 -0.792821 -1.36206 0
M  V30 93 C 10.1166 -0.366062 -1.98757 0
M  V30 94 C 10.4376 1.0668 -1.63231 0
M  V30 95 O 9.7076 1.73587 -0.907978 0
M  V30 96 H 8.2876 -0.132364 -0.735179 0
M  V30 97 H 10.9496 -1.01562 -1.66347 0
M  V30 98 H 10.0456 -0.460638 -3.08682 0
M  V30 99 N 10.3467 1.47872 -0.545128 0
M  V30 100 C 11.2567 2.33633 0.212746 0
M  V30 101 C 12.2727 1.4744 0.923983 0
M  V30 102 O 13.4487 1.80393 0.895572 0
M  V30 103 C 10.5137 3.23884 1.23693 0
M  V30 104 C 9.5747 4.25961 0.534417 0
M  V30 105 C 8.8077 5.11899 1.5098 0
M  V30 106 O 9.0307 5.00077 2.7437 0
M  V30 107 O 7.9647 5.92831 1.0409 0
M  V30 108 H 11.7907 2.99714 -0.490416 0
M  V30 109 H 9.3757 1.46235 -0.305871 0
M  V30 110 H 11.2577 3.79666 1.82843 0
M  V30 111 H 9.9327 2.60446 1.92222 0
M  V30 112 H 8.8397 3.73972 -0.0979679 0
M  V30 113 H 10.1727 4.92079 -0.109213 0
M  V30 114 N 11.8248 0.280983 1.55075 0
M  V30 115 C 13.0528 -0.337293 2.04132 0
M  V30 116 C 13.4678 -1.4903 1.15912 0
M  V30 117 O 12.8248 -1.81606 0.180459 0
M  V30 118 C 12.8758 -0.812706 3.52246 0
M  V30 119 O 12.5968 0.294387 4.3711 0
M  V30 120 C 14.0978 -1.4982 4.17216 0
M  V30 121 H 11.3178 -0.0761638 0.666663 0
M  V30 122 H 13.8618 0.414787 2.00249 0
M  V30 123 H 12.0168 -1.51486 3.56554 0
M  V30 124 H 12.4308 -0.0721325 5.2445 0
M  V30 125 H 13.9048 -1.7822 5.22438 0
M  V30 126 H 14.3818 -2.43168 3.65741 0
M  V30 127 H 14.9878 -0.839742 4.16927 0
M  V30 128 N 13.3029 -1.57598 0.00835791 0
M  V30 129 C 14.5499 -1.90928 -0.674732 0
M  V30 130 C 14.8779 -0.88277 -1.73313 0
M  V30 131 O 14.1329 0.111294 -1.95383 0
M  V30 132 C 14.4319 -3.3101 -1.34787 0
M  V30 133 C 14.0979 -4.48922 -0.421861 0
M  V30 134 C 12.7599 -4.8091 -0.166927 0
M  V30 135 C 15.1119 -5.20755 0.215211 0
M  V30 136 C 12.4399 -5.821 0.733232 0
M  V30 137 C 14.7919 -6.22905 1.1033 0
M  V30 138 C 13.4559 -6.53346 1.36733 0
M  V30 139 H 12.7259 -0.698656 -0.246902 0
M  V30 140 H 15.3729 -1.91387 0.0656779 0
M  V30 141 H 13.6779 -3.26714 -2.16253 0
M  V30 142 H 15.3749 -3.54061 -1.8826 0
M  V30 143 H 11.9649 -4.23934 -0.630729 0
M  V30 144 H 16.1489 -4.9629 0.0312829 0
M  V30 145 H 11.4049 -6.04042 0.945712 0
M  V30 146 H 15.5789 -6.77694 1.60325 0
M  V30 147 H 13.2059 -7.31573 2.06652 0
M  V30 148 N 14.781 0.264519 -1.55364 0
M  V30 149 C 16.192 0.834936 -1.6699 0
M  V30 150 C 16.543 1.86718 -0.602552 0
M  V30 151 O 15.668 2.14899 0.254425 0
M  V30 152 C 16.263 1.5212 -3.02729 0
M  V30 153 C 14.822 2.03954 -3.16354 0
M  V30 154 C 13.969 0.884498 -2.62815 0
M  V30 155 H 16.92 0.0406869 -1.58648 0
M  V30 156 H 16.941 2.38853 -2.96191 0
M  V30 157 H 16.453 0.769668 -3.80392 0
M  V30 158 H 14.554 2.82041 -2.43482 0
M  V30 159 H 14.667 2.24902 -4.23032 0
M  V30 160 H 13.031 1.2802 -2.20188 0
M  V30 161 H 13.814 0.14634 -3.42988 0
M  V30 162 N 16.2591 1.48442 0.529413 0
M  V30 163 C 17.6751 1.34575 0.858004 0
M  V30 164 C 17.8751 0.3572 1.98309 0
M  V30 165 O 16.9311 -0.221379 2.51528 0
M  V30 166 C 18.2441 2.74617 1.22499 0
M  V30 167 C 19.7921 2.83109 1.33484 0
M  V30 168 C 20.2671 4.23854 1.73526 0
M  V30 169 N 21.7581 4.2653 1.80628 0
M  V30 170 C 22.4931 5.32372 2.12997 0
M  V30 171 N 21.9891 6.48491 2.43786 0
M  V30 172 N 23.7821 5.19766 2.14008 0
M  V30 173 H 15.9331 2.1133 -0.212925 0
M  V30 174 H 18.1961 0.947439 -0.0326199 0
M  V30 175 H 17.9021 3.4852 0.471905 0
M  V30 176 H 17.7761 3.08177 2.17501 0
M  V30 177 H 20.1631 2.09462 2.0787 0
M  V30 178 H 20.2441 2.53168 0.366027 0
M  V30 179 H 19.8881 4.98018 0.997013 0
M  V30 180 H 19.8181 4.5124 2.71459 0
M  V30 181 H 22.3091 3.42772 1.59108 0
M  V30 182 H 22.6221 7.24993 2.67592 0
M  V30 183 H 20.9671 6.51765 2.41304 0
M  V30 184 H 24.1581 4.28066 1.89412 0
M  V30 185 H 24.3311 6.02354 2.38902 0
M  V30 186 N 17.7372 -0.778329 1.37039 0
M  V30 187 C 18.6842 -1.89139 1.32269 0
M  V30 188 C 19.6542 -1.65017 0.189387 0
M  V30 189 O 20.8392 -1.87024 0.377693 0
M  V30 190 C 17.9792 -3.26112 1.12894 0
M  V30 191 C 17.0922 -3.62233 2.35396 0
M  V30 192 C 16.2272 -4.8838 2.08946 0
M  V30 193 C 15.2662 -5.17212 3.2735 0
M  V30 194 N 14.4032 -6.34546 3.00492 0
M  V30 195 H 19.2432 -1.92552 2.27437 0
M  V30 196 H 16.7802 -0.941473 1.13025 0
M  V30 197 H 18.7382 -4.05116 0.996835 0
M  V30 198 H 17.3682 -3.22091 0.213758 0
M  V30 199 H 16.4202 -2.78265 2.5937 0
M  V30 200 H 17.7322 -3.79481 3.23721 0
M  V30 201 H 16.8862 -5.75274 1.92729 0
M  V30 202 H 15.6252 -4.73222 1.17949 0
M  V30 203 H 14.6302 -4.28796 3.44113 0
M  V30 204 H 15.8552 -5.34283 4.19188 0
M  V30 205 H 13.8012 -6.20759 2.12118 0
M  V30 206 H 13.7182 -6.52179 3.82358 0
M  V30 207 H 14.9862 -7.24394 2.87879 0
M  V30 208 N 19.2153 -1.21501 -1.00376 0
M  V30 209 C 20.6263 -1.03146 -1.55621 0
M  V30 210 C 20.9773 0.408375 -1.91903 0
M  V30 211 O 20.1023 1.29177 -1.73616 0
M  V30 212 C 20.6973 -1.86612 -2.82775 0
M  V30 213 C 19.2563 -1.72586 -3.34501 0
M  V30 214 C 18.4033 -1.83747 -2.07683 0
M  V30 215 H 21.3543 -1.35505 -0.826081 0
M  V30 216 H 21.3753 -1.3771 -3.54706 0
M  V30 217 H 20.8873 -2.91399 -2.56336 0
M  V30 218 H 18.9883 -0.704877 -3.65872 0
M  V30 219 H 19.1013 -2.54623 -4.05837 0
M  V30 220 H 17.4653 -1.27069 -2.20739 0
M  V30 221 H 18.2483 -2.90044 -1.83655 0
M  V30 222 N 20.6934 1.19889 -1.02296 0
M  V30 223 C 21.9704 1.85148 -0.630832 0
M  V30 224 C 22.3504 1.91385 0.890782 0
M  V30 225 O 21.6984 1.42642 1.78509 0
M  V30 226 C 21.9084 3.24442 -1.28602 0
M  V30 227 C 23.2564 4.00663 -1.4055 0
M  V30 228 O 24.2804 3.33818 -1.24273 0
M  V30 229 O 23.1394 5.20387 -1.66913 0
M  V30 230 H 20.2334 0.797613 -0.218499 0
M  V30 231 H 22.7794 1.27427 -1.12074 0
M  V30 232 H 21.5514 3.14704 -2.32545 0
M  V30 233 H 21.1744 3.89802 -0.7836 0
M  V30 234 N 22.1715 0.800033 1.35784 0
M  V30 235 C 23.1015 0.220184 2.3246 0
M  V30 236 C 24.0825 -0.65073 1.57161 0
M  V30 237 O 25.2675 -0.582359 1.85263 0
M  V30 238 C 22.3975 -0.637353 3.41402 0
M  V30 239 C 21.3515 0.134531 4.27789 0
M  V30 240 C 20.6775 -0.844285 5.27992 0
M  V30 241 C 21.9775 1.32979 5.05088 0
M  V30 242 H 23.6715 1.02787 2.81203 0
M  V30 243 H 21.2175 0.495717 1.35199 0
M  V30 244 H 23.1705 -1.05302 4.08031 0
M  V30 245 H 21.8945 -1.47785 2.91251 0
M  V30 246 H 20.5535 0.531296 3.6273 0
M  V30 247 H 20.2015 -1.68011 4.74111 0
M  V30 248 H 19.9015 -0.332184 5.8666 0
M  V30 249 H 21.4255 -1.2583 5.97494 0
M  V30 250 H 22.8395 0.98934 5.64699 0
M  V30 251 H 21.2365 1.77593 5.7322 0
M  V30 252 H 22.3065 2.11978 4.36111 0
M  V30 253 N 23.6496 -1.47581 0.552962 0
M  V30 254 C 24.5966 -2.29957 -0.197108 0
M  V30 255 C 25.5666 -1.38799 -0.912359 0
M  V30 256 O 26.7516 -1.67761 -0.908888 0
M  V30 257 C 23.8916 -3.22672 -1.22379 0
M  V30 258 C 23.0046 -4.28919 -0.515038 0
M  V30 259 C 22.1396 -5.0879 -1.52664 0
M  V30 260 C 21.1786 -6.06815 -0.802631 0
M  V30 261 N 20.3156 -6.7966 -1.76086 0
M  V30 262 H 25.1556 -2.93578 0.511486 0
M  V30 263 H 22.6926 -1.4471 0.264067 0
M  V30 264 H 24.6506 -3.74845 -1.83159 0
M  V30 265 H 23.2806 -2.60925 -1.90047 0
M  V30 266 H 22.3326 -3.79835 0.207192 0
M  V30 267 H 23.6446 -4.98773 0.0523425 0
M  V30 268 H 22.7986 -5.65091 -2.20809 0
M  V30 269 H 21.5376 -4.38828 -2.12794 0
M  V30 270 H 20.5426 -5.49695 -0.107238 0
M  V30 271 H 21.7676 -6.78784 -0.207135 0
M  V30 272 H 19.7136 -6.12432 -2.35081 0
M  V30 273 H 19.6306 -7.45669 -1.24552 0
M  V30 274 H 20.8986 -7.40538 -2.43359 0
M  V30 275 N 25.1277 -0.289203 -1.54924 0
M  V30 276 C 26.3757 0.322879 -1.99504 0
M  V30 277 C 26.6967 1.55313 -1.1791 0
M  V30 278 O 25.9667 1.94001 -0.272097 0
M  V30 279 H 24.5467 0.122291 -0.736922 0
M  V30 280 H 27.2087 -0.397802 -1.90797 0
M  V30 281 H 26.3047 0.603061 -3.06218 0
M  V30 282 N 26.6058 1.57591 -0.0167156 0
M  V30 283 C 27.8338 1.95575 0.675128 0
M  V30 284 C 28.2488 0.892542 1.6637 0
M  V30 285 O 27.6058 -0.126912 1.82058 0
M  V30 286 C 27.6568 3.33608 1.39239 0
M  V30 287 O 27.3778 4.3585 0.443444 0
M  V30 288 C 28.8788 3.86151 2.17721 0
M  V30 289 H 26.0988 0.644423 0.186978 0
M  V30 290 H 28.6428 2.0437 -0.0728 0
M  V30 291 H 26.7978 3.2607 2.09182 0
M  V30 292 H 27.2118 5.158 0.951358 0
M  V30 293 H 28.6858 4.85114 2.63379 0
M  V30 294 H 29.1628 3.19738 3.01105 0
M  V30 295 H 29.7688 3.96918 1.52761 0
M  V30 296 N 28.0839 -0.256276 1.55502 0
M  V30 297 C 29.0339 -1.31981 1.85916 0
M  V30 298 C 30.0179 -1.43927 0.719296 0
M  V30 299 O 31.2099 -1.47326 0.981019 0
M  V30 300 C 28.3389 -2.67703 2.14918 0
M  V30 301 C 27.4249 -2.59801 3.35208 0
M  V30 302 N 27.8159 -2.21524 4.54709 0
M  V30 303 C 26.1139 -2.90832 3.38131 0
M  V30 304 C 26.8149 -2.24024 5.36832 0
M  V30 305 N 25.7909 -2.63158 4.75656 0
M  V30 306 H 29.5929 -1.01423 2.75845 0
M  V30 307 H 27.1069 -0.464911 1.55603 0
M  V30 308 H 29.1039 -3.44445 2.34869 0
M  V30 309 H 27.7639 -2.99137 1.26282 0
M  V30 310 H 28.7749 -1.93223 4.80505 0
M  V30 311 H 25.4519 -3.26867 2.59739 0
M  V30 312 H 26.8419 -1.9685 6.42417 0
M  V30 313 N 29.562 -1.4872 -0.521534 0
M  V30 314 C 30.978 -1.35028 -0.850855 0
M  V30 315 C 31.178 -0.367712 -1.98116 0
M  V30 316 O 30.234 0.208037 -2.51642 0
M  V30 317 C 31.547 -2.75263 -1.21041 0
M  V30 318 C 33.095 -2.83813 -1.31981 0
M  V30 319 C 33.57 -4.24769 -1.71276 0
M  V30 320 N 35.061 -4.27482 -1.78363 0
M  V30 321 C 35.796 -5.33494 -2.1017 0
M  V30 322 N 35.292 -6.49775 -2.40343 0
M  V30 323 N 37.085 -5.20894 -2.11248 0
M  V30 324 H 29.236 -2.11214 0.22413 0
M  V30 325 H 31.499 -0.947252 0.0376439 0
M  V30 326 H 31.205 -3.48765 -0.453415 0
M  V30 327 H 31.079 -3.09327 -2.15863 0
M  V30 328 H 33.466 -2.10561 -2.06756 0
M  V30 329 H 33.547 -2.53358 -0.352596 0
M  V30 330 H 33.191 -4.9854 -0.970588 0
M  V30 331 H 33.121 -4.52673 -2.69062 0
M  V30 332 H 35.612 -3.43611 -1.57288 0
M  V30 333 H 35.925 -7.26402 -2.63743 0
M  V30 334 H 34.27 -6.53035 -2.37844 0
M  V30 335 H 37.461 -4.29065 -1.87139 0
M  V30 336 H 37.634 -6.03612 -2.35704 0
M  V30 337 N 31.0401 0.771051 -1.3745 0
M  V30 338 C 32.2861 1.53109 -1.339 0
M  V30 339 C 32.6411 1.9225 0.0758401 0
M  V30 340 O 31.9341 1.61264 1.03463 0
M  V30 341 C 32.1281 2.80676 -2.2126 0
M  V30 342 C 31.9571 2.54003 -3.71096 0
M  V30 343 C 30.7271 2.48097 -4.402 0
M  V30 344 C 32.9251 2.21953 -4.63941 0
M  V30 345 N 30.9071 2.13515 -5.75573 0
M  V30 346 C 32.2781 1.97516 -5.87697 0
M  V30 347 C 34.3331 2.08114 -4.5232 0
M  V30 348 C 33.0361 1.60638 -7.01133 0
M  V30 349 C 35.0621 1.72636 -5.65642 0
M  V30 350 C 34.4241 1.4906 -6.88448 0
M  V30 351 H 30.5231 0.56055 -0.54526 0
M  V30 352 H 33.1071 0.899472 -1.72678 0
M  V30 353 H 31.2781 3.41674 -1.84698 0
M  V30 354 H 33.0101 3.46578 -2.08963 0
M  V30 355 H 29.7651 2.63974 -3.93211 0
M  V30 356 H 30.1891 1.98919 -6.47117 0
M  V30 357 H 34.8311 2.25024 -3.57944 0
M  V30 358 H 32.5491 1.42467 -7.95443 0
M  V30 359 H 36.1351 1.62586 -5.58621 0
M  V30 360 H 35.0151 1.22014 -7.7465 0
M  V30 361 N 32.5182 1.22032 0.997298 0
M  V30 362 C 33.4812 0.987909 2.06816 0
M  V30 363 C 34.4812 -0.0440084 1.6074 0
M  V30 364 O 35.6712 0.194053 1.73116 0
M  V30 365 C 32.8032 0.49132 3.37341 0
M  V30 366 H 33.9962 1.93803 2.28868 0
M  V30 367 H 31.5492 1.03838 1.16822 0
M  V30 368 H 32.2842 -0.463364 3.20973 0
M  V30 369 H 32.0692 1.23575 3.72118 0
M  V30 370 H 33.5592 0.348824 4.16141 0
M  V30 371 N 33.9963 -1.19345 1.0293 0
M  V30 372 C 35.4073 -1.70725 0.755633 0
M  V30 373 C 35.7583 -1.82326 -0.724676 0
M  V30 374 O 34.8833 -1.49471 -1.56484 0
M  V30 375 C 35.4783 -3.10084 1.36503 0
M  V30 376 C 34.0373 -3.58723 1.13994 0
M  V30 377 C 33.1843 -2.35577 1.46283 0
M  V30 378 H 36.1353 -1.0418 1.19718 0
M  V30 379 H 36.1563 -3.72787 0.762217 0
M  V30 380 H 35.6683 -3.01609 2.44241 0
M  V30 381 H 33.7693 -3.72512 0.0807901 0
M  V30 382 H 33.8823 -4.42816 1.82894 0
M  V30 383 H 32.2463 -2.38935 0.88217 0
M  V30 384 H 33.0293 -2.29731 2.55105 0
M  V30 385 N 35.4744 -0.807222 -1.35358 0
M  V30 386 C 36.4064 -0.175717 -2.28525 0
M  V30 387 C 37.4194 0.625354 -1.5031 0
M  V30 388 O 38.6084 0.457611 -1.72535 0
M  V30 389 C 35.7084 0.773471 -3.29956 0
M  V30 390 C 34.8814 0.0186296 -4.37396 0
M  V30 391 C 33.9404 0.886395 -5.18681 0
M  V30 392 O 32.9664 0.337106 -5.68201 0
M  V30 393 N 34.1684 2.20839 -5.36852 0
M  V30 394 H 36.9334 -0.976091 -2.83359 0
M  V30 395 H 34.4944 -0.662737 -1.47714 0
M  V30 396 H 36.4864 1.35824 -3.81227 0
M  V30 397 H 35.0564 1.47465 -2.75632 0
M  V30 398 H 34.2764 -0.747349 -3.87051 0
M  V30 399 H 35.5644 -0.501577 -5.06322 0
M  V30 400 H 34.9624 2.67858 -4.98265 0
M  V30 401 H 33.5194 2.74237 -5.91301 0
M  V30 402 N 36.9525 1.47285 -0.560781 0
M  V30 403 C 38.3635 1.86258 -0.128343 0
M  V30 404 C 38.7145 1.46699 1.30284 0
M  V30 405 O 37.8395 0.871698 1.98067 0
M  V30 406 C 38.4345 3.38044 -0.22614 0
M  V30 407 C 36.9935 3.76096 0.151283 0
M  V30 408 C 36.1405 2.71335 -0.572084 0
M  V30 409 H 39.0915 1.38752 -0.770297 0
M  V30 410 H 39.1125 3.76441 0.554322 0
M  V30 411 H 38.6245 3.66806 -1.26788 0
M  V30 412 H 36.7255 3.52951 1.19399 0
M  V30 413 H 36.8385 4.78641 -0.209765 0
M  V30 414 H 35.2025 2.54696 -0.0147653 0
M  V30 415 H 35.9855 3.02938 -1.61504 0
M  V30 416 N 38.4306 0.297415 1.54768 0
M  V30 417 C 39.6556 -0.318435 2.04941 0
M  V30 418 C 40.0806 -1.4701 1.17345 0
M  V30 419 O 39.4386 -1.80436 0.176758 0
M  V30 420 C 39.4866 -0.755749 3.52592 0
M  V30 421 O 38.5906 -1.86088 3.68028 0
M  V30 422 H 37.9316 -0.062421 0.661059 0
M  V30 423 H 40.4616 0.438215 1.99852 0
M  V30 424 H 40.4716 -1.04552 3.94376 0
M  V30 425 H 39.1466 0.0867233 4.1581 0
M  V30 426 H 37.7236 -1.57193 3.38149 0
M  V30 427 N 39.9087 -1.5758 0.0250728 0
M  V30 428 C 40.8187 -2.1343 -0.973905 0
M  V30 429 C 41.8347 -1.08556 -1.35984 0
M  V30 430 O 43.0107 -1.40592 -1.44207 0
M  V30 431 C 40.0757 -2.64703 -2.23904 0
M  V30 432 C 39.1367 -3.84276 -1.91391 0
M  V30 433 C 38.3697 -4.33095 -3.11873 0
M  V30 434 O 38.5927 -3.81107 -4.24398 0
M  V30 435 O 37.5267 -5.24984 -2.94406 0
M  V30 436 H 41.3527 -2.99057 -0.529036 0
M  V30 437 H 38.9377 -1.48118 -0.195288 0
M  V30 438 H 40.8197 -2.97769 -2.98181 0
M  V30 439 H 39.4947 -1.82161 -2.6758 0
M  V30 440 H 38.4017 -3.56143 -1.14511 0
M  V30 441 H 39.7347 -4.67968 -1.52534 0
M  V30 442 N 41.3868 0.248026 -1.55636 0
M  V30 443 C 42.6348 0.974295 -1.77065 0
M  V30 444 C 42.9558 1.85897 -0.588849 0
M  V30 445 O 42.2258 1.91868 0.395407 0
M  V30 446 H 40.8058 0.362733 -0.653019 0
M  V30 447 H 43.4678 0.266244 -1.93073 0
M  V30 448 H 42.5638 1.59667 -2.68166 0
M  V30 449 N 42.8649 1.48995 0.513639 0
M  V30 450 C 44.1129 1.57531 1.26604 0
M  V30 451 C 44.4339 0.258236 1.93283 0
M  V30 452 O 43.7039 -0.721502 1.8213 0
M  V30 453 H 42.2839 0.580387 0.470276 0
M  V30 454 H 44.9459 1.85552 0.596373 0
M  V30 455 H 44.0419 2.36486 2.03669 0
M  V30 456 N 44.343 -0.763751 1.37857 0
M  V30 457 C 45.275 -1.88664 1.30148 0
M  V30 458 C 46.288 -1.61365 0.215685 0
M  V30 459 O 47.477 -1.72134 0.472459 0
M  V30 460 C 44.577 -3.24075 0.991396 0
M  V30 461 C 43.75 -3.78958 2.18426 0
M  V30 462 C 42.809 -4.92862 1.8432 0
M  V30 463 O 41.835 -5.08027 2.56704 0
M  V30 464 N 43.037 -5.75071 0.792081 0
M  V30 465 H 45.802 -1.95791 2.26905 0
M  V30 466 H 43.363 -0.943226 1.31586 0
M  V30 467 H 45.355 -3.97804 0.743935 0
M  V30 468 H 43.925 -3.12399 0.112122 0
M  V30 469 H 43.145 -2.96913 2.59299 0
M  V30 470 H 44.433 -4.12357 2.98058 0
M  V30 471 H 43.831 -5.65375 0.191595 0
M  V30 472 H 42.388 -6.48991 0.60449 0
M  V30 473 N 45.8211 -1.22559 -0.990812 0
M  V30 474 C 46.7841 -0.998863 -2.0629 0
M  V30 475 C 47.7841 0.0354834 -1.60761 0
M  V30 476 O 48.9741 -0.203231 -1.7301 0
M  V30 477 C 46.1061 -0.509203 -3.37076 0
M  V30 478 H 47.2991 -1.95014 -2.27837 0
M  V30 479 H 44.8521 -1.04456 -1.16269 0
M  V30 480 H 45.5871 0.446335 -3.21214 0
M  V30 481 H 45.3721 -1.25547 -3.71457 0
M  V30 482 H 46.8621 -0.370888 -4.1595 0
M  V30 483 N 47.2992 1.18797 -1.03562 0
M  V30 484 C 48.7102 1.70322 -0.764676 0
M  V30 485 C 49.0612 1.82708 0.714996 0
M  V30 486 O 48.1862 1.50299 1.55689 0
M  V30 487 C 48.7812 3.09356 -1.38145 0
M  V30 488 C 47.3402 3.58114 -1.15895 0
M  V30 489 C 46.4872 2.34798 -1.4753 0
M  V30 490 H 49.4382 1.03543 -1.20268 0
M  V30 491 H 49.4592 3.72378 -0.781977 0
M  V30 492 H 48.9712 3.00309 -2.45837 0
M  V30 493 H 47.0722 3.72464 -0.100544 0
M  V30 494 H 47.1852 4.4184 -1.8524 0
M  V30 495 H 45.5492 2.38464 -0.894829 0
M  V30 496 H 46.3322 2.28375 -2.56319 0
M  V30 497 N 48.7773 0.814389 1.34928 0
M  V30 498 C 50.0243 0.398423 1.98542 0
M  V30 499 C 50.3523 -1.03638 1.64589 0
M  V30 500 O 49.6073 -1.73509 0.90516 0
M  V30 501 C 49.9063 0.537781 3.53331 0
M  V30 502 C 49.5723 1.93704 4.07172 0
M  V30 503 C 48.2343 2.31984 4.21589 0
M  V30 504 C 50.5863 2.85213 4.36237 0
M  V30 505 C 47.9143 3.61125 4.62391 0
M  V30 506 C 50.2663 4.13809 4.78482 0
M  V30 507 C 48.9303 4.52077 4.91104 0
M  V30 508 H 48.2003 0.145793 0.726516 0
M  V30 509 H 50.8473 1.03669 1.61012 0
M  V30 510 H 49.1523 -0.183906 3.91368 0
M  V30 511 H 50.8493 0.196588 4.00518 0
M  V30 512 H 47.4393 1.62966 3.96409 0
M  V30 513 H 51.6233 2.56885 4.24645 0
M  V30 514 H 46.8793 3.90612 4.70353 0
M  V30 515 H 51.0533 4.84811 4.99932 0
M  V30 516 H 48.6803 5.52196 5.22478 0
M  V30 517 N 50.2554 -1.46986 0.568584 0
M  V30 518 C 51.2054 -2.27179 -0.193339 0
M  V30 519 C 52.1894 -1.35035 -0.874895 0
M  V30 520 O 53.3814 -1.5931 -0.771322 0
M  V30 521 C 50.5104 -3.21063 -1.21546 0
M  V30 522 C 49.5964 -4.2069 -0.536738 0
M  V30 523 N 49.9874 -5.04218 0.399673 0
M  V30 524 C 48.2854 -4.38961 -0.789254 0
M  V30 525 C 48.9864 -5.76242 0.795017 0
M  V30 526 N 47.9624 -5.434 0.1473 0
M  V30 527 H 51.7644 -2.89146 0.526458 0
M  V30 528 H 49.2784 -1.57664 0.389342 0
M  V30 529 H 51.2754 -3.77209 -1.77536 0
M  V30 530 H 49.9354 -2.60654 -1.93623 0
M  V30 531 H 50.9464 -5.12077 0.774454 0
M  V30 532 H 47.6234 -3.89713 -1.49767 0
M  V30 533 H 49.0134 -6.53417 1.56513 0
M  V30 534 N 51.7335 -0.305618 -1.54608 0
M  V30 535 C 52.9635 0.304333 -2.04346 0
M  V30 536 C 53.3715 1.47715 -1.18224 0
M  V30 537 O 52.7145 1.82591 -0.201577 0
M  V30 538 C 52.7765 0.819031 -3.50046 0
M  V30 539 C 52.4405 -0.22912 -4.56425 0
M  V30 540 C 53.4375 -1.05914 -5.08997 0
M  V30 541 C 51.1225 -0.372148 -5.0092 0
M  V30 542 C 53.1165 -2.01809 -6.04609 0
M  V30 543 C 50.8035 -1.33454 -5.9635 0
M  V30 544 C 51.8015 -2.15599 -6.48079 0
M  V30 545 O 51.4895 -3.10205 -7.41639 0
M  V30 546 H 51.2215 0.0693996 -0.672428 0
M  V30 547 H 53.7755 -0.444548 -2.00532 0
M  V30 548 H 52.0055 1.61852 -3.51199 0
M  V30 549 H 53.6945 1.34537 -3.82955 0
M  V30 550 H 54.4605 -0.959538 -4.75413 0
M  V30 551 H 50.3395 0.257304 -4.60281 0
M  V30 552 H 53.8835 -2.65966 -6.44909 0
M  V30 553 H 49.7805 -1.43485 -6.29351 0
M  V30 554 H 50.5485 -3.05237 -7.59455 0
M  V30 555 N 53.2116 1.57565 -0.0334293 0
M  V30 556 C 54.4586 1.91978 0.644272 0
M  V30 557 C 54.7866 0.910231 1.71887 0
M  V30 558 O 54.0416 -0.0801961 1.95536 0
M  V30 559 C 54.3406 3.33112 1.29504 0
M  V30 560 C 54.0066 4.49537 0.350388 0
M  V30 561 C 52.6686 4.81115 0.0903974 0
M  V30 562 C 55.0206 5.20347 -0.298032 0
M  V30 563 C 52.3486 5.8086 -0.825746 0
M  V30 564 C 54.7006 6.2107 -1.20226 0
M  V30 565 C 53.3646 6.51088 -1.4711 0
M  V30 566 H 52.6346 0.702496 0.235756 0
M  V30 567 H 55.2816 1.91259 -0.0961176 0
M  V30 568 H 53.5866 3.30113 2.11028 0
M  V30 569 H 55.2836 3.57011 1.82603 0
M  V30 570 H 51.8736 4.24883 0.563205 0
M  V30 571 H 56.0576 4.96178 -0.110234 0
M  V30 572 H 51.3136 6.02461 -1.04169 0
M  V30 573 H 55.4876 6.75057 -1.71086 0
M  V30 574 H 53.1146 7.28193 -2.18264 0
M  V30 575 N 54.6897 -0.239769 1.55765 0
M  V30 576 C 55.6197 -1.30052 1.9393 0
M  V30 577 C 56.6007 -1.49839 0.805132 0
M  V30 578 O 57.7857 -1.62328 1.06599 0
M  V30 579 C 54.9157 -2.65391 2.2402 0
M  V30 580 C 53.8697 -2.60289 3.39755 0
M  V30 581 C 53.1957 -3.99489 3.55405 0
M  V30 582 C 54.4957 -2.16654 4.75246 0
M  V30 583 H 56.1897 -0.983573 2.82783 0
M  V30 584 H 53.7357 -0.471701 1.36055 0
M  V30 585 H 55.6887 -3.3974 2.49308 0
M  V30 586 H 54.4127 -2.98736 1.32 0
M  V30 587 H 53.0717 -1.88398 3.14487 0
M  V30 588 H 52.7197 -4.30112 2.60793 0
M  V30 589 H 52.4197 -3.96962 4.33238 0
M  V30 590 H 53.9437 -4.75528 3.83022 0
M  V30 591 H 55.3577 -2.80737 4.99859 0
M  V30 592 H 53.7547 -2.25223 5.56232 0
M  V30 593 H 54.8247 -1.11835 4.71827 0
M  V30 594 N 56.1678 -1.49265 -0.50573 0
M  V30 595 C 57.4158 -1.582 -1.25766 0
M  V30 596 C 57.7368 -0.268482 -1.93143 0
M  V30 597 O 57.0068 0.711833 -1.8251 0
M  V30 598 H 55.5868 -0.582873 -0.467191 0
M  V30 599 H 58.2488 -1.85865 -0.586525 0
M  V30 600 H 57.3448 -2.37563 -2.02412 0
M  V30 601 N 57.6459 0.756429 -1.3826 0
M  V30 602 C 58.8939 1.51248 -1.34047 0
M  V30 603 C 59.2149 1.94875 0.0698372 0
M  V30 604 O 58.4849 1.67436 1.01696 0
M  V30 605 H 57.0649 0.561018 -0.493222 0
M  V30 606 H 59.7269 0.899347 -1.7291 0
M  V30 607 H 58.8229 2.40472 -1.98947 0
M  V30 608 N 59.124 1.23083 0.984299 0
M  V30 609 C 60.352 1.08714 1.76037 0
M  V30 610 C 60.767 -0.361691 1.85303 0
M  V30 611 O 60.124 -1.25034 1.32939 0
M  V30 612 C 60.175 1.70206 3.18923 0
M  V30 613 O 59.896 3.09423 3.10144 0
M  V30 614 C 61.397 1.61227 4.12941 0
M  V30 615 H 58.617 0.380664 0.552572 0
M  V30 616 H 61.161 1.62853 1.23689 0
M  V30 617 H 59.316 1.20109 3.6831 0
M  V30 618 H 59.73 3.39188 4.00065 0
M  V30 619 H 61.204 2.08962 5.10919 0
M  V30 620 H 61.681 0.570375 4.35481 0
M  V30 621 H 62.287 2.10671 3.69456 0
M  V30 622 N 60.6021 -1.18246 1.0419 0
M  V30 623 C 62.0181 -1.40269 0.761366 0
M  V30 624 C 62.2181 -1.90777 -0.648578 0
M  V30 625 O 61.2741 -2.0929 -1.41258 0
M  V30 626 C 62.5871 -2.40237 1.8085 0
M  V30 627 C 64.1351 -2.53961 1.82955 0
M  V30 628 C 64.6101 -3.57194 2.86664 0
M  V30 629 N 66.1011 -3.64702 2.85563 0
M  V30 630 C 66.8361 -4.44309 3.6246 0
M  V30 631 N 66.3321 -5.27514 4.49111 0
M  V30 632 N 68.1251 -4.39084 3.50944 0
M  V30 633 H 60.2761 -0.837882 1.95175 0
M  V30 634 H 62.5391 -0.430608 0.84456 0
M  V30 635 H 62.2451 -2.10176 2.81991 0
M  V30 636 H 62.1191 -3.39601 1.64168 0
M  V30 637 H 64.5061 -2.83338 0.824855 0
M  V30 638 H 64.5871 -1.54706 2.03715 0
M  V30 639 H 64.2311 -3.28558 3.87314 0
M  V30 640 H 64.1611 -4.5613 2.6316 0
M  V30 641 H 66.6521 -3.05289 2.22727 0
M  V30 642 H 66.9651 -5.85411 5.04493 0
M  V30 643 H 65.3101 -5.2693 4.53178 0
M  V30 644 H 68.5011 -3.7313 2.82651 0
M  V30 645 H 68.6741 -5.00883 4.11121 0
M  V30 646 N 62.0802 -0.821533 -1.34494 0
M  V30 647 C 63.0102 -0.257138 -2.3208 0
M  V30 648 C 63.9912 0.625645 -1.58176 0
M  V30 649 O 65.1762 0.552811 -1.86166 0
M  V30 650 C 62.3062 0.582958 -3.42372 0
M  V30 651 C 61.2602 -0.202571 -4.2752 0
M  V30 652 C 60.5862 0.760179 -5.29269 0
M  V30 653 C 61.8862 -1.40998 -5.02908 0
M  V30 654 H 63.5802 -1.07247 -2.79532 0
M  V30 655 H 61.1262 -0.517163 -1.34393 0
M  V30 656 H 63.0792 0.987972 -4.09655 0
M  V30 657 H 61.8032 1.43133 -2.93565 0
M  V30 658 H 60.4622 -0.588936 -3.61838 0
M  V30 659 H 60.1102 1.60447 -4.76724 0
M  V30 660 H 59.8102 0.238809 -5.87115 0
M  V30 661 H 61.3342 1.16308 -5.9942 0
M  V30 662 H 62.7482 -1.07905 -5.63054 0
M  V30 663 H 61.1452 -1.86689 -5.70322 0
M  V30 664 H 62.2152 -2.1889 -4.32684 0
M  V30 665 N 63.5583 1.46682 -0.576371 0
M  V30 666 C 64.5083 2.27278 0.181288 0
M  V30 667 C 65.4923 1.35497 0.867721 0
M  V30 668 O 66.6843 1.59717 0.762863 0
M  V30 669 C 63.8133 3.21703 1.19841 0
M  V30 670 C 62.8993 4.20969 0.51442 0
M  V30 671 N 63.2903 5.03999 -0.426407 0
M  V30 672 C 61.5883 4.39373 0.765963 0
M  V30 673 C 62.2893 5.75812 -0.825565 0
M  V30 674 N 61.2653 5.43315 -0.176116 0
M  V30 675 H 65.0673 2.88863 -0.541785 0
M  V30 676 H 62.5813 1.57455 -0.397697 0
M  V30 677 H 64.5783 3.78145 1.75533 0
M  V30 678 H 63.2383 2.61677 1.92238 0
M  V30 679 H 64.2493 5.11659 -0.8016 0
M  V30 680 H 60.9263 3.90502 1.47698 0
M  V30 681 H 62.3163 6.52577 -1.59976 0
M  V30 682 N 65.0364 0.313813 1.54444 0
M  V30 683 C 66.4474 -0.176243 1.85866 0
M  V30 684 C 66.7984 -1.52405 1.23561 0
M  V30 685 O 65.9234 -2.09605 0.538016 0
M  V30 686 C 66.5184 -0.32657 3.37222 0
M  V30 687 C 65.0774 -0.760846 3.6863 0
M  V30 688 C 64.2244 0.123247 2.77026 0
M  V30 689 H 67.1754 0.534418 1.49431 0
M  V30 690 H 67.1964 -1.15908 3.62416 0
M  V30 691 H 66.7084 0.654531 3.82541 0
M  V30 692 H 64.8094 -1.75204 3.28838 0
M  V30 693 H 64.9224 -0.571353 4.75681 0
M  V30 694 H 63.2864 -0.399597 2.51546 0
M  V30 695 H 64.0694 1.10094 3.25168 0
M  V30 696 N 66.5145 -1.57545 0.0417849 0
M  V30 697 C 67.4775 -2.09885 -0.92093 0
M  V30 698 C 68.4775 -1.01648 -1.24596 0
M  V30 699 O 69.6675 -1.27759 -1.1842 0
M  V30 700 C 66.7995 -2.57527 -2.23367 0
M  V30 701 H 67.9925 -2.96236 -0.467382 0
M  V30 702 H 65.5455 -1.5493 -0.206467 0
M  V30 703 H 66.2805 -1.74542 -2.73323 0
M  V30 704 H 66.0655 -3.36613 -2.01083 0
M  V30 705 H 67.5555 -2.98201 -2.92346 0
M  V30 706 N 67.9926 0.231505 -1.5589 0
M  V30 707 C 68.9556 1.27028 -1.90779 0
M  V30 708 C 69.9556 1.40308 -0.785507 0
M  V30 709 O 71.1456 1.38744 -1.05336 0
M  V30 710 C 68.2776 2.64566 -2.14983 0
M  V30 711 H 69.4706 0.973017 -2.83677 0
M  V30 712 H 67.0236 0.471486 -1.49019 0
M  V30 713 H 67.7586 2.99406 -1.24604 0
M  V30 714 H 67.5436 2.56305 -2.96732 0
M  V30 715 H 69.0336 3.39543 -2.43105 0
M  V30 716 N 69.4707 1.49531 0.497807 0
M  V30 717 C 70.8817 1.52344 1.07927 0
M  V30 718 C 71.2327 0.311469 1.93712 0
M  V30 719 O 70.3577 -0.578405 2.08527 0
M  V30 720 C 70.9527 2.76062 1.96405 0
M  V30 721 C 69.5117 2.81643 2.49709 0
M  V30 722 C 68.6587 2.46299 1.27404 0
M  V30 723 H 71.6097 1.56182 0.281576 0
M  V30 724 H 71.6307 2.56405 2.81135 0
M  V30 725 H 71.1427 3.64254 1.33943 0
M  V30 726 H 69.2437 1.97739 3.15801 0
M  V30 727 H 69.3567 3.83891 2.86643 0
M  V30 728 H 67.7207 1.98148 1.60029 0
M  V30 729 H 68.5037 3.36769 0.66645 0
M  V30 730 N 70.9488 -0.749086 1.3866 0
M  V30 731 C 72.1968 -1.50535 1.34847 0
M  V30 732 C 72.5178 -1.94909 -0.0595016 0
M  V30 733 O 71.7878 -1.67973 -1.00806 0
M  V30 734 H 70.3678 -0.558395 0.49619 0
M  V30 735 H 73.0298 -0.890165 1.73384 0
M  V30 736 H 72.1258 -2.39413 2.00219 0
M  V30 737 N 72.4269 -1.23603 -0.977757 0
M  V30 738 C 73.3899 -1.02069 -2.05218 0
M  V30 739 C 74.3899 0.0184305 -1.60789 0
M  V30 740 O 75.5799 -0.221569 -1.72785 0
M  V30 741 C 72.7119 -0.544926 -3.36517 0
M  V30 742 H 73.9049 -1.9742 -2.25755 0
M  V30 743 H 71.4579 -1.05684 -1.15155 0
M  V30 744 H 72.1929 0.412241 -3.21669 0
M  V30 745 H 71.9779 -1.2948 -3.70105 0
M  V30 746 H 73.4679 -0.414985 -4.15533 0
M  V30 747 N 73.905 1.17692 -1.04816 0
M  V30 748 C 75.316 1.69501 -0.782698 0
M  V30 749 C 75.667 1.83456 0.695577 0
M  V30 750 O 74.792 1.51942 1.54086 0
M  V30 751 C 75.387 3.07874 -1.41419 0
M  V30 752 C 73.946 3.56864 -1.19686 0
M  V30 753 C 73.093 2.3322 -1.50012 0
M  V30 754 H 76.044 1.02262 -1.2136 0
M  V30 755 H 76.065 3.71528 -0.821428 0
M  V30 756 H 75.577 2.97685 -2.49009 0
M  V30 757 H 73.678 3.72337 -0.140043 0
M  V30 758 H 73.791 4.39851 -1.89916 0
M  V30 759 H 72.155 2.37501 -0.920071 0
M  V30 760 H 72.938 2.25644 -2.58727 0
M  V30 761 N 75.3831 0.828654 1.34056 0
M  V30 762 C 76.6311 0.41863 1.97717 0
M  V30 763 C 76.9521 -1.02314 1.66002 0
M  V30 764 O 76.2221 -1.71119 0.953683 0
M  V30 765 H 74.8021 0.151809 0.731412 0
M  V30 766 H 77.4641 1.05936 1.63596 0
M  V30 767 H 76.5601 0.542318 3.07352 0
M  V30 768 N 76.8612 -1.46375 0.584142 0
M  V30 769 C 78.1092 -2.01978 0.0701287 0
M  V30 770 C 78.4302 -1.4579 -1.295 0
M  V30 771 O 77.7002 -0.64314 -1.85042 0
M  V30 772 H 76.2802 -0.746648 0.0229345 0
M  V30 773 H 78.9422 -1.79461 0.760245 0
M  V30 774 H 78.0382 -3.121 0.0022064 0
M  V30 775 N 78.3393 -0.321999 -1.54275 0
M  V30 776 C 79.7553 0.0306999 -1.5957 0
M  V30 777 C 79.9553 1.50614 -1.33857 0
M  V30 778 O 79.0113 2.2619 -1.12223 0
M  V30 779 C 80.3243 -0.386122 -2.98211 0
M  V30 780 C 81.8723 -0.336647 -3.11184 0
M  V30 781 C 82.3473 -0.728607 -4.52167 0
M  V30 782 N 83.8383 -0.681952 -4.58152 0
M  V30 783 C 84.5733 -0.957449 -5.6535 0
M  V30 784 N 84.0693 -1.3 -6.80494 0
M  V30 785 N 85.8623 -0.883113 -5.55119 0
M  V30 786 H 78.0133 -1.28332 -1.69247 0
M  V30 787 H 80.2763 -0.521716 -0.791528 0
M  V30 788 H 79.9823 -1.41404 -3.22022 0
M  V30 789 H 79.8563 0.249662 -3.76373 0
M  V30 790 H 82.2433 0.682058 -2.8711 0
M  V30 791 H 82.3243 -1.00734 -2.3513 0
M  V30 792 H 81.9683 -1.74522 -4.76974 0
M  V30 793 H 81.8983 -0.0356152 -5.26588 0
M  V30 794 H 84.3893 -0.428985 -3.75457 0
M  V30 795 H 84.7023 -1.49563 -7.58189 0
M  V30 796 H 83.0473 -1.33824 -6.81994 0
M  V30 797 H 86.2383 -0.615001 -4.64042 0
M  V30 798 H 86.4113 -1.10118 -6.38575 0
M  V30 799 N 79.8174 1.5752 -0.0501392 0
M  V30 800 C 81.0454 1.96963 0.633492 0
M  V30 801 C 81.4604 0.927631 1.6444 0
M  V30 802 O 80.8174 -0.0882665 1.82286 0
M  V30 803 C 80.8684 3.36487 1.32132 0
M  V30 804 O 80.5894 4.36693 0.350894 0
M  V30 805 C 82.0904 3.90682 2.09481 0
M  V30 806 H 79.3104 0.648244 0.173266 0
M  V30 807 H 81.8544 2.0417 -0.116134 0
M  V30 808 H 80.0094 3.30434 2.02218 0
M  V30 809 H 80.4234 5.17702 0.841735 0
M  V30 810 H 81.8974 4.90591 2.5303 0
M  V30 811 H 82.3744 3.26053 2.94255 0
M  V30 812 H 82.9804 4.00069 1.44307 0
M  V30 813 N 81.2955 -0.223234 1.56011 0
M  V30 814 C 82.5205 -0.968978 1.83373 0
M  V30 815 C 82.9455 -1.77227 0.630254 0
M  V30 816 O 82.3035 -1.76345 -0.420959 0
M  V30 817 C 82.3515 -1.86363 3.08709 0
M  V30 818 O 81.4555 -2.95873 2.87285 0
M  V30 819 H 80.7965 -0.274461 0.604622 0
M  V30 820 H 83.3265 -0.237056 2.03222 0
M  V30 821 H 83.3365 -2.27376 3.38768 0
M  V30 822 H 82.0115 -1.27319 3.95933 0
M  V30 823 H 80.5885 -2.58818 2.68454 0
M  V30 824 N 82.7736 -1.49793 -0.48987 0
M  V30 825 C 84.0216 -1.59525 -1.24081 0
M  V30 826 C 84.3426 -0.288953 -1.92847 0
M  V30 827 O 83.6126 0.692436 -1.83254 0
M  V30 828 H 82.1926 -0.587796 -0.460983 0
M  V30 829 H 84.8546 -1.86477 -0.566778 0
M  V30 830 H 83.9506 -2.39696 -1.99881 0
M  V30 831 N 84.2517 0.741722 -1.39055 0
M  V30 832 C 85.4767 1.53607 -1.39354 0
M  V30 833 C 85.9017 1.88096 0.0116905 0
M  V30 834 O 85.2597 1.5143 0.996924 0
M  V30 835 C 85.3077 2.80441 -2.26682 0
M  V30 836 O 84.4117 3.76088 -1.69208 0
M  V30 837 H 83.7527 0.464142 -0.474835 0
M  V30 838 H 86.2827 0.915665 -1.82967 0
M  V30 839 H 86.2927 3.29246 -2.40959 0
M  V30 840 H 84.9677 2.5467 -3.2881 0
M  V30 841 H 83.5447 3.34833 -1.64138 0
M  V30 842 N 85.7298 1.2412 0.971189 0
M  V30 843 C 86.6598 1.05508 2.08304 0
M  V30 844 C 87.6408 -0.0308864 1.70072 0
M  V30 845 O 88.8258 0.135521 1.93727 0
M  V30 846 C 85.9558 0.655365 3.4106 0
M  V30 847 C 84.9098 1.68971 3.93234 0
M  V30 848 C 84.2358 1.14516 5.22293 0
M  V30 849 C 85.5358 3.08487 4.21465 0
M  V30 850 H 87.2298 1.98507 2.24132 0
M  V30 851 H 84.7758 0.955821 1.07704 0
M  V30 852 H 86.7288 0.51217 4.18276 0
M  V30 853 H 85.4528 -0.31032 3.25122 0
M  V30 854 H 84.1118 1.82106 3.18171 0
M  V30 855 H 83.7598 0.170189 5.02712 0
M  V30 856 H 83.4598 1.83635 5.58168 0
M  V30 857 H 84.9838 1.01401 6.02121 0
M  V30 858 H 86.3978 2.98601 4.89398 0
M  V30 859 H 84.7948 3.74926 4.68562 0
M  V30 860 H 85.8648 3.56787 3.28376 0
M  V30 861 N 87.2079 -1.17134 1.05439 0
M  V30 862 C 88.1379 -2.2342 0.678649 0
M  V30 863 C 89.1189 -1.66971 -0.32476 0
M  V30 864 O 90.3039 -1.93149 -0.201802 0
M  V30 865 C 87.4339 -3.47256 0.0552099 0
M  V30 866 C 86.3879 -4.16543 0.98365 0
M  V30 867 C 85.7139 -5.34231 0.223961 0
M  V30 868 C 87.0139 -4.68495 2.3089 0
M  V30 869 H 88.7079 -2.55105 1.56722 0
M  V30 870 H 86.2539 -1.2262 0.754998 0
M  V30 871 H 88.2069 -4.20828 -0.21946 0
M  V30 872 H 86.9309 -3.14846 -0.868319 0
M  V30 873 H 85.5899 -3.44887 1.24293 0
M  V30 874 H 85.2379 -4.98071 -0.702412 0
M  V30 875 H 84.9379 -5.81527 0.842627 0
M  V30 876 H 86.4619 -6.10585 -0.0433671 0
M  V30 877 H 87.8759 -5.33691 2.09396 0
M  V30 878 H 86.2729 -5.26379 2.88176 0
M  V30 879 H 87.3429 -3.85169 2.94572 0
M  V30 880 N 88.686 -0.835752 -1.33615 0
M  V30 881 C 89.634 -0.255238 -2.31195 0
M  V30 882 C 90.628 0.61107 -1.57995 0
M  V30 883 O 91.834 0.500979 -1.72888 0
M  V30 884 H 88.209 -0.0638085 -0.749288 0
M  V30 885 H 90.18 -1.09283 -2.77669 0
M  V30 886 C 88.929 0.55754 -3.43201 0
M  V30 887 H 88.252 -0.0997553 -3.99676 0
M  V30 888 H 89.692 0.929622 -4.13683 0
M  V30 889 C 88.151 1.73515 -2.88781 0
M  V30 890 O 88.681 2.83376 -2.84712 0
M  V30 891 N 86.887 1.55603 -2.4543 0
M  V30 892 H 86.434 0.662354 -2.48939 0
M  V30 893 H 86.392 2.34545 -2.09371 0
M  V30 894 N 90.1641 1.46063 -0.591896 0
M  V30 895 C 91.4101 2.02638 -0.0811191 0
M  V30 896 C 91.7431 1.4613 1.27905 0
M  V30 897 O 91.0181 0.629908 1.84017 0
M  V30 898 C 91.3011 3.60091 -0.0252436 0
M  V30 899 C 91.1541 4.26965 -1.41496 0
M  V30 900 C 92.4731 4.3496 0.670685 0
M  V30 901 H 89.5921 0.73635 -0.0309524 0
M  V30 902 H 92.2341 1.741 -0.760859 0
M  V30 903 H 90.3841 3.84535 0.553624 0
M  V30 904 H 92.0561 4.13756 -2.0397 0
M  V30 905 H 90.2991 3.85971 -1.98011 0
M  V30 906 H 90.9701 5.35781 -1.32825 0
M  V30 907 H 93.4461 4.15716 0.178825 0
M  V30 908 H 92.3221 5.44686 0.678837 0
M  V30 909 H 92.5831 4.06685 1.73379 0
M  V30 910 N 91.6422 0.330177 1.54103 0
M  V30 911 C 92.5892 -0.532762 2.24567 0
M  V30 912 C 93.5592 -1.10635 1.23892 0
M  V30 913 O 94.7442 -1.14546 1.5259 0
M  V30 914 C 91.8842 -1.6845 3.01195 0
M  V30 915 C 90.9972 -1.13951 4.167 0
M  V30 916 C 90.1322 -2.25746 4.80845 0
M  V30 917 C 89.1712 -1.6853 5.88442 0
M  V30 918 N 88.3082 -2.74014 6.46421 0
M  V30 919 H 93.1482 0.0746905 2.97906 0
M  V30 920 H 90.6852 0.048632 1.4702 0
M  V30 921 H 92.6432 -2.36234 3.43874 0
M  V30 922 H 91.2732 -2.26314 2.30178 0
M  V30 923 H 90.3252 -0.35301 3.78758 0
M  V30 924 H 91.6372 -0.680892 4.94131 0
M  V30 925 H 90.7912 -3.01422 5.26526 0
M  V30 926 H 89.5302 -2.74947 4.0281 0
M  V30 927 H 88.5352 -0.913543 5.42157 0
M  V30 928 H 89.7602 -1.20198 6.68378 0
M  V30 929 H 87.7062 -3.22494 5.71256 0
M  V30 930 H 87.6232 -2.32735 7.19285 0
M  V30 931 H 88.8912 -3.49499 6.96757 0
M  V30 932 N 93.1203 -1.57491 0.0584922 0
M  V30 933 C 94.0533 -2.07533 -0.948969 0
M  V30 934 C 95.0313 -0.977444 -1.29942 0
M  V30 935 O 96.2153 -1.2499 -1.41102 0
M  V30 936 C 93.3423 -2.52192 -2.2609 0
M  V30 937 C 92.3883 -3.73287 -2.06298 0
M  V30 938 S 93.2213 -5.18603 -1.33459 0
M  V30 939 C 94.3773 -5.66583 -2.65959 0
M  V30 940 H 94.6103 -2.92662 -0.523118 0
M  V30 941 H 92.1433 -1.53631 -0.153954 0
M  V30 942 H 94.1013 -2.78585 -3.01498 0
M  V30 943 H 92.7623 -1.67356 -2.65802 0
M  V30 944 H 91.9553 -4.0248 -3.03357 0
M  V30 945 H 91.5573 -3.47199 -1.39029 0
M  V30 946 H 93.8493 -5.72616 -3.62101 0
M  V30 947 H 94.7923 -6.65684 -2.41393 0
M  V30 948 H 95.2003 -4.94342 -2.72554 0
M  V30 949 N 94.5984 0.214957 -1.56127 0
M  V30 950 C 95.5314 1.29382 -1.87977 0
M  V30 951 C 96.5094 1.44897 -0.737807 0
M  V30 952 O 97.6934 1.60605 -0.986833 0
M  V30 953 C 94.8204 2.66325 -2.09258 0
M  V30 954 C 93.8664 2.67789 -3.31951 0
M  V30 955 S 94.6994 2.21198 -4.8768 0
M  V30 956 C 95.8554 3.60003 -5.12004 0
M  V30 957 H 96.0884 1.02173 -2.79192 0
M  V30 958 H 93.6214 0.417516 -1.48648 0
M  V30 959 H 95.5794 3.45162 -2.22201 0
M  V30 960 H 94.2404 2.90755 -1.18829 0
M  V30 961 H 93.4334 3.68436 -3.43906 0
M  V30 962 H 93.0354 1.9702 -3.17898 0
M  V30 963 H 95.3274 4.55739 -5.01307 0
M  V30 964 H 96.2704 3.52959 -6.13861 0
M  V30 965 H 96.6784 3.53996 -4.39712 0
M  V30 966 N 96.0765 1.50051 0.48192 0
M  V30 967 C 97.0235 1.68122 1.58125 0
M  V30 968 C 97.9935 0.522545 1.57666 0
M  V30 969 O 99.1785 0.751844 1.75362 0
M  V30 970 C 96.3185 1.77142 2.96167 0
M  V30 971 C 95.4315 3.0444 3.06497 0
M  V30 972 C 94.5665 3.04321 4.35387 0
M  V30 973 C 93.6055 4.26118 4.3942 0
M  V30 974 N 92.7425 4.238 5.59766 0
M  V30 975 H 97.5825 2.6198 1.42022 0
M  V30 976 H 95.1195 1.29877 0.690687 0
M  V30 977 H 97.0775 1.80352 3.76203 0
M  V30 978 H 95.7075 0.867329 3.1093 0
M  V30 979 H 94.7595 3.10752 2.19402 0
M  V30 980 H 96.0715 3.94426 3.05336 0
M  V30 981 H 95.2255 3.062 5.23762 0
M  V30 982 H 93.9645 2.12147 4.39141 0
M  V30 983 H 92.9695 4.24463 3.49444 0
M  V30 984 H 94.1945 5.19507 4.37366 0
M  V30 985 H 92.1405 3.34474 5.64326 0
M  V30 986 H 92.0575 5.07542 5.60301 0
M  V30 987 H 93.3255 4.2981 6.50295 0
M  V30 988 N 97.5546 -0.734337 1.39446 0
M  V30 989 C 98.4876 -1.85715 1.32609 0
M  V30 990 C 99.4656 -1.6137 0.199636 0
M  V30 991 O 100.65 -1.84626 0.380195 0
M  V30 992 C 97.7766 -3.21709 1.05929 0
M  V30 993 C 96.8226 -3.64913 2.20773 0
M  V30 994 S 97.6556 -3.74203 3.83056 0
M  V30 995 C 98.8116 -5.12986 3.58603 0
M  V30 996 H 99.0446 -1.91232 2.27635 0
M  V30 997 H 96.5776 -0.899263 1.25509 0
M  V30 998 H 98.5356 -4.00236 0.912203 0
M  V30 999 H 97.1966 -3.13848 0.125883 0
M  V30 1000 H 96.3896 -4.63606 1.97699 0
M  V30 1001 H 95.9916 -2.93593 2.31688 0
M  V30 1002 H 98.2836 -5.99339 3.15909 0
M  V30 1003 H 99.2266 -5.41088 4.5676 0
M  V30 1004 H 99.6346 -4.82694 2.9269 0
M  V30 1005 N 99.0327 -1.24633 -0.964593 0
M  V30 1006 C 99.9797 -1.04144 -2.05968 0
M  V30 1007 C 100.95 0.046262 -1.66036 0
M  V30 1008 O 102.135 -0.108972 -1.90489 0
M  V30 1009 C 99.2747 -0.65563 -3.38815 0
M  V30 1010 C 98.3877 -1.81714 -3.91923 0
M  V30 1011 C 97.5227 -1.37662 -5.13052 0
M  V30 1012 C 96.5617 -2.50788 -5.58365 0
M  V30 1013 N 95.6987 -2.07582 -6.70712 0
M  V30 1014 H 100.539 -1.9787 -2.22827 0
M  V30 1015 H 98.0757 -0.9855 -1.09208 0
M  V30 1016 H 100.034 -0.412954 -4.15151 0
M  V30 1017 H 98.6637 0.244627 -3.21872 0
M  V30 1018 H 97.7157 -2.1734 -3.12198 0
M  V30 1019 H 99.0277 -2.66705 -4.21509 0
M  V30 1020 H 98.1817 -1.093 -5.96773 0
M  V30 1021 H 96.9207 -0.497293 -4.85158 0
M  V30 1022 H 95.9257 -2.79906 -4.73215 0
M  V30 1023 H 97.1507 -3.39283 -5.88272 0
M  V30 1024 H 95.0967 -1.22051 -6.44546 0
M  V30 1025 H 95.0137 -2.86125 -6.99763 0
M  V30 1026 H 96.2817 -1.82369 -7.57867 0
M  V30 1027 N 100.511 1.16574 -1.06058 0
M  V30 1028 C 101.739 1.90952 -0.796552 0
M  V30 1029 C 102.154 1.77302 0.648808 0
M  V30 1030 O 101.511 1.11605 1.44397 0
M  V30 1031 C 101.562 3.41736 -1.17894 0
M  V30 1032 O 101.283 3.54975 -2.56758 0
M  V30 1033 C 102.784 4.33169 -0.942308 0
M  V30 1034 H 100.004 0.605594 -0.288959 0
M  V30 1035 H 102.548 1.47777 -1.41358 0
M  V30 1036 H 100.703 3.82623 -0.606491 0
M  V30 1037 H 101.117 4.4846 -2.72 0
M  V30 1038 H 102.591 5.37439 -1.25952 0
M  V30 1039 H 103.068 4.3903 0.122078 0
M  V30 1040 H 103.674 3.98007 -1.49902 0
M  V30 1041 N 101.989 0.842826 1.3317 0
M  V30 1042 C 103.236 0.440447 1.97652 0
M  V30 1043 C 103.564 -1.00123 1.6675 0
M  V30 1044 O 102.819 -1.7155 0.941761 0
M  V30 1045 C 103.118 0.612607 3.52111 0
M  V30 1046 C 102.784 2.02297 4.02972 0
M  V30 1047 C 101.446 2.40874 4.16573 0
M  V30 1048 C 103.798 2.94402 4.30089 0
M  V30 1049 C 101.126 3.70852 4.54627 0
M  V30 1050 C 103.478 4.23865 4.69597 0
M  V30 1051 C 102.142 4.62392 4.81404 0
M  V30 1052 H 101.412 0.161171 0.72326 0
M  V30 1053 H 104.059 1.07061 1.58777 0
M  V30 1054 H 102.364 -0.100849 3.9167 0
M  V30 1055 H 104.061 0.2815 4.00011 0
M  V30 1056 H 100.651 1.71338 3.92863 0
M  V30 1057 H 104.835 2.65835 4.19101 0
M  V30 1058 H 100.091 4.00501 4.61962 0
M  V30 1059 H 104.265 4.95306 4.89536 0
M  V30 1060 H 101.892 5.63154 5.10648 0
M  V30 1061 N 103.467 -1.45747 0.599634 0
M  V30 1062 C 104.4 -2.27547 -0.172552 0
M  V30 1063 C 105.378 -1.36657 -0.881116 0
M  V30 1064 O 106.562 -1.66081 -0.891595 0
M  V30 1065 C 103.689 -3.14829 -1.24903 0
M  V30 1066 C 102.735 -4.21603 -0.644465 0
M  V30 1067 S 103.568 -5.32754 0.541606 0
M  V30 1068 C 104.724 -6.23604 -0.535656 0
M  V30 1069 H 104.957 -2.92691 0.521468 0
M  V30 1070 H 102.49 -1.49473 0.386947 0
M  V30 1071 H 104.448 -3.65675 -1.86527 0
M  V30 1072 H 103.109 -2.48965 -1.91508 0
M  V30 1073 H 102.302 -4.82566 -1.45417 0
M  V30 1074 H 101.904 -3.73857 -0.103534 0
M  V30 1075 H 104.196 -6.62519 -1.41686 0
M  V30 1076 H 105.139 -7.0809 0.0376246 0
M  V30 1077 H 105.547 -5.58103 -0.84741 0
M  V30 1078 N 104.945 -0.338344 -1.53925 0
M  V30 1079 C 105.878 0.563758 -2.21127 0
M  V30 1080 C 106.856 1.10433 -1.19345 0
M  V30 1081 O 108.04 1.16557 -1.48144 0
M  V30 1082 C 105.167 1.77505 -2.88461 0
M  V30 1083 C 104.213 1.3644 -4.04087 0
M  V30 1084 S 105.046 0.388593 -5.34088 0
M  V30 1085 C 106.202 1.60683 -6.04923 0
M  V30 1086 H 106.435 -0.00704546 -2.97299 0
M  V30 1087 H 103.968 -0.122418 -1.53914 0
M  V30 1088 H 105.926 2.46999 -3.27875 0
M  V30 1089 H 104.587 2.31706 -2.12064 0
M  V30 1090 H 103.78 2.26739 -4.50117 0
M  V30 1091 H 103.382 0.748998 -3.66423 0
M  V30 1092 H 105.674 2.54209 -6.28 0
M  V30 1093 H 106.617 1.18842 -6.98056 0
M  V30 1094 H 107.025 1.80052 -5.35015 0
M  V30 1095 N 106.423 1.57458 -0.0668435 0
M  V30 1096 C 107.672 1.92477 0.602947 0
M  V30 1097 C 107.985 0.948419 1.71068 0
M  V30 1098 O 109.191 1.19124 2.43971 0
M  V30 1099 C 107.647 3.41903 1.12383 0
M  V30 1100 C 107.255 4.47975 0.04737 0
M  V30 1101 C 108.999 3.85931 1.76797 0
M  V30 1102 C 106.906 5.88529 0.582022 0
M  V30 1103 H 105.836 0.718387 0.22899 0
M  V30 1104 H 108.487 1.82978 -0.138276 0
M  V30 1105 H 106.869 3.46459 1.91787 0
M  V30 1106 H 108.043 4.55029 -0.726978 0
M  V30 1107 H 106.358 4.13384 -0.500243 0
M  V30 1108 H 108.955 4.88322 2.17821 0
M  V30 1109 H 109.298 3.23029 2.62599 0
M  V30 1110 H 109.831 3.83958 1.04024 0
M  V30 1111 H 106.57 6.55065 -0.238721 0
M  V30 1112 H 106.09 5.85004 1.324 0
M  V30 1113 H 107.769 6.38258 1.05999 0
M  V30 1114 N 107.901 -0.206675 1.56239 0
M  V30 1115 C 109.141 -0.93574 1.81723 0
M  V30 1116 C 109.505 -1.80927 0.642609 0
M  V30 1117 O 110.706 -2.57323 0.777081 0
M  V30 1118 C 108.977 -1.74012 3.12177 0
M  V30 1119 S 110.536 -2.52279 3.59028 0
M  V30 1120 H 107.354 -0.314065 0.637875 0
M  V30 1121 H 109.956 -0.200071 1.94474 0
M  V30 1122 H 108.66 -1.0888 3.95693 0
M  V30 1123 H 108.191 -2.51782 3.02274 0
M  V30 1124 H 110.206 -3.76209 3.23545 0
M  V30 1125 N 109.379 -1.50304 -0.473955 0
M  V30 1126 C 110.626 -1.6115 -1.22625 0
M  V30 1127 C 110.954 -0.310517 -1.92005 0
M  V30 1128 O 110.209 0.703419 -1.82621 0
M  V30 1129 C 110.508 -2.73938 -2.29549 0
M  V30 1130 C 110.174 -4.14519 -1.7744 0
M  V30 1131 C 108.836 -4.5277 -1.62949 0
M  V30 1132 C 111.188 -5.02392 -1.3875 0
M  V30 1133 C 108.516 -5.76639 -1.08187 0
M  V30 1134 C 110.868 -6.26805 -0.854309 0
M  V30 1135 C 109.532 -6.63861 -0.696011 0
M  V30 1136 H 108.802 -0.589691 -0.448715 0
M  V30 1137 H 111.449 -1.84228 -0.522705 0
M  V30 1138 H 109.754 -2.44937 -3.05799 0
M  V30 1139 H 111.451 -2.79534 -2.87509 0
M  V30 1140 H 108.041 -3.8434 -1.89685 0
M  V30 1141 H 112.225 -4.73474 -1.4878 0
M  V30 1142 H 107.481 -6.04027 -0.946666 0
M  V30 1143 H 111.655 -6.94258 -0.545843 0
M  V30 1144 H 109.282 -7.59722 -0.26952 0
M  V30 1145 N 110.857 0.726932 -1.39834 0
M  V30 1146 C 111.807 1.83232 -1.35683 0
M  V30 1147 C 112.791 1.59155 -0.236295 0
M  V30 1148 O 113.983 1.70522 -0.474488 0
M  V30 1149 C 111.112 3.21246 -1.21062 0
M  V30 1150 C 110.198 3.51125 -2.37849 0
M  V30 1151 N 110.589 3.51889 -3.63329 0
M  V30 1152 C 108.887 3.81527 -2.30982 0
M  V30 1153 C 109.588 3.79791 -4.40606 0
M  V30 1154 N 108.564 3.97971 -3.70297 0
M  V30 1155 H 112.366 1.8214 -2.30656 0
M  V30 1156 H 109.88 0.925545 -1.33444 0
M  V30 1157 H 111.877 4.00387 -1.16171 0
M  V30 1158 H 110.537 3.23572 -0.270458 0
M  V30 1159 H 111.548 3.33008 -3.96643 0
M  V30 1160 H 108.225 3.91411 -1.45272 0
M  V30 1161 H 109.615 3.86783 -5.49408 0
M  V30 1162 N 112.336 1.25143 0.95797 0
M  V30 1163 C 113.266 1.07711 2.07173 0
M  V30 1164 C 114.247 -0.0128462 1.70095 0
M  V30 1165 O 115.432 0.156061 1.93572 0
M  V30 1166 C 112.562 0.691503 3.40346 0
M  V30 1167 C 111.516 1.73132 3.9142 0
M  V30 1168 C 110.842 1.20049 5.21049 0
M  V30 1169 C 112.142 3.1294 4.1817 0
M  V30 1170 H 113.836 2.00873 2.22014 0
M  V30 1171 H 111.382 0.967191 1.06684 0
M  V30 1172 H 113.335 0.556505 4.17709 0
M  V30 1173 H 112.059 -0.275819 3.25433 0
M  V30 1174 H 110.718 1.8547 3.16222 0
M  V30 1175 H 110.366 0.223499 5.02503 0
M  V30 1176 H 110.066 1.89545 5.56189 0
M  V30 1177 H 111.59 1.07782 6.01012 0
M  V30 1178 H 113.004 3.03775 4.86203 0
M  V30 1179 H 111.401 3.79875 4.64559 0
M  V30 1180 H 112.471 3.6025 3.24573 0
M  V30 1181 N 113.814 -1.1601 1.06675 0
M  V30 1182 C 115.063 -1.85973 0.780818 0
M  V30 1183 C 115.376 -1.82819 -0.695444 0
M  V30 1184 O 116.582 -2.484 -1.09589 0
M  V30 1185 C 115.038 -3.33757 1.34665 0
M  V30 1186 C 114.646 -3.45374 2.85343 0
M  V30 1187 C 116.39 -4.0895 1.13843 0
M  V30 1188 C 114.297 -4.87266 3.35151 0
M  V30 1189 H 113.227 -0.696661 0.288407 0
M  V30 1190 H 115.878 -1.30903 1.28595 0
M  V30 1191 H 114.26 -3.88456 0.769274 0
M  V30 1192 H 115.434 -3.00816 3.49065 0
M  V30 1193 H 113.749 -2.83619 3.04876 0
M  V30 1194 H 116.346 -5.13654 1.4854 0
M  V30 1195 H 116.689 -4.16229 0.0770282 0
M  V30 1196 H 117.222 -3.605 1.68179 0
M  V30 1197 H 113.961 -4.85168 4.40786 0
M  V30 1198 H 113.481 -5.32433 2.76179 0
M  V30 1199 H 115.16 -5.56097 3.30704 0
M  V30 1200 N 115.292 -0.849877 -1.32721 0
M  V30 1201 C 116.24 -0.279745 -2.30912 0
M  V30 1202 C 117.234 0.594278 -1.58634 0
M  V30 1203 O 118.44 0.482613 -1.73409 0
M  V30 1204 H 114.815 -0.0717521 -0.748569 0
M  V30 1205 H 116.786 -1.12222 -2.76494 0
M  V30 1206 C 115.535 0.521108 -3.43773 0
M  V30 1207 H 114.858 -0.142141 -3.99547 0
M  V30 1208 H 116.298 0.885693 -4.14646 0
M  V30 1209 C 114.757 1.70442 -2.90605 0
M  V30 1210 O 115.287 2.8034 -2.87702 0
M  V30 1211 N 113.493 1.52991 -2.47067 0
M  V30 1212 H 113.04 0.635914 -2.49628 0
M  V30 1213 H 112.998 2.32311 -2.11847 0
M  V30 1214 N 116.77 1.45427 -0.607355 0
M  V30 1215 C 117.998 2.06614 -0.108814 0
M  V30 1216 C 118.413 1.45204 1.2067 0
M  V30 1217 O 117.77 0.566132 1.73497 0
M  V30 1218 C 117.821 3.61481 0.0375347 0
M  V30 1219 O 117.542 4.20598 -1.22593 0
M  V30 1220 C 119.043 4.39652 0.567561 0
M  V30 1221 H 116.263 0.66747 -0.0687351 0
M  V30 1222 H 118.807 1.86675 -0.835022 0
M  V30 1223 H 116.962 3.80762 0.714068 0
M  V30 1224 H 117.376 5.1377 -1.05547 0
M  V30 1225 H 118.85 5.48518 0.61905 0
M  V30 1226 H 119.327 4.09417 1.58978 0
M  V30 1227 H 119.933 4.25234 -0.0749202 0
M  V30 1228 N 118.248 0.346503 1.53744 0
M  V30 1229 C 119.494 -0.249473 2.0126 0
M  V30 1230 C 119.827 -1.49965 1.23386 0
M  V30 1231 O 119.102 -1.91811 0.32229 0
M  V30 1232 C 119.385 -0.560643 3.55709 0
M  V30 1233 C 119.238 0.701836 4.44291 0
M  V30 1234 C 120.557 -1.36905 4.18264 0
M  V30 1235 H 117.676 -0.0891987 0.731582 0
M  V30 1236 H 120.318 0.467624 1.84156 0
M  V30 1237 H 118.468 -1.17156 3.70414 0
M  V30 1238 H 120.14 1.33974 4.41417 0
M  V30 1239 H 118.383 1.32612 4.13033 0
M  V30 1240 H 119.054 0.43933 5.50249 0
M  V30 1241 H 121.53 -0.852448 4.07275 0
M  V30 1242 H 120.406 -1.55553 5.26398 0
M  V30 1243 H 120.667 -2.37203 3.73078 0
M  V30 1244 N 119.726 -1.57421 0.075193 0
M  V30 1245 C 120.954 -1.97946 -0.602076 0
M  V30 1246 C 121.369 -0.953674 -1.62943 0
M  V30 1247 O 120.726 0.0592551 -1.82404 0
M  V30 1248 C 120.777 -3.38546 -1.26762 0
M  V30 1249 O 120.498 -4.37195 -0.281376 0
M  V30 1250 C 121.999 -3.93966 -2.03239 0
M  V30 1251 H 119.219 -0.650918 -0.162931 0
M  V30 1252 H 121.763 -2.03959 0.148601 0
M  V30 1253 H 119.918 -3.33609 -1.96936 0
M  V30 1254 H 120.332 -5.18975 -0.759267 0
M  V30 1255 H 121.806 -4.94555 -2.45193 0
M  V30 1256 H 122.283 -3.30693 -2.8903 0
M  V30 1257 H 122.889 -4.02315 -1.37924 0
M  V30 1258 N 121.204 0.198386 -1.56346 0
M  V30 1259 C 122.451 0.919286 -1.80431 0
M  V30 1260 C 122.779 1.83393 -0.647866 0
M  V30 1261 O 122.034 1.92236 0.366556 0
M  V30 1262 C 122.333 1.77031 -3.10475 0
M  V30 1263 C 121.999 1.00693 -4.39513 0
M  V30 1264 C 120.661 0.796145 -4.74568 0
M  V30 1265 C 123.013 0.469559 -5.19081 0
M  V30 1266 C 120.341 0.0364588 -5.86689 0
M  V30 1267 C 122.693 -0.2769 -6.31994 0
M  V30 1268 C 121.357 -0.49873 -6.65634 0
M  V30 1269 H 120.627 0.336391 -0.660244 0
M  V30 1270 H 123.274 0.185872 -1.90596 0
M  V30 1271 H 121.579 2.5723 -2.95533 0
M  V30 1272 H 123.276 2.33065 -3.26315 0
M  V30 1273 H 119.866 1.18122 -4.12001 0
M  V30 1274 H 124.05 0.619816 -4.92414 0
M  V30 1275 H 119.306 -0.145412 -6.11227 0
M  V30 1276 H 123.48 -0.700684 -6.92866 0
M  V30 1277 H 121.107 -1.0893 -7.52355 0
M  V30 1278 N 122.682 1.50554 0.465978 0
M  V30 1279 C 123.928 1.62038 1.21949 0
M  V30 1280 C 124.261 0.322116 1.9151 0
M  V30 1281 O 123.536 -0.676723 1.82348 0
M  V30 1282 C 123.819 2.80421 2.25912 0
M  V30 1283 C 123.672 4.20144 1.60622 0
M  V30 1284 C 124.991 2.94354 3.27176 0
M  V30 1285 H 122.11 0.589752 0.441998 0
M  V30 1286 H 124.752 1.82956 0.51257 0
M  V30 1287 H 122.902 2.62717 2.86203 0
M  V30 1288 H 124.574 4.49449 1.03889 0
M  V30 1289 H 122.817 4.24165 0.909211 0
M  V30 1290 H 123.488 4.98914 2.36196 0
M  V30 1291 H 125.964 3.10578 2.76913 0
M  V30 1292 H 124.84 3.788 3.97242 0
M  V30 1293 H 125.101 2.05186 3.916 0
M  V30 1294 N 124.16 -0.719506 1.40217 0
M  V30 1295 C 125.571 -1.29848 1.34151 0
M  V30 1296 C 125.922 -1.96196 0.0131349 0
M  V30 1297 O 125.047 -1.973 -0.88892 0
M  V30 1298 C 125.642 -2.36118 2.42968 0
M  V30 1299 C 124.201 -2.8965 2.40374 0
M  V30 1300 C 123.348 -1.63393 2.24049 0
M  V30 1301 H 126.299 -0.51591 1.5008 0
M  V30 1302 H 126.32 -3.16871 2.10649 0
M  V30 1303 H 125.832 -1.878 3.39636 0
M  V30 1304 H 123.933 -3.42208 1.47392 0
M  V30 1305 H 124.046 -3.4171 3.35814 0
M  V30 1306 H 122.41 -1.88312 1.71495 0
M  V30 1307 H 123.193 -1.17104 3.2271 0
M  V30 1308 N 125.638 -1.25649 -0.95132 0
M  V30 1309 C 126.884 -1.10757 -1.69884 0
M  V30 1310 C 127.217 0.350061 -1.91019 0
M  V30 1311 O 126.492 1.25783 -1.48354 0
M  V30 1312 C 126.775 -1.86606 -3.07978 0
M  V30 1313 C 126.628 -3.40217 -2.94232 0
M  V30 1314 C 127.947 -1.65182 -4.07925 0
M  V30 1315 H 125.066 -0.40374 -0.616574 0
M  V30 1316 H 127.708 -1.54521 -1.10558 0
M  V30 1317 H 125.858 -1.49409 -3.58621 0
M  V30 1318 H 127.53 -3.87108 -2.50889 0
M  V30 1319 H 125.773 -3.67759 -2.30078 0
M  V30 1320 H 126.444 -3.88505 -3.92133 0
M  V30 1321 H 128.92 -1.9757 -3.66204 0
M  V30 1322 H 127.796 -2.20683 -5.02583 0
M  V30 1323 H 128.057 -0.593933 -4.38092 0
M  V30 1324 N 127.117 1.15442 -1.07289 0
M  V30 1325 C 128.342 1.90638 -0.816828 0
M  V30 1326 C 128.767 1.77445 0.624083 0
M  V30 1327 O 128.125 1.10671 1.43602 0
M  V30 1328 C 128.173 3.39008 -1.22906 0
M  V30 1329 O 127.277 4.10701 -0.373975 0
M  V30 1330 H 126.618 0.593555 -0.297638 0
M  V30 1331 H 129.148 1.46198 -1.43134 0
M  V30 1332 H 129.158 3.89801 -1.20497 0
M  V30 1333 H 127.833 3.47929 -2.27856 0
M  V30 1334 H 126.41 3.70046 -0.460499 0
M  V30 1335 N 128.595 0.856903 1.32268 0
M  V30 1336 C 129.542 0.301172 2.28827 0
M  V30 1337 C 130.512 -0.593104 1.5515 0
M  V30 1338 O 131.697 -0.527537 1.83362 0
M  V30 1339 C 128.837 -0.502523 3.41422 0
M  V30 1340 C 127.95 0.417797 4.29975 0
M  V30 1341 C 127.085 -0.398749 5.29701 0
M  V30 1342 C 126.124 0.518827 6.09897 0
M  V30 1343 N 125.261 -0.260674 7.01616 0
M  V30 1344 H 130.101 1.12983 2.75751 0
M  V30 1345 H 127.638 0.568582 1.35667 0
M  V30 1346 H 129.596 -0.984141 4.05426 0
M  V30 1347 H 128.226 -1.29599 2.95642 0
M  V30 1348 H 127.278 1.01781 3.66531 0
M  V30 1349 H 128.59 1.12191 4.86019 0
M  V30 1350 H 127.744 -0.943435 5.9932 0
M  V30 1351 H 126.483 -1.13622 4.7428 0
M  V30 1352 H 125.488 1.07538 5.39181 0
M  V30 1353 H 126.713 1.25495 6.67404 0
M  V30 1354 H 124.659 -0.981198 6.4862 0
M  V30 1355 H 124.576 0.384364 7.55022 0
M  V30 1356 H 125.844 -0.787014 7.75517 0
M  V30 1357 N 130.073 -1.45103 0.615059 0
M  V30 1358 C 131.319 -2.02483 0.113347 0
M  V30 1359 C 131.652 -1.48146 -1.25564 0
M  V30 1360 O 130.927 -0.659104 -1.82992 0
M  V30 1361 C 131.21 -3.60005 0.0825278 0
M  V30 1362 C 131.063 -4.2466 1.48271 0
M  V30 1363 C 132.382 -4.35972 -0.601401 0
M  V30 1364 H 129.501 -0.735764 0.0426632 0
M  V30 1365 H 132.143 -1.72868 0.788461 0
M  V30 1366 H 130.293 -3.85367 -0.492378 0
M  V30 1367 H 131.965 -4.10458 2.10527 0
M  V30 1368 H 130.208 -3.82772 2.04127 0
M  V30 1369 H 130.879 -5.336 1.41332 0
M  V30 1370 H 133.355 -4.15947 -0.112666 0
M  V30 1371 H 132.231 -5.45697 -0.592097 0
M  V30 1372 H 132.492 -4.09391 -1.66887 0
M  V30 1373 N 131.551 -0.354651 -1.53558 0
M  V30 1374 C 132.776 0.242153 -2.05981 0
M  V30 1375 C 133.201 1.42553 -1.2272 0
M  V30 1376 O 132.559 1.79656 -0.243604 0
M  V30 1377 C 132.607 0.624367 -3.55154 0
M  V30 1378 O 131.711 1.72301 -3.74681 0
M  V30 1379 H 131.052 0.0378432 -0.662921 0
M  V30 1380 H 133.582 -0.512087 -1.98088 0
M  V30 1381 H 133.592 0.898433 -3.97985 0
M  V30 1382 H 132.267 -0.240989 -4.15201 0
M  V30 1383 H 130.844 1.44535 -3.4375 0
M  V30 1384 N 133.029 1.57378 -0.0835403 0
M  V30 1385 C 134.277 1.93547 0.581718 0
M  V30 1386 C 134.598 0.96524 1.69435 0
M  V30 1387 O 133.868 0.0153369 1.95894 0
M  V30 1388 H 132.448 0.714521 0.217874 0
M  V30 1389 H 135.11 1.94366 -0.144158 0
M  V30 1390 H 134.206 2.95665 0.999423 0
M  V30 1391 N 134.507 -0.190092 1.56449 0
M  V30 1392 C 135.439 -1.25973 1.91477 0
M  V30 1393 C 136.452 -1.41452 0.805931 0
M  V30 1394 O 137.641 -1.41789 1.08435 0
M  V30 1395 C 134.741 -2.63117 2.13594 0
M  V30 1396 C 133.914 -2.69182 3.4476 0
M  V30 1397 C 132.973 -3.87557 3.5593 0
M  V30 1398 O 131.999 -3.74427 4.28711 0
M  V30 1399 N 133.201 -5.03224 2.89388 0
M  V30 1400 H 135.966 -0.962394 2.83828 0
M  V30 1401 H 133.527 -0.379981 1.57378 0
M  V30 1402 H 135.519 -3.40742 2.1835 0
M  V30 1403 H 134.089 -2.85319 1.27719 0
M  V30 1404 H 133.309 -1.77793 3.51828 0
M  V30 1405 H 134.597 -2.70229 4.31107 0
M  V30 1406 H 133.995 -5.16791 2.30094 0
M  V30 1407 H 132.552 -5.78778 2.99764 0
M  V30 1408 N 135.985 -1.50799 -0.457987 0
M  V30 1409 C 137.213 -1.66218 -1.23203 0
M  V30 1410 C 137.628 -0.350894 -1.85511 0
M  V30 1411 O 136.985 0.668546 -1.69814 0
M  V30 1412 C 137.036 -2.76291 -2.33121 0
M  V30 1413 O 136.757 -4.02338 -1.73366 0
M  V30 1414 C 138.258 -3.028 -3.2377 0
M  V30 1415 H 135.478 -0.558361 -0.372121 0
M  V30 1416 H 138.022 -1.97099 -0.545179 0
M  V30 1417 H 136.177 -2.48068 -2.97558 0
M  V30 1418 H 136.591 -4.63312 -2.4585 0
M  V30 1419 H 138.065 -3.8345 -3.97077 0
M  V30 1420 H 138.542 -2.14385 -3.83322 0
M  V30 1421 H 139.148 -3.32604 -2.65056 0
M  V30 1422 N 137.463 0.71206 -1.40597 0
M  V30 1423 C 138.373 1.8562 -1.43466 0
M  V30 1424 C 139.389 1.70902 -0.326902 0
M  V30 1425 O 140.565 1.93105 -0.572043 0
M  V30 1426 C 137.63 3.21451 -1.29884 0
M  V30 1427 C 136.691 3.48398 -2.50833 0
M  V30 1428 C 135.924 4.77749 -2.3789 0
M  V30 1429 O 136.147 5.53089 -1.39459 0
M  V30 1430 O 135.081 5.05111 -3.27333 0
M  V30 1431 H 138.907 1.86155 -2.39958 0
M  V30 1432 H 136.492 0.86295 -1.21957 0
M  V30 1433 H 138.374 4.02579 -1.24531 0
M  V30 1434 H 137.049 3.21636 -0.364997 0
M  V30 1435 H 135.956 2.67265 -2.61763 0
M  V30 1436 H 137.289 3.53014 -3.4299 0
M  V30 1437 N 138.941 1.26152 0.944643 0
M  V30 1438 C 140.187 1.11657 1.69294 0
M  V30 1439 C 140.52 -0.339926 1.91202 0
M  V30 1440 O 139.795 -1.24994 1.49019 0
M  V30 1441 C 140.078 1.88236 3.06984 0
M  V30 1442 C 139.931 3.41772 2.92424 0
M  V30 1443 C 141.25 1.67343 4.07043 0
M  V30 1444 H 138.369 0.407004 0.614424 0
M  V30 1445 H 141.011 1.55106 1.09737 0
M  V30 1446 H 139.161 1.51308 3.57824 0
M  V30 1447 H 140.833 3.88433 2.48832 0
M  V30 1448 H 139.076 3.68974 2.28124 0
M  V30 1449 H 139.747 3.90579 3.90067 0
M  V30 1450 H 142.223 1.99509 3.65151 0
M  V30 1451 H 141.099 2.23346 5.01406 0
M  V30 1452 H 141.36 0.617158 4.37771 0
M  V30 1453 N 140.419 -1.14872 1.07899 0
M  V30 1454 C 141.696 -1.81928 0.71845 0
M  V30 1455 C 142.076 -1.95417 -0.798455 0
M  V30 1456 O 141.424 -1.50997 -1.715 0
M  V30 1457 C 141.634 -3.17937 1.43935 0
M  V30 1458 C 142.982 -3.93501 1.59506 0
M  V30 1459 O 144.006 -3.27509 1.40058 0
M  V30 1460 O 142.865 -5.1183 1.91551 0
M  V30 1461 H 139.959 -0.78628 0.256305 0
M  V30 1462 H 142.505 -1.21934 1.18026 0
M  V30 1463 H 141.277 -3.0325 2.47295 0
M  V30 1464 H 140.9 -3.85619 0.968687 0
M  V30 1465 N 141.898 -0.863906 -1.31812 0
M  V30 1466 C 143.175 -0.39275 -1.91616 0
M  V30 1467 C 143.555 1.12461 -1.7865 0
M  V30 1468 O 142.903 1.95045 -1.19037 0
M  V30 1469 C 143.113 -0.867385 -3.38049 0
M  V30 1470 C 144.461 -0.889966 -4.15168 0
M  V30 1471 O 145.485 -0.812635 -3.46806 0
M  V30 1472 O 144.344 -1.00079 -5.37258 0
M  V30 1473 H 141.438 -0.116358 -0.818773 0
M  V30 1474 H 143.984 -0.951418 -1.40521 0
M  V30 1475 H 142.756 -1.91081 -3.41473 0
M  V30 1476 H 142.379 -0.286687 -3.96565 0
M  V30 1477 N 143.376 1.44774 -0.622745 0
M  V30 1478 C 144.625 2.01334 -0.121397 0
M  V30 1479 C 144.938 1.49505 1.26125 0
M  V30 1480 O 146.144 1.98139 1.85616 0
M  V30 1481 C 144.6 3.59516 -0.166298 0
M  V30 1482 C 144.208 4.20342 -1.54974 0
M  V30 1483 C 145.952 4.23582 0.279021 0
M  V30 1484 C 143.859 5.70721 -1.55021 0
M  V30 1485 H 142.789 0.752851 -0.0416172 0
M  V30 1486 H 145.44 1.66083 -0.780309 0
M  V30 1487 H 143.822 3.92027 0.559557 0
M  V30 1488 H 144.996 3.99381 -2.29851 0
M  V30 1489 H 143.311 3.68529 -1.93843 0
M  V30 1490 H 145.908 5.33868 0.298083 0
M  V30 1491 H 146.251 3.95327 1.30471 0
M  V30 1492 H 146.784 3.95843 -0.394063 0
M  V30 1493 H 143.523 6.03698 -2.55399 0
M  V30 1494 H 143.043 5.93829 -0.844245 0
M  V30 1495 H 144.722 6.34203 -1.28047 0
M  V30 1496 N 144.854 0.36279 1.53368 0
M  V30 1497 C 145.784 -0.476976 2.28576 0
M  V30 1498 C 146.765 -1.08631 1.30894 0
M  V30 1499 O 147.95 -1.10409 1.59761 0
M  V30 1500 C 145.08 -1.61828 3.07293 0
M  V30 1501 C 144.034 -1.13633 4.1264 0
M  V30 1502 C 143.36 -2.36766 4.79423 0
M  V30 1503 C 144.66 -0.223061 5.21823 0
M  V30 1504 H 146.354 0.150474 2.99022 0
M  V30 1505 H 143.9 0.0738103 1.43811 0
M  V30 1506 H 145.853 -2.21237 3.58653 0
M  V30 1507 H 144.577 -2.27292 2.34533 0
M  V30 1508 H 143.236 -0.564945 3.62221 0
M  V30 1509 H 142.884 -3.0068 4.03238 0
M  V30 1510 H 142.584 -2.05192 5.50609 0
M  V30 1511 H 144.108 -2.96865 5.33576 0
M  V30 1512 H 145.522 -0.724545 5.68703 0
M  V30 1513 H 143.919 0.001678 6.001 0
M  V30 1514 H 144.989 0.735553 4.79289 0
M  V30 1515 N 146.332 -1.57332 0.0918853 0
M  V30 1516 C 147.295 -2.12708 -0.85369 0
M  V30 1517 C 148.295 -1.05561 -1.213 0
M  V30 1518 O 149.485 -1.31461 -1.14296 0
M  V30 1519 C 146.617 -2.64503 -2.15061 0
M  V30 1520 H 147.81 -2.97573 -0.3729 0
M  V30 1521 H 145.363 -1.55509 -0.157072 0
M  V30 1522 H 146.098 -1.83149 -2.67632 0
M  V30 1523 H 145.883 -3.4284 -1.90272 0
M  V30 1524 H 147.373 -3.07351 -2.82711 0
M  V30 1525 N 147.81 0.181792 -1.56548 0
M  V30 1526 C 148.773 1.20894 -1.94724 0
M  V30 1527 C 149.773 1.37738 -0.829747 0
M  V30 1528 O 150.963 1.35323 -1.09697 0
M  V30 1529 C 148.095 2.57593 -2.23291 0
M  V30 1530 H 149.288 0.882275 -2.86629 0
M  V30 1531 H 146.841 0.423838 -1.50444 0
M  V30 1532 H 147.576 2.95291 -1.34067 0
M  V30 1533 H 147.361 2.46735 -3.04736 0
M  V30 1534 H 148.851 3.31637 -2.53785 0
M  V30 1535 N 149.288 1.51039 0.449983 0
M  V30 1536 C 150.534 1.63322 1.20223 0
M  V30 1537 C 150.867 0.34241 1.91158 0
M  V30 1538 O 150.142 -0.657344 1.83055 0
M  V30 1539 C 150.425 2.82801 2.22925 0
M  V30 1540 C 150.278 4.21823 1.56157 0
M  V30 1541 C 151.597 2.97807 3.24035 0
M  V30 1542 H 148.716 0.594407 0.435718 0
M  V30 1543 H 151.358 1.83489 0.493136 0
M  V30 1544 H 149.508 2.65738 2.834 0
M  V30 1545 H 151.18 4.50526 0.991162 0
M  V30 1546 H 149.423 4.25105 0.864172 0
M  V30 1547 H 150.094 5.01391 2.30891 0
M  V30 1548 H 152.57 3.13497 2.73603 0
M  V30 1549 H 151.446 3.82992 3.93202 0
M  V30 1550 H 151.707 2.09328 3.89402 0
M  V30 1551 N 150.766 -0.704594 1.40972 0
M  V30 1552 C 152.182 -1.01406 1.23244 0
M  V30 1553 C 152.382 -2.01169 0.115399 0
M  V30 1554 O 151.438 -2.47021 -0.523147 0
M  V30 1555 C 152.751 -1.54728 2.57836 0
M  V30 1556 C 154.299 -1.66658 2.64942 0
M  V30 1557 C 154.774 -2.23383 3.9983 0
M  V30 1558 N 156.265 -2.30756 4.01629 0
M  V30 1559 C 157 -2.75655 5.02794 0
M  V30 1560 N 156.496 -3.20225 6.14352 0
M  V30 1561 N 158.289 -2.75138 4.90159 0
M  V30 1562 H 150.44 -0.0435285 2.12355 0
M  V30 1563 H 152.703 -0.0818951 0.944456 0
M  V30 1564 H 152.409 -0.888832 3.40283 0
M  V30 1565 H 152.283 -2.53084 2.79693 0
M  V30 1566 H 154.67 -2.31617 1.8286 0
M  V30 1567 H 154.751 -0.668717 2.46904 0
M  V30 1568 H 154.395 -1.59043 4.82357 0
M  V30 1569 H 154.325 -3.23904 4.15203 0
M  V30 1570 H 156.816 -1.99291 3.21079 0
M  V30 1571 H 157.129 -3.53084 6.87424 0
M  V30 1572 H 155.474 -3.18156 6.17901 0
M  V30 1573 H 158.665 -2.39661 4.02095 0
M  V30 1574 H 158.838 -3.09812 5.6914 0
M  V30 1575 N 152.244 -1.26651 -0.937939 0
M  V30 1576 C 153.655 -1.1125 -1.49934 0
M  V30 1577 C 154.006 0.306077 -1.93798 0
M  V30 1578 O 153.131 1.19792 -1.80219 0
M  V30 1579 C 153.726 -2.01339 -2.72485 0
M  V30 1580 C 152.285 -1.90074 -3.24883 0
M  V30 1581 C 151.432 -1.94498 -1.97651 0
M  V30 1582 H 154.383 -1.39693 -0.753091 0
M  V30 1583 H 154.404 -1.56319 -3.46907 0
M  V30 1584 H 153.916 -3.04577 -2.40529 0
M  V30 1585 H 152.017 -0.897827 -3.61621 0
M  V30 1586 H 152.13 -2.75778 -3.9177 0
M  V30 1587 H 150.494 -1.38591 -2.13693 0
M  V30 1588 H 151.277 -2.99372 -1.68022 0
M  V30 1589 N 153.722 1.14298 -1.08507 0
M  V30 1590 C 154.95 1.89219 -0.836876 0
M  V30 1591 C 155.365 1.78638 0.611054 0
M  V30 1592 O 154.722 1.14643 1.41998 0
M  V30 1593 C 154.773 3.39158 -1.25116 0
M  V30 1594 O 154.494 3.49449 -2.64229 0
M  V30 1595 C 155.995 4.31073 -1.03398 0
M  V30 1596 H 153.215 0.599328 -0.301739 0
M  V30 1597 H 155.759 1.44746 -1.44461 0
M  V30 1598 H 153.914 3.81251 -0.687514 0
M  V30 1599 H 154.328 4.42589 -2.81452 0
M  V30 1600 H 155.802 5.34646 -1.37323 0
M  V30 1601 H 156.279 4.3919 0.0289259 0
M  V30 1602 H 156.885 3.94738 -1.58311 0
M  V30 1603 N 155.201 0.870884 1.31352 0
M  V30 1604 C 156.429 0.49677 2.00848 0
M  V30 1605 C 156.844 -0.910998 1.65367 0
M  V30 1606 O 156.201 -1.59696 0.883374 0
M  V30 1607 C 156.252 0.645308 3.55694 0
M  V30 1608 O 155.973 1.99764 3.89905 0
M  V30 1609 C 157.474 0.272326 4.42463 0
M  V30 1610 H 154.694 0.193462 0.642506 0
M  V30 1611 H 157.238 1.1723 1.67563 0
M  V30 1612 H 155.393 0.0173176 3.87396 0
M  V30 1613 H 155.807 2.00607 4.84621 0
M  V30 1614 H 157.281 0.427208 5.50344 0
M  V30 1615 H 157.758 -0.788587 4.32062 0
M  V30 1616 H 158.364 0.876054 4.1618 0
M  V30 1617 N 156.679 -1.44442 0.630414 0
M  V30 1618 C 158.095 -1.56832 0.295973 0
M  V30 1619 C 158.295 -1.61806 -1.20088 0
M  V30 1620 O 157.351 -1.5607 -1.9849 0
M  V30 1621 C 158.664 -2.84031 0.987264 0
M  V30 1622 C 160.212 -2.97742 0.96534 0
M  V30 1623 C 160.687 -4.27743 1.63708 0
M  V30 1624 N 162.178 -4.34555 1.60364 0
M  V30 1625 C 162.913 -5.33862 2.09234 0
M  V30 1626 N 162.409 -6.39578 2.66292 0
M  V30 1627 N 164.202 -5.25366 1.99867 0
M  V30 1628 H 156.353 -1.39457 1.60205 0
M  V30 1629 H 158.616 -0.668237 0.672431 0
M  V30 1630 H 158.322 -2.86338 2.04215 0
M  V30 1631 H 158.196 -3.73534 0.524588 0
M  V30 1632 H 160.583 -2.94989 -0.0810639 0
M  V30 1633 H 160.664 -2.09589 1.4665 0
M  V30 1634 H 160.308 -4.31255 2.68293 0
M  V30 1635 H 160.238 -5.14752 1.11076 0
M  V30 1636 H 162.729 -3.58772 1.18705 0
M  V30 1637 H 163.042 -7.11637 3.01317 0
M  V30 1638 H 161.387 -6.40265 2.70343 0
M  V30 1639 H 164.578 -4.41688 1.55013 0
M  V30 1640 H 164.751 -6.02606 2.38265 0
M  V30 1641 N 158.157 -0.370918 -1.53173 0
M  V30 1642 C 159.087 0.464847 -2.28826 0
M  V30 1643 C 160.068 1.07936 -1.31468 0
M  V30 1644 O 161.253 1.0956 -1.60344 0
M  V30 1645 C 158.383 1.60196 -3.08147 0
M  V30 1646 C 157.337 1.11443 -4.13237 0
M  V30 1647 C 156.663 2.3422 -4.80672 0
M  V30 1648 C 157.963 0.195384 -5.21934 0
M  V30 1649 H 159.657 -0.166329 -2.98938 0
M  V30 1650 H 157.203 -0.0814359 -1.4377 0
M  V30 1651 H 159.156 2.19332 -3.59822 0
M  V30 1652 H 157.88 2.26045 -2.35735 0
M  V30 1653 H 156.539 0.545727 -3.62515 0
M  V30 1654 H 156.187 2.98537 -4.04827 0
M  V30 1655 H 155.887 2.02269 -5.51689 0
M  V30 1656 H 157.411 2.94032 -5.35143 0
M  V30 1657 H 158.825 0.694375 -5.69079 0
M  V30 1658 H 157.222 -0.0335027 -6.00091 0
M  V30 1659 H 158.292 -0.760961 -4.78892 0
M  V30 1660 N 159.635 1.57281 -0.100228 0
M  V30 1661 C 160.881 1.94826 0.563101 0
M  V30 1662 C 161.214 0.982475 1.67514 0
M  V30 1663 O 160.489 0.0164069 1.94493 0
M  V30 1664 C 160.772 3.42453 1.11346 0
M  V30 1665 C 160.625 4.498 0.00612081 0
M  V30 1666 C 161.944 3.91506 2.01024 0
M  V30 1667 H 159.063 0.708428 0.203221 0
M  V30 1668 H 161.705 1.8922 -0.171979 0
M  V30 1669 H 159.855 3.47361 1.7399 0
M  V30 1670 H 161.527 4.57 -0.628357 0
M  V30 1671 H 159.77 4.28756 -0.659581 0
M  V30 1672 H 160.441 5.50306 0.432109 0
M  V30 1673 H 162.917 3.88784 1.48278 0
M  V30 1674 H 161.793 4.95358 2.36457 0
M  V30 1675 H 162.054 3.31099 2.92961 0
M  V30 1676 N 161.113 -0.173488 1.56642 0
M  V30 1677 C 162.341 -0.906095 1.86004 0
M  V30 1678 C 162.756 -1.75921 0.685355 0
M  V30 1679 O 162.113 -1.79198 -0.345578 0
M  V30 1680 C 162.164 -1.78462 3.14378 0
M  V30 1681 O 161.885 -0.965914 4.27319 0
M  V30 1682 C 163.386 -2.62707 3.57071 0
M  V30 1683 H 160.606 -0.263341 0.617165 0
M  V30 1684 H 163.15 -0.174236 2.03756 0
M  V30 1685 H 161.305 -2.46984 2.98459 0
M  V30 1686 H 161.719 -1.56655 5.00559 0
M  V30 1687 H 163.193 -3.19969 4.49804 0
M  V30 1688 H 163.67 -3.37472 2.81086 0
M  V30 1689 H 164.276 -1.99521 3.75595 0
M  V30 1690 N 162.591 -1.51276 -0.441967 0
M  V30 1691 C 163.84 -1.6295 -1.18871 0
M  V30 1692 C 164.153 -0.349312 -1.92456 0
M  V30 1693 O 165.359 -0.345355 -2.69295 0
M  V30 1694 C 163.815 -2.87759 -2.16155 0
M  V30 1695 C 163.423 -4.22764 -1.48239 0
M  V30 1696 C 165.167 -3.08788 -2.91291 0
M  V30 1697 C 163.074 -5.38728 -2.4398 0
M  V30 1698 H 162.004 -0.606913 -0.447406 0
M  V30 1699 H 164.655 -1.77739 -0.456205 0
M  V30 1700 H 163.037 -2.66593 -2.92821 0
M  V30 1701 H 164.211 -4.54293 -0.771635 0
M  V30 1702 H 162.526 -4.07575 -0.852741 0
M  V30 1703 H 165.123 -3.92599 -3.63002 0
M  V30 1704 H 165.466 -2.21679 -3.5237 0
M  V30 1705 H 165.999 -3.30272 -2.21733 0
M  V30 1706 H 162.738 -6.28082 -1.87598 0
M  V30 1707 H 162.258 -5.1158 -3.13123 0
M  V30 1708 H 163.937 -5.70489 -3.05207 0
M  V30 1709 N 164.069 0.697108 -1.41344 0
M  V30 1710 C 165.002 1.82134 -1.37486 0
M  V30 1711 C 165.98 1.60784 -0.242351 0
M  V30 1712 O 167.164 1.83553 -0.429012 0
M  V30 1713 C 164.291 3.18788 -1.14421 0
M  V30 1714 C 163.337 3.58932 -2.3037 0
M  V30 1715 S 164.17 3.63916 -3.92843 0
M  V30 1716 C 165.326 5.03298 -3.72078 0
M  V30 1717 H 165.559 1.85129 -2.32625 0
M  V30 1718 H 163.092 0.865671 -1.2785 0
M  V30 1719 H 165.05 3.97677 -1.018 0
M  V30 1720 H 163.711 3.13404 -0.20905 0
M  V30 1721 H 162.904 4.58202 -2.09922 0
M  V30 1722 H 162.506 2.87347 -2.39391 0
M  V30 1723 H 164.798 5.90753 -3.31688 0
M  V30 1724 H 165.741 5.28788 -4.70945 0
M  V30 1725 H 166.149 4.74764 -3.05384 0
M  V30 1726 N 165.547 1.27147 0.931209 0
M  V30 1727 C 166.477 1.12081 2.04842 0
M  V30 1728 C 167.458 0.0232364 1.70084 0
M  V30 1729 O 168.643 0.197085 1.93197 0
M  V30 1730 C 165.773 0.76354 3.38803 0
M  V30 1731 C 164.727 1.81396 3.87659 0
M  V30 1732 C 164.053 1.31075 5.18385 0
M  V30 1733 C 165.353 3.21739 4.11438 0
M  V30 1734 H 167.047 2.05537 2.17703 0
M  V30 1735 H 164.593 0.989603 1.04608 0
M  V30 1736 H 166.546 0.644982 4.16435 0
M  V30 1737 H 165.27 -0.206727 3.25945 0
M  V30 1738 H 163.929 1.92136 3.12217 0
M  V30 1739 H 163.577 0.330037 5.01916 0
M  V30 1740 H 163.277 2.013 5.52044 0
M  V30 1741 H 164.801 1.20506 5.98591 0
M  V30 1742 H 166.215 3.14019 4.79651 0
M  V30 1743 H 164.612 3.89644 4.56397 0
M  V30 1744 H 165.682 3.67054 3.16859 0
M  V30 1745 N 167.025 -1.13721 1.09112 0
M  V30 1746 C 167.988 -2.17222 0.731241 0
M  V30 1747 C 168.988 -1.59035 -0.237566 0
M  V30 1748 O 170.178 -1.74192 -0.0161704 0
M  V30 1749 C 167.31 -3.40804 0.0808443 0
M  V30 1750 H 168.503 -2.50573 1.64783 0
M  V30 1751 H 166.056 -1.28493 0.889897 0
M  V30 1752 H 166.791 -3.1304 -0.847127 0
M  V30 1753 H 166.576 -3.84306 0.777896 0
M  V30 1754 H 168.066 -4.1731 -0.155657 0
M  V30 1755 N 168.503 -0.877838 -1.30888 0
M  V30 1756 C 169.451 -0.328662 -2.30266 0
M  V30 1757 C 170.445 0.560496 -1.59859 0
M  V30 1758 O 171.651 0.445722 -1.74394 0
M  V30 1759 H 168.026 -0.0876142 -0.746879 0
M  V30 1760 H 169.997 -1.18061 -2.74051 0
M  V30 1761 C 168.746 0.448071 -3.44801 0
M  V30 1762 H 168.069 -0.226859 -3.99156 0
M  V30 1763 H 169.509 0.797541 -4.16432 0
M  V30 1764 C 167.968 1.64239 -2.94155 0
M  V30 1765 O 168.498 2.74175 -2.93583 0
M  V30 1766 N 166.704 1.47716 -2.50256 0
M  V30 1767 H 166.251 0.582821 -2.5092 0
M  V30 1768 H 166.209 2.27765 -2.16727 0
M  V30 1769 N 169.982 1.44106 -0.638065 0
M  V30 1770 C 170.93 2.3248 0.0748149 0
M  V30 1771 C 171.924 1.47746 0.828702 0
M  V30 1772 O 173.13 1.64049 0.740816 0
M  V30 1773 H 169.505 0.750771 0.0429686 0
M  V30 1774 H 171.476 2.90348 -0.688504 0
M  V30 1775 C 170.225 3.31843 1.03805 0
M  V30 1776 H 169.548 3.97059 0.467375 0
M  V30 1777 H 170.988 3.96345 1.50622 0
M  V30 1778 C 169.447 2.61291 2.1267 0
M  V30 1779 O 169.977 2.41702 3.20847 0
M  V30 1780 N 168.183 2.20915 1.88798 0
M  V30 1781 H 167.73 2.37047 1.00829 0
M  V30 1782 H 167.688 1.74038 2.61836 0
M  V30 1783 N 171.46 0.379036 1.52974 0
M  V30 1784 C 172.37 -0.468639 2.29872 0
M  V30 1785 C 173.386 -1.08067 1.36373 0
M  V30 1786 O 174.562 -1.08871 1.69438 0
M  V30 1787 C 171.627 -1.58594 3.083 0
M  V30 1788 C 170.688 -1.00007 4.17489 0
M  V30 1789 C 169.921 -2.06413 4.92168 0
M  V30 1790 O 170.144 -3.27751 4.66835 0
M  V30 1791 O 169.078 -1.68717 5.7777 0
M  V30 1792 H 172.904 0.157508 3.03291 0
M  V30 1793 H 170.489 0.143035 1.48714 0
M  V30 1794 H 172.371 -2.23525 3.57232 0
M  V30 1795 H 171.046 -2.19724 2.37703 0
M  V30 1796 H 169.953 -0.314299 3.72777 0
M  V30 1797 H 171.286 -0.433135 4.90291 0
M  V30 1798 N 172.938 -1.57226 0.108567 0
M  V30 1799 C 174.166 -1.99179 -0.559954 0
M  V30 1800 C 174.581 -0.988022 -1.60884 0
M  V30 1801 O 173.938 0.0205512 -1.82488 0
M  V30 1802 C 173.989 -3.41159 -1.19552 0
M  V30 1803 O 173.71 -4.37694 -0.188577 0
M  V30 1804 C 175.211 -3.98188 -1.94837 0
M  V30 1805 H 172.431 -0.654228 -0.149088 0
M  V30 1806 H 174.975 -2.03598 0.19183 0
M  V30 1807 H 173.13 -3.37711 -1.89815 0
M  V30 1808 H 173.544 -5.20469 -0.649014 0
M  V30 1809 H 175.018 -4.99644 -2.34648 0
M  V30 1810 H 175.495 -3.3675 -2.81951 0
M  V30 1811 H 176.101 -4.0515 -1.2936 0
M  V30 1812 N 174.416 0.165178 -1.56732 0
M  V30 1813 C 175.664 0.879068 -1.8198 0
M  V30 1814 C 175.985 1.82514 -0.686561 0
M  V30 1815 O 175.255 1.93694 0.293146 0
M  V30 1816 H 173.835 0.327608 -0.671329 0
M  V30 1817 H 176.497 0.163526 -1.94213 0
M  V30 1818 H 175.593 1.45228 -2.76252 0
M  V30 1819 N 175.894 1.51508 0.433938 0
M  V30 1820 C 177.143 1.63578 1.18005 0
M  V30 1821 C 177.456 0.359514 1.92268 0
M  V30 1822 O 178.662 0.359632 2.69108 0
M  V30 1823 C 177.118 2.88901 2.14626 0
M  V30 1824 C 176.726 4.23544 1.45995 0
M  V30 1825 C 178.47 3.10328 2.89649 0
M  V30 1826 C 176.377 5.40014 2.4112 0
M  V30 1827 H 175.307 0.609277 0.444182 0
M  V30 1828 H 177.958 1.77978 0.446773 0
M  V30 1829 H 176.34 2.68142 2.91403 0
M  V30 1830 H 177.514 4.54696 0.747532 0
M  V30 1831 H 175.829 4.08021 0.831115 0
M  V30 1832 H 178.426 3.94518 3.60915 0
M  V30 1833 H 178.769 2.23544 3.51189 0
M  V30 1834 H 179.302 3.31443 2.19978 0
M  V30 1835 H 176.041 6.29068 1.84264 0
M  V30 1836 H 175.561 5.13233 3.10406 0
M  V30 1837 H 177.24 5.72099 3.02177 0
M  V30 1838 N 177.372 -0.689602 1.41712 0
M  V30 1839 C 178.618 -1.45181 1.41599 0
M  V30 1840 C 178.951 -1.94181 0.0270081 0
M  V30 1841 O 178.226 -1.6993 -0.946265 0
M  V30 1842 C 178.509 -2.65945 2.42787 0
M  V30 1843 C 178.362 -2.22672 3.90816 0
M  V30 1844 C 179.681 -3.68149 2.41151 0
M  V30 1845 H 176.8 -0.526576 0.515642 0
M  V30 1846 H 179.442 -0.784947 1.73028 0
M  V30 1847 H 177.592 -3.2284 2.16116 0
M  V30 1848 H 179.264 -1.71058 4.28412 0
M  V30 1849 H 177.507 -1.54394 4.05395 0
M  V30 1850 H 178.178 -3.0935 4.57172 0
M  V30 1851 H 180.654 -3.2094 2.64834 0
M  V30 1852 H 179.53 -4.50248 3.13955 0
M  V30 1853 H 179.791 -4.18259 1.43221 0
M  V30 1854 N 178.85 -1.27639 -0.924453 0
M  V30 1855 C 179.783 -1.04966 -2.02626 0
M  V30 1856 C 180.761 0.0309505 -1.62571 0
M  V30 1857 O 181.945 -0.114846 -1.8815 0
M  V30 1858 C 179.072 -0.59292 -3.3347 0
M  V30 1859 C 178.118 -1.66858 -3.92506 0
M  V30 1860 S 178.951 -3.2619 -4.24689 0
M  V30 1861 C 180.107 -2.82325 -5.58609 0
M  V30 1862 H 180.34 -1.98252 -2.21547 0
M  V30 1863 H 177.873 -1.11506 -1.06798 0
M  V30 1864 H 179.831 -0.336086 -4.09122 0
M  V30 1865 H 178.492 0.319939 -3.12466 0
M  V30 1866 H 177.685 -1.30038 -4.86935 0
M  V30 1867 H 177.287 -1.87766 -3.2345 0
M  V30 1868 H 179.579 -2.2783 -6.38044 0
M  V30 1869 H 180.522 -3.75511 -6.00331 0
M  V30 1870 H 180.93 -2.21367 -5.19285 0
M  V30 1871 N 180.328 1.1314 -1.09713 0
M  V30 1872 C 181.739 1.66029 -0.853885 0
M  V30 1873 C 182.09 1.86241 0.617142 0
M  V30 1874 O 181.215 1.5834 1.47503 0
M  V30 1875 C 181.81 3.01599 -1.5435 0
M  V30 1876 C 180.369 3.51467 -1.34714 0
M  V30 1877 C 179.516 2.26648 -1.59769 0
M  V30 1878 H 182.467 0.970226 -1.25588 0
M  V30 1879 H 182.488 3.67709 -0.978267 0
M  V30 1880 H 182 2.86856 -2.6141 0
M  V30 1881 H 180.101 3.71408 -0.297838 0
M  V30 1882 H 180.214 4.314 -2.08401 0
M  V30 1883 H 178.578 2.33385 -1.01998 0
M  V30 1884 H 179.361 2.14467 -2.68065 0
M  V30 1885 N 181.806 0.884767 1.30421 0
M  V30 1886 C 183.052 0.503851 1.96441 0
M  V30 1887 C 183.385 -0.944518 1.69684 0
M  V30 1888 O 182.66 -1.66737 1.00145 0
M  V30 1889 C 182.943 0.779085 3.51571 0
M  V30 1890 C 182.796 2.27807 3.87846 0
M  V30 1891 C 184.115 0.255452 4.39358 0
M  V30 1892 H 181.234 0.184533 0.713524 0
M  V30 1893 H 183.876 1.10872 1.54297 0
M  V30 1894 H 182.026 0.264274 3.876 0
M  V30 1895 H 183.698 2.86127 3.61841 0
M  V30 1896 H 181.941 2.74479 3.35922 0
M  V30 1897 H 182.612 2.42125 4.96064 0
M  V30 1898 H 185.088 0.696079 4.10236 0
M  V30 1899 H 183.964 0.477361 5.4682 0
M  V30 1900 H 184.225 -0.843293 4.33983 0
M  V30 1901 N 183.284 -1.43765 0.645699 0
M  V30 1902 C 184.695 -1.85193 0.236719 0
M  V30 1903 C 185.046 -1.54045 -1.21509 0
M  V30 1904 O 184.171 -0.985694 -1.92647 0
M  V30 1905 C 184.766 -3.36151 0.422845 0
M  V30 1906 C 183.325 -3.76338 0.0682492 0
M  V30 1907 C 182.472 -2.67538 0.729306 0
M  V30 1908 H 185.423 -1.34025 0.849883 0
M  V30 1909 H 185.444 -3.79032 -0.333904 0
M  V30 1910 H 184.956 -3.5879 1.47958 0
M  V30 1911 H 183.057 -3.59312 -0.986179 0
M  V30 1912 H 183.17 -4.76603 0.488469 0
M  V30 1913 H 181.534 -2.54176 0.163235 0
M  V30 1914 H 182.317 -2.93006 1.78892 0
M  V30 1915 N 184.763 -0.387143 -1.52771 0
M  V30 1916 C 185.673 0.456442 -2.30117 0
M  V30 1917 C 186.689 1.07342 -1.36944 0
M  V30 1918 O 187.865 1.07971 -1.70013 0
M  V30 1919 C 184.93 1.56957 -3.09136 0
M  V30 1920 C 183.991 0.977916 -4.18014 0
M  V30 1921 C 183.224 2.038 -4.93256 0
M  V30 1922 O 183.447 3.25271 -4.68567 0
M  V30 1923 O 182.381 1.6565 -5.78657 0
M  V30 1924 H 186.207 -0.17359 -3.03203 0
M  V30 1925 H 183.792 -0.150919 -1.48636 0
M  V30 1926 H 185.674 2.21628 -3.58412 0
M  V30 1927 H 184.349 2.18461 -2.38865 0
M  V30 1928 H 183.256 0.294525 -3.72939 0
M  V30 1929 H 184.589 0.407128 -4.90513 0
M  V30 1930 N 186.241 1.57166 -0.116904 0
M  V30 1931 C 187.49 1.94298 0.541407 0
M  V30 1932 C 187.803 1.00236 1.67964 0
M  V30 1933 O 189.009 1.26826 2.40057 0
M  V30 1934 C 187.465 3.45306 1.01449 0
M  V30 1935 C 187.073 4.47899 -0.0951738 0
M  V30 1936 C 188.817 3.91361 1.6443 0
M  V30 1937 C 186.724 5.90083 0.394491 0
M  V30 1938 H 185.654 0.725308 0.206019 0
M  V30 1939 H 188.305 1.82446 -0.196419 0
M  V30 1940 H 186.687 3.52385 1.80667 0
M  V30 1941 H 187.861 4.52486 -0.871374 0
M  V30 1942 H 186.176 4.11583 -0.631505 0
M  V30 1943 H 188.773 4.95004 2.02176 0
M  V30 1944 H 189.116 3.3122 2.52189 0
M  V30 1945 H 189.649 3.87073 0.917559 0
M  V30 1946 H 186.388 6.53974 -0.447004 0
M  V30 1947 H 185.908 5.88921 1.13722 0
M  V30 1948 H 187.587 6.41307 0.856399 0
M  V30 1949 N 187.719 -0.156864 1.56817 0
M  V30 1950 C 188.944 -0.890331 1.87318 0
M  V30 1951 C 189.369 -1.74394 0.704855 0
M  V30 1952 O 188.727 -1.77972 -0.345786 0
M  V30 1953 C 188.775 -1.73102 3.16336 0
M  V30 1954 O 187.879 -2.83422 2.99576 0
M  V30 1955 H 187.22 -0.24857 0.615718 0
M  V30 1956 H 189.75 -0.150649 2.04045 0
M  V30 1957 H 189.76 -2.12803 3.48107 0
M  V30 1958 H 188.435 -1.10412 4.00976 0
M  V30 1959 H 187.012 -2.47199 2.7919 0
M  V30 1960 N 189.197 -1.51736 -0.425897 0
M  V30 1961 C 190.129 -1.70083 -1.53638 0
M  V30 1962 C 191.142 -0.581349 -1.52066 0
M  V30 1963 O 192.331 -0.856017 -1.56635 0
M  V30 1964 C 189.431 -1.71078 -2.9255 0
M  V30 1965 C 188.604 -2.99795 -3.185 0
M  V30 1966 C 187.663 -2.92825 -4.37196 0
M  V30 1967 O 186.689 -3.66756 -4.35291 0
M  V30 1968 N 187.891 -2.0946 -5.41393 0
M  V30 1969 H 190.656 -2.65882 -1.383 0
M  V30 1970 H 188.217 -1.49765 -0.614988 0
M  V30 1971 H 190.209 -1.63969 -3.69995 0
M  V30 1972 H 188.779 -0.828242 -3.01428 0
M  V30 1973 H 187.999 -3.20684 -2.2925 0
M  V30 1974 H 189.287 -3.84977 -3.32671 0
M  V30 1975 H 188.685 -1.48792 -5.45781 0
M  V30 1976 H 187.242 -2.08221 -6.17647 0
M  V30 1977 N 190.675 0.682077 -1.42076 0
M  V30 1978 C 192.091 0.994324 -1.24841 0
M  V30 1979 C 192.291 2.0096 -0.147389 0
M  V30 1980 O 191.347 2.47822 0.483782 0
M  V30 1981 C 192.66 1.50607 -2.60265 0
M  V30 1982 C 194.208 1.62421 -2.6756 0
M  V30 1983 C 194.683 2.16994 -4.03333 0
M  V30 1984 N 196.174 2.24337 -4.0525 0
M  V30 1985 C 196.909 2.67621 -5.07116 0
M  V30 1986 N 196.405 3.1041 -6.19368 0
M  V30 1987 N 198.198 2.67305 -4.94474 0
M  V30 1988 H 190.349 0.00973908 -2.12398 0
M  V30 1989 H 192.612 0.0668593 -0.945639 0
M  V30 1990 H 192.318 0.834583 -3.41654 0
M  V30 1991 H 192.192 2.48602 -2.83684 0
M  V30 1992 H 194.579 2.28678 -1.86521 0
M  V30 1993 H 194.66 0.629352 -2.47937 0
M  V30 1994 H 194.304 1.51349 -4.84826 0
M  V30 1995 H 194.234 3.17258 -4.20304 0
M  V30 1996 H 196.725 1.94158 -3.24209 0
M  V30 1997 H 197.038 3.42103 -6.92954 0
M  V30 1998 H 195.383 3.08286 -6.22884 0
M  V30 1999 H 198.574 2.33233 -4.05857 0
M  V30 2000 H 198.747 3.00718 -5.73997 0
M  V30 2001 N 192.153 1.28127 0.917671 0
M  V30 2002 C 193.402 1.14432 1.66097 0
M  V30 2003 C 193.715 -0.307247 1.93172 0
M  V30 2004 O 194.921 -0.565259 2.65551 0
M  V30 2005 C 193.377 2.00015 2.99202 0
M  V30 2006 C 192.985 3.49889 2.79789 0
M  V30 2007 C 194.729 1.94996 3.77064 0
M  V30 2008 C 192.636 4.27636 4.08511 0
M  V30 2009 H 191.566 0.424662 0.62304 0
M  V30 2010 H 194.217 1.52628 1.01868 0
M  V30 2011 H 192.599 1.54672 3.64544 0
M  V30 2012 H 193.773 4.03162 2.23152 0
M  V30 2013 H 192.088 3.56392 2.15345 0
M  V30 2014 H 194.685 2.50354 4.72469 0
M  V30 2015 H 195.028 0.925819 4.05875 0
M  V30 2016 H 195.561 2.38287 3.18534 0
M  V30 2017 H 192.3 5.30615 3.84874 0
M  V30 2018 H 191.82 3.79137 4.64774 0
M  V30 2019 H 193.499 4.37346 4.76799 0
M  V30 2020 N 193.631 -1.12557 1.10312 0
M  V30 2021 C 194.578 -2.18247 0.750781 0
M  V30 2022 C 195.548 -1.63853 -0.272293 0
M  V30 2023 O 196.733 -1.90195 -0.151862 0
M  V30 2024 C 193.873 -3.44591 0.187379 0
M  V30 2025 C 192.986 -4.13046 1.2656 0
M  V30 2026 C 192.121 -5.27034 0.663978 0
M  V30 2027 C 191.16 -5.87353 1.72287 0
M  V30 2028 N 190.297 -6.92757 1.1416 0
M  V30 2029 H 195.137 -2.47732 1.65628 0
M  V30 2030 H 192.674 -1.21629 0.827337 0
M  V30 2031 H 194.632 -4.16904 -0.157148 0
M  V30 2032 H 193.262 -3.15527 -0.681355 0
M  V30 2033 H 192.314 -3.38924 1.72727 0
M  V30 2034 H 193.626 -4.53947 2.06721 0
M  V30 2035 H 192.78 -6.06104 0.268824 0
M  V30 2036 H 191.519 -4.87407 -0.169082 0
M  V30 2037 H 190.524 -5.06971 2.12746 0
M  V30 2038 H 191.749 -6.29051 2.55875 0
M  V30 2039 H 189.695 -6.5517 0.329984 0
M  V30 2040 H 189.612 -7.3225 1.88007 0
M  V30 2041 H 190.88 -7.75658 0.772956 0
M  V30 2042 N 195.109 -0.891671 -1.2995 0
M  V30 2043 C 196.072 -0.36828 -2.26222 0
M  V30 2044 C 197.072 0.493014 -1.53056 0
M  V30 2045 O 198.262 0.299213 -1.71611 0
M  V30 2046 C 195.394 0.47442 -3.37583 0
M  V30 2047 H 196.587 -1.21844 -2.74033 0
M  V30 2048 H 194.14 -0.669107 -1.41254 0
M  V30 2049 H 194.875 1.34489 -2.95099 0
M  V30 2050 H 194.66 -0.142615 -3.91841 0
M  V30 2051 H 196.15 0.83218 -4.09224 0
M  V30 2052 N 196.587 1.43421 -0.653314 0
M  V30 2053 C 197.517 2.33487 0.0246656 0
M  V30 2054 C 198.498 1.49475 0.811863 0
M  V30 2055 O 199.683 1.78139 0.773322 0
M  V30 2056 C 196.813 3.32841 0.99166 0
M  V30 2057 C 195.767 4.26842 0.314568 0
M  V30 2058 C 195.093 5.16236 1.39302 0
M  V30 2059 C 196.393 5.16243 -0.793095 0
M  V30 2060 H 198.087 2.90427 -0.727481 0
M  V30 2061 H 195.633 1.39649 -0.351287 0
M  V30 2062 H 197.586 3.94747 1.47487 0
M  V30 2063 H 196.31 2.74158 1.77497 0
M  V30 2064 H 194.969 3.663 -0.148199 0
M  V30 2065 H 194.617 4.53891 2.16776 0
M  V30 2066 H 194.317 5.79948 0.945223 0
M  V30 2067 H 195.841 5.81015 1.87759 0
M  V30 2068 H 197.255 5.71958 -0.392039 0
M  V30 2069 H 195.652 5.88676 -1.16536 0
M  V30 2070 H 196.722 4.55927 -1.65103 0
M  V30 2071 N 198.065 0.39524 1.52563 0
M  V30 2072 C 199.013 -0.451859 2.28169 0
M  V30 2073 C 200.007 -1.05792 1.32304 0
M  V30 2074 O 201.213 -0.997718 1.49818 0
M  V30 2075 H 197.588 -0.164481 0.733792 0
M  V30 2076 H 199.559 0.207199 2.9768 0
M  V30 2077 C 198.308 -1.56385 3.10546 0
M  V30 2078 H 197.631 -1.10682 3.84174 0
M  V30 2079 H 199.071 -2.13067 3.66577 0
M  V30 2080 C 197.53 -2.52328 2.23231 0
M  V30 2081 O 198.06 -3.5588 1.86312 0
M  V30 2082 N 196.266 -2.22209 1.87274 0
M  V30 2083 H 195.813 -1.38033 2.17496 0
M  V30 2084 H 195.771 -2.86652 1.29143 0
M  V30 2085 N 199.544 -1.57102 0.125237 0
M  V30 2086 C 200.476 -2.12726 -0.853237 0
M  V30 2087 C 201.489 -1.07145 -1.22571 0
M  V30 2088 O 202.678 -1.34497 -1.17358 0
M  V30 2089 C 199.778 -2.61709 -2.15317 0
M  V30 2090 C 198.951 -3.91456 -1.95143 0
M  V30 2091 C 198.01 -4.25973 -3.08923 0
M  V30 2092 O 197.036 -4.94682 -2.81564 0
M  V30 2093 N 198.238 -3.83795 -4.35524 0
M  V30 2094 H 201.003 -2.97307 -0.377964 0
M  V30 2095 H 198.564 -1.61792 -0.0590011 0
M  V30 2096 H 200.556 -2.81826 -2.90441 0
M  V30 2097 H 199.126 -1.81974 -2.54174 0
M  V30 2098 H 198.346 -3.80185 -1.04177 0
M  V30 2099 H 199.634 -4.76283 -1.78976 0
M  V30 2100 H 199.032 -3.2839 -4.60626 0
M  V30 2101 H 197.589 -4.09008 -5.07499 0
M  V30 2102 N 201.022 0.148545 -1.56898 0
M  V30 2103 C 201.932 1.20293 -2.01412 0
M  V30 2104 C 202.948 1.47107 -0.929273 0
M  V30 2105 O 204.124 1.58807 -1.23863 0
M  V30 2106 C 201.189 2.51682 -2.38447 0
M  V30 2107 C 200.25 2.32529 -3.60872 0
M  V30 2108 C 199.483 3.57653 -3.96132 0
M  V30 2109 O 199.706 4.63771 -3.32073 0
M  V30 2110 O 198.64 3.50408 -4.89385 0
M  V30 2111 H 202.466 0.855025 -2.91416 0
M  V30 2112 H 200.051 0.357151 -1.45068 0
M  V30 2113 H 201.933 3.29147 -2.63135 0
M  V30 2114 H 200.608 2.86006 -1.51599 0
M  V30 2115 H 199.515 1.53019 -3.41373 0
M  V30 2116 H 200.848 2.03121 -4.48333 0
M  V30 2117 N 202.5 1.5196 0.417844 0
M  V30 2118 C 203.916 1.40569 0.755816 0
M  V30 2119 C 204.116 0.503316 1.95113 0
M  V30 2120 O 203.172 -0.0341925 2.52477 0
M  V30 2121 C 204.485 2.82947 1.01791 0
M  V30 2122 C 206.033 2.92231 1.12116 0
M  V30 2123 C 206.508 4.35559 1.41608 0
M  V30 2124 N 207.999 4.38753 1.48491 0
M  V30 2125 C 208.734 5.46705 1.7292 0
M  V30 2126 N 208.23 6.64788 1.95011 0
M  V30 2127 N 210.023 5.34209 1.74863 0
M  V30 2128 H 202.174 2.09168 -0.369098 0
M  V30 2129 H 204.437 0.942409 -0.102809 0
M  V30 2130 H 204.143 3.5106 0.212081 0
M  V30 2131 H 204.017 3.23462 1.94042 0
M  V30 2132 H 206.404 2.24304 1.9176 0
M  V30 2133 H 206.485 2.55185 0.177225 0
M  V30 2134 H 206.129 5.04042 0.624848 0
M  V30 2135 H 206.059 4.70133 2.37239 0
M  V30 2136 H 208.55 3.5363 1.33244 0
M  V30 2137 H 208.863 7.42845 2.13076 0
M  V30 2138 H 207.208 6.67869 1.92293 0
M  V30 2139 H 210.399 4.40937 1.57137 0
M  V30 2140 H 210.572 6.18415 1.93563 0
M  V30 2141 N 203.978 -0.674533 1.42435 0
M  V30 2142 C 205.224 -1.43671 1.43131 0
M  V30 2143 C 205.557 -1.94142 0.0476021 0
M  V30 2144 O 204.832 -1.70924 -0.928188 0
M  V30 2145 C 205.115 -2.63355 2.45594 0
M  V30 2146 C 204.968 -2.18514 3.93156 0
M  V30 2147 C 206.287 -3.65571 2.45043 0
M  V30 2148 H 203.406 -0.521077 0.521198 0
M  V30 2149 H 206.048 -0.766551 1.7385 0
M  V30 2150 H 204.198 -3.2053 2.19528 0
M  V30 2151 H 205.87 -1.66504 4.30202 0
M  V30 2152 H 204.113 -1.50086 4.07009 0
M  V30 2153 H 204.784 -3.04484 4.60428 0
M  V30 2154 H 207.26 -3.18113 2.68223 0
M  V30 2155 H 206.136 -4.46893 3.18713 0
M  V30 2156 H 206.397 -4.16716 1.47649 0
M  V30 2157 N 205.456 -1.28612 -0.910864 0
M  V30 2158 C 206.419 -1.12803 -1.9952 0
M  V30 2159 C 207.419 -0.0668264 -1.60661 0
M  V30 2160 O 208.609 -0.312847 -1.71368 0
M  V30 2161 C 205.741 -0.72254 -3.33155 0
M  V30 2162 H 206.934 -2.09109 -2.14973 0
M  V30 2163 H 204.487 -1.11639 -1.09391 0
M  V30 2164 H 205.222 0.241152 -3.23402 0
M  V30 2165 H 205.007 -1.48916 -3.62721 0
M  V30 2166 H 206.497 -0.634666 -4.12749 0
M  V30 2167 N 206.934 1.1197 -1.10907 0
M  V30 2168 C 207.897 2.16031 -0.765707 0
M  V30 2169 C 208.897 1.59393 0.212235 0
M  V30 2170 O 210.087 1.74196 -0.0115441 0
M  V30 2171 C 207.219 3.40632 -0.135053 0
M  V30 2172 H 208.412 2.47919 -1.68748 0
M  V30 2173 H 205.965 1.27061 -0.910226 0
M  V30 2174 H 206.7 3.14348 0.797218 0
M  V30 2175 H 206.485 3.8302 -0.838937 0
M  V30 2176 H 207.975 4.17505 0.0892469 0
M  V30 2177 N 208.412 0.89855 1.29475 0
M  V30 2178 C 209.66 0.522847 1.9522 0
M  V30 2179 C 209.981 -0.93371 1.71192 0
M  V30 2180 O 209.251 -1.65823 1.04305 0
M  V30 2181 H 207.831 0.190366 0.722336 0
M  V30 2182 H 210.493 1.14459 1.5775 0
M  V30 2183 H 209.589 0.704476 3.04045 0
M  V30 2184 N 209.89 -1.43072 0.660911 0
M  V30 2185 C 210.82 -2.33497 -0.0122829 0
M  V30 2186 C 211.801 -1.49903 -0.803925 0
M  V30 2187 O 212.986 -1.78546 -0.763864 0
M  V30 2188 C 210.116 -3.33363 -0.973994 0
M  V30 2189 C 209.07 -4.27003 -0.291928 0
M  V30 2190 C 208.396 -5.16967 -1.36562 0
M  V30 2191 C 209.696 -5.15816 0.820462 0
M  V30 2192 H 211.39 -2.90038 0.742873 0
M  V30 2193 H 208.936 -1.39461 0.358688 0
M  V30 2194 H 210.889 -3.95524 -1.45392 0
M  V30 2195 H 209.613 -2.75095 -1.7604 0
M  V30 2196 H 208.272 -3.66217 0.167623 0
M  V30 2197 H 207.92 -4.55034 -2.14366 0
M  V30 2198 H 207.62 -5.80441 -0.914454 0
M  V30 2199 H 209.144 -5.82003 -1.84675 0
M  V30 2200 H 210.558 -5.71742 0.422366 0
M  V30 2201 H 208.955 -5.8805 1.19656 0
M  V30 2202 H 210.025 -4.55045 1.67518 0
M  V30 2203 N 211.368 -0.403325 -1.52352 0
M  V30 2204 C 212.779 0.0675782 -1.86578 0
M  V30 2205 C 213.13 1.44941 -1.32236 0
M  V30 2206 O 212.255 2.06112 -0.659307 0
M  V30 2207 C 212.85 0.129404 -3.38553 0
M  V30 2208 C 211.409 0.544629 -3.72439 0
M  V30 2209 C 210.556 -0.284551 -2.75836 0
M  V30 2210 H 213.507 -0.620631 -1.46061 0
M  V30 2211 H 213.528 0.94581 -3.68558 0
M  V30 2212 H 213.04 -0.87645 -3.78074 0
M  V30 2213 H 211.141 1.55734 -3.38493 0
M  V30 2214 H 211.254 0.293046 -4.78203 0
M  V30 2215 H 209.618 0.252258 -2.53448 0
M  V30 2216 H 210.401 -1.28865 -3.18196 0
M  V30 2217 N 212.846 1.57033 -0.133567 0
M  V30 2218 C 214.257 1.82593 0.389464 0
M  V30 2219 C 214.608 1.05156 1.6564 0
M  V30 2220 O 213.733 0.292644 2.14412 0
M  V30 2221 C 214.328 3.31204 0.713377 0
M  V30 2222 C 212.887 3.57393 1.18098 0
M  V30 2223 C 212.034 2.76598 0.197126 0
M  V30 2224 H 214.985 1.54598 -0.358481 0
M  V30 2225 H 215.006 3.46627 1.56939 0
M  V30 2226 H 214.518 3.87537 -0.2089 0
M  V30 2227 H 212.619 3.06433 2.11966 0
M  V30 2228 H 212.732 4.65915 1.11624 0
M  V30 2229 H 211.096 2.45257 0.687088 0
M  V30 2230 H 211.879 3.35697 -0.718504 0
M  V30 2231 N 214.325 -0.140222 1.56975 0
M  V30 2232 C 215.574 -0.850152 1.82908 0
M  V30 2233 C 215.887 -1.82028 0.715892 0
M  V30 2234 O 217.093 -2.57485 0.861016 0
M  V30 2235 C 215.549 -1.5625 3.24213 0
M  V30 2236 C 215.157 -0.63443 4.43485 0
M  V30 2237 C 216.901 -2.25881 3.59413 0
M  V30 2238 C 214.808 -1.34879 5.75814 0
M  V30 2239 H 213.738 -0.321221 0.682153 0
M  V30 2240 H 216.389 -0.102874 1.83211 0
M  V30 2241 H 214.771 -2.35565 3.18316 0
M  V30 2242 H 215.945 0.12398 4.60633 0
M  V30 2243 H 214.26 -0.0461836 4.16374 0
M  V30 2244 H 216.857 -2.79978 4.5554 0
M  V30 2245 H 217.2 -3.02693 2.85802 0
M  V30 2246 H 217.733 -1.53477 3.67001 0
M  V30 2247 H 214.472 -0.622385 6.52539 0
M  V30 2248 H 213.992 -2.07974 5.6259 0
M  V30 2249 H 215.671 -1.88784 6.18845 0
M  V30 2250 N 215.803 -1.52179 -0.40978 0
M  V30 2251 C 216.733 -1.78435 -1.5061 0
M  V30 2252 C 217.714 -0.635295 -1.57791 0
M  V30 2253 O 218.899 -0.880823 -1.73076 0
M  V30 2254 C 216.029 -1.93444 -2.88439 0
M  V30 2255 C 214.983 -3.09038 -2.96108 0
M  V30 2256 C 214.309 -3.09268 -4.36185 0
M  V30 2257 C 215.609 -4.48508 -2.67652 0
M  V30 2258 H 217.303 -2.70237 -1.28889 0
M  V30 2259 H 214.849 -1.30036 -0.618605 0
M  V30 2260 H 216.802 -2.10394 -3.65119 0
M  V30 2261 H 215.526 -0.983129 -3.11452 0
M  V30 2262 H 214.185 -2.91837 -2.21872 0
M  V30 2263 H 213.833 -2.11861 -4.56206 0
M  V30 2264 H 213.533 -3.86907 -4.42241 0
M  V30 2265 H 215.057 -3.28348 -5.14801 0
M  V30 2266 H 216.471 -4.65918 -3.34056 0
M  V30 2267 H 214.868 -5.28059 -2.85085 0
M  V30 2268 H 215.938 -4.56649 -1.63095 0
M  V30 2269 N 217.281 0.66697 -1.42791 0
M  V30 2270 C 218.527 1.4291 -1.43891 0
M  V30 2271 C 218.86 1.94114 -0.0578972 0
M  V30 2272 O 218.135 1.71414 0.91911 0
M  V30 2273 C 218.418 2.62049 -2.46987 0
M  V30 2274 C 218.271 2.16426 -3.94309 0
M  V30 2275 C 219.59 3.64266 -2.46978 0
M  V30 2276 H 216.709 0.518306 -0.523954 0
M  V30 2277 H 219.351 0.757321 -1.74255 0
M  V30 2278 H 217.501 3.19361 -2.21225 0
M  V30 2279 H 219.173 1.64221 -4.31079 0
M  V30 2280 H 217.416 1.47925 -4.078 0
M  V30 2281 H 218.087 3.02038 -4.62036 0
M  V30 2282 H 220.563 3.16686 -2.69906 0
M  V30 2283 H 219.439 4.45196 -3.21079 0
M  V30 2284 H 219.7 4.15927 -1.49857 0
M  V30 2285 N 218.759 1.29093 0.90403 0
M  V30 2286 C 219.709 1.10482 1.99443 0
M  V30 2287 C 220.693 0.0255401 1.6088 0
M  V30 2288 O 221.885 0.24677 1.75271 0
M  V30 2289 C 219.014 0.778882 3.34348 0
M  V30 2290 C 218.1 1.89749 3.79284 0
M  V30 2291 N 218.491 3.14045 3.96497 0
M  V30 2292 C 216.789 1.78955 4.08523 0
M  V30 2293 C 217.49 3.86996 4.34292 0
M  V30 2294 N 216.466 3.14909 4.43095 0
M  V30 2295 H 220.268 2.04778 2.10815 0
M  V30 2296 H 217.782 1.20155 1.09255 0
M  V30 2297 H 219.779 0.62661 4.12164 0
M  V30 2298 H 218.439 -0.156205 3.24324 0
M  V30 2299 H 219.45 3.49548 3.82148 0
M  V30 2300 H 216.127 0.926886 4.07081 0
M  V30 2301 H 217.517 4.93941 4.55491 0
M  V30 2302 N 220.237 -1.11381 1.11499 0
M  V30 2303 C 221.465 -1.86934 0.88675 0
M  V30 2304 C 221.88 -1.80195 -0.563476 0
M  V30 2305 O 221.237 -1.18367 -1.38908 0
M  V30 2306 C 221.288 -3.35722 1.34064 0
M  V30 2307 O 221.009 -3.4232 2.73401 0
M  V30 2308 C 222.51 -4.2818 1.14791 0
M  V30 2309 H 219.73 -0.591117 0.317523 0
M  V30 2310 H 222.274 -1.40865 1.48248 0
M  V30 2311 H 220.429 -3.79294 0.788355 0
M  V30 2312 H 220.843 -4.34971 2.93087 0
M  V30 2313 H 222.317 -5.30817 1.5145 0
M  V30 2314 H 222.794 -4.39113 0.0875279 0
M  V30 2315 H 223.4 -3.90402 1.68721 0
M  V30 2316 N 221.715 -0.905404 -1.28997 0
M  V30 2317 C 222.992 -0.453513 -1.9027 0
M  V30 2318 C 223.372 1.06721 -1.82137 0
M  V30 2319 O 222.72 1.91159 -1.25182 0
M  V30 2320 C 222.93 -0.974494 -3.35119 0
M  V30 2321 C 224.278 -1.0216 -4.12127 0
M  V30 2322 O 225.302 -0.922557 -3.44046 0
M  V30 2323 O 224.161 -1.17121 -5.33802 0
M  V30 2324 H 221.255 -0.142347 -0.814657 0
M  V30 2325 H 223.801 -0.995642 -1.37423 0
M  V30 2326 H 222.573 -2.01848 -3.35221 0
M  V30 2327 H 222.196 -0.412706 -3.95452 0
M  V30 2328 N 223.193 1.4272 -0.668489 0
M  V30 2329 C 224.156 2.292 0.00448567 0
M  V30 2330 C 225.156 1.43001 0.735339 0
M  V30 2331 O 226.346 1.64461 0.57429 0
M  V30 2332 C 223.478 3.25375 1.01705 0
M  V30 2333 H 224.671 2.90199 -0.756608 0
M  V30 2334 H 222.224 1.50254 -0.430506 0
M  V30 2335 H 222.959 2.69301 1.80686 0
M  V30 2336 H 222.744 3.88944 0.496463 0
M  V30 2337 H 224.234 3.90245 1.48655 0
M  V30 2338 N 224.671 0.411399 1.52136 0
M  V30 2339 C 225.634 -0.401089 2.25663 0
M  V30 2340 C 226.634 -0.971732 1.28117 0
M  V30 2341 O 227.824 -0.850254 1.52041 0
M  V30 2342 C 224.956 -1.56483 3.02863 0
M  V30 2343 H 226.149 0.24295 2.98914 0
M  V30 2344 H 223.702 0.163968 1.55438 0
M  V30 2345 H 224.437 -2.24567 2.33967 0
M  V30 2346 H 224.222 -1.16211 3.74483 0
M  V30 2347 H 225.712 -2.13951 3.58629 0
M  V30 2348 N 226.149 -1.5696 0.141893 0
M  V30 2349 C 227.081 -2.13619 -0.830627 0
M  V30 2350 C 228.094 -1.08439 -1.21428 0
M  V30 2351 O 229.283 -1.35734 -1.15925 0
M  V30 2352 C 226.383 -2.63978 -2.12529 0
M  V30 2353 C 225.556 -3.93504 -1.9098 0
M  V30 2354 C 224.615 -4.29225 -3.04388 0
M  V30 2355 O 223.641 -4.97641 -2.76302 0
M  V30 2356 N 224.843 -3.88393 -4.31429 0
M  V30 2357 H 227.608 -2.97691 -0.34641 0
M  V30 2358 H 225.169 -1.61846 -0.0418375 0
M  V30 2359 H 227.161 -2.84891 -2.87436 0
M  V30 2360 H 225.731 -1.84659 -2.52229 0
M  V30 2361 H 224.951 -3.81269 -1.00139 0
M  V30 2362 H 226.239 -4.78154 -1.73914 0
M  V30 2363 H 225.637 -3.33257 -4.57117 0
M  V30 2364 H 224.194 -4.14368 -5.03133 0
M  V30 2365 N 227.627 0.131896 -1.57047 0
M  V30 2366 C 228.59 1.14638 -1.98471 0
M  V30 2367 C 229.59 1.35029 -0.873148 0
M  V30 2368 O 230.78 1.31764 -1.13946 0
M  V30 2369 C 227.912 2.50358 -2.31373 0
M  V30 2370 H 229.105 0.79064 -2.8929 0
M  V30 2371 H 226.658 0.375761 -1.51716 0
M  V30 2372 H 227.393 2.90876 -1.43393 0
M  V30 2373 H 227.178 2.36915 -3.12432 0
M  V30 2374 H 228.668 3.23395 -2.64207 0
M  V30 2375 N 229.106 1.52395 0.401703 0
M  V30 2376 C 230.036 1.79231 1.49661 0
M  V30 2377 C 231.017 0.643654 1.57452 0
M  V30 2378 O 232.202 0.889989 1.72606 0
M  V30 2379 C 229.332 1.94971 2.87409 0
M  V30 2380 C 228.286 3.10604 2.94465 0
M  V30 2381 C 227.612 3.11577 4.34538 0
M  V30 2382 C 228.912 4.49921 2.6527 0
M  V30 2383 H 230.606 2.70917 1.27454 0
M  V30 2384 H 228.152 1.30362 0.6117 0
M  V30 2385 H 230.105 2.12328 3.63999 0
M  V30 2386 H 228.829 0.999632 3.10926 0
M  V30 2387 H 227.488 2.93009 2.20321 0
M  V30 2388 H 227.136 2.14277 4.55076 0
M  V30 2389 H 226.836 3.89247 4.40183 0
M  V30 2390 H 228.36 3.31073 5.13053 0
M  V30 2391 H 229.774 4.67683 3.31581 0
M  V30 2392 H 228.171 5.29564 2.82281 0
M  V30 2393 H 229.241 4.57507 1.60671 0
M  V30 2394 N 230.584 -0.659388 1.43143 0
M  V30 2395 C 231.832 -1.41654 1.44147 0
M  V30 2396 C 232.153 -1.94893 0.0645739 0
M  V30 2397 O 231.423 -1.74044 -0.899198 0
M  V30 2398 H 230.003 -0.525708 0.530697 0
M  V30 2399 H 232.665 -0.778097 1.78694 0
M  V30 2400 H 231.761 -2.26195 2.1504 0
M  V30 2401 N 232.062 -1.29571 -0.897171 0
M  V30 2402 C 233.009 -1.14916 -2.00158 0
M  V30 2403 C 233.979 -0.0418149 -1.66047 0
M  V30 2404 O 235.164 -0.209793 -1.89643 0
M  V30 2405 C 232.304 -0.834307 -3.34863 0
M  V30 2406 C 231.417 -2.02234 -3.8174 0
M  V30 2407 C 230.552 -1.64664 -5.05034 0
M  V30 2408 C 229.591 -2.80033 -5.44286 0
M  V30 2409 N 228.728 -2.42843 -6.58765 0
M  V30 2410 H 233.568 -2.09403 -2.12025 0
M  V30 2411 H 231.105 -1.042 -1.0383 0
M  V30 2412 H 233.063 -0.632436 -4.12379 0
M  V30 2413 H 231.693 0.0736656 -3.22716 0
M  V30 2414 H 230.745 -2.33583 -3.00238 0
M  V30 2415 H 232.057 -2.88673 -4.06779 0
M  V30 2416 H 231.211 -1.4078 -5.9014 0
M  V30 2417 H 229.95 -0.753766 -4.8184 0
M  V30 2418 H 228.955 -3.04596 -4.57713 0
M  V30 2419 H 230.18 -3.69989 -5.6946 0
M  V30 2420 H 228.126 -1.56046 -6.3717 0
M  V30 2421 H 228.043 -3.22815 -6.83613 0
M  V30 2422 H 229.311 -2.22285 -7.47134 0
M  V30 2423 N 233.54 1.10788 -1.12088 0
M  V30 2424 C 234.472 2.16816 -0.743213 0
M  V30 2425 C 235.485 1.6119 0.228412 0
M  V30 2426 O 236.674 1.78497 0.0102931 0
M  V30 2427 C 233.774 3.38809 -0.0787313 0
M  V30 2428 C 232.947 4.23885 -1.0789 0
M  V30 2429 C 232.006 5.24334 -0.442713 0
M  V30 2430 O 231.032 5.58497 -1.09864 0
M  V30 2431 N 232.234 5.75079 0.791457 0
M  V30 2432 H 234.999 2.49825 -1.65552 0
M  V30 2433 H 232.56 1.26373 -1.012 0
M  V30 2434 H 234.552 4.03107 0.358766 0
M  V30 2435 H 233.122 3.03805 0.736275 0
M  V30 2436 H 232.342 3.55939 -1.69414 0
M  V30 2437 H 233.63 4.77562 -1.75533 0
M  V30 2438 H 233.028 5.49517 1.3434 0
M  V30 2439 H 231.585 6.4118 1.17183 0
M  V30 2440 N 235.018 0.912232 1.28515 0
M  V30 2441 C 236.434 0.610159 1.47476 0
M  V30 2442 C 236.634 -0.844955 1.82928 0
M  V30 2443 O 235.69 -1.62416 1.93332 0
M  V30 2444 C 237.003 1.54675 2.57868 0
M  V30 2445 C 238.551 1.55331 2.71738 0
M  V30 2446 C 239.026 2.47649 3.85272 0
M  V30 2447 N 240.517 2.45767 3.92623 0
M  V30 2448 C 241.252 3.13896 4.79851 0
M  V30 2449 N 240.748 3.9135 5.71679 0
M  V30 2450 N 242.541 3.02991 4.73448 0
M  V30 2451 H 234.692 1.85318 1.03783 0
M  V30 2452 H 236.955 0.794777 0.516753 0
M  V30 2453 H 236.661 2.5841 2.38574 0
M  V30 2454 H 236.535 1.27671 3.54937 0
M  V30 2455 H 238.922 0.52335 2.90422 0
M  V30 2456 H 239.003 1.86378 1.75205 0
M  V30 2457 H 238.647 3.50745 3.67342 0
M  V30 2458 H 238.577 2.13904 4.81199 0
M  V30 2459 H 241.068 1.89503 3.26951 0
M  V30 2460 H 241.381 4.40359 6.35062 0
M  V30 2461 H 239.726 3.95455 5.71524 0
M  V30 2462 H 242.917 2.41987 4.007 0
M  V30 2463 H 243.09 3.5636 5.41213 0
M  V30 2464 N 236.496 -1.42363 0.676048 0
M  V30 2465 C 237.742 -2.0182 0.199125 0
M  V30 2466 C 238.075 -1.53339 -1.19168 0
M  V30 2467 O 237.35 -0.736124 -1.80032 0
M  V30 2468 C 237.633 -3.59331 0.235144 0
M  V30 2469 C 237.486 -4.17989 1.66149 0
M  V30 2470 C 238.805 -4.3813 -0.41595 0
M  V30 2471 H 235.924 -0.733293 0.0738311 0
M  V30 2472 H 238.566 -1.69368 0.86107 0
M  V30 2473 H 236.716 -3.87109 -0.328487 0
M  V30 2474 H 238.388 -4.0116 2.27747 0
M  V30 2475 H 236.631 -3.7377 2.20178 0
M  V30 2476 H 237.302 -5.27126 1.63837 0
M  V30 2477 H 239.778 -4.16051 0.0638529 0
M  V30 2478 H 238.654 -5.47717 -0.360115 0
M  V30 2479 H 238.915 -4.16101 -1.49373 0
M  V30 2480 N 237.974 -0.419461 -1.51915 0
M  V30 2481 C 239.251 0.211999 -1.94448 0
M  V30 2482 C 239.631 1.61703 -1.35703 0
M  V30 2483 O 238.979 2.22102 -0.536931 0
M  V30 2484 C 239.189 0.207872 -3.4838 0
M  V30 2485 C 240.537 0.422192 -4.22496 0
M  V30 2486 O 241.561 0.286778 -3.55044 0
M  V30 2487 O 240.42 0.690009 -5.42126 0
M  V30 2488 H 237.514 0.139586 -0.815135 0
M  V30 2489 H 240.06 -0.476151 -1.62883 0
M  V30 2490 H 238.832 -0.775102 -3.83546 0
M  V30 2491 H 238.455 0.939688 -3.86336 0
M  V30 2492 N 239.452 1.56882 -0.150215 0
M  V30 2493 C 240.698 1.96518 0.500834 0
M  V30 2494 C 241.031 1.03527 1.64304 0
M  V30 2495 O 240.306 0.0782751 1.94342 0
M  V30 2496 C 240.589 3.45822 1.00395 0
M  V30 2497 C 240.442 4.49591 -0.136983 0
M  V30 2498 C 241.761 3.97704 1.88467 0
M  V30 2499 H 238.88 0.714535 0.18058 0
M  V30 2500 H 241.522 1.88577 -0.232091 0
M  V30 2501 H 239.672 3.5272 1.62851 0
M  V30 2502 H 241.344 4.5477 -0.77343 0
M  V30 2503 H 239.587 4.26441 -0.795652 0
M  V30 2504 H 240.258 5.51402 0.256815 0
M  V30 2505 H 242.734 3.93304 1.35834 0
M  V30 2506 H 241.61 5.0263 2.20578 0
M  V30 2507 H 241.871 3.40252 2.82279 0
M  V30 2508 N 240.93 -0.123565 1.57115 0
M  V30 2509 C 241.84 -1.17074 2.033 0
M  V30 2510 C 242.856 -1.4561 0.952559 0
M  V30 2511 O 244.032 -1.56817 1.26374 0
M  V30 2512 C 241.097 -2.47857 2.42421 0
M  V30 2513 C 240.158 -2.26758 3.64526 0
M  V30 2514 C 239.391 -3.51305 4.01771 0
M  V30 2515 O 239.614 -4.5843 3.39409 0
M  V30 2516 O 238.548 -3.42578 4.94898 0
M  V30 2517 H 242.374 -0.808555 2.92739 0
M  V30 2518 H 239.959 -0.334027 1.45618 0
M  V30 2519 H 241.841 -3.2492 2.68338 0
M  V30 2520 H 240.516 -2.83558 1.5613 0
M  V30 2521 H 239.423 -1.47569 3.43765 0
M  V30 2522 H 240.756 -1.95963 4.51508 0
M  V30 2523 N 242.408 -1.52605 -0.393616 0
M  V30 2524 C 243.685 -1.58001 -1.15304 0
M  V30 2525 C 244.065 -0.370385 -2.07825 0
M  V30 2526 O 243.413 0.641638 -2.19306 0
M  V30 2527 C 243.623 -2.91652 -1.91677 0
M  V30 2528 C 244.971 -3.4522 -2.47201 0
M  V30 2529 O 245.995 -2.93495 -2.01839 0
M  V30 2530 O 244.854 -4.35579 -3.3005 0
M  V30 2531 H 241.948 -0.637068 -0.527327 0
M  V30 2532 H 244.494 -1.64939 -0.399141 0
M  V30 2533 H 243.266 -3.71136 -1.23992 0
M  V30 2534 H 242.889 -2.88077 -2.74039 0
M  V30 2535 N 243.887 0.651787 -1.4349 0
M  V30 2536 C 244.817 1.77621 -1.51569 0
M  V30 2537 C 245.798 1.66022 -0.370253 0
M  V30 2538 O 246.983 1.85095 -0.587658 0
M  V30 2539 C 244.113 3.16056 -1.43966 0
M  V30 2540 C 243.067 3.4242 -2.56774 0
M  V30 2541 C 242.393 4.8067 -2.34223 0
M  V30 2542 C 243.693 3.37023 -3.99015 0
M  V30 2543 H 245.387 1.71117 -2.45681 0
M  V30 2544 H 242.933 0.821825 -1.18246 0
M  V30 2545 H 244.886 3.94472 -1.48221 0
M  V30 2546 H 243.61 3.23293 -0.463586 0
M  V30 2547 H 242.269 2.66375 -2.51873 0
M  V30 2548 H 241.917 4.84585 -1.34856 0
M  V30 2549 H 241.617 4.9927 -3.09844 0
M  V30 2550 H 243.141 5.61342 -2.40265 0
M  V30 2551 H 244.555 4.05374 -4.05395 0
M  V30 2552 H 242.952 3.67159 -4.74673 0
M  V30 2553 H 244.022 2.3518 -4.2405 0
M  V30 2554 N 245.365 1.30045 0.890287 0
M  V30 2555 C 246.613 1.18327 1.63839 0
M  V30 2556 C 246.934 -0.263455 1.93212 0
M  V30 2557 O 246.204 -1.17856 1.56482 0
M  V30 2558 H 244.784 0.434933 0.607324 0
M  V30 2559 H 247.446 1.631 1.06698 0
M  V30 2560 H 246.542 1.74024 2.59079 0
M  V30 2561 N 246.843 -1.10192 1.12674 0
M  V30 2562 C 248.089 -1.82475 0.884915 0
M  V30 2563 C 248.422 -1.85093 -0.58773 0
M  V30 2564 O 247.697 -1.3134 -1.43457 0
M  V30 2565 C 247.98 -3.29018 1.46353 0
M  V30 2566 C 247.833 -3.34718 3.00473 0
M  V30 2567 C 249.152 -4.25473 1.12519 0
M  V30 2568 H 246.271 -0.662492 0.322915 0
M  V30 2569 H 248.913 -1.2913 1.39375 0
M  V30 2570 H 247.063 -3.74576 1.03077 0
M  V30 2571 H 248.735 -2.97622 3.52447 0
M  V30 2572 H 246.978 -2.74541 3.35872 0
M  V30 2573 H 247.649 -4.37918 3.36053 0
M  V30 2574 H 250.125 -3.88161 1.499 0
M  V30 2575 H 249.001 -5.26365 1.55663 0
M  V30 2576 H 249.262 -4.42084 0.0377407 0
M  V30 2577 N 248.321 -0.919034 -1.28029 0
M  V30 2578 C 249.598 -0.473668 -1.89778 0
M  V30 2579 C 249.978 1.04783 -1.83259 0
M  V30 2580 O 249.326 1.8982 -1.27202 0
M  V30 2581 C 249.536 -1.00998 -3.34066 0
M  V30 2582 C 250.884 -1.06525 -4.1102 0
M  V30 2583 O 251.908 -0.958996 -3.43048 0
M  V30 2584 O 250.767 -1.22776 -5.3253 0
M  V30 2585 H 247.861 -0.15098 -0.813101 0
M  V30 2586 H 250.407 -1.01016 -1.36359 0
M  V30 2587 H 249.179 -2.05392 -3.33061 0
M  V30 2588 H 248.802 -0.454626 -3.94992 0
M  V30 2589 N 249.799 1.42003 -0.683588 0
M  V30 2590 C 251.046 2.01413 -0.209514 0
M  V30 2591 C 251.374 1.54088 1.1869 0
M  V30 2592 O 250.629 0.737591 1.81268 0
M  V30 2593 C 250.928 3.56827 -0.202357 0
M  V30 2594 C 250.594 4.23617 -1.54464 0
M  V30 2595 C 249.256 4.41577 -1.91215 0
M  V30 2596 C 251.608 4.61178 -2.42826 0
M  V30 2597 C 248.936 4.9437 -3.15935 0
M  V30 2598 C 251.288 5.15355 -3.66867 0
M  V30 2599 C 249.952 5.31528 -4.03776 0
M  V30 2600 H 249.222 0.737023 -0.0766668 0
M  V30 2601 H 251.869 1.70067 -0.880312 0
M  V30 2602 H 250.174 3.87892 0.551969 0
M  V30 2603 H 251.871 4.00588 0.181793 0
M  V30 2604 H 248.461 4.10004 -1.24877 0
M  V30 2605 H 252.645 4.46968 -2.15717 0
M  V30 2606 H 247.901 5.05076 -3.44541 0
M  V30 2607 H 252.075 5.43402 -4.35531 0
M  V30 2608 H 249.702 5.72199 -5.00492 0
M  V30 2609 N 251.277 0.427512 1.51691 0
M  V30 2610 C 252.207 -0.3796 2.30394 0
M  V30 2611 C 253.188 -1.02982 1.35384 0
M  V30 2612 O 254.373 -1.03534 1.643 0
M  V30 2613 C 251.503 -1.48649 3.1388 0
M  V30 2614 C 250.457 -0.960294 4.17088 0
M  V30 2615 C 249.783 -2.16219 4.89033 0
M  V30 2616 C 251.083 -0.00153679 5.223 0
M  V30 2617 H 252.777 0.277164 2.98114 0
M  V30 2618 H 250.323 0.134739 1.43368 0
M  V30 2619 H 252.276 -2.05826 3.67714 0
M  V30 2620 H 251 -2.1714 2.43962 0
M  V30 2621 H 249.659 -0.410806 3.64291 0
M  V30 2622 H 249.307 -2.83307 4.15628 0
M  V30 2623 H 249.007 -1.81654 5.58816 0
M  V30 2624 H 250.531 -2.73968 5.45687 0
M  V30 2625 H 251.945 -0.482687 5.71264 0
M  V30 2626 H 250.342 0.256199 5.99553 0
M  V30 2627 H 251.412 0.938174 4.75738 0
M  V30 2628 N 252.755 -1.56801 0.158532 0
M  V30 2629 C 253.983 -2.00859 -0.496303 0
M  V30 2630 C 254.398 -1.03871 -1.57659 0
M  V30 2631 O 253.755 -0.0375165 -1.82461 0
M  V30 2632 C 253.806 -3.4479 -1.08638 0
M  V30 2633 O 253.527 -4.38072 -0.0492322 0
M  V30 2634 C 255.028 -4.04185 -1.8207 0
M  V30 2635 H 252.248 -0.65864 -0.128199 0
M  V30 2636 H 254.792 -2.02885 0.256506 0
M  V30 2637 H 252.947 -3.43579 -1.78975 0
M  V30 2638 H 253.361 -5.2227 -0.483102 0
M  V30 2639 H 254.835 -5.06857 -2.18633 0
M  V30 2640 H 255.312 -3.45549 -2.71095 0
M  V30 2641 H 255.918 -4.0906 -1.16405 0
M  V30 2642 N 254.233 0.115231 -1.57178 0
M  V30 2643 C 255.482 0.820945 -1.84237 0
M  V30 2644 C 255.795 1.80866 -0.744761 0
M  V30 2645 O 257.001 2.56083 -0.901871 0
M  V30 2646 C 255.457 1.51072 -3.26658 0
M  V30 2647 C 255.065 0.563795 -4.44438 0
M  V30 2648 C 256.809 2.20134 -3.62962 0
M  V30 2649 C 254.716 1.25701 -5.77887 0
M  V30 2650 H 253.646 0.310328 -0.687177 0
M  V30 2651 H 256.297 0.0737134 -1.83352 0
M  V30 2652 H 254.679 2.30471 -3.22024 0
M  V30 2653 H 255.853 -0.197247 -4.60378 0
M  V30 2654 H 254.168 -0.0200638 -4.16395 0
M  V30 2655 H 256.765 2.72696 -4.59936 0
M  V30 2656 H 257.108 2.98107 -2.90582 0
M  V30 2657 H 257.641 1.47619 -3.69396 0
M  V30 2658 H 254.38 0.518493 -6.53446 0
M  V30 2659 H 253.9 1.98997 -5.65827 0
M  V30 2660 H 255.579 1.78915 -6.2177 0
M  V30 2661 N 255.711 1.52812 0.385517 0
M  V30 2662 C 256.957 1.68275 1.13188 0
M  V30 2663 C 257.29 0.423179 1.89533 0
M  V30 2664 O 256.565 -0.579113 1.85679 0
M  V30 2665 C 256.848 2.92001 2.1073 0
M  V30 2666 C 256.701 4.28067 1.38125 0
M  V30 2667 C 258.02 3.11283 3.11113 0
M  V30 2668 H 255.139 0.612352 0.410115 0
M  V30 2669 H 257.781 1.85415 0.414869 0
M  V30 2670 H 255.931 2.77519 2.71874 0
M  V30 2671 H 257.603 4.54324 0.799187 0
M  V30 2672 H 255.846 4.28388 0.683092 0
M  V30 2673 H 256.517 5.10733 2.09417 0
M  V30 2674 H 258.993 3.2482 2.6006 0
M  V30 2675 H 257.869 3.99325 3.76605 0
M  V30 2676 H 258.13 2.25656 3.80173 0
M  V30 2677 N 257.189 -0.644168 1.43834 0
M  V30 2678 C 258.437 -1.40117 1.45642 0
M  V30 2679 C 258.758 -1.94814 0.0852413 0
M  V30 2680 O 258.028 -1.74988 -0.880688 0
M  V30 2681 H 256.608 -0.52005 0.536243 0
M  V30 2682 H 259.27 -0.7591 1.7951 0
M  V30 2683 H 258.366 -2.23902 2.17427 0
M  V30 2684 N 258.668 -1.30515 -0.883378 0
M  V30 2685 C 259.618 -1.13641 -1.9766 0
M  V30 2686 C 260.602 -0.0511314 -1.60819 0
M  V30 2687 O 261.794 -0.274623 -1.74857 0
M  V30 2688 C 258.923 -0.831976 -3.33066 0
M  V30 2689 C 258.009 -1.95759 -3.76217 0
M  V30 2690 N 258.4 -3.20313 -3.9145 0
M  V30 2691 C 256.698 -1.85431 -4.05625 0
M  V30 2692 C 257.399 -3.93856 -4.2808 0
M  V30 2693 N 256.375 -3.21919 -4.38029 0
M  V30 2694 H 260.177 -2.08106 -2.07531 0
M  V30 2695 H 257.691 -1.21877 -1.0733 0
M  V30 2696 H 259.688 -0.692102 -4.11115 0
M  V30 2697 H 258.348 0.104588 -3.24532 0
M  V30 2698 H 259.359 -3.55583 -3.76538 0
M  V30 2699 H 256.036 -0.991531 -4.05555 0
M  V30 2700 H 257.426 -5.01125 -4.47575 0
M  V30 2701 N 260.146 1.09593 -1.13257 0
M  V30 2702 C 261.093 2.1618 -0.808381 0
M  V30 2703 C 262.063 1.64517 0.228754 0
M  V30 2704 O 263.248 1.9053 0.101381 0
M  V30 2705 C 260.388 3.43973 -0.278675 0
M  V30 2706 C 259.501 4.09545 -1.37466 0
M  V30 2707 C 258.636 5.25088 -0.803479 0
M  V30 2708 C 257.675 5.82579 -1.87799 0
M  V30 2709 N 256.812 6.89486 -1.32488 0
M  V30 2710 H 261.652 2.43254 -1.72138 0
M  V30 2711 H 259.189 1.19392 -0.859294 0
M  V30 2712 H 261.147 4.17174 0.0465583 0
M  V30 2713 H 259.777 3.17223 0.597459 0
M  V30 2714 H 258.829 3.34226 -1.81652 0
M  V30 2715 H 260.141 4.48307 -2.18684 0
M  V30 2716 H 259.295 6.05178 -0.429427 0
M  V30 2717 H 258.034 4.87684 0.0397956 0
M  V30 2718 H 257.039 5.01152 -2.26113 0
M  V30 2719 H 258.264 6.22045 -2.72463 0
M  V30 2720 H 256.21 6.54064 -0.503575 0
M  V30 2721 H 256.127 7.27007 -2.07355 0
M  V30 2722 H 257.395 7.73336 -0.978336 0
M  V30 2723 N 261.624 0.925811 1.2754 0
M  V30 2724 C 262.871 0.565255 1.94451 0
M  V30 2725 C 263.199 -0.89316 1.7278 0
M  V30 2726 O 262.454 -1.65213 1.04895 0
M  V30 2727 C 262.753 0.835296 3.47502 0
M  V30 2728 C 262.419 2.27515 3.89291 0
M  V30 2729 C 261.081 2.66879 4.00411 0
M  V30 2730 C 263.433 3.21158 4.10496 0
M  V30 2731 C 260.761 3.99014 4.30122 0
M  V30 2732 C 263.113 4.52871 4.4169 0
M  V30 2733 C 261.777 4.92072 4.51023 0
M  V30 2734 H 261.047 0.206841 0.711546 0
M  V30 2735 H 263.694 1.16942 1.51647 0
M  V30 2736 H 261.999 0.148442 3.91519 0
M  V30 2737 H 263.696 0.535322 3.97411 0
M  V30 2738 H 260.286 1.95976 3.81171 0
M  V30 2739 H 264.47 2.9195 4.01346 0
M  V30 2740 H 259.726 4.2907 4.35556 0
M  V30 2741 H 263.9 5.25436 4.57045 0
M  V30 2742 H 261.527 5.9449 4.738 0
M  V30 2743 N 263.102 -1.41638 0.69111 0
M  V30 2744 C 264.332 -2.0533 0.228758 0
M  V30 2745 C 264.74 -1.52089 -1.12541 0
M  V30 2746 O 264.083 -0.662145 -1.71351 0
M  V30 2747 C 264.145 -3.59349 0.10407 0
M  V30 2748 C 263.809 -4.35362 1.38956 0
M  V30 2749 C 264.806 -4.64942 2.32648 0
M  V30 2750 C 262.491 -4.74714 1.64169 0
M  V30 2751 C 264.485 -5.32828 3.49818 0
M  V30 2752 C 262.172 -5.42338 2.81625 0
M  V30 2753 C 263.17 -5.71322 3.74273 0
M  V30 2754 O 262.858 -6.37554 4.89673 0
M  V30 2755 H 262.59 -0.667796 0.104997 0
M  V30 2756 H 265.144 -1.82477 0.942938 0
M  V30 2757 H 263.374 -3.80924 -0.665839 0
M  V30 2758 H 265.063 -4.04633 -0.320519 0
M  V30 2759 H 265.829 -4.35025 2.14425 0
M  V30 2760 H 261.708 -4.51538 0.929202 0
M  V30 2761 H 265.252 -5.55368 4.22152 0
M  V30 2762 H 261.149 -5.71673 2.99768 0
M  V30 2763 H 261.917 -6.56049 4.8943 0
M  V30 2764 N 264.58 -0.43555 -1.51462 0
M  V30 2765 C 265.828 0.131254 -2.01673 0
M  V30 2766 C 266.149 1.43368 -1.32177 0
M  V30 2767 O 265.419 1.90524 -0.455769 0
M  V30 2768 H 263.999 0.0514954 -0.745223 0
M  V30 2769 H 266.661 -0.577847 -1.86137 0
M  V30 2770 H 265.757 0.308446 -3.10572 0
M  V30 2771 N 266.058 1.56714 -0.166846 0
M  V30 2772 C 267.469 1.83378 0.350646 0
M  V30 2773 C 267.82 1.08646 1.63372 0
M  V30 2774 O 266.945 0.338058 2.13743 0
M  V30 2775 C 267.54 3.32643 0.642963 0
M  V30 2776 C 266.099 3.59818 1.10491 0
M  V30 2777 C 265.246 2.76954 0.138411 0
M  V30 2778 H 268.197 1.53803 -0.391193 0
M  V30 2779 H 268.218 3.49878 1.49551 0
M  V30 2780 H 267.73 3.87007 -0.291055 0
M  V30 2781 H 265.831 3.1086 2.05418 0
M  V30 2782 H 265.944 4.68178 1.01716 0
M  V30 2783 H 264.308 2.4666 0.634911 0
M  V30 2784 H 265.091 3.34097 -0.789549 0
M  V30 2785 N 267.536 -0.106894 1.57237 0
M  V30 2786 C 268.952 -0.46078 1.52804 0
M  V30 2787 C 269.152 -1.81184 0.881746 0
M  V30 2788 O 268.208 -2.48102 0.469224 0
M  V30 2789 C 269.521 -0.434127 2.9755 0
M  V30 2790 C 271.069 -0.516821 3.08704 0
M  V30 2791 C 271.544 -0.520436 4.55033 0
M  V30 2792 N 273.035 -0.58153 4.59535 0
M  V30 2793 C 273.77 -0.605973 5.70189 0
M  V30 2794 N 273.266 -0.587331 6.90306 0
M  V30 2795 N 275.059 -0.649895 5.5833 0
M  V30 2796 H 267.21 0.778203 1.9763 0
M  V30 2797 H 269.473 0.288403 0.903066 0
M  V30 2798 H 269.179 0.491197 3.48253 0
M  V30 2799 H 269.053 -1.25748 3.55622 0
M  V30 2800 H 271.44 -1.43256 2.57995 0
M  V30 2801 H 271.521 0.334449 2.53604 0
M  V30 2802 H 271.165 0.391313 5.0639 0
M  V30 2803 H 271.095 -1.38876 5.07958 0
M  V30 2804 H 273.586 -0.60161 3.73081 0
M  V30 2805 H 273.899 -0.60894 7.70397 0
M  V30 2806 H 272.244 -0.554564 6.92784 0
M  V30 2807 H 275.435 -0.661907 4.63397 0
M  V30 2808 H 275.608 -0.665476 6.44574 0
M  V30 2809 N 269.014 -1.53014 -0.377408 0
M  V30 2810 C 270.263 -1.67845 -1.11853 0
M  V30 2811 C 270.576 -0.430625 -1.90801 0
M  V30 2812 O 271.782 -0.459261 -2.67587 0
M  V30 2813 C 270.238 -2.96668 -2.03756 0
M  V30 2814 C 269.846 -4.28671 -1.30175 0
M  V30 2815 C 271.59 -3.20865 -2.77932 0
M  V30 2816 C 269.497 -5.48591 -2.20911 0
M  V30 2817 H 268.427 -0.625343 -0.421263 0
M  V30 2818 H 271.078 -1.79514 -0.380409 0
M  V30 2819 H 269.46 -2.78773 -2.8125 0
M  V30 2820 H 270.634 -4.57157 -0.578259 0
M  V30 2821 H 268.949 -4.10825 -0.679108 0
M  V30 2822 H 271.546 -4.07642 -3.46024 0
M  V30 2823 H 271.889 -2.36424 -3.4265 0
M  V30 2824 H 272.422 -3.39379 -2.07525 0
M  V30 2825 H 269.161 -6.35474 -1.6079 0
M  V30 2826 H 268.681 -5.244 -2.91144 0
M  V30 2827 H 270.36 -5.8292 -2.80736 0
M  V30 2828 N 270.492 0.636531 -1.44174 0
M  V30 2829 C 271.74 1.39343 -1.46383 0
M  V30 2830 C 272.061 1.94766 -0.0955715 0
M  V30 2831 O 271.331 1.75452 0.871395 0
M  V30 2832 H 269.911 0.517199 -0.538994 0
M  V30 2833 H 272.573 0.74957 -1.7991 0
M  V30 2834 H 271.669 2.22746 -2.18611 0
M  V30 2835 N 271.97 1.30982 0.876444 0
M  V30 2836 C 272.933 1.18054 1.96459 0
M  V30 2837 C 273.933 0.109399 1.60427 0
M  V30 2838 O 275.123 0.358173 1.70478 0
M  V30 2839 C 272.255 0.810616 3.31122 0
M  V30 2840 H 273.448 2.14735 2.09354 0
M  V30 2841 H 271.001 1.145 1.06392 0
M  V30 2842 H 271.736 -0.155322 3.23928 0
M  V30 2843 H 271.521 1.58481 3.58645 0
M  V30 2844 H 273.011 0.743876 4.10921 0
M  V30 2845 N 273.449 -1.08991 1.13837 0
M  V30 2846 C 274.379 -2.17771 0.842507 0
M  V30 2847 C 275.36 -1.6892 -0.20001 0
M  V30 2848 O 276.545 -1.94113 -0.0579731 0
M  V30 2849 C 273.675 -3.4589 0.312644 0
M  V30 2850 C 272.629 -4.08099 1.28992 0
M  V30 2851 C 271.955 -5.31098 0.619623 0
M  V30 2852 C 273.255 -4.50077 2.65005 0
M  V30 2853 H 274.949 -2.42777 1.75213 0
M  V30 2854 H 272.495 -1.16682 0.843875 0
M  V30 2855 H 274.448 -4.21297 0.0933043 0
M  V30 2856 H 273.172 -3.20419 -0.632382 0
M  V30 2857 H 271.831 -3.34717 1.49533 0
M  V30 2858 H 271.479 -5.0191 -0.33102 0
M  V30 2859 H 271.179 -5.73674 1.27167 0
M  V30 2860 H 272.703 -6.09224 0.409669 0
M  V30 2861 H 274.117 -5.16688 2.48407 0
M  V30 2862 H 272.514 -5.03553 3.26427 0
M  V30 2863 H 273.584 -3.62257 3.22332 0
M  V30 2864 N 274.927 -0.932562 -1.27047 0
M  V30 2865 C 276.157 -0.591173 -1.97961 0
M  V30 2866 C 276.565 0.836219 -1.69717 0
M  V30 2867 O 275.908 1.56801 -0.957036 0
M  V30 2868 C 275.97 -0.743082 -3.51736 0
M  V30 2869 C 275.634 -2.1435 -4.03613 0
M  V30 2870 C 276.631 -3.11815 -4.16014 0
M  V30 2871 C 274.316 -2.46175 -4.37839 0
M  V30 2872 C 276.31 -4.39211 -4.61923 0
M  V30 2873 C 273.997 -3.73806 -4.83438 0
M  V30 2874 C 274.995 -4.70137 -4.95439 0
M  V30 2875 O 274.683 -5.95496 -5.40037 0
M  V30 2876 H 274.415 -0.222375 -0.638377 0
M  V30 2877 H 276.969 -1.25317 -1.62742 0
M  V30 2878 H 275.199 -0.0239739 -3.86693 0
M  V30 2879 H 276.888 -0.40603 -4.03864 0
M  V30 2880 H 277.654 -2.88549 -3.89826 0
M  V30 2881 H 273.533 -1.71936 -4.27737 0
M  V30 2882 H 277.077 -5.14404 -4.71205 0
M  V30 2883 H 272.974 -3.96888 -5.09068 0
M  V30 2884 H 273.742 -5.98554 -5.58279 0
M  V30 2885 N 276.405 1.4127 -0.698611 0
M  V30 2886 C 277.654 2.00408 -0.227949 0
M  V30 2887 C 277.967 1.55981 1.18023 0
M  V30 2888 O 279.173 2.07699 1.74852 0
M  V30 2889 C 277.629 3.58129 -0.356636 0
M  V30 2890 C 277.237 4.11536 -1.77037 0
M  V30 2891 C 278.981 4.24466 0.0540969 0
M  V30 2892 C 276.888 5.61701 -1.85055 0
M  V30 2893 H 275.818 0.749586 -0.0814657 0
M  V30 2894 H 278.469 1.61713 -0.867249 0
M  V30 2895 H 276.851 3.94442 0.350965 0
M  V30 2896 H 278.025 3.86636 -2.50698 0
M  V30 2897 H 276.34 3.57736 -2.13105 0
M  V30 2898 H 278.937 5.34698 0.0146723 0
M  V30 2899 H 279.28 4.01687 1.09332 0
M  V30 2900 H 279.813 3.93198 -0.603337 0
M  V30 2901 H 276.552 5.89312 -2.8704 0
M  V30 2902 H 276.072 5.88519 -1.15783 0
M  V30 2903 H 277.751 6.26524 -1.61484 0
M  V30 2904 N 277.883 0.443576 1.51229 0
M  V30 2905 C 279.299 0.0962001 1.5931 0
M  V30 2906 C 279.499 -1.39501 1.45402 0
M  V30 2907 O 278.555 -2.16557 1.29843 0
M  V30 2908 C 279.868 0.621875 2.94199 0
M  V30 2909 C 281.416 0.582865 3.07525 0
M  V30 2910 C 281.891 1.08562 4.44948 0
M  V30 2911 N 283.382 1.04387 4.51284 0
M  V30 2912 C 284.117 1.40368 5.55954 0
M  V30 2913 N 283.613 1.83664 6.68011 0
M  V30 2914 N 285.406 1.32145 5.46346 0
M  V30 2915 H 277.557 1.41376 1.58514 0
M  V30 2916 H 279.82 0.582965 0.747567 0
M  V30 2917 H 279.526 1.66546 3.09767 0
M  V30 2918 H 279.4 0.0502125 3.77167 0
M  V30 2919 H 281.787 -0.451749 2.91622 0
M  V30 2920 H 281.868 1.191 2.26382 0
M  V30 2921 H 281.512 2.11873 4.61598 0
M  V30 2922 H 281.442 0.453956 5.2464 0
M  V30 2923 H 283.933 0.725986 3.70861 0
M  V30 2924 H 284.246 2.0934 7.43906 0
M  V30 2925 H 282.591 1.87596 6.69203 0
M  V30 2926 H 285.782 0.981808 4.57688 0
M  V30 2927 H 285.955 1.60514 6.27805 0
M  V30 2928 N 279.361 -1.56624 0.175154 0
M  V30 2929 C 280.609 -1.96609 -0.467885 0
M  V30 2930 C 280.93 -1.06238 -1.63519 0
M  V30 2931 O 280.2 -0.129523 -1.95471 0
M  V30 2932 H 278.78 -0.726008 -0.175845 0
M  V30 2933 H 281.442 -1.93195 0.257234 0
M  V30 2934 H 280.538 -3.00989 -0.825342 0
M  V30 2935 N 280.839 0.0985539 -1.57292 0
M  V30 2936 C 281.769 1.12064 -2.04851 0
M  V30 2937 C 282.75 1.41981 -0.936767 0
M  V30 2938 O 283.935 1.52071 -1.20781 0
M  V30 2939 C 281.065 2.44144 -2.47004 0
M  V30 2940 C 280.019 2.28643 -3.6181 0
M  V30 2941 C 279.345 3.65869 -3.89929 0
M  V30 2942 C 280.645 1.72986 -4.92822 0
M  V30 2943 H 282.339 0.724979 -2.9049 0
M  V30 2944 H 279.885 0.34729 -1.39749 0
M  V30 2945 H 281.838 3.15914 -2.78884 0
M  V30 2946 H 280.562 2.85639 -1.5836 0
M  V30 2947 H 279.221 1.59318 -3.30172 0
M  V30 2948 H 278.869 4.04885 -2.98458 0
M  V30 2949 H 278.569 3.56344 -4.67218 0
M  V30 2950 H 280.093 4.39112 -4.2428 0
M  V30 2951 H 281.507 2.34593 -5.23105 0
M  V30 2952 H 279.904 1.74229 -5.74251 0
M  V30 2953 H 280.974 0.689007 -4.7998 0
M  V30 2954 N 282.317 1.53212 0.369288 0
M  V30 2955 C 283.565 1.68881 1.11012 0
M  V30 2956 C 283.886 0.441285 1.89941 0
M  V30 2957 O 283.156 -0.544623 1.88177 0
M  V30 2958 H 281.736 0.622569 0.412816 0
M  V30 2959 H 284.398 1.90391 0.416802 0
M  V30 2960 H 283.494 2.54822 1.80201 0
M  V30 2961 N 283.795 -0.628877 1.44509 0
M  V30 2962 C 284.705 -1.7694 1.54044 0
M  V30 2963 C 285.721 -1.68705 0.425987 0
M  V30 2964 O 286.897 -1.89442 0.683656 0
M  V30 2965 C 283.962 -3.13332 1.48405 0
M  V30 2966 C 283.023 -3.33181 2.70719 0
M  V30 2967 C 282.256 -4.63067 2.6534 0
M  V30 2968 O 282.479 -5.44017 1.71469 0
M  V30 2969 O 281.413 -4.85167 3.56226 0
M  V30 2970 H 285.239 -1.71848 2.50403 0
M  V30 2971 H 282.824 -0.790378 1.26781 0
M  V30 2972 H 284.706 -3.94634 1.47791 0
M  V30 2973 H 283.381 -3.1896 0.551898 0
M  V30 2974 H 282.288 -2.51549 2.769 0
M  V30 2975 H 283.621 -3.32416 3.62988 0
M  V30 2976 N 285.273 -1.31445 -0.869486 0
M  V30 2977 C 286.52 -1.21158 -1.62256 0
M  V30 2978 C 286.848 0.230155 -1.93133 0
M  V30 2979 O 286.103 1.17906 -1.56194 0
M  V30 2980 C 286.402 -2.00145 -2.96102 0
M  V30 2981 C 286.068 -3.4964 -2.84715 0
M  V30 2982 C 284.73 -3.90403 -2.81317 0
M  V30 2983 C 287.082 -4.44769 -2.71716 0
M  V30 2984 C 284.41 -5.24561 -2.62778 0
M  V30 2985 C 286.762 -5.79054 -2.54714 0
M  V30 2986 C 285.426 -6.19037 -2.49699 0
M  V30 2987 H 284.696 -0.443348 -0.593737 0
M  V30 2988 H 287.343 -1.62715 -1.00976 0
M  V30 2989 H 285.648 -1.5127 -3.6142 0
M  V30 2990 H 287.345 -1.89566 -3.53363 0
M  V30 2991 H 283.935 -3.17256 -2.88178 0
M  V30 2992 H 288.119 -4.14208 -2.73397 0
M  V30 2993 H 283.375 -5.54613 -2.57321 0
M  V30 2994 H 287.549 -6.52393 -2.43632 0
M  V30 2995 H 285.176 -7.22935 -2.35093 0
M  V30 2996 N 286.751 1.08385 -1.14413 0
M  V30 2997 C 287.979 1.84517 -0.936001 0
M  V30 2998 C 288.394 1.81626 0.515503 0
M  V30 2999 O 287.751 1.22008 1.35721 0
M  V30 3000 C 287.802 3.32049 -1.42918 0
M  V30 3001 O 287.523 3.34951 -2.82381 0
M  V30 3002 C 289.024 4.24986 -1.26103 0
M  V30 3003 H 286.244 0.582491 -0.333084 0
M  V30 3004 H 288.788 1.36885 -1.5193 0
M  V30 3005 H 286.943 3.7707 -0.888641 0
M  V30 3006 H 287.357 4.27048 -3.04517 0
M  V30 3007 H 288.831 5.26615 -1.6547 0
M  V30 3008 H 289.308 4.38726 -0.20392 0
M  V30 3009 H 289.914 3.85791 -1.79012 0
M  V30 3010 N 288.23 0.939286 1.26551 0
M  V30 3011 C 289.641 0.628782 1.75793 0
M  V30 3012 C 289.992 -0.856046 1.7654 0
M  V30 3013 O 289.117 -1.66994 1.3763 0
M  V30 3014 C 289.712 1.13465 3.19235 0
M  V30 3015 C 288.271 0.874601 3.66098 0
M  V30 3016 C 287.418 1.28667 2.45642 0
M  V30 3017 H 290.369 1.1178 1.12654 0
M  V30 3018 H 290.39 0.487609 3.77363 0
M  V30 3019 H 289.902 2.21535 3.1866 0
M  V30 3020 H 288.003 -0.191793 3.72106 0
M  V30 3021 H 288.116 1.50028 4.55004 0
M  V30 3022 H 286.48 0.705109 2.44745 0
M  V30 3023 H 287.263 2.37625 2.47769 0
M  V30 3024 N 289.708 -1.40897 0.706093 0
M  V30 3025 C 290.638 -2.33418 0.0620085 0
M  V30 3026 C 291.619 -1.52385 -0.755827 0
M  V30 3027 O 292.804 -1.80886 -0.706674 0
M  V30 3028 C 289.934 -3.36293 -0.867445 0
M  V30 3029 C 288.888 -4.27716 -0.155932 0
M  V30 3030 C 288.214 -5.2105 -1.20046 0
M  V30 3031 C 289.514 -5.12944 0.984149 0
M  V30 3032 H 291.208 -2.87527 0.83477 0
M  V30 3033 H 288.754 -1.38249 0.402875 0
M  V30 3034 H 290.707 -3.99949 -1.32735 0
M  V30 3035 H 289.431 -2.80556 -1.67199 0
M  V30 3036 H 288.09 -3.65498 0.284047 0
M  V30 3037 H 287.738 -4.61624 -1.99781 0
M  V30 3038 H 287.438 -5.83056 -0.729328 0
M  V30 3039 H 288.962 -5.87584 -1.66066 0
M  V30 3040 H 290.376 -5.70109 0.604048 0
M  V30 3041 H 288.773 -5.83945 1.38304 0
M  V30 3042 H 289.843 -4.49485 1.81911 0
M  V30 3043 N 291.186 -0.45159 -1.50991 0
M  V30 3044 C 292.416 0.108177 -2.06317 0
M  V30 3045 C 292.824 1.35774 -1.31765 0
M  V30 3046 O 292.167 1.79838 -0.374694 0
M  V30 3047 C 292.229 0.481659 -3.56259 0
M  V30 3048 C 291.893 -0.663114 -4.52163 0
M  V30 3049 C 292.89 -1.53947 -4.96585 0
M  V30 3050 C 290.575 -0.8479 -4.95092 0
M  V30 3051 C 292.569 -2.58518 -5.82621 0
M  V30 3052 C 290.256 -1.89686 -5.80915 0
M  V30 3053 C 291.254 -2.76388 -6.24579 0
M  V30 3054 O 290.942 -3.79482 -7.08695 0
M  V30 3055 H 290.674 0.00499183 -0.675982 0
M  V30 3056 H 293.228 -0.633659 -1.95381 0
M  V30 3057 H 291.458 1.27641 -3.65027 0
M  V30 3058 H 293.147 0.974233 -3.94035 0
M  V30 3059 H 293.913 -1.4083 -4.64103 0
M  V30 3060 H 289.792 -0.18258 -4.60638 0
M  V30 3061 H 293.336 -3.26224 -6.16623 0
M  V30 3062 H 289.233 -2.02817 -6.12809 0
M  V30 3063 H 290.001 -3.76234 -7.26905 0
M  V30 3064 N 292.664 1.56529 -0.183458 0
M  V30 3065 C 294.075 1.83739 0.331177 0
M  V30 3066 C 294.426 1.10373 1.62211 0
M  V30 3067 O 293.551 0.36071 2.13373 0
M  V30 3068 C 294.146 3.33306 0.607646 0
M  V30 3069 C 292.705 3.60969 1.06668 0
M  V30 3070 C 291.852 2.77086 0.109029 0
M  V30 3071 H 294.803 1.53379 -0.407484 0
M  V30 3072 H 294.824 3.51444 1.45832 0
M  V30 3073 H 294.336 3.86677 -0.332086 0
M  V30 3074 H 292.437 3.13021 2.0211 0
M  V30 3075 H 292.55 4.69231 0.967447 0
M  V30 3076 H 290.914 2.47319 0.608714 0
M  V30 3077 H 291.697 3.33241 -0.82494 0
M  V30 3078 N 294.142 -0.090211 1.57342 0
M  V30 3079 C 295.075 -1.14035 1.97664 0
M  V30 3080 C 296.053 -1.38576 0.850616 0
M  V30 3081 O 297.237 -1.52255 1.11134 0
M  V30 3082 C 294.364 -2.48854 2.2976 0
M  V30 3083 C 293.41 -2.40564 3.52181 0
M  V30 3084 S 294.243 -1.81745 5.03715 0
M  V30 3085 C 295.399 -3.18178 5.38993 0
M  V30 3086 H 295.632 -0.796636 2.86428 0
M  V30 3087 H 293.165 -0.298072 1.51496 0
M  V30 3088 H 295.123 -3.26413 2.48927 0
M  V30 3089 H 293.784 -2.80393 1.41558 0
M  V30 3090 H 292.977 -3.39942 3.72096 0
M  V30 3091 H 292.579 -1.71135 3.32549 0
M  V30 3092 H 294.871 -4.14461 5.35937 0
M  V30 3093 H 295.814 -3.03062 6.39968 0
M  V30 3094 H 296.222 -3.17935 4.66452 0
M  V30 3095 N 295.62 -1.53406 -0.361157 0
M  V30 3096 C 296.55 -1.83136 -1.44857 0
M  V30 3097 C 297.531 -0.685174 -1.5569 0
M  V30 3098 O 298.716 -0.93544 -1.70186 0
M  V30 3099 C 295.846 -2.02522 -2.82138 0
M  V30 3100 C 294.8 -3.18302 -2.86126 0
M  V30 3101 C 294.126 -3.22989 -4.26125 0
M  V30 3102 C 295.426 -4.56796 -2.53248 0
M  V30 3103 H 297.12 -2.74201 -1.20226 0
M  V30 3104 H 294.666 -1.31938 -0.576922 0
M  V30 3105 H 296.619 -2.21904 -3.58241 0
M  V30 3106 H 295.343 -1.08172 -3.08166 0
M  V30 3107 H 294.002 -2.98747 -2.12475 0
M  V30 3108 H 293.65 -2.26267 -4.49235 0
M  V30 3109 H 293.35 -4.00781 -4.29708 0
M  V30 3110 H 294.874 -3.44559 -5.04094 0
M  V30 3111 H 296.288 -4.7631 -3.19064 0
M  V30 3112 H 294.685 -5.36862 -2.68141 0
M  V30 3113 H 295.755 -4.61606 -1.48484 0
M  V30 3114 N 297.098 0.621204 -1.44841 0
M  V30 3115 C 298.345 1.38055 -1.48145 0
M  V30 3116 C 298.673 1.94143 -0.117867 0
M  V30 3117 O 297.928 1.74713 0.881694 0
M  V30 3118 C 298.227 2.55675 -2.4973 0
M  V30 3119 C 297.893 2.17817 -3.94799 0
M  V30 3120 C 296.555 2.07205 -4.34303 0
M  V30 3121 C 298.907 1.88065 -4.86087 0
M  V30 3122 C 296.235 1.65045 -5.63007 0
M  V30 3123 C 298.587 1.47394 -6.15189 0
M  V30 3124 C 297.251 1.35331 -6.53637 0
M  V30 3125 H 296.521 0.505181 -0.542101 0
M  V30 3126 H 299.168 0.703477 -1.78111 0
M  V30 3127 H 297.473 3.2866 -2.13284 0
M  V30 3128 H 299.17 3.13904 -2.4953 0
M  V30 3129 H 295.76 2.26998 -3.63552 0
M  V30 3130 H 299.944 1.95168 -4.56315 0
M  V30 3131 H 295.2 1.54317 -5.91605 0
M  V30 3132 H 299.374 1.23415 -6.85377 0
M  V30 3133 H 297.001 1.02435 -7.53267 0
M  V30 3134 N 298.576 1.31904 0.862503 0
M  V30 3135 C 299.824 1.21776 1.61292 0
M  V30 3136 C 300.145 -0.222413 1.93727 0
M  V30 3137 O 299.415 -1.1451 1.58947 0
M  V30 3138 H 297.995 0.447717 0.597962 0
M  V30 3139 H 300.657 1.65326 1.03215 0
M  V30 3140 H 299.753 1.7948 2.5533 0
M  V30 3141 N 300.054 -1.07777 1.14986 0
M  V30 3142 C 301.302 -1.79934 0.920235 0
M  V30 3143 C 301.623 -1.86955 -0.554336 0
M  V30 3144 O 300.893 -1.36731 -1.40291 0
M  V30 3145 H 299.473 -0.666424 0.337473 0
M  V30 3146 H 302.135 -1.3027 1.44968 0
M  V30 3147 H 301.231 -2.82539 1.32583 0
M  V30 3148 N 301.532 -0.945985 -1.26051 0
M  V30 3149 C 302.78 -0.594941 -1.93145 0
M  V30 3150 C 303.101 0.86953 -1.7454 0
M  V30 3151 O 302.371 1.61838 -1.10387 0
M  V30 3152 H 300.951 -0.217044 -0.714773 0
M  V30 3153 H 303.613 -1.20235 -1.53393 0
M  V30 3154 H 302.709 -0.816835 -3.01221 0
M  V30 3155 N 303.011 1.40521 -0.713556 0
M  V30 3156 C 303.943 2.29191 -0.0203126 0
M  V30 3157 C 304.956 1.45723 0.725864 0
M  V30 3158 O 306.145 1.69033 0.573581 0
M  V30 3159 C 303.245 3.2395 0.995486 0
M  V30 3160 C 302.418 4.36262 0.315256 0
M  V30 3161 C 301.477 5.11474 1.23616 0
M  V30 3162 O 300.503 5.64606 0.721719 0
M  V30 3163 N 301.705 5.20638 2.56743 0
M  V30 3164 H 304.47 2.89327 -0.781652 0
M  V30 3165 H 302.031 1.51869 -0.561022 0
M  V30 3166 H 304.023 3.71137 1.61368 0
M  V30 3167 H 302.593 2.64995 1.6582 0
M  V30 3168 H 301.813 3.91228 -0.483106 0
M  V30 3169 H 303.101 5.08558 -0.157004 0
M  V30 3170 H 302.499 4.7895 3.01037 0
M  V30 3171 H 301.056 5.71339 3.13712 0
M  V30 3172 N 304.489 0.459591 1.5075 0
M  V30 3173 C 305.399 -0.34613 2.32033 0
M  V30 3174 C 306.415 -1.00686 1.41909 0
M  V30 3175 O 307.591 -0.997361 1.7497 0
M  V30 3176 C 304.656 -1.42029 3.16273 0
M  V30 3177 C 303.717 -0.777362 4.22203 0
M  V30 3178 C 302.95 -1.80034 5.02418 0
M  V30 3179 O 303.173 -3.02544 4.83553 0
M  V30 3180 O 302.107 -1.37853 5.85901 0
M  V30 3181 H 305.933 0.318054 3.0203 0
M  V30 3182 H 303.518 0.221663 1.47746 0
M  V30 3183 H 305.4 -2.04275 3.68578 0
M  V30 3184 H 304.075 -2.06815 2.49016 0
M  V30 3185 H 302.982 -0.116256 3.73919 0
M  V30 3186 H 304.315 -0.172634 4.91897 0
M  V30 3187 N 305.967 -1.56429 0.191757 0
M  V30 3188 C 307.383 -1.58754 -0.164137 0
M  V30 3189 C 307.583 -1.20782 -1.61288 0
M  V30 3190 O 306.639 -0.928999 -2.34789 0
M  V30 3191 C 307.952 -3.00396 0.135195 0
M  V30 3192 C 309.5 -3.1291 0.0750351 0
M  V30 3193 C 309.975 -4.56679 0.347632 0
M  V30 3194 N 311.466 -4.62252 0.296131 0
M  V30 3195 C 312.201 -5.71379 0.480948 0
M  V30 3196 N 311.697 -6.88986 0.725933 0
M  V30 3197 N 313.49 -5.60563 0.415435 0
M  V30 3198 H 305.641 -1.79393 1.13718 0
M  V30 3199 H 307.904 -0.832414 0.453643 0
M  V30 3200 H 307.61 -3.32726 1.13958 0
M  V30 3201 H 307.484 -3.72963 -0.563773 0
M  V30 3202 H 309.871 -2.80394 -0.919948 0
M  V30 3203 H 309.952 -2.42736 0.807029 0
M  V30 3204 H 309.596 -4.89907 1.33992 0
M  V30 3205 H 309.526 -5.25039 -0.405212 0
M  V30 3206 H 312.017 -3.7773 0.113259 0
M  V30 3207 H 312.33 -7.68046 0.855857 0
M  V30 3208 H 310.675 -6.90801 0.762788 0
M  V30 3209 H 313.866 -4.67561 0.224486 0
M  V30 3210 H 314.039 -6.45551 0.562889 0
M  V30 3211 N 307.445 0.0818655 -1.57387 0
M  V30 3212 C 308.393 1.11712 -2.04018 0
M  V30 3213 C 309.387 1.40683 -0.94364 0
M  V30 3214 O 310.593 1.40209 -1.12878 0
M  V30 3215 H 306.968 0.377542 -0.650358 0
M  V30 3216 H 308.939 0.697614 -2.90131 0
M  V30 3217 C 307.688 2.42537 -2.49141 0
M  V30 3218 H 307.011 2.21092 -3.33104 0
M  V30 3219 H 308.451 3.13446 -2.85531 0
M  V30 3220 C 306.91 3.0778 -1.37014 0
M  V30 3221 O 307.44 3.95436 -0.706621 0
M  V30 3222 N 305.646 2.68242 -1.11779 0
M  V30 3223 H 305.193 1.97052 -1.65917 0
M  V30 3224 H 305.151 3.1222 -0.369594 0
M  V30 3225 N 308.923 1.53595 0.353017 0
M  V30 3226 C 310.17 1.70385 1.09431 0
M  V30 3227 C 310.498 0.462113 1.88931 0
M  V30 3228 O 309.753 -0.556074 1.87633 0
M  V30 3229 C 310.052 2.91313 2.07054 0
M  V30 3230 C 309.718 4.27308 1.43939 0
M  V30 3231 C 308.38 4.64287 1.26454 0
M  V30 3232 C 310.732 5.11829 0.983883 0
M  V30 3233 C 308.06 5.83412 0.620226 0
M  V30 3234 C 310.412 6.31611 0.353516 0
M  V30 3235 C 309.076 6.67293 0.166272 0
M  V30 3236 H 308.346 0.623484 0.400436 0
M  V30 3237 H 310.993 1.87799 0.374655 0
M  V30 3238 H 309.298 2.68463 2.85368 0
M  V30 3239 H 310.995 3.01497 2.64387 0
M  V30 3240 H 307.585 3.98198 1.58543 0
M  V30 3241 H 311.769 4.838 1.10685 0
M  V30 3242 H 307.025 6.09639 0.463681 0
M  V30 3243 H 311.199 6.964 -0.00757555 0
M  V30 3244 H 308.826 7.59461 -0.335047 0
M  V30 3245 N 310.401 -0.613514 1.45168 0
M  V30 3246 C 311.817 -0.933629 1.29443 0
M  V30 3247 C 312.017 -2.00028 0.243101 0
M  V30 3248 O 311.073 -2.49848 -0.364992 0
M  V30 3249 C 312.386 -1.38018 2.67155 0
M  V30 3250 C 313.934 -1.49471 2.75004 0
M  V30 3251 C 314.409 -1.97503 4.13227 0
M  V30 3252 N 315.9 -2.04746 4.15491 0
M  V30 3253 C 316.635 -2.43121 5.19307 0
M  V30 3254 N 316.131 -2.80506 6.33473 0
M  V30 3255 N 317.924 -2.43408 5.06664 0
M  V30 3256 H 310.075 0.0916097 2.12202 0
M  V30 3257 H 312.338 -0.0216655 0.947752 0
M  V30 3258 H 312.044 -0.670625 3.45247 0
M  V30 3259 H 311.918 -2.34784 2.95222 0
M  V30 3260 H 314.305 -2.19519 1.9722 0
M  V30 3261 H 314.386 -0.510342 2.50657 0
M  V30 3262 H 314.03 -1.28045 4.91495 0
M  V30 3263 H 313.96 -2.96843 4.34962 0
M  V30 3264 H 316.451 -1.78468 3.33103 0
M  V30 3265 H 316.764 -3.08652 7.08487 0
M  V30 3266 H 315.109 -2.78216 6.36884 0
M  V30 3267 H 318.3 -2.13604 4.16523 0
M  V30 3268 H 318.473 -2.72989 5.87691 0
M  V30 3269 N 311.879 -1.3236 -0.855495 0
M  V30 3270 C 313.29 -1.2056 -1.42556 0
M  V30 3271 C 313.641 0.182209 -1.95352 0
M  V30 3272 O 312.766 1.08088 -1.87472 0
M  V30 3273 C 313.361 -2.1826 -2.59129 0
M  V30 3274 C 311.92 -2.10351 -3.12137 0
M  V30 3275 C 311.067 -2.06674 -1.84882 0
M  V30 3276 H 314.018 -1.442 -0.662727 0
M  V30 3277 H 314.039 -1.78064 -3.36264 0
M  V30 3278 H 313.551 -3.19257 -2.20673 0
M  V30 3279 H 311.652 -1.12599 -3.55179 0
M  V30 3280 H 311.765 -3.00135 -3.73438 0
M  V30 3281 H 310.129 -1.51901 -2.04446 0
M  V30 3282 H 310.912 -3.09451 -1.48643 0
M  V30 3283 N 313.357 1.07166 -1.15556 0
M  V30 3284 C 314.605 1.79443 -0.929764 0
M  V30 3285 C 314.926 1.87246 0.544414 0
M  V30 3286 O 314.196 1.37473 1.39564 0
M  V30 3287 H 312.776 0.664625 -0.341003 0
M  V30 3288 H 315.438 1.29499 -1.45657 0
M  V30 3289 H 314.534 2.81832 -1.34079 0
M  V30 3290 N 314.835 0.952656 1.25548 0
M  V30 3291 C 316.063 0.623496 1.97282 0
M  V30 3292 C 316.478 -0.803987 1.70826 0
M  V30 3293 O 315.835 -1.53755 0.983147 0
M  V30 3294 C 315.886 0.870209 3.5087 0
M  V30 3295 O 315.607 2.24156 3.76412 0
M  V30 3296 C 317.108 0.553164 4.39835 0
M  V30 3297 H 314.328 0.233931 0.628902 0
M  V30 3298 H 316.872 1.27649 1.59768 0
M  V30 3299 H 315.027 0.263652 3.86502 0
M  V30 3300 H 315.441 2.31021 4.70882 0
M  V30 3301 H 316.915 0.776342 5.46513 0
M  V30 3302 H 317.392 -0.512215 4.36203 0
M  V30 3303 H 317.998 1.13896 4.09766 0
M  V30 3304 N 316.313 -1.40141 0.720998 0
M  V30 3305 C 317.223 -2.34486 0.0731031 0
M  V30 3306 C 318.239 -1.57587 -0.737723 0
M  V30 3307 O 319.415 -1.89949 -0.669429 0
M  V30 3308 C 316.48 -3.36528 -0.833656 0
M  V30 3309 C 315.541 -4.29298 -0.0121673 0
M  V30 3310 C 314.774 -5.26466 -0.875742 0
M  V30 3311 O 314.997 -5.29745 -2.11485 0
M  V30 3312 O 313.931 -6.01092 -0.31185 0
M  V30 3313 H 317.757 -2.9152 0.851444 0
M  V30 3314 H 315.342 -1.41427 0.481527 0
M  V30 3315 H 317.224 -3.99093 -1.35289 0
M  V30 3316 H 315.899 -2.81899 -1.59105 0
M  V30 3317 H 314.806 -3.70001 0.552262 0
M  V30 3318 H 316.139 -4.87094 0.707129 0
M  V30 3319 N 317.792 -0.46758 -1.50504 0
M  V30 3320 C 318.74 0.342482 -2.30065 0
M  V30 3321 C 319.734 0.993596 -1.37201 0
M  V30 3322 O 320.94 0.925102 -1.54408 0
M  V30 3323 H 317.315 0.129283 -0.740803 0
M  V30 3324 H 319.286 -0.34899 -2.96352 0
M  V30 3325 C 318.035 1.4139 -3.17654 0
M  V30 3326 H 317.358 0.922264 -3.89017 0
M  V30 3327 H 318.798 1.95335 -3.76325 0
M  V30 3328 C 317.257 2.4139 -2.35016 0
M  V30 3329 O 317.787 3.46586 -2.03079 0
M  V30 3330 N 315.993 2.13021 -1.97662 0
M  V30 3331 H 315.54 1.27499 -2.23834 0
M  V30 3332 H 315.498 2.80164 -1.42673 0
M  V30 3333 N 319.27 1.56325 -0.20005 0
M  V30 3334 C 320.498 2.02105 0.442874 0
M  V30 3335 C 320.913 1.08014 1.5485 0
M  V30 3336 O 320.27 0.0858797 1.82298 0
M  V30 3337 C 320.321 3.47549 0.994583 0
M  V30 3338 O 320.042 4.38049 -0.0669322 0
M  V30 3339 C 321.543 4.0887 1.7129 0
M  V30 3340 H 318.763 0.661807 0.110691 0
M  V30 3341 H 321.307 2.02134 -0.310207 0
M  V30 3342 H 319.462 3.48204 1.69803 0
M  V30 3343 H 319.876 5.23368 0.344462 0
M  V30 3344 H 321.35 5.12475 2.05118 0
M  V30 3345 H 321.827 3.52615 2.61838 0
M  V30 3346 H 322.433 4.12002 1.05518 0
M  V30 3347 N 320.748 -0.0735177 1.57428 0
M  V30 3348 C 322.159 -0.625551 1.75908 0
M  V30 3349 C 322.51 -1.78 0.825261 0
M  V30 3350 O 321.635 -2.16398 0.00893964 0
M  V30 3351 C 322.23 -1.14155 3.18989 0
M  V30 3352 C 320.789 -1.63946 3.38819 0
M  V30 3353 C 319.936 -0.558151 2.71625 0
M  V30 3354 H 322.887 0.152647 1.57964 0
M  V30 3355 H 322.908 -2.0104 3.23053 0
M  V30 3356 H 322.42 -0.301116 3.8693 0
M  V30 3357 H 320.521 -2.50321 2.7599 0
M  V30 3358 H 320.634 -1.71759 4.47253 0
M  V30 3359 H 318.998 -1.00278 2.34129 0
M  V30 3360 H 319.781 0.272071 3.4222 0
M  V30 3361 N 322.226 -1.5378 -0.344866 0
M  V30 3362 C 323.159 -1.7649 -1.4466 0
M  V30 3363 C 324.137 -0.613954 -1.50563 0
M  V30 3364 O 325.321 -0.84896 -1.683 0
M  V30 3365 C 322.448 -1.86235 -2.82903 0
M  V30 3366 C 321.494 -3.08375 -2.94631 0
M  V30 3367 S 322.327 -4.67457 -2.61236 0
M  V30 3368 C 323.483 -4.80079 -4.0159 0
M  V30 3369 H 323.716 -2.69661 -1.2518 0
M  V30 3370 H 321.249 -1.44632 -0.540455 0
M  V30 3371 H 323.207 -1.92535 -3.62547 0
M  V30 3372 H 321.868 -0.940786 -2.9968 0
M  V30 3373 H 321.061 -3.11865 -3.95925 0
M  V30 3374 H 320.663 -3.00294 -2.22934 0
M  V30 3375 H 322.955 -4.61407 -4.96094 0
M  V30 3376 H 323.898 -5.82168 -4.03095 0
M  V30 3377 H 324.306 -4.08544 -3.89554 0
M  V30 3378 N 323.704 0.605807 -1.45491 0
M  V30 3379 C 324.953 1.36086 -1.48874 0
M  V30 3380 C 325.266 1.95131 -0.135333 0
M  V30 3381 O 326.472 2.7146 -0.0468144 0
M  V30 3382 C 324.928 2.46518 -2.62215 0
M  V30 3383 C 324.536 1.93877 -4.03876 0
M  V30 3384 C 326.28 3.23512 -2.74846 0
M  V30 3385 C 324.187 3.01801 -5.08596 0
M  V30 3386 H 323.117 0.511497 -0.553974 0
M  V30 3387 H 325.768 0.649089 -1.71636 0
M  V30 3388 H 324.15 3.20388 -2.32739 0
M  V30 3389 H 325.324 1.26704 -4.43038 0
M  V30 3390 H 323.639 1.29622 -3.95711 0
M  V30 3391 H 326.236 4.04013 -3.50253 0
M  V30 3392 H 326.579 3.74631 -1.81542 0
M  V30 3393 H 327.112 2.56742 -3.03856 0
M  V30 3394 H 323.851 2.55597 -6.03614 0
M  V30 3395 H 323.371 3.67535 -4.74002 0
M  V30 3396 H 325.05 3.66152 -5.33424 0
M  V30 3397 N 325.182 1.32811 0.848464 0
M  V30 3398 C 326.145 1.22194 1.9391 0
M  V30 3399 C 327.145 0.143404 1.60159 0
M  V30 3400 O 328.335 0.394253 1.6968 0
M  V30 3401 C 325.467 0.88067 3.29328 0
M  V30 3402 H 326.66 2.19127 2.04752 0
M  V30 3403 H 324.213 1.16731 1.0394 0
M  V30 3404 H 324.948 -0.0865776 3.24184 0
M  V30 3405 H 324.733 1.66052 3.55203 0
M  V30 3406 H 326.223 0.830871 4.09251 0
M  V30 3407 N 326.66 -1.06551 1.16123 0
M  V30 3408 C 327.908 -1.78947 0.939267 0
M  V30 3409 C 328.229 -1.87532 -0.534476 0
M  V30 3410 O 327.499 -1.38211 -1.38833 0
M  V30 3411 H 326.079 -0.662807 0.344523 0
M  V30 3412 H 328.741 -1.28725 1.46342 0
M  V30 3413 H 327.837 -2.81117 1.35572 0
M  V30 3414 N 328.138 -0.959301 -1.25041 0
M  V30 3415 C 329.068 -0.501388 -2.28053 0
M  V30 3416 C 330.049 0.454673 -1.63911 0
M  V30 3417 O 331.234 0.352618 -1.90972 0
M  V30 3418 C 328.364 0.217224 -3.4662 0
M  V30 3419 C 327.318 -0.654034 -4.22973 0
M  V30 3420 C 326.644 0.195589 -5.34342 0
M  V30 3421 C 327.944 -1.93447 -4.85155 0
M  V30 3422 H 329.638 -1.36238 -2.66608 0
M  V30 3423 H 327.184 -0.656534 -1.28163 0
M  V30 3424 H 329.137 0.548732 -4.17812 0
M  V30 3425 H 327.861 1.1125 -3.07068 0
M  V30 3426 H 326.52 -0.968693 -3.5357 0
M  V30 3427 H 326.168 1.09076 -4.91031 0
M  V30 3428 H 325.868 -0.384091 -5.86343 0
M  V30 3429 H 327.392 0.521958 -6.08365 0
M  V30 3430 H 328.806 -1.66908 -5.48466 0
M  V30 3431 H 327.203 -2.46018 -5.47353 0
M  V30 3432 H 328.273 -2.63466 -4.07079 0
M  V30 3433 N 329.616 1.39756 -0.72842 0
M  V30 3434 C 330.864 2.00248 -0.272946 0
M  V30 3435 C 331.185 1.58077 1.14178 0
M  V30 3436 O 330.455 0.826014 1.77634 0
M  V30 3437 H 329.035 0.740554 -0.0979247 0
M  V30 3438 H 331.697 1.70903 -0.936912 0
M  V30 3439 H 330.793 3.10495 -0.316142 0
M  V30 3440 N 331.094 0.475555 1.50254 0
M  V30 3441 C 332.041 -0.316293 2.28622 0
M  V30 3442 C 333.011 -0.983227 1.33873 0
M  V30 3443 O 334.196 -0.994805 1.62814 0
M  V30 3444 C 331.336 -1.38975 3.1588 0
M  V30 3445 C 330.449 -0.737146 4.25664 0
M  V30 3446 C 329.584 -1.78887 5.00173 0
M  V30 3447 C 328.623 -1.11676 6.01826 0
M  V30 3448 N 327.76 -2.11154 6.69596 0
M  V30 3449 H 332.6 0.358297 2.95838 0
M  V30 3450 H 330.137 0.188541 1.45887 0
M  V30 3451 H 332.095 -2.02383 3.64825 0
M  V30 3452 H 330.725 -2.03344 2.50701 0
M  V30 3453 H 329.777 0.0096065 3.80399 0
M  V30 3454 H 331.089 -0.206816 4.98371 0
M  V30 3455 H 330.243 -2.49865 5.52859 0
M  V30 3456 H 328.982 -2.35302 4.27182 0
M  V30 3457 H 327.987 -0.392633 5.48396 0
M  V30 3458 H 329.212 -0.55945 6.76792 0
M  V30 3459 H 327.158 -2.66577 5.99394 0
M  V30 3460 H 327.075 -1.63118 7.38193 0
M  V30 3461 H 328.343 -2.81497 7.26897 0
M  V30 3462 N 332.573 -1.56217 0.208337 0
M  V30 3463 C 333.819 -1.98242 -0.427552 0
M  V30 3464 C 334.152 -1.09554 -1.60348 0
M  V30 3465 O 333.427 -0.15035 -1.93918 0
M  V30 3466 C 333.71 -3.4931 -0.874907 0
M  V30 3467 C 333.563 -4.48773 0.303751 0
M  V30 3468 C 334.882 -4.04424 -1.73577 0
M  V30 3469 H 332.001 -0.720744 -0.153936 0
M  V30 3470 H 334.643 -1.87586 0.30192 0
M  V30 3471 H 332.793 -3.58522 -1.49648 0
M  V30 3472 H 334.465 -4.51586 0.941682 0
M  V30 3473 H 332.708 -4.23194 0.953375 0
M  V30 3474 H 333.379 -5.51976 -0.0519883 0
M  V30 3475 H 335.855 -3.98075 -1.21143 0
M  V30 3476 H 334.731 -5.1047 -2.01771 0
M  V30 3477 H 334.992 -3.50494 -2.69456 0
M  V30 3478 N 334.051 0.0651679 -1.57465 0
M  V30 3479 C 335.276 0.779605 -1.9219 0
M  V30 3480 C 335.701 1.69988 -0.805333 0
M  V30 3481 O 335.059 1.79685 0.241435 0
M  V30 3482 C 335.107 1.54364 -3.2589 0
M  V30 3483 O 334.211 2.65474 -3.1559 0
M  V30 3484 H 333.552 0.212249 -0.629163 0
M  V30 3485 H 336.082 0.0314294 -2.04576 0
M  V30 3486 H 336.092 1.92146 -3.59922 0
M  V30 3487 H 334.767 0.868457 -4.06732 0
M  V30 3488 H 333.344 2.30501 -2.93128 0
M  V30 3489 N 335.529 1.53961 0.336706 0
M  V30 3490 C 336.94 1.62914 0.911925 0
M  V30 3491 C 337.291 0.514795 1.89326 0
M  V30 3492 O 336.416 -0.354395 2.13478 0
M  V30 3493 C 337.011 2.95304 1.66076 0
M  V30 3494 C 335.57 3.06496 2.18489 0
M  V30 3495 C 334.717 2.58403 1.00613 0
M  V30 3496 H 337.668 1.58285 0.114649 0
M  V30 3497 H 337.689 2.84727 2.5241 0
M  V30 3498 H 337.201 3.76387 0.946276 0
M  V30 3499 H 335.302 2.3006 2.93092 0
M  V30 3500 H 335.415 4.1208 2.44391 0
M  V30 3501 H 333.779 2.13977 1.38152 0
M  V30 3502 H 334.562 3.41932 0.306179 0
M  V30 3503 N 337.007 -0.598083 1.45811 0
M  V30 3504 C 338.255 -1.35413 1.50026 0
M  V30 3505 C 338.576 -1.94444 0.147177 0
M  V30 3506 O 337.846 -1.77701 -0.824571 0
M  V30 3507 H 336.426 -0.502727 0.552517 0
M  V30 3508 H 339.088 -0.701606 1.81834 0
M  V30 3509 H 338.184 -2.16871 2.2444 0
M  V30 3510 N 338.485 -1.33259 -0.841409 0
M  V30 3511 C 339.395 -1.25332 -1.98316 0
M  V30 3512 C 340.411 -0.164364 -1.73222 0
M  V30 3513 O 341.587 -0.387486 -1.97637 0
M  V30 3514 C 338.652 -0.990078 -3.32262 0
M  V30 3515 C 337.713 -2.16879 -3.70489 0
M  V30 3516 C 336.946 -1.91801 -4.98044 0
M  V30 3517 O 337.169 -0.867075 -5.63771 0
M  V30 3518 O 336.103 -2.78267 -5.33714 0
M  V30 3519 H 339.929 -2.21344 -2.07944 0
M  V30 3520 H 337.514 -1.1328 -0.974058 0
M  V30 3521 H 339.396 -0.860321 -4.12524 0
M  V30 3522 H 338.071 -0.0602155 -3.23644 0
M  V30 3523 H 336.978 -2.35407 -2.90748 0
M  V30 3524 H 338.311 -3.0819 -3.8377 0
M  V30 3525 N 339.963 1.05934 -1.16686 0
M  V30 3526 C 340.893 2.1546 -0.899949 0
M  V30 3527 C 341.874 1.69391 0.155154 0
M  V30 3528 O 343.059 1.94199 0.00648693 0
M  V30 3529 C 340.189 3.44939 -0.404241 0
M  V30 3530 C 339.143 4.04536 -1.39767 0
M  V30 3531 C 338.469 5.29268 -0.760216 0
M  V30 3532 C 339.769 4.42893 -2.76845 0
M  V30 3533 H 341.463 2.38046 -1.81588 0
M  V30 3534 H 339.009 1.14404 -0.874514 0
M  V30 3535 H 340.962 4.20901 -0.204971 0
M  V30 3536 H 339.686 3.21983 0.547206 0
M  V30 3537 H 338.345 3.30635 -1.58355 0
M  V30 3538 H 337.993 5.02611 0.197831 0
M  V30 3539 H 337.693 5.70101 -1.42332 0
M  V30 3540 H 339.217 6.07924 -0.57105 0
M  V30 3541 H 340.631 5.09921 -2.62019 0
M  V30 3542 H 339.028 4.94721 -3.39663 0
M  V30 3543 H 340.098 3.53584 -3.31823 0
M  V30 3544 N 341.441 0.965919 1.2453 0
M  V30 3545 C 342.351 0.502154 2.29163 0
M  V30 3546 C 343.367 -0.436017 1.68448 0
M  V30 3547 O 344.543 -0.309497 1.99008 0
M  V30 3548 C 341.608 -0.201956 3.46111 0
M  V30 3549 C 340.669 0.775821 4.22232 0
M  V30 3550 C 339.902 0.105217 5.33596 0
M  V30 3551 O 340.125 -1.10683 5.59558 0
M  V30 3552 O 339.059 0.796475 5.96607 0
M  V30 3553 H 342.885 1.37194 2.70946 0
M  V30 3554 H 340.47 0.732875 1.30189 0
M  V30 3555 H 342.352 -0.597564 4.17142 0
M  V30 3556 H 341.027 -1.04673 3.06309 0
M  V30 3557 H 339.934 1.22185 3.53584 0
M  V30 3558 H 341.267 1.58896 4.65846 0
M  V30 3559 N 342.919 -1.39368 0.735821 0
M  V30 3560 C 343.829 -2.34395 0.0979693 0
M  V30 3561 C 344.845 -1.58361 -0.720968 0
M  V30 3562 O 346.021 -1.90648 -0.649245 0
M  V30 3563 C 343.086 -3.37393 -0.797916 0
M  V30 3564 C 342.147 -4.29287 0.0333662 0
M  V30 3565 C 341.38 -5.27365 -0.819854 0
M  V30 3566 O 341.603 -5.31959 -2.05855 0
M  V30 3567 O 340.537 -6.01389 -0.248079 0
M  V30 3568 H 344.363 -2.90601 0.882315 0
M  V30 3569 H 341.948 -1.40909 0.4965 0
M  V30 3570 H 343.83 -4.00505 -1.31048 0
M  V30 3571 H 342.505 -2.83571 -1.56106 0
M  V30 3572 H 341.412 -3.69395 0.591475 0
M  V30 3573 H 342.745 -4.86317 0.758752 0
M  V30 3574 N 344.397 -0.483516 -1.5 0
M  V30 3575 C 345.33 0.350427 -2.25493 0
M  V30 3576 C 346.308 0.985549 -1.29328 0
M  V30 3577 O 347.492 1.01906 -1.58579 0
M  V30 3578 C 344.619 1.49202 -3.04066 0
M  V30 3579 C 343.665 0.973036 -4.15252 0
M  V30 3580 S 344.498 -0.122237 -5.3536 0
M  V30 3581 C 345.654 1.02294 -6.17484 0
M  V30 3582 H 345.887 -0.290381 -2.95878 0
M  V30 3583 H 343.42 -0.268562 -1.52046 0
M  V30 3584 H 345.378 2.14623 -3.49925 0
M  V30 3585 H 344.039 2.10438 -2.33183 0
M  V30 3586 H 343.232 1.82804 -4.69679 0
M  V30 3587 H 342.834 0.396335 -3.71894 0
M  V30 3588 H 345.126 1.93195 -6.49371 0
M  V30 3589 H 346.069 0.517664 -7.06205 0
M  V30 3590 H 346.477 1.28238 -5.49741 0
M  V30 3591 N 345.875 1.56104 -0.216619 0
M  V30 3592 C 347.1 2.0301 0.424462 0
M  V30 3593 C 347.525 1.0955 1.52907 0
M  V30 3594 O 346.883 0.0827914 1.81111 0
M  V30 3595 C 346.931 3.4819 0.937883 0
M  V30 3596 O 346.035 3.57865 2.04955 0
M  V30 3597 H 345.376 0.656925 0.0966755 0
M  V30 3598 H 347.906 2.01859 -0.33381 0
M  V30 3599 H 347.916 3.88413 1.24897 0
M  V30 3600 H 346.591 4.15699 0.129387 0
M  V30 3601 H 345.168 3.29527 1.74546 0
M  V30 3602 O 347.392 0.0802023 1.61301 0
M  V30 3603 H 348.083 -0.524716 1.86458 0
M  V30 END ATOM
M  V30 BEGIN BOND
M  V30 END BOND
M  V30 END CTAB
M  END
$$$$
