drugbank_target|Q59GM9 Alpha-1,4 glucan phosphorylase (DB00114)
 OpenBabel12092120063D

  0  0  0     0  0            999 V3000
M  V30 BEGIN CTAB
M  V30 COUNTS 13900 14062 0 0 0
M  V30 BEGIN ATOM
M  V30 1 H -0.908 1.98254 -0.117106 0
M  V30 2 N 0 1.576 0 0
M  V30 3 C 1.249 1.89747 0.684041 0
M  V30 4 C 1.562 0.87501 1.74937 0
M  V30 5 O 2.768 1.0867 2.48803 0
M  V30 6 C 1.224 3.36829 1.26783 0
M  V30 7 C 0.832 4.47371 0.237329 0
M  V30 8 C 2.576 3.78085 1.93007 0
M  V30 9 C 0.483 5.85531 0.831114 0
M  V30 10 H -0.587 0.708028 0.259253 0
M  V30 11 H 2.064 1.834 -0.060544 0
M  V30 12 H 0.446 3.38013 2.06309 0
M  V30 13 H 1.62 4.57703 -0.53333 0
M  V30 14 H -0.065 4.15134 -0.324463 0
M  V30 15 H 2.532 4.78644 2.38337 0
M  V30 16 H 2.875 3.116 2.76063 0
M  V30 17 H 3.408 3.79201 1.20215 0
M  V30 18 H 0.147 6.55488 0.0393298 0
M  V30 19 H -0.333 5.78862 1.57093 0
M  V30 20 H 1.346 6.33188 1.32975 0
M  V30 21 N 1.4781 -0.272755 1.55222 0
M  V30 22 C 2.8891 -0.84378 1.66545 0
M  V30 23 C 3.2401 -1.87035 0.592641 0
M  V30 24 O 2.3651 -2.14761 -0.265818 0
M  V30 25 C 2.9601 -1.53723 3.01918 0
M  V30 26 C 1.5191 -2.05628 3.15268 0
M  V30 27 C 0.6661 -0.898424 2.62343 0
M  V30 28 H 3.6171 -0.0490998 1.58624 0
M  V30 29 H 3.6381 -2.40421 2.94921 0
M  V30 30 H 3.1501 -0.78983 3.79978 0
M  V30 31 H 1.2511 -2.83329 2.41983 0
M  V30 32 H 1.3641 -2.27142 4.21833 0
M  V30 33 H -0.2719 -1.29186 2.19506 0
M  V30 34 H 0.5111 -0.164528 3.42906 0
M  V30 35 N 2.9562 -1.48159 -0.537278 0
M  V30 36 C 3.9192 -1.61665 -1.62472 0
M  V30 37 C 4.9192 -0.490395 -1.5314 0
M  V30 38 O 6.1092 -0.755998 -1.5694 0
M  V30 39 C 3.2412 -1.57997 -3.02076 0
M  V30 40 H 4.4342 -2.58621 -1.51839 0
M  V30 41 H 1.9872 -1.36647 -0.758771 0
M  V30 42 H 2.7222 -0.624913 -3.18222 0
M  V30 43 H 2.5072 -2.39755 -3.10258 0
M  V30 44 H 3.9972 -1.70627 -3.81151 0
M  V30 45 N 4.4343 0.785586 -1.36625 0
M  V30 46 C 5.6813 1.54362 -1.31067 0
M  V30 47 C 6.0093 1.94195 0.10893 0
M  V30 48 O 5.2643 1.63262 1.07908 0
M  V30 49 C 5.5633 2.83007 -2.1827 0
M  V30 50 C 5.2293 2.62294 -3.6676 0
M  V30 51 C 3.8913 2.56353 -4.0723 0
M  V30 52 C 6.2433 2.43371 -4.6089 0
M  V30 53 C 3.5713 2.29461 -5.39967 0
M  V30 54 C 5.9233 2.18005 -5.93849 0
M  V30 55 C 4.5873 2.105 -6.3344 0
M  V30 56 H 3.8573 0.564851 -0.479609 0
M  V30 57 H 6.5043 0.906028 -1.68711 0
M  V30 58 H 4.8093 3.51253 -1.73576 0
M  V30 59 H 6.5063 3.40817 -2.11292 0
M  V30 60 H 3.0963 2.67774 -3.34656 0
M  V30 61 H 7.2803 2.46959 -4.30494 0
M  V30 62 H 2.5363 2.22135 -5.69619 0
M  V30 63 H 6.7103 2.02359 -6.66351 0
M  V30 64 H 4.3373 1.89425 -7.36222 0
M  V30 65 N 5.9124 1.20967 1.01018 0
M  V30 66 C 6.8754 0.965918 2.07853 0
M  V30 67 C 7.8754 -0.0610545 1.60684 0
M  V30 68 O 9.0654 0.175681 1.73312 0
M  V30 69 C 6.1974 0.455513 3.37843 0
M  V30 70 H 7.3904 1.91365 2.3091 0
M  V30 71 H 4.9434 1.02594 1.17916 0
M  V30 72 H 5.6784 -0.497381 3.20463 0
M  V30 73 H 5.4634 1.19622 3.73407 0
M  V30 74 H 6.9534 0.304667 4.16487 0
M  V30 75 N 7.3905 -1.2043 1.01659 0
M  V30 76 C 8.6305 -1.91507 0.714456 0
M  V30 77 C 8.9945 -1.77073 -0.742237 0
M  V30 78 O 10.1955 -2.42631 -1.15688 0
M  V30 79 C 8.4665 -3.38795 1.13809 0
M  V30 80 S 10.0255 -4.28216 0.957925 0
M  V30 81 H 6.8435 -0.661571 0.260471 0
M  V30 82 H 9.4455 -1.45671 1.30384 0
M  V30 83 H 8.1495 -3.46822 2.19415 0
M  V30 84 H 7.6805 -3.89656 0.541474 0
M  V30 85 H 9.6955 -4.96007 -0.138531 0
M  V30 86 N 8.8686 -0.792821 -1.36206 0
M  V30 87 C 9.8316 -0.199459 -2.2833 0
M  V30 88 C 10.8316 0.605189 -1.48977 0
M  V30 89 O 12.0216 0.425685 -1.68919 0
M  V30 90 C 9.1536 0.723523 -3.33134 0
M  V30 91 H 10.3466 -1.01181 -2.82316 0
M  V30 92 H 7.8996 -0.562485 -1.45828 0
M  V30 93 H 8.6346 1.56008 -2.84309 0
M  V30 94 H 8.4196 0.148436 -3.91819 0
M  V30 95 H 9.9096 1.13344 -4.01924 0
M  V30 96 N 10.3467 1.47872 -0.545128 0
M  V30 97 C 11.3097 2.28337 0.198717 0
M  V30 98 C 12.3097 1.36255 0.853888 0
M  V30 99 O 13.4997 1.59003 0.711606 0
M  V30 100 C 10.6317 3.15585 1.28915 0
M  V30 101 H 11.8247 2.95567 -0.507941 0
M  V30 102 H 9.3777 1.53362 -0.301616 0
M  V30 103 H 10.1127 2.53019 2.02859 0
M  V30 104 H 9.8977 3.83337 0.824309 0
M  V30 105 H 11.3877 3.76243 1.81194 0
M  V30 106 N 11.8248 0.280983 1.55075 0
M  V30 107 C 12.7878 -0.590896 2.21452 0
M  V30 108 C 13.7878 -1.07682 1.19421 0
M  V30 109 O 14.9778 -0.97605 1.44288 0
M  V30 110 C 12.1098 -1.81587 2.88511 0
M  V30 111 H 13.3028 -0.0112554 2.99898 0
M  V30 112 H 10.8558 0.0316438 1.56268 0
M  V30 113 H 11.5908 -2.43587 2.14093 0
M  V30 114 H 11.3758 -1.4753 3.63287 0
M  V30 115 H 12.8658 -2.43575 3.39206 0
M  V30 116 N 13.3029 -1.57598 0.00835791 0
M  V30 117 C 14.5499 -1.90928 -0.674732 0
M  V30 118 C 14.8779 -0.88277 -1.73313 0
M  V30 119 O 14.1329 0.111294 -1.95383 0
M  V30 120 C 14.4319 -3.3101 -1.34787 0
M  V30 121 C 14.0979 -4.48922 -0.421861 0
M  V30 122 C 12.7599 -4.8091 -0.166927 0
M  V30 123 C 15.1119 -5.20755 0.215211 0
M  V30 124 C 12.4399 -5.821 0.733232 0
M  V30 125 C 14.7919 -6.22905 1.1033 0
M  V30 126 C 13.4559 -6.53346 1.36733 0
M  V30 127 H 12.7259 -0.698656 -0.246902 0
M  V30 128 H 15.3729 -1.91387 0.0656779 0
M  V30 129 H 13.6779 -3.26714 -2.16253 0
M  V30 130 H 15.3749 -3.54061 -1.8826 0
M  V30 131 H 11.9649 -4.23934 -0.630729 0
M  V30 132 H 16.1489 -4.9629 0.0312829 0
M  V30 133 H 11.4049 -6.04042 0.945712 0
M  V30 134 H 15.5789 -6.77694 1.60325 0
M  V30 135 H 13.2059 -7.31573 2.06652 0
M  V30 136 N 14.781 0.264519 -1.55364 0
M  V30 137 C 15.711 1.33121 -1.91836 0
M  V30 138 C 16.692 1.51101 -0.781192 0
M  V30 139 O 17.877 1.64003 -1.04003 0
M  V30 140 C 15.007 2.68921 -2.19769 0
M  V30 141 C 13.961 2.65661 -3.35571 0
M  V30 142 C 13.287 4.05093 -3.49004 0
M  V30 143 C 14.587 2.24187 -4.71739 0
M  V30 144 H 16.281 1.02844 -2.81182 0
M  V30 145 H 13.827 0.493286 -1.35287 0
M  V30 146 H 15.78 3.43663 -2.43872 0
M  V30 147 H 14.504 3.00799 -1.27231 0
M  V30 148 H 13.163 1.93377 -3.1145 0
M  V30 149 H 12.811 4.34206 -2.53917 0
M  V30 150 H 12.511 4.03804 -4.26868 0
M  V30 151 H 14.035 4.81561 -3.75408 0
M  V30 152 H 15.449 2.88654 -4.9533 0
M  V30 153 H 13.846 2.34044 -5.52579 0
M  V30 154 H 14.916 1.19327 -4.69988 0
M  V30 155 N 16.2591 1.48442 0.529413 0
M  V30 156 C 17.1891 1.65902 1.64313 0
M  V30 157 C 18.1701 0.507897 1.6234 0
M  V30 158 O 19.3551 0.740503 1.79528 0
M  V30 159 C 16.4851 1.69911 3.02898 0
M  V30 160 C 15.4391 2.8453 3.19729 0
M  V30 161 C 14.7651 2.73629 4.59381 0
M  V30 162 C 16.0651 4.25821 3.02447 0
M  V30 163 H 17.7591 2.5914 1.49955 0
M  V30 164 H 15.3051 1.24709 0.719982 0
M  V30 165 H 17.2581 1.80715 3.80684 0
M  V30 166 H 15.9821 0.732524 3.18279 0
M  V30 167 H 14.6411 2.73283 2.44361 0
M  V30 168 H 14.2891 1.74938 4.71599 0
M  V30 169 H 13.9891 3.50541 4.71588 0
M  V30 170 H 15.5131 2.86401 5.39265 0
M  V30 171 H 16.9271 4.37898 3.70024 0
M  V30 172 H 15.3241 5.03735 3.26146 0
M  V30 173 H 16.3941 4.42244 1.98867 0
M  V30 174 N 17.7372 -0.778329 1.37039 0
M  V30 175 C 18.6872 -1.88142 1.28789 0
M  V30 176 C 19.6712 -1.59923 0.177063 0
M  V30 177 O 20.8632 -1.72165 0.410873 0
M  V30 178 C 17.9922 -3.25518 1.09055 0
M  V30 179 C 17.0782 -3.5971 2.24654 0
M  V30 180 N 17.4692 -3.65131 3.50018 0
M  V30 181 C 15.7672 -3.89837 2.16663 0
M  V30 182 C 16.4682 -3.95882 4.26207 0
M  V30 183 N 15.4442 -4.11441 3.55271 0
M  V30 184 H 19.2462 -1.90575 2.23737 0
M  V30 185 H 16.7602 -0.974435 1.29917 0
M  V30 186 H 18.7572 -4.04423 1.0123 0
M  V30 187 H 17.4172 -3.24353 0.15018 0
M  V30 188 H 18.4282 -3.475 3.84011 0
M  V30 189 H 15.1052 -3.96533 1.30645 0
M  V30 190 H 16.4952 -4.06907 5.34674 0
M  V30 191 N 19.2153 -1.21501 -1.00376 0
M  V30 192 C 20.1453 -0.999478 -2.11028 0
M  V30 193 C 21.1263 0.0759671 -1.6993 0
M  V30 194 O 22.3113 -0.0841106 -1.94018 0
M  V30 195 C 19.4413 -0.564709 -3.42678 0
M  V30 196 C 18.3953 -1.58486 -3.97576 0
M  V30 197 C 17.7213 -1.00628 -5.25146 0
M  V30 198 C 19.0213 -2.97204 -4.29496 0
M  V30 199 H 20.7153 -1.92495 -2.29317 0
M  V30 200 H 18.2613 -0.92693 -1.102 0
M  V30 201 H 20.2143 -0.401091 -4.19487 0
M  V30 202 H 18.9383 0.396411 -3.24185 0
M  V30 203 H 17.5973 -1.73606 -3.22888 0
M  V30 204 H 17.2453 -0.0368439 -5.02987 0
M  V30 205 H 16.9453 -1.68771 -5.62841 0
M  V30 206 H 18.4693 -0.854015 -6.04598 0
M  V30 207 H 19.8833 -2.8552 -4.97143 0
M  V30 208 H 18.2803 -3.62372 -4.78338 0
M  V30 209 H 19.3503 -3.47956 -3.3772 0
M  V30 210 N 20.6934 1.19889 -1.02296 0
M  V30 211 C 21.9404 1.8942 -0.715972 0
M  V30 212 C 22.2684 1.79251 0.754944 0
M  V30 213 O 21.5234 1.17526 1.56481 0
M  V30 214 C 21.8224 3.39883 -1.10518 0
M  V30 215 C 21.4884 3.70254 -2.57337 0
M  V30 216 C 20.1504 3.78254 -2.97452 0
M  V30 217 C 22.5024 3.84052 -3.52354 0
M  V30 218 C 19.8304 3.97514 -4.31509 0
M  V30 219 C 22.1824 4.04824 -4.86108 0
M  V30 220 C 20.8464 4.11054 -5.25919 0
M  V30 221 H 20.1164 0.693138 -0.261993 0
M  V30 222 H 22.7634 1.42012 -1.28472 0
M  V30 223 H 21.0684 3.8915 -0.454953 0
M  V30 224 H 22.7654 3.9199 -0.845261 0
M  V30 225 H 19.3554 3.64632 -2.25258 0
M  V30 226 H 23.5394 3.77221 -3.22518 0
M  V30 227 H 18.7954 4.00574 -4.61898 0
M  V30 228 H 22.9694 4.14442 -5.59653 0
M  V30 229 H 20.5964 4.2573 -6.29808 0
M  V30 230 N 22.1715 0.800033 1.35784 0
M  V30 231 C 23.3965 0.388511 2.03729 0
M  V30 232 C 23.8215 -0.990481 1.5991 0
M  V30 233 O 23.1795 -1.64013 0.772612 0
M  V30 234 C 23.2275 0.4726 3.5749 0
M  V30 235 O 22.3315 -0.51646 4.09153 0
M  V30 236 H 21.6725 0.163271 0.643614 0
M  V30 237 H 24.2025 1.0841 1.73518 0
M  V30 238 H 24.2125 0.34003 4.06581 0
M  V30 239 H 22.8875 1.47848 3.88734 0
M  V30 240 H 21.4645 -0.344673 3.71304 0
M  V30 241 N 23.6496 -1.47581 0.552962 0
M  V30 242 C 24.8746 -2.07378 0.0300593 0
M  V30 243 C 25.2996 -1.40355 -1.25229 0
M  V30 244 O 24.6576 -0.477099 -1.7491 0
M  V30 245 C 24.7056 -3.60274 -0.153231 0
M  V30 246 O 23.8096 -3.94041 -1.21678 0
M  V30 247 H 23.1506 -0.662158 0.0494182 0
M  V30 248 H 25.6806 -1.89662 0.767434 0
M  V30 249 H 25.6906 -4.0633 -0.368761 0
M  V30 250 H 24.3656 -4.08455 0.783397 0
M  V30 251 H 22.9426 -3.59735 -0.982079 0
M  V30 252 N 25.1277 -0.289203 -1.54924 0
M  V30 253 C 26.0907 0.579144 -2.21762 0
M  V30 254 C 27.0907 1.07047 -1.1999 0
M  V30 255 O 28.2807 0.968384 -1.44803 0
M  V30 256 C 25.4127 1.80055 -2.8947 0
M  V30 257 H 26.6057 -0.00464908 -2.999 0
M  V30 258 H 24.1587 -0.0399306 -1.56249 0
M  V30 259 H 24.8937 2.42449 -2.15381 0
M  V30 260 H 24.6787 1.45602 -3.64064 0
M  V30 261 H 26.1687 2.41773 -3.40493 0
M  V30 262 N 26.6058 1.57591 -0.0167156 0
M  V30 263 C 27.8308 1.9598 0.67872 0
M  V30 264 C 28.2558 0.892546 1.65575 0
M  V30 265 O 27.6138 -0.147772 1.80697 0
M  V30 266 C 27.6618 3.33468 1.37227 0
M  V30 267 O 26.7658 3.28954 2.48722 0
M  V30 268 H 26.1068 0.639339 0.17928 0
M  V30 269 H 28.6368 2.04463 -0.0748802 0
M  V30 270 H 28.6468 3.69417 1.7319 0
M  V30 271 H 27.3218 4.10694 0.656007 0
M  V30 272 H 25.8988 3.04705 2.14963 0
M  V30 273 N 28.0839 -0.256276 1.55502 0
M  V30 274 C 29.0469 -1.30047 1.88734 0
M  V30 275 C 30.0469 -1.4154 0.763086 0
M  V30 276 O 31.2369 -1.40403 1.03115 0
M  V30 277 C 28.3689 -2.67953 2.10747 0
M  V30 278 H 29.5619 -1.01802 2.82093 0
M  V30 279 H 27.1149 -0.495134 1.4825 0
M  V30 280 H 27.8499 -3.01351 1.19825 0
M  V30 281 H 27.6349 -2.60993 2.92617 0
M  V30 282 H 29.1249 -3.43368 2.37673 0
M  V30 283 N 29.562 -1.4872 -0.521534 0
M  V30 284 C 30.81 -1.56857 -1.27437 0
M  V30 285 C 31.131 -0.247982 -1.93417 0
M  V30 286 O 30.401 0.731151 -1.81744 0
M  V30 287 H 28.981 -0.577885 -0.473347 0
M  V30 288 H 31.643 -1.85233 -0.606205 0
M  V30 289 H 30.739 -2.35402 -2.0492 0
M  V30 290 N 31.0401 0.771051 -1.3745 0
M  V30 291 C 32.0031 1.86598 -1.33093 0
M  V30 292 C 33.0031 1.59076 -0.234845 0
M  V30 293 O 34.1931 1.67145 -0.490732 0
M  V30 294 C 31.3251 3.23747 -1.06773 0
M  V30 295 H 32.5181 1.91873 -2.30488 0
M  V30 296 H 30.0711 0.970876 -1.2249 0
M  V30 297 H 30.8061 3.24148 -0.099129 0
M  V30 298 H 30.5911 3.45115 -1.86112 0
M  V30 299 H 32.0811 4.03824 -1.06377 0
M  V30 300 N 32.5182 1.22032 0.997298 0
M  V30 301 C 33.4512 0.929735 2.08401 0
M  V30 302 C 34.4292 -0.125681 1.62114 0
M  V30 303 O 35.6132 0.00495409 1.88499 0
M  V30 304 C 32.7402 0.397488 3.3636 0
M  V30 305 C 31.7862 1.4369 4.01566 0
M  V30 306 S 32.6192 3.00874 4.42984 0
M  V30 307 C 33.7752 2.49276 5.74119 0
M  V30 308 H 34.0082 1.84998 2.32729 0
M  V30 309 H 31.5412 1.0509 1.13117 0
M  V30 310 H 33.4992 0.0969846 4.10385 0
M  V30 311 H 32.1602 -0.501571 3.10069 0
M  V30 312 H 31.3532 1.01427 4.93689 0
M  V30 313 H 30.9552 1.68588 3.33847 0
M  V30 314 H 33.2472 1.90242 6.50242 0
M  V30 315 H 34.1902 3.39872 6.21203 0
M  V30 316 H 34.5982 1.90714 5.31308 0
M  V30 317 N 33.9963 -1.19345 1.0293 0
M  V30 318 C 34.9593 -2.20793 0.615069 0
M  V30 319 C 35.9593 -1.57553 -0.321533 0
M  V30 320 O 37.1493 -1.73862 -0.108483 0
M  V30 321 C 34.2813 -3.40754 -0.0999222 0
M  V30 322 H 35.4743 -2.58955 1.51269 0
M  V30 323 H 33.0273 -1.3303 0.820534 0
M  V30 324 H 33.7623 -3.0811 -1.01187 0
M  V30 325 H 33.5473 -3.87889 0.57309 0
M  V30 326 H 35.0373 -4.15898 -0.376645 0
M  V30 327 N 35.4744 -0.807222 -1.35358 0
M  V30 328 C 36.4214 -0.216037 -2.29787 0
M  V30 329 C 37.3914 0.650278 -1.52842 0
M  V30 330 O 38.5764 0.595227 -1.81278 0
M  V30 331 C 35.7164 0.628893 -3.39321 0
M  V30 332 C 34.8294 -0.257927 -4.31229 0
M  V30 333 C 33.9644 0.595069 -5.27856 0
M  V30 334 C 33.0034 -0.292111 -6.11403 0
M  V30 335 N 32.1404 0.520895 -7.00165 0
M  V30 336 H 36.9804 -1.02671 -2.79755 0
M  V30 337 H 34.5174 -0.517839 -1.37684 0
M  V30 338 H 36.4754 1.13393 -4.01494 0
M  V30 339 H 35.1054 1.40482 -2.90628 0
M  V30 340 H 34.1574 -0.881076 -3.70056 0
M  V30 341 H 35.4694 -0.940759 -4.89848 0
M  V30 342 H 34.6234 1.16522 -5.95405 0
M  V30 343 H 33.3624 1.31146 -4.69736 0
M  V30 344 H 32.3674 -0.874525 -5.428 0
M  V30 345 H 33.5924 -1.00638 -6.71602 0
M  V30 346 H 31.5384 1.22125 -6.44532 0
M  V30 347 H 31.4554 -0.103877 -7.55929 0
M  V30 348 H 32.7234 1.0743 -7.72062 0
M  V30 349 N 36.9525 1.47285 -0.560781 0
M  V30 350 C 38.3635 1.86258 -0.128343 0
M  V30 351 C 38.7145 1.46699 1.30284 0
M  V30 352 O 37.8395 0.871698 1.98067 0
M  V30 353 C 38.4345 3.38044 -0.22614 0
M  V30 354 C 36.9935 3.76096 0.151283 0
M  V30 355 C 36.1405 2.71335 -0.572084 0
M  V30 356 H 39.0915 1.38752 -0.770297 0
M  V30 357 H 39.1125 3.76441 0.554322 0
M  V30 358 H 38.6245 3.66806 -1.26788 0
M  V30 359 H 36.7255 3.52951 1.19399 0
M  V30 360 H 36.8385 4.78641 -0.209765 0
M  V30 361 H 35.2025 2.54696 -0.0147653 0
M  V30 362 H 35.9855 3.02938 -1.61504 0
M  V30 363 N 38.4306 0.297415 1.54768 0
M  V30 364 C 39.3606 -0.573494 2.26348 0
M  V30 365 C 40.3416 -1.14085 1.26169 0
M  V30 366 O 41.5266 -1.17086 1.54934 0
M  V30 367 C 38.6566 -1.74716 3.00153 0
M  V30 368 C 37.6106 -1.31032 4.07449 0
M  V30 369 C 36.9366 -2.56887 4.68949 0
M  V30 370 C 38.2366 -0.444183 5.20408 0
M  V30 371 H 39.9306 0.0235131 2.99391 0
M  V30 372 H 37.4766 0.0127488 1.43994 0
M  V30 373 H 39.4296 -2.3625 3.48947 0
M  V30 374 H 38.1536 -2.37035 2.24682 0
M  V30 375 H 36.8126 -0.718066 3.59499 0
M  V30 376 H 36.4606 -3.17512 3.90122 0
M  V30 377 H 36.1606 -2.2836 5.41411 0
M  V30 378 H 37.6846 -3.19229 5.20505 0
M  V30 379 H 39.0986 -0.9651 5.65118 0
M  V30 380 H 37.4956 -0.252846 5.99567 0
M  V30 381 H 38.5656 0.531609 4.81977 0
M  V30 382 N 39.9087 -1.5758 0.0250728 0
M  V30 383 C 41.1367 -1.9593 -0.664747 0
M  V30 384 C 41.5517 -0.901352 -1.65895 0
M  V30 385 O 40.9087 0.117255 -1.82123 0
M  V30 386 C 40.9597 -3.34342 -1.37468 0
M  V30 387 O 40.6807 -4.36079 -0.420324 0
M  V30 388 C 42.1817 -3.873 -2.1567 0
M  V30 389 H 39.4017 -0.645405 -0.183557 0
M  V30 390 H 41.9457 -2.04329 0.0836372 0
M  V30 391 H 40.1007 -3.27175 -2.0745 0
M  V30 392 H 40.5147 -5.16297 -0.923991 0
M  V30 393 H 41.9887 -4.86504 -2.60803 0
M  V30 394 H 42.4657 -3.21331 -2.99405 0
M  V30 395 H 43.0717 -3.97723 -1.50654 0
M  V30 396 N 41.3868 0.248026 -1.55636 0
M  V30 397 C 42.6638 0.998988 -1.68165 0
M  V30 398 C 43.0438 2.03409 -0.564621 0
M  V30 399 O 42.3918 2.24378 0.432076 0
M  V30 400 C 42.6018 1.63334 -3.0842 0
M  V30 401 C 43.9498 2.13562 -3.66983 0
M  V30 402 O 44.9738 1.73277 -3.11213 0
M  V30 403 O 43.8328 2.87526 -4.64749 0
M  V30 404 H 40.9268 0.464933 -0.683935 0
M  V30 405 H 43.4728 0.241902 -1.67967 0
M  V30 406 H 42.2448 0.884583 -3.8117 0
M  V30 407 H 41.8678 2.45666 -3.12624 0
M  V30 408 N 42.8649 1.48995 0.513639 0
M  V30 409 C 44.0899 1.61792 1.29762 0
M  V30 410 C 44.5149 0.284475 1.85936 0
M  V30 411 O 43.8729 -0.746185 1.65232 0
M  V30 412 C 43.9209 2.67993 2.41272 0
M  V30 413 O 43.0249 2.26287 3.44772 0
M  V30 414 H 42.3659 0.541963 0.38363 0
M  V30 415 H 44.8959 1.95097 0.616307 0
M  V30 416 H 44.9059 2.89772 2.87221 0
M  V30 417 H 43.5809 3.64791 1.9975 0
M  V30 418 H 42.1579 2.14788 3.04829 0
M  V30 419 N 44.343 -0.763751 1.37857 0
M  V30 420 C 45.253 -1.90817 1.36478 0
M  V30 421 C 46.269 -1.71997 0.263248 0
M  V30 422 O 47.445 -1.95095 0.499979 0
M  V30 423 C 44.51 -3.2605 1.17864 0
M  V30 424 C 43.571 -3.57467 2.3773 0
M  V30 425 C 42.804 -4.86249 2.19995 0
M  V30 426 O 43.027 -5.57884 1.18836 0
M  V30 427 O 41.961 -5.16911 3.08361 0
M  V30 428 H 45.787 -1.94933 2.32884 0
M  V30 429 H 43.372 -0.907619 1.1867 0
M  V30 430 H 45.254 -4.06924 1.09504 0
M  V30 431 H 43.929 -3.22769 0.245372 0
M  V30 432 H 42.836 -2.76796 2.51664 0
M  V30 433 H 44.169 -3.655 3.29652 0
M  V30 434 N 45.8211 -1.22559 -0.990812 0
M  V30 435 C 46.7681 -0.997519 -2.0813 0
M  V30 436 C 47.7381 0.0814702 -1.659 0
M  V30 437 O 48.9231 -0.0685424 -1.90677 0
M  V30 438 C 46.0631 -0.583615 -3.40129 0
M  V30 439 C 45.1761 -1.7336 -3.9569 0
M  V30 440 C 44.3111 -1.26748 -5.15857 0
M  V30 441 C 43.3501 -2.38888 -5.63559 0
M  V30 442 N 42.4871 -1.93308 -6.74964 0
M  V30 443 H 47.3271 -1.93099 -2.26973 0
M  V30 444 H 44.8641 -0.962114 -1.11273 0
M  V30 445 H 46.8221 -0.324801 -4.15934 0
M  V30 446 H 45.4521 0.312845 -3.2128 0
M  V30 447 H 44.5041 -2.10669 -3.16738 0
M  V30 448 H 45.8161 -2.57704 -4.27071 0
M  V30 449 H 44.9701 -0.966173 -5.98957 0
M  V30 450 H 43.7091 -0.394272 -4.86104 0
M  V30 451 H 42.7141 -2.69805 -4.79046 0
M  V30 452 H 43.9391 -3.26728 -5.95336 0
M  V30 453 H 41.8851 -1.08352 -6.4699 0
M  V30 454 H 41.8021 -2.71217 -7.05675 0
M  V30 455 H 43.0701 -1.66252 -7.61564 0
M  V30 456 N 47.2992 1.18797 -1.03562 0
M  V30 457 C 48.7152 1.40671 -0.753917 0
M  V30 458 C 48.9152 1.9043 0.658686 0
M  V30 459 O 47.9712 2.08538 1.42366 0
M  V30 460 C 49.2842 2.41192 -1.79574 0
M  V30 461 C 50.8322 2.54928 -1.81606 0
M  V30 462 C 51.3072 3.58709 -2.84766 0
M  V30 463 N 52.7982 3.66212 -2.83625 0
M  V30 464 C 53.5332 4.46225 -3.60098 0
M  V30 465 N 53.0292 5.29888 -4.46308 0
M  V30 466 N 54.8222 4.40939 -3.4861 0
M  V30 467 H 46.9732 0.848221 -1.94728 0
M  V30 468 H 49.2362 0.435081 -0.842264 0
M  V30 469 H 48.9422 2.11669 -2.80872 0
M  V30 470 H 48.8162 3.40467 -1.62365 0
M  V30 471 H 51.2032 2.83771 -0.809817 0
M  V30 472 H 51.2842 1.55784 -2.02891 0
M  V30 473 H 50.9282 3.30607 -3.85566 0
M  V30 474 H 50.8582 4.57519 -2.60737 0
M  V30 475 H 53.3492 3.06466 -2.21105 0
M  V30 476 H 53.6622 5.88078 -5.01382 0
M  V30 477 H 52.0072 5.29326 -4.50377 0
M  V30 478 H 55.1982 3.74624 -2.80668 0
M  V30 479 H 55.3712 5.03056 -4.08459 0
M  V30 480 N 48.7773 0.814389 1.34928 0
M  V30 481 C 49.7243 0.22822 2.29669 0
M  V30 482 C 50.6943 -0.642164 1.53184 0
M  V30 483 O 51.8793 -0.585605 1.81591 0
M  V30 484 C 49.0193 -0.61089 3.3965 0
M  V30 485 C 48.1323 0.280792 4.31086 0
M  V30 486 C 47.2673 -0.567067 5.28165 0
M  V30 487 C 46.3063 0.324531 6.11239 0
M  V30 488 N 45.4433 -0.483756 7.00431 0
M  V30 489 H 50.2833 1.04153 2.79206 0
M  V30 490 H 47.8203 0.525133 1.37407 0
M  V30 491 H 49.7783 -1.11263 4.0209 0
M  V30 492 H 48.4083 -1.38939 2.91369 0
M  V30 493 H 47.4603 0.900688 3.69583 0
M  V30 494 H 48.7723 0.966723 4.89342 0
M  V30 495 H 47.9263 -1.13363 5.96015 0
M  V30 496 H 46.6653 -1.28654 4.70425 0
M  V30 497 H 45.6703 0.903298 5.42329 0
M  V30 498 H 46.8953 1.04198 6.71059 0
M  V30 499 H 44.8413 -1.18706 6.45171 0
M  V30 500 H 44.7583 0.143965 7.55863 0
M  V30 501 H 46.0263 -1.03334 7.7262 0
M  V30 502 N 50.2554 -1.46986 0.568584 0
M  V30 503 C 51.1874 -2.28233 -0.210337 0
M  V30 504 C 52.2004 -1.37682 -0.868767 0
M  V30 505 O 53.3894 -1.62406 -0.740705 0
M  V30 506 C 50.4894 -3.12293 -1.3163 0
M  V30 507 C 49.6624 -4.30878 -0.7525 0
M  V30 508 C 48.7214 -4.96445 -1.74439 0
M  V30 509 O 47.7474 -5.54482 -1.286 0
M  V30 510 N 48.9494 -4.92171 -3.07812 0
M  V30 511 H 51.7144 -2.95723 0.486648 0
M  V30 512 H 49.2754 -1.56742 0.405409 0
M  V30 513 H 51.2674 -3.53022 -1.97883 0
M  V30 514 H 49.8374 -2.46971 -1.91636 0
M  V30 515 H 49.0574 -3.94104 0.0871128 0
M  V30 516 H 50.3454 -5.07558 -0.35536 0
M  V30 517 H 49.7434 -4.46239 -3.47688 0
M  V30 518 H 48.3004 -5.36884 -3.69592 0
M  V30 519 N 51.7335 -0.305618 -1.54608 0
M  V30 520 C 52.9825 0.303098 -1.9941 0
M  V30 521 C 53.2955 1.54648 -1.19764 0
M  V30 522 O 54.5015 2.23007 -1.54855 0
M  V30 523 C 52.9575 0.590588 -3.55021 0
M  V30 524 C 52.5655 -0.634719 -4.43481 0
M  V30 525 C 54.3095 1.16025 -4.08336 0
M  V30 526 C 52.2165 -0.320126 -5.90533 0
M  V30 527 H 51.1465 0.117031 -0.744862 0
M  V30 528 H 53.7975 -0.415045 -1.78745 0
M  V30 529 H 52.1795 1.36845 -3.71604 0
M  V30 530 H 53.3535 -1.41079 -4.38672 0
M  V30 531 H 51.6685 -1.12333 -4.00962 0
M  V30 532 H 54.2655 1.40994 -5.15776 0
M  V30 533 H 54.6085 2.10397 -3.5922 0
M  V30 534 H 55.1415 0.443985 -3.95315 0
M  V30 535 H 51.8805 -1.23254 -6.43808 0
M  V30 536 H 51.4005 0.418579 -5.98338 0
M  V30 537 H 53.0795 0.0766241 -6.46955 0
M  V30 538 N 53.2116 1.57565 -0.0334293 0
M  V30 539 C 54.4366 1.96689 0.657895 0
M  V30 540 C 54.8616 0.910057 1.64619 0
M  V30 541 O 54.2196 -0.128598 1.80843 0
M  V30 542 C 54.2676 3.34905 1.33683 0
M  V30 543 O 53.3716 3.31574 2.45219 0
M  V30 544 H 52.7126 0.641205 0.172489 0
M  V30 545 H 55.2426 2.04372 -0.0965621 0
M  V30 546 H 55.2526 3.71234 1.69262 0
M  V30 547 H 53.9276 4.11366 0.612411 0
M  V30 548 H 52.5046 3.06968 2.11719 0
M  V30 549 N 54.6897 -0.239769 1.55765 0
M  V30 550 C 55.9357 -0.968234 1.78194 0
M  V30 551 C 56.2687 -1.84701 0.599938 0
M  V30 552 O 55.5437 -1.9031 -0.401524 0
M  V30 553 C 55.8267 -1.8227 3.10564 0
M  V30 554 C 55.6797 -0.971633 4.3918 0
M  V30 555 C 56.9987 -2.80388 3.39221 0
M  V30 556 H 54.1177 -0.350572 0.648281 0
M  V30 557 H 56.7597 -0.238259 1.885 0
M  V30 558 H 54.9097 -2.44507 3.01908 0
M  V30 559 H 56.5817 -0.367408 4.59835 0
M  V30 560 H 54.8247 -0.276276 4.32919 0
M  V30 561 H 55.4957 -1.60346 5.28198 0
M  V30 562 H 57.9717 -2.28287 3.47885 0
M  V30 563 H 56.8477 -3.3729 4.33044 0
M  V30 564 H 57.1087 -3.57212 2.60484 0
M  V30 565 N 56.1678 -1.49265 -0.50573 0
M  V30 566 C 57.5838 -1.35923 -0.836486 0
M  V30 567 C 57.7838 -0.388704 -1.97715 0
M  V30 568 O 56.8398 0.181336 -2.51848 0
M  V30 569 C 58.1528 -2.76531 -1.18115 0
M  V30 570 C 59.7008 -2.85197 -1.28964 0
M  V30 571 C 60.1758 -4.26561 -1.66761 0
M  V30 572 N 61.6668 -4.2935 -1.73819 0
M  V30 573 C 62.4018 -5.35693 -2.045 0
M  V30 574 N 61.8978 -6.52287 -2.33438 0
M  V30 575 N 63.6908 -5.23105 -2.05711 0
M  V30 576 H 55.8418 -2.10965 0.246519 0
M  V30 577 H 58.1048 -0.9468 0.0476887 0
M  V30 578 H 57.8108 -3.49226 -0.416398 0
M  V30 579 H 57.6848 -3.11599 -2.1257 0
M  V30 580 H 60.0718 -2.12742 -2.04511 0
M  V30 581 H 60.1528 -2.53718 -0.325704 0
M  V30 582 H 59.7968 -4.99541 -0.917656 0
M  V30 583 H 59.7268 -4.55502 -2.64246 0
M  V30 584 H 62.2178 -3.4526 -1.53635 0
M  V30 585 H 62.5308 -7.29158 -2.56024 0
M  V30 586 H 60.8758 -6.55521 -2.30905 0
M  V30 587 H 64.0668 -4.31026 -1.82577 0
M  V30 588 H 64.2398 -6.06078 -2.29289 0
M  V30 589 N 57.6459 0.756429 -1.3826 0
M  V30 590 C 58.8939 1.51248 -1.34047 0
M  V30 591 C 59.2149 1.94875 0.0698372 0
M  V30 592 O 58.4849 1.67436 1.01696 0
M  V30 593 H 57.0649 0.561018 -0.493222 0
M  V30 594 H 59.7269 0.899347 -1.7291 0
M  V30 595 H 58.8229 2.40472 -1.98947 0
M  V30 596 N 59.124 1.23083 0.984299 0
M  V30 597 C 60.054 1.03292 2.09411 0
M  V30 598 C 61.035 -0.048923 1.7003 0
M  V30 599 O 62.22 0.114967 1.93859 0
M  V30 600 C 59.35 0.619155 3.41736 0
M  V30 601 C 58.304 1.64791 3.95004 0
M  V30 602 C 57.63 1.0897 5.23478 0
M  V30 603 C 58.93 3.03999 4.24714 0
M  V30 604 H 60.624 1.96119 2.26225 0
M  V30 605 H 58.17 0.944344 1.08711 0
M  V30 606 H 60.123 0.467777 4.18796 0
M  V30 607 H 58.847 -0.344786 3.24775 0
M  V30 608 H 57.506 1.78721 3.20085 0
M  V30 609 H 57.154 0.11686 5.02864 0
M  V30 610 H 56.854 1.77704 5.60085 0
M  V30 611 H 58.378 0.950093 6.03163 0
M  V30 612 H 59.792 2.93393 4.92538 0
M  V30 613 H 58.189 3.69936 4.72512 0
M  V30 614 H 59.259 3.53285 3.32142 0
M  V30 615 N 60.6021 -1.18246 1.0419 0
M  V30 616 C 61.5651 -2.20128 0.638452 0
M  V30 617 C 62.5651 -1.57885 -0.304805 0
M  V30 618 O 63.7551 -1.73967 -0.0900369 0
M  V30 619 C 60.8871 -3.4084 -0.0637751 0
M  V30 620 H 62.0801 -2.57336 1.54007 0
M  V30 621 H 59.6331 -1.32152 0.834598 0
M  V30 622 H 60.3681 -3.09166 -0.979136 0
M  V30 623 H 60.1531 -3.8726 0.614198 0
M  V30 624 H 61.6431 -4.16274 -0.332512 0
M  V30 625 N 62.0802 -0.821533 -1.34494 0
M  V30 626 C 63.3282 -0.408139 -1.97936 0
M  V30 627 C 63.6492 1.03193 -1.65457 0
M  V30 628 O 62.9192 1.71622 -0.944595 0
M  V30 629 H 61.4992 -0.147928 -0.732206 0
M  V30 630 H 64.1612 -1.05067 -1.64155 0
M  V30 631 H 63.2572 -0.52601 -3.07635 0
M  V30 632 N 63.5583 1.46682 -0.576371 0
M  V30 633 C 64.4883 2.33028 0.148397 0
M  V30 634 C 65.4693 1.44961 0.889956 0
M  V30 635 O 66.6543 1.73789 0.866662 0
M  V30 636 C 63.7843 3.27117 1.1667 0
M  V30 637 C 62.7383 4.24575 0.540386 0
M  V30 638 C 62.0643 5.08126 1.6647 0
M  V30 639 C 63.3643 5.19722 -0.518331 0
M  V30 640 H 65.0583 2.93875 -0.572509 0
M  V30 641 H 62.6043 1.41315 -0.276768 0
M  V30 642 H 64.5573 3.86374 1.68204 0
M  V30 643 H 63.2813 2.64364 1.9178 0
M  V30 644 H 61.9403 3.66571 0.0461769 0
M  V30 645 H 61.5883 4.41762 2.40531 0
M  V30 646 H 61.2883 5.74122 1.25131 0
M  V30 647 H 62.8123 5.70246 2.18293 0
M  V30 648 H 64.2263 5.73232 -0.0883058 0
M  V30 649 H 62.6233 5.94026 -0.851679 0
M  V30 650 H 63.6933 4.64037 -1.40703 0
M  V30 651 N 65.0364 0.313813 1.54444 0
M  V30 652 C 66.2844 -0.291099 1.99993 0
M  V30 653 C 66.6054 -1.53418 1.20366 0
M  V30 654 O 65.8754 -1.93544 0.302927 0
M  V30 655 H 64.4554 -0.110552 0.738774 0
M  V30 656 H 67.1174 0.428106 1.9014 0
M  V30 657 H 66.2134 -0.554268 3.07139 0
M  V30 658 N 66.5145 -1.57545 0.0417849 0
M  V30 659 C 67.7915 -1.83642 -0.673433 0
M  V30 660 C 68.1715 -0.928298 -1.89594 0
M  V30 661 O 67.5195 0.0129955 -2.28496 0
M  V30 662 C 67.7295 -3.33155 -1.03964 0
M  V30 663 C 69.0775 -3.99941 -1.42592 0
M  V30 664 O 70.1015 -3.37725 -1.13226 0
M  V30 665 O 68.9605 -5.09619 -1.9736 0
M  V30 666 H 66.0545 -0.757638 -0.331533 0
M  V30 667 H 68.6005 -1.69554 0.070433 0
M  V30 668 H 67.3725 -3.9093 -0.170098 0
M  V30 669 H 66.9955 -3.52396 -1.84126 0
M  V30 670 N 67.9926 0.231505 -1.5589 0
M  V30 671 C 69.2386 0.95877 -1.78705 0
M  V30 672 C 69.5716 1.8438 -0.609725 0
M  V30 673 O 68.8466 1.90521 0.391426 0
M  V30 674 C 69.1296 1.8062 -3.11526 0
M  V30 675 C 68.9826 0.948328 -4.39689 0
M  V30 676 C 70.3016 2.78585 -3.40703 0
M  V30 677 H 67.4206 0.347129 -0.650131 0
M  V30 678 H 70.0626 0.228259 -1.88624 0
M  V30 679 H 68.2126 2.42902 -3.03201 0
M  V30 680 H 69.8846 0.343016 -4.60023 0
M  V30 681 H 68.1276 0.253314 -4.3306 0
M  V30 682 H 68.7986 1.57543 -5.29041 0
M  V30 683 H 71.2746 2.26439 -3.49091 0
M  V30 684 H 70.1506 3.34988 -4.34826 0
M  V30 685 H 70.4116 3.55825 -2.62375 0
M  V30 686 N 69.4707 1.49531 0.497807 0
M  V30 687 C 70.4337 1.65916 1.58128 0
M  V30 688 C 71.4337 0.530825 1.51786 0
M  V30 689 O 72.6237 0.797342 1.54881 0
M  V30 690 C 69.7557 1.65951 2.9778 0
M  V30 691 H 70.9487 2.62556 1.44929 0
M  V30 692 H 68.5017 1.38611 0.722275 0
M  V30 693 H 69.2367 0.709065 3.16453 0
M  V30 694 H 69.0217 2.47897 3.03792 0
M  V30 695 H 70.5117 1.80673 3.76493 0
M  V30 696 N 70.9488 -0.749086 1.3866 0
M  V30 697 C 71.8588 -1.89358 1.38494 0
M  V30 698 C 72.8748 -1.71708 0.281476 0
M  V30 699 O 74.0508 -1.94554 0.520643 0
M  V30 700 C 71.1158 -3.24782 1.21316 0
M  V30 701 C 70.1768 -3.54926 2.41508 0
M  V30 702 C 69.4098 -4.83888 2.2514 0
M  V30 703 O 69.6328 -5.56592 1.24746 0
M  V30 704 O 68.5668 -5.13612 3.13826 0
M  V30 705 H 72.3928 -1.92452 2.34938 0
M  V30 706 H 69.9778 -0.894981 1.19626 0
M  V30 707 H 71.8598 -4.05739 1.13814 0
M  V30 708 H 70.5348 -3.2249 0.279592 0
M  V30 709 H 69.4418 -2.74112 2.54585 0
M  V30 710 H 70.7748 -3.61983 3.3351 0
M  V30 711 N 72.4269 -1.23603 -0.977757 0
M  V30 712 C 73.6729 -1.07129 -1.72195 0
M  V30 713 C 74.0059 0.390501 -1.90233 0
M  V30 714 O 73.2809 1.28902 -1.45653 0
M  V30 715 C 73.5639 -1.80031 -3.11867 0
M  V30 716 C 73.4169 -3.33899 -3.01383 0
M  V30 717 C 74.7359 -1.56492 -4.11337 0
M  V30 718 H 71.8549 -0.390571 -0.624999 0
M  V30 719 H 74.4969 -1.52142 -1.13811 0
M  V30 720 H 72.6469 -1.41768 -3.6171 0
M  V30 721 H 74.3189 -3.81699 -2.59043 0
M  V30 722 H 72.5619 -3.62796 -2.37827 0
M  V30 723 H 73.2329 -3.801 -4.00285 0
M  V30 724 H 75.7089 -1.89757 -3.70313 0
M  V30 725 H 74.5849 -2.09973 -5.07151 0
M  V30 726 H 74.8459 -0.500874 -4.39254 0
M  V30 727 N 73.905 1.17692 -1.04816 0
M  V30 728 C 75.321 1.39863 -0.768794 0
M  V30 729 C 75.521 1.91118 0.638451 0
M  V30 730 O 74.577 2.10036 1.40146 0
M  V30 731 C 75.89 2.39274 -1.82122 0
M  V30 732 C 77.438 2.52987 -1.843 0
M  V30 733 C 77.913 3.55669 -2.88555 0
M  V30 734 N 79.404 3.63183 -2.87493 0
M  V30 735 C 80.139 4.42381 -3.64811 0
M  V30 736 N 79.635 5.25125 -4.51903 0
M  V30 737 N 81.428 4.37217 -3.53267 0
M  V30 738 H 73.579 0.82752 -1.95617 0
M  V30 739 H 75.842 0.426123 -0.846831 0
M  V30 740 H 75.548 2.08678 -2.83102 0
M  V30 741 H 75.422 3.38725 -1.65967 0
M  V30 742 H 77.809 2.82896 -0.839869 0
M  V30 743 H 77.89 1.53623 -2.04532 0
M  V30 744 H 77.534 3.26499 -3.89051 0
M  V30 745 H 77.464 4.54728 -2.65575 0
M  V30 746 H 79.955 3.04103 -2.24343 0
M  V30 747 H 80.268 5.82728 -5.07591 0
M  V30 748 H 78.613 5.24519 -4.55966 0
M  V30 749 H 81.804 3.71626 -2.84625 0
M  V30 750 H 81.977 4.98696 -4.13771 0
M  V30 751 N 75.3831 0.828654 1.34056 0
M  V30 752 C 76.3301 0.252567 2.29414 0
M  V30 753 C 77.3001 -0.62588 1.53857 0
M  V30 754 O 78.4851 -0.566312 1.82202 0
M  V30 755 C 75.6251 -0.574831 3.40279 0
M  V30 756 C 74.7381 0.326499 4.30764 0
M  V30 757 C 73.8731 -0.511016 5.28736 0
M  V30 758 C 72.9121 0.389342 6.1086 0
M  V30 759 N 72.0491 -0.409439 7.00905 0
M  V30 760 H 76.8891 1.07108 2.78086 0
M  V30 761 H 74.4261 0.539677 1.36843 0
M  V30 762 H 76.3841 -1.06992 4.03248 0
M  V30 763 H 75.0141 -1.35841 2.92826 0
M  V30 764 H 74.0661 0.939837 3.68607 0
M  V30 765 H 75.3781 1.01857 4.88289 0
M  V30 766 H 74.5321 -1.07035 5.97184 0
M  V30 767 H 73.2711 -1.23657 4.71763 0
M  V30 768 H 72.2761 0.960769 5.4134 0
M  V30 769 H 73.5011 1.1131 6.69916 0
M  V30 770 H 71.4471 -1.11856 6.46393 0
M  V30 771 H 71.3641 0.224126 7.55668 0
M  V30 772 H 72.6321 -0.951336 7.73673 0
M  V30 773 N 76.8612 -1.46375 0.584142 0
M  V30 774 C 78.0862 -2.07268 0.0740405 0
M  V30 775 C 78.5112 -1.42979 -1.22223 0
M  V30 776 O 77.8692 -0.514092 -1.73859 0
M  V30 777 C 77.9172 -3.60518 -0.0767769 0
M  V30 778 O 77.0212 -3.96533 -1.13292 0
M  V30 779 H 76.3622 -0.660961 0.0634524 0
M  V30 780 H 78.8922 -1.87991 0.807492 0
M  V30 781 H 78.9022 -4.07021 -0.282489 0
M  V30 782 H 77.5772 -4.06702 0.86986 0
M  V30 783 H 76.1542 -3.61738 -0.905553 0
M  V30 784 N 78.3393 -0.321999 -1.54275 0
M  V30 785 C 79.5863 0.281044 -2.0054 0
M  V30 786 C 79.9143 1.52265 -1.21019 0
M  V30 787 O 79.1693 1.93687 -0.279982 0
M  V30 788 C 79.4683 0.661769 -3.5122 0
M  V30 789 C 79.1343 -0.480482 -4.48333 0
M  V30 790 C 77.7963 -0.794005 -4.74604 0
M  V30 791 C 80.1483 -1.24783 -5.06042 0
M  V30 792 C 77.4763 -1.87763 -5.55844 0
M  V30 793 C 79.8283 -2.32153 -5.88462 0
M  V30 794 C 78.4923 -2.64089 -6.13036 0
M  V30 795 H 77.7623 0.102841 -0.733829 0
M  V30 796 H 80.4093 -0.445453 -1.86247 0
M  V30 797 H 78.7143 1.46867 -3.63232 0
M  V30 798 H 80.4113 1.13989 -3.84457 0
M  V30 799 H 77.0013 -0.226039 -4.28004 0
M  V30 800 H 81.1853 -1.01887 -4.85729 0
M  V30 801 H 76.4413 -2.12954 -5.73115 0
M  V30 802 H 80.6153 -2.92057 -6.32199 0
M  V30 803 H 78.2423 -3.48185 -6.75775 0
M  V30 804 N 79.8174 1.5752 -0.0501392 0
M  V30 805 C 80.7654 2.12651 0.942459 0
M  V30 806 C 81.7594 1.05807 1.32292 0
M  V30 807 O 82.9654 1.24217 1.3027 0
M  V30 808 H 79.3404 0.679673 0.321789 0
M  V30 809 H 81.3114 2.94951 0.452356 0
M  V30 810 C 80.0604 2.68565 2.20836 0
M  V30 811 H 79.3834 3.50439 1.92439 0
M  V30 812 H 80.8234 3.10761 2.8845 0
M  V30 813 C 79.2824 1.62291 2.95234 0
M  V30 814 O 79.8124 1.03508 3.88135 0
M  V30 815 N 78.0184 1.33836 2.57946 0
M  V30 816 H 77.5654 1.81826 1.82475 0
M  V30 817 H 77.5234 0.629595 3.08032 0
M  V30 818 N 81.2955 -0.223234 1.56011 0
M  V30 819 C 82.7115 -0.572856 1.48965 0
M  V30 820 C 82.9115 -1.87225 0.74492 0
M  V30 821 O 81.9675 -2.50899 0.283896 0
M  V30 822 C 83.2805 -0.653646 2.9351 0
M  V30 823 C 84.8285 -0.744386 3.0402 0
M  V30 824 C 85.3035 -0.856535 4.49919 0
M  V30 825 N 86.7945 -0.9208 4.53955 0
M  V30 826 C 87.5295 -1.02726 5.64123 0
M  V30 827 N 87.0255 -1.09777 6.84047 0
M  V30 828 N 88.8185 -1.06226 5.51971 0
M  V30 829 H 80.9695 0.629462 2.02858 0
M  V30 830 H 83.2325 0.220621 0.921971 0
M  V30 831 H 82.9385 0.231518 3.50937 0
M  V30 832 H 82.8125 -1.51781 3.45315 0
M  V30 833 H 85.1995 -1.61999 2.46658 0
M  V30 834 H 85.2805 0.14541 2.55386 0
M  V30 835 H 84.9245 0.0146069 5.07898 0
M  V30 836 H 84.8545 -1.76172 4.96257 0
M  V30 837 H 87.3455 -0.876694 3.6759 0
M  V30 838 H 87.6585 -1.17872 7.63758 0
M  V30 839 H 86.0035 -1.06693 6.86762 0
M  V30 840 H 89.1945 -1.00382 4.5721 0
M  V30 841 H 89.3675 -1.14177 6.37862 0
M  V30 842 N 82.7736 -1.49793 -0.48987 0
M  V30 843 C 83.7236 -1.63673 -1.5873 0
M  V30 844 C 84.7076 -0.491956 -1.53195 0
M  V30 845 O 85.8996 -0.745461 -1.60536 0
M  V30 846 C 83.0286 -1.71689 -2.97284 0
M  V30 847 C 82.1146 -2.91781 -3.07774 0
M  V30 848 N 82.5056 -4.15714 -2.88124 0
M  V30 849 C 80.8036 -2.89949 -3.38889 0
M  V30 850 C 81.5046 -4.965 -3.03088 0
M  V30 851 N 80.4806 -4.30083 -3.3246 0
M  V30 852 H 84.2826 -2.57204 -1.42208 0
M  V30 853 H 81.7966 -1.46719 -0.69623 0
M  V30 854 H 83.7936 -1.79732 -3.76168 0
M  V30 855 H 82.4536 -0.793024 -3.14867 0
M  V30 856 H 83.4646 -4.45515 -2.64077 0
M  V30 857 H 80.1416 -2.06987 -3.62578 0
M  V30 858 H 81.5316 -6.04991 -2.92294 0
M  V30 859 N 84.2517 0.741722 -1.39055 0
M  V30 860 C 85.1817 1.869 -1.39966 0
M  V30 861 C 86.1627 1.6804 -0.26392 0
M  V30 862 O 87.3477 1.88458 -0.468755 0
M  V30 863 C 84.4777 3.24572 -1.23574 0
M  V30 864 C 83.4317 3.58056 -2.34477 0
M  V30 865 C 82.7577 4.94593 -2.0318 0
M  V30 866 C 84.0577 3.61716 -3.76774 0
M  V30 867 H 85.7517 1.86395 -2.34302 0
M  V30 868 H 83.2977 0.895361 -1.1278 0
M  V30 869 H 85.2507 4.031 -1.22834 0
M  V30 870 H 83.9747 3.25587 -0.257045 0
M  V30 871 H 82.6337 2.81854 -2.34423 0
M  V30 872 H 82.2817 4.92181 -1.03765 0
M  V30 873 H 81.9817 5.17964 -2.77465 0
M  V30 874 H 83.5057 5.75486 -2.04079 0
M  V30 875 H 84.9197 4.30335 -3.78794 0
M  V30 876 H 83.3167 3.96603 -4.50362 0
M  V30 877 H 84.3867 2.61672 -4.08235 0
M  V30 878 N 85.7298 1.2412 0.971189 0
M  V30 879 C 86.6798 0.997551 2.05019 0
M  V30 880 C 87.6638 -0.0597747 1.60789 0
M  V30 881 O 88.8558 0.153516 1.76333 0
M  V30 882 C 85.9848 0.600557 3.38006 0
M  V30 883 C 85.0708 1.69377 3.88809 0
M  V30 884 N 85.4618 2.92586 4.12586 0
M  V30 885 C 83.7598 1.57048 4.17435 0
M  V30 886 C 84.4608 3.63431 4.54195 0
M  V30 887 N 83.4368 2.90979 4.59165 0
M  V30 888 H 87.2388 1.93316 2.21374 0
M  V30 889 H 84.7528 1.14194 1.1547 0
M  V30 890 H 86.7498 0.40725 4.14906 0
M  V30 891 H 85.4098 -0.327903 3.2304 0
M  V30 892 H 86.4208 3.288 4.00139 0
M  V30 893 H 83.0978 0.709798 4.11422 0
M  V30 894 H 84.4878 4.69102 4.81033 0
M  V30 895 N 87.2079 -1.17134 1.05439 0
M  V30 896 C 88.4549 -1.87456 0.765942 0
M  V30 897 C 88.7829 -1.81189 -0.707153 0
M  V30 898 O 88.0379 -1.21633 -1.5331 0
M  V30 899 C 88.3369 -3.36833 1.19491 0
M  V30 900 C 88.0029 -3.63301 2.67063 0
M  V30 901 C 86.6649 -3.70234 3.07376 0
M  V30 902 C 89.0169 -3.74575 3.62413 0
M  V30 903 C 86.3449 -3.85933 4.41896 0
M  V30 904 C 88.6969 -3.91793 4.9667 0
M  V30 905 C 87.3609 -3.96966 5.36633 0
M  V30 906 H 86.6309 -0.685948 0.280278 0
M  V30 907 H 89.2779 -1.38556 1.32192 0
M  V30 908 H 87.5829 -3.87807 0.557969 0
M  V30 909 H 89.2799 -3.89611 0.948893 0
M  V30 910 H 85.8699 -3.58532 2.34846 0
M  V30 911 H 90.0539 -3.68537 3.32406 0
M  V30 912 H 85.3099 -3.88187 4.72357 0
M  V30 913 H 89.4839 -3.99458 5.70444 0
M  V30 914 H 87.1109 -4.08883 6.40874 0
M  V30 915 N 88.686 -0.835752 -1.33615 0
M  V30 916 C 89.914 -0.443344 -2.02094 0
M  V30 917 C 90.329 0.954522 -1.62894 0
M  V30 918 O 89.686 1.61982 -0.840723 0
M  V30 919 C 89.737 -0.550775 -3.5728 0
M  V30 920 O 89.458 -1.89356 -3.95065 0
M  V30 921 C 90.959 -0.154919 -4.43029 0
M  V30 922 H 88.179 -0.176359 -0.647409 0
M  V30 923 H 90.723 -1.12746 -1.70612 0
M  V30 924 H 88.878 0.0853997 -3.87306 0
M  V30 925 H 89.292 -1.87687 -4.89769 0
M  V30 926 H 90.766 -0.281144 -5.51284 0
M  V30 927 H 91.243 0.902863 -4.2982 0
M  V30 928 H 91.849 -0.765404 -4.18356 0
M  V30 929 N 90.1641 1.46063 -0.591896 0
M  V30 930 C 91.0941 2.33172 0.123673 0
M  V30 931 C 92.0751 1.45897 0.87453 0
M  V30 932 O 93.2601 1.74698 0.848181 0
M  V30 933 C 90.3901 3.28336 1.13194 0
M  V30 934 C 89.3441 4.25124 0.495324 0
M  V30 935 C 88.6701 5.09863 1.61071 0
M  V30 936 C 89.9701 5.19143 -0.573425 0
M  V30 937 H 91.6641 2.93252 -0.603646 0
M  V30 938 H 89.2101 1.41014 -0.291741 0
M  V30 939 H 91.1631 3.88137 1.64097 0
M  V30 940 H 89.8871 2.66383 1.88965 0
M  V30 941 H 88.5461 3.66599 0.00729452 0
M  V30 942 H 88.1941 4.44288 2.35832 0
M  V30 943 H 87.8941 5.75417 1.19035 0
M  V30 944 H 89.4181 5.72529 2.12233 0
M  V30 945 H 90.8321 5.73106 -0.1491 0
M  V30 946 H 89.2291 5.93089 -0.914636 0
M  V30 947 H 90.2991 4.62519 -1.45617 0
M  V30 948 N 91.6422 0.330177 1.54103 0
M  V30 949 C 92.8882 -0.270806 2.00984 0
M  V30 950 C 93.2212 -1.51265 1.21789 0
M  V30 951 O 92.4962 -1.92142 0.301927 0
M  V30 952 C 92.7792 -0.598339 3.55094 0
M  V30 953 C 92.6322 0.654674 4.4501 0
M  V30 954 C 93.9512 -1.41334 4.16789 0
M  V30 955 H 91.0702 -0.0969531 0.730595 0
M  V30 956 H 93.7122 0.448066 1.84641 0
M  V30 957 H 91.8622 -1.21078 3.69151 0
M  V30 958 H 93.5342 1.29285 4.42813 0
M  V30 959 H 91.7772 1.28224 4.14416 0
M  V30 960 H 92.4482 0.380944 5.50684 0
M  V30 961 H 94.9242 -0.895597 4.06347 0
M  V30 962 H 93.8002 -1.61127 5.24718 0
M  V30 963 H 94.0612 -2.41146 3.70541 0
M  V30 964 N 93.1203 -1.57491 0.0584922 0
M  V30 965 C 94.0673 -2.11958 -0.913376 0
M  V30 966 C 95.0373 -1.02875 -1.30407 0
M  V30 967 O 96.2223 -1.30464 -1.39226 0
M  V30 968 C 93.3623 -2.67497 -2.18035 0
M  V30 969 C 92.4753 -3.90691 -1.84349 0
M  V30 970 C 91.6103 -4.3452 -3.05559 0
M  V30 971 C 90.6493 -5.50395 -2.67827 0
M  V30 972 N 89.7863 -5.89244 -3.81754 0
M  V30 973 H 94.6263 -2.94704 -0.442017 0
M  V30 974 H 92.1633 -1.45643 -0.206545 0
M  V30 975 H 94.1213 -2.978 -2.92183 0
M  V30 976 H 92.7513 -1.87537 -2.62735 0
M  V30 977 H 91.8033 -3.66934 -1.00319 0
M  V30 978 H 93.1153 -4.7489 -1.5258 0
M  V30 979 H 92.2693 -4.66414 -3.87998 0
M  V30 980 H 91.0083 -3.49147 -3.40511 0
M  V30 981 H 90.0133 -5.18165 -1.83806 0
M  V30 982 H 91.2383 -6.3749 -2.34059 0
M  V30 983 H 89.1843 -5.06823 -4.16493 0
M  V30 984 H 89.1013 -6.68151 -3.53708 0
M  V30 985 H 90.3693 -6.25756 -4.64811 0
M  V30 986 N 94.5984 0.214957 -1.56127 0
M  V30 987 C 95.8754 0.963093 -1.70247 0
M  V30 988 C 96.2554 2.02166 -0.60764 0
M  V30 989 O 95.6034 2.25244 0.384385 0
M  V30 990 C 95.8134 1.56756 -3.11815 0
M  V30 991 C 97.1614 2.0573 -3.7143 0
M  V30 992 O 98.1854 1.66637 -3.14818 0
M  V30 993 O 97.0444 2.77603 -4.70743 0
M  V30 994 H 94.1384 0.450321 -0.693643 0
M  V30 995 H 96.6844 0.206219 -1.68442 0
M  V30 996 H 95.4564 0.803533 -3.82961 0
M  V30 997 H 95.0794 2.3898 -3.17765 0
M  V30 998 N 96.0765 1.50051 0.48192 0
M  V30 999 C 97.4925 1.37237 0.814756 0
M  V30 1000 C 97.6925 0.420109 1.97072 0
M  V30 1001 O 96.7485 -0.141246 2.52105 0
M  V30 1002 C 98.0615 2.78375 1.13701 0
M  V30 1003 C 99.6095 2.87213 1.2441 0
M  V30 1004 C 100.084 4.29161 1.59954 0
M  V30 1005 N 101.575 4.32061 1.66967 0
M  V30 1006 C 102.31 5.38879 1.95952 0
M  V30 1007 N 101.806 6.55918 2.23031 0
M  V30 1008 N 103.599 5.26312 1.97363 0
M  V30 1009 H 95.7505 2.10546 -0.28005 0
M  V30 1010 H 98.0135 0.945921 -0.0627454 0
M  V30 1011 H 97.7195 3.49845 0.360787 0
M  V30 1012 H 97.5935 3.14941 2.07586 0
M  V30 1013 H 99.9805 2.15969 2.01101 0
M  V30 1014 H 100.061 2.54204 0.285299 0
M  V30 1015 H 99.7055 5.00938 0.838067 0
M  V30 1016 H 99.6355 4.59648 2.56966 0
M  V30 1017 H 102.126 3.47661 1.48123 0
M  V30 1018 H 102.439 7.33139 2.44391 0
M  V30 1019 H 100.784 6.59112 2.20447 0
M  V30 1020 H 103.975 4.33876 1.75697 0
M  V30 1021 H 104.148 6.09649 2.19618 0
M  V30 1022 N 97.5546 -0.734337 1.39446 0
M  V30 1023 C 98.5026 -1.86971 1.38364 0
M  V30 1024 C 99.4966 -1.67288 0.266687 0
M  V30 1025 O 100.703 -1.74621 0.436755 0
M  V30 1026 H 97.0776 -0.615474 0.432082 0
M  V30 1027 H 99.0486 -1.85 2.34132 0
M  V30 1028 C 97.7976 -3.2466 1.24465 0
M  V30 1029 H 97.1206 -3.40402 2.09682 0
M  V30 1030 H 98.5606 -4.04292 1.27764 0
M  V30 1031 C 97.0196 -3.36867 -0.0468674 0
M  V30 1032 O 97.5496 -3.88618 -1.01681 0
M  V30 1033 N 95.7556 -2.90391 -0.110145 0
M  V30 1034 H 95.3026 -2.48466 0.679868 0
M  V30 1035 H 95.2606 -2.98939 -0.973799 0
M  V30 1036 N 99.0327 -1.24633 -0.964593 0
M  V30 1037 C 100.279 -1.08949 -1.71049 0
M  V30 1038 C 100.612 0.370302 -1.90637 0
M  V30 1039 O 99.8867 1.27349 -1.47011 0
M  V30 1040 C 100.17 -1.83329 -3.0994 0
M  V30 1041 C 100.023 -3.37077 -2.97824 0
M  V30 1042 C 101.342 -1.60846 -4.09654 0
M  V30 1043 H 98.4607 -0.397178 -0.620821 0
M  V30 1044 H 101.103 -1.5334 -1.12191 0
M  V30 1045 H 99.2527 -1.45597 -3.60186 0
M  V30 1046 H 100.925 -3.84425 -2.5498 0
M  V30 1047 H 99.1677 -3.65298 -2.33965 0
M  V30 1048 H 99.8387 -3.84324 -3.96231 0
M  V30 1049 H 102.315 -1.93674 -3.68279 0
M  V30 1050 H 101.191 -2.1534 -5.04896 0
M  V30 1051 H 101.452 -0.547434 -4.38698 0
M  V30 1052 N 100.511 1.16574 -1.06058 0
M  V30 1053 C 101.474 2.19085 -0.673392 0
M  V30 1054 C 102.474 1.5835 0.279648 0
M  V30 1055 O 103.664 1.74088 0.0623488 0
M  V30 1056 C 100.796 3.40899 0.00954234 0
M  V30 1057 H 101.989 2.54853 -1.58081 0
M  V30 1058 H 99.5418 1.30808 -0.855516 0
M  V30 1059 H 100.277 3.10684 0.929826 0
M  V30 1060 H 100.062 3.86233 -0.67573 0
M  V30 1061 H 101.552 4.1675 0.266245 0
M  V30 1062 N 101.989 0.842826 1.3317 0
M  V30 1063 C 103.217 0.454055 2.01856 0
M  V30 1064 C 103.632 -0.94587 1.63397 0
M  V30 1065 O 102.989 -1.61534 0.849302 0
M  V30 1066 C 103.04 0.569715 3.56982 0
M  V30 1067 O 102.761 1.91448 3.94055 0
M  V30 1068 C 104.262 0.178412 4.42941 0
M  V30 1069 H 101.482 0.17979 0.646465 0
M  V30 1070 H 104.026 1.1365 1.70012 0
M  V30 1071 H 102.181 -0.0648587 3.87346 0
M  V30 1072 H 102.595 1.90282 4.88767 0
M  V30 1073 H 104.069 0.310376 5.51127 0
M  V30 1074 H 104.546 -0.880056 4.30293 0
M  V30 1075 H 105.152 0.787579 4.17944 0
M  V30 1076 N 103.467 -1.45747 0.599634 0
M  V30 1077 C 104.878 -1.85853 0.177681 0
M  V30 1078 C 105.229 -1.50102 -1.26348 0
M  V30 1079 O 104.354 -0.923905 -1.95686 0
M  V30 1080 C 104.949 -3.37326 0.315688 0
M  V30 1081 C 103.508 -3.76365 -0.0515144 0
M  V30 1082 C 102.655 -2.69722 0.643822 0
M  V30 1083 H 105.606 -1.36661 0.806814 0
M  V30 1084 H 105.627 -3.77778 -0.454321 0
M  V30 1085 H 105.139 -3.63315 1.36468 0
M  V30 1086 H 103.24 -3.55993 -1.09999 0
M  V30 1087 H 103.353 -4.77916 0.336594 0
M  V30 1088 H 101.717 -2.54567 0.0822881 0
M  V30 1089 H 102.5 -2.98549 1.6948 0
M  V30 1090 N 104.945 -0.338344 -1.53925 0
M  V30 1091 C 106.361 0.0137736 -1.59594 0
M  V30 1092 C 106.561 1.49186 -1.35447 0
M  V30 1093 O 105.617 2.24987 -1.14616 0
M  V30 1094 C 106.93 -0.41773 -2.97784 0
M  V30 1095 C 108.478 -0.369633 -3.1081 0
M  V30 1096 C 108.953 -0.776524 -4.51369 0
M  V30 1097 N 110.444 -0.730506 -4.57403 0
M  V30 1098 C 111.179 -1.01736 -5.64303 0
M  V30 1099 N 110.675 -1.3721 -6.79077 0
M  V30 1100 N 112.468 -0.941942 -5.54151 0
M  V30 1101 H 104.619 -1.3012 -1.67876 0
M  V30 1102 H 106.882 -0.530082 -0.78595 0
M  V30 1103 H 106.588 -1.44811 -3.20504 0
M  V30 1104 H 106.462 0.209729 -3.76616 0
M  V30 1105 H 108.849 0.651568 -2.87817 0
M  V30 1106 H 108.93 -1.03223 -2.34049 0
M  V30 1107 H 108.574 -1.79571 -4.75096 0
M  V30 1108 H 108.504 -0.0914649 -5.26521 0
M  V30 1109 H 110.995 -0.468783 -3.74981 0
M  V30 1110 H 111.308 -1.57597 -7.5656 0
M  V30 1111 H 109.653 -1.4105 -6.80536 0
M  V30 1112 H 112.844 -0.664184 -4.63364 0
M  V30 1113 H 113.017 -1.16884 -6.37371 0
M  V30 1114 N 106.423 1.57458 -0.0668435 0
M  V30 1115 C 107.7 1.8469 0.644132 0
M  V30 1116 C 108.08 0.958343 1.88093 0
M  V30 1117 O 107.428 0.0233579 2.28488 0
M  V30 1118 C 107.638 3.34767 0.986509 0
M  V30 1119 C 108.986 4.02159 1.36212 0
M  V30 1120 O 110.01 3.39484 1.07839 0
M  V30 1121 O 108.869 5.12694 1.89227 0
M  V30 1122 H 105.963 0.762816 0.319437 0
M  V30 1123 H 108.509 1.6942 -0.0973986 0
M  V30 1124 H 107.281 3.91151 0.107883 0
M  V30 1125 H 106.904 3.55281 1.78497 0
M  V30 1126 N 107.901 -0.206675 1.56239 0
M  V30 1127 C 109.131 -0.943975 1.83773 0
M  V30 1128 C 109.539 -1.77841 0.645703 0
M  V30 1129 O 108.882 -1.79403 -0.395008 0
M  V30 1130 C 108.944 -1.899 3.05251 0
M  V30 1131 C 108.608 -1.24764 4.39639 0
M  V30 1132 C 109.605 -0.630216 5.16066 0
M  V30 1133 C 107.29 -1.25496 4.8637 0
M  V30 1134 C 109.284 -0.0287946 6.37393 0
M  V30 1135 C 106.971 -0.649698 6.07637 0
M  V30 1136 C 107.969 -0.0376845 6.8299 0
M  V30 1137 O 107.657 0.55812 8.0196 0
M  V30 1138 H 107.389 -0.281508 0.614597 0
M  V30 1139 H 109.943 -0.222458 2.04192 0
M  V30 1140 H 108.173 -2.6599 2.80689 0
M  V30 1141 H 109.862 -2.5031 3.1953 0
M  V30 1142 H 110.628 -0.616785 4.81062 0
M  V30 1143 H 106.507 -1.72072 4.27683 0
M  V30 1144 H 110.051 0.449518 6.9615 0
M  V30 1145 H 105.948 -0.660592 6.42111 0
M  V30 1146 H 106.716 0.453891 8.17241 0
M  V30 1147 N 109.379 -1.50304 -0.473955 0
M  V30 1148 C 110.626 -1.6115 -1.22625 0
M  V30 1149 C 110.954 -0.310517 -1.92005 0
M  V30 1150 O 110.209 0.703419 -1.82621 0
M  V30 1151 C 110.508 -2.73938 -2.29549 0
M  V30 1152 C 110.174 -4.14519 -1.7744 0
M  V30 1153 C 108.836 -4.5277 -1.62949 0
M  V30 1154 C 111.188 -5.02392 -1.3875 0
M  V30 1155 C 108.516 -5.76639 -1.08187 0
M  V30 1156 C 110.868 -6.26805 -0.854309 0
M  V30 1157 C 109.532 -6.63861 -0.696011 0
M  V30 1158 H 108.802 -0.589691 -0.448715 0
M  V30 1159 H 111.449 -1.84228 -0.522705 0
M  V30 1160 H 109.754 -2.44937 -3.05799 0
M  V30 1161 H 111.451 -2.79534 -2.87509 0
M  V30 1162 H 108.041 -3.8434 -1.89685 0
M  V30 1163 H 112.225 -4.73474 -1.4878 0
M  V30 1164 H 107.481 -6.04027 -0.946666 0
M  V30 1165 H 111.655 -6.94258 -0.545843 0
M  V30 1166 H 109.282 -7.59722 -0.26952 0
M  V30 1167 N 110.857 0.726932 -1.39834 0
M  V30 1168 C 112.104 1.48664 -1.37496 0
M  V30 1169 C 112.432 1.94482 0.0264678 0
M  V30 1170 O 111.687 1.67692 1.00886 0
M  V30 1171 C 111.986 2.73495 -2.30077 0
M  V30 1172 C 111.652 2.46502 -3.77555 0
M  V30 1173 C 110.314 2.3885 -4.17737 0
M  V30 1174 C 112.666 2.23604 -4.70798 0
M  V30 1175 C 109.994 2.06352 -5.49214 0
M  V30 1176 C 112.346 1.92622 -6.02561 0
M  V30 1177 C 111.01 1.83444 -6.41798 0
M  V30 1178 H 110.28 0.544001 -0.503135 0
M  V30 1179 H 112.927 0.833657 -1.72402 0
M  V30 1180 H 111.232 3.43575 -1.88317 0
M  V30 1181 H 112.929 3.31549 -2.25558 0
M  V30 1182 H 109.519 2.5334 -3.45712 0
M  V30 1183 H 113.703 2.28479 -4.40581 0
M  V30 1184 H 108.959 1.97776 -5.78528 0
M  V30 1185 H 113.133 1.73914 -6.74334 0
M  V30 1186 H 110.76 1.58029 -7.43593 0
M  V30 1187 N 112.336 1.25143 0.95797 0
M  V30 1188 C 113.299 1.05321 2.03569 0
M  V30 1189 C 114.299 0.007152 1.60798 0
M  V30 1190 O 115.489 0.24903 1.72411 0
M  V30 1191 C 112.621 0.598394 3.35607 0
M  V30 1192 H 113.814 2.00986 2.22586 0
M  V30 1193 H 111.367 1.07502 1.13459 0
M  V30 1194 H 112.102 -0.361014 3.22284 0
M  V30 1195 H 111.887 1.35351 3.67998 0
M  V30 1196 H 113.377 0.48104 4.1482 0
M  V30 1197 N 113.814 -1.1601 1.06675 0
M  V30 1198 C 114.744 -2.22688 0.702307 0
M  V30 1199 C 115.725 -1.67306 -0.307032 0
M  V30 1200 O 116.91 -1.93352 -0.181305 0
M  V30 1201 C 114.04 -3.47178 0.092038 0
M  V30 1202 C 112.994 -4.15477 1.02777 0
M  V30 1203 C 112.32 -5.33963 0.28061 0
M  V30 1204 C 113.62 -4.66019 2.35846 0
M  V30 1205 H 115.314 -2.53429 1.59419 0
M  V30 1206 H 112.86 -1.21813 0.767961 0
M  V30 1207 H 114.813 -4.21037 -0.174814 0
M  V30 1208 H 113.537 -3.15749 -0.834877 0
M  V30 1209 H 112.196 -3.43549 1.27944 0
M  V30 1210 H 111.844 -4.98788 -0.649545 0
M  V30 1211 H 111.544 -5.806 0.904258 0
M  V30 1212 H 113.068 -6.10596 0.021396 0
M  V30 1213 H 114.482 -5.3144 2.15045 0
M  V30 1214 H 112.879 -5.23293 2.93743 0
M  V30 1215 H 113.949 -3.82023 2.98641 0
M  V30 1216 N 115.292 -0.849877 -1.32721 0
M  V30 1217 C 116.255 -0.296122 -2.27279 0
M  V30 1218 C 117.255 0.541458 -1.5141 0
M  V30 1219 O 118.445 0.353658 -1.70572 0
M  V30 1220 C 115.577 0.581579 -3.35902 0
M  V30 1221 H 116.77 -1.13064 -2.77771 0
M  V30 1222 H 114.323 -0.62383 -1.43311 0
M  V30 1223 H 115.058 1.43809 -2.9067 0
M  V30 1224 H 114.843 -0.0178814 -3.92096 0
M  V30 1225 H 116.333 0.961951 -4.0637 0
M  V30 1226 N 116.77 1.45427 -0.607355 0
M  V30 1227 C 117.72 2.27612 0.133038 0
M  V30 1228 C 118.704 1.37307 0.838785 0
M  V30 1229 O 119.896 1.61299 0.728813 0
M  V30 1230 C 117.025 3.24173 1.12991 0
M  V30 1231 C 116.111 4.21965 0.425011 0
M  V30 1232 N 116.502 5.02982 -0.533217 0
M  V30 1233 C 114.8 4.40899 0.672593 0
M  V30 1234 C 115.501 5.73931 -0.947518 0
M  V30 1235 N 114.477 5.42819 -0.291321 0
M  V30 1236 H 118.279 2.87649 -0.602935 0
M  V30 1237 H 115.793 1.56576 -0.431006 0
M  V30 1238 H 117.79 3.81783 1.67473 0
M  V30 1239 H 116.45 2.65696 1.86644 0
M  V30 1240 H 117.461 5.09843 -0.90995 0
M  V30 1241 H 114.138 3.93547 1.39382 0
M  V30 1242 H 115.528 6.49037 -1.73782 0
M  V30 1243 N 118.248 0.346503 1.53744 0
M  V30 1244 C 119.476 -0.25041 2.05379 0
M  V30 1245 C 119.891 -1.43979 1.22129 0
M  V30 1246 O 119.248 -1.80677 0.257321 0
M  V30 1247 C 119.299 -0.662575 3.55376 0
M  V30 1248 O 119.02 0.479515 4.35468 0
M  V30 1249 C 120.521 -1.31989 4.23195 0
M  V30 1250 H 117.741 -0.0478198 0.669294 0
M  V30 1251 H 120.285 0.499346 1.9831 0
M  V30 1252 H 118.44 -1.36227 3.62658 0
M  V30 1253 H 118.854 0.15037 5.24284 0
M  V30 1254 H 120.328 -1.55902 5.29527 0
M  V30 1255 H 120.805 -2.27436 3.75725 0
M  V30 1256 H 121.411 -0.662154 4.20114 0
M  V30 1257 N 119.726 -1.57421 0.075193 0
M  V30 1258 C 120.972 -1.93905 -0.594025 0
M  V30 1259 C 121.305 -0.955701 -1.69056 0
M  V30 1260 O 120.58 0.0145373 -1.94495 0
M  V30 1261 C 120.863 -3.40638 -1.1678 0
M  V30 1262 C 120.716 -4.49733 -0.0776792 0
M  V30 1263 C 122.035 -3.88259 -2.07228 0
M  V30 1264 H 119.154 -0.705105 -0.214466 0
M  V30 1265 H 121.796 -1.8947 0.141854 0
M  V30 1266 H 119.946 -3.44549 -1.79494 0
M  V30 1267 H 121.618 -4.57942 0.555573 0
M  V30 1268 H 119.861 -4.29751 0.591286 0
M  V30 1269 H 120.532 -5.49549 -0.519603 0
M  V30 1270 H 123.008 -3.86376 -1.54445 0
M  V30 1271 H 121.884 -4.91533 -2.44308 0
M  V30 1272 H 122.145 -3.26396 -2.98191 0
M  V30 1273 N 121.204 0.198386 -1.56346 0
M  V30 1274 C 122.62 0.549085 -1.49857 0
M  V30 1275 C 122.82 1.86016 -0.774611 0
M  V30 1276 O 121.876 2.50416 -0.323776 0
M  V30 1277 C 123.189 0.606868 -2.94512 0
M  V30 1278 C 124.737 0.695925 -3.05165 0
M  V30 1279 C 125.212 0.784848 -4.51225 0
M  V30 1280 N 126.703 0.848463 -4.55363 0
M  V30 1281 C 127.438 0.937378 -5.65686 0
M  V30 1282 N 126.934 0.9888 -6.85707 0
M  V30 1283 N 128.727 0.974312 -5.53592 0
M  V30 1284 H 120.878 -0.661655 -2.01831 0
M  V30 1285 H 123.141 -0.235261 -0.918344 0
M  V30 1286 H 122.847 -0.28732 -3.50524 0
M  V30 1287 H 122.721 1.46268 -3.47686 0
M  V30 1288 H 125.108 1.58055 -2.49204 0
M  V30 1289 H 125.189 -0.186022 -2.55123 0
M  V30 1290 H 124.833 -0.0954072 -5.0781 0
M  V30 1291 H 124.763 1.68255 -4.98997 0
M  V30 1292 H 127.254 0.818103 -3.68938 0
M  V30 1293 H 127.567 1.05707 -7.65536 0
M  V30 1294 H 125.912 0.957534 -6.88372 0
M  V30 1295 H 129.103 0.930954 -4.58749 0
M  V30 1296 H 129.276 1.04015 -6.39597 0
M  V30 1297 N 122.682 1.50554 0.465978 0
M  V30 1298 C 123.959 1.5232 1.22712 0
M  V30 1299 C 124.339 0.270807 2.09356 0
M  V30 1300 O 123.687 -0.745541 2.15995 0
M  V30 1301 C 123.897 2.82175 2.05374 0
M  V30 1302 C 125.245 3.33033 2.6339 0
M  V30 1303 O 126.269 2.83531 2.15612 0
M  V30 1304 O 125.128 4.19336 3.50456 0
M  V30 1305 H 122.222 0.611183 0.557122 0
M  V30 1306 H 124.768 1.62847 0.477381 0
M  V30 1307 H 123.54 3.64797 1.41558 0
M  V30 1308 H 123.163 2.74675 2.87471 0
M  V30 1309 N 124.16 -0.719506 1.40217 0
M  V30 1310 C 125.11 -1.8251 1.36653 0
M  V30 1311 C 126.094 -1.59028 0.244732 0
M  V30 1312 O 127.286 -1.70268 0.483524 0
M  V30 1313 C 124.415 -3.20599 1.22763 0
M  V30 1314 C 123.501 -3.49858 2.39708 0
M  V30 1315 N 123.892 -3.49957 3.6519 0
M  V30 1316 C 122.19 -3.80297 2.33002 0
M  V30 1317 C 122.891 -3.77449 4.42614 0
M  V30 1318 N 121.867 -3.96002 3.72402 0
M  V30 1319 H 125.669 -1.80914 2.31619 0
M  V30 1320 H 123.183 -0.918455 1.33933 0
M  V30 1321 H 125.18 -3.99766 1.18292 0
M  V30 1322 H 123.84 -3.23424 0.287614 0
M  V30 1323 H 124.851 -3.309 3.98404 0
M  V30 1324 H 121.528 -3.90635 1.47346 0
M  V30 1325 H 122.918 -3.83863 5.51451 0
M  V30 1326 N 125.638 -1.25649 -0.95132 0
M  V30 1327 C 126.568 -1.08808 -2.06599 0
M  V30 1328 C 127.549 0.00382547 -1.701 0
M  V30 1329 O 128.734 -0.166325 -1.93486 0
M  V30 1330 C 125.864 -0.709542 -3.39975 0
M  V30 1331 C 124.818 -1.75206 -3.90496 0
M  V30 1332 C 124.144 -1.22811 -5.20405 0
M  V30 1333 C 125.444 -3.15153 -4.16504 0
M  V30 1334 H 127.138 -2.02048 -2.20946 0
M  V30 1335 H 124.684 -0.972835 -1.06169 0
M  V30 1336 H 126.637 -0.578649 -4.17408 0
M  V30 1337 H 125.361 0.258556 -3.25575 0
M  V30 1338 H 124.02 -1.87145 -3.15234 0
M  V30 1339 H 123.668 -0.250145 -5.02378 0
M  V30 1340 H 123.368 -1.92492 -5.55176 0
M  V30 1341 H 124.892 -1.10968 -6.00432 0
M  V30 1342 H 126.306 -3.06349 -4.84586 0
M  V30 1343 H 124.703 -3.82333 -4.62538 0
M  V30 1344 H 125.773 -3.61966 -3.22658 0
M  V30 1345 N 127.117 1.15442 -1.07289 0
M  V30 1346 C 128.363 1.86489 -0.796846 0
M  V30 1347 C 128.696 1.82078 0.675371 0
M  V30 1348 O 127.971 1.24346 1.4956 0
M  V30 1349 C 128.254 3.35626 -1.30489 0
M  V30 1350 C 128.107 3.48673 -2.84161 0
M  V30 1351 C 129.426 4.30357 -0.920907 0
M  V30 1352 H 126.545 0.677144 -0.290939 0
M  V30 1353 H 129.187 1.35633 -1.33056 0
M  V30 1354 H 127.337 3.79068 -0.850883 0
M  V30 1355 H 129.009 3.14099 -3.37846 0
M  V30 1356 H 127.252 2.90253 -3.22391 0
M  V30 1357 H 127.923 4.53453 -3.14777 0
M  V30 1358 H 130.399 3.94871 -1.3121 0
M  V30 1359 H 129.275 5.33193 -1.30372 0
M  V30 1360 H 129.536 4.4176 0.173226 0
M  V30 1361 N 128.595 0.856903 1.32268 0
M  V30 1362 C 129.843 0.460474 1.96784 0
M  V30 1363 C 130.164 -0.987701 1.68135 0
M  V30 1364 O 129.434 -1.69058 0.989765 0
M  V30 1365 H 128.014 0.167289 0.728027 0
M  V30 1366 H 130.676 1.09383 1.61312 0
M  V30 1367 H 129.772 0.60739 3.06133 0
M  V30 1368 N 130.073 -1.45103 0.615059 0
M  V30 1369 C 131.489 -1.57137 0.279322 0
M  V30 1370 C 131.689 -1.60523 -1.21797 0
M  V30 1371 O 130.745 -1.53956 -2.00134 0
M  V30 1372 C 132.058 -2.85062 0.957083 0
M  V30 1373 C 133.606 -2.98749 0.933706 0
M  V30 1374 C 134.081 -4.29455 1.59162 0
M  V30 1375 N 135.572 -4.36231 1.55746 0
M  V30 1376 C 136.307 -5.36051 2.0356 0
M  V30 1377 N 135.803 -6.42367 2.59494 0
M  V30 1378 N 137.596 -5.27456 1.94284 0
M  V30 1379 H 129.747 -1.41148 1.58717 0
M  V30 1380 H 132.01 -0.675331 0.665306 0
M  V30 1381 H 131.716 -2.88488 2.01166 0
M  V30 1382 H 131.59 -3.7407 0.48494 0
M  V30 1383 H 133.977 -2.94886 -0.112347 0
M  V30 1384 H 134.058 -2.11132 1.44419 0
M  V30 1385 H 133.702 -4.34077 2.63704 0
M  V30 1386 H 133.632 -5.15901 1.0561 0
M  V30 1387 H 136.123 -3.60011 1.14893 0
M  V30 1388 H 136.436 -7.14793 2.93752 0
M  V30 1389 H 134.781 -6.43097 2.63537 0
M  V30 1390 H 137.972 -4.43308 1.5032 0
M  V30 1391 H 138.145 -6.05099 2.3186 0
M  V30 1392 N 131.551 -0.354651 -1.53558 0
M  V30 1393 C 132.797 0.231422 -2.02079 0
M  V30 1394 C 133.152 1.47308 -1.23767 0
M  V30 1395 O 132.445 1.8891 -0.319947 0
M  V30 1396 C 132.639 0.587121 -3.52545 0
M  V30 1397 C 132.468 -0.618513 -4.45426 0
M  V30 1398 C 131.238 -1.12724 -4.92566 0
M  V30 1399 C 133.436 -1.48039 -4.92533 0
M  V30 1400 N 131.418 -2.29404 -5.69427 0
M  V30 1401 C 132.789 -2.49397 -5.67628 0
M  V30 1402 C 134.844 -1.50454 -4.74624 0
M  V30 1403 C 133.547 -3.53013 -6.26717 0
M  V30 1404 C 135.573 -2.52958 -5.34571 0
M  V30 1405 C 134.935 -3.5304 -6.09543 0
M  V30 1406 H 131.034 0.0476909 -0.780544 0
M  V30 1407 H 133.618 -0.496727 -1.88257 0
M  V30 1408 H 131.789 1.28436 -3.6655 0
M  V30 1409 H 133.521 1.15734 -3.87799 0
M  V30 1410 H 130.276 -0.693577 -4.68494 0
M  V30 1411 H 130.7 -2.88347 -6.12524 0
M  V30 1412 H 135.342 -0.744356 -4.16196 0
M  V30 1413 H 133.06 -4.2992 -6.84247 0
M  V30 1414 H 136.646 -2.55667 -5.22614 0
M  V30 1415 H 135.526 -4.31056 -6.55103 0
M  V30 1416 N 133.029 1.57378 -0.0835403 0
M  V30 1417 C 134.278 1.93106 0.582498 0
M  V30 1418 C 134.591 0.96651 1.70053 0
M  V30 1419 O 135.797 1.21705 2.42693 0
M  V30 1420 C 134.253 3.43076 1.08751 0
M  V30 1421 C 133.861 4.48 -0.000146404 0
M  V30 1422 C 135.605 3.87785 1.72694 0
M  V30 1423 C 133.512 5.89113 0.519568 0
M  V30 1424 H 132.442 0.720775 0.221358 0
M  V30 1425 H 135.093 1.82821 -0.157675 0
M  V30 1426 H 133.475 3.48474 1.88101 0
M  V30 1427 H 134.649 4.54233 -0.775199 0
M  V30 1428 H 132.964 4.1283 -0.54406 0
M  V30 1429 H 135.561 4.90604 2.1263 0
M  V30 1430 H 135.904 3.25796 2.59158 0
M  V30 1431 H 136.437 3.8504 0.999457 0
M  V30 1432 H 133.176 6.54775 -0.308186 0
M  V30 1433 H 132.696 5.86376 1.26188 0
M  V30 1434 H 134.375 6.39346 0.992237 0
M  V30 1435 N 134.507 -0.190092 1.56449 0
M  V30 1436 C 135.923 -0.54113 1.50146 0
M  V30 1437 C 136.123 -1.85603 0.784465 0
M  V30 1438 O 135.179 -2.5024 0.337051 0
M  V30 1439 C 136.492 -0.591241 2.9483 0
M  V30 1440 C 138.04 -0.679732 3.0553 0
M  V30 1441 C 138.515 -0.760908 4.51635 0
M  V30 1442 N 140.006 -0.824302 4.55806 0
M  V30 1443 C 140.741 -0.907365 5.66175 0
M  V30 1444 N 140.237 -0.952422 6.86222 0
M  V30 1445 N 142.03 -0.94494 5.541 0
M  V30 1446 H 134.181 0.67235 2.01478 0
M  V30 1447 H 136.444 0.240127 0.917084 0
M  V30 1448 H 136.15 0.305905 3.50367 0
M  V30 1449 H 136.024 -1.44422 3.48457 0
M  V30 1450 H 138.411 -1.56731 2.50039 0
M  V30 1451 H 138.492 0.199549 2.5502 0
M  V30 1452 H 138.136 0.122336 5.07753 0
M  V30 1453 H 138.066 -1.65606 4.99882 0
M  V30 1454 H 140.557 -0.798526 3.69367 0
M  V30 1455 H 140.87 -1.01645 7.66086 0
M  V30 1456 H 139.215 -0.921014 6.8887 0
M  V30 1457 H 142.406 -0.906612 4.59236 0
M  V30 1458 H 142.579 -1.00622 6.4014 0
M  V30 1459 N 135.985 -1.50799 -0.457987 0
M  V30 1460 C 137.213 -1.66218 -1.23203 0
M  V30 1461 C 137.628 -0.350894 -1.85511 0
M  V30 1462 O 136.985 0.668546 -1.69814 0
M  V30 1463 C 137.036 -2.76291 -2.33121 0
M  V30 1464 O 136.757 -4.02338 -1.73366 0
M  V30 1465 C 138.258 -3.028 -3.2377 0
M  V30 1466 H 135.478 -0.558361 -0.372121 0
M  V30 1467 H 138.022 -1.97099 -0.545179 0
M  V30 1468 H 136.177 -2.48068 -2.97558 0
M  V30 1469 H 136.591 -4.63312 -2.4585 0
M  V30 1470 H 138.065 -3.8345 -3.97077 0
M  V30 1471 H 138.542 -2.14385 -3.83322 0
M  V30 1472 H 139.148 -3.32604 -2.65056 0
M  V30 1473 N 137.463 0.71206 -1.40597 0
M  V30 1474 C 138.395 1.83704 -1.37061 0
M  V30 1475 C 139.408 1.60453 -0.275426 0
M  V30 1476 O 140.597 1.70262 -0.53602 0
M  V30 1477 C 137.697 3.20172 -1.11099 0
M  V30 1478 C 136.87 3.7059 -2.3234 0
M  V30 1479 C 135.929 4.85681 -2.02485 0
M  V30 1480 O 134.955 4.9815 -2.75382 0
M  V30 1481 N 136.157 5.71735 -1.00497 0
M  V30 1482 H 138.922 1.87235 -2.34016 0
M  V30 1483 H 136.483 0.893739 -1.34996 0
M  V30 1484 H 138.475 3.94768 -0.891064 0
M  V30 1485 H 137.045 3.11767 -0.227989 0
M  V30 1486 H 136.265 2.87085 -2.7014 0
M  V30 1487 H 137.553 4.01011 -3.13157 0
M  V30 1488 H 136.951 5.64275 -0.401298 0
M  V30 1489 H 135.508 6.463 -0.844942 0
M  V30 1490 N 138.941 1.26152 0.944643 0
M  V30 1491 C 139.873 1.03199 2.04652 0
M  V30 1492 C 140.886 -0.00642356 1.62799 0
M  V30 1493 O 142.075 0.233263 1.76969 0
M  V30 1494 C 139.175 0.540111 3.34568 0
M  V30 1495 C 138.348 1.64697 4.05208 0
M  V30 1496 C 137.407 1.15374 5.13396 0
M  V30 1497 O 136.433 1.85013 5.38293 0
M  V30 1498 N 137.635 0.00031529 5.805 0
M  V30 1499 H 140.4 1.9808 2.2491 0
M  V30 1500 H 137.961 1.17491 1.11389 0
M  V30 1501 H 139.953 0.194401 4.04233 0
M  V30 1502 H 138.523 -0.315021 3.11009 0
M  V30 1503 H 137.743 2.16379 3.29506 0
M  V30 1504 H 139.031 2.3903 4.49157 0
M  V30 1505 H 138.429 -0.581336 5.62705 0
M  V30 1506 H 136.986 -0.286346 6.51171 0
M  V30 1507 N 140.419 -1.14872 1.07899 0
M  V30 1508 C 141.369 -2.17809 0.674027 0
M  V30 1509 C 142.353 -1.58008 -0.303699 0
M  V30 1510 O 143.545 -1.76616 -0.11654 0
M  V30 1511 C 140.674 -3.43208 0.0793318 0
M  V30 1512 C 139.76 -4.10051 1.08253 0
M  V30 1513 N 140.151 -4.52296 2.2641 0
M  V30 1514 C 138.449 -4.36469 0.917124 0
M  V30 1515 C 139.15 -5.04199 2.901 0
M  V30 1516 N 138.126 -4.98088 2.17736 0
M  V30 1517 H 141.928 -2.48207 1.57386 0
M  V30 1518 H 139.442 -1.315 0.952976 0
M  V30 1519 H 141.439 -4.16272 -0.228719 0
M  V30 1520 H 140.099 -3.14291 -0.815551 0
M  V30 1521 H 141.11 -4.45504 2.64096 0
M  V30 1522 H 137.787 -4.17432 0.0756078 0
M  V30 1523 H 139.177 -5.46802 3.90458 0
M  V30 1524 N 141.898 -0.863906 -1.31812 0
M  V30 1525 C 143.128 -0.485406 -2.00817 0
M  V30 1526 C 143.536 0.925007 -1.65046 0
M  V30 1527 O 142.879 1.61653 -0.872574 0
M  V30 1528 C 142.941 -0.555589 -3.55181 0
M  V30 1529 C 142.605 -1.92654 -4.14407 0
M  V30 1530 C 143.602 -2.89324 -4.31958 0
M  V30 1531 C 141.287 -2.2262 -4.50273 0
M  V30 1532 C 143.281 -4.14108 -4.84555 0
M  V30 1533 C 140.968 -3.47654 -5.02573 0
M  V30 1534 C 141.966 -4.43214 -5.19664 0
M  V30 1535 O 141.654 -5.66033 -5.70843 0
M  V30 1536 H 141.386 -0.188224 -0.649267 0
M  V30 1537 H 143.94 -1.16514 -1.69156 0
M  V30 1538 H 142.17 0.181037 -3.86276 0
M  V30 1539 H 143.859 -0.19138 -4.05449 0
M  V30 1540 H 144.625 -2.6748 -4.04573 0
M  V30 1541 H 140.504 -1.4902 -4.3625 0
M  V30 1542 H 144.048 -4.88703 -4.9781 0
M  V30 1543 H 139.945 -3.69345 -5.29391 0
M  V30 1544 H 140.713 -5.6812 -5.89222 0
M  V30 1545 N 143.376 1.44774 -0.622745 0
M  V30 1546 C 144.606 2.06187 -0.130532 0
M  V30 1547 C 145.014 1.46547 1.19669 0
M  V30 1548 O 144.357 0.579636 1.74316 0
M  V30 1549 C 144.419 3.59437 0.0674983 0
M  V30 1550 C 144.083 4.41496 -1.18026 0
M  V30 1551 C 145.08 4.75512 -2.102 0
M  V30 1552 C 142.765 4.82007 -1.41333 0
M  V30 1553 C 144.759 5.48912 -3.23998 0
M  V30 1554 C 142.446 5.55157 -2.55429 0
M  V30 1555 C 143.444 5.88528 -3.46589 0
M  V30 1556 O 143.132 6.60191 -4.58697 0
M  V30 1557 H 142.864 0.672045 -0.0730162 0
M  V30 1558 H 145.418 1.86768 -0.854802 0
M  V30 1559 H 143.648 3.77314 0.846825 0
M  V30 1560 H 145.337 4.02642 0.513209 0
M  V30 1561 H 146.103 4.4476 -1.93425 0
M  V30 1562 H 141.982 4.55457 -0.712709 0
M  V30 1563 H 145.526 5.74877 -3.95174 0
M  V30 1564 H 141.423 5.85324 -2.72151 0
M  V30 1565 H 142.191 6.78654 -4.57571 0
M  V30 1566 N 144.854 0.36279 1.53368 0
M  V30 1567 C 145.764 -0.492994 2.29362 0
M  V30 1568 C 146.78 -1.09507 1.35219 0
M  V30 1569 O 147.956 -1.10662 1.68273 0
M  V30 1570 C 145.021 -1.61855 3.066 0
M  V30 1571 C 144.082 -1.04429 4.16405 0
M  V30 1572 C 143.315 -2.11621 4.89951 0
M  V30 1573 O 143.538 -3.32684 4.63333 0
M  V30 1574 O 142.472 -1.74835 5.75948 0
M  V30 1575 H 146.298 0.125331 3.03441 0
M  V30 1576 H 143.883 0.127253 1.48857 0
M  V30 1577 H 145.765 -2.27302 3.54841 0
M  V30 1578 H 144.44 -2.22233 2.3536 0
M  V30 1579 H 143.347 -0.353819 3.72423 0
M  V30 1580 H 144.68 -0.485113 4.89804 0
M  V30 1581 N 146.332 -1.57332 0.0918853 0
M  V30 1582 C 147.748 -1.57389 -0.264766 0
M  V30 1583 C 147.948 -1.10281 -1.68643 0
M  V30 1584 O 147.004 -0.777801 -2.40222 0
M  V30 1585 C 148.317 -3.00648 -0.0561195 0
M  V30 1586 C 149.865 -3.12754 -0.124116 0
M  V30 1587 C 150.34 -4.57965 0.0564972 0
M  V30 1588 N 151.831 -4.632 0.00155611 0
M  V30 1589 C 152.566 -5.73281 0.116598 0
M  V30 1590 N 152.062 -6.92208 0.286294 0
M  V30 1591 N 153.855 -5.6207 0.0580973 0
M  V30 1592 H 146.006 -1.86262 1.02079 0
M  V30 1593 H 148.269 -0.859579 0.399786 0
M  V30 1594 H 147.975 -3.393 0.925669 0
M  V30 1595 H 147.849 -3.68623 -0.799823 0
M  V30 1596 H 150.236 -2.73976 -1.09641 0
M  V30 1597 H 150.317 -2.47377 0.651024 0
M  V30 1598 H 149.961 -4.97436 1.02564 0
M  V30 1599 H 149.891 -5.21399 -0.738297 0
M  V30 1600 H 152.382 -3.77686 -0.127192 0
M  V30 1601 H 152.695 -7.71934 0.365676 0
M  V30 1602 H 151.04 -6.94254 0.32192 0
M  V30 1603 H 154.231 -4.68043 -0.0733204 0
M  V30 1604 H 154.404 -6.47824 0.151203 0
M  V30 1605 N 147.81 0.181792 -1.56548 0
M  V30 1606 C 149.087 0.926765 -1.72251 0
M  V30 1607 C 149.467 2.00831 -0.650386 0
M  V30 1608 O 148.815 2.26008 0.336521 0
M  V30 1609 C 149.025 1.50106 -3.1507 0
M  V30 1610 C 150.373 1.97805 -3.75711 0
M  V30 1611 O 151.397 1.59922 -3.18282 0
M  V30 1612 O 150.256 2.67555 -4.76525 0
M  V30 1613 H 147.35 0.435506 -0.703039 0
M  V30 1614 H 149.896 0.170443 -1.68842 0
M  V30 1615 H 148.668 0.72212 -3.84579 0
M  V30 1616 H 148.291 2.32186 -3.22763 0
M  V30 1617 N 149.288 1.51039 0.449983 0
M  V30 1618 C 150.699 1.557 1.03026 0
M  V30 1619 C 151.05 0.372939 1.92623 0
M  V30 1620 O 150.175 -0.511771 2.10261 0
M  V30 1621 C 150.77 2.82171 1.87523 0
M  V30 1622 C 149.329 2.89444 2.40622 0
M  V30 1623 C 148.476 2.50228 1.19504 0
M  V30 1624 H 151.427 1.56999 0.231745 0
M  V30 1625 H 151.448 2.65219 2.72835 0
M  V30 1626 H 150.96 3.68331 1.22286 0
M  V30 1627 H 149.061 2.07685 3.0935 0
M  V30 1628 H 149.174 3.92816 2.74285 0
M  V30 1629 H 147.538 2.03139 1.53644 0
M  V30 1630 H 148.321 3.38719 0.558972 0
M  V30 1631 N 150.766 -0.704594 1.40972 0
M  V30 1632 C 151.713 -1.81862 1.42109 0
M  V30 1633 C 152.683 -1.63781 0.276593 0
M  V30 1634 O 153.868 -1.84759 0.4763 0
M  V30 1635 C 151.008 -3.19669 1.30022 0
M  V30 1636 C 150.121 -3.49246 2.54267 0
M  V30 1637 C 149.256 -4.76618 2.3454 0
M  V30 1638 C 148.295 -4.99133 3.54306 0
M  V30 1639 N 147.432 -6.17726 3.33706 0
M  V30 1640 H 152.272 -1.80226 2.37324 0
M  V30 1641 H 149.809 -0.880238 1.17857 0
M  V30 1642 H 151.767 -3.99263 1.21018 0
M  V30 1643 H 150.397 -3.20506 0.384192 0
M  V30 1644 H 149.449 -2.64125 2.73756 0
M  V30 1645 H 150.761 -3.61788 3.43381 0
M  V30 1646 H 149.915 -5.64249 2.22952 0
M  V30 1647 H 148.654 -4.66305 1.42867 0
M  V30 1648 H 147.659 -4.09953 3.66359 0
M  V30 1649 H 148.884 -5.11311 4.4692 0
M  V30 1650 H 146.83 -6.08642 2.44725 0
M  V30 1651 H 146.747 -6.30995 4.16391 0
M  V30 1652 H 148.015 -7.08115 3.25873 0
M  V30 1653 N 152.244 -1.26651 -0.937939 0
M  V30 1654 C 153.66 -1.03834 -1.21205 0
M  V30 1655 C 153.86 0.234502 -2.00131 0
M  V30 1656 O 152.916 0.942767 -2.3424 0
M  V30 1657 C 154.229 -2.27167 -1.97017 0
M  V30 1658 C 155.777 -2.32101 -2.09996 0
M  V30 1659 C 156.252 -3.55136 -2.8921 0
M  V30 1660 N 157.743 -3.55632 -2.96783 0
M  V30 1661 C 158.478 -4.475 -3.58512 0
M  V30 1662 N 157.974 -5.4966 -4.21717 0
M  V30 1663 N 159.767 -4.35145 -3.55816 0
M  V30 1664 H 151.918 -2.08398 -0.410391 0
M  V30 1665 H 154.181 -0.916031 -0.244114 0
M  V30 1666 H 153.887 -3.19765 -1.46434 0
M  V30 1667 H 153.761 -2.31672 -2.97671 0
M  V30 1668 H 156.148 -1.40015 -2.59769 0
M  V30 1669 H 156.229 -2.31605 -1.08594 0
M  V30 1670 H 155.873 -4.47553 -2.40123 0
M  V30 1671 H 155.803 -3.5288 -3.90875 0
M  V30 1672 H 158.294 -2.81743 -2.51852 0
M  V30 1673 H 158.607 -6.15943 -4.66727 0
M  V30 1674 H 156.952 -5.53514 -4.20294 0
M  V30 1675 H 160.143 -3.5455 -3.05634 0
M  V30 1676 H 160.316 -5.06934 -4.03636 0
M  V30 1677 N 153.722 1.14298 -1.08507 0
M  V30 1678 C 154.971 1.84708 -0.810305 0
M  V30 1679 C 155.284 1.83903 0.666271 0
M  V30 1680 O 156.49 2.50112 1.05624 0
M  V30 1681 C 154.946 3.31572 -1.39957 0
M  V30 1682 C 154.554 3.40791 -2.90801 0
M  V30 1683 C 156.298 4.07087 -1.20334 0
M  V30 1684 C 154.205 4.81872 -3.4286 0
M  V30 1685 H 153.135 0.691985 -0.299454 0
M  V30 1686 H 155.786 1.28841 -1.30661 0
M  V30 1687 H 154.168 3.87183 -0.830976 0
M  V30 1688 H 155.342 2.95225 -3.53806 0
M  V30 1689 H 153.657 2.78732 -3.0935 0
M  V30 1690 H 156.254 5.11225 -1.56693 0
M  V30 1691 H 156.597 4.16054 -0.143237 0
M  V30 1692 H 157.13 3.57779 -1.73893 0
M  V30 1693 H 153.869 4.78094 -4.48449 0
M  V30 1694 H 153.389 5.27972 -2.84615 0
M  V30 1695 H 155.068 5.50765 -3.39509 0
M  V30 1696 N 155.201 0.870884 1.31352 0
M  V30 1697 C 156.431 0.496049 2.00557 0
M  V30 1698 C 156.839 -0.916241 1.65534 0
M  V30 1699 O 156.182 -1.61188 0.881134 0
M  V30 1700 C 156.244 0.574418 3.54881 0
M  V30 1701 C 155.908 1.94849 4.1338 0
M  V30 1702 C 156.905 2.91611 4.30417 0
M  V30 1703 C 154.59 2.25005 4.49086 0
M  V30 1704 C 156.584 4.16672 4.82352 0
M  V30 1705 C 154.271 3.50315 5.00722 0
M  V30 1706 C 155.269 4.45964 5.17306 0
M  V30 1707 O 154.957 5.69052 5.67833 0
M  V30 1708 H 154.689 0.191664 0.64826 0
M  V30 1709 H 157.243 1.17409 1.68536 0
M  V30 1710 H 155.473 -0.160549 3.86367 0
M  V30 1711 H 157.162 0.212879 4.05341 0
M  V30 1712 H 157.928 2.69622 4.03149 0
M  V30 1713 H 153.807 1.51332 4.35453 0
M  V30 1714 H 157.351 4.91336 4.95211 0
M  V30 1715 H 153.248 3.72147 5.27424 0
M  V30 1716 H 154.016 5.71236 5.86201 0
M  V30 1717 N 156.679 -1.44442 0.630414 0
M  V30 1718 C 157.909 -2.06115 0.141465 0
M  V30 1719 C 158.317 -1.47179 -1.1889 0
M  V30 1720 O 157.66 -0.588873 -1.74006 0
M  V30 1721 C 157.722 -3.59467 -0.0484355 0
M  V30 1722 C 157.386 -4.40864 1.20366 0
M  V30 1723 C 158.383 -4.74391 2.12719 0
M  V30 1724 C 156.068 -4.8125 1.43887 0
M  V30 1725 C 158.062 -5.47186 3.26904 0
M  V30 1726 C 155.749 -5.53795 2.5837 0
M  V30 1727 C 156.747 -5.86682 3.49705 0
M  V30 1728 O 156.435 -6.57749 4.62191 0
M  V30 1729 H 156.167 -0.671648 0.0765792 0
M  V30 1730 H 158.721 -1.86312 0.864695 0
M  V30 1731 H 156.951 -3.77758 -0.826803 0
M  V30 1732 H 158.64 -4.02909 -0.491849 0
M  V30 1733 H 159.406 -4.43728 1.95781 0
M  V30 1734 H 155.285 -4.55073 0.736853 0
M  V30 1735 H 158.829 -5.72773 3.98217 0
M  V30 1736 H 154.726 -5.83872 2.75251 0
M  V30 1737 H 155.494 -6.76217 4.61164 0
M  V30 1738 N 158.157 -0.370918 -1.53173 0
M  V30 1739 C 159.087 0.464847 -2.28826 0
M  V30 1740 C 160.068 1.07936 -1.31468 0
M  V30 1741 O 161.253 1.0956 -1.60344 0
M  V30 1742 C 158.383 1.60196 -3.08147 0
M  V30 1743 C 157.337 1.11443 -4.13237 0
M  V30 1744 C 156.663 2.3422 -4.80672 0
M  V30 1745 C 157.963 0.195384 -5.21934 0
M  V30 1746 H 159.657 -0.166329 -2.98938 0
M  V30 1747 H 157.203 -0.0814359 -1.4377 0
M  V30 1748 H 159.156 2.19332 -3.59822 0
M  V30 1749 H 157.88 2.26045 -2.35735 0
M  V30 1750 H 156.539 0.545727 -3.62515 0
M  V30 1751 H 156.187 2.98537 -4.04827 0
M  V30 1752 H 155.887 2.02269 -5.51689 0
M  V30 1753 H 157.411 2.94032 -5.35143 0
M  V30 1754 H 158.825 0.694375 -5.69079 0
M  V30 1755 H 157.222 -0.0335027 -6.00091 0
M  V30 1756 H 158.292 -0.760961 -4.78892 0
M  V30 1757 N 159.635 1.57281 -0.100228 0
M  V30 1758 C 160.86 1.99302 0.573881 0
M  V30 1759 C 161.285 0.979059 1.60611 0
M  V30 1760 O 160.643 -0.0517803 1.81226 0
M  V30 1761 C 160.691 3.40274 1.19358 0
M  V30 1762 O 159.795 3.41676 2.30935 0
M  V30 1763 H 159.136 0.647944 0.145138 0
M  V30 1764 H 161.666 2.03779 -0.183156 0
M  V30 1765 H 161.676 3.78078 1.53365 0
M  V30 1766 H 160.351 4.13594 0.437385 0
M  V30 1767 H 158.928 3.15672 1.98509 0
M  V30 1768 N 161.113 -0.173488 1.56642 0
M  V30 1769 C 162.043 -1.2171 1.99271 0
M  V30 1770 C 163.024 -1.46289 0.867959 0
M  V30 1771 O 164.209 -1.5766 1.13388 0
M  V30 1772 C 161.339 -2.55651 2.35074 0
M  V30 1773 C 160.293 -2.45645 3.50489 0
M  V30 1774 C 159.619 -3.84056 3.72028 0
M  V30 1775 C 160.919 -1.96302 4.84007 0
M  V30 1776 H 162.613 -0.86275 2.867 0
M  V30 1777 H 160.159 -0.413571 1.37933 0
M  V30 1778 H 162.112 -3.2886 2.63494 0
M  V30 1779 H 160.836 -2.92869 1.44552 0
M  V30 1780 H 159.495 -1.7489 3.22194 0
M  V30 1781 H 159.143 -4.18664 2.788 0
M  V30 1782 H 158.843 -3.7823 4.49684 0
M  V30 1783 H 160.367 -4.58854 4.02846 0
M  V30 1784 H 161.781 -2.59284 5.11317 0
M  V30 1785 H 160.178 -2.01429 5.65284 0
M  V30 1786 H 161.248 -0.917226 4.76146 0
M  V30 1787 N 162.591 -1.51276 -0.441967 0
M  V30 1788 C 163.501 -1.75092 -1.56141 0
M  V30 1789 C 164.517 -0.634963 -1.62001 0
M  V30 1790 O 165.693 -0.916686 -1.79329 0
M  V30 1791 C 162.758 -1.86666 -2.92158 0
M  V30 1792 C 161.819 -3.10506 -2.96453 0
M  V30 1793 C 161.052 -3.21519 -4.25982 0
M  V30 1794 O 161.275 -2.38586 -5.18105 0
M  V30 1795 O 160.209 -4.14465 -4.36466 0
M  V30 1796 H 164.035 -2.70044 -1.38961 0
M  V30 1797 H 161.62 -1.35722 -0.624499 0
M  V30 1798 H 163.502 -1.96292 -3.72891 0
M  V30 1799 H 162.177 -0.949014 -3.09476 0
M  V30 1800 H 161.084 -3.06363 -2.14692 0
M  V30 1801 H 162.417 -4.01945 -2.84079 0
M  V30 1802 N 164.069 0.697108 -1.41344 0
M  V30 1803 C 165.316 1.45714 -1.40619 0
M  V30 1804 C 165.644 1.94494 -0.0147907 0
M  V30 1805 O 164.899 1.69794 0.973066 0
M  V30 1806 C 165.198 2.68553 -2.35826 0
M  V30 1807 C 164.864 2.38438 -3.82698 0
M  V30 1808 C 163.526 2.29936 -4.22709 0
M  V30 1809 C 165.878 2.13567 -4.75435 0
M  V30 1810 C 163.206 1.94656 -5.53467 0
M  V30 1811 C 165.558 1.79797 -6.06511 0
M  V30 1812 C 164.222 1.69789 -6.45545 0
M  V30 1813 H 163.492 0.533206 -0.51456 0
M  V30 1814 H 166.139 0.796901 -1.74131 0
M  V30 1815 H 164.444 3.39503 -1.95563 0
M  V30 1816 H 166.141 3.2669 -2.32539 0
M  V30 1817 H 162.731 2.4595 -3.51008 0
M  V30 1818 H 166.915 2.19082 -4.45328 0
M  V30 1819 H 162.171 1.8546 -5.82593 0
M  V30 1820 H 166.345 1.59572 -6.77872 0
M  V30 1821 H 163.972 1.4222 -7.46778 0
M  V30 1822 N 165.547 1.27147 0.931209 0
M  V30 1823 C 166.777 1.15914 1.71019 0
M  V30 1824 C 167.185 -0.287112 1.87009 0
M  V30 1825 O 166.528 -1.20761 1.38429 0
M  V30 1826 C 166.59 1.76647 3.13107 0
M  V30 1827 C 166.254 3.25807 3.20467 0
M  V30 1828 C 167.251 4.22489 3.02983 0
M  V30 1829 C 164.936 3.66452 3.43538 0
M  V30 1830 C 166.93 5.57794 3.08454 0
M  V30 1831 C 164.617 5.01888 3.48643 0
M  V30 1832 C 165.615 5.97369 3.31119 0
M  V30 1833 O 165.303 7.30337 3.35952 0
M  V30 1834 H 165.035 0.404062 0.54195 0
M  V30 1835 H 167.589 1.68457 1.17521 0
M  V30 1836 H 165.819 1.18578 3.68071 0
M  V30 1837 H 167.508 1.60179 3.72958 0
M  V30 1838 H 168.274 3.92425 2.85004 0
M  V30 1839 H 164.153 2.92611 3.5623 0
M  V30 1840 H 167.697 6.32298 2.94694 0
M  V30 1841 H 163.594 5.31609 3.66145 0
M  V30 1842 H 164.362 7.38739 3.5243 0
M  V30 1843 N 167.025 -1.13721 1.09112 0
M  V30 1844 C 167.958 -2.18094 0.67158 0
M  V30 1845 C 168.936 -1.59414 -0.320299 0
M  V30 1846 O 170.12 -1.87183 -0.222444 0
M  V30 1847 C 167.247 -3.38698 -0.0111189 0
M  V30 1848 C 166.293 -4.15966 0.942055 0
M  V30 1849 S 167.126 -4.7604 2.45246 0
M  V30 1850 C 168.282 -5.99994 1.78208 0
M  V30 1851 H 168.515 -2.53344 1.55577 0
M  V30 1852 H 166.048 -1.24967 0.906789 0
M  V30 1853 H 168.006 -4.08559 -0.398716 0
M  V30 1854 H 166.667 -3.01756 -0.871905 0
M  V30 1855 H 165.86 -5.02318 0.411396 0
M  V30 1856 H 165.462 -3.51745 1.2709 0
M  V30 1857 H 167.754 -6.68441 1.10424 0
M  V30 1858 H 168.697 -6.57662 2.62463 0
M  V30 1859 H 169.105 -5.50432 1.25238 0
M  V30 1860 N 168.503 -0.877838 -1.30888 0
M  V30 1861 C 169.751 -0.491723 -1.96027 0
M  V30 1862 C 170.072 0.960827 -1.69685 0
M  V30 1863 O 169.342 1.67462 -1.01654 0
M  V30 1864 H 167.922 -0.17885 -0.725273 0
M  V30 1865 H 170.584 -1.11935 -1.59551 0
M  V30 1866 H 169.68 -0.656016 -3.05128 0
M  V30 1867 N 169.982 1.44106 -0.638065 0
M  V30 1868 C 171.398 1.56672 -0.304286 0
M  V30 1869 C 171.598 1.6244 1.19228 0
M  V30 1870 O 170.654 1.57121 1.9766 0
M  V30 1871 C 171.967 2.83503 -1.00231 0
M  V30 1872 C 173.515 2.97226 -0.981116 0
M  V30 1873 C 173.99 4.26868 -1.65974 0
M  V30 1874 N 175.481 4.33698 -1.62666 0
M  V30 1875 C 176.216 5.32745 -2.12063 0
M  V30 1876 N 175.712 6.38157 -2.6968 0
M  V30 1877 N 177.505 5.24299 -2.02651 0
M  V30 1878 H 169.656 1.38605 -1.60942 0
M  V30 1879 H 171.919 0.664661 -0.675965 0
M  V30 1880 H 171.625 2.85251 -2.0573 0
M  V30 1881 H 171.499 3.73251 -0.54439 0
M  V30 1882 H 173.886 2.95027 0.0654188 0
M  V30 1883 H 173.967 2.08808 -1.47759 0
M  V30 1884 H 173.611 4.29826 -2.70576 0
M  V30 1885 H 173.541 5.14156 -1.13804 0
M  V30 1886 H 176.032 3.58138 -1.20606 0
M  V30 1887 H 176.345 7.10029 -3.05087 0
M  V30 1888 H 174.69 6.38823 -2.73734 0
M  V30 1889 H 177.881 4.4086 -1.57353 0
M  V30 1890 H 178.054 6.01334 -2.41457 0
M  V30 1891 N 171.46 0.379036 1.52974 0
M  V30 1892 C 172.688 -0.20679 2.05864 0
M  V30 1893 C 173.103 -1.41356 1.25155 0
M  V30 1894 O 172.46 -1.8009 0.295588 0
M  V30 1895 C 172.511 -0.587045 3.56702 0
M  V30 1896 O 172.232 0.571776 4.34353 0
M  V30 1897 C 173.733 -1.22983 4.25899 0
M  V30 1898 H 170.953 -0.0336123 0.670158 0
M  V30 1899 H 173.497 0.541298 1.97206 0
M  V30 1900 H 171.652 -1.28504 3.65466 0
M  V30 1901 H 172.066 0.261544 5.23847 0
M  V30 1902 H 173.54 -1.44635 5.32715 0
M  V30 1903 H 174.017 -2.19416 3.80465 0
M  V30 1904 H 174.623 -0.572892 4.21424 0
M  V30 1905 N 172.938 -1.57226 0.108567 0
M  V30 1906 C 173.868 -2.17778 -0.84232 0
M  V30 1907 C 174.849 -1.11487 -1.2847 0
M  V30 1908 O 176.034 -1.39681 -1.34918 0
M  V30 1909 C 173.164 -2.76888 -2.09644 0
M  V30 1910 C 172.118 -3.88669 -1.79221 0
M  V30 1911 C 171.444 -4.34541 -3.11574 0
M  V30 1912 C 172.744 -5.11251 -1.06864 0
M  V30 1913 H 174.438 -2.97489 -0.337774 0
M  V30 1914 H 171.984 -1.43097 -0.161025 0
M  V30 1915 H 173.937 -3.17904 -2.76614 0
M  V30 1916 H 172.661 -1.94451 -2.62405 0
M  V30 1917 H 171.32 -3.48213 -1.14644 0
M  V30 1918 H 170.968 -3.48977 -3.62249 0
M  V30 1919 H 170.668 -5.09914 -2.91996 0
M  V30 1920 H 172.192 -4.782 -3.7968 0
M  V30 1921 H 173.606 -5.49352 -1.63968 0
M  V30 1922 H 172.003 -5.9214 -0.974178 0
M  V30 1923 H 173.073 -4.8487 -0.0536168 0
M  V30 1924 N 174.416 0.165178 -1.56732 0
M  V30 1925 C 175.348 1.22911 -1.93457 0
M  V30 1926 C 176.361 1.40152 -0.828333 0
M  V30 1927 O 177.55 1.40046 -1.10677 0
M  V30 1928 C 174.65 2.59686 -2.17753 0
M  V30 1929 C 173.823 2.63663 -3.48999 0
M  V30 1930 C 172.882 3.81845 -3.62051 0
M  V30 1931 O 171.908 3.67559 -4.34613 0
M  V30 1932 N 173.11 4.98557 -2.97357 0
M  V30 1933 H 175.875 0.917118 -2.85323 0
M  V30 1934 H 173.436 0.354895 -1.57962 0
M  V30 1935 H 175.428 3.37225 -2.23743 0
M  V30 1936 H 173.998 2.83251 -1.32242 0
M  V30 1937 H 173.218 1.72173 -3.54612 0
M  V30 1938 H 174.506 2.63336 -4.35352 0
M  V30 1939 H 173.904 5.13065 -2.38287 0
M  V30 1940 H 172.461 5.73936 -3.08934 0
M  V30 1941 N 175.894 1.51508 0.433938 0
M  V30 1942 C 176.842 1.73646 1.54757 0
M  V30 1943 C 177.836 0.602854 1.5831 0
M  V30 1944 O 179.042 0.784318 1.62014 0
M  V30 1945 H 175.417 0.548718 0.51421 0
M  V30 1946 H 177.388 2.66991 1.33261 0
M  V30 1947 C 176.137 1.88172 2.92381 0
M  V30 1948 H 175.46 2.74808 2.90381 0
M  V30 1949 H 176.9 2.07672 3.6966 0
M  V30 1950 C 175.359 0.64239 3.30719 0
M  V30 1951 O 175.889 -0.201362 4.01195 0
M  V30 1952 N 174.095 0.485489 2.86516 0
M  V30 1953 H 173.642 1.17318 2.29334 0
M  V30 1954 H 173.6 -0.342482 3.12529 0
M  V30 1955 N 177.372 -0.689602 1.41712 0
M  V30 1956 C 178.6 -1.47827 1.44758 0
M  V30 1957 C 179.015 -1.88721 0.0545703 0
M  V30 1958 O 178.372 -1.57176 -0.927463 0
M  V30 1959 C 178.423 -2.73698 2.3616 0
M  V30 1960 O 178.144 -2.34524 3.7004 0
M  V30 1961 C 179.645 -3.67389 2.48072 0
M  V30 1962 H 176.865 -0.455357 0.49284 0
M  V30 1963 H 179.409 -0.848574 1.86063 0
M  V30 1964 H 177.564 -3.32891 1.98148 0
M  V30 1965 H 177.978 -3.15701 4.18847 0
M  V30 1966 H 179.452 -4.52475 3.16181 0
M  V30 1967 H 179.929 -4.12284 1.51388 0
M  V30 1968 H 180.535 -3.14097 2.86746 0
M  V30 1969 N 178.85 -1.27639 -0.924453 0
M  V30 1970 C 179.783 -1.04966 -2.02626 0
M  V30 1971 C 180.761 0.0309505 -1.62571 0
M  V30 1972 O 181.945 -0.114846 -1.8815 0
M  V30 1973 C 179.072 -0.59292 -3.3347 0
M  V30 1974 C 178.118 -1.66858 -3.92506 0
M  V30 1975 S 178.951 -3.2619 -4.24689 0
M  V30 1976 C 180.107 -2.82325 -5.58609 0
M  V30 1977 H 180.34 -1.98252 -2.21547 0
M  V30 1978 H 177.873 -1.11506 -1.06798 0
M  V30 1979 H 179.831 -0.336086 -4.09122 0
M  V30 1980 H 178.492 0.319939 -3.12466 0
M  V30 1981 H 177.685 -1.30038 -4.86935 0
M  V30 1982 H 177.287 -1.87766 -3.2345 0
M  V30 1983 H 179.579 -2.2783 -6.38044 0
M  V30 1984 H 180.522 -3.75511 -6.00331 0
M  V30 1985 H 180.93 -2.21367 -5.19285 0
M  V30 1986 N 180.328 1.1314 -1.09713 0
M  V30 1987 C 181.574 1.84757 -0.836224 0
M  V30 1988 C 181.907 1.8347 0.636598 0
M  V30 1989 O 181.182 1.27491 1.46889 0
M  V30 1990 C 181.465 3.32782 -1.37578 0
M  V30 1991 C 181.318 3.42567 -2.91493 0
M  V30 1992 C 182.637 4.28307 -1.01198 0
M  V30 1993 H 179.756 0.67082 -0.305236 0
M  V30 1994 H 182.398 1.3278 -1.35903 0
M  V30 1995 H 180.548 3.77177 -0.931097 0
M  V30 1996 H 182.22 3.06862 -3.44432 0
M  V30 1997 H 180.463 2.83349 -3.28475 0
M  V30 1998 H 181.134 4.46674 -3.24324 0
M  V30 1999 H 183.61 3.91999 -1.39556 0
M  V30 2000 H 182.486 5.30307 -1.41653 0
M  V30 2001 H 182.747 4.42029 0.0794833 0
M  V30 2002 N 181.806 0.884767 1.30421 0
M  V30 2003 C 182.754 0.340869 2.30089 0
M  V30 2004 C 183.748 -0.55201 1.60154 0
M  V30 2005 O 184.954 -0.436467 1.74628 0
M  V30 2006 H 181.329 0.0915739 0.746404 0
M  V30 2007 H 183.3 1.19513 2.73421 0
M  V30 2008 C 182.049 -0.429779 3.45034 0
M  V30 2009 H 181.372 0.248024 3.9903 0
M  V30 2010 H 182.812 -0.775445 4.16849 0
M  V30 2011 C 181.271 -1.62677 2.95022 0
M  V30 2012 O 181.801 -2.72614 2.95033 0
M  V30 2013 N 180.007 -1.46387 2.51036 0
M  V30 2014 H 179.554 -0.569506 2.51226 0
M  V30 2015 H 179.512 -2.26612 2.17932 0
M  V30 2016 N 183.284 -1.43765 0.645699 0
M  V30 2017 C 184.214 -2.33471 -0.0370477 0
M  V30 2018 C 185.195 -1.49042 -0.819779 0
M  V30 2019 O 186.38 -1.77726 -0.782758 0
M  V30 2020 C 183.51 -3.32311 -1.0093 0
M  V30 2021 C 182.464 -4.2667 -0.337201 0
M  V30 2022 C 181.79 -5.1549 -1.42037 0
M  V30 2023 C 183.09 -5.16657 0.765706 0
M  V30 2024 H 184.784 -2.90809 0.712069 0
M  V30 2025 H 182.33 -1.39834 0.343876 0
M  V30 2026 H 184.283 -3.9396 -1.49578 0
M  V30 2027 H 183.007 -2.73213 -1.78948 0
M  V30 2028 H 181.666 -3.66374 0.128771 0
M  V30 2029 H 181.314 -4.52735 -2.1918 0
M  V30 2030 H 181.014 -5.79438 -0.975966 0
M  V30 2031 H 182.538 -5.80012 -1.90838 0
M  V30 2032 H 183.952 -5.72158 0.361702 0
M  V30 2033 H 182.349 -5.89286 1.13413 0
M  V30 2034 H 183.419 -4.56796 1.62683 0
M  V30 2035 N 184.763 -0.387143 -1.52771 0
M  V30 2036 C 186.011 0.195349 -2.01154 0
M  V30 2037 C 186.332 1.475 -1.27549 0
M  V30 2038 O 185.602 1.91878 -0.394924 0
M  V30 2039 H 184.182 0.075178 -0.743207 0
M  V30 2040 H 186.844 -0.518337 -1.87881 0
M  V30 2041 H 185.94 0.407096 -3.09434 0
M  V30 2042 N 186.241 1.57166 -0.116904 0
M  V30 2043 C 187.171 2.18222 0.830759 0
M  V30 2044 C 188.152 1.12167 1.27877 0
M  V30 2045 O 189.337 1.40394 1.34176 0
M  V30 2046 C 186.467 2.77996 2.08172 0
M  V30 2047 C 185.421 3.89614 1.77157 0
M  V30 2048 C 184.747 4.36187 3.09265 0
M  V30 2049 C 186.047 5.1181 1.04151 0
M  V30 2050 H 187.741 2.97664 0.321992 0
M  V30 2051 H 185.287 1.4318 0.153434 0
M  V30 2052 H 187.24 3.19366 2.74924 0
M  V30 2053 H 185.964 1.9584 2.6137 0
M  V30 2054 H 184.623 3.48816 1.12796 0
M  V30 2055 H 184.271 3.50893 3.60393 0
M  V30 2056 H 183.971 5.11455 2.89288 0
M  V30 2057 H 185.495 4.80207 3.77139 0
M  V30 2058 H 186.909 5.50214 1.61052 0
M  V30 2059 H 185.306 5.92648 0.942762 0
M  V30 2060 H 186.376 4.84892 0.0279022 0
M  V30 2061 N 187.719 -0.156864 1.56817 0
M  V30 2062 C 188.651 -1.21883 1.94106 0
M  V30 2063 C 189.664 -1.3971 0.835754 0
M  V30 2064 O 190.853 -1.39457 1.11418 0
M  V30 2065 C 187.953 -2.58527 2.19127 0
M  V30 2066 C 187.126 -2.61809 3.50393 0
M  V30 2067 C 186.185 -3.7992 3.64071 0
M  V30 2068 O 185.211 -3.65249 4.36557 0
M  V30 2069 N 186.413 -4.96973 2.99997 0
M  V30 2070 H 189.178 -0.901974 2.85805 0
M  V30 2071 H 186.739 -0.346513 1.58148 0
M  V30 2072 H 188.731 -3.36034 2.25529 0
M  V30 2073 H 187.301 -2.82545 1.33742 0
M  V30 2074 H 186.521 -1.7029 3.5552 0
M  V30 2075 H 187.809 -2.61024 4.36742 0
M  V30 2076 H 187.207 -5.11794 2.41004 0
M  V30 2077 H 185.764 -5.7229 3.11974 0
M  V30 2078 N 189.197 -1.51736 -0.425897 0
M  V30 2079 C 190.145 -1.74464 -1.53834 0
M  V30 2080 C 191.139 -0.611241 -1.57988 0
M  V30 2081 O 192.345 -0.792899 -1.61596 0
M  V30 2082 H 188.72 -0.551437 -0.511293 0
M  V30 2083 H 190.691 -2.67694 -1.31843 0
M  V30 2084 C 189.44 -1.8972 -2.91379 0
M  V30 2085 H 188.763 -2.76344 -2.88919 0
M  V30 2086 H 190.203 -2.09629 -3.68553 0
M  V30 2087 C 188.662 -0.65992 -3.30374 0
M  V30 2088 O 189.192 0.180083 -4.01296 0
M  V30 2089 N 187.398 -0.500677 -2.86254 0
M  V30 2090 H 186.945 -1.18532 -2.28709 0
M  V30 2091 H 186.903 0.325903 -3.12706 0
M  V30 2092 N 190.675 0.682077 -1.42076 0
M  V30 2093 C 191.638 1.77756 -1.44691 0
M  V30 2094 C 192.638 1.5726 -0.335535 0
M  V30 2095 O 193.828 1.63686 -0.596037 0
M  V30 2096 C 190.96 3.16301 -1.27146 0
M  V30 2097 H 192.153 1.76826 -2.42224 0
M  V30 2098 H 189.706 0.891012 -1.28416 0
M  V30 2099 H 190.441 3.22862 -0.305075 0
M  V30 2100 H 190.226 3.32581 -2.07683 0
M  V30 2101 H 191.716 3.96241 -1.31843 0
M  V30 2102 N 192.153 1.28127 0.917671 0
M  V30 2103 C 193.393 1.163 1.68088 0
M  V30 2104 C 193.757 -0.284515 1.8988 0
M  V30 2105 O 194.958 -0.525413 2.63615 0
M  V30 2106 C 193.229 1.93546 3.00457 0
M  V30 2107 S 194.788 1.98048 3.91564 0
M  V30 2108 H 191.606 0.415005 0.577315 0
M  V30 2109 H 194.208 1.62173 1.09179 0
M  V30 2110 H 192.912 2.97888 2.82295 0
M  V30 2111 H 192.443 1.48207 3.64415 0
M  V30 2112 H 194.458 1.08415 4.84211 0
M  V30 2113 N 193.631 -1.12557 1.10312 0
M  V30 2114 C 194.908 -1.80363 0.756878 0
M  V30 2115 C 195.288 -1.97067 -0.756824 0
M  V30 2116 O 194.636 -1.54601 -1.68259 0
M  V30 2117 C 194.846 -3.14812 1.50647 0
M  V30 2118 C 196.194 -3.90029 1.67817 0
M  V30 2119 O 197.218 -3.24464 1.46974 0
M  V30 2120 O 196.077 -5.07652 2.02365 0
M  V30 2121 H 193.171 -0.780667 0.272926 0
M  V30 2122 H 195.717 -1.19404 1.20586 0
M  V30 2123 H 194.489 -2.97936 2.53672 0
M  V30 2124 H 194.112 -3.83478 1.05026 0
M  V30 2125 N 195.109 -0.891671 -1.2995 0
M  V30 2126 C 196.019 -0.367691 -2.31701 0
M  V30 2127 C 197.035 0.533486 -1.6562 0
M  V30 2128 O 198.211 0.424997 -1.96865 0
M  V30 2129 C 195.276 0.403406 -3.44345 0
M  V30 2130 C 194.337 -0.528328 -4.26037 0
M  V30 2131 C 193.57 0.206063 -5.33302 0
M  V30 2132 O 193.793 1.43119 -5.52153 0
M  V30 2133 O 192.727 -0.447281 -6.00236 0
M  V30 2134 H 196.553 -1.21163 -2.78484 0
M  V30 2135 H 194.138 -0.655725 -1.34241 0
M  V30 2136 H 196.02 0.839753 -4.12948 0
M  V30 2137 H 194.695 1.22354 -2.99685 0
M  V30 2138 H 193.602 -1.01362 -3.60106 0
M  V30 2139 H 194.935 -1.31465 -4.74318 0
M  V30 2140 N 196.587 1.43421 -0.653314 0
M  V30 2141 C 197.55 2.29182 0.0287951 0
M  V30 2142 C 198.55 1.42213 0.750465 0
M  V30 2143 O 199.74 1.63843 0.591701 0
M  V30 2144 C 196.872 3.24278 1.05151 0
M  V30 2145 H 198.065 2.90985 -0.725786 0
M  V30 2146 H 195.618 1.50702 -0.414545 0
M  V30 2147 H 196.353 2.6737 1.83532 0
M  V30 2148 H 196.138 3.88396 0.537687 0
M  V30 2149 H 197.628 3.88647 1.52786 0
M  V30 2150 N 198.065 0.39524 1.52563 0
M  V30 2151 C 199.314 -0.186321 2.00838 0
M  V30 2152 C 199.627 -1.47402 1.28577 0
M  V30 2153 O 200.833 -2.13599 1.67593 0
M  V30 2154 C 199.289 -0.382595 3.57861 0
M  V30 2155 C 198.897 0.892202 4.39026 0
M  V30 2156 C 200.641 -0.9202 4.14406 0
M  V30 2157 C 198.548 0.66388 5.87662 0
M  V30 2158 H 197.478 -0.0734041 0.750418 0
M  V30 2159 H 200.129 0.518552 1.76021 0
M  V30 2160 H 198.511 -1.14946 3.7895 0
M  V30 2161 H 199.685 1.66414 4.29701 0
M  V30 2162 H 198 1.35519 3.9373 0
M  V30 2163 H 200.597 -1.10683 5.23119 0
M  V30 2164 H 200.94 -1.89096 3.70875 0
M  V30 2165 H 201.473 -0.212751 3.97231 0
M  V30 2166 H 198.212 1.6058 6.35527 0
M  V30 2167 H 197.732 -0.0690193 5.9976 0
M  V30 2168 H 199.411 0.300699 6.46301 0
M  V30 2169 N 199.544 -1.57102 0.125237 0
M  V30 2170 C 200.774 -1.99472 -0.538015 0
M  V30 2171 C 201.182 -1.00395 -1.60366 0
M  V30 2172 O 200.525 0.0103875 -1.83697 0
M  V30 2173 C 200.587 -3.38262 -1.21734 0
M  V30 2174 C 200.251 -4.56021 -0.298897 0
M  V30 2175 C 201.248 -5.17817 0.464943 0
M  V30 2176 C 198.933 -5.01869 -0.208149 0
M  V30 2177 C 200.927 -6.23852 1.3072 0
M  V30 2178 C 198.614 -6.07763 0.637736 0
M  V30 2179 C 199.612 -6.68622 1.39403 0
M  V30 2180 O 199.3 -7.7247 2.22586 0
M  V30 2181 H 199.032 -0.659934 -0.146501 0
M  V30 2182 H 201.586 -2.04321 0.210267 0
M  V30 2183 H 199.816 -3.30185 -2.01282 0
M  V30 2184 H 201.505 -3.6488 -1.77813 0
M  V30 2185 H 202.271 -4.83308 0.404741 0
M  V30 2186 H 198.15 -4.54241 -0.786522 0
M  V30 2187 H 201.694 -6.71284 1.898 0
M  V30 2188 H 197.591 -6.41701 0.699309 0
M  V30 2189 H 198.359 -7.89595 2.15596 0
M  V30 2190 N 201.022 0.148545 -1.56898 0
M  V30 2191 C 201.954 1.20852 -1.9475 0
M  V30 2192 C 202.967 1.39265 -0.843152 0
M  V30 2193 O 204.156 1.38864 -1.12156 0
M  V30 2194 C 201.256 2.57362 -2.20495 0
M  V30 2195 C 200.429 2.59947 -3.51776 0
M  V30 2196 C 199.488 3.77984 -3.6608 0
M  V30 2197 O 198.514 3.62929 -4.38487 0
M  V30 2198 N 199.716 4.95375 -3.02629 0
M  V30 2199 H 202.481 0.886804 -2.86279 0
M  V30 2200 H 200.042 0.338121 -1.5833 0
M  V30 2201 H 202.034 3.34833 -2.27307 0
M  V30 2202 H 200.604 2.81832 -1.35238 0
M  V30 2203 H 199.824 1.68403 -3.56419 0
M  V30 2204 H 201.112 2.58704 -4.38121 0
M  V30 2205 H 200.51 5.10509 -2.43715 0
M  V30 2206 H 199.067 5.70627 -3.15004 0
M  V30 2207 N 202.5 1.5196 0.417844 0
M  V30 2208 C 203.43 1.77634 1.51554 0
M  V30 2209 C 204.411 0.626918 1.58126 0
M  V30 2210 O 205.596 0.871632 1.7354 0
M  V30 2211 C 202.726 1.91911 2.8946 0
M  V30 2212 C 201.68 3.07463 2.97743 0
M  V30 2213 C 201.006 3.06951 4.37819 0
M  V30 2214 C 202.306 4.47082 2.70027 0
M  V30 2215 H 204 2.6955 1.3032 0
M  V30 2216 H 201.546 1.29706 0.625492 0
M  V30 2217 H 203.499 2.08455 3.6623 0
M  V30 2218 H 202.223 0.966598 3.11969 0
M  V30 2219 H 200.882 2.90656 2.23416 0
M  V30 2220 H 200.53 2.09438 4.57323 0
M  V30 2221 H 200.23 3.84556 4.44286 0
M  V30 2222 H 201.754 3.25613 5.16535 0
M  V30 2223 H 203.168 4.6414 3.36522 0
M  V30 2224 H 201.565 5.2654 2.87881 0
M  V30 2225 H 202.635 4.55777 1.65514 0
M  V30 2226 N 203.978 -0.674533 1.42435 0
M  V30 2227 C 205.226 -1.43175 1.42637 0
M  V30 2228 C 205.547 -1.94951 0.0438992 0
M  V30 2229 O 204.817 -1.7308 -0.917607 0
M  V30 2230 H 203.397 -0.531307 0.525092 0
M  V30 2231 H 206.059 -0.797006 1.77859 0
M  V30 2232 H 205.155 -2.28463 2.12629 0
M  V30 2233 N 205.456 -1.28612 -0.910864 0
M  V30 2234 C 206.386 -1.15326 -2.03032 0
M  V30 2235 C 207.367 -0.0502924 -1.70026 0
M  V30 2236 O 208.552 -0.227797 -1.92859 0
M  V30 2237 C 205.682 -0.817343 -3.37545 0
M  V30 2238 C 204.636 -1.8754 -3.84724 0
M  V30 2239 C 203.962 -1.39305 -5.16235 0
M  V30 2240 C 205.262 -3.28244 -4.06267 0
M  V30 2241 H 206.956 -2.08975 -2.14406 0
M  V30 2242 H 204.502 -1.00612 -1.03021 0
M  V30 2243 H 206.455 -0.711151 -4.15356 0
M  V30 2244 H 205.179 0.154846 -3.26233 0
M  V30 2245 H 203.838 -1.97079 -3.09121 0
M  V30 2246 H 203.486 -0.409846 -5.01328 0
M  V30 2247 H 203.186 -2.10057 -5.48771 0
M  V30 2248 H 204.71 -1.30014 -5.96598 0
M  V30 2249 H 206.124 -3.21611 -4.74594 0
M  V30 2250 H 204.521 -3.96855 -4.5014 0
M  V30 2251 H 205.591 -3.72048 -3.10979 0
M  V30 2252 N 206.934 1.1197 -1.10907 0
M  V30 2253 C 208.211 1.79959 -0.766432 0
M  V30 2254 C 208.591 1.97466 0.746363 0
M  V30 2255 O 207.939 1.55491 1.67436 0
M  V30 2256 C 208.149 3.14009 -1.52314 0
M  V30 2257 C 209.497 3.89134 -1.69883 0
M  V30 2258 O 210.521 3.2368 -1.48692 0
M  V30 2259 O 209.38 5.06572 -2.05054 0
M  V30 2260 H 206.474 0.779208 -0.277062 0
M  V30 2261 H 209.02 1.18762 -1.21217 0
M  V30 2262 H 207.792 2.96587 -2.55249 0
M  V30 2263 H 207.415 3.82915 -1.07059 0
M  V30 2264 N 208.412 0.89855 1.29475 0
M  V30 2265 C 209.342 0.39201 2.30186 0
M  V30 2266 C 210.323 -0.532359 1.61555 0
M  V30 2267 O 211.508 -0.443331 1.89072 0
M  V30 2268 C 208.638 -0.382353 3.45189 0
M  V30 2269 C 207.592 0.451483 4.25612 0
M  V30 2270 C 206.918 -0.450307 5.328 0
M  V30 2271 C 208.218 1.70079 4.93832 0
M  V30 2272 H 209.912 1.23362 2.72804 0
M  V30 2273 H 207.458 0.594638 1.31149 0
M  V30 2274 H 209.411 -0.747451 4.14718 0
M  V30 2275 H 208.135 -1.25774 3.01411 0
M  V30 2276 H 206.794 0.798897 3.57789 0
M  V30 2277 H 206.442 -1.32379 4.85268 0
M  V30 2278 H 206.142 0.103902 5.87508 0
M  V30 2279 H 207.666 -0.811623 6.05182 0
M  V30 2280 H 209.08 1.40549 5.55805 0
M  V30 2281 H 207.477 2.19623 5.58467 0
M  V30 2282 H 208.547 2.43744 4.19186 0
M  V30 2283 N 209.89 -1.43072 0.660911 0
M  V30 2284 C 210.8 -2.34585 -0.0264163 0
M  V30 2285 C 211.816 -1.54316 -0.803898 0
M  V30 2286 O 212.992 -1.86939 -0.749391 0
M  V30 2287 C 210.057 -3.32689 -0.975639 0
M  V30 2288 C 209.118 -4.2886 -0.194236 0
M  V30 2289 C 208.351 -5.22278 -1.09825 0
M  V30 2290 O 208.574 -5.20299 -2.33763 0
M  V30 2291 O 207.508 -5.99228 -0.566513 0
M  V30 2292 H 211.334 -2.94869 0.727034 0
M  V30 2293 H 208.919 -1.43342 0.42111 0
M  V30 2294 H 210.801 -3.92995 -1.52094 0
M  V30 2295 H 209.476 -2.74898 -1.70918 0
M  V30 2296 H 208.383 -3.72011 0.394835 0
M  V30 2297 H 209.716 -4.89655 0.499899 0
M  V30 2298 N 211.368 -0.403325 -1.52352 0
M  V30 2299 C 212.278 0.432009 -2.30588 0
M  V30 2300 C 213.294 1.05884 -1.38075 0
M  V30 2301 O 214.47 1.06161 -1.71148 0
M  V30 2302 C 211.535 1.53669 -3.10784 0
M  V30 2303 C 210.596 0.933525 -4.19027 0
M  V30 2304 C 209.829 1.98557 -4.9539 0
M  V30 2305 O 210.052 3.20283 -4.71991 0
M  V30 2306 O 208.986 1.59504 -5.80381 0
M  V30 2307 H 212.812 -0.205739 -3.03002 0
M  V30 2308 H 210.397 -0.166675 -1.48467 0
M  V30 2309 H 212.279 2.17814 -3.60742 0
M  V30 2310 H 210.954 2.15915 -2.41169 0
M  V30 2311 H 209.861 0.254954 -3.7323 0
M  V30 2312 H 211.194 0.35508 -4.90918 0
M  V30 2313 N 212.846 1.57033 -0.133567 0
M  V30 2314 C 213.776 2.1909 0.807567 0
M  V30 2315 C 214.757 1.13517 1.26681 0
M  V30 2316 O 215.942 1.41809 1.32679 0
M  V30 2317 C 213.072 2.80188 2.05212 0
M  V30 2318 C 212.026 3.91471 1.73015 0
M  V30 2319 C 211.352 4.39443 3.04622 0
M  V30 2320 C 212.652 5.12886 0.987168 0
M  V30 2321 H 214.346 2.97988 0.290403 0
M  V30 2322 H 211.892 1.43335 0.138239 0
M  V30 2323 H 213.845 3.22264 2.71521 0
M  V30 2324 H 212.569 1.98601 2.59278 0
M  V30 2325 H 211.228 3.49993 1.0909 0
M  V30 2326 H 210.876 3.54695 3.56651 0
M  V30 2327 H 210.576 5.14495 2.83847 0
M  V30 2328 H 212.1 4.8418 3.72024 0
M  V30 2329 H 213.514 5.51891 1.55208 0
M  V30 2330 H 211.911 5.93615 0.87985 0
M  V30 2331 H 212.981 4.84894 -0.0235286 0
M  V30 2332 N 214.325 -0.140222 1.56975 0
M  V30 2333 C 215.235 -1.19223 2.02047 0
M  V30 2334 C 216.251 -1.46612 0.937062 0
M  V30 2335 O 217.427 -1.58148 1.24704 0
M  V30 2336 C 214.492 -2.50414 2.39778 0
M  V30 2337 C 213.553 -2.30612 3.621 0
M  V30 2338 C 212.786 -3.55547 3.98023 0
M  V30 2339 O 213.009 -4.62004 3.34528 0
M  V30 2340 O 211.943 -3.47808 4.91237 0
M  V30 2341 H 215.769 -0.839559 2.91865 0
M  V30 2342 H 213.354 -0.349453 1.45256 0
M  V30 2343 H 215.236 -3.27747 2.64877 0
M  V30 2344 H 213.911 -2.85198 1.53114 0
M  V30 2345 H 212.818 -1.51207 3.4218 0
M  V30 2346 H 214.151 -2.00741 4.49404 0
M  V30 2347 N 215.803 -1.52179 -0.40978 0
M  V30 2348 C 216.713 -1.78364 -1.52392 0
M  V30 2349 C 217.729 -0.669183 -1.60617 0
M  V30 2350 O 218.905 -0.954518 -1.77344 0
M  V30 2351 C 215.97 -1.92822 -2.88133 0
M  V30 2352 C 215.031 -3.16725 -2.898 0
M  V30 2353 C 214.264 -3.30483 -4.19067 0
M  V30 2354 O 214.487 -2.49522 -5.12928 0
M  V30 2355 O 213.421 -4.2363 -4.27576 0
M  V30 2356 H 217.247 -2.72931 -1.33201 0
M  V30 2357 H 214.832 -1.37016 -0.59557 0
M  V30 2358 H 216.714 -2.04157 -3.68643 0
M  V30 2359 H 215.389 -1.01444 -3.07393 0
M  V30 2360 H 214.296 -3.10848 -2.08146 0
M  V30 2361 H 215.629 -4.07881 -2.75489 0
M  V30 2362 N 217.281 0.66697 -1.42791 0
M  V30 2363 C 218.53 1.42278 -1.42968 0
M  V30 2364 C 218.843 1.9553 -0.0524489 0
M  V30 2365 O 220.049 2.71414 0.068363 0
M  V30 2366 C 218.505 2.57418 -2.51524 0
M  V30 2367 C 218.113 2.10832 -3.9529 0
M  V30 2368 C 219.857 3.34878 -2.60877 0
M  V30 2369 C 217.764 3.23101 -4.95338 0
M  V30 2370 H 216.694 0.534533 -0.531781 0
M  V30 2371 H 219.345 0.721302 -1.68729 0
M  V30 2372 H 217.727 3.29971 -2.18941 0
M  V30 2373 H 218.901 1.4538 -4.37266 0
M  V30 2374 H 217.216 1.46289 -3.89857 0
M  V30 2375 H 219.813 4.18505 -3.32802 0
M  V30 2376 H 220.156 3.81993 -1.6549 0
M  V30 2377 H 220.689 2.69398 -2.92693 0
M  V30 2378 H 217.428 2.80969 -5.9223 0
M  V30 2379 H 216.948 3.87309 -4.57987 0
M  V30 2380 H 218.627 3.88447 -5.17415 0
M  V30 2381 N 218.759 1.29093 0.90403 0
M  V30 2382 C 219.669 1.15727 2.0407 0
M  V30 2383 C 220.685 0.0815308 1.73809 0
M  V30 2384 O 221.861 0.292749 1.99261 0
M  V30 2385 C 218.926 0.830424 3.36608 0
M  V30 2386 C 217.987 1.98955 3.80415 0
M  V30 2387 C 217.22 1.6782 5.06628 0
M  V30 2388 O 217.443 0.597105 5.67266 0
M  V30 2389 O 216.377 2.52486 5.46383 0
M  V30 2390 H 220.203 2.11171 2.18267 0
M  V30 2391 H 217.788 1.08504 1.027 0
M  V30 2392 H 219.67 0.662521 4.16159 0
M  V30 2393 H 218.345 -0.0942678 3.23563 0
M  V30 2394 H 217.252 2.21267 3.01648 0
M  V30 2395 H 218.585 2.89529 3.98037 0
M  V30 2396 N 220.237 -1.11381 1.11499 0
M  V30 2397 C 221.147 -2.21019 0.786628 0
M  V30 2398 C 222.163 -1.72597 -0.220507 0
M  V30 2399 O 223.339 -2.01321 -0.0565251 0
M  V30 2400 C 220.404 -3.459 0.235333 0
M  V30 2401 C 219.465 -4.09107 1.30115 0
M  V30 2402 C 218.698 -5.28027 0.776068 0
M  V30 2403 O 218.921 -5.6904 -0.393661 0
M  V30 2404 O 217.855 -5.81835 1.54114 0
M  V30 2405 H 221.681 -2.51521 1.70209 0
M  V30 2406 H 219.266 -1.19928 0.890928 0
M  V30 2407 H 221.148 -4.21346 -0.067715 0
M  V30 2408 H 219.823 -3.17049 -0.652828 0
M  V30 2409 H 218.73 -3.35391 1.65722 0
M  V30 2410 H 220.063 -4.42139 2.16273 0
M  V30 2411 N 221.715 -0.905404 -1.28997 0
M  V30 2412 C 222.992 -0.453513 -1.9027 0
M  V30 2413 C 223.372 1.06721 -1.82137 0
M  V30 2414 O 222.72 1.91159 -1.25182 0
M  V30 2415 C 222.93 -0.974494 -3.35119 0
M  V30 2416 C 224.278 -1.0216 -4.12127 0
M  V30 2417 O 225.302 -0.922557 -3.44046 0
M  V30 2418 O 224.161 -1.17121 -5.33802 0
M  V30 2419 H 221.255 -0.142347 -0.814657 0
M  V30 2420 H 223.801 -0.995642 -1.37423 0
M  V30 2421 H 222.573 -2.01848 -3.35221 0
M  V30 2422 H 222.196 -0.412706 -3.95452 0
M  V30 2423 N 223.193 1.4272 -0.668489 0
M  V30 2424 C 224.156 2.292 0.00448567 0
M  V30 2425 C 225.156 1.43001 0.735339 0
M  V30 2426 O 226.346 1.64461 0.57429 0
M  V30 2427 C 223.478 3.25375 1.01705 0
M  V30 2428 H 224.671 2.90199 -0.756608 0
M  V30 2429 H 222.224 1.50254 -0.430506 0
M  V30 2430 H 222.959 2.69301 1.80686 0
M  V30 2431 H 222.744 3.88944 0.496463 0
M  V30 2432 H 224.234 3.90245 1.48655 0
M  V30 2433 N 224.671 0.411399 1.52136 0
M  V30 2434 C 225.919 -0.163322 2.01439 0
M  V30 2435 C 226.24 -1.45453 1.29879 0
M  V30 2436 O 225.51 -1.91225 0.4254 0
M  V30 2437 H 224.09 -0.0633447 0.744309 0
M  V30 2438 H 226.752 0.548161 1.87033 0
M  V30 2439 H 225.848 -0.357817 3.10042 0
M  V30 2440 N 226.149 -1.5696 0.141893 0
M  V30 2441 C 227.079 -2.19516 -0.795936 0
M  V30 2442 C 228.06 -1.14187 -1.26077 0
M  V30 2443 O 229.245 -1.42511 -1.31925 0
M  V30 2444 C 226.375 -2.81272 -2.03723 0
M  V30 2445 C 225.329 -3.92384 -1.70936 0
M  V30 2446 C 224.655 -4.41052 -3.02287 0
M  V30 2447 C 225.955 -5.13403 -0.959954 0
M  V30 2448 H 227.649 -2.98138 -0.274596 0
M  V30 2449 H 225.195 -1.43406 -0.130636 0
M  V30 2450 H 227.148 -3.237 -2.69808 0
M  V30 2451 H 225.872 -1.99973 -2.58221 0
M  V30 2452 H 224.531 -3.50566 -1.07232 0
M  V30 2453 H 224.179 -3.56582 -3.54765 0
M  V30 2454 H 223.879 -5.15993 -2.81114 0
M  V30 2455 H 225.403 -4.86146 -3.69451 0
M  V30 2456 H 226.817 -5.52706 -1.52279 0
M  V30 2457 H 225.214 -5.94073 -0.848357 0
M  V30 2458 H 226.284 -4.84875 0.0492434 0
M  V30 2459 N 227.627 0.131896 -1.57047 0
M  V30 2460 C 228.875 0.840269 -1.83804 0
M  V30 2461 C 229.196 1.81017 -0.72512 0
M  V30 2462 O 228.466 1.94272 0.251995 0
M  V30 2463 H 227.046 0.313294 -0.678127 0
M  V30 2464 H 229.708 0.122294 -1.94516 0
M  V30 2465 H 228.804 1.39335 -2.79271 0
M  V30 2466 N 229.106 1.52395 0.401703 0
M  V30 2467 C 230.054 1.7689 1.51039 0
M  V30 2468 C 231.048 0.636298 1.56996 0
M  V30 2469 O 232.254 0.818507 1.60314 0
M  V30 2470 H 228.629 0.559502 0.502456 0
M  V30 2471 H 230.6 2.69757 1.27568 0
M  V30 2472 C 229.349 1.94331 2.88324 0
M  V30 2473 H 228.672 2.80905 2.84486 0
M  V30 2474 H 230.112 2.15466 3.65172 0
M  V30 2475 C 228.571 0.712396 3.29282 0
M  V30 2476 O 229.101 -0.116218 4.01532 0
M  V30 2477 N 227.307 0.546154 2.85422 0
M  V30 2478 H 226.854 1.22156 2.26794 0
M  V30 2479 H 226.812 -0.276113 3.13185 0
M  V30 2480 N 230.584 -0.659388 1.43143 0
M  V30 2481 C 231.832 -1.41654 1.44147 0
M  V30 2482 C 232.153 -1.94893 0.0645739 0
M  V30 2483 O 231.423 -1.74044 -0.899198 0
M  V30 2484 H 230.003 -0.525708 0.530697 0
M  V30 2485 H 232.665 -0.778097 1.78694 0
M  V30 2486 H 231.761 -2.26195 2.1504 0
M  V30 2487 N 232.062 -1.29571 -0.897171 0
M  V30 2488 C 233.31 -1.17456 -1.64464 0
M  V30 2489 C 233.631 0.273698 -1.9307 0
M  V30 2490 O 232.901 1.18684 -1.55855 0
M  V30 2491 H 231.481 -0.431706 -0.609622 0
M  V30 2492 H 234.143 -1.62531 -1.07562 0
M  V30 2493 H 233.239 -1.72648 -2.59998 0
M  V30 2494 N 233.54 1.10788 -1.12088 0
M  V30 2495 C 234.47 2.19083 -0.807755 0
M  V30 2496 C 235.451 1.6858 0.226859 0
M  V30 2497 O 236.636 1.93997 0.0888475 0
M  V30 2498 C 233.766 3.46344 -0.257576 0
M  V30 2499 C 232.72 4.101 -1.22483 0
M  V30 2500 C 232.046 5.32016 -0.535052 0
M  V30 2501 C 233.346 4.54236 -2.57811 0
M  V30 2502 H 235.04 2.45534 -1.71328 0
M  V30 2503 H 232.586 1.1801 -0.825205 0
M  V30 2504 H 234.539 4.21392 -0.0262679 0
M  V30 2505 H 233.263 3.19373 0.683278 0
M  V30 2506 H 231.922 3.37054 -1.44189 0
M  V30 2507 H 231.57 5.01319 0.410827 0
M  V30 2508 H 231.27 5.75625 -1.18024 0
M  V30 2509 H 232.794 6.09799 -0.312695 0
M  V30 2510 H 234.208 5.20575 -2.40155 0
M  V30 2511 H 232.605 5.08682 -3.18375 0
M  V30 2512 H 233.675 3.6734 -3.16528 0
M  V30 2513 N 235.018 0.912232 1.28515 0
M  V30 2514 C 236.266 0.543523 1.94654 0
M  V30 2515 C 236.587 -0.9155 1.72173 0
M  V30 2516 O 235.857 -1.64708 1.06058 0
M  V30 2517 H 234.437 0.198017 0.720277 0
M  V30 2518 H 237.099 1.16126 1.56527 0
M  V30 2519 H 236.195 0.736684 3.03281 0
M  V30 2520 N 236.496 -1.42363 0.676048 0
M  V30 2521 C 237.912 -1.55811 0.345718 0
M  V30 2522 C 238.112 -1.65544 -1.14879 0
M  V30 2523 O 237.168 -1.62306 -1.93424 0
M  V30 2524 C 238.481 -2.80746 1.07713 0
M  V30 2525 C 240.029 -2.9452 1.05958 0
M  V30 2526 C 240.504 -4.22318 1.77233 0
M  V30 2527 N 241.995 -4.29233 1.74108 0
M  V30 2528 C 242.73 -5.26935 2.26113 0
M  V30 2529 N 242.226 -6.30783 2.86505 0
M  V30 2530 N 244.019 -5.18741 2.1648 0
M  V30 2531 H 236.17 -1.34289 1.6456 0
M  V30 2532 H 238.433 -0.646506 0.69335 0
M  V30 2533 H 238.139 -2.79696 2.13221 0
M  V30 2534 H 238.013 -3.71676 0.64316 0
M  V30 2535 H 240.4 -2.95097 0.0128255 0
M  V30 2536 H 240.481 -2.04817 1.53244 0
M  V30 2537 H 240.125 -4.22502 2.81877 0
M  V30 2538 H 240.055 -5.10958 1.27396 0
M  V30 2539 H 242.546 -3.54814 1.30059 0
M  V30 2540 H 242.859 -7.01691 3.23805 0
M  V30 2541 H 241.204 -6.31341 2.90575 0
M  V30 2542 H 244.395 -4.36533 1.68987 0
M  V30 2543 H 244.568 -5.94721 2.57316 0
M  V30 2544 N 237.974 -0.419461 -1.51915 0
M  V30 2545 C 238.904 0.391813 -2.30189 0
M  V30 2546 C 239.885 1.03699 -1.34836 0
M  V30 2547 O 241.07 1.04403 -1.63748 0
M  V30 2548 C 238.2 1.50312 -3.13087 0
M  V30 2549 C 237.154 0.9824 -4.16573 0
M  V30 2550 C 236.48 2.18809 -4.8788 0
M  V30 2551 C 237.78 0.0292356 -5.22292 0
M  V30 2552 H 239.474 -0.26135 -2.98257 0
M  V30 2553 H 237.02 -0.127134 -1.43438 0
M  V30 2554 H 238.973 2.07773 -3.66617 0
M  V30 2555 H 237.697 2.18431 -2.42807 0
M  V30 2556 H 236.356 0.430119 -3.64068 0
M  V30 2557 H 236.004 2.85507 -4.14119 0
M  V30 2558 H 235.704 1.84615 -5.57845 0
M  V30 2559 H 237.228 2.76858 -5.44226 0
M  V30 2560 H 238.642 0.512976 -5.71 0
M  V30 2561 H 237.039 -0.2244 -5.9968 0
M  V30 2562 H 238.109 -0.912931 -4.76228 0
M  V30 2563 N 239.452 1.56882 -0.150215 0
M  V30 2564 C 240.415 2.1573 0.774157 0
M  V30 2565 C 241.415 1.0999 1.17298 0
M  V30 2566 O 242.605 1.35613 1.09338 0
M  V30 2567 C 239.737 2.72302 2.05096 0
M  V30 2568 H 240.93 2.98752 0.262201 0
M  V30 2569 H 238.483 1.55985 0.099248 0
M  V30 2570 H 239.218 1.92956 2.6065 0
M  V30 2571 H 239.003 3.49665 1.77416 0
M  V30 2572 H 240.493 3.17632 2.71109 0
M  V30 2573 N 240.93 -0.123565 1.57115 0
M  V30 2574 C 241.893 -1.13583 1.99076 0
M  V30 2575 C 242.893 -1.34564 0.880296 0
M  V30 2576 O 244.083 -1.31158 1.14644 0
M  V30 2577 C 241.215 -2.49128 2.32698 0
M  V30 2578 H 242.408 -0.775287 2.89706 0
M  V30 2579 H 239.961 -0.36771 1.51913 0
M  V30 2580 H 240.696 -2.90111 1.44934 0
M  V30 2581 H 240.481 -2.35255 3.13684 0
M  V30 2582 H 241.971 -3.2199 2.65918 0
M  V30 2583 N 242.408 -1.52605 -0.393616 0
M  V30 2584 C 243.648 -1.6911 -1.1481 0
M  V30 2585 C 244.012 -0.41969 -1.87357 0
M  V30 2586 O 245.213 -0.461034 -2.64817 0
M  V30 2587 C 243.484 -2.88909 -2.10395 0
M  V30 2588 S 245.043 -3.25977 -2.93742 0
M  V30 2589 H 241.861 -0.595337 -0.38871 0
M  V30 2590 H 244.463 -1.90641 -0.433178 0
M  V30 2591 H 243.167 -3.79672 -1.55812 0
M  V30 2592 H 242.698 -2.69698 -2.86403 0
M  V30 2593 H 244.713 -2.75806 -4.12487 0
M  V30 2594 N 243.887 0.651787 -1.4349 0
M  V30 2595 C 245.134 1.41167 -1.45183 0
M  V30 2596 C 245.462 1.94349 -0.0766601 0
M  V30 2597 O 244.717 1.72804 0.918555 0
M  V30 2598 C 245.016 2.60914 -2.44251 0
M  V30 2599 C 244.682 2.26142 -3.9009 0
M  V30 2600 C 243.344 2.16371 -4.2981 0
M  V30 2601 C 245.696 1.98334 -4.81989 0
M  V30 2602 C 243.024 1.7695 -5.5938 0
M  V30 2603 C 245.376 1.6041 -6.11924 0
M  V30 2604 C 244.04 1.49166 -6.5062 0
M  V30 2605 H 243.31 0.516566 -0.531263 0
M  V30 2606 H 245.957 0.741099 -1.76579 0
M  V30 2607 H 244.262 3.3311 -2.06265 0
M  V30 2608 H 245.959 3.19127 -2.42815 0
M  V30 2609 H 242.549 2.34658 -3.58655 0
M  V30 2610 H 246.733 2.04803 -4.52072 0
M  V30 2611 H 241.989 1.66831 -5.88198 0
M  V30 2612 H 246.163 1.37925 -6.82605 0
M  V30 2613 H 243.79 1.1839 -7.50925 0
M  V30 2614 N 245.365 1.30045 0.890287 0
M  V30 2615 C 246.295 1.18541 2.01172 0
M  V30 2616 C 247.276 0.0773356 1.69924 0
M  V30 2617 O 248.461 0.25845 1.92473 0
M  V30 2618 C 245.591 0.870941 3.36202 0
M  V30 2619 C 244.545 1.93637 3.81692 0
M  V30 2620 C 243.871 1.475 5.13953 0
M  V30 2621 C 245.171 3.34666 4.00994 0
M  V30 2622 H 246.865 2.12359 2.11054 0
M  V30 2623 H 244.411 1.02238 1.01407 0
M  V30 2624 H 246.364 0.777141 4.14172 0
M  V30 2625 H 245.088 -0.102926 3.26438 0
M  V30 2626 H 243.747 2.01972 3.05946 0
M  V30 2627 H 243.395 0.489551 5.00612 0
M  V30 2628 H 243.095 2.1876 5.4536 0
M  V30 2629 H 244.619 1.39489 5.94454 0
M  V30 2630 H 246.033 3.2912 4.69417 0
M  V30 2631 H 244.43 4.03966 4.43769 0
M  V30 2632 H 245.5 3.76949 3.05021 0
M  V30 2633 N 246.843 -1.10192 1.12674 0
M  V30 2634 C 248.12 -1.78717 0.794965 0
M  V30 2635 C 248.5 -1.98628 -0.714853 0
M  V30 2636 O 247.848 -1.58135 -1.64941 0
M  V30 2637 C 248.058 -3.11546 1.5729 0
M  V30 2638 C 249.406 -3.86382 1.76052 0
M  V30 2639 O 250.43 -3.21274 1.53823 0
M  V30 2640 O 249.289 -5.03246 2.13087 0
M  V30 2641 H 246.383 -0.774702 0.289423 0
M  V30 2642 H 248.929 -1.16819 1.23091 0
M  V30 2643 H 247.701 -2.92489 2.59935 0
M  V30 2644 H 247.324 -3.81164 1.13137 0
M  V30 2645 N 248.321 -0.919034 -1.28029 0
M  V30 2646 C 249.546 -0.570357 -1.99403 0
M  V30 2647 C 249.971 0.842486 -1.68178 0
M  V30 2648 O 249.329 1.56391 -0.917141 0
M  V30 2649 C 249.377 -0.792541 -3.51783 0
M  V30 2650 O 248.481 0.145988 -4.12142 0
M  V30 2651 H 247.822 -0.220555 -0.6263 0
M  V30 2652 H 250.352 -1.23592 -1.63053 0
M  V30 2653 H 250.362 -0.704708 -4.01868 0
M  V30 2654 H 249.037 -1.82247 -3.73844 0
M  V30 2655 H 247.614 0.00897528 -3.72899 0
M  V30 2656 N 249.799 1.42003 -0.683588 0
M  V30 2657 C 250.732 2.28166 0.039592 0
M  V30 2658 C 251.71 1.41562 0.799942 0
M  V30 2659 O 252.894 1.70997 0.793248 0
M  V30 2660 C 250.021 3.21575 1.06335 0
M  V30 2661 C 249.067 4.24643 0.397562 0
M  V30 2662 S 249.9 5.2869 -0.851296 0
M  V30 2663 C 251.056 6.25666 0.171166 0
M  V30 2664 H 251.289 2.89153 -0.691229 0
M  V30 2665 H 248.822 1.46962 -0.473435 0
M  V30 2666 H 250.78 3.75928 1.6489 0
M  V30 2667 H 249.441 2.59707 1.76667 0
M  V30 2668 H 248.634 4.90223 1.17035 0
M  V30 2669 H 248.236 3.73824 -0.114611 0
M  V30 2670 H 250.528 6.69653 1.02819 0
M  V30 2671 H 251.471 7.06666 -0.450397 0
M  V30 2672 H 251.879 5.62095 0.520578 0
M  V30 2673 N 251.277 0.427512 1.51691 0
M  V30 2674 C 252.24 -0.377132 2.26076 0
M  V30 2675 C 253.24 -0.958089 1.29141 0
M  V30 2676 O 254.43 -0.83408 1.52934 0
M  V30 2677 C 251.562 -1.53262 3.04506 0
M  V30 2678 H 252.755 0.27464 2.9864 0
M  V30 2679 H 250.308 0.180445 1.55255 0
M  V30 2680 H 251.043 -2.22072 2.36335 0
M  V30 2681 H 250.828 -1.12232 3.75694 0
M  V30 2682 H 252.318 -2.10135 3.60878 0
M  V30 2683 N 252.755 -1.56801 0.158532 0
M  V30 2684 C 253.983 -2.00859 -0.496303 0
M  V30 2685 C 254.398 -1.03871 -1.57659 0
M  V30 2686 O 253.755 -0.0375165 -1.82461 0
M  V30 2687 C 253.806 -3.4479 -1.08638 0
M  V30 2688 O 253.527 -4.38072 -0.0492322 0
M  V30 2689 C 255.028 -4.04185 -1.8207 0
M  V30 2690 H 252.248 -0.65864 -0.128199 0
M  V30 2691 H 254.792 -2.02885 0.256506 0
M  V30 2692 H 252.947 -3.43579 -1.78975 0
M  V30 2693 H 253.361 -5.2227 -0.483102 0
M  V30 2694 H 254.835 -5.06857 -2.18633 0
M  V30 2695 H 255.312 -3.45549 -2.71095 0
M  V30 2696 H 255.918 -4.0906 -1.16405 0
M  V30 2697 N 254.233 0.115231 -1.57178 0
M  V30 2698 C 255.163 1.1423 -2.03651 0
M  V30 2699 C 256.144 1.42967 -0.921655 0
M  V30 2700 O 257.329 1.53343 -1.19162 0
M  V30 2701 C 254.459 2.4675 -2.44401 0
M  V30 2702 C 253.413 2.32467 -3.59365 0
M  V30 2703 C 252.739 3.69984 -3.86026 0
M  V30 2704 C 254.039 1.78203 -4.90959 0
M  V30 2705 H 255.733 0.755749 -2.89705 0
M  V30 2706 H 253.279 0.362093 -1.39373 0
M  V30 2707 H 255.232 3.18854 -2.75517 0
M  V30 2708 H 253.956 2.87302 -1.55322 0
M  V30 2709 H 252.615 1.62811 -3.28463 0
M  V30 2710 H 252.263 4.08028 -2.94147 0
M  V30 2711 H 251.963 3.61279 -4.63412 0
M  V30 2712 H 253.487 4.43587 -4.19599 0
M  V30 2713 H 254.901 2.40128 -5.20587 0
M  V30 2714 H 253.298 1.8031 -5.72371 0
M  V30 2715 H 254.368 0.739876 -4.79222 0
M  V30 2716 N 255.711 1.52812 0.385517 0
M  V30 2717 C 256.959 1.67694 1.12797 0
M  V30 2718 C 257.28 0.421115 1.90399 0
M  V30 2719 O 256.55 -0.564551 1.87589 0
M  V30 2720 H 255.13 0.618155 0.419396 0
M  V30 2721 H 257.792 1.89938 0.436972 0
M  V30 2722 H 256.888 2.52896 1.82894 0
M  V30 2723 N 257.189 -0.644168 1.43834 0
M  V30 2724 C 258.119 -1.76814 1.52509 0
M  V30 2725 C 259.1 -1.65823 0.379052 0
M  V30 2726 O 260.285 -1.84781 0.597466 0
M  V30 2727 C 257.415 -3.15288 1.4564 0
M  V30 2728 C 256.369 -3.41053 2.58586 0
M  V30 2729 C 255.695 -4.79421 2.36769 0
M  V30 2730 C 256.995 -3.34902 4.00797 0
M  V30 2731 H 258.689 -1.69812 2.46586 0
M  V30 2732 H 256.235 -0.815542 1.1868 0
M  V30 2733 H 258.188 -3.93681 1.50311 0
M  V30 2734 H 256.912 -3.23043 0.480725 0
M  V30 2735 H 255.571 -2.65035 2.53282 0
M  V30 2736 H 255.219 -4.83863 1.37424 0
M  V30 2737 H 254.919 -4.9762 3.12487 0
M  V30 2738 H 256.443 -5.6006 2.43238 0
M  V30 2739 H 257.857 -4.03218 4.07539 0
M  V30 2740 H 256.254 -3.64637 4.76613 0
M  V30 2741 H 257.324 -2.32928 4.25291 0
M  V30 2742 N 258.668 -1.30515 -0.883378 0
M  V30 2743 C 259.631 -1.1701 -1.97082 0
M  V30 2744 C 260.631 -0.10089 -1.60483 0
M  V30 2745 O 261.821 -0.349127 -1.70666 0
M  V30 2746 C 258.953 -0.793045 -3.31547 0
M  V30 2747 H 260.146 -2.13622 -2.10489 0
M  V30 2748 H 257.699 -1.13935 -1.06998 0
M  V30 2749 H 258.434 0.172499 -3.23841 0
M  V30 2750 H 258.219 -1.56576 -3.5948 0
M  V30 2751 H 259.709 -0.722073 -4.1131 0
M  V30 2752 N 260.146 1.09593 -1.13257 0
M  V30 2753 C 261.109 2.14359 -0.811358 0
M  V30 2754 C 262.109 1.59808 0.178377 0
M  V30 2755 O 263.299 1.74132 -0.0484911 0
M  V30 2756 C 260.431 3.40269 -0.207276 0
M  V30 2757 H 261.624 2.44284 -1.73969 0
M  V30 2758 H 259.177 1.25102 -0.936973 0
M  V30 2759 H 259.912 3.15969 0.73036 0
M  V30 2760 H 259.697 3.81154 -0.919992 0
M  V30 2761 H 261.187 4.176 0.000667944 0
M  V30 2762 N 261.624 0.925811 1.2754 0
M  V30 2763 C 262.854 0.580666 1.98272 0
M  V30 2764 C 263.262 -0.845207 1.69272 0
M  V30 2765 O 262.605 -1.57306 0.948707 0
M  V30 2766 C 262.667 0.724418 3.52126 0
M  V30 2767 C 262.331 2.12206 4.04744 0
M  V30 2768 C 263.328 3.09604 4.17662 0
M  V30 2769 C 261.013 2.4385 4.39138 0
M  V30 2770 C 263.007 4.36755 4.64246 0
M  V30 2771 C 260.694 3.71237 4.85414 0
M  V30 2772 C 261.692 4.67503 4.97926 0
M  V30 2773 O 261.38 5.92624 5.43187 0
M  V30 2774 H 261.112 0.218987 0.639547 0
M  V30 2775 H 263.666 1.24452 1.63404 0
M  V30 2776 H 261.896 0.0034663 3.867 0
M  V30 2777 H 263.585 0.384607 4.04074 0
M  V30 2778 H 264.351 2.86478 3.91351 0
M  V30 2779 H 260.23 1.69665 4.28643 0
M  V30 2780 H 263.774 5.11898 4.73927 0
M  V30 2781 H 259.671 3.94182 5.11166 0
M  V30 2782 H 260.439 5.95585 5.61445 0
M  V30 2783 N 263.102 -1.41638 0.69111 0
M  V30 2784 C 264.35 -2.00902 0.219758 0
M  V30 2785 C 264.671 -1.54994 -1.18329 0
M  V30 2786 O 263.941 -0.778628 -1.79762 0
M  V30 2787 H 262.521 -0.74289 0.0782558 0
M  V30 2788 H 265.183 -1.73327 0.891271 0
M  V30 2789 H 264.279 -3.11224 0.233708 0
M  V30 2790 N 264.58 -0.43555 -1.51462 0
M  V30 2791 C 265.81 0.130053 -2.0619 0
M  V30 2792 C 266.218 1.37164 -1.30317 0
M  V30 2793 O 265.561 1.80225 -0.355598 0
M  V30 2794 C 265.623 0.519418 -3.55728 0
M  V30 2795 C 265.287 -0.615119 -4.52841 0
M  V30 2796 C 266.284 -1.48671 -4.9819 0
M  V30 2797 C 263.969 -0.795341 -4.95963 0
M  V30 2798 C 265.963 -2.52324 -5.8533 0
M  V30 2799 C 263.65 -1.83514 -5.82894 0
M  V30 2800 C 264.648 -2.69748 -6.27475 0
M  V30 2801 O 264.336 -3.71944 -7.1268 0
M  V30 2802 H 264.068 0.0121612 -0.675891 0
M  V30 2803 H 266.622 -0.6129 -1.96043 0
M  V30 2804 H 264.852 1.31505 -3.63653 0
M  V30 2805 H 266.541 1.01597 -3.92979 0
M  V30 2806 H 267.307 -1.359 -4.65571 0
M  V30 2807 H 263.186 -0.133713 -4.60806 0
M  V30 2808 H 266.73 -3.19665 -6.20048 0
M  V30 2809 H 262.627 -1.96306 -6.14926 0
M  V30 2810 H 263.395 -3.68503 -7.30854 0
M  V30 2811 N 266.058 1.56714 -0.166846 0
M  V30 2812 C 267.306 1.96358 0.478305 0
M  V30 2813 C 267.627 1.0537 1.6408 0
M  V30 2814 O 266.897 0.119154 1.95537 0
M  V30 2815 H 265.477 0.725065 0.179692 0
M  V30 2816 H 268.139 1.93329 -0.246985 0
M  V30 2817 H 267.235 3.00547 0.841292 0
M  V30 2818 N 267.536 -0.106894 1.57237 0
M  V30 2819 C 268.785 -0.811163 1.8467 0
M  V30 2820 C 269.098 -1.80469 0.754342 0
M  V30 2821 O 270.304 -2.55601 0.915439 0
M  V30 2822 C 268.76 -1.49337 3.27454 0
M  V30 2823 C 268.368 -0.540217 4.44731 0
M  V30 2824 C 270.112 -2.18206 3.64124 0
M  V30 2825 C 268.019 -1.22634 5.78545 0
M  V30 2826 H 266.949 -0.306679 0.688813 0
M  V30 2827 H 269.6 -0.0639887 1.83388 0
M  V30 2828 H 267.982 -2.2876 3.23241 0
M  V30 2829 H 269.156 0.221659 4.60267 0
M  V30 2830 H 267.471 0.042146 4.16379 0
M  V30 2831 H 270.068 -2.70253 4.61376 0
M  V30 2832 H 270.411 -2.96562 2.92158 0
M  V30 2833 H 270.944 -1.45658 3.70174 0
M  V30 2834 H 267.683 -0.483832 6.53712 0
M  V30 2835 H 267.203 -1.95993 5.66874 0
M  V30 2836 H 268.882 -1.75615 6.2271 0
M  V30 2837 N 269.014 -1.53014 -0.377408 0
M  V30 2838 C 270.43 -1.42523 -0.718281 0
M  V30 2839 C 270.63 -0.55487 -1.9371 0
M  V30 2840 O 269.686 -0.0327593 -2.52479 0
M  V30 2841 C 270.999 -2.85546 -0.942539 0
M  V30 2842 C 272.547 -2.95101 -1.04329 0
M  V30 2843 C 273.022 -4.3916 -1.3001 0
M  V30 2844 N 274.513 -4.42536 -1.36806 0
M  V30 2845 C 275.248 -5.51097 -1.58364 0
M  V30 2846 N 274.744 -6.69724 -1.77317 0
M  V30 2847 N 276.537 -5.38657 -1.60638 0
M  V30 2848 H 268.688 -2.08116 0.424426 0
M  V30 2849 H 270.951 -0.939352 0.127759 0
M  V30 2850 H 270.657 -3.51499 -0.118929 0
M  V30 2851 H 270.531 -3.28493 -1.85397 0
M  V30 2852 H 272.918 -2.29309 -1.85745 0
M  V30 2853 H 272.999 -2.55566 -0.109505 0
M  V30 2854 H 272.643 -5.05521 -0.490991 0
M  V30 2855 H 272.573 -4.76258 -2.24691 0
M  V30 2856 H 275.064 -3.57039 -1.23821 0
M  V30 2857 H 275.377 -7.48233 -1.93306 0
M  V30 2858 H 273.722 -6.72732 -1.74518 0
M  V30 2859 H 276.913 -4.44948 -1.45391 0
M  V30 2860 H 277.086 -6.2333 -1.77098 0
M  V30 2861 N 270.492 0.636531 -1.44174 0
M  V30 2862 C 271.722 1.42146 -1.49927 0
M  V30 2863 C 272.13 1.88812 -0.121063 0
M  V30 2864 O 271.473 1.61126 0.882267 0
M  V30 2865 C 271.535 2.67883 -2.39748 0
M  V30 2866 C 271.199 2.43048 -3.8701 0
M  V30 2867 C 272.196 2.05216 -4.77684 0
M  V30 2868 C 269.881 2.56856 -4.3166 0
M  V30 2869 C 271.875 1.81512 -6.11009 0
M  V30 2870 C 269.562 2.32766 -5.65034 0
M  V30 2871 C 270.56 1.95152 -6.54526 0
M  V30 2872 O 270.248 1.71326 -7.85431 0
M  V30 2873 H 269.98 0.442567 -0.51099 0
M  V30 2874 H 272.534 0.786158 -1.8976 0
M  V30 2875 H 270.764 3.34032 -1.94832 0
M  V30 2876 H 272.453 3.29874 -2.36513 0
M  V30 2877 H 273.219 1.94111 -4.44462 0
M  V30 2878 H 269.098 2.85104 -3.62266 0
M  V30 2879 H 272.642 1.52077 -6.80822 0
M  V30 2880 H 268.539 2.43479 -5.97819 0
M  V30 2881 H 269.307 1.85616 -7.97176 0
M  V30 2882 N 271.97 1.30982 0.876444 0
M  V30 2883 C 272.88 1.2003 2.01569 0
M  V30 2884 C 273.896 0.11838 1.73597 0
M  V30 2885 O 275.072 0.33495 1.98595 0
M  V30 2886 C 272.137 0.901637 3.34771 0
M  V30 2887 C 271.198 2.06979 3.76109 0
M  V30 2888 C 270.431 1.78529 5.02954 0
M  V30 2889 O 270.654 0.717296 5.65872 0
M  V30 2890 O 269.588 2.64019 5.40905 0
M  V30 2891 H 273.414 2.15753 2.13739 0
M  V30 2892 H 270.999 1.10658 1.00375 0
M  V30 2893 H 272.881 0.750645 4.1466 0
M  V30 2894 H 271.556 -0.0256141 3.2369 0
M  V30 2895 H 270.463 2.27616 2.96887 0
M  V30 2896 H 271.796 2.97907 3.91807 0
M  V30 2897 N 273.449 -1.08991 1.13837 0
M  V30 2898 C 274.696 -1.81258 0.902882 0
M  V30 2899 C 275.024 -1.85936 -0.570803 0
M  V30 2900 O 274.279 -1.3267 -1.43865 0
M  V30 2901 C 274.578 -3.27042 1.44147 0
M  V30 2902 C 274.244 -3.4249 2.93276 0
M  V30 2903 C 272.906 -3.46414 3.33992 0
M  V30 2904 C 275.258 -3.4666 3.892 0
M  V30 2905 C 272.586 -3.52091 4.69307 0
M  V30 2906 C 274.938 -3.53872 5.24364 0
M  V30 2907 C 273.602 -3.56066 5.646 0
M  V30 2908 H 272.872 -0.663268 0.330388 0
M  V30 2909 H 275.519 -1.28368 1.42105 0
M  V30 2910 H 273.824 -3.82599 0.844097 0
M  V30 2911 H 275.521 -3.81499 1.23528 0
M  V30 2912 H 272.111 -3.40124 2.60794 0
M  V30 2913 H 276.295 -3.42865 3.58828 0
M  V30 2914 H 271.551 -3.52079 4.9985 0
M  V30 2915 H 275.725 -3.56043 5.98503 0
M  V30 2916 H 273.352 -3.60218 6.69438 0
M  V30 2917 N 274.927 -0.932562 -1.27047 0
M  V30 2918 C 276.175 -0.574422 -1.93765 0
M  V30 2919 C 276.496 0.887993 -1.73608 0
M  V30 2920 O 275.766 1.62999 -1.08665 0
M  V30 2921 H 274.346 -0.209451 -0.717035 0
M  V30 2922 H 277.008 -1.18601 -1.5466 0
M  V30 2923 H 276.104 -0.784841 -3.02071 0
M  V30 2924 N 276.405 1.4127 -0.698611 0
M  V30 2925 C 277.654 2.00408 -0.227949 0
M  V30 2926 C 277.967 1.55981 1.18023 0
M  V30 2927 O 279.173 2.07699 1.74852 0
M  V30 2928 C 277.629 3.58129 -0.356636 0
M  V30 2929 C 277.237 4.11536 -1.77037 0
M  V30 2930 C 278.981 4.24466 0.0540969 0
M  V30 2931 C 276.888 5.61701 -1.85055 0
M  V30 2932 H 275.818 0.749586 -0.0814657 0
M  V30 2933 H 278.469 1.61713 -0.867249 0
M  V30 2934 H 276.851 3.94442 0.350965 0
M  V30 2935 H 278.025 3.86636 -2.50698 0
M  V30 2936 H 276.34 3.57736 -2.13105 0
M  V30 2937 H 278.937 5.34698 0.0146723 0
M  V30 2938 H 279.28 4.01687 1.09332 0
M  V30 2939 H 279.813 3.93198 -0.603337 0
M  V30 2940 H 276.552 5.89312 -2.8704 0
M  V30 2941 H 276.072 5.88519 -1.15783 0
M  V30 2942 H 277.751 6.26524 -1.61484 0
M  V30 2943 N 277.883 0.443576 1.51229 0
M  V30 2944 C 279.13 -0.120796 2.02139 0
M  V30 2945 C 279.458 -1.42166 1.32736 0
M  V30 2946 O 278.713 -1.90849 0.43301 0
M  V30 2947 C 279.012 -0.380579 3.55368 0
M  V30 2948 C 278.678 0.83523 4.43097 0
M  V30 2949 C 277.34 1.16864 4.66794 0
M  V30 2950 C 279.692 1.64601 4.94526 0
M  V30 2951 C 277.02 2.31339 5.39165 0
M  V30 2952 C 279.372 2.78181 5.68153 0
M  V30 2953 C 278.036 3.11969 5.90112 0
M  V30 2954 H 277.306 -0.0442023 0.73968 0
M  V30 2955 H 279.953 0.592046 1.82118 0
M  V30 2956 H 278.258 -1.17538 3.73754 0
M  V30 2957 H 279.955 -0.830777 3.923 0
M  V30 2958 H 276.545 0.565437 4.24854 0
M  V30 2959 H 280.729 1.40163 4.76097 0
M  V30 2960 H 275.985 2.57823 5.5438 0
M  V30 2961 H 280.159 3.41371 6.06992 0
M  V30 2962 H 277.786 4.00784 6.45969 0
M  V30 2963 N 279.361 -1.56624 0.175154 0
M  V30 2964 C 280.309 -2.19468 -0.770495 0
M  V30 2965 C 281.303 -1.15985 -1.23466 0
M  V30 2966 O 282.509 -1.34176 -1.19987 0
M  V30 2967 H 278.884 -0.703095 -0.266761 0
M  V30 2968 H 280.855 -2.97613 -0.216542 0
M  V30 2969 C 279.604 -2.85264 -1.98796 0
M  V30 2970 H 278.927 -3.64623 -1.63983 0
M  V30 2971 H 280.367 -3.327 -2.62843 0
M  V30 2972 C 278.826 -1.85239 -2.81404 0
M  V30 2973 O 279.356 -1.34024 -3.78682 0
M  V30 2974 N 277.562 -1.53911 -2.46495 0
M  V30 2975 H 277.109 -1.95751 -1.67449 0
M  V30 2976 H 277.067 -0.872382 -3.02054 0
M  V30 2977 N 280.839 0.0985539 -1.57292 0
M  V30 2978 C 281.771 1.14595 -1.98496 0
M  V30 2979 C 282.784 1.36512 -0.887031 0
M  V30 2980 O 283.973 1.35225 -1.16518 0
M  V30 2981 C 281.073 2.50216 -2.28572 0
M  V30 2982 C 280.246 2.48624 -3.59868 0
M  V30 2983 C 279.305 3.66146 -3.7792 0
M  V30 2984 O 278.331 3.48795 -4.49812 0
M  V30 2985 N 279.533 4.85496 -3.18235 0
M  V30 2986 H 282.298 0.795277 -2.88956 0
M  V30 2987 H 279.859 0.287579 -1.59325 0
M  V30 2988 H 281.851 3.27432 -2.37845 0
M  V30 2989 H 280.421 2.77387 -1.44136 0
M  V30 2990 H 279.641 1.56978 -3.61596 0
M  V30 2991 H 280.929 2.44635 -4.46129 0
M  V30 2992 H 280.327 5.02497 -2.59833 0
M  V30 2993 H 278.884 5.60317 -3.32999 0
M  V30 2994 N 282.317 1.53212 0.369288 0
M  V30 2995 C 283.264 1.79388 1.45219 0
M  V30 2996 C 284.234 0.638059 1.53356 0
M  V30 2997 O 285.419 0.879852 1.69302 0
M  V30 2998 C 282.559 1.98623 2.82211 0
M  V30 2999 C 281.672 3.26337 2.8307 0
M  V30 3000 C 280.807 3.35779 4.11614 0
M  V30 3001 C 279.846 4.5754 4.06601 0
M  V30 3002 N 278.983 4.64155 5.26787 0
M  V30 3003 H 283.823 2.71794 1.22198 0
M  V30 3004 H 281.36 1.34642 0.592444 0
M  V30 3005 H 283.318 2.07761 3.61789 0
M  V30 3006 H 281.948 1.09558 3.03639 0
M  V30 3007 H 281 3.26171 1.95747 0
M  V30 3008 H 282.312 4.15988 2.75237 0
M  V30 3009 H 281.466 3.44208 4.99606 0
M  V30 3010 H 280.205 2.44137 4.22195 0
M  V30 3011 H 279.21 4.49215 3.16996 0
M  V30 3012 H 280.435 5.50519 3.97625 0
M  V30 3013 H 278.381 3.75413 5.3796 0
M  V30 3014 H 278.298 5.47706 5.21109 0
M  V30 3015 H 279.566 4.76863 6.16621 0
M  V30 3016 N 283.795 -0.628877 1.44509 0
M  V30 3017 C 285.044 -1.38437 1.4669 0
M  V30 3018 C 285.357 -1.95322 0.104272 0
M  V30 3019 O 286.563 -2.715 0.00362163 0
M  V30 3020 C 285.019 -2.50659 2.5826 0
M  V30 3021 C 284.627 -2.00277 4.0074 0
M  V30 3022 C 286.371 -3.27844 2.69664 0
M  V30 3023 C 284.278 -3.09854 5.0373 0
M  V30 3024 H 283.208 -0.520245 0.545766 0
M  V30 3025 H 285.859 -0.676313 1.70582 0
M  V30 3026 H 284.241 -3.2405 2.27612 0
M  V30 3027 H 285.415 -1.33736 4.40966 0
M  V30 3028 H 283.73 -1.35901 3.93599 0
M  V30 3029 H 286.327 -4.09534 3.43781 0
M  V30 3030 H 286.67 -3.77471 1.75559 0
M  V30 3031 H 287.203 -2.61543 2.99733 0
M  V30 3032 H 283.942 -2.65168 5.99472 0
M  V30 3033 H 283.462 -3.7503 4.68095 0
M  V30 3034 H 285.141 -3.74592 5.27532 0
M  V30 3035 N 285.273 -1.31445 -0.869486 0
M  V30 3036 C 286.519 -1.21337 -1.62496 0
M  V30 3037 C 286.852 0.227872 -1.92858 0
M  V30 3038 O 286.127 1.16094 -1.56053 0
M  V30 3039 C 286.41 -2.05814 -2.95487 0
M  V30 3040 C 286.263 -3.5824 -2.72 0
M  V30 3041 C 287.582 -1.9079 -3.96594 0
M  V30 3042 H 284.701 -0.442135 -0.589649 0
M  V30 3043 H 287.343 -1.6124 -1.00507 0
M  V30 3044 H 285.493 -1.71913 -3.48394 0
M  V30 3045 H 287.165 -4.0228 -2.25762 0
M  V30 3046 H 285.408 -3.81647 -2.06224 0
M  V30 3047 H 286.079 -4.12657 -3.66631 0
M  V30 3048 H 288.555 -2.20459 -3.52898 0
M  V30 3049 H 287.431 -2.52199 -4.87531 0
M  V30 3050 H 287.692 -0.871341 -4.33428 0
M  V30 3051 N 286.751 1.08385 -1.14413 0
M  V30 3052 C 287.699 2.17406 -0.826888 0
M  V30 3053 C 288.693 1.6827 0.195312 0
M  V30 3054 O 289.899 1.79927 0.0513892 0
M  V30 3055 H 286.274 0.70934 -0.249681 0
M  V30 3056 H 288.245 2.41388 -1.75426 0
M  V30 3057 C 286.994 3.46215 -0.320979 0
M  V30 3058 H 286.317 3.84401 -1.0989 0
M  V30 3059 H 287.757 4.23777 -0.137549 0
M  V30 3060 C 286.216 3.23067 0.955472 0
M  V30 3061 O 286.746 3.4668 2.02918 0
M  V30 3062 N 284.952 2.7661 0.890798 0
M  V30 3063 H 284.499 2.57594 0.0168815 0
M  V30 3064 H 284.457 2.61501 1.74542 0
M  V30 3065 N 288.23 0.939286 1.26551 0
M  V30 3066 C 289.478 0.58469 1.93457 0
M  V30 3067 C 289.799 -0.878774 1.74076 0
M  V30 3068 O 289.069 -1.62421 1.09528 0
M  V30 3069 H 287.649 0.21325 0.715914 0
M  V30 3070 H 290.311 1.1942 1.54029 0
M  V30 3071 H 289.407 0.800849 3.0165 0
M  V30 3072 N 289.708 -1.40897 0.706093 0
M  V30 3073 C 290.954 -2.01849 0.250681 0
M  V30 3074 C 291.309 -1.5496 -1.14041 0
M  V30 3075 O 290.602 -0.755566 -1.76073 0
M  V30 3076 C 290.796 -3.5646 0.259099 0
M  V30 3077 C 290.625 -4.18357 1.64947 0
M  V30 3078 C 289.395 -4.522 2.25485 0
M  V30 3079 C 291.593 -4.43856 2.598 0
M  V30 3080 N 289.575 -4.9944 3.56977 0
M  V30 3081 C 290.946 -4.92986 3.75985 0
M  V30 3082 C 293.001 -4.25882 2.57933 0
M  V30 3083 C 291.704 -5.2603 4.90597 0
M  V30 3084 C 293.73 -4.6002 3.71665 0
M  V30 3085 C 293.092 -5.09331 4.86581 0
M  V30 3086 H 289.191 -0.769843 0.137353 0
M  V30 3087 H 291.775 -1.71278 0.925845 0
M  V30 3088 H 289.946 -3.86481 -0.385592 0
M  V30 3089 H 291.678 -4.04144 -0.21213 0
M  V30 3090 H 288.433 -4.3901 1.77671 0
M  V30 3091 H 288.857 -5.27454 4.24407 0
M  V30 3092 H 293.499 -3.86986 1.70298 0
M  V30 3093 H 291.217 -5.63843 5.78884 0
M  V30 3094 H 294.803 -4.47762 3.71484 0
M  V30 3095 H 293.683 -5.35251 5.73129 0
M  V30 3096 N 291.186 -0.45159 -1.50991 0
M  V30 3097 C 292.118 0.388634 -2.25881 0
M  V30 3098 C 293.131 0.974041 -1.30446 0
M  V30 3099 O 294.32 0.865758 -1.56099 0
M  V30 3100 C 291.42 1.5571 -3.01011 0
M  V30 3101 C 290.593 1.08801 -4.23652 0
M  V30 3102 C 289.652 2.12825 -4.8124 0
M  V30 3103 O 288.678 1.71678 -5.42693 0
M  V30 3104 N 289.88 3.45453 -4.66522 0
M  V30 3105 H 292.645 -0.25329 -2.98628 0
M  V30 3106 H 290.206 -0.281268 -1.59438 0
M  V30 3107 H 292.198 2.24952 -3.3642 0
M  V30 3108 H 290.768 2.10409 -2.31186 0
M  V30 3109 H 289.988 0.22215 -3.93574 0
M  V30 3110 H 291.276 0.752213 -5.03209 0
M  V30 3111 H 290.674 3.81605 -4.17605 0
M  V30 3112 H 289.231 4.10549 -5.06254 0
M  V30 3113 N 292.664 1.56529 -0.183458 0
M  V30 3114 C 293.91 1.97537 0.459036 0
M  V30 3115 C 294.243 1.06989 1.62071 0
M  V30 3116 O 293.518 0.11948 1.94133 0
M  V30 3117 C 293.801 3.47874 0.930368 0
M  V30 3118 C 293.654 4.492 -0.232317 0
M  V30 3119 C 294.973 4.01612 1.79989 0
M  V30 3120 H 292.092 0.718204 0.165383 0
M  V30 3121 H 294.734 1.88042 -0.272038 0
M  V30 3122 H 292.884 3.56095 1.55333 0
M  V30 3123 H 294.556 4.53027 -0.86972 0
M  V30 3124 H 292.799 4.24657 -0.885928 0
M  V30 3125 H 293.47 5.51823 0.139796 0
M  V30 3126 H 295.946 3.96097 1.27461 0
M  V30 3127 H 294.822 5.07195 2.09867 0
M  V30 3128 H 295.083 3.46163 2.74998 0
M  V30 3129 N 294.142 -0.090211 1.57342 0
M  V30 3130 C 295.052 -1.12735 2.05738 0
M  V30 3131 C 296.068 -1.43557 0.983231 0
M  V30 3132 O 297.244 -1.54101 1.29672 0
M  V30 3133 C 294.309 -2.42659 2.47624 0
M  V30 3134 C 293.37 -2.18975 3.69254 0
M  V30 3135 C 292.603 -3.42704 4.09133 0
M  V30 3136 O 292.826 -4.51127 3.49057 0
M  V30 3137 O 291.76 -3.32003 5.02053 0
M  V30 3138 H 295.586 -0.746279 2.94388 0
M  V30 3139 H 293.171 -0.303064 1.46294 0
M  V30 3140 H 295.053 -3.19155 2.7517 0
M  V30 3141 H 293.728 -2.80182 1.62109 0
M  V30 3142 H 292.635 -1.40244 3.46818 0
M  V30 3143 H 293.968 -1.86342 4.55563 0
M  V30 3144 N 295.62 -1.53406 -0.361157 0
M  V30 3145 C 296.53 -1.83122 -1.4664 0
M  V30 3146 C 297.546 -0.719943 -1.58407 0
M  V30 3147 O 298.722 -1.01046 -1.74218 0
M  V30 3148 C 295.787 -2.01891 -2.81853 0
M  V30 3149 C 294.848 -3.25784 -2.79577 0
M  V30 3150 C 294.081 -3.43648 -4.0834 0
M  V30 3151 O 294.304 -2.65714 -5.0473 0
M  V30 3152 O 293.238 -4.37018 -4.13883 0
M  V30 3153 H 297.064 -2.7703 -1.24451 0
M  V30 3154 H 294.649 -1.38841 -0.551678 0
M  V30 3155 H 296.531 -2.15782 -3.61962 0
M  V30 3156 H 295.206 -1.11173 -3.0401 0
M  V30 3157 H 294.113 -3.17312 -1.98151 0
M  V30 3158 H 295.446 -4.16439 -2.62373 0
M  V30 3159 N 297.098 0.621204 -1.44841 0
M  V30 3160 C 298.061 1.71459 -1.521 0
M  V30 3161 C 299.061 1.55696 -0.401933 0
M  V30 3162 O 300.251 1.61011 -0.664925 0
M  V30 3163 C 297.383 3.10624 -1.40447 0
M  V30 3164 H 298.576 1.66394 -2.49506 0
M  V30 3165 H 296.129 0.835745 -1.3208 0
M  V30 3166 H 296.864 3.21277 -0.441737 0
M  V30 3167 H 296.649 3.23473 -2.21602 0
M  V30 3168 H 298.139 3.90293 -1.4853 0
M  V30 3169 N 298.576 1.31904 0.862503 0
M  V30 3170 C 299.853 1.12644 1.59908 0
M  V30 3171 C 300.233 -0.316104 2.0872 0
M  V30 3172 O 299.581 -1.31145 1.87118 0
M  V30 3173 C 299.791 2.1472 2.7513 0
M  V30 3174 C 301.139 2.47637 3.44907 0
M  V30 3175 O 302.163 2.13205 2.85346 0
M  V30 3176 O 301.022 3.06632 4.52371 0
M  V30 3177 H 298.116 0.43416 0.703871 0
M  V30 3178 H 300.662 1.43408 0.907314 0
M  V30 3179 H 299.434 3.1172 2.3653 0
M  V30 3180 H 299.057 1.84905 3.51989 0
M  V30 3181 N 300.054 -1.07777 1.14986 0
M  V30 3182 C 301.331 -1.7699 0.832695 0
M  V30 3183 C 301.711 -2.001 -0.672561 0
M  V30 3184 O 301.059 -1.61598 -1.6155 0
M  V30 3185 C 301.269 -3.08139 1.63863 0
M  V30 3186 C 302.617 -3.8256 1.84208 0
M  V30 3187 O 303.641 -3.17939 1.60603 0
M  V30 3188 O 302.5 -4.98612 2.23714 0
M  V30 3189 H 299.594 -0.768389 0.305791 0
M  V30 3190 H 302.14 -1.14182 1.25541 0
M  V30 3191 H 300.912 -2.86909 2.6608 0
M  V30 3192 H 300.535 -3.78678 1.21197 0
M  V30 3193 N 301.532 -0.945985 -1.26051 0
M  V30 3194 C 302.778 -0.606539 -1.94146 0
M  V30 3195 C 303.133 0.84586 -1.72809 0
M  V30 3196 O 302.426 1.59781 -1.05738 0
M  V30 3197 C 302.62 -0.890475 -3.46129 0
M  V30 3198 C 302.449 -2.36892 -3.82246 0
M  V30 3199 C 301.219 -3.02494 -4.04753 0
M  V30 3200 C 303.417 -3.34772 -3.90425 0
M  V30 3201 N 301.399 -4.40302 -4.27794 0
M  V30 3202 C 302.77 -4.57855 -4.18054 0
M  V30 3203 C 304.825 -3.2973 -3.73072 0
M  V30 3204 C 303.528 -5.76522 -4.30134 0
M  V30 3205 C 305.554 -4.47727 -3.86386 0
M  V30 3206 C 304.916 -5.69593 -4.14419 0
M  V30 3207 H 301.015 -0.272407 -0.73302 0
M  V30 3208 H 303.599 -1.21638 -1.52027 0
M  V30 3209 H 301.77 -0.309638 -3.87164 0
M  V30 3210 H 303.502 -0.51181 -4.01451 0
M  V30 3211 H 300.257 -2.53095 -4.003 0
M  V30 3212 H 300.681 -5.11646 -4.43337 0
M  V30 3213 H 305.323 -2.36565 -3.50424 0
M  V30 3214 H 303.041 -6.70136 -4.51601 0
M  V30 3215 H 306.627 -4.45363 -3.74356 0
M  V30 3216 H 305.507 -6.59375 -4.24493 0
M  V30 3217 N 303.011 1.40521 -0.713556 0
M  V30 3218 C 303.941 2.33381 -0.0743864 0
M  V30 3219 C 304.922 1.52784 0.747735 0
M  V30 3220 O 306.107 1.81258 0.697071 0
M  V30 3221 C 303.237 3.36748 0.849598 0
M  V30 3222 C 302.191 4.27793 0.133247 0
M  V30 3223 C 301.517 5.21679 1.17281 0
M  V30 3224 C 302.817 5.12415 -1.01134 0
M  V30 3225 H 304.511 2.87081 -0.850007 0
M  V30 3226 H 302.057 1.38034 -0.410201 0
M  V30 3227 H 304.01 4.00648 1.30612 0
M  V30 3228 H 302.734 2.81439 1.65709 0
M  V30 3229 H 301.393 3.65342 -0.303426 0
M  V30 3230 H 301.041 4.62677 1.9733 0
M  V30 3231 H 300.741 5.83435 0.698397 0
M  V30 3232 H 302.265 5.88456 1.62947 0
M  V30 3233 H 303.679 5.69781 -0.634274 0
M  V30 3234 H 302.076 5.83203 -1.41399 0
M  V30 3235 H 303.146 4.48514 -1.84292 0
M  V30 3236 N 304.489 0.459591 1.5075 0
M  V30 3237 C 305.905 0.113092 1.59199 0
M  V30 3238 C 306.105 -1.37951 1.46874 0
M  V30 3239 O 305.161 -2.15168 1.32132 0
M  V30 3240 C 306.474 0.653043 2.93523 0
M  V30 3241 C 308.022 0.615449 3.0689 0
M  V30 3242 C 308.497 1.13275 4.43771 0
M  V30 3243 N 309.988 1.09167 4.50152 0
M  V30 3244 C 310.723 1.46256 5.54434 0
M  V30 3245 N 310.219 1.90739 6.66026 0
M  V30 3246 N 312.012 1.37932 5.44914 0
M  V30 3247 H 304.163 1.43049 1.57005 0
M  V30 3248 H 306.426 0.590861 0.741341 0
M  V30 3249 H 306.132 1.69822 3.07983 0
M  V30 3250 H 306.006 0.0902132 3.77092 0
M  V30 3251 H 308.393 -0.420793 2.92084 0
M  V30 3252 H 308.474 1.21495 2.25106 0
M  V30 3253 H 308.118 2.16757 4.59324 0
M  V30 3254 H 308.048 0.509576 5.24129 0
M  V30 3255 H 310.539 0.76528 3.7007 0
M  V30 3256 H 310.852 2.17218 7.41644 0
M  V30 3257 H 309.197 1.94683 6.67176 0
M  V30 3258 H 312.388 1.0303 4.56621 0
M  V30 3259 H 312.561 1.67164 6.26067 0
M  V30 3260 N 305.967 -1.56429 0.191757 0
M  V30 3261 C 307.197 -2.01574 -0.452928 0
M  V30 3262 C 307.605 -1.07107 -1.55964 0
M  V30 3263 O 306.948 -0.067534 -1.83576 0
M  V30 3264 C 307.01 -3.43121 -1.07278 0
M  V30 3265 C 306.674 -4.56879 -0.105214 0
M  V30 3266 C 307.671 -5.15379 0.684149 0
M  V30 3267 C 305.356 -5.023 0.00489824 0
M  V30 3268 C 307.35 -6.17746 1.57062 0
M  V30 3269 C 305.037 -6.04511 0.894935 0
M  V30 3270 C 306.035 -6.62108 1.67637 0
M  V30 3271 O 305.723 -7.62335 2.55149 0
M  V30 3272 H 305.455 -0.665554 -0.118379 0
M  V30 3273 H 308.009 -2.03245 0.296737 0
M  V30 3274 H 306.239 -3.38425 -1.87097 0
M  V30 3275 H 307.928 -3.72093 -1.62177 0
M  V30 3276 H 308.694 -4.81157 0.609365 0
M  V30 3277 H 304.573 -4.57168 -0.593156 0
M  V30 3278 H 308.117 -6.6263 2.181 0
M  V30 3279 H 304.014 -6.38157 0.970847 0
M  V30 3280 H 304.782 -7.79741 2.48892 0
M  V30 3281 N 307.445 0.0818655 -1.57387 0
M  V30 3282 C 308.693 0.781368 -1.86384 0
M  V30 3283 C 309.014 1.78618 -0.782342 0
M  V30 3284 O 308.284 1.94976 0.190061 0
M  V30 3285 H 306.864 0.291562 -0.687751 0
M  V30 3286 H 309.526 0.060348 -1.94807 0
M  V30 3287 H 308.622 1.3038 -2.83562 0
M  V30 3288 N 308.923 1.53595 0.353017 0
M  V30 3289 C 309.871 1.81605 1.45335 0
M  V30 3290 C 310.865 0.685923 1.54892 0
M  V30 3291 O 312.071 0.869095 1.57628 0
M  V30 3292 H 308.446 0.575204 0.484401 0
M  V30 3293 H 310.417 2.73679 1.18921 0
M  V30 3294 C 309.166 2.03406 2.81995 0
M  V30 3295 H 308.489 2.89814 2.75405 0
M  V30 3296 H 309.929 2.26975 3.58132 0
M  V30 3297 C 308.388 0.816794 3.26849 0
M  V30 3298 O 308.918 0.0115856 4.01698 0
M  V30 3299 N 307.124 0.636682 2.8354 0
M  V30 3300 H 306.671 1.2931 2.22793 0
M  V30 3301 H 306.629 -0.176336 3.13905 0
M  V30 3302 N 310.401 -0.613514 1.45168 0
M  V30 3303 C 311.812 -1.19539 1.43413 0
M  V30 3304 C 312.163 -1.95558 0.158632 0
M  V30 3305 O 311.288 -2.0335 -0.740119 0
M  V30 3306 C 311.883 -2.17445 2.59813 0
M  V30 3307 C 310.442 -2.71022 2.61197 0
M  V30 3308 C 309.589 -1.46323 2.35552 0
M  V30 3309 H 312.54 -0.403163 1.53494 0
M  V30 3310 H 312.561 -3.00373 2.33574 0
M  V30 3311 H 312.073 -1.62089 3.52631 0
M  V30 3312 H 310.174 -3.30332 1.7237 0
M  V30 3313 H 310.287 -3.15859 3.60236 0
M  V30 3314 H 308.651 -1.75072 1.84992 0
M  V30 3315 H 309.434 -0.92844 3.30507 0
M  V30 3316 N 311.879 -1.3236 -0.855495 0
M  V30 3317 C 313.125 -1.24064 -1.61182 0
M  V30 3318 C 313.48 0.195914 -1.914 0
M  V30 3319 O 312.773 1.13345 -1.54478 0
M  V30 3320 C 312.967 -2.03275 -2.93963 0
M  V30 3321 C 312.796 -3.54486 -2.76712 0
M  V30 3322 C 311.566 -4.23824 -2.75139 0
M  V30 3323 C 313.764 -4.49154 -2.50531 0
M  V30 3324 N 311.746 -5.61095 -2.4909 0
M  V30 3325 C 313.117 -5.74195 -2.3388 0
M  V30 3326 C 315.172 -4.3842 -2.35992 0
M  V30 3327 C 313.875 -6.89716 -2.04168 0
M  V30 3328 C 315.901 -5.53739 -2.0767 0
M  V30 3329 C 315.263 -6.77779 -1.9182 0
M  V30 3330 H 311.362 -0.509139 -0.59355 0
M  V30 3331 H 313.946 -1.66715 -1.00569 0
M  V30 3332 H 312.117 -1.6297 -3.52555 0
M  V30 3333 H 313.849 -1.86881 -3.58967 0
M  V30 3334 H 310.604 -3.75934 -2.88047 0
M  V30 3335 H 311.028 -6.33411 -2.38996 0
M  V30 3336 H 315.67 -3.43172 -2.46967 0
M  V30 3337 H 313.388 -7.84977 -1.9193 0
M  V30 3338 H 316.974 -5.4736 -1.97201 0
M  V30 3339 H 315.854 -7.65504 -1.70217 0
M  V30 3340 N 313.357 1.07166 -1.15556 0
M  V30 3341 C 314.267 2.17947 -0.868116 0
M  V30 3342 C 315.283 1.73297 0.156297 0
M  V30 3343 O 316.459 2.01392 -0.0182327 0
M  V30 3344 C 313.524 3.44789 -0.36355 0
M  V30 3345 C 312.585 4.03996 -1.45209 0
M  V30 3346 C 311.818 5.24783 -0.971508 0
M  V30 3347 O 312.041 5.70109 0.182194 0
M  V30 3348 O 310.975 5.75715 -1.75603 0
M  V30 3349 H 314.801 2.4503 -1.79427 0
M  V30 3350 H 312.386 1.16539 -0.934824 0
M  V30 3351 H 314.268 4.21307 -0.0887113 0
M  V30 3352 H 312.943 3.19253 0.534708 0
M  V30 3353 H 311.85 3.29009 -1.78056 0
M  V30 3354 H 313.183 4.33808 -2.32533 0
M  V30 3355 N 314.835 0.952656 1.25548 0
M  V30 3356 C 315.782 0.47008 2.25962 0
M  V30 3357 C 316.752 -0.476384 1.59122 0
M  V30 3358 O 317.937 -0.39007 1.8677 0
M  V30 3359 C 315.077 -0.247881 3.44209 0
M  V30 3360 C 314.19 0.735591 4.25691 0
M  V30 3361 C 313.325 -0.0047306 5.312 0
M  V30 3362 C 312.364 0.969805 6.04368 0
M  V30 3363 N 311.501 0.260486 7.01617 0
M  V30 3364 H 316.341 1.33126 2.66611 0
M  V30 3365 H 313.878 0.66765 1.31076 0
M  V30 3366 H 315.836 -0.680695 4.1161 0
M  V30 3367 H 314.466 -1.07312 3.0444 0
M  V30 3368 H 313.518 1.28689 3.57971 0
M  V30 3369 H 314.83 1.47934 4.76358 0
M  V30 3370 H 313.984 -0.496275 6.04667 0
M  V30 3371 H 312.723 -0.781282 4.81401 0
M  V30 3372 H 311.728 1.47237 5.29718 0
M  V30 3373 H 312.953 1.74655 6.56256 0
M  V30 3374 H 310.899 -0.497364 6.54112 0
M  V30 3375 H 310.816 0.943362 7.50091 0
M  V30 3376 H 312.084 -0.209587 7.79218 0
M  V30 3377 N 316.313 -1.40141 0.720998 0
M  V30 3378 C 317.276 -2.29058 0.0805834 0
M  V30 3379 C 318.276 -1.45632 -0.681758 0
M  V30 3380 O 319.466 -1.6648 -0.512856 0
M  V30 3381 C 316.598 -3.28925 -0.895593 0
M  V30 3382 H 317.791 -2.87191 0.863793 0
M  V30 3383 H 315.344 -1.48553 0.485975 0
M  V30 3384 H 316.079 -2.75822 -1.70566 0
M  V30 3385 H 315.864 -3.90519 -0.351766 0
M  V30 3386 H 317.354 -3.95494 -1.34069 0
M  V30 3387 N 317.792 -0.46758 -1.50504 0
M  V30 3388 C 319.208 -0.121533 -1.59137 0
M  V30 3389 C 319.408 1.3717 -1.47603 0
M  V30 3390 O 318.464 2.14464 -1.33272 0
M  V30 3391 C 319.777 -0.6686 -2.93173 0
M  V30 3392 C 321.325 -0.631716 -3.06559 0
M  V30 3393 C 321.8 -1.15627 -4.43164 0
M  V30 3394 N 323.291 -1.11553 -4.49567 0
M  V30 3395 C 324.026 -1.49195 -5.5365 0
M  V30 3396 N 323.522 -1.94269 -6.65005 0
M  V30 3397 N 325.315 -1.4082 -5.44175 0
M  V30 3398 H 317.466 -1.4388 -1.56245 0
M  V30 3399 H 319.729 -0.594784 -0.738198 0
M  V30 3400 H 319.435 -1.71453 -3.07078 0
M  V30 3401 H 319.309 -0.11021 -3.77039 0
M  V30 3402 H 321.696 0.405297 -2.92304 0
M  V30 3403 H 321.777 -1.22687 -2.24458 0
M  V30 3404 H 321.421 -2.1919 -4.58168 0
M  V30 3405 H 321.351 -0.537365 -5.23851 0
M  V30 3406 H 323.842 -0.784895 -3.69659 0
M  V30 3407 H 324.155 -2.21148 -7.40482 0
M  V30 3408 H 322.5 -1.98219 -6.66134 0
M  V30 3409 H 325.691 -1.0545 -4.56068 0
M  V30 3410 H 325.864 -1.70481 -6.25172 0
M  V30 3411 N 319.27 1.56325 -0.20005 0
M  V30 3412 C 320.681 1.8408 0.31167 0
M  V30 3413 C 321.032 1.12087 1.61031 0
M  V30 3414 O 320.157 0.38332 2.12978 0
M  V30 3415 C 320.752 3.33932 0.57226 0
M  V30 3416 C 319.311 3.6208 1.02834 0
M  V30 3417 C 318.458 2.77186 0.079634 0
M  V30 3418 H 321.409 1.52939 -0.423729 0
M  V30 3419 H 321.43 3.52971 1.42096 0
M  V30 3420 H 320.942 3.86303 -0.37308 0
M  V30 3421 H 319.043 3.15147 1.98778 0
M  V30 3422 H 319.156 4.7023 0.917624 0
M  V30 3423 H 317.52 2.47951 0.582448 0
M  V30 3424 H 318.303 3.32347 -0.860238 0
M  V30 3425 N 320.748 -0.0735177 1.57428 0
M  V30 3426 C 321.658 -1.10547 2.06922 0
M  V30 3427 C 322.674 -1.42506 0.998402 0
M  V30 3428 O 323.85 -1.52717 1.31299 0
M  V30 3429 C 320.915 -2.40019 2.50184 0
M  V30 3430 C 319.976 -2.15046 3.71556 0
M  V30 3431 C 319.209 -3.38345 4.12745 0
M  V30 3432 O 319.432 -4.47399 3.53822 0
M  V30 3433 O 318.366 -3.2666 5.05546 0
M  V30 3434 H 322.192 -0.715013 2.95163 0
M  V30 3435 H 319.777 -0.287531 1.46607 0
M  V30 3436 H 321.659 -3.16218 2.78539 0
M  V30 3437 H 320.334 -2.78447 1.65072 0
M  V30 3438 H 319.241 -1.36558 3.48285 0
M  V30 3439 H 320.574 -1.81499 4.57514 0
M  V30 3440 N 322.226 -1.5378 -0.344866 0
M  V30 3441 C 323.456 -1.74646 -1.10374 0
M  V30 3442 C 323.864 -0.48491 -1.8288 0
M  V30 3443 O 323.207 0.553062 -1.75177 0
M  V30 3444 C 323.269 -2.87145 -2.16306 0
M  V30 3445 C 322.933 -4.26795 -1.63386 0
M  V30 3446 C 323.93 -5.08412 -1.08688 0
M  V30 3447 C 321.615 -4.73276 -1.68272 0
M  V30 3448 C 323.609 -6.34609 -0.595792 0
M  V30 3449 C 321.296 -5.99446 -1.18776 0
M  V30 3450 C 322.294 -6.79946 -0.645215 0
M  V30 3451 O 321.982 -8.03745 -0.157626 0
M  V30 3452 H 321.714 -0.587112 -0.335075 0
M  V30 3453 H 324.268 -2.01403 -0.403252 0
M  V30 3454 H 322.498 -2.55909 -2.89909 0
M  V30 3455 H 324.187 -2.95992 -2.77747 0
M  V30 3456 H 324.953 -4.73666 -1.04236 0
M  V30 3457 H 320.832 -4.10677 -2.09442 0
M  V30 3458 H 324.376 -6.97389 -0.171654 0
M  V30 3459 H 320.273 -6.33687 -1.22928 0
M  V30 3460 H 321.041 -8.18038 -0.275037 0
M  V30 3461 N 323.704 0.605807 -1.45491 0
M  V30 3462 C 324.637 1.73022 -1.48791 0
M  V30 3463 C 325.615 1.58917 -0.344112 0
M  V30 3464 O 326.799 1.80453 -0.544876 0
M  V30 3465 C 323.926 3.10865 -1.34463 0
M  V30 3466 C 322.972 3.43554 -2.5273 0
M  V30 3467 S 323.805 3.38196 -4.15191 0
M  V30 3468 C 324.961 4.78616 -4.03333 0
M  V30 3469 H 325.194 1.69961 -2.43928 0
M  V30 3470 H 322.727 0.782611 -1.33096 0
M  V30 3471 H 324.685 3.90398 -1.26884 0
M  V30 3472 H 323.346 3.1144 -0.40794 0
M  V30 3473 H 322.539 4.43924 -2.38637 0
M  V30 3474 H 322.141 2.71541 -2.5718 0
M  V30 3475 H 324.433 5.68463 -3.68587 0
M  V30 3476 H 325.376 4.97767 -5.03621 0
M  V30 3477 H 325.784 4.54381 -3.34959 0
M  V30 3478 N 325.182 1.32811 0.848464 0
M  V30 3479 C 326.112 1.24882 1.97299 0
M  V30 3480 C 327.093 0.131357 1.69592 0
M  V30 3481 O 328.278 0.319553 1.91553 0
M  V30 3482 C 325.408 0.97746 3.33261 0
M  V30 3483 C 324.362 2.05682 3.75338 0
M  V30 3484 C 323.688 1.63777 5.09 0
M  V30 3485 C 324.988 3.47254 3.90144 0
M  V30 3486 H 326.682 2.18966 2.04191 0
M  V30 3487 H 324.228 1.05413 0.981029 0
M  V30 3488 H 326.181 0.908513 4.1149 0
M  V30 3489 H 324.905 0.000980011 3.266 0
M  V30 3490 H 323.564 2.11603 2.99366 0
M  V30 3491 H 323.212 0.648569 4.98801 0
M  V30 3492 H 322.912 2.36 5.38124 0
M  V30 3493 H 324.436 1.5833 5.89715 0
M  V30 3494 H 325.85 3.43888 4.58709 0
M  V30 3495 H 324.247 4.1788 4.30693 0
M  V30 3496 H 325.317 3.86462 2.92874 0
M  V30 3497 N 326.66 -1.06551 1.16123 0
M  V30 3498 C 328.071 -1.60768 0.949232 0
M  V30 3499 C 328.422 -1.89523 -0.507508 0
M  V30 3500 O 327.547 -1.66671 -1.38021 0
M  V30 3501 C 328.142 -2.92086 1.71671 0
M  V30 3502 C 326.701 -3.43015 1.54977 0
M  V30 3503 C 325.848 -2.16947 1.72711 0
M  V30 3504 H 328.799 -0.895354 1.31031 0
M  V30 3505 H 328.82 -3.6138 1.19099 0
M  V30 3506 H 328.332 -2.71127 2.7769 0
M  V30 3507 H 326.433 -3.69039 0.513873 0
M  V30 3508 H 326.546 -4.18516 2.33198 0
M  V30 3509 H 324.91 -2.27041 1.15431 0
M  V30 3510 H 325.693 -1.98473 2.80113 0
M  V30 3511 N 328.138 -0.959301 -1.25041 0
M  V30 3512 C 329.384 -0.617525 -1.9317 0
M  V30 3513 C 329.717 0.843981 -1.74902 0
M  V30 3514 O 328.992 1.60615 -1.09696 0
M  V30 3515 C 329.275 -0.982736 -3.46431 0
M  V30 3516 C 329.128 -2.50032 -3.73904 0
M  V30 3517 C 330.447 -0.511176 -4.37121 0
M  V30 3518 H 327.566 -0.22582 -0.701552 0
M  V30 3519 H 330.208 -1.19679 -1.4757 0
M  V30 3520 H 328.358 -0.489806 -3.854 0
M  V30 3521 H 330.03 -3.06737 -3.44544 0
M  V30 3522 H 328.273 -2.93598 -3.19348 0
M  V30 3523 H 328.944 -2.70635 -4.81103 0
M  V30 3524 H 331.42 -0.934075 -4.0548 0
M  V30 3525 H 330.296 -0.795361 -5.43107 0
M  V30 3526 H 330.557 0.588834 -4.38161 0
M  V30 3527 N 329.616 1.39756 -0.72842 0
M  V30 3528 C 330.566 2.2792 -0.0603424 0
M  V30 3529 C 331.55 1.43922 0.719399 0
M  V30 3530 O 332.742 1.66895 0.589489 0
M  V30 3531 C 329.871 3.32582 0.851104 0
M  V30 3532 C 328.957 4.24049 0.0658641 0
M  V30 3533 N 329.348 4.96653 -0.957578 0
M  V30 3534 C 327.646 4.45013 0.296509 0
M  V30 3535 C 328.347 5.63836 -1.43052 0
M  V30 3536 N 327.323 5.38397 -0.750315 0
M  V30 3537 H 331.125 2.81504 -0.84455 0
M  V30 3538 H 328.639 1.5236 -0.562155 0
M  V30 3539 H 330.636 3.94603 1.34514 0
M  V30 3540 H 329.296 2.80558 1.63454 0
M  V30 3541 H 330.307 5.00297 -1.33877 0
M  V30 3542 H 326.984 4.03943 1.05527 0
M  V30 3543 H 328.374 6.31974 -2.28163 0
M  V30 3544 N 331.094 0.475555 1.50254 0
M  V30 3545 C 332.341 -0.0778919 2.0235 0
M  V30 3546 C 332.669 -1.39319 1.35722 0
M  V30 3547 O 331.924 -1.89888 0.473395 0
M  V30 3548 C 332.223 -0.305114 3.56095 0
M  V30 3549 C 331.889 0.92903 4.41225 0
M  V30 3550 C 330.551 1.26739 4.6421 0
M  V30 3551 C 332.903 1.75054 4.90923 0
M  V30 3552 C 330.231 2.42724 5.34137 0
M  V30 3553 C 332.583 2.9017 5.62125 0
M  V30 3554 C 331.247 3.24416 5.83362 0
M  V30 3555 H 330.517 -0.0285027 0.740452 0
M  V30 3556 H 333.164 0.630543 1.80821 0
M  V30 3557 H 331.469 -1.09584 3.76163 0
M  V30 3558 H 333.166 -0.747377 3.93974 0
M  V30 3559 H 329.756 0.655428 4.23559 0
M  V30 3560 H 333.94 1.50231 4.73016 0
M  V30 3561 H 329.196 2.69525 5.48786 0
M  V30 3562 H 333.37 3.54169 5.99614 0
M  V30 3563 H 330.997 4.14396 6.37323 0
M  V30 3564 N 332.573 -1.56217 0.208337 0
M  V30 3565 C 333.803 -2.02043 -0.431523 0
M  V30 3566 C 334.211 -1.08755 -1.54819 0
M  V30 3567 O 333.554 -0.0870009 -1.83494 0
M  V30 3568 C 333.616 -3.44239 -1.03633 0
M  V30 3569 C 333.28 -4.56965 -0.0567502 0
M  V30 3570 C 334.277 -5.14624 0.738773 0
M  V30 3571 C 331.962 -5.02266 0.0581736 0
M  V30 3572 C 333.956 -6.16045 1.63605 0
M  V30 3573 C 331.643 -6.03528 0.959001 0
M  V30 3574 C 332.641 -6.60293 1.7465 0
M  V30 3575 O 332.329 -7.59586 2.6322 0
M  V30 3576 H 332.061 -0.666772 -0.111313 0
M  V30 3577 H 334.615 -2.02919 0.318277 0
M  V30 3578 H 332.845 -3.40391 -1.83497 0
M  V30 3579 H 334.534 -3.73793 -1.58221 0
M  V30 3580 H 335.3 -4.80483 0.660364 0
M  V30 3581 H 331.179 -4.57771 -0.544633 0
M  V30 3582 H 334.723 -6.60279 2.25116 0
M  V30 3583 H 330.62 -6.37092 1.03848 0
M  V30 3584 H 331.388 -7.77057 2.57148 0
M  V30 3585 N 334.051 0.0651679 -1.57465 0
M  V30 3586 C 335.299 0.761555 -1.87202 0
M  V30 3587 C 335.62 1.77778 -0.801243 0
M  V30 3588 O 334.89 1.95166 0.16937 0
M  V30 3589 H 333.47 0.284251 -0.690804 0
M  V30 3590 H 336.132 0.0396827 -1.9486 0
M  V30 3591 H 335.228 1.27365 -2.84929 0
M  V30 3592 N 335.529 1.53961 0.336706 0
M  V30 3593 C 336.945 1.44378 0.680241 0
M  V30 3594 C 337.145 0.606034 1.9217 0
M  V30 3595 O 336.201 0.099688 2.52303 0
M  V30 3596 C 337.514 2.87945 0.8665 0
M  V30 3597 C 339.062 2.97763 0.964682 0
M  V30 3598 C 339.537 4.42453 1.18321 0
M  V30 3599 N 341.028 4.46008 1.25025 0
M  V30 3600 C 341.763 5.55102 1.43697 0
M  V30 3601 N 341.259 6.7419 1.59498 0
M  V30 3602 N 343.052 5.42727 1.463 0
M  V30 3603 H 335.203 2.06918 -0.479455 0
M  V30 3604 H 337.466 0.935634 -0.152619 0
M  V30 3605 H 337.172 3.51691 0.0256937 0
M  V30 3606 H 337.046 3.33293 1.76623 0
M  V30 3607 H 339.433 2.34153 1.796 0
M  V30 3608 H 339.514 2.55766 0.041708 0
M  V30 3609 H 339.158 5.06645 0.356788 0
M  V30 3610 H 339.088 4.82048 2.11985 0
M  V30 3611 H 341.579 3.60196 1.14312 0
M  V30 3612 H 341.892 7.53095 1.734 0
M  V30 3613 H 340.237 6.77123 1.56621 0
M  V30 3614 H 343.428 4.48647 1.33543 0
M  V30 3615 H 343.601 6.27806 1.6051 0
M  V30 3616 N 337.007 -0.598083 1.45811 0
M  V30 3617 C 338.253 -1.35882 1.50545 0
M  V30 3618 C 338.586 -1.93616 0.150445 0
M  V30 3619 O 337.861 -1.75604 -0.83628 0
M  V30 3620 C 338.144 -2.49966 2.59208 0
M  V30 3621 C 337.997 -1.97367 4.04186 0
M  V30 3622 C 339.316 -3.52068 2.64076 0
M  V30 3623 H 336.435 -0.492717 0.548087 0
M  V30 3624 H 339.077 -0.673319 1.77669 0
M  V30 3625 H 337.227 -3.08443 2.3621 0
M  V30 3626 H 338.899 -1.43466 4.38423 0
M  V30 3627 H 337.142 -1.283 4.14393 0
M  V30 3628 H 337.813 -2.79649 4.75921 0
M  V30 3629 H 340.289 -3.03448 2.84708 0
M  V30 3630 H 339.165 -4.2937 3.41954 0
M  V30 3631 H 339.426 -4.08304 1.69531 0
M  V30 3632 N 338.485 -1.33259 -0.841409 0
M  V30 3633 C 339.395 -1.25332 -1.98316 0
M  V30 3634 C 340.411 -0.164364 -1.73222 0
M  V30 3635 O 341.587 -0.387486 -1.97637 0
M  V30 3636 C 338.652 -0.990078 -3.32262 0
M  V30 3637 C 337.713 -2.16879 -3.70489 0
M  V30 3638 C 336.946 -1.91801 -4.98044 0
M  V30 3639 O 337.169 -0.867075 -5.63771 0
M  V30 3640 O 336.103 -2.78267 -5.33714 0
M  V30 3641 H 339.929 -2.21344 -2.07944 0
M  V30 3642 H 337.514 -1.1328 -0.974058 0
M  V30 3643 H 339.396 -0.860321 -4.12524 0
M  V30 3644 H 338.071 -0.0602155 -3.23644 0
M  V30 3645 H 336.978 -2.35407 -2.90748 0
M  V30 3646 H 338.311 -3.0819 -3.8377 0
M  V30 3647 N 339.963 1.05934 -1.16686 0
M  V30 3648 C 340.913 2.11764 -0.844978 0
M  V30 3649 C 341.897 1.59922 0.177178 0
M  V30 3650 O 343.089 1.76983 -0.0241768 0
M  V30 3651 C 340.218 3.41493 -0.351812 0
M  V30 3652 C 339.304 4.00152 -1.40496 0
M  V30 3653 N 339.695 4.32874 -2.61636 0
M  V30 3654 C 337.993 4.278 -1.26106 0
M  V30 3655 C 338.694 4.79552 -3.29249 0
M  V30 3656 N 337.67 4.79211 -2.56628 0
M  V30 3657 H 341.472 2.34916 -1.76612 0
M  V30 3658 H 338.986 1.23511 -1.05446 0
M  V30 3659 H 340.983 4.16773 -0.102796 0
M  V30 3660 H 339.643 3.19778 0.56322 0
M  V30 3661 H 340.654 4.23109 -2.98663 0
M  V30 3662 H 337.331 4.15511 -0.407081 0
M  V30 3663 H 338.721 5.14045 -4.32675 0
M  V30 3664 N 341.441 0.965919 1.2453 0
M  V30 3665 C 342.669 0.644385 1.96609 0
M  V30 3666 C 343.084 -0.785823 1.71669 0
M  V30 3667 O 342.441 -1.52703 0.999399 0
M  V30 3668 C 342.492 0.907375 3.49927 0
M  V30 3669 O 342.213 2.28136 3.74013 0
M  V30 3670 C 343.714 0.599784 4.39224 0
M  V30 3671 H 340.934 0.240588 0.626385 0
M  V30 3672 H 343.478 1.29337 1.58405 0
M  V30 3673 H 341.633 0.304631 3.862 0
M  V30 3674 H 342.047 2.36002 4.68405 0
M  V30 3675 H 343.521 0.834263 5.45659 0
M  V30 3676 H 343.998 -0.465921 4.36722 0
M  V30 3677 H 344.604 1.18235 4.08535 0
M  V30 3678 N 342.919 -1.39368 0.735821 0
M  V30 3679 C 344.33 -1.83313 0.354015 0
M  V30 3680 C 344.681 -1.61461 -1.11466 0
M  V30 3681 O 343.806 -1.10621 -1.85989 0
M  V30 3682 C 344.401 -3.32781 0.635769 0
M  V30 3683 C 342.96 -3.75142 0.307448 0
M  V30 3684 C 342.107 -2.62358 0.897974 0
M  V30 3685 H 345.058 -1.28349 0.933398 0
M  V30 3686 H 345.079 -3.80388 -0.0921773 0
M  V30 3687 H 344.591 -3.48654 1.70476 0
M  V30 3688 H 342.692 -3.64857 -0.755674 0
M  V30 3689 H 342.805 -4.72532 0.790583 0
M  V30 3690 H 341.169 -2.52624 0.324551 0
M  V30 3691 H 341.952 -2.81036 1.97164 0
M  V30 3692 N 344.397 -0.483516 -1.5 0
M  V30 3693 C 345.674 0.129337 -1.95172 0
M  V30 3694 C 346.054 1.55802 -1.4244 0
M  V30 3695 O 345.402 2.19625 -0.630649 0
M  V30 3696 C 345.612 0.0599251 -3.48949 0
M  V30 3697 C 346.96 0.242617 -4.23906 0
M  V30 3698 O 347.984 0.135933 -3.55941 0
M  V30 3699 O 346.843 0.459454 -5.44565 0
M  V30 3700 H 343.937 0.104887 -0.820322 0
M  V30 3701 H 346.483 -0.544807 -1.60717 0
M  V30 3702 H 345.255 -0.937079 -3.79914 0
M  V30 3703 H 344.878 0.774984 -3.89974 0
M  V30 3704 N 345.875 1.56104 -0.216619 0
M  V30 3705 C 347.123 1.97781 0.415593 0
M  V30 3706 C 347.444 1.10536 1.60645 0
M  V30 3707 O 346.714 0.181303 1.95059 0
M  V30 3708 H 345.294 0.730415 0.156534 0
M  V30 3709 H 347.956 1.92445 -0.308366 0
M  V30 3710 H 347.052 3.03072 0.74525 0
M  V30 3711 N 347.353 -0.0568162 1.57498 0
M  V30 3712 C 348.599 -0.75422 1.88253 0
M  V30 3713 C 348.932 -1.76461 0.810865 0
M  V30 3714 O 348.207 -1.93691 -0.177259 0
M  V30 3715 C 348.49 -1.44878 3.2967 0
M  V30 3716 C 348.343 -0.453789 4.47505 0
M  V30 3717 C 349.662 -2.38994 3.69554 0
M  V30 3718 H 346.781 -0.272724 0.684683 0
M  V30 3719 H 349.423 -0.0172113 1.89992 0
M  V30 3720 H 347.573 -2.077 3.28318 0
M  V30 3721 H 349.245 0.170371 4.60985 0
M  V30 3722 H 347.488 0.229552 4.33192 0
M  V30 3723 H 348.159 -0.977699 5.43273 0
M  V30 3724 H 350.635 -1.86239 3.72095 0
M  V30 3725 H 349.511 -2.84587 4.69363 0
M  V30 3726 H 349.772 -3.24461 3.00296 0
M  V30 3727 N 348.832 -1.54138 -0.328536 0
M  V30 3728 C 349.779 -1.83176 -1.40411 0
M  V30 3729 C 350.749 -0.678494 -1.5161 0
M  V30 3730 O 351.934 -0.92443 -1.6691 0
M  V30 3731 C 349.074 -2.06035 -2.76846 0
M  V30 3732 C 348.187 -3.33727 -2.74318 0
M  V30 3733 C 347.322 -3.46574 -4.02567 0
M  V30 3734 C 346.361 -4.68159 -3.94327 0
M  V30 3735 N 345.498 -4.77959 -5.14296 0
M  V30 3736 H 350.338 -2.74938 -1.14948 0
M  V30 3737 H 347.875 -1.36166 -0.556538 0
M  V30 3738 H 349.833 -2.1728 -3.56153 0
M  V30 3739 H 348.463 -1.1757 -3.00628 0
M  V30 3740 H 347.515 -3.31246 -1.8703 0
M  V30 3741 H 348.827 -4.23139 -2.64111 0
M  V30 3742 H 347.981 -3.57333 -4.90304 0
M  V30 3743 H 346.72 -2.55245 -4.15574 0
M  V30 3744 H 345.725 -4.57461 -3.04974 0
M  V30 3745 H 346.95 -5.60868 -3.82889 0
M  V30 3746 H 344.896 -3.89544 -5.27818 0
M  V30 3747 H 344.813 -5.6133 -5.06404 0
M  V30 3748 H 346.081 -4.93044 -6.03761 0
M  V30 3749 N 350.31 0.590341 -1.46126 0
M  V30 3750 C 351.556 1.34874 -1.52252 0
M  V30 3751 C 351.911 1.91658 -0.168807 0
M  V30 3752 O 351.204 1.73093 0.821556 0
M  V30 3753 C 351.398 2.5032 -2.55097 0
M  V30 3754 C 351.227 2.04843 -4.00337 0
M  V30 3755 C 349.997 1.90213 -4.68132 0
M  V30 3756 C 352.195 1.61267 -4.88362 0
M  V30 3757 N 350.177 1.38727 -5.9802 0
M  V30 3758 C 351.548 1.21319 -6.08015 0
M  V30 3759 C 353.603 1.49015 -4.75078 0
M  V30 3760 C 352.306 0.7034 -7.15852 0
M  V30 3761 C 354.332 0.994401 -5.8298 0
M  V30 3762 C 353.694 0.604659 -7.018 0
M  V30 3763 H 349.793 0.486803 -0.612002 0
M  V30 3764 H 352.377 0.673007 -1.82698 0
M  V30 3765 H 350.548 3.15466 -2.26574 0
M  V30 3766 H 352.28 3.1725 -2.51266 0
M  V30 3767 H 349.035 2.11927 -4.23537 0
M  V30 3768 H 349.459 1.15168 -6.67132 0
M  V30 3769 H 354.101 1.77768 -3.83612 0
M  V30 3770 H 351.819 0.403446 -8.07092 0
M  V30 3771 H 355.405 0.903621 -5.7474 0
M  V30 3772 H 354.285 0.226963 -7.83871 0
M  V30 3773 N 351.788 1.33704 0.83433 0
M  V30 3774 C 352.718 1.26967 1.95963 0
M  V30 3775 C 353.699 0.149337 1.69443 0
M  V30 3776 O 354.884 0.339852 1.91203 0
M  V30 3777 C 352.014 1.01275 3.32206 0
M  V30 3778 C 350.968 2.09652 3.73136 0
M  V30 3779 C 350.294 1.69166 5.07235 0
M  V30 3780 C 351.594 3.51372 3.86439 0
M  V30 3781 H 353.288 2.2112 2.01857 0
M  V30 3782 H 350.834 1.06447 0.969793 0
M  V30 3783 H 352.787 0.952106 4.10503 0
M  V30 3784 H 351.511 0.0356203 3.26581 0
M  V30 3785 H 350.17 2.14766 2.97104 0
M  V30 3786 H 349.818 0.701437 4.98085 0
M  V30 3787 H 349.518 2.41694 5.35591 0
M  V30 3788 H 351.042 1.64576 5.88003 0
M  V30 3789 H 352.456 3.48734 4.55036 0
M  V30 3790 H 350.853 4.22425 4.26236 0
M  V30 3791 H 351.923 3.89546 2.88759 0
M  V30 3792 N 353.266 -1.05314 1.17247 0
M  V30 3793 C 354.543 -1.75184 0.87005 0
M  V30 3794 C 354.923 -2.01481 -0.629965 0
M  V30 3795 O 354.271 -1.64988 -1.58086 0
M  V30 3796 C 354.481 -3.04594 1.70363 0
M  V30 3797 C 355.829 -3.78567 1.92281 0
M  V30 3798 O 356.853 -3.14461 1.67311 0
M  V30 3799 O 355.712 -4.93755 2.3424 0
M  V30 3800 H 352.806 -0.761729 0.322021 0
M  V30 3801 H 355.352 -1.11493 1.27935 0
M  V30 3802 H 354.124 -2.81201 2.72106 0
M  V30 3803 H 353.747 -3.76022 1.29202 0
M  V30 3804 N 354.744 -0.972509 -1.24016 0
M  V30 3805 C 355.972 -0.654803 -1.96265 0
M  V30 3806 C 356.387 0.776708 -1.72083 0
M  V30 3807 O 355.744 1.52171 -1.00748 0
M  V30 3808 C 355.795 -0.92592 -3.49441 0
M  V30 3809 O 355.516 -2.30116 -3.72798 0
M  V30 3810 C 357.017 -0.623068 -4.38899 0
M  V30 3811 H 354.237 -0.243907 -0.6251 0
M  V30 3812 H 356.781 -1.30175 -1.57717 0
M  V30 3813 H 354.936 -0.325108 -3.86033 0
M  V30 3814 H 355.35 -2.38483 -4.67147 0
M  V30 3815 H 356.824 -0.863189 -5.45209 0
M  V30 3816 H 357.301 0.442754 -4.36963 0
M  V30 3817 H 357.907 -1.204 -4.07902 0
M  V30 3818 N 356.222 1.38976 -0.743202 0
M  V30 3819 C 357.154 2.29096 -0.0689228 0
M  V30 3820 C 358.167 1.47229 0.694791 0
M  V30 3821 O 359.356 1.70212 0.537597 0
M  V30 3822 C 356.456 3.25988 0.926548 0
M  V30 3823 C 355.629 4.36833 0.222647 0
M  V30 3824 C 354.688 5.13981 1.12739 0
M  V30 3825 O 353.714 5.6601 0.601795 0
M  V30 3826 N 354.916 5.25966 2.45641 0
M  V30 3827 H 357.681 2.87604 -0.842846 0
M  V30 3828 H 355.242 1.50645 -0.593109 0
M  V30 3829 H 357.234 3.74476 1.5346 0
M  V30 3830 H 355.804 2.68453 1.60162 0
M  V30 3831 H 355.024 3.90116 -0.565983 0
M  V30 3832 H 356.312 5.0811 -0.264841 0
M  V30 3833 H 355.71 4.85228 2.9081 0
M  V30 3834 H 354.267 5.77865 3.01522 0
M  V30 3835 N 357.7 0.491464 1.49741 0
M  V30 3836 C 358.946 -0.0565092 2.02721 0
M  V30 3837 C 359.279 -1.37522 1.37118 0
M  V30 3838 O 358.554 -1.87866 0.503645 0
M  V30 3839 C 358.837 -0.219051 3.59433 0
M  V30 3840 C 358.69 1.12211 4.35579 0
M  V30 3841 C 360.009 -0.964157 4.29409 0
M  V30 3842 H 357.128 -0.0190627 0.736753 0
M  V30 3843 H 359.77 0.641021 1.7886 0
M  V30 3844 H 357.92 -0.813165 3.79895 0
M  V30 3845 H 359.592 1.75437 4.26637 0
M  V30 3846 H 357.835 1.71377 3.98513 0
M  V30 3847 H 358.506 0.961794 5.43556 0
M  V30 3848 H 360.982 -0.460378 4.13545 0
M  V30 3849 H 359.858 -1.04671 5.38828 0
M  V30 3850 H 360.119 -2.00563 3.93988 0
M  V30 3851 N 359.178 -1.55987 0.224894 0
M  V30 3852 C 360.424 -1.98684 -0.406502 0
M  V30 3853 C 360.757 -1.11248 -1.59177 0
M  V30 3854 O 360.032 -0.170909 -1.93748 0
M  V30 3855 C 360.315 -3.50218 -0.837808 0
M  V30 3856 C 360.168 -4.48426 0.351332 0
M  V30 3857 C 361.487 -4.06243 -1.69278 0
M  V30 3858 H 358.606 -0.722337 -0.146283 0
M  V30 3859 H 361.248 -1.87255 0.321799 0
M  V30 3860 H 359.398 -3.60089 -1.45837 0
M  V30 3861 H 361.07 -4.50562 0.989526 0
M  V30 3862 H 359.313 -4.22159 0.998207 0
M  V30 3863 H 359.984 -5.52 0.00655905 0
M  V30 3864 H 362.46 -3.99337 -1.16914 0
M  V30 3865 H 361.336 -5.12581 -1.96346 0
M  V30 3866 H 361.597 -3.53332 -2.65723 0
M  V30 3867 N 360.656 0.0484629 -1.57525 0
M  V30 3868 C 361.586 1.0549 -2.08313 0
M  V30 3869 C 362.567 1.38929 -0.981463 0
M  V30 3870 O 363.752 1.48151 -1.25558 0
M  V30 3871 C 360.882 2.36162 -2.54646 0
M  V30 3872 C 359.836 2.17016 -3.68901 0
M  V30 3873 C 359.162 3.53278 -4.01371 0
M  V30 3874 C 360.462 1.57219 -4.98076 0
M  V30 3875 H 362.156 0.632195 -2.92649 0
M  V30 3876 H 359.702 0.302654 -1.40784 0
M  V30 3877 H 361.655 3.06882 -2.88793 0
M  V30 3878 H 360.379 2.80456 -1.67368 0
M  V30 3879 H 359.038 1.48733 -3.35073 0
M  V30 3880 H 358.686 3.95185 -3.11188 0
M  V30 3881 H 358.386 3.41299 -4.78318 0
M  V30 3882 H 359.91 4.25391 -4.38035 0
M  V30 3883 H 361.324 2.17832 -5.30304 0
M  V30 3884 H 359.721 1.55871 -5.79503 0
M  V30 3885 H 360.791 0.535956 -4.81929 0
M  V30 3886 N 362.134 1.5431 0.320358 0
M  V30 3887 C 363.097 1.83195 1.3774 0
M  V30 3888 C 364.097 0.703906 1.44575 0
M  V30 3889 O 365.287 0.972214 1.44546 0
M  V30 3890 C 362.419 1.99487 2.76438 0
M  V30 3891 H 363.612 2.77642 1.1338 0
M  V30 3892 H 361.165 1.46076 0.556012 0
M  V30 3893 H 361.9 1.07262 3.06048 0
M  V30 3894 H 361.685 2.81575 2.7287 0
M  V30 3895 H 363.175 2.23271 3.52902 0
M  V30 3896 N 363.613 -0.582584 1.46437 0
M  V30 3897 C 364.546 -1.70633 1.51524 0
M  V30 3898 C 365.524 -1.58349 0.369351 0
M  V30 3899 O 366.708 -1.79563 0.573516 0
M  V30 3900 C 363.835 -3.08687 1.39392 0
M  V30 3901 C 362.881 -3.3949 2.58164 0
M  V30 3902 S 363.714 -3.31548 4.20519 0
M  V30 3903 C 364.87 -4.72139 4.10896 0
M  V30 3904 H 365.103 -1.66058 2.46601 0
M  V30 3905 H 362.636 -0.761337 1.34324 0
M  V30 3906 H 364.594 -3.8833 1.33079 0
M  V30 3907 H 363.255 -3.10751 0.457436 0
M  V30 3908 H 362.448 -4.40071 2.45669 0
M  V30 3909 H 362.05 -2.67415 2.61468 0
M  V30 3910 H 364.342 -5.62527 3.77584 0
M  V30 3911 H 365.285 -4.89692 5.11476 0
M  V30 3912 H 365.693 -4.48995 3.42146 0
M  V30 3913 N 365.091 -1.34144 -0.827227 0
M  V30 3914 C 366.502 -1.23557 -1.39966 0
M  V30 3915 C 366.853 0.140731 -1.95695 0
M  V30 3916 O 365.978 1.04087 -1.89723 0
M  V30 3917 C 366.573 -2.23708 -2.54441 0
M  V30 3918 C 365.132 -2.16924 -3.07605 0
M  V30 3919 C 364.279 -2.10549 -1.80456 0
M  V30 3920 H 367.23 -1.45573 -0.631991 0
M  V30 3921 H 367.251 -1.85157 -3.32411 0
M  V30 3922 H 366.763 -3.23866 -2.13851 0
M  V30 3923 H 364.864 -1.20107 -3.52711 0
M  V30 3924 H 364.977 -3.07988 -3.66988 0
M  V30 3925 H 363.341 -1.56203 -2.01178 0
M  V30 3926 H 364.124 -3.12535 -1.42046 0
M  V30 3927 N 366.569 1.04691 -1.17803 0
M  V30 3928 C 367.799 1.81183 -0.992788 0
M  V30 3929 C 368.207 1.8347 0.462098 0
M  V30 3930 O 367.55 1.2643 1.33271 0
M  V30 3931 C 367.612 3.28363 -1.46349 0
M  V30 3932 C 367.276 3.49749 -2.94151 0
M  V30 3933 C 368.273 3.41456 -3.92051 0
M  V30 3934 C 365.958 3.76548 -3.32441 0
M  V30 3935 C 367.952 3.59656 -5.26238 0
M  V30 3936 C 365.639 3.94396 -4.66792 0
M  V30 3937 C 366.637 3.8595 -5.635 0
M  V30 3938 O 366.325 4.03294 -6.9542 0
M  V30 3939 H 366.057 0.577622 -0.351182 0
M  V30 3940 H 368.611 1.32876 -1.5663 0
M  V30 3941 H 366.841 3.77609 -0.833574 0
M  V30 3942 H 368.53 3.86395 -1.24313 0
M  V30 3943 H 369.296 3.20723 -3.63815 0
M  V30 3944 H 365.175 3.82224 -2.57732 0
M  V30 3945 H 368.719 3.52979 -6.01707 0
M  V30 3946 H 364.616 4.14622 -4.94731 0
M  V30 3947 H 365.384 4.2049 -7.02232 0
M  V30 3948 N 368.047 0.979072 1.23499 0
M  V30 3949 C 369.324 0.563674 1.87302 0
M  V30 3950 C 369.704 -0.959199 1.88049 0
M  V30 3951 O 369.052 -1.83535 1.36114 0
M  V30 3952 C 369.262 1.16822 3.28867 0
M  V30 3953 C 370.61 1.26014 4.0547 0
M  V30 3954 O 371.634 1.12158 3.38082 0
M  V30 3955 O 370.493 1.48044 5.26066 0
M  V30 3956 H 367.587 0.189602 0.804972 0
M  V30 3957 H 370.133 1.07407 1.31384 0
M  V30 3958 H 368.905 2.21049 3.22883 0
M  V30 3959 H 368.528 0.642564 3.92373 0
M  V30 3960 N 369.525 -1.3858 0.750561 0
M  V30 3961 C 370.753 -2.04471 0.316098 0
M  V30 3962 C 371.168 -1.56606 -1.05452 0
M  V30 3963 O 370.525 -0.737784 -1.66922 0
M  V30 3964 C 370.576 -3.60025 0.326275 0
M  V30 3965 O 370.297 -4.06133 1.6428 0
M  V30 3966 C 371.798 -4.43131 -0.122429 0
M  V30 3967 H 369.018 -0.65717 0.135528 0
M  V30 3968 H 371.562 -1.77329 1.01857 0
M  V30 3969 H 369.717 -3.86014 -0.327431 0
M  V30 3970 H 370.131 -5.00547 1.56693 0
M  V30 3971 H 371.605 -5.51963 -0.0641473 0
M  V30 3972 H 372.082 -4.23333 -1.16988 0
M  V30 3973 H 372.688 -4.22323 0.50229 0
M  V30 3974 N 371.003 -0.499398 -1.49478 0
M  V30 3975 C 372.414 -0.051215 -1.8663 0
M  V30 3976 C 372.765 1.36238 -1.41186 0
M  V30 3977 O 371.89 2.01502 -0.789051 0
M  V30 3978 C 372.485 -0.0861651 -3.3869 0
M  V30 3979 C 371.044 0.30667 -3.75149 0
M  V30 3980 C 370.191 -0.459397 -2.73468 0
M  V30 3981 H 373.142 -0.712264 -1.41818 0
M  V30 3982 H 373.163 0.709507 -3.73826 0
M  V30 3983 H 372.675 -1.11512 -3.71735 0
M  V30 3984 H 370.776 1.33892 -3.47712 0
M  V30 3985 H 370.889 -0.0116669 -4.79099 0
M  V30 3986 H 369.253 0.0905645 -2.54539 0
M  V30 3987 H 370.036 -1.4884 -3.09357 0
M  V30 3988 N 372.481 1.55866 -0.233164 0
M  V30 3989 C 373.727 1.98897 0.395959 0
M  V30 3990 C 374.06 1.12091 1.58585 0
M  V30 3991 O 373.335 0.181182 1.93654 0
M  V30 3992 C 373.618 3.50658 0.819224 0
M  V30 3993 C 373.471 4.48233 -0.375109 0
M  V30 3994 C 374.79 4.07135 1.67121 0
M  V30 3995 H 371.909 0.723102 0.142451 0
M  V30 3996 H 374.551 1.87082 -0.331725 0
M  V30 3997 H 372.701 3.60857 1.43925 0
M  V30 3998 H 374.373 4.50031 -1.01341 0
M  V30 3999 H 372.616 4.21624 -1.02058 0
M  V30 4000 H 373.287 5.51988 -0.0358328 0
M  V30 4001 H 375.763 3.99952 1.14795 0
M  V30 4002 H 374.639 5.13615 1.93625 0
M  V30 4003 H 374.9 3.54736 2.63846 0
M  V30 4004 N 373.959 -0.0401083 1.57549 0
M  V30 4005 C 375.37 -0.588097 1.77196 0
M  V30 4006 C 375.721 -1.76209 0.862832 0
M  V30 4007 O 374.846 -2.16331 0.0548389 0
M  V30 4008 C 375.441 -1.07363 3.21339 0
M  V30 4009 C 374 -1.56723 3.42221 0
M  V30 4010 C 373.147 -0.50041 2.72747 0
M  V30 4011 H 376.098 0.186119 1.57605 0
M  V30 4012 H 376.119 -1.94143 3.27244 0
M  V30 4013 H 375.631 -0.218975 3.87482 0
M  V30 4014 H 373.732 -2.4441 2.81237 0
M  V30 4015 H 373.845 -1.62234 4.50796 0
M  V30 4016 H 372.209 -0.952894 2.36203 0
M  V30 4017 H 372.992 0.344599 3.41566 0
M  V30 4018 N 375.437 -1.54477 -0.31217 0
M  V30 4019 C 376.685 -1.72884 -1.04668 0
M  V30 4020 C 377.006 -0.511477 -1.88173 0
M  V30 4021 O 376.276 0.474407 -1.90069 0
M  V30 4022 H 374.856 -0.637461 -0.389425 0
M  V30 4023 H 377.518 -1.91807 -0.345852 0
M  V30 4024 H 376.614 -2.61334 -1.70619 0
M  V30 4025 N 376.915 0.57481 -1.46744 0
M  V30 4026 C 378.145 1.35659 -1.55821 0
M  V30 4027 C 378.553 1.88129 -0.201036 0
M  V30 4028 O 377.896 1.64723 0.813134 0
M  V30 4029 C 377.958 2.57473 -2.50894 0
M  V30 4030 C 377.622 2.26415 -3.9697 0
M  V30 4031 C 378.619 1.84771 -4.85958 0
M  V30 4032 C 376.304 2.38316 -4.42166 0
M  V30 4033 C 378.298 1.55434 -6.18158 0
M  V30 4034 C 375.985 2.08591 -5.74398 0
M  V30 4035 C 376.983 1.67216 -6.62214 0
M  V30 4036 O 376.671 1.37859 -7.91991 0
M  V30 4037 H 376.403 0.420496 -0.529301 0
M  V30 4038 H 378.957 0.704967 -1.92923 0
M  V30 4039 H 377.187 3.25468 -2.08824 0
M  V30 4040 H 378.876 3.19546 -2.50291 0
M  V30 4041 H 379.642 1.75085 -4.52295 0
M  V30 4042 H 375.521 2.69483 -3.74032 0
M  V30 4043 H 379.065 1.23065 -6.86659 0
M  V30 4044 H 374.962 2.17905 -6.07608 0
M  V30 4045 H 375.73 1.51638 -8.04331 0
M  V30 4046 N 378.394 1.34581 0.820102 0
M  V30 4047 C 379.341 1.2639 1.93117 0
M  V30 4048 C 380.311 0.138554 1.65521 0
M  V30 4049 O 381.496 0.320004 1.88097 0
M  V30 4050 C 378.636 1.02812 3.29429 0
M  V30 4051 C 377.749 2.24146 3.693 0
M  V30 4052 C 376.884 1.93829 4.94574 0
M  V30 4053 C 375.923 3.1129 5.27034 0
M  V30 4054 N 375.06 2.80838 6.43486 0
M  V30 4055 H 379.9 2.21408 1.99455 0
M  V30 4056 H 377.437 1.10077 0.975784 0
M  V30 4057 H 379.395 0.871788 4.0799 0
M  V30 4058 H 378.025 0.114612 3.22596 0
M  V30 4059 H 377.077 2.50691 2.86109 0
M  V30 4060 H 378.389 3.11899 3.89257 0
M  V30 4061 H 377.543 1.74948 5.80929 0
M  V30 4062 H 376.282 1.03341 4.76626 0
M  V30 4063 H 375.287 3.30764 4.39175 0
M  V30 4064 H 376.512 4.02561 5.4692 0
M  V30 4065 H 374.458 1.92929 6.26988 0
M  V30 4066 H 374.375 3.62123 6.63629 0
M  V30 4067 H 375.643 2.65467 7.32903 0
M  V30 4068 N 379.872 -1.04064 1.18357 0
M  V30 4069 C 380.82 -2.14187 0.907007 0
M  V30 4070 C 381.814 -1.68879 -0.132725 0
M  V30 4071 O 383.02 -1.79993 0.0154248 0
M  V30 4072 H 379.395 -0.699585 0.275835 0
M  V30 4073 H 381.366 -2.34711 1.84264 0
M  V30 4074 C 380.115 -3.44785 0.449254 0
M  V30 4075 H 379.438 -3.80058 1.24081 0
M  V30 4076 H 380.878 -4.22974 0.294737 0
M  V30 4077 C 379.337 -3.26391 -0.834909 0
M  V30 4078 O 379.867 -3.53973 -1.89911 0
M  V30 4079 N 378.073 -2.79726 -0.787523 0
M  V30 4080 H 377.62 -2.5748 0.0787347 0
M  V30 4081 H 377.578 -2.67798 -1.64716 0
M  V30 4082 N 381.35 -0.985608 -1.22978 0
M  V30 4083 C 382.298 -0.522631 -2.26652 0
M  V30 4084 C 383.292 0.422998 -1.64034 0
M  V30 4085 O 384.498 0.296319 -1.77544 0
M  V30 4086 H 380.873 -0.150597 -0.736766 0
M  V30 4087 H 382.844 -1.40863 -2.63059 0
M  V30 4088 C 381.593 0.154238 -3.47358 0
M  V30 4089 H 380.916 -0.564329 -3.95797 0
M  V30 4090 H 382.356 0.441744 -4.21693 0
M  V30 4091 C 380.815 1.38719 -3.07016 0
M  V30 4092 O 381.345 2.48307 -3.15764 0
M  V30 4093 N 379.551 1.25975 -2.61875 0
M  V30 4094 H 379.098 0.368068 -2.54957 0
M  V30 4095 H 379.056 2.08578 -2.3525 0
M  V30 4096 N 382.828 1.3818 -0.7579 0
M  V30 4097 C 384.056 2.04301 -0.326937 0
M  V30 4098 C 384.471 1.57163 1.0462 0
M  V30 4099 O 383.828 0.746626 1.66529 0
M  V30 4100 C 383.879 3.59846 -0.345363 0
M  V30 4101 O 383.6 4.05256 -1.66432 0
M  V30 4102 C 385.101 4.4319 0.098927 0
M  V30 4103 H 382.321 0.656443 -0.139012 0
M  V30 4104 H 384.865 1.76786 -1.02796 0
M  V30 4105 H 383.02 3.86182 0.306955 0
M  V30 4106 H 383.434 4.99709 -1.59345 0
M  V30 4107 H 384.908 5.51989 0.0348745 0
M  V30 4108 H 385.385 4.23947 1.14741 0
M  V30 4109 H 385.991 4.22051 -0.52468 0
M  V30 4110 N 384.306 0.507319 1.49211 0
M  V30 4111 C 385.552 -0.0350047 2.0277 0
M  V30 4112 C 385.885 -1.3606 1.38569 0
M  V30 4113 O 385.16 -1.87321 0.523542 0
M  V30 4114 C 385.443 -0.180916 3.59645 0
M  V30 4115 C 385.296 1.16825 4.34364 0
M  V30 4116 C 386.615 -0.918558 4.30407 0
M  V30 4117 H 383.734 -0.0112473 0.736914 0
M  V30 4118 H 386.376 0.659956 1.7817 0
M  V30 4119 H 384.526 -0.772826 3.80736 0
M  V30 4120 H 386.198 1.79952 4.24753 0
M  V30 4121 H 384.441 1.75594 3.96673 0
M  V30 4122 H 385.112 1.01939 5.42506 0
M  V30 4123 H 387.588 -0.41649 4.1401 0
M  V30 4124 H 386.464 -0.989505 5.39907 0
M  V30 4125 H 386.725 -1.96373 3.96093 0
M  V30 4126 N 385.784 -1.5574 0.241426 0
M  V30 4127 C 386.732 -2.22538 -0.676718 0
M  V30 4128 C 387.726 -1.21117 -1.18436 0
M  V30 4129 O 388.932 -1.39144 -1.14188 0
M  V30 4130 H 385.307 -0.713776 -0.236701 0
M  V30 4131 H 387.278 -2.98264 -0.0901187 0
M  V30 4132 C 386.027 -2.93439 -1.86518 0
M  V30 4133 H 385.35 -3.7125 -1.4837 0
M  V30 4134 H 386.79 -3.43549 -2.48495 0
M  V30 4135 C 385.249 -1.97008 -2.73294 0
M  V30 4136 O 385.779 -1.49965 -3.72657 0
M  V30 4137 N 383.985 -1.64227 -2.39745 0
M  V30 4138 H 383.532 -2.02677 -1.58996 0
M  V30 4139 H 383.49 -0.999708 -2.98083 0
M  V30 4140 N 387.262 0.0317525 -1.57568 0
M  V30 4141 C 388.49 0.734949 -1.93407 0
M  V30 4142 C 388.905 1.69036 -0.84096 0
M  V30 4143 O 388.262 1.81582 0.182836 0
M  V30 4144 C 388.313 1.49432 -3.29169 0
M  V30 4145 O 388.034 0.577261 -4.3428 0
M  V30 4146 C 389.535 2.29492 -3.79273 0
M  V30 4147 H 386.755 0.206706 -0.638368 0
M  V30 4148 H 389.299 -0.00992046 -2.04498 0
M  V30 4149 H 387.454 2.1911 -3.19483 0
M  V30 4150 H 387.868 1.10952 -5.1263 0
M  V30 4151 H 389.342 2.78172 -4.76785 0
M  V30 4152 H 389.819 3.10794 -3.10328 0
M  V30 4153 H 390.425 1.64894 -3.92033 0
M  V30 4154 N 388.74 1.54641 0.303973 0
M  V30 4155 C 389.673 1.80263 1.3993 0
M  V30 4156 C 390.651 0.653657 1.48883 0
M  V30 4157 O 391.835 0.893284 1.6599 0
M  V30 4158 C 388.962 1.9367 2.77866 0
M  V30 4159 C 388.008 3.16078 2.86351 0
M  V30 4160 S 388.841 4.74219 2.4875 0
M  V30 4161 C 389.997 4.90558 3.88721 0
M  V30 4162 H 390.23 2.72886 1.17986 0
M  V30 4163 H 387.763 1.46014 0.501918 0
M  V30 4164 H 389.721 2.0208 3.57315 0
M  V30 4165 H 388.382 1.01991 2.9708 0
M  V30 4166 H 387.575 3.22252 3.87517 0
M  V30 4167 H 387.177 3.06099 2.14893 0
M  V30 4168 H 389.469 4.74398 4.83687 0
M  V30 4169 H 390.412 5.92651 3.87518 0
M  V30 4170 H 390.82 4.18728 3.78585 0
M  V30 4171 N 390.218 -0.567019 1.47046 0
M  V30 4172 C 391.634 -0.891975 1.32348 0
M  V30 4173 C 391.834 -1.99154 0.306616 0
M  V30 4174 O 390.89 -2.50883 -0.28532 0
M  V30 4175 C 392.203 -1.29449 2.7141 0
M  V30 4176 C 393.751 -1.40646 2.79621 0
M  V30 4177 C 394.226 -1.84257 4.19301 0
M  V30 4178 N 395.717 -1.91424 4.21795 0
M  V30 4179 C 396.452 -2.26476 5.26779 0
M  V30 4180 N 395.948 -2.60211 6.42077 0
M  V30 4181 N 397.741 -2.27166 5.14152 0
M  V30 4182 H 389.892 0.159074 2.11803 0
M  V30 4183 H 392.155 0.00849752 0.947962 0
M  V30 4184 H 391.861 -0.560448 3.47206 0
M  V30 4185 H 391.735 -2.25273 3.02542 0
M  V30 4186 H 394.122 -2.13133 2.04104 0
M  V30 4187 H 394.203 -0.430339 2.52154 0
M  V30 4188 H 393.847 -1.12343 4.95319 0
M  V30 4189 H 393.777 -2.82855 4.44185 0
M  V30 4190 H 396.268 -1.6778 3.38612 0
M  V30 4191 H 396.581 -2.85956 7.17948 0
M  V30 4192 H 394.926 -2.57813 6.45413 0
M  V30 4193 H 398.117 -2.00244 4.23107 0
M  V30 4194 H 398.29 -2.54154 5.96079 0
M  V30 4195 N 391.696 -1.35014 -0.812953 0
M  V30 4196 C 392.626 -1.30069 -1.93919 0
M  V30 4197 C 393.607 -0.176275 -1.69184 0
M  V30 4198 O 394.792 -0.370227 -1.90638 0
M  V30 4199 C 391.922 -1.06547 -3.30552 0
M  V30 4200 C 390.876 -2.15561 -3.69753 0
M  V30 4201 C 390.202 -1.77214 -5.04479 0
M  V30 4202 C 391.502 -3.57476 -3.808 0
M  V30 4203 H 393.196 -2.24303 -1.98314 0
M  V30 4204 H 390.742 -1.07977 -0.952736 0
M  V30 4205 H 392.695 -1.01729 -4.08937 0
M  V30 4206 H 391.419 -0.0875719 -3.26483 0
M  V30 4207 H 390.078 -2.19466 -2.9365 0
M  V30 4208 H 389.726 -0.780589 -4.96906 0
M  V30 4209 H 389.426 -2.50184 -5.31678 0
M  V30 4210 H 390.95 -1.7391 -5.8531 0
M  V30 4211 H 392.364 -3.55929 -4.4943 0
M  V30 4212 H 390.761 -4.29152 -4.19462 0
M  V30 4213 H 391.831 -3.94091 -2.82525 0
M  V30 4214 N 393.175 1.03435 -1.18907 0
M  V30 4215 C 394.421 1.7713 -0.99982 0
M  V30 4216 C 394.776 1.86695 0.465049 0
M  V30 4217 O 394.069 1.36866 1.34083 0
M  V30 4218 C 394.263 3.19792 -1.59586 0
M  V30 4219 C 394.092 3.24134 -3.11717 0
M  V30 4220 C 392.862 3.32398 -3.80578 0
M  V30 4221 C 395.06 3.11625 -4.09138 0
M  V30 4222 N 393.042 3.26055 -5.20155 0
M  V30 4223 C 394.413 3.12855 -5.35277 0
M  V30 4224 C 396.468 2.95713 -4.00572 0
M  V30 4225 C 395.171 2.99805 -6.53842 0
M  V30 4226 C 397.197 2.84011 -5.1874 0
M  V30 4227 C 396.559 2.8589 -6.43775 0
M  V30 4228 H 392.658 0.659683 -0.419931 0
M  V30 4229 H 395.242 1.2317 -1.50789 0
M  V30 4230 H 393.413 3.72085 -1.11389 0
M  V30 4231 H 395.145 3.81819 -1.3415 0
M  V30 4232 H 391.9 3.38392 -3.31342 0
M  V30 4233 H 392.324 3.26307 -5.93172 0
M  V30 4234 H 396.966 2.93086 -3.0473 0
M  V30 4235 H 394.684 3.01184 -7.49876 0
M  V30 4236 H 398.27 2.72744 -5.13909 0
M  V30 4237 H 397.15 2.76931 -7.33675 0
M  V30 4238 N 394.653 0.992116 1.22453 0
M  V30 4239 C 395.878 0.685644 1.95739 0
M  V30 4240 C 396.303 -0.743 1.72804 0
M  V30 4241 O 395.661 -1.50778 1.00676 0
M  V30 4242 C 395.709 0.996293 3.46564 0
M  V30 4243 O 394.813 0.0945512 4.12292 0
M  V30 4244 H 394.154 0.256694 0.612376 0
M  V30 4245 H 396.684 1.32888 1.5557 0
M  V30 4246 H 396.694 0.93781 3.97076 0
M  V30 4247 H 395.369 2.03733 3.62582 0
M  V30 4248 H 393.946 0.208451 3.72317 0
M  V30 4249 N 396.131 -1.37776 0.765217 0
M  V30 4250 C 397.094 -2.28686 0.153416 0
M  V30 4251 C 398.094 -1.47727 -0.635081 0
M  V30 4252 O 399.284 -1.68027 -0.459632 0
M  V30 4253 C 396.416 -3.31608 -0.790495 0
M  V30 4254 H 397.609 -2.84297 0.954723 0
M  V30 4255 H 395.162 -1.46932 0.53299 0
M  V30 4256 H 395.897 -2.81109 -1.61705 0
M  V30 4257 H 395.682 -3.9144 -0.227348 0
M  V30 4258 H 397.172 -3.99559 -1.21419 0
M  V30 4259 N 397.609 -0.515225 -1.4894 0
M  V30 4260 C 398.556 0.255567 -2.29381 0
M  V30 4261 C 399.526 0.947387 -1.36432 0
M  V30 4262 O 400.711 0.951288 -1.65394 0
M  V30 4263 C 397.851 1.30551 -3.19453 0
M  V30 4264 C 396.964 0.624029 -4.27469 0
M  V30 4265 C 396.099 1.65563 -5.0474 0
M  V30 4266 C 395.138 0.956802 -6.04576 0
M  V30 4267 N 394.275 1.93326 -6.74959 0
M  V30 4268 H 399.115 -0.436607 -2.94784 0
M  V30 4269 H 396.652 -0.227154 -1.45336 0
M  V30 4270 H 398.61 1.92639 -3.70062 0
M  V30 4271 H 397.24 1.96626 -2.56004 0
M  V30 4272 H 396.292 -0.110459 -3.8024 0
M  V30 4273 H 397.604 0.0746092 -4.98744 0
M  V30 4274 H 396.758 2.35119 -5.59289 0
M  V30 4275 H 395.497 2.23893 -4.3327 0
M  V30 4276 H 394.502 0.247097 -5.49244 0
M  V30 4277 H 395.727 0.379814 -6.78037 0
M  V30 4278 H 393.673 2.50591 -6.06251 0
M  V30 4279 H 393.59 1.43489 -7.42258 0
M  V30 4280 H 394.858 2.62126 -7.34105 0
M  V30 4281 N 399.087 1.5561 -0.249682 0
M  V30 4282 C 400.05 2.20217 0.635394 0
M  V30 4283 C 401.05 1.17227 1.10066 0
M  V30 4284 O 402.24 1.42292 1.00492 0
M  V30 4285 C 399.372 2.84794 1.87363 0
M  V30 4286 H 400.565 2.99814 0.0716752 0
M  V30 4287 H 398.118 1.563 -0.000153234 0
M  V30 4288 H 398.853 2.09142 2.47851 0
M  V30 4289 H 398.638 3.60241 1.5482 0
M  V30 4290 H 400.128 3.3423 2.5036 0
M  V30 4291 N 400.565 -0.0233959 1.57583 0
M  V30 4292 C 401.976 -0.56927 1.77809 0
M  V30 4293 C 402.327 -1.75284 0.881472 0
M  V30 4294 O 401.452 -2.1626 0.0777805 0
M  V30 4295 C 402.047 -1.03949 3.22459 0
M  V30 4296 C 400.606 -1.53084 3.43864 0
M  V30 4297 C 399.753 -0.471454 2.73263 0
M  V30 4298 H 402.704 0.202825 1.57399 0
M  V30 4299 H 402.725 -1.90661 3.29285 0
M  V30 4300 H 402.237 -0.177865 3.87692 0
M  V30 4301 H 400.338 -2.41414 2.83814 0
M  V30 4302 H 400.451 -1.57443 4.52491 0
M  V30 4303 H 398.815 -0.927788 2.37201 0
M  V30 4304 H 399.598 0.380808 3.41181 0
M  V30 4305 N 402.043 -1.548 -0.295768 0
M  V30 4306 C 402.991 -1.86874 -1.38495 0
M  V30 4307 C 403.985 -0.742938 -1.52239 0
M  V30 4308 O 405.191 -0.926999 -1.54294 0
M  V30 4309 H 401.566 -0.592786 -0.462719 0
M  V30 4310 H 403.537 -2.77904 -1.08682 0
M  V30 4311 C 402.286 -2.13732 -2.74252 0
M  V30 4312 H 401.609 -2.99835 -2.64459 0
M  V30 4313 H 403.049 -2.4011 -3.49461 0
M  V30 4314 C 401.508 -0.937539 -3.23592 0
M  V30 4315 O 402.038 -0.160665 -4.01379 0
M  V30 4316 N 400.244 -0.741478 -2.80981 0
M  V30 4317 H 399.791 -1.37489 -2.1784 0
M  V30 4318 H 399.749 0.0597103 -3.14343 0
M  V30 4319 N 403.521 0.559213 -1.47345 0
M  V30 4320 C 404.798 1.31997 -1.44348 0
M  V30 4321 C 405.178 2.1064 -0.139358 0
M  V30 4322 O 404.526 2.1091 0.879153 0
M  V30 4323 C 404.736 2.22618 -2.68779 0
M  V30 4324 C 406.084 2.83701 -3.1591 0
M  V30 4325 O 407.108 2.32921 -2.69493 0
M  V30 4326 O 405.967 3.75993 -3.966 0
M  V30 4327 H 403.061 0.594251 -0.575147 0
M  V30 4328 H 405.607 0.578282 -1.59543 0
M  V30 4329 H 404.379 1.64093 -3.55231 0
M  V30 4330 H 404.002 3.04085 -2.5616 0
M  V30 4331 N 404.999 1.35443 0.805782 0
M  V30 4332 C 406.246 1.28761 1.56291 0
M  V30 4333 C 406.574 -0.137747 1.94012 0
M  V30 4334 O 405.829 -1.1032 1.61642 0
M  V30 4335 C 406.128 2.14045 2.86216 0
M  V30 4336 C 405.794 3.62826 2.67709 0
M  V30 4337 C 404.456 4.0338 2.6237 0
M  V30 4338 C 406.808 4.57227 2.50186 0
M  V30 4339 C 404.136 5.36501 2.37451 0
M  V30 4340 C 406.488 5.90547 2.26797 0
M  V30 4341 C 405.152 6.30245 2.1988 0
M  V30 4342 H 404.422 0.471171 0.571908 0
M  V30 4343 H 407.069 1.67347 0.930974 0
M  V30 4344 H 405.374 1.68342 3.53791 0
M  V30 4345 H 407.071 2.0621 3.43917 0
M  V30 4346 H 403.661 3.30644 2.72713 0
M  V30 4347 H 407.845 4.2678 2.53323 0
M  V30 4348 H 403.101 5.66259 2.30567 0
M  V30 4349 H 407.275 6.63274 2.12228 0
M  V30 4350 H 404.902 7.33328 2.00333 0
M  V30 4351 N 406.477 -1.02803 1.19454 0
M  V30 4352 C 407.424 -2.11099 0.933046 0
M  V30 4353 C 408.394 -1.65571 -0.132447 0
M  V30 4354 O 409.579 -1.90797 0.00987576 0
M  V30 4355 C 406.719 -3.41763 0.478747 0
M  V30 4356 C 405.832 -4.00833 1.6111 0
M  V30 4357 C 404.967 -5.19511 1.10825 0
M  V30 4358 C 404.006 -5.70639 2.21445 0
M  V30 4359 N 403.143 -6.80589 1.72461 0
M  V30 4360 H 407.983 -2.32804 1.86028 0
M  V30 4361 H 405.52 -1.14179 0.927441 0
M  V30 4362 H 407.478 -4.16736 0.196745 0
M  V30 4363 H 406.108 -3.20166 -0.411493 0
M  V30 4364 H 405.16 -3.23066 2.00829 0
M  V30 4365 H 406.472 -4.34794 2.4445 0
M  V30 4366 H 405.626 -6.01645 0.781533 0
M  V30 4367 H 404.365 -4.87086 0.244606 0
M  V30 4368 H 403.37 -4.87116 2.54947 0
M  V30 4369 H 404.595 -6.05102 3.08267 0
M  V30 4370 H 402.541 -6.50016 0.884056 0
M  V30 4371 H 402.458 -7.13681 2.49389 0
M  V30 4372 H 403.726 -7.66317 1.42755 0
M  V30 4373 N 407.956 -0.998596 -1.21925 0
M  V30 4374 C 408.886 -0.573688 -2.26343 0
M  V30 4375 C 409.867 0.402296 -1.65274 0
M  V30 4376 O 411.052 0.291683 -1.91997 0
M  V30 4377 C 408.182 0.106839 -3.47136 0
M  V30 4378 C 407.136 -0.788269 -4.20678 0
M  V30 4379 C 406.462 0.0254927 -5.34694 0
M  V30 4380 C 407.762 -2.08784 -4.78755 0
M  V30 4381 H 409.456 -1.44651 -2.62138 0
M  V30 4382 H 407.002 -0.696975 -1.26009 0
M  V30 4383 H 408.955 0.415531 -4.19346 0
M  V30 4384 H 407.679 1.01424 -3.10452 0
M  V30 4385 H 406.338 -1.08069 -3.50309 0
M  V30 4386 H 405.986 0.933989 -4.94253 0
M  V30 4387 H 405.686 -0.570437 -5.84825 0
M  V30 4388 H 407.21 0.328147 -6.09718 0
M  V30 4389 H 408.624 -1.84272 -5.42878 0
M  V30 4390 H 407.021 -2.63307 -5.39249 0
M  V30 4391 H 408.091 -2.76284 -3.98491 0
M  V30 4392 N 409.434 1.37368 -0.772513 0
M  V30 4393 C 410.366 2.28899 -0.117502 0
M  V30 4394 C 411.379 1.4867 0.663405 0
M  V30 4395 O 412.568 1.71314 0.501372 0
M  V30 4396 C 409.668 3.2788 0.857192 0
M  V30 4397 C 408.841 4.37207 0.129938 0
M  V30 4398 C 407.9 5.16257 1.01811 0
M  V30 4399 O 406.926 5.67159 0.481601 0
M  V30 4400 N 408.128 5.31058 2.3443 0
M  V30 4401 H 410.893 2.85752 -0.903662 0
M  V30 4402 H 408.454 1.49353 -0.62493 0
M  V30 4403 H 410.446 3.77647 1.45482 0
M  V30 4404 H 409.016 2.7179 1.54432 0
M  V30 4405 H 408.236 3.88827 -0.648605 0
M  V30 4406 H 409.524 5.07434 -0.372559 0
M  V30 4407 H 408.922 4.91287 2.80452 0
M  V30 4408 H 407.479 5.84131 2.89197 0
M  V30 4409 N 410.912 0.523116 1.48665 0
M  V30 4410 C 412.189 -0.0775449 1.95446 0
M  V30 4411 C 412.569 -1.5197 1.4652 0
M  V30 4412 O 411.917 -2.17876 0.688657 0
M  V30 4413 C 412.127 0.0326135 3.48985 0
M  V30 4414 C 413.475 -0.130141 4.24401 0
M  V30 4415 O 414.499 -0.0415142 3.56176 0
M  V30 4416 O 413.358 -0.31491 5.45592 0
M  V30 4417 H 410.452 -0.0831012 0.822814 0
M  V30 4418 H 412.998 0.587227 1.59216 0
M  V30 4419 H 411.77 1.03748 3.77296 0
M  V30 4420 H 411.393 -0.671317 3.91892 0
M  V30 4421 N 412.39 -1.55475 0.257931 0
M  V30 4422 C 413.637 -1.99207 -0.363728 0
M  V30 4423 C 413.965 -1.1462 -1.57139 0
M  V30 4424 O 413.22 -0.199653 -1.94679 0
M  V30 4425 C 413.519 -3.48183 -0.806433 0
M  V30 4426 C 413.185 -4.49936 0.294684 0
M  V30 4427 C 411.847 -4.77481 0.597076 0
M  V30 4428 C 414.199 -5.10769 1.03751 0
M  V30 4429 C 411.527 -5.63132 1.64618 0
M  V30 4430 C 413.879 -5.97558 2.07622 0
M  V30 4431 C 412.543 -6.23432 2.38514 0
M  V30 4432 H 411.813 -0.728949 -0.133097 0
M  V30 4433 H 414.46 -1.8793 0.368059 0
M  V30 4434 H 412.765 -3.56848 -1.61761 0
M  V30 4435 H 414.462 -3.79415 -1.29789 0
M  V30 4436 H 411.052 -4.28572 0.0488649 0
M  V30 4437 H 415.236 -4.89527 0.817149 0
M  V30 4438 H 410.492 -5.8143 1.89074 0
M  V30 4439 H 414.666 -6.43735 2.65666 0
M  V30 4440 H 412.293 -6.89594 3.19943 0
M  V30 4441 N 413.868 0.0150385 -1.57593 0
M  V30 4442 C 414.816 1.02958 -2.08572 0
M  V30 4443 C 415.81 1.36554 -1.00246 0
M  V30 4444 O 417.016 1.35295 -1.18724 0
M  V30 4445 H 413.391 0.349619 -0.665786 0
M  V30 4446 H 415.362 0.573932 -2.92829 0
M  V30 4447 C 414.111 2.31752 -2.59203 0
M  V30 4448 H 413.434 2.06765 -3.42182 0
M  V30 4449 H 414.874 3.01053 -2.98568 0
M  V30 4450 C 413.333 3.01692 -1.49945 0
M  V30 4451 O 413.863 3.92083 -0.873704 0
M  V30 4452 N 412.069 2.6326 -1.23056 0
M  V30 4453 H 411.616 1.89838 -1.74125 0
M  V30 4454 H 411.574 3.10372 -0.501685 0
M  V30 4455 N 415.346 1.54954 0.287554 0
M  V30 4456 C 416.592 1.75132 1.02257 0
M  V30 4457 C 416.925 0.542858 1.86458 0
M  V30 4458 O 416.2 -0.459856 1.88986 0
M  V30 4459 C 416.483 3.04812 1.91733 0
M  V30 4460 C 416.336 4.35985 1.10622 0
M  V30 4461 C 417.655 3.30438 2.90687 0
M  V30 4462 H 414.774 0.637194 0.370341 0
M  V30 4463 H 417.416 1.87678 0.296111 0
M  V30 4464 H 415.566 2.94247 2.53675 0
M  V30 4465 H 417.238 4.58487 0.508636 0
M  V30 4466 H 415.481 4.31865 0.409271 0
M  V30 4467 H 416.152 5.23017 1.76513 0
M  V30 4468 H 418.628 3.40701 2.38877 0
M  V30 4469 H 417.504 4.22467 3.50447 0
M  V30 4470 H 417.765 2.49377 3.65053 0
M  V30 4471 N 416.824 -0.551391 1.4764 0
M  V30 4472 C 418.072 -1.30572 1.54258 0
M  V30 4473 C 418.393 -1.93877 0.208963 0
M  V30 4474 O 417.663 -1.80234 -0.767619 0
M  V30 4475 H 416.243 -0.484894 0.568231 0
M  V30 4476 H 418.905 -0.643402 1.83974 0
M  V30 4477 H 418.001 -2.09621 2.31226 0
M  V30 4478 N 418.302 -1.35869 -0.798587 0
M  V30 4479 C 419.579 -1.20145 -1.54352 0
M  V30 4480 C 419.959 0.216161 -2.0999 0
M  V30 4481 O 419.307 1.22068 -1.93162 0
M  V30 4482 C 419.517 -2.27602 -2.64572 0
M  V30 4483 C 420.865 -2.63811 -3.32699 0
M  V30 4484 O 421.889 -2.26576 -2.74849 0
M  V30 4485 O 420.748 -3.27866 -4.37226 0
M  V30 4486 H 417.842 -0.467248 -0.682355 0
M  V30 4487 H 420.388 -1.47574 -0.837859 0
M  V30 4488 H 419.16 -3.2265 -2.21388 0
M  V30 4489 H 418.783 -2.01488 -3.42766 0
M  V30 4490 N 419.78 1.02168 -1.19998 0
M  V30 4491 C 421.01 1.79036 -1.031 0
M  V30 4492 C 421.418 1.84409 0.423078 0
M  V30 4493 O 420.761 1.29228 1.30559 0
M  V30 4494 C 420.823 3.25185 -1.53281 0
M  V30 4495 C 420.487 3.43431 -3.01503 0
M  V30 4496 C 421.484 3.33063 -3.99206 0
M  V30 4497 C 419.169 3.69412 -3.40353 0
M  V30 4498 C 421.163 3.48413 -5.33748 0
M  V30 4499 C 418.85 3.84406 -4.75053 0
M  V30 4500 C 419.848 3.7391 -5.71559 0
M  V30 4501 O 419.536 3.88452 -7.03818 0
M  V30 4502 H 419.268 0.570043 -0.363355 0
M  V30 4503 H 421.822 1.29524 -1.59414 0
M  V30 4504 H 420.052 3.75756 -0.913483 0
M  V30 4505 H 421.741 3.83671 -1.32481 0
M  V30 4506 H 422.507 3.12934 -3.70537 0
M  V30 4507 H 418.386 3.76671 -2.65782 0
M  V30 4508 H 421.93 3.40137 -6.09059 0
M  V30 4509 H 417.827 4.04035 -5.03415 0
M  V30 4510 H 418.595 4.055 -7.10993 0
M  V30 4511 N 421.258 1.00505 1.21394 0
M  V30 4512 C 422.507 0.683159 1.89778 0
M  V30 4513 C 422.82 -0.789471 1.7896 0
M  V30 4514 O 424.026 -1.22344 2.42372 0
M  V30 4515 C 422.482 1.17146 3.40301 0
M  V30 4516 C 422.09 2.67017 3.5973 0
M  V30 4517 C 423.834 0.924461 4.14311 0
M  V30 4518 C 421.741 3.09387 5.04017 0
M  V30 4519 H 420.671 0.25183 0.710702 0
M  V30 4520 H 423.322 1.21622 1.37406 0
M  V30 4521 H 421.704 0.566451 3.91928 0
M  V30 4522 H 422.878 3.32968 3.18542 0
M  V30 4523 H 421.193 2.89732 2.99073 0
M  V30 4524 H 423.79 1.21658 5.20676 0
M  V30 4525 H 424.133 -0.139286 4.16067 0
M  V30 4526 H 424.666 1.49226 3.6875 0
M  V30 4527 H 421.405 4.14989 5.07409 0
M  V30 4528 H 420.925 2.48149 5.46061 0
M  V30 4529 H 422.604 3.01371 5.72525 0
M  V30 4530 N 422.737 -1.36956 0.779787 0
M  V30 4531 C 423.647 -2.33965 0.172491 0
M  V30 4532 C 424.663 -1.60574 -0.670222 0
M  V30 4533 O 425.839 -1.92617 -0.588263 0
M  V30 4534 C 422.904 -3.39761 -0.690173 0
M  V30 4535 C 421.965 -4.28964 0.169924 0
M  V30 4536 C 421.198 -5.29707 -0.651662 0
M  V30 4537 O 421.421 -5.38238 -1.88827 0
M  V30 4538 O 420.355 -6.01873 -0.0566264 0
M  V30 4539 H 424.181 -2.87647 0.974321 0
M  V30 4540 H 421.766 -1.39258 0.541078 0
M  V30 4541 H 423.648 -4.04471 -1.1824 0
M  V30 4542 H 422.323 -2.88394 -1.47006 0
M  V30 4543 H 421.23 -3.67326 0.708696 0
M  V30 4544 H 422.563 -4.83656 0.913085 0
M  V30 4545 N 424.215 -0.530993 -1.48385 0
M  V30 4546 C 425.178 0.220497 -2.28137 0
M  V30 4547 C 426.178 0.866851 -1.35434 0
M  V30 4548 O 427.368 0.726746 -1.58316 0
M  V30 4549 C 424.5 1.31921 -3.1434 0
M  V30 4550 H 425.693 -0.479714 -2.96038 0
M  V30 4551 H 423.246 -0.286968 -1.53643 0
M  V30 4552 H 423.981 2.05264 -2.51072 0
M  V30 4553 H 423.766 0.86085 -3.82533 0
M  V30 4554 H 425.256 1.84776 -3.74497 0
M  V30 4555 N 425.693 1.55336 -0.266172 0
M  V30 4556 C 426.939 1.99692 0.353681 0
M  V30 4557 C 427.272 1.1543 1.56172 0
M  V30 4558 O 426.547 0.222218 1.93226 0
M  V30 4559 C 426.83 3.52316 0.74466 0
M  V30 4560 C 426.683 4.47337 -0.470101 0
M  V30 4561 C 428.002 4.10588 1.58447 0
M  V30 4562 H 425.121 0.725961 0.12708 0
M  V30 4563 H 427.763 1.86336 -0.371333 0
M  V30 4564 H 425.913 3.63829 1.36239 0
M  V30 4565 H 427.585 4.4778 -1.10864 0
M  V30 4566 H 425.828 4.19364 -1.10978 0
M  V30 4567 H 426.499 5.51788 -0.15291 0
M  V30 4568 H 428.975 4.02297 1.06286 0
M  V30 4569 H 427.851 5.17607 1.82686 0
M  V30 4570 H 428.112 3.60253 2.56262 0
M  V30 4571 N 427.171 -0.0066808 1.57599 0
M  V30 4572 C 428.101 -0.999296 2.11036 0
M  V30 4573 C 429.082 -1.36278 1.01795 0
M  V30 4574 O 430.267 -1.4477 1.29442 0
M  V30 4575 C 427.397 -2.29328 2.60818 0
M  V30 4576 C 426.351 -2.07159 3.74525 0
M  V30 4577 C 425.677 -3.42512 4.10596 0
M  V30 4578 C 426.977 -1.43959 5.02069 0
M  V30 4579 H 428.671 -0.554382 2.94223 0
M  V30 4580 H 426.217 -0.265221 1.41536 0
M  V30 4581 H 428.17 -2.99117 2.96828 0
M  V30 4582 H 426.894 -2.7592 1.74745 0
M  V30 4583 H 425.553 -1.39797 3.38899 0
M  V30 4584 H 425.201 -3.86795 3.21556 0
M  V30 4585 H 424.901 -3.28498 4.87199 0
M  V30 4586 H 426.425 -4.13628 4.4916 0
M  V30 4587 H 427.839 -2.03696 5.35893 0
M  V30 4588 H 426.236 -1.40452 5.83432 0
M  V30 4589 H 427.306 -0.407992 4.83181 0
M  V30 4590 N 428.649 -1.55105 -0.279332 0
M  V30 4591 C 429.926 -1.66119 -1.03267 0
M  V30 4592 C 430.306 -0.523525 -2.04505 0
M  V30 4593 O 429.654 0.477194 -2.23462 0
M  V30 4594 C 429.864 -3.05067 -1.69515 0
M  V30 4595 C 431.212 -3.62606 -2.20912 0
M  V30 4596 O 432.236 -3.07659 -1.79512 0
M  V30 4597 O 431.095 -4.58861 -2.96831 0
M  V30 4598 H 428.189 -0.674429 -0.478618 0
M  V30 4599 H 430.735 -1.67446 -0.275694 0
M  V30 4600 H 429.507 -3.79311 -0.9612 0
M  V30 4601 H 429.13 -3.07611 -2.51915 0
M  V30 4602 N 430.127 0.543554 -1.4793 0
M  V30 4603 C 431.543 0.870806 -1.3375 0
M  V30 4604 C 431.743 1.9864 -0.338261 0
M  V30 4605 O 430.799 2.51305 0.245371 0
M  V30 4606 C 432.112 1.25114 -2.73435 0
M  V30 4607 C 433.66 1.3618 -2.81823 0
M  V30 4608 C 434.135 1.77563 -4.22179 0
M  V30 4609 N 435.626 1.8469 -4.24787 0
M  V30 4610 C 436.361 2.18067 -5.30315 0
M  V30 4611 N 435.857 2.49963 -6.46135 0
M  V30 4612 N 437.65 2.18958 -5.17701 0
M  V30 4613 H 429.801 -0.19275 -2.11524 0
M  V30 4614 H 432.064 -0.0235777 -0.947707 0
M  V30 4615 H 431.77 0.50514 -3.48053 0
M  V30 4616 H 431.644 2.20431 -3.06088 0
M  V30 4617 H 434.031 2.09859 -2.07468 0
M  V30 4618 H 434.112 0.390169 -2.52807 0
M  V30 4619 H 433.756 1.04449 -4.97044 0
M  V30 4620 H 433.686 2.75753 -4.48629 0
M  V30 4621 H 436.177 1.62372 -3.41239 0
M  V30 4622 H 436.49 2.74497 -7.22406 0
M  V30 4623 H 434.835 2.47513 -6.49432 0
M  V30 4624 H 438.026 1.93488 -4.2624 0
M  V30 4625 H 438.199 2.44639 -6.00047 0
M  V30 4626 N 431.605 1.3629 0.791371 0
M  V30 4627 C 432.553 1.30514 1.92533 0
M  V30 4628 C 433.547 0.197285 1.68247 0
M  V30 4629 O 434.753 0.364176 1.76278 0
M  V30 4630 H 431.128 0.406263 0.632815 0
M  V30 4631 H 433.099 2.26282 1.94523 0
M  V30 4632 C 431.848 1.10933 3.29529 0
M  V30 4633 H 431.171 1.95427 3.48781 0
M  V30 4634 H 432.611 1.10937 4.0923 0
M  V30 4635 C 431.07 -0.186123 3.36385 0
M  V30 4636 O 431.6 -1.17664 3.84081 0
M  V30 4637 N 429.806 -0.230128 2.89687 0
M  V30 4638 H 429.353 0.576545 2.51065 0
M  V30 4639 H 429.311 -1.09658 2.94657 0
M  V30 4640 N 433.083 -1.0153 1.20538 0
M  V30 4641 C 434.013 -2.11972 0.979295 0
M  V30 4642 C 434.994 -1.6985 -0.0921787 0
M  V30 4643 O 436.179 -1.94089 0.0655932 0
M  V30 4644 C 433.309 -3.43201 0.531984 0
M  V30 4645 C 432.263 -3.9907 1.54685 0
M  V30 4646 C 431.589 -5.26082 0.956127 0
M  V30 4647 C 432.889 -4.32313 2.93092 0
M  V30 4648 H 434.583 -2.31143 1.90298 0
M  V30 4649 H 432.129 -1.11079 0.916372 0
M  V30 4650 H 434.082 -4.1985 0.361044 0
M  V30 4651 H 432.806 -3.23792 -0.427327 0
M  V30 4652 H 431.465 -3.2453 1.70517 0
M  V30 4653 H 431.113 -5.02999 -0.0111538 0
M  V30 4654 H 430.813 -5.64426 1.63393 0
M  V30 4655 H 432.337 -6.05386 0.796284 0
M  V30 4656 H 433.751 -4.99845 2.80763 0
M  V30 4657 H 432.148 -4.81774 3.57791 0
M  V30 4658 H 433.218 -3.41025 3.44717 0
M  V30 4659 N 434.561 -1.01147 -1.20859 0
M  V30 4660 C 435.524 -0.582224 -2.21682 0
M  V30 4661 C 436.524 0.344887 -1.57058 0
M  V30 4662 O 437.714 0.134281 -1.73682 0
M  V30 4663 C 434.846 0.150496 -3.40568 0
M  V30 4664 H 436.039 -1.47408 -2.61172 0
M  V30 4665 H 433.592 -0.800695 -1.34233 0
M  V30 4666 H 434.327 1.0575 -3.06574 0
M  V30 4667 H 434.112 -0.515444 -3.88697 0
M  V30 4668 H 435.602 0.438344 -4.15293 0
M  V30 4669 N 436.039 1.36541 -0.78704 0
M  V30 4670 C 436.949 2.3387 -0.184896 0
M  V30 4671 C 437.965 1.60927 0.661697 0
M  V30 4672 O 439.141 1.92927 0.57804 0
M  V30 4673 C 436.206 3.40122 0.672145 0
M  V30 4674 C 435.267 4.28867 -0.19267 0
M  V30 4675 C 434.5 5.30045 0.623561 0
M  V30 4676 O 434.723 5.39232 1.8597 0
M  V30 4677 O 433.657 6.01895 0.0247068 0
M  V30 4678 H 437.483 2.87126 -0.989562 0
M  V30 4679 H 435.068 1.38969 -0.548455 0
M  V30 4680 H 436.95 4.05093 1.16094 0
M  V30 4681 H 435.625 2.89169 1.45474 0
M  V30 4682 H 434.532 3.66945 -0.728166 0
M  V30 4683 H 435.865 4.83165 -0.938722 0
M  V30 4684 N 437.518 0.538854 1.48102 0
M  V30 4685 C 438.466 -0.232325 2.31437 0
M  V30 4686 C 439.46 -0.927004 1.41785 0
M  V30 4687 O 440.666 -0.850378 1.58646 0
M  V30 4688 H 437.041 -0.0937916 0.746128 0
M  V30 4689 H 439.012 0.489986 2.9435 0
M  V30 4690 C 437.761 -1.26074 3.24038 0
M  V30 4691 H 437.084 -0.735609 3.92974 0
M  V30 4692 H 438.524 -1.77157 3.85216 0
M  V30 4693 C 436.983 -2.29902 2.46265 0
M  V30 4694 O 437.513 -3.36502 2.19384 0
M  V30 4695 N 435.719 -2.03348 2.07601 0
M  V30 4696 H 435.266 -1.16675 2.29662 0
M  V30 4697 H 435.224 -2.73038 1.55877 0
M  V30 4698 N 438.996 -1.55193 0.274407 0
M  V30 4699 C 440.245 -1.98758 -0.343213 0
M  V30 4700 C 440.558 -1.16624 -1.5703 0
M  V30 4701 O 441.764 -1.5033 -2.26082 0
M  V30 4702 C 440.22 -3.53759 -0.661996 0
M  V30 4703 C 439.828 -4.4467 0.54524 0
M  V30 4704 C 441.572 -4.05916 -1.24228 0
M  V30 4705 C 439.479 -5.91058 0.201084 0
M  V30 4706 H 438.409 -0.742353 -0.132014 0
M  V30 4707 H 441.06 -1.79545 0.378948 0
M  V30 4708 H 439.442 -3.68772 -1.44304 0
M  V30 4709 H 440.616 -4.41426 1.32212 0
M  V30 4710 H 438.931 -4.03143 1.04232 0
M  V30 4711 H 441.528 -5.12831 -1.51357 0
M  V30 4712 H 441.871 -3.54908 -2.17592 0
M  V30 4713 H 442.404 -3.9434 -0.523542 0
M  V30 4714 H 439.143 -6.46161 1.10258 0
M  V30 4715 H 438.663 -5.97373 -0.539045 0
M  V30 4716 H 440.342 -6.46669 -0.206954 0
M  V30 4717 N 440.474 -0.00167713 -1.576 0
M  V30 4718 C 441.699 0.69739 -1.95323 0
M  V30 4719 C 442.124 1.6642 -0.876706 0
M  V30 4720 O 441.482 1.80548 0.165007 0
M  V30 4721 C 441.53 1.40403 -3.32144 0
M  V30 4722 O 440.634 2.5185 -3.26566 0
M  V30 4723 H 439.975 0.185373 -0.637599 0
M  V30 4724 H 442.505 -0.0553665 -2.04525 0
M  V30 4725 H 442.515 1.76707 -3.67748 0
M  V30 4726 H 441.19 0.695167 -4.10049 0
M  V30 4727 H 439.767 2.17861 -3.0264 0
M  V30 4728 N 441.952 1.55251 0.271103 0
M  V30 4729 C 443.368 1.47133 0.618393 0
M  V30 4730 C 443.568 0.686994 1.89427 0
M  V30 4731 O 442.624 0.206609 2.51653 0
M  V30 4732 C 443.937 2.91361 0.743593 0
M  V30 4733 C 445.485 3.01587 0.837522 0
M  V30 4734 C 445.96 4.47073 0.994483 0
M  V30 4735 N 447.451 4.50909 1.05996 0
M  V30 4736 C 448.186 5.60698 1.20024 0
M  V30 4737 N 447.682 6.80348 1.30759 0
M  V30 4738 N 449.475 5.48444 1.23149 0
M  V30 4739 H 441.626 2.04698 -0.566784 0
M  V30 4740 H 443.889 0.928319 -0.192165 0
M  V30 4741 H 443.595 3.51483 -0.123493 0
M  V30 4742 H 443.469 3.40484 1.62328 0
M  V30 4743 H 445.856 2.4156 1.69507 0
M  V30 4744 H 445.937 2.55713 -0.0668086 0
M  V30 4745 H 445.581 5.07703 0.141582 0
M  V30 4746 H 445.511 4.90605 1.91349 0
M  V30 4747 H 448.002 3.6472 0.989316 0
M  V30 4748 H 448.315 7.59772 1.41303 0
M  V30 4749 H 446.66 6.83156 1.27761 0
M  V30 4750 H 449.851 4.53907 1.14394 0
M  V30 4751 H 450.024 6.34049 1.33738 0
M  V30 4752 N 443.43 -0.535701 1.48216 0
M  V30 4753 C 444.676 -1.29375 1.56173 0
M  V30 4754 C 445.009 -1.92804 0.232429 0
M  V30 4755 O 444.284 -1.78992 -0.761048 0
M  V30 4756 C 444.567 -2.38747 2.69577 0
M  V30 4757 C 444.42 -1.80046 4.12193 0
M  V30 4758 C 445.739 -3.40551 2.78771 0
M  V30 4759 H 442.858 -0.469027 0.568491 0
M  V30 4760 H 445.5 -0.597358 1.80365 0
M  V30 4761 H 443.65 -2.98147 2.4908 0
M  V30 4762 H 445.322 -1.24742 4.44114 0
M  V30 4763 H 443.565 -1.10609 4.19462 0
M  V30 4764 H 444.236 -2.59212 4.87353 0
M  V30 4765 H 446.712 -2.91099 2.97322 0
M  V30 4766 H 445.588 -4.1448 3.59857 0
M  V30 4767 H 445.849 -4.00746 1.86696 0
M  V30 4768 N 444.908 -1.36708 -0.784132 0
M  V30 4769 C 445.838 -1.34153 -1.91116 0
M  V30 4770 C 446.819 -0.212121 -1.68772 0
M  V30 4771 O 448.004 -0.410581 -1.8981 0
M  V30 4772 C 445.134 -1.13535 -3.28218 0
M  V30 4773 C 444.088 -2.23356 -3.65097 0
M  V30 4774 C 443.414 -1.87875 -5.00607 0
M  V30 4775 C 444.714 -3.65473 -3.73131 0
M  V30 4776 H 446.408 -2.28459 -1.93512 0
M  V30 4777 H 443.954 -1.09973 -0.929618 0
M  V30 4778 H 445.907 -1.10381 -4.06687 0
M  V30 4779 H 444.631 -0.156804 -3.26223 0
M  V30 4780 H 443.29 -2.25645 -2.88929 0
M  V30 4781 H 442.938 -0.885814 -4.95139 0
M  V30 4782 H 442.638 -2.61406 -5.26252 0
M  V30 4783 H 444.162 -1.86286 -5.81489 0
M  V30 4784 H 445.576 -3.65382 -4.41779 0
M  V30 4785 H 443.973 -4.37953 -4.10265 0
M  V30 4786 H 445.043 -3.99995 -2.74102 0
M  V30 4787 N 446.386 1.0089 -1.21074 0
M  V30 4788 C 447.616 1.77933 -1.04993 0
M  V30 4789 C 448.024 1.84847 0.403495 0
M  V30 4790 O 447.367 1.30606 1.29181 0
M  V30 4791 C 447.429 3.23541 -1.56722 0
M  V30 4792 C 447.093 3.40214 -3.05129 0
M  V30 4793 C 448.09 3.2881 -4.02716 0
M  V30 4794 C 445.775 3.65781 -3.44252 0
M  V30 4795 C 447.769 3.42732 -5.37414 0
M  V30 4796 C 445.456 3.79346 -4.79103 0
M  V30 4797 C 446.454 3.67827 -5.75493 0
M  V30 4798 O 446.142 3.80965 -7.07899 0
M  V30 4799 H 445.874 0.566157 -0.369381 0
M  V30 4800 H 448.428 1.27826 -1.60779 0
M  V30 4801 H 446.658 3.74766 -0.953285 0
M  V30 4802 H 448.347 3.82245 -1.36543 0
M  V30 4803 H 449.113 3.08986 -3.73835 0
M  V30 4804 H 444.992 3.73831 -2.69762 0
M  V30 4805 H 448.536 3.33658 -6.12632 0
M  V30 4806 H 444.433 3.98672 -5.07672 0
M  V30 4807 H 445.201 3.97937 -7.15254 0
M  V30 4808 N 447.864 1.01787 1.20321 0
M  V30 4809 C 449.275 0.739307 1.71438 0
M  V30 4810 C 449.626 -0.742041 1.81627 0
M  V30 4811 O 448.751 -1.57903 1.47971 0
M  V30 4812 C 449.346 1.33538 3.11373 0
M  V30 4813 C 447.905 1.10566 3.59795 0
M  V30 4814 C 447.052 1.44028 2.36962 0
M  V30 4815 H 450.003 1.18718 1.05317 0
M  V30 4816 H 450.024 0.726611 3.73498 0
M  V30 4817 H 449.536 2.41352 3.03926 0
M  V30 4818 H 447.637 0.0452405 3.72573 0
M  V30 4819 H 447.75 1.78661 4.44542 0
M  V30 4820 H 446.114 0.85933 2.39766 0
M  V30 4821 H 446.897 2.52901 2.32155 0
M  V30 4822 N 449.342 -1.36122 0.79427 0
M  V30 4823 C 450.29 -2.31871 0.184023 0
M  V30 4824 C 451.284 -1.56041 -0.659365 0
M  V30 4825 O 452.49 -1.71266 -0.553906 0
M  V30 4826 H 448.865 -0.750896 0.0407373 0
M  V30 4827 H 450.836 -2.80898 1.00693 0
M  V30 4828 C 449.585 -3.41324 -0.662813 0
M  V30 4829 H 448.908 -3.99793 -0.0231944 0
M  V30 4830 H 450.348 -4.10629 -1.05639 0
M  V30 4831 C 448.807 -2.83308 -1.82313 0
M  V30 4832 O 449.337 -2.75863 -2.91997 0
M  V30 4833 N 447.543 -2.40529 -1.63077 0
M  V30 4834 H 447.09 -2.46785 -0.738591 0
M  V30 4835 H 447.048 -2.02059 -2.40872 0
M  V30 4836 N 450.82 -0.546701 -1.47814 0
M  V30 4837 C 452.097 0.0464413 -1.95545 0
M  V30 4838 C 452.477 1.4962 -1.48919 0
M  V30 4839 O 451.825 2.16752 -0.723232 0
M  V30 4840 C 452.035 -0.0881298 -3.48889 0
M  V30 4841 C 453.383 0.0626059 -4.24554 0
M  V30 4842 O 454.407 -0.0151555 -3.56197 0
M  V30 4843 O 453.266 0.228071 -5.46024 0
M  V30 4844 H 450.36 0.0700004 -0.824032 0
M  V30 4845 H 452.906 -0.612482 -1.58262 0
M  V30 4846 H 451.678 -1.09737 -3.75597 0
M  V30 4847 H 451.301 0.608886 -3.9291 0
M  V30 4848 N 452.299 1.55045 -0.282633 0
M  V30 4849 C 453.247 2.24254 0.617478 0
M  V30 4850 C 454.241 1.24215 1.15183 0
M  V30 4851 O 455.447 1.42123 1.10459 0
M  V30 4852 H 451.822 0.719801 0.217693 0
M  V30 4853 H 453.793 2.98398 0.0110076 0
M  V30 4854 C 452.542 2.98281 1.78672 0
M  V30 4855 H 451.865 3.75053 1.38475 0
M  V30 4856 H 453.305 3.50017 2.393 0
M  V30 4857 C 451.764 2.04184 2.67975 0
M  V30 4858 O 452.294 1.59792 3.6855 0
M  V30 4859 N 450.5 1.70526 2.35307 0
M  V30 4860 H 450.047 2.06821 1.53567 0
M  V30 4861 H 450.005 1.07839 2.95327 0
M  V30 4862 N 453.777 0.010035 1.57597 0
M  V30 4863 C 455.024 -0.6727 1.91 0
M  V30 4864 C 455.352 -1.73219 0.884614 0
M  V30 4865 O 454.607 -1.95395 -0.109215 0
M  V30 4866 C 454.906 -1.34434 3.31153 0
M  V30 4867 C 454.572 -0.417083 4.48967 0
M  V30 4868 C 453.234 -0.161809 4.80928 0
M  V30 4869 C 455.586 0.220753 5.20732 0
M  V30 4870 C 452.914 0.739426 5.82022 0
M  V30 4871 C 455.266 1.10993 6.22787 0
M  V30 4872 C 453.93 1.37428 6.532 0
M  V30 4873 H 453.2 -0.246158 0.698918 0
M  V30 4874 H 455.847 0.0677145 1.9138 0
M  V30 4875 H 454.152 -2.15905 3.26944 0
M  V30 4876 H 455.849 -1.87883 3.54261 0
M  V30 4877 H 452.439 -0.626217 4.24001 0
M  V30 4878 H 456.623 0.0365643 4.96287 0
M  V30 4879 H 451.879 0.952139 6.03941 0
M  V30 4880 H 456.053 1.61046 6.77523 0
M  V30 4881 H 453.68 2.0743 7.31353 0
M  V30 4882 N 455.255 -1.55392 -0.262866 0
M  V30 4883 C 456.502 -1.76476 -0.993109 0
M  V30 4884 C 456.83 -0.571479 -1.85915 0
M  V30 4885 O 456.085 0.445733 -1.90556 0
M  V30 4886 C 456.384 -3.02889 -1.89718 0
M  V30 4887 C 456.05 -4.34974 -1.18781 0
M  V30 4888 C 454.712 -4.7087 -0.991699 0
M  V30 4889 C 457.064 -5.16695 -0.683798 0
M  V30 4890 C 454.392 -5.86036 -0.279024 0
M  V30 4891 C 456.744 -6.32598 0.0153327 0
M  V30 4892 C 455.408 -6.67127 0.223062 0
M  V30 4893 H 454.678 -0.64577 -0.363404 0
M  V30 4894 H 457.325 -1.89664 -0.264525 0
M  V30 4895 H 455.63 -2.84644 -2.6923 0
M  V30 4896 H 457.327 -3.16399 -2.46359 0
M  V30 4897 H 453.917 -4.06765 -1.35058 0
M  V30 4898 H 458.101 -4.8943 -0.8229 0
M  V30 4899 H 453.357 -6.11306 -0.107456 0
M  V30 4900 H 457.531 -6.95171 0.413584 0
M  V30 4901 H 455.158 -7.56216 0.777265 0
M  V30 4902 N 456.733 0.527833 -1.48498 0
M  V30 4903 C 457.643 1.65907 -1.65867 0
M  V30 4904 C 458.659 1.6537 -0.541192 0
M  V30 4905 O 459.835 1.84282 -0.812534 0
M  V30 4906 C 456.9 3.02364 -1.69637 0
M  V30 4907 C 455.961 3.1374 -2.93028 0
M  V30 4908 C 455.194 4.43688 -2.96609 0
M  V30 4909 O 455.417 5.30913 -2.08538 0
M  V30 4910 O 454.351 4.59475 -3.88802 0
M  V30 4911 H 458.177 1.5419 -2.61647 0
M  V30 4912 H 455.762 0.701163 -1.31924 0
M  V30 4913 H 457.644 3.83515 -1.74625 0
M  V30 4914 H 456.319 3.14401 -0.770312 0
M  V30 4915 H 455.226 2.31877 -2.93571 0
M  V30 4916 H 456.559 3.06621 -3.85026 0
M  V30 4917 N 458.211 1.37122 0.776871 0
M  V30 4918 C 459.459 1.31787 1.53221 0
M  V30 4919 C 459.78 -0.0987589 1.9475 0
M  V30 4920 O 459.05 -1.0417 1.65908 0
M  V30 4921 H 457.63 0.484839 0.568278 0
M  V30 4922 H 460.292 1.71556 0.924917 0
M  V30 4923 H 459.388 1.95355 2.43398 0
M  V30 4924 N 459.689 -1.00246 1.21608 0
M  V30 4925 C 460.636 -2.09073 0.977613 0
M  V30 4926 C 461.606 -1.65815 -0.097297 0
M  V30 4927 O 462.791 -1.90734 0.0503445 0
M  V30 4928 C 459.931 -3.40671 0.551133 0
M  V30 4929 C 459.044 -3.97326 1.69576 0
M  V30 4930 C 458.179 -5.17043 1.2182 0
M  V30 4931 C 457.218 -5.65813 2.335 0
M  V30 4932 N 456.355 -6.76778 1.86859 0
M  V30 4933 H 461.195 -2.28806 1.90924 0
M  V30 4934 H 458.732 -1.12186 0.951452 0
M  V30 4935 H 460.69 -4.16225 0.285097 0
M  V30 4936 H 459.32 -3.20967 -0.343489 0
M  V30 4937 H 458.372 -3.18734 2.07637 0
M  V30 4938 H 459.684 -4.29511 2.53617 0
M  V30 4939 H 458.838 -5.99852 0.908975 0
M  V30 4940 H 457.577 -4.86458 0.347869 0
M  V30 4941 H 456.582 -4.81599 2.65222 0
M  V30 4942 H 457.807 -5.98427 3.21033 0
M  V30 4943 H 455.753 -6.47994 1.02174 0
M  V30 4944 H 455.67 -7.08231 2.64471 0
M  V30 4945 H 456.938 -7.63116 1.58978 0
M  V30 4946 N 461.167 -1.02423 -1.1978 0
M  V30 4947 C 462.077 -0.610919 -2.26506 0
M  V30 4948 C 463.093 0.355152 -1.70337 0
M  V30 4949 O 464.269 0.214195 -2.00258 0
M  V30 4950 C 461.334 0.0365921 -3.46681 0
M  V30 4951 C 460.395 -0.976389 -4.18049 0
M  V30 4952 C 459.628 -0.359683 -5.32487 0
M  V30 4953 O 459.851 0.838601 -5.64202 0
M  V30 4954 O 458.785 -1.08022 -5.92127 0
M  V30 4955 H 462.611 -1.49965 -2.64091 0
M  V30 4956 H 460.196 -0.794156 -1.26545 0
M  V30 4957 H 462.078 0.39786 -4.19518 0
M  V30 4958 H 460.753 0.899398 -3.10954 0
M  V30 4959 H 459.66 -1.38916 -3.47352 0
M  V30 4960 H 460.993 -1.80941 -4.57735 0
M  V30 4961 N 462.645 1.35699 -0.801477 0
M  V30 4962 C 463.575 2.32436 -0.222658 0
M  V30 4963 C 464.556 1.5723 0.649057 0
M  V30 4964 O 465.741 1.85324 0.580387 0
M  V30 4965 C 462.871 3.41469 0.633719 0
M  V30 4966 C 461.825 4.27774 -0.139083 0
M  V30 4967 C 461.151 5.28082 0.838666 0
M  V30 4968 C 462.451 5.04946 -1.33517 0
M  V30 4969 H 464.145 2.81094 -1.03086 0
M  V30 4970 H 461.691 1.35146 -0.497155 0
M  V30 4971 H 463.644 4.08143 1.04868 0
M  V30 4972 H 462.368 2.91408 1.47475 0
M  V30 4973 H 461.027 3.62673 -0.535156 0
M  V30 4974 H 460.675 4.7429 1.67506 0
M  V30 4975 H 460.375 5.86695 0.32594 0
M  V30 4976 H 461.899 5.97628 1.25194 0
M  V30 4977 H 463.313 5.64593 -0.995349 0
M  V30 4978 H 461.71 5.7303 -1.78202 0
M  V30 4979 H 462.78 4.35886 -2.12442 0
M  V30 4980 N 464.123 0.554532 1.47522 0
M  V30 4981 C 465.539 0.214107 1.58157 0
M  V30 4982 C 465.739 -1.28331 1.55349 0
M  V30 4983 O 464.795 -2.06329 1.45549 0
M  V30 4984 C 466.108 0.838391 2.88776 0
M  V30 4985 C 467.656 0.809374 3.02354 0
M  V30 4986 C 468.131 1.41268 4.35669 0
M  V30 4987 N 469.622 1.37574 4.42298 0
M  V30 4988 C 470.357 1.8122 5.4401 0
M  V30 4989 N 469.853 2.3271 6.52547 0
M  V30 4990 N 471.646 1.72307 5.35039 0
M  V30 4991 H 463.797 1.52744 1.4759 0
M  V30 4992 H 466.06 0.636812 0.702264 0
M  V30 4993 H 465.766 1.89065 2.96559 0
M  V30 4994 H 465.64 0.329847 3.75755 0
M  V30 4995 H 468.027 -0.234187 2.94169 0
M  V30 4996 H 468.108 1.35565 2.16924 0
M  V30 4997 H 467.752 2.45529 4.4461 0
M  V30 4998 H 467.682 0.841871 5.19827 0
M  V30 4999 H 470.173 0.999081 3.64454 0
M  V30 5000 H 470.486 2.63944 7.26329 0
M  V30 5001 H 468.831 2.36719 6.53444 0
M  V30 5002 H 472.022 1.3186 4.49144 0
M  V30 5003 H 472.195 2.06641 6.14169 0
M  V30 5004 N 465.601 -1.54893 0.290851 0
M  V30 5005 C 466.531 -2.26103 -0.583084 0
M  V30 5006 C 467.512 -1.25684 -1.14619 0
M  V30 5007 O 468.697 -1.54436 -1.17741 0
M  V30 5008 C 465.827 -2.99409 -1.75987 0
M  V30 5009 C 464.781 -4.0689 -1.32758 0
M  V30 5010 C 464.107 -4.67856 -2.58872 0
M  V30 5011 C 465.407 -5.20215 -0.46624 0
M  V30 5012 H 467.101 -2.99398 0.0108214 0
M  V30 5013 H 464.647 -1.43998 0.00664468 0
M  V30 5014 H 466.6 -3.47943 -2.37727 0
M  V30 5015 H 465.324 -2.23675 -2.37985 0
M  V30 5016 H 463.983 -3.59191 -0.733299 0
M  V30 5017 H 463.631 -3.88772 -3.19163 0
M  V30 5018 H 463.331 -5.40438 -2.30653 0
M  V30 5019 H 464.855 -5.19147 -3.21433 0
M  V30 5020 H 466.269 -5.64704 -0.989047 0
M  V30 5021 H 464.666 -5.99455 -0.27826 0
M  V30 5022 H 465.736 -4.82198 0.511173 0
M  V30 5023 N 467.08 -0.0183926 -1.57589 0
M  V30 5024 C 468.027 0.967022 -2.09565 0
M  V30 5025 C 468.997 1.32983 -0.995225 0
M  V30 5026 O 470.182 1.42501 -1.26878 0
M  V30 5027 C 467.322 2.24772 -2.61861 0
M  V30 5028 C 466.435 1.94232 -3.85873 0
M  V30 5029 C 465.57 3.16518 -4.26603 0
M  V30 5030 C 464.609 2.81748 -5.43401 0
M  V30 5031 N 463.746 3.96626 -5.79338 0
M  V30 5032 H 468.586 0.516874 -2.93483 0
M  V30 5033 H 466.123 0.243544 -1.4507 0
M  V30 5034 H 468.081 2.99667 -2.90268 0
M  V30 5035 H 466.711 2.67423 -1.8079 0
M  V30 5036 H 465.763 1.09625 -3.64262 0
M  V30 5037 H 467.075 1.64616 -4.70853 0
M  V30 5038 H 466.229 3.99743 -4.56389 0
M  V30 5039 H 464.968 3.49286 -3.40368 0
M  V30 5040 H 463.973 1.96933 -5.1332 0
M  V30 5041 H 465.198 2.50207 -6.31327 0
M  V30 5042 H 463.144 4.29257 -4.96059 0
M  V30 5043 H 463.061 3.70598 -6.58933 0
M  V30 5044 H 464.329 4.80586 -6.13724 0
M  V30 5045 N 468.558 1.5553 0.254621 0
M  V30 5046 C 469.49 1.86104 1.33783 0
M  V30 5047 C 470.503 0.746752 1.44663 0
M  V30 5048 O 471.692 1.0248 1.46151 0
M  V30 5049 C 468.792 2.02532 2.71724 0
M  V30 5050 C 467.965 3.33335 2.83208 0
M  V30 5051 C 467.024 3.396 4.01943 0
M  V30 5052 O 466.05 4.12862 3.91834 0
M  V30 5053 N 467.252 2.68332 5.1476 0
M  V30 5054 H 470.017 2.79605 1.07893 0
M  V30 5055 H 467.578 1.55672 0.444732 0
M  V30 5056 H 469.57 2.04074 3.4948 0
M  V30 5057 H 468.14 1.15811 2.90356 0
M  V30 5058 H 467.36 3.44176 1.92189 0
M  V30 5059 H 468.648 4.19565 2.87824 0
M  V30 5060 H 468.046 2.08528 5.25864 0
M  V30 5061 H 466.603 2.75575 5.90679 0
M  V30 5062 N 470.036 -0.519951 1.48776 0
M  V30 5063 C 470.946 -1.65025 1.66745 0
M  V30 5064 C 471.962 -1.6508 0.549954 0
M  V30 5065 O 473.138 -1.83848 0.822295 0
M  V30 5066 C 470.203 -3.0146 1.71238 0
M  V30 5067 C 469.264 -3.12182 2.94688 0
M  V30 5068 C 468.497 -4.42109 2.98958 0
M  V30 5069 O 468.72 -5.29799 2.1135 0
M  V30 5070 O 467.654 -4.57406 3.91233 0
M  V30 5071 H 471.48 -1.52801 2.62461 0
M  V30 5072 H 469.065 -0.694157 1.32294 0
M  V30 5073 H 470.947 -3.82584 1.76657 0
M  V30 5074 H 469.622 -3.13988 0.786975 0
M  V30 5075 H 468.529 -2.30316 2.94797 0
M  V30 5076 H 469.862 -3.04574 3.86646 0
M  V30 5077 N 471.514 -1.37532 -0.769588 0
M  V30 5078 C 472.744 -1.35861 -1.55645 0
M  V30 5079 C 473.152 0.0574398 -1.89113 0
M  V30 5080 O 472.495 1.03021 -1.52093 0
M  V30 5081 C 472.557 -2.13431 -2.89288 0
M  V30 5082 C 472.221 -3.62378 -2.78444 0
M  V30 5083 C 473.218 -4.56215 -2.49326 0
M  V30 5084 C 470.903 -4.05529 -2.96398 0
M  V30 5085 C 472.897 -5.91181 -2.38294 0
M  V30 5086 C 470.584 -5.40579 -2.84987 0
M  V30 5087 C 471.582 -6.33218 -2.55975 0
M  V30 5088 O 471.27 -7.65787 -2.44594 0
M  V30 5089 H 471.002 -0.467001 -0.48876 0
M  V30 5090 H 473.556 -1.81505 -0.961515 0
M  V30 5091 H 471.786 -1.62481 -3.50909 0
M  V30 5092 H 473.475 -2.04368 -3.50697 0
M  V30 5093 H 474.241 -4.24187 -2.35139 0
M  V30 5094 H 470.12 -3.33781 -3.1798 0
M  V30 5095 H 473.664 -6.63457 -2.15571 0
M  V30 5096 H 469.561 -5.72209 -2.98743 0
M  V30 5097 H 470.329 -7.76132 -2.59927 0
M  V30 5098 N 472.992 0.995999 -1.22138 0
M  V30 5099 C 474.239 1.7351 -1.04406 0
M  V30 5100 C 474.567 1.89884 0.421244 0
M  V30 5101 O 473.822 1.43683 1.32867 0
M  V30 5102 C 474.121 3.14553 -1.6968 0
M  V30 5103 C 473.787 3.18102 -3.19565 0
M  V30 5104 C 472.449 3.18778 -3.60464 0
M  V30 5105 C 474.801 3.14636 -4.15516 0
M  V30 5106 C 472.129 3.13684 -4.95801 0
M  V30 5107 C 474.481 3.11084 -5.50826 0
M  V30 5108 C 473.145 3.10074 -5.91109 0
M  V30 5109 H 472.415 0.634916 -0.38205 0
M  V30 5110 H 475.062 1.1667 -1.51857 0
M  V30 5111 H 473.367 3.74682 -1.14546 0
M  V30 5112 H 475.064 3.70477 -1.53454 0
M  V30 5113 H 471.654 3.18324 -2.86998 0
M  V30 5114 H 475.838 3.13266 -3.84939 0
M  V30 5115 H 471.094 3.11245 -5.26247 0
M  V30 5116 H 475.268 3.07357 -6.24904 0
M  V30 5117 H 472.895 3.05882 -6.95946 0
M  V30 5118 N 474.47 1.03057 1.19235 0
M  V30 5119 C 475.716 0.729098 1.89241 0
M  V30 5120 C 476.049 -0.740573 1.79525 0
M  V30 5121 O 475.324 -1.53946 1.18874 0
M  V30 5122 C 475.607 1.18304 3.40112 0
M  V30 5123 C 475.46 2.71406 3.5869 0
M  V30 5124 C 476.779 0.765161 4.33397 0
M  V30 5125 H 473.898 0.266338 0.687192 0
M  V30 5126 H 476.54 1.28079 1.40341 0
M  V30 5127 H 474.69 0.713672 3.81889 0
M  V30 5128 H 476.362 3.26303 3.26074 0
M  V30 5129 H 474.605 3.11717 3.01687 0
M  V30 5130 H 475.276 2.98225 4.64506 0
M  V30 5131 H 477.752 1.16889 3.99345 0
M  V30 5132 H 476.628 1.11065 5.37546 0
M  V30 5133 H 476.889 -0.332372 4.40849 0
M  V30 5134 N 475.948 -1.35272 0.808662 0
M  V30 5135 C 477.194 -1.99003 0.390581 0
M  V30 5136 C 477.527 -1.63999 -1.0401 0
M  V30 5137 O 476.802 -0.904368 -1.72196 0
M  V30 5138 C 477.085 -3.55454 0.576566 0
M  V30 5139 C 476.938 -4.00249 2.05233 0
M  V30 5140 C 478.257 -4.401 0.00354277 0
M  V30 5141 H 475.376 -0.722917 0.143388 0
M  V30 5142 H 478.018 -1.6039 1.01858 0
M  V30 5143 H 476.168 -3.88477 0.0419766 0
M  V30 5144 H 477.84 -3.77626 2.64946 0
M  V30 5145 H 476.083 -3.51082 2.54801 0
M  V30 5146 H 476.754 -5.0911 2.13333 0
M  V30 5147 H 479.23 -4.13548 0.460117 0
M  V30 5148 H 478.106 -5.48656 0.163575 0
M  V30 5149 H 478.367 -4.28444 -1.09032 0
M  V30 5150 N 477.426 -0.562348 -1.47226 0
M  V30 5151 C 478.389 0.172056 -2.28553 0
M  V30 5152 C 479.389 0.837928 -1.37242 0
M  V30 5153 O 480.579 0.693001 -1.59822 0
M  V30 5154 C 477.711 1.25223 -3.17068 0
M  V30 5155 H 478.904 -0.542401 -2.94954 0
M  V30 5156 H 476.457 -0.319493 -1.53 0
M  V30 5157 H 477.192 1.99892 -2.55369 0
M  V30 5158 H 476.977 0.779515 -3.84273 0
M  V30 5159 H 478.467 1.76791 -3.78332 0
M  V30 5160 N 478.904 1.54736 -0.299062 0
M  V30 5161 C 480.129 2.04975 0.316254 0
M  V30 5162 C 480.554 1.17501 1.46885 0
M  V30 5163 O 479.912 0.178678 1.80417 0
M  V30 5164 C 479.96 3.52672 0.751997 0
M  V30 5165 O 479.064 3.68226 1.85697 0
M  V30 5166 H 478.405 0.661126 0.0617175 0
M  V30 5167 H 480.935 1.99805 -0.440341 0
M  V30 5168 H 480.945 3.94488 1.04133 0
M  V30 5169 H 479.62 4.158 -0.0911482 0
M  V30 5170 H 478.197 3.38316 1.56834 0
M  V30 5171 N 480.382 0.0267497 1.57577 0
M  V30 5172 C 481.61 -0.662661 1.96001 0
M  V30 5173 C 482.025 -1.65799 0.903117 0
M  V30 5174 O 481.382 -1.82135 -0.115317 0
M  V30 5175 C 481.433 -1.37112 3.34488 0
M  V30 5176 O 481.154 -0.415683 4.36123 0
M  V30 5177 C 482.655 -2.15257 3.8753 0
M  V30 5178 H 479.875 -0.18287 0.6456 0
M  V30 5179 H 482.419 0.0858116 2.0432 0
M  V30 5180 H 480.574 -2.07101 3.27395 0
M  V30 5181 H 480.988 -0.918496 5.16395 0
M  V30 5182 H 482.462 -2.60285 4.86781 0
M  V30 5183 H 482.939 -2.99063 3.21649 0
M  V30 5184 H 483.545 -1.50231 3.97883 0
M  V30 5185 N 481.861 -1.55662 -0.24637 0
M  V30 5186 C 482.791 -1.93377 -1.30873 0
M  V30 5187 C 483.772 -0.798773 -1.50179 0
M  V30 5188 O 484.957 -1.0591 -1.62778 0
M  V30 5189 C 482.087 -2.22893 -2.66338 0
M  V30 5190 C 481.041 -3.38649 -2.61727 0
M  V30 5191 C 480.367 -3.53708 -4.00992 0
M  V30 5192 C 481.667 -4.74323 -2.18666 0
M  V30 5193 H 483.361 -2.82363 -0.995552 0
M  V30 5194 H 480.907 -1.35854 -0.477464 0
M  V30 5195 H 482.86 -2.47866 -3.40794 0
M  V30 5196 H 481.584 -1.30733 -2.99293 0
M  V30 5197 H 480.243 -3.13685 -1.89729 0
M  V30 5198 H 479.891 -2.58967 -4.31214 0
M  V30 5199 H 479.591 -4.31551 -3.98795 0
M  V30 5200 H 481.115 -3.81003 -4.77147 0
M  V30 5201 H 482.529 -4.98665 -2.82854 0
M  V30 5202 H 480.926 -5.55273 -2.27579 0
M  V30 5203 H 481.996 -4.71349 -1.13834 0
M  V30 5204 N 483.339 0.512053 -1.4905 0
M  V30 5205 C 484.271 1.63121 -1.6101 0
M  V30 5206 C 485.284 1.55145 -0.493352 0
M  V30 5207 O 486.473 1.61278 -0.764955 0
M  V30 5208 C 483.573 3.01863 -1.54052 0
M  V30 5209 C 482.746 3.35138 -2.81072 0
M  V30 5210 C 481.805 4.5324 -2.67319 0
M  V30 5211 O 480.831 4.55571 -3.41238 0
M  V30 5212 N 482.033 5.52495 -1.78127 0
M  V30 5213 H 484.798 1.53292 -2.5753 0
M  V30 5214 H 482.359 0.699706 -1.45999 0
M  V30 5215 H 484.351 3.78774 -1.42521 0
M  V30 5216 H 482.921 3.05675 -0.654345 0
M  V30 5217 H 482.141 2.4723 -3.07036 0
M  V30 5218 H 483.429 3.54162 -3.65304 0
M  V30 5219 H 482.827 5.53403 -1.17308 0
M  V30 5220 H 481.384 6.28553 -1.72525 0
M  V30 5221 N 484.817 1.37938 0.762283 0
M  V30 5222 C 486.094 1.24196 1.51112 0
M  V30 5223 C 486.474 -0.160409 2.1049 0
M  V30 5224 O 485.822 -1.16904 1.96331 0
M  V30 5225 C 486.032 2.34537 2.58445 0
M  V30 5226 C 487.38 2.7254 3.25588 0
M  V30 5227 O 488.404 2.33783 2.68745 0
M  V30 5228 O 487.263 3.39343 4.28379 0
M  V30 5229 H 484.357 0.485175 0.669727 0
M  V30 5230 H 486.903 1.49743 0.798438 0
M  V30 5231 H 485.675 3.28406 2.12756 0
M  V30 5232 H 485.298 2.10505 3.37303 0
M  V30 5233 N 486.295 -0.989507 1.22664 0
M  V30 5234 C 487.544 -1.72375 1.04737 0
M  V30 5235 C 487.857 -1.91096 -0.417316 0
M  V30 5236 O 489.063 -2.6188 -0.716334 0
M  V30 5237 C 487.519 -3.10161 1.82561 0
M  V30 5238 C 487.127 -2.99358 3.333 0
M  V30 5239 C 488.871 -3.87607 1.73093 0
M  V30 5240 C 486.778 -4.32319 4.03552 0
M  V30 5241 H 485.708 -0.646326 0.388302 0
M  V30 5242 H 488.359 -1.10437 1.46546 0
M  V30 5243 H 486.741 -3.728 1.33552 0
M  V30 5244 H 487.915 -2.45863 3.89728 0
M  V30 5245 H 486.23 -2.35392 3.43481 0
M  V30 5246 H 488.827 -4.86025 2.22899 0
M  V30 5247 H 489.17 -4.10509 0.691976 0
M  V30 5248 H 489.703 -3.31652 2.19663 0
M  V30 5249 H 486.442 -4.14616 5.07714 0
M  V30 5250 H 485.962 -4.85714 3.51911 0
M  V30 5251 H 487.641 -5.01051 4.09337 0
M  V30 5252 N 487.773 -1.03688 -1.18687 0
M  V30 5253 C 489.022 -0.733235 -1.879 0
M  V30 5254 C 489.335 0.741745 -1.8099 0
M  V30 5255 O 490.541 1.15875 -2.4553 0
M  V30 5256 C 488.997 -1.26127 -3.37076 0
M  V30 5257 C 488.605 -2.76461 -3.52524 0
M  V30 5258 C 490.349 -1.03398 -4.11715 0
M  V30 5259 C 488.256 -3.22642 -4.95637 0
M  V30 5260 H 487.186 -0.270584 -0.703776 0
M  V30 5261 H 489.837 -1.25222 -1.34133 0
M  V30 5262 H 488.219 -0.670165 -3.90288 0
M  V30 5263 H 489.393 -3.41296 -3.09602 0
M  V30 5264 H 487.708 -2.97559 -2.91286 0
M  V30 5265 H 490.305 -1.3542 -5.17267 0
M  V30 5266 H 490.648 0.0289246 -4.1629 0
M  V30 5267 H 491.181 -1.5895 -3.64664 0
M  V30 5268 H 487.92 -4.28296 -4.96228 0
M  V30 5269 H 487.44 -2.62539 -5.39289 0
M  V30 5270 H 489.119 -3.16444 -5.64333 0
M  V30 5271 N 489.251 1.34841 -0.815825 0
M  V30 5272 C 490.667 1.51543 -0.500697 0
M  V30 5273 C 490.867 1.76261 0.976444 0
M  V30 5274 O 489.923 1.8094 1.76117 0
M  V30 5275 C 491.236 2.68487 -1.35407 0
M  V30 5276 C 492.784 2.82368 -1.35046 0
M  V30 5277 C 493.259 4.02347 -2.18816 0
M  V30 5278 N 494.75 4.09542 -2.16402 0
M  V30 5279 C 495.485 5.01517 -2.77971 0
M  V30 5280 N 494.981 5.98763 -3.48503 0
M  V30 5281 N 496.774 4.94334 -2.67563 0
M  V30 5282 H 488.925 1.17055 -1.77234 0
M  V30 5283 H 491.188 0.573481 -0.754866 0
M  V30 5284 H 490.894 2.56829 -2.40274 0
M  V30 5285 H 490.768 3.63321 -1.01377 0
M  V30 5286 H 493.155 2.93471 -0.309604 0
M  V30 5287 H 493.236 1.88363 -1.73069 0
M  V30 5288 H 492.88 3.92004 -3.22948 0
M  V30 5289 H 492.81 4.95551 -1.78148 0
M  V30 5290 H 495.301 3.39932 -1.65091 0
M  V30 5291 H 495.614 6.6556 -3.92747 0
M  V30 5292 H 493.959 5.98909 -3.52609 0
M  V30 5293 H 497.15 4.1732 -2.12041 0
M  V30 5294 H 497.323 5.6582 -3.15834 0
M  V30 5295 N 490.729 0.570148 1.46925 0
M  V30 5296 C 492.145 0.23087 1.57921 0
M  V30 5297 C 492.345 -1.26676 1.56702 0
M  V30 5298 O 491.401 -2.04774 1.47729 0
M  V30 5299 C 492.714 0.868973 2.8787 0
M  V30 5300 C 494.262 0.841397 3.01479 0
M  V30 5301 C 494.737 1.45881 4.34146 0
M  V30 5302 N 496.228 1.42258 4.40814 0
M  V30 5303 C 496.963 1.8698 5.42057 0
M  V30 5304 N 496.459 2.39618 6.50042 0
M  V30 5305 N 498.252 1.77972 5.33181 0
M  V30 5306 H 490.403 1.54301 1.45962 0
M  V30 5307 H 492.666 0.644224 0.69547 0
M  V30 5308 H 492.372 1.922 2.94537 0
M  V30 5309 H 492.246 0.369682 3.75384 0
M  V30 5310 H 494.633 -0.202973 2.94401 0
M  V30 5311 H 494.714 1.37858 2.15474 0
M  V30 5312 H 494.358 2.50231 4.4198 0
M  V30 5313 H 494.288 0.896958 5.18905 0
M  V30 5314 H 496.779 1.03768 3.63374 0
M  V30 5315 H 497.092 2.71633 7.23488 0
M  V30 5316 H 495.437 2.43636 6.50897 0
M  V30 5317 H 498.628 1.36617 4.4772 0
M  V30 5318 H 498.801 2.13143 6.11943 0
M  V30 5319 N 492.207 -1.54576 0.307264 0
M  V30 5320 C 493.454 -2.00263 -0.300167 0
M  V30 5321 C 493.782 -1.19561 -1.53413 0
M  V30 5322 O 493.037 -0.261487 -1.93945 0
M  V30 5323 C 493.336 -3.50572 -0.695253 0
M  V30 5324 C 493.002 -4.48771 0.437679 0
M  V30 5325 C 491.664 -4.7534 0.748681 0
M  V30 5326 C 494.016 -5.0721 1.19949 0
M  V30 5327 C 491.344 -5.5761 1.8245 0
M  V30 5328 C 493.696 -5.90651 2.26527 0
M  V30 5329 C 492.36 -6.15528 2.58227 0
M  V30 5330 H 491.63 -0.732814 -0.109839 0
M  V30 5331 H 494.277 -1.86664 0.427661 0
M  V30 5332 H 492.582 -3.61814 -1.50326 0
M  V30 5333 H 494.279 -3.83352 -1.17653 0
M  V30 5334 H 490.869 -4.282 0.185187 0
M  V30 5335 H 495.053 -4.86679 0.972474 0
M  V30 5336 H 490.309 -5.75121 2.07476 0
M  V30 5337 H 494.483 -6.34957 2.86011 0
M  V30 5338 H 492.11 -6.79066 3.4172 0
M  V30 5339 N 493.685 -0.035106 -1.57561 0
M  V30 5340 C 494.632 0.94474 -2.10578 0
M  V30 5341 C 495.602 1.3192 -1.00927 0
M  V30 5342 O 496.787 1.41147 -1.28382 0
M  V30 5343 C 493.927 2.21982 -2.64231 0
M  V30 5344 C 493.04 1.90128 -3.87911 0
M  V30 5345 C 492.175 3.11975 -4.29936 0
M  V30 5346 C 491.214 2.75968 -5.46359 0
M  V30 5347 N 490.351 3.90459 -5.83512 0
M  V30 5348 H 495.191 0.485717 -2.94015 0
M  V30 5349 H 492.728 0.228143 -1.4532 0
M  V30 5350 H 494.686 2.96572 -2.9343 0
M  V30 5351 H 493.316 2.6549 -1.83616 0
M  V30 5352 H 492.368 1.05755 -3.65404 0
M  V30 5353 H 493.68 1.59613 -4.72573 0
M  V30 5354 H 492.834 3.9488 -4.60603 0
M  V30 5355 H 491.573 3.45657 -3.44053 0
M  V30 5356 H 490.578 1.91478 -5.1538 0
M  V30 5357 H 491.803 2.43497 -6.33945 0
M  V30 5358 H 489.749 4.23971 -5.00584 0
M  V30 5359 H 489.666 3.63588 -6.62827 0
M  V30 5360 H 490.934 4.7405 -6.18787 0
M  V30 5361 N 495.163 1.55791 0.238111 0
M  V30 5362 C 496.388 1.8244 0.986432 0
M  V30 5363 C 496.813 0.613314 1.7782 0
M  V30 5364 O 496.171 -0.437767 1.75935 0
M  V30 5365 C 496.219 3.06917 1.893 0
M  V30 5366 O 495.323 2.84449 2.98601 0
M  V30 5367 H 494.664 0.601975 0.280218 0
M  V30 5368 H 497.194 2.02987 0.256437 0
M  V30 5369 H 497.204 3.36583 2.30598 0
M  V30 5370 H 495.879 3.947 1.31091 0
M  V30 5371 H 494.456 2.65972 2.61368 0
M  V30 5372 N 496.642 -0.504142 1.49319 0
M  V30 5373 C 497.867 -1.28729 1.62615 0
M  V30 5374 C 498.292 -1.85752 0.296309 0
M  V30 5375 O 497.65 -1.65704 -0.735649 0
M  V30 5376 C 497.698 -2.39561 2.69524 0
M  V30 5377 O 496.802 -3.43324 2.28478 0
M  V30 5378 H 496.143 -0.380172 0.544395 0
M  V30 5379 H 498.673 -0.603872 1.95485 0
M  V30 5380 H 498.683 -2.8537 2.91595 0
M  V30 5381 H 497.358 -1.97423 3.66056 0
M  V30 5382 H 495.935 -3.03455 2.16725 0
M  V30 5383 N 498.12 -1.38341 -0.754957 0
M  V30 5384 C 499.067 -1.3546 -1.86867 0
M  V30 5385 C 500.037 -0.217369 -1.64672 0
M  V30 5386 O 501.222 -0.409383 -1.86356 0
M  V30 5387 C 498.362 -1.18413 -3.24149 0
M  V30 5388 C 497.475 -2.41511 -3.58185 0
M  V30 5389 C 496.61 -2.17205 -4.84763 0
M  V30 5390 C 495.649 -3.36081 -5.11582 0
M  V30 5391 N 494.786 -3.11219 -6.29354 0
M  V30 5392 H 499.626 -2.30672 -1.88664 0
M  V30 5393 H 497.163 -1.14607 -0.922154 0
M  V30 5394 H 499.121 -1.06545 -4.03366 0
M  V30 5395 H 497.751 -0.268397 -3.21682 0
M  V30 5396 H 496.803 -2.64056 -2.73822 0
M  V30 5397 H 498.115 -3.30115 -3.73932 0
M  V30 5398 H 497.269 -2.02465 -5.7192 0
M  V30 5399 H 496.008 -1.25964 -4.71152 0
M  V30 5400 H 495.013 -3.51341 -4.22894 0
M  V30 5401 H 496.238 -4.28196 -5.27091 0
M  V30 5402 H 494.184 -2.22624 -6.17069 0
M  V30 5403 H 494.101 -3.93373 -6.45596 0
M  V30 5404 H 495.369 -3.00132 -7.19403 0
M  V30 5405 N 499.598 0.982988 -1.23187 0
M  V30 5406 C 500.845 1.72392 -1.06241 0
M  V30 5407 C 501.173 1.9032 0.40108 0
M  V30 5408 O 500.428 1.45084 1.31336 0
M  V30 5409 C 500.727 3.12736 -1.73006 0
M  V30 5410 C 500.393 3.14695 -3.22921 0
M  V30 5411 C 499.055 3.14937 -3.63824 0
M  V30 5412 C 501.407 3.10211 -4.1883 0
M  V30 5413 C 498.735 3.08408 -4.99101 0
M  V30 5414 C 501.087 3.05224 -5.54095 0
M  V30 5415 C 499.751 3.03787 -5.94365 0
M  V30 5416 H 499.021 0.630829 -0.388762 0
M  V30 5417 H 501.668 1.15053 -1.53085 0
M  V30 5418 H 499.973 3.73446 -1.18514 0
M  V30 5419 H 501.67 3.68828 -1.57374 0
M  V30 5420 H 498.26 3.15262 -2.90358 0
M  V30 5421 H 502.444 3.09166 -3.8824 0
M  V30 5422 H 497.7 3.05646 -5.29519 0
M  V30 5423 H 501.874 3.00712 -6.28128 0
M  V30 5424 H 499.501 2.98483 -6.99151 0
M  V30 5425 N 501.076 1.04316 1.18135 0
M  V30 5426 C 502.324 0.746542 1.87806 0
M  V30 5427 C 502.645 -0.728082 1.80898 0
M  V30 5428 O 501.915 -1.52554 1.22899 0
M  V30 5429 H 500.495 0.273157 0.695265 0
M  V30 5430 H 503.157 1.32044 1.43354 0
M  V30 5431 H 502.253 1.05362 2.93778 0
M  V30 5432 N 502.554 -1.34406 0.822964 0
M  V30 5433 C 503.794 -2.00103 0.416915 0
M  V30 5434 C 504.158 -1.63826 -1.00125 0
M  V30 5435 O 505.359 -2.22367 -1.51018 0
M  V30 5436 C 503.63 -3.52101 0.613151 0
M  V30 5437 S 505.189 -4.37774 0.299956 0
M  V30 5438 H 502.007 -0.69333 0.157527 0
M  V30 5439 H 504.609 -1.63698 1.06879 0
M  V30 5440 H 503.313 -3.75991 1.64496 0
M  V30 5441 H 502.844 -3.93364 -0.0534554 0
M  V30 5442 H 504.859 -4.8822 -0.886336 0
M  V30 5443 N 504.032 -0.577932 -1.46621 0
M  V30 5444 C 505.448 -0.239242 -1.57797 0
M  V30 5445 C 505.648 1.25843 -1.57371 0
M  V30 5446 O 504.704 2.03988 -1.48813 0
M  V30 5447 C 506.017 -0.884227 -2.87405 0
M  V30 5448 C 507.565 -0.857373 -3.01028 0
M  V30 5449 C 508.04 -1.48181 -4.33366 0
M  V30 5450 N 509.531 -1.44593 -4.40053 0
M  V30 5451 C 510.266 -1.89852 -5.41058 0
M  V30 5452 N 509.762 -2.43062 -6.48762 0
M  V30 5453 N 511.555 -1.80797 -5.3223 0
M  V30 5454 H 503.706 -1.55073 -1.45142 0
M  V30 5455 H 505.969 -0.647903 -0.692044 0
M  V30 5456 H 505.675 -1.93759 -2.93514 0
M  V30 5457 H 505.549 -0.389585 -3.75183 0
M  V30 5458 H 507.936 0.187357 -2.94505 0
M  V30 5459 H 508.017 -1.38999 -2.14739 0
M  V30 5460 H 507.661 -2.52572 -4.40647 0
M  V30 5461 H 507.591 -0.924464 -5.18422 0
M  V30 5462 H 510.082 -1.05694 -3.62819 0
M  V30 5463 H 510.395 -2.75466 -7.22038 0
M  V30 5464 H 508.74 -2.47085 -6.49595 0
M  V30 5465 H 511.931 -1.38989 -4.46989 0
M  V30 5466 H 512.104 -2.16385 -6.10804 0
M  V30 5467 N 505.51 1.54411 -0.315457 0
M  V30 5468 C 506.787 1.92562 0.343398 0
M  V30 5469 C 507.167 1.24423 1.70535 0
M  V30 5470 O 506.515 0.385051 2.25232 0
M  V30 5471 C 506.725 3.46168 0.443687 0
M  V30 5472 C 508.073 4.18659 0.707783 0
M  V30 5473 O 509.097 3.52281 0.52693 0
M  V30 5474 O 507.956 5.36198 1.05612 0
M  V30 5475 H 505.05 0.80379 0.194552 0
M  V30 5476 H 507.596 1.65738 -0.364577 0
M  V30 5477 H 506.368 3.8792 -0.513172 0
M  V30 5478 H 505.991 3.79073 1.19956 0
M  V30 5479 N 506.988 0.0434614 1.5754 0
M  V30 5480 C 508.399 -0.493343 1.80064 0
M  V30 5481 C 508.75 -1.71388 0.955023 0
M  V30 5482 O 507.875 -2.15736 0.169434 0
M  V30 5483 C 508.47 -0.90179 3.26578 0
M  V30 5484 C 507.029 -1.38362 3.50047 0
M  V30 5485 C 506.176 -0.355129 2.75017 0
M  V30 5486 H 509.127 0.2694 1.56397 0
M  V30 5487 H 509.148 -1.76523 3.37075 0
M  V30 5488 H 508.66 -0.013271 3.88098 0
M  V30 5489 H 506.761 -2.29159 2.93798 0
M  V30 5490 H 506.874 -1.3811 4.58762 0
M  V30 5491 H 505.238 -0.826348 2.40922 0
M  V30 5492 H 506.021 0.525172 3.39259 0
M  V30 5493 N 508.466 -1.55915 -0.229846 0
M  V30 5494 C 509.712 -1.78807 -0.956868 0
M  V30 5495 C 510.045 -0.611687 -1.84315 0
M  V30 5496 O 509.32 0.389398 -1.90562 0
M  V30 5497 C 509.603 -3.11718 -1.80288 0
M  V30 5498 C 509.456 -4.3979 -0.943649 0
M  V30 5499 C 510.775 -3.40999 -2.78222 0
M  V30 5500 H 507.894 -0.6505 -0.346437 0
M  V30 5501 H 510.536 -1.88648 -0.226252 0
M  V30 5502 H 508.686 -3.03459 -2.42579 0
M  V30 5503 H 510.358 -4.60059 -0.338121 0
M  V30 5504 H 508.601 -4.33086 -0.248705 0
M  V30 5505 H 509.272 -5.29208 -1.5698 0
M  V30 5506 H 511.748 -3.49332 -2.26067 0
M  V30 5507 H 510.624 -4.35183 -3.34526 0
M  V30 5508 H 510.885 -2.62754 -3.55546 0
M  V30 5509 N 509.944 0.496216 -1.49584 0
M  V30 5510 C 511.36 0.827814 -1.36453 0
M  V30 5511 C 511.56 1.97464 -0.401285 0
M  V30 5512 O 510.616 2.51958 0.165296 0
M  V30 5513 C 511.929 1.16352 -2.77277 0
M  V30 5514 C 513.477 1.27145 -2.86013 0
M  V30 5515 C 513.952 1.64042 -4.27615 0
M  V30 5516 N 515.443 1.71082 -4.30448 0
M  V30 5517 C 516.178 2.01085 -5.36984 0
M  V30 5518 N 515.674 2.2928 -6.5376 0
M  V30 5519 N 517.467 2.02376 -5.24405 0
M  V30 5520 H 509.618 -0.259947 -2.10803 0
M  V30 5521 H 511.881 -0.0537163 -0.946477 0
M  V30 5522 H 511.587 0.394153 -3.49484 0
M  V30 5523 H 511.461 2.10582 -3.12946 0
M  V30 5524 H 513.848 2.03152 -2.1404 0
M  V30 5525 H 513.929 0.309542 -2.5392 0
M  V30 5526 H 513.573 0.88583 -5.00115 0
M  V30 5527 H 513.503 2.6134 -4.57175 0
M  V30 5528 H 515.994 1.51434 -3.46232 0
M  V30 5529 H 516.307 2.51376 -7.30774 0
M  V30 5530 H 514.652 2.26726 -6.56978 0
M  V30 5531 H 517.843 1.79829 -4.32179 0
M  V30 5532 H 518.016 2.25425 -6.07526 0
M  V30 5533 N 511.423 1.38739 0.74761 0
M  V30 5534 C 512.651 1.38521 1.53686 0
M  V30 5535 C 513.066 -0.0235129 1.88785 0
M  V30 5536 O 512.423 -0.991662 1.53207 0
M  V30 5537 C 512.474 2.24641 2.83229 0
M  V30 5538 O 512.195 3.60026 2.49625 0
M  V30 5539 C 513.696 2.32669 3.77333 0
M  V30 5540 H 510.916 0.473589 0.475347 0
M  V30 5541 H 513.46 1.82395 0.924786 0
M  V30 5542 H 511.615 1.84213 3.40799 0
M  V30 5543 H 512.029 4.05435 3.3275 0
M  V30 5544 H 513.503 2.97201 4.65162 0
M  V30 5545 H 513.98 1.3421 4.18192 0
M  V30 5546 H 514.586 2.73512 3.25685 0
M  V30 5547 N 512.901 -0.976442 1.23707 0
M  V30 5548 C 514.141 -1.73331 1.08332 0
M  V30 5549 C 514.505 -1.88346 -0.372781 0
M  V30 5550 O 515.706 -2.60877 -0.647813 0
M  V30 5551 C 513.977 -3.09159 1.7932 0
M  V30 5552 S 515.536 -4.00376 1.79567 0
M  V30 5553 H 512.354 -0.596045 0.387622 0
M  V30 5554 H 514.956 -1.16625 1.56904 0
M  V30 5555 H 513.66 -2.95884 2.84395 0
M  V30 5556 H 513.191 -3.70932 1.31046 0
M  V30 5557 H 515.206 -4.88742 0.857094 0
M  V30 5558 N 514.379 -1.04941 -1.1758 0
M  V30 5559 C 515.626 -0.757989 -1.87779 0
M  V30 5560 C 515.954 0.714827 -1.80888 0
M  V30 5561 O 515.209 1.53824 -1.20982 0
M  V30 5562 C 515.508 -1.18062 -3.37337 0
M  V30 5563 C 515.174 -2.65521 -3.6443 0
M  V30 5564 C 513.836 -3.05804 -3.71534 0
M  V30 5565 C 516.188 -3.60822 -3.76108 0
M  V30 5566 C 513.516 -4.40256 -3.87803 0
M  V30 5567 C 515.868 -4.95005 -3.93895 0
M  V30 5568 C 514.532 -5.34945 -3.99237 0
M  V30 5569 H 513.802 -0.277368 -0.68713 0
M  V30 5570 H 516.449 -1.31603 -1.39115 0
M  V30 5571 H 514.754 -0.541525 -3.8804 0
M  V30 5572 H 516.451 -0.932368 -3.9001 0
M  V30 5573 H 513.041 -2.33324 -3.59524 0
M  V30 5574 H 517.225 -3.30841 -3.69943 0
M  V30 5575 H 512.481 -4.70707 -3.90186 0
M  V30 5576 H 516.655 -5.68746 -4.01872 0
M  V30 5577 H 514.282 -6.39135 -4.11596 0
M  V30 5578 N 515.857 1.33968 -0.830081 0
M  V30 5579 C 516.767 2.33164 -0.259207 0
M  V30 5580 C 517.783 1.62951 0.610164 0
M  V30 5581 O 518.959 1.94668 0.516369 0
M  V30 5582 C 516.024 3.42088 0.563598 0
M  V30 5583 C 515.085 4.28037 -0.329014 0
M  V30 5584 C 514.318 5.3176 0.454616 0
M  V30 5585 O 514.541 5.44876 1.6872 0
M  V30 5586 O 513.475 6.01669 -0.166794 0
M  V30 5587 H 517.301 2.83832 -1.08041 0
M  V30 5588 H 514.886 1.37154 -0.59239 0
M  V30 5589 H 516.768 4.08581 1.03147 0
M  V30 5590 H 515.443 2.93651 1.36201 0
M  V30 5591 H 514.35 3.64443 -0.844538 0
M  V30 5592 H 515.683 4.79934 -1.09196 0
M  V30 5593 N 517.335 0.585699 1.46312 0
M  V30 5594 C 518.563 0.0781299 2.06752 0
M  V30 5595 C 518.978 -1.22812 1.43396 0
M  V30 5596 O 518.335 -1.74318 0.540314 0
M  V30 5597 C 518.386 -0.0911927 3.61385 0
M  V30 5598 O 518.107 1.16336 4.22371 0
M  V30 5599 C 519.608 -0.632765 4.38761 0
M  V30 5600 H 516.828 0.0588188 0.668417 0
M  V30 5601 H 519.372 0.807218 1.87894 0
M  V30 5602 H 517.527 -0.770514 3.7966 0
M  V30 5603 H 517.941 0.979082 5.15281 0
M  V30 5604 H 519.415 -0.70041 5.47538 0
M  V30 5605 H 519.892 -1.65039 4.07012 0
M  V30 5606 H 520.498 0.0117856 4.25298 0
M  V30 5607 N 518.813 -1.54241 0.323641 0
M  V30 5608 C 520.06 -2.0057 -0.27891 0
M  V30 5609 C 520.388 -1.21181 -1.52136 0
M  V30 5610 O 519.643 -0.282043 -1.93657 0
M  V30 5611 C 519.942 -3.5129 -0.658031 0
M  V30 5612 C 519.608 -4.48281 0.485252 0
M  V30 5613 C 518.27 -4.74519 0.799055 0
M  V30 5614 C 520.622 -5.05909 1.25322 0
M  V30 5615 C 517.95 -5.55643 1.88354 0
M  V30 5616 C 520.302 -5.88215 2.32779 0
M  V30 5617 C 518.966 -6.12755 2.64741 0
M  V30 5618 H 518.236 -0.733938 -0.10206 0
M  V30 5619 H 520.883 -1.862 0.447435 0
M  V30 5620 H 519.188 -3.63388 -1.4648 0
M  V30 5621 H 520.885 -3.84578 -1.1358 0
M  V30 5622 H 517.475 -4.27979 0.230593 0
M  V30 5623 H 521.659 -4.8562 1.02404 0
M  V30 5624 H 516.915 -5.72888 2.13564 0
M  V30 5625 H 521.089 -6.31888 2.92729 0
M  V30 5626 H 518.716 -6.75404 3.48904 0
M  V30 5627 N 520.291 -0.0518155 -1.57515 0
M  V30 5628 C 521.702 0.483787 -1.80323 0
M  V30 5629 C 522.053 1.70879 -0.964099 0
M  V30 5630 O 521.178 2.15643 -0.180872 0
M  V30 5631 C 521.773 0.884459 -3.27052 0
M  V30 5632 C 520.332 1.36504 -3.50776 0
M  V30 5633 C 519.479 0.340539 -2.75201 0
M  V30 5634 H 522.43 -0.277691 -1.56252 0
M  V30 5635 H 522.451 1.74733 -3.38007 0
M  V30 5636 H 521.963 -0.00731093 -3.88099 0
M  V30 5637 H 520.064 2.27598 -2.95009 0
M  V30 5638 H 520.177 1.35675 -4.59488 0
M  V30 5639 H 518.541 0.81356 -2.41357 0
M  V30 5640 H 519.324 -0.543156 -3.38976 0
M  V30 5641 N 521.769 1.56035 0.221574 0
M  V30 5642 C 523.046 1.69837 0.970301 0
M  V30 5643 C 523.426 0.599065 2.02421 0
M  V30 5644 O 522.774 -0.393929 2.25079 0
M  V30 5645 C 522.984 3.11148 1.58076 0
M  V30 5646 C 524.332 3.70555 2.07302 0
M  V30 5647 O 525.356 3.14109 1.6797 0
M  V30 5648 O 524.215 4.69562 2.79596 0
M  V30 5649 H 521.309 0.691727 0.453257 0
M  V30 5650 H 523.855 1.68353 0.213358 0
M  V30 5651 H 522.627 3.82617 0.819759 0
M  V30 5652 H 522.25 3.16749 2.40324 0
M  V30 5653 N 523.247 -0.488276 1.49845 0
M  V30 5654 C 524.194 -1.58836 1.67451 0
M  V30 5655 C 525.164 -1.57886 0.515857 0
M  V30 5656 O 526.349 -1.75679 0.744403 0
M  V30 5657 C 523.489 -2.96915 1.75885 0
M  V30 5658 C 522.602 -3.07784 3.03138 0
M  V30 5659 C 521.737 -4.36673 3.02473 0
M  V30 5660 C 520.776 -4.41222 4.24252 0
M  V30 5661 N 519.913 -5.61557 4.21424 0
M  V30 5662 H 524.753 -1.43131 2.61376 0
M  V30 5663 H 522.29 -0.696186 1.29583 0
M  V30 5664 H 524.248 -3.76965 1.78755 0
M  V30 5665 H 522.878 -3.11295 0.85414 0
M  V30 5666 H 521.93 -2.20717 3.09819 0
M  V30 5667 H 523.242 -3.07005 3.93128 0
M  V30 5668 H 522.396 -5.25055 3.03977 0
M  V30 5669 H 521.135 -4.40037 2.10283 0
M  V30 5670 H 520.14 -3.5124 4.22978 0
M  V30 5671 H 521.365 -4.39564 5.17649 0
M  V30 5672 H 519.311 -5.65738 3.32078 0
M  V30 5673 H 519.228 -5.62447 5.05163 0
M  V30 5674 H 520.496 -6.52111 4.2705 0
M  V30 5675 N 524.725 -1.39134 -0.740242 0
M  V30 5676 C 525.971 -1.36273 -1.50192 0
M  V30 5677 C 526.304 0.0430136 -1.94152 0
M  V30 5678 O 525.579 1.00691 -1.66408 0
M  V30 5679 C 525.862 -2.33041 -2.74525 0
M  V30 5680 C 525.715 -3.82535 -2.36617 0
M  V30 5681 C 527.034 -2.27723 -3.76604 0
M  V30 5682 H 524.153 -0.496323 -0.544823 0
M  V30 5683 H 526.795 -1.70085 -0.846815 0
M  V30 5684 H 524.945 -2.04337 -3.30422 0
M  V30 5685 H 526.617 -4.21967 -1.86391 0
M  V30 5686 H 524.86 -3.99565 -1.68909 0
M  V30 5687 H 525.531 -4.45723 -3.2563 0
M  V30 5688 H 528.007 -2.53091 -3.30279 0
M  V30 5689 H 526.883 -2.97519 -4.61274 0
M  V30 5690 H 527.144 -1.28049 -4.2315 0
M  V30 5691 N 526.204 0.969867 -1.24223 0
M  V30 5692 C 527.167 2.04564 -1.03373 0
M  V30 5693 C 528.167 1.60798 0.00819206 0
M  V30 5694 O 529.357 1.72641 -0.232567 0
M  V30 5695 C 526.489 3.36163 -0.566343 0
M  V30 5696 H 527.682 2.24494 -1.98853 0
M  V30 5697 H 525.235 1.1448 -1.06415 0
M  V30 5698 H 525.97 3.21925 0.391751 0
M  V30 5699 H 525.755 3.69273 -1.31834 0
M  V30 5700 H 527.245 4.1526 -0.441435 0
M  V30 5701 N 527.682 1.05563 1.17022 0
M  V30 5702 C 528.931 0.763036 1.8671 0
M  V30 5703 C 529.244 -0.712857 1.82147 0
M  V30 5704 O 530.45 -1.11955 2.47343 0
M  V30 5705 C 528.906 1.31474 3.35026 0
M  V30 5706 C 528.514 2.82034 3.48081 0
M  V30 5707 C 530.258 1.09935 4.10018 0
M  V30 5708 C 528.165 3.30486 4.90442 0
M  V30 5709 H 527.095 0.281747 0.699382 0
M  V30 5710 H 529.746 1.2734 1.32124 0
M  V30 5711 H 528.128 0.732171 3.89173 0
M  V30 5712 H 529.302 3.46178 3.04133 0
M  V30 5713 H 527.617 3.02156 2.86515 0
M  V30 5714 H 530.214 1.43632 5.15048 0
M  V30 5715 H 530.557 0.0373072 4.16283 0
M  V30 5716 H 531.09 1.64732 3.62089 0
M  V30 5717 H 527.829 4.36137 4.89352 0
M  V30 5718 H 527.349 2.71086 5.35044 0
M  V30 5719 H 529.028 3.25382 5.59227 0
M  V30 5720 N 529.16 -1.33526 0.837174 0
M  V30 5721 C 530.092 -2.28077 0.226579 0
M  V30 5722 C 531.105 -1.51666 -0.591717 0
M  V30 5723 O 532.294 -1.73511 -0.419064 0
M  V30 5724 C 529.394 -3.31597 -0.69978 0
M  V30 5725 C 528.567 -4.37329 0.0788067 0
M  V30 5726 C 527.626 -5.20526 -0.770637 0
M  V30 5727 O 526.652 -5.68811 -0.210453 0
M  V30 5728 N 527.854 -5.41639 -2.08825 0
M  V30 5729 H 530.619 -2.81115 1.03897 0
M  V30 5730 H 528.18 -1.46201 0.695476 0
M  V30 5731 H 530.172 -3.84158 -1.27298 0
M  V30 5732 H 528.742 -2.78848 -1.41288 0
M  V30 5733 H 527.962 -3.8529 0.833381 0
M  V30 5734 H 529.25 -5.05079 0.614238 0
M  V30 5735 H 528.648 -5.04108 -2.56693 0
M  V30 5736 H 527.205 -5.97263 -2.60998 0
M  V30 5737 N 530.638 -0.59345 -1.46 0
M  V30 5738 C 531.568 0.121192 -2.33185 0
M  V30 5739 C 532.549 0.872977 -1.4599 0
M  V30 5740 O 533.734 0.846321 -1.74789 0
M  V30 5741 C 530.864 1.12844 -3.28456 0
M  V30 5742 C 529.818 0.4908 -4.25177 0
M  V30 5743 C 529.144 1.60529 -5.10034 0
M  V30 5744 C 530.444 -0.578949 -5.19081 0
M  V30 5745 H 532.138 -0.606767 -2.93187 0
M  V30 5746 H 529.684 -0.293242 -1.40983 0
M  V30 5747 H 531.637 1.63684 -3.88311 0
M  V30 5748 H 530.361 1.88681 -2.66584 0
M  V30 5749 H 529.02 0.00339328 -3.666 0
M  V30 5750 H 528.668 2.35359 -4.44539 0
M  V30 5751 H 528.368 1.18422 -5.75543 0
M  V30 5752 H 529.892 2.11623 -5.72755 0
M  V30 5753 H 531.306 -0.155199 -5.7309 0
M  V30 5754 H 529.703 -0.920947 -5.92991 0
M  V30 5755 H 530.773 -1.46109 -4.62364 0
M  V30 5756 N 532.116 1.54067 -0.331816 0
M  V30 5757 C 533.064 2.26105 0.54582 0
M  V30 5758 C 534.058 1.27816 1.11173 0
M  V30 5759 O 535.264 1.45565 1.05882 0
M  V30 5760 H 531.639 0.726363 0.194683 0
M  V30 5761 H 533.61 2.98282 -0.083931 0
M  V30 5762 C 532.359 3.03814 1.69092 0
M  V30 5763 H 531.682 3.79269 1.26473 0
M  V30 5764 H 533.122 3.57453 2.28043 0
M  V30 5765 C 531.581 2.12606 2.61343 0
M  V30 5766 O 532.111 1.71437 3.6328 0
M  V30 5767 N 530.317 1.77925 2.29763 0
M  V30 5768 H 529.864 2.11602 1.46909 0
M  V30 5769 H 529.822 1.1718 2.91747 0
M  V30 5770 N 533.594 0.0601682 1.57485 0
M  V30 5771 C 534.871 -0.651956 1.84415 0
M  V30 5772 C 535.251 -1.88498 0.950361 0
M  V30 5773 O 534.599 -2.28496 0.0136719 0
M  V30 5774 C 534.809 -1.00069 3.34346 0
M  V30 5775 C 536.157 -1.37915 4.01578 0
M  V30 5776 O 537.181 -1.09277 3.39024 0
M  V30 5777 O 536.04 -1.91399 5.11887 0
M  V30 5778 H 533.134 -0.322668 0.761455 0
M  V30 5779 H 535.68 0.0902159 1.6946 0
M  V30 5780 H 534.452 -0.124463 3.91102 0
M  V30 5781 H 534.075 -1.80001 3.54521 0
M  V30 5782 N 535.072 -1.5615 -0.213296 0
M  V30 5783 C 536.3 -1.83638 -0.953139 0
M  V30 5784 C 536.715 -0.640362 -1.77609 0
M  V30 5785 O 536.072 0.391071 -1.78261 0
M  V30 5786 C 536.123 -3.09735 -1.86405 0
M  V30 5787 O 535.844 -4.24723 -1.07435 0
M  V30 5788 C 537.345 -3.5027 -2.71709 0
M  V30 5789 H 534.565 -0.610263 -0.278962 0
M  V30 5790 H 537.109 -2.03247 -0.226035 0
M  V30 5791 H 535.264 -2.92077 -2.545 0
M  V30 5792 H 535.678 -4.9641 -1.69343 0
M  V30 5793 H 537.152 -4.41515 -3.31313 0
M  V30 5794 H 537.629 -2.72406 -3.44516 0
M  V30 5795 H 538.235 -3.70396 -2.09015 0
M  V30 5796 N 536.55 0.480323 -1.50102 0
M  V30 5797 C 537.5 1.57685 -1.6468 0
M  V30 5798 C 538.484 1.52878 -0.5017 0
M  V30 5799 O 539.676 1.60058 -0.755668 0
M  V30 5800 C 536.805 2.96185 -1.73578 0
M  V30 5801 C 535.891 3.0591 -2.93734 0
M  V30 5802 N 536.282 2.85471 -4.1754 0
M  V30 5803 C 534.58 3.37036 -2.92101 0
M  V30 5804 C 535.281 2.99921 -4.9842 0
M  V30 5805 N 534.257 3.29715 -4.32191 0
M  V30 5806 H 538.059 1.40568 -2.58104 0
M  V30 5807 H 535.573 0.686874 -1.47159 0
M  V30 5808 H 537.57 3.75015 -1.82124 0
M  V30 5809 H 536.23 3.14356 -0.813057 0
M  V30 5810 H 537.241 2.61235 -4.47188 0
M  V30 5811 H 533.918 3.61253 -2.09291 0
M  V30 5812 H 535.308 2.88436 -6.06839 0
M  V30 5813 N 538.028 1.39524 0.732853 0
M  V30 5814 C 539.439 1.32905 1.31122 0
M  V30 5815 C 539.79 -0.00558708 1.96199 0
M  V30 5816 O 538.915 -0.907706 1.96443 0
M  V30 5817 C 539.51 2.40704 2.38426 0
M  V30 5818 C 538.069 2.37599 2.91931 0
M  V30 5819 C 537.216 2.2248 1.65523 0
M  V30 5820 H 540.167 1.49581 0.530207 0
M  V30 5821 H 540.188 2.07616 3.18867 0
M  V30 5822 H 539.7 3.37829 1.91033 0
M  V30 5823 H 537.801 1.44119 3.43599 0
M  V30 5824 H 537.914 3.32538 3.44899 0
M  V30 5825 H 536.278 1.69691 1.8994 0
M  V30 5826 H 537.061 3.21577 1.20178 0
M  V30 5827 N 539.506 -0.963266 1.24736 0
M  V30 5828 C 540.469 -2.04013 1.04457 0
M  V30 5829 C 541.469 -1.608 0.000335555 0
M  V30 5830 O 542.659 -1.72515 0.241719 0
M  V30 5831 C 539.791 -3.35858 0.584162 0
M  V30 5832 H 540.984 -2.23436 2.00041 0
M  V30 5833 H 538.537 -1.13914 1.07021 0
M  V30 5834 H 539.272 -3.22128 -0.374673 0
M  V30 5835 H 539.057 -3.68568 1.3379 0
M  V30 5836 H 540.547 -4.1502 0.463451 0
M  V30 5837 N 540.985 -1.06182 -1.16461 0
M  V30 5838 C 541.915 -0.692861 -2.22984 0
M  V30 5839 C 542.896 0.314122 -1.67174 0
M  V30 5840 O 544.081 0.189499 -1.93273 0
M  V30 5841 C 541.211 -0.07732 -3.47214 0
M  V30 5842 C 540.165 -1.01015 -4.15909 0
M  V30 5843 C 539.491 -0.257973 -5.34077 0
M  V30 5844 C 540.791 -2.33868 -4.67015 0
M  V30 5845 H 542.485 -1.58343 -2.54102 0
M  V30 5846 H 540.031 -0.76279 -1.22137 0
M  V30 5847 H 541.984 0.19266 -4.20959 0
M  V30 5848 H 540.708 0.848254 -3.15392 0
M  V30 5849 H 539.367 -1.26486 -3.44088 0
M  V30 5850 H 539.015 0.670684 -4.98509 0
M  V30 5851 H 538.715 -0.879638 -5.80979 0
M  V30 5852 H 540.239 0.00448788 -6.106 0
M  V30 5853 H 541.653 -2.1279 -5.32347 0
M  V30 5854 H 540.05 -2.91522 -5.24533 0
M  V30 5855 H 541.12 -2.97019 -3.83286 0
M  V30 5856 N 542.463 1.3308 -0.844243 0
M  V30 5857 C 543.688 2.02341 -0.455282 0
M  V30 5858 C 544.113 1.6308 0.93737 0
M  V30 5859 O 543.471 0.826118 1.61385 0
M  V30 5860 C 543.519 3.55743 -0.58988 0
M  V30 5861 O 542.623 4.1063 0.38166 0
M  V30 5862 H 541.964 0.637898 -0.184343 0
M  V30 5863 H 544.494 1.6986 -1.14056 0
M  V30 5864 H 544.504 4.05243 -0.473522 0
M  V30 5865 H 543.179 3.83662 -1.60549 0
M  V30 5866 H 541.756 3.72236 0.22241 0
M  V30 5867 N 543.941 0.601185 1.45683 0
M  V30 5868 C 545.19 0.0914953 2.01492 0
M  V30 5869 C 545.503 -1.28331 1.47616 0
M  V30 5870 O 546.709 -1.88537 1.95362 0
M  V30 5871 C 545.165 0.11291 3.59723 0
M  V30 5872 C 544.773 1.48717 4.22596 0
M  V30 5873 C 546.517 -0.341871 4.23121 0
M  V30 5874 C 544.424 1.46531 5.7296 0
M  V30 5875 H 543.354 0.0304365 0.753385 0
M  V30 5876 H 546.005 0.755568 1.67223 0
M  V30 5877 H 544.387 -0.617692 3.91153 0
M  V30 5878 H 545.561 2.23897 4.02749 0
M  V30 5879 H 543.876 1.88351 3.71366 0
M  V30 5880 H 546.473 -0.377304 5.33367 0
M  V30 5881 H 546.816 -1.36325 3.93346 0
M  V30 5882 H 547.349 0.335256 3.96385 0
M  V30 5883 H 544.088 2.46408 6.07423 0
M  V30 5884 H 543.608 0.755997 5.95017 0
M  V30 5885 H 545.287 1.18618 6.36034 0
M  V30 5886 N 545.419 -1.53889 0.339982 0
M  V30 5887 C 546.83 -1.86139 -0.144671 0
M  V30 5888 C 547.181 -1.2613 -1.50285 0
M  V30 5889 O 546.306 -0.573515 -2.08662 0
M  V30 5890 C 546.901 -3.37728 -0.269285 0
M  V30 5891 C 545.46 -3.69868 -0.698168 0
M  V30 5892 C 544.607 -2.76777 0.170249 0
M  V30 5893 H 547.558 -1.48503 0.559704 0
M  V30 5894 H 547.579 -3.64331 -1.0974 0
M  V30 5895 H 547.091 -3.81375 0.719366 0
M  V30 5896 H 545.192 -3.31764 -1.69597 0
M  V30 5897 H 545.305 -4.76582 -0.490533 0
M  V30 5898 H 543.669 -2.52188 -0.356844 0
M  V30 5899 H 544.452 -3.23253 1.15597 0
M  V30 5900 N 546.897 -0.0685191 -1.57451 0
M  V30 5901 C 547.807 0.914677 -2.16034 0
M  V30 5902 C 548.823 1.32938 -1.12265 0
M  V30 5903 O 549.999 1.40275 -1.44516 0
M  V30 5904 C 547.064 2.16519 -2.70777 0
M  V30 5905 C 546.125 1.80721 -3.89408 0
M  V30 5906 C 545.358 2.9981 -4.41531 0
M  V30 5907 O 545.581 4.13727 -3.92666 0
M  V30 5908 O 544.515 2.79817 -5.32903 0
M  V30 5909 H 548.341 0.446364 -3.00402 0
M  V30 5910 H 545.926 0.154367 -1.486 0
M  V30 5911 H 547.808 2.89856 -3.05878 0
M  V30 5912 H 546.483 2.62454 -1.89471 0
M  V30 5913 H 545.39 1.04646 -3.59166 0
M  V30 5914 H 546.723 1.39571 -4.71997 0
M  V30 5915 N 548.375 1.56261 0.205012 0
M  V30 5916 C 549.305 1.96779 1.257 0
M  V30 5917 C 550.286 0.838309 1.48008 0
M  V30 5918 O 551.471 1.10189 1.59913 0
M  V30 5919 C 548.601 2.29876 2.60335 0
M  V30 5920 C 547.555 3.45469 2.52656 0
M  V30 5921 C 546.881 3.64215 3.91473 0
M  V30 5922 C 548.181 4.79954 2.06014 0
M  V30 5923 H 549.875 2.84904 0.920338 0
M  V30 5924 H 547.421 1.37072 0.441277 0
M  V30 5925 H 549.374 2.56814 3.34102 0
M  V30 5926 H 548.098 1.38622 2.95722 0
M  V30 5927 H 546.757 3.18605 1.81345 0
M  V30 5928 H 546.405 2.70309 4.24196 0
M  V30 5929 H 546.105 4.41973 3.87213 0
M  V30 5930 H 547.629 3.93519 4.66878 0
M  V30 5931 H 549.043 5.05989 2.69533 0
M  V30 5932 H 547.44 5.61111 2.12777 0
M  V30 5933 H 548.51 4.74201 1.01297 0
M  V30 5934 N 549.853 -0.472356 1.50355 0
M  V30 5935 C 550.786 -1.58923 1.63764 0
M  V30 5936 C 551.764 -1.55173 0.485793 0
M  V30 5937 O 552.948 -1.74815 0.705132 0
M  V30 5938 C 550.075 -2.97497 1.61905 0
M  V30 5939 C 549.121 -3.19405 2.82635 0
M  V30 5940 S 549.954 -2.99441 4.43954 0
M  V30 5941 C 551.11 -4.40359 4.44786 0
M  V30 5942 H 551.343 -1.47309 2.58239 0
M  V30 5943 H 548.876 -0.659601 1.39602 0
M  V30 5944 H 550.834 -3.77389 1.61518 0
M  V30 5945 H 549.495 -3.06502 0.686683 0
M  V30 5946 H 548.688 -4.20636 2.77636 0
M  V30 5947 H 548.29 -2.47283 2.80583 0
M  V30 5948 H 550.582 -5.32969 4.1827 0
M  V30 5949 H 551.525 -4.50403 5.46391 0
M  V30 5950 H 551.933 -4.22378 3.74509 0
M  V30 5951 N 551.331 -1.39911 -0.725443 0
M  V30 5952 C 552.747 -1.21725 -1.03224 0
M  V30 5953 C 552.947 -0.0855224 -2.01318 0
M  V30 5954 O 552.003 0.55976 -2.46217 0
M  V30 5955 C 553.316 -2.55511 -1.58539 0
M  V30 5956 C 554.864 -2.62439 -1.70572 0
M  V30 5957 C 555.339 -3.9647 -2.29294 0
M  V30 5958 N 556.83 -3.98159 -2.36692 0
M  V30 5959 C 557.565 -4.98647 -2.83088 0
M  V30 5960 N 557.061 -6.0953 -3.2931 0
M  V30 5961 N 558.854 -4.8602 -2.82384 0
M  V30 5962 H 551.005 -2.12267 -0.075048 0
M  V30 5963 H 553.268 -0.943136 -0.0959066 0
M  V30 5964 H 552.974 -3.38926 -0.939249 0
M  V30 5965 H 552.848 -2.75905 -2.57208 0
M  V30 5966 H 555.235 -1.79401 -2.34306 0
M  V30 5967 H 555.316 -2.45885 -0.705297 0
M  V30 5968 H 554.96 -4.79942 -1.66186 0
M  V30 5969 H 554.89 -4.10349 -3.30032 0
M  V30 5970 H 557.381 -3.18085 -2.04035 0
M  V30 5971 H 557.694 -6.82106 -3.6325 0
M  V30 5972 H 556.039 -6.1311 -3.27294 0
M  V30 5973 H 559.23 -3.98493 -2.45603 0
M  V30 5974 H 559.403 -5.64478 -3.18226 0
M  V30 5975 N 552.809 0.956637 -1.25245 0
M  V30 5976 C 554.058 1.69537 -1.0927 0
M  V30 5977 C 554.371 1.92136 0.366503 0
M  V30 5978 O 555.577 2.63687 0.64665 0
M  V30 5979 C 554.033 3.05211 -1.9072 0
M  V30 5980 C 553.641 2.90416 -3.41119 0
M  V30 5981 C 555.385 3.82882 -1.83308 0
M  V30 5982 C 553.292 4.21468 -4.14872 0
M  V30 5983 H 552.222 0.635804 -0.405302 0
M  V30 5984 H 554.873 1.06513 -1.49423 0
M  V30 5985 H 553.255 3.69128 -1.43389 0
M  V30 5986 H 554.429 2.35444 -3.9611 0
M  V30 5987 H 552.744 2.26203 -3.49602 0
M  V30 5988 H 555.341 4.79944 -2.35706 0
M  V30 5989 H 555.684 4.0853 -0.800572 0
M  V30 5990 H 556.217 3.25711 -2.28379 0
M  V30 5991 H 552.956 4.01009 -5.18529 0
M  V30 5992 H 552.476 4.76213 -3.64665 0
M  V30 5993 H 554.155 4.90022 -4.22478 0
M  V30 5994 N 554.287 1.06798 1.15896 0
M  V30 5995 C 555.217 0.704677 2.22613 0
M  V30 5996 C 556.198 -0.305252 1.67339 0
M  V30 5997 O 557.383 -0.179247 1.93371 0
M  V30 5998 C 554.513 0.0957325 3.47168 0
M  V30 5999 C 553.467 1.0322 4.15367 0
M  V30 6000 C 552.793 0.286293 5.33933 0
M  V30 6001 C 554.093 2.36341 4.65768 0
M  V30 6002 H 555.787 1.59688 2.53259 0
M  V30 6003 H 553.333 0.769257 1.21731 0
M  V30 6004 H 555.286 -0.170333 4.21056 0
M  V30 6005 H 554.01 -0.831516 3.15838 0
M  V30 6006 H 552.669 1.28309 3.43413 0
M  V30 6007 H 552.317 -0.644237 4.98857 0
M  V30 6008 H 552.017 0.910436 5.80504 0
M  V30 6009 H 553.541 0.0278938 6.10594 0
M  V30 6010 H 554.955 2.1561 5.31211 0
M  V30 6011 H 553.352 2.94299 5.2298 0
M  V30 6012 H 554.422 2.99047 3.81705 0
M  V30 6013 N 555.766 -1.3263 0.851289 0
M  V30 6014 C 557.012 -1.9766 0.453694 0
M  V30 6015 C 557.345 -1.67225 -0.987396 0
M  V30 6016 O 556.62 -0.958693 -1.69232 0
M  V30 6017 C 556.903 -3.5344 0.68936 0
M  V30 6018 C 556.756 -3.93517 2.17862 0
M  V30 6019 C 558.075 -4.39866 0.143555 0
M  V30 6020 H 555.194 -0.717989 0.166314 0
M  V30 6021 H 557.836 -1.57068 1.06909 0
M  V30 6022 H 555.986 -3.88147 0.165546 0
M  V30 6023 H 557.658 -3.69006 2.76826 0
M  V30 6024 H 555.901 -3.42798 2.65841 0
M  V30 6025 H 556.572 -5.02065 2.29422 0
M  V30 6026 H 559.048 -4.11875 0.591451 0
M  V30 6027 H 557.924 -5.47858 0.338043 0
M  V30 6028 H 558.185 -4.31696 -0.953466 0
M  V30 6029 N 557.244 -0.608902 -1.45362 0
M  V30 6030 C 558.521 -0.0365378 -1.95566 0
M  V30 6031 C 558.901 1.43169 -1.55131 0
M  V30 6032 O 558.249 2.1349 -0.814513 0
M  V30 6033 C 558.459 -0.236026 -3.48201 0
M  V30 6034 C 559.807 -0.117518 -4.24437 0
M  V30 6035 O 560.831 -0.166217 -3.55812 0
M  V30 6036 O 559.69 -0.00372127 -5.465 0
M  V30 6037 H 556.784 0.0349874 -0.82626 0
M  V30 6038 H 559.33 -0.679055 -1.55521 0
M  V30 6039 H 558.102 -1.25569 -3.70605 0
M  V30 6040 H 557.725 0.441691 -3.95139 0
M  V30 6041 N 558.722 1.53707 -0.348139 0
M  V30 6042 C 559.968 2.01286 0.247332 0
M  V30 6043 C 560.301 1.23546 1.49834 0
M  V30 6044 O 559.576 0.324331 1.91777 0
M  V30 6045 C 559.859 3.55768 0.556858 0
M  V30 6046 C 559.712 4.44216 -0.706564 0
M  V30 6047 C 561.031 4.1841 1.3646 0
M  V30 6048 H 558.15 0.731677 0.0884201 0
M  V30 6049 H 560.792 1.84106 -0.469584 0
M  V30 6050 H 558.942 3.70539 1.16761 0
M  V30 6051 H 560.614 4.41274 -1.34444 0
M  V30 6052 H 558.857 4.12892 -1.33052 0
M  V30 6053 H 559.528 5.50202 -0.445186 0
M  V30 6054 H 562.004 4.07365 0.848113 0
M  V30 6055 H 560.88 5.26563 1.54992 0
M  V30 6056 H 561.141 3.7333 2.36805 0
M  V30 6057 N 560.2 0.0768682 1.57412 0
M  V30 6058 C 561.11 -0.903207 2.16516 0
M  V30 6059 C 562.126 -1.32341 1.12968 0
M  V30 6060 O 563.302 -1.39507 1.45258 0
M  V30 6061 C 560.367 -2.1508 2.71922 0
M  V30 6062 C 559.428 -1.78653 3.90361 0
M  V30 6063 C 558.661 -2.97465 4.43114 0
M  V30 6064 O 558.884 -4.11638 3.94854 0
M  V30 6065 O 557.818 -2.76987 5.3438 0
M  V30 6066 H 561.644 -0.430427 3.00634 0
M  V30 6067 H 559.229 -0.146485 1.4868 0
M  V30 6068 H 561.111 -2.8823 3.07411 0
M  V30 6069 H 559.786 -2.61446 1.9086 0
M  V30 6070 H 558.693 -1.0274 3.59716 0
M  V30 6071 H 560.026 -1.37066 4.7273 0
M  V30 6072 N 561.678 -1.56367 -0.196722 0
M  V30 6073 C 562.625 -1.94417 -1.24382 0
M  V30 6074 C 563.595 -0.804543 -1.45315 0
M  V30 6075 O 564.78 -1.06256 -1.58475 0
M  V30 6076 C 561.92 -2.28757 -2.58388 0
M  V30 6077 C 561.033 -3.55775 -2.45047 0
M  V30 6078 C 560.168 -3.79445 -3.71746 0
M  V30 6079 C 559.207 -4.99894 -3.53231 0
M  V30 6080 N 558.344 -5.19826 -4.71938 0
M  V30 6081 H 563.184 -2.83691 -0.912338 0
M  V30 6082 H 560.721 -1.40392 -0.439135 0
M  V30 6083 H 562.679 -2.46682 -3.36457 0
M  V30 6084 H 561.309 -1.42625 -2.89582 0
M  V30 6085 H 560.361 -3.45905 -1.58284 0
M  V30 6086 H 561.673 -4.44 -2.27299 0
M  V30 6087 H 560.827 -3.97601 -4.58256 0
M  V30 6088 H 559.566 -2.89546 -3.92446 0
M  V30 6089 H 558.571 -4.81662 -2.65107 0
M  V30 6090 H 559.796 -5.913 -3.33978 0
M  V30 6091 H 557.742 -4.32875 -4.92905 0
M  V30 6092 H 557.659 -6.02228 -4.57009 0
M  V30 6093 H 558.927 -5.42439 -5.59803 0
M  V30 6094 N 563.156 0.464375 -1.50603 0
M  V30 6095 C 564.402 1.21776 -1.62168 0
M  V30 6096 C 564.735 1.91476 -0.324154 0
M  V30 6097 O 564.01 1.8242 0.674782 0
M  V30 6098 C 564.293 2.25614 -2.80661 0
M  V30 6099 C 564.146 1.60175 -4.20314 0
M  V30 6100 C 565.465 3.26862 -2.94702 0
M  V30 6101 H 562.584 0.44137 -0.590222 0
M  V30 6102 H 565.226 0.510623 -1.8301 0
M  V30 6103 H 563.376 2.85923 -2.63021 0
M  V30 6104 H 565.048 1.03411 -4.4956 0
M  V30 6105 H 563.291 0.904697 -4.24261 0
M  V30 6106 H 563.962 2.35665 -4.99165 0
M  V30 6107 H 566.438 2.76582 -3.10872 0
M  V30 6108 H 565.314 3.96839 -3.79223 0
M  V30 6109 H 565.575 3.91382 -2.05603 0
M  V30 6110 N 564.634 1.40294 0.718013 0
M  V30 6111 C 565.911 1.2894 1.47084 0
M  V30 6112 C 566.291 -0.0933625 2.10893 0
M  V30 6113 O 565.639 -1.10598 1.99951 0
M  V30 6114 C 565.849 2.4264 2.50852 0
M  V30 6115 C 567.197 2.8276 3.16752 0
M  V30 6116 O 568.221 2.42215 2.61171 0
M  V30 6117 O 567.08 3.528 4.17366 0
M  V30 6118 H 564.174 0.506236 0.653952 0
M  V30 6119 H 566.72 1.52208 0.750394 0
M  V30 6120 H 565.492 3.35009 2.022 0
M  V30 6121 H 565.115 2.21129 3.30435 0
M  V30 6122 N 566.112 -0.949982 1.2575 0
M  V30 6123 C 567.358 -1.69822 1.11947 0
M  V30 6124 C 567.713 -1.89455 -0.335334 0
M  V30 6125 O 567.006 -1.45778 -1.24336 0
M  V30 6126 C 567.2 -3.08039 1.81237 0
M  V30 6127 C 567.029 -3.0189 3.33305 0
M  V30 6128 C 565.799 -3.05391 4.02573 0
M  V30 6129 C 567.997 -2.827 4.29634 0
M  V30 6130 N 565.979 -2.89449 5.4138 0
M  V30 6131 C 567.35 -2.75237 5.55558 0
M  V30 6132 C 569.405 -2.67416 4.19992 0
M  V30 6133 C 568.108 -2.54051 6.72942 0
M  V30 6134 C 570.134 -2.47602 5.37073 0
M  V30 6135 C 569.496 -2.40863 6.6194 0
M  V30 6136 H 565.595 -0.629188 0.464378 0
M  V30 6137 H 568.179 -1.1249 1.58916 0
M  V30 6138 H 566.35 -3.63528 1.36756 0
M  V30 6139 H 568.082 -3.71671 1.60134 0
M  V30 6140 H 564.837 -3.14763 3.53866 0
M  V30 6141 H 565.261 -2.84669 6.14241 0
M  V30 6142 H 569.903 -2.71398 3.24196 0
M  V30 6143 H 567.621 -2.48811 7.68842 0
M  V30 6144 H 571.207 -2.36694 5.31477 0
M  V30 6145 H 570.087 -2.25732 7.51009 0
M  V30 6146 N 567.59 -1.07411 -1.15328 0
M  V30 6147 C 568.867 -0.710732 -1.82231 0
M  V30 6148 C 569.247 0.806732 -1.95077 0
M  V30 6149 O 568.595 1.72139 -1.50268 0
M  V30 6150 C 568.805 -1.42586 -3.18544 0
M  V30 6151 C 570.153 -1.57836 -3.94174 0
M  V30 6152 O 571.177 -1.38669 -3.281 0
M  V30 6153 O 570.036 -1.8938 -5.12638 0
M  V30 6154 H 567.13 -0.25297 -0.78736 0
M  V30 6155 H 569.676 -1.17508 -1.22434 0
M  V30 6156 H 568.448 -2.46008 -3.04296 0
M  V30 6157 H 568.071 -0.952332 -3.86026 0
M  V30 6158 N 569.068 1.32177 -0.85831 0
M  V30 6159 C 570.015 2.28794 -0.303607 0
M  V30 6160 C 570.985 1.55213 0.591453 0
M  V30 6161 O 572.17 1.83418 0.525585 0
M  V30 6162 C 569.31 3.41475 0.49889 0
M  V30 6163 C 568.423 4.2993 -0.422373 0
M  V30 6164 C 567.558 5.29743 0.393111 0
M  V30 6165 C 566.597 6.09842 -0.525317 0
M  V30 6166 N 565.734 7.01643 0.253208 0
M  V30 6167 H 570.574 2.75631 -1.13276 0
M  V30 6168 H 568.111 1.35606 -0.570026 0
M  V30 6169 H 570.069 4.05531 0.979826 0
M  V30 6170 H 568.699 2.95779 1.29284 0
M  V30 6171 H 567.751 3.66422 -1.02171 0
M  V30 6172 H 569.063 4.85899 -1.12709 0
M  V30 6173 H 568.217 5.9942 0.937056 0
M  V30 6174 H 566.956 4.744 1.13117 0
M  V30 6175 H 565.961 5.39066 -1.08112 0
M  V30 6176 H 567.186 6.6727 -1.26205 0
M  V30 6177 H 565.132 6.48725 0.974295 0
M  V30 6178 H 565.049 7.54981 -0.392398 0
M  V30 6179 H 566.317 7.756 0.778761 0
M  V30 6180 N 570.547 0.616602 1.45037 0
M  V30 6181 C 571.51 -0.0871112 2.29034 0
M  V30 6182 C 572.51 -0.786414 1.40258 0
M  V30 6183 O 573.7 -0.633207 1.62284 0
M  V30 6184 C 570.832 -1.13369 3.21497 0
M  V30 6185 H 572.025 0.651497 2.92738 0
M  V30 6186 H 569.578 0.376058 1.51709 0
M  V30 6187 H 570.313 -1.90277 2.62612 0
M  V30 6188 H 570.098 -0.636358 3.86902 0
M  V30 6189 H 571.588 -1.62627 3.84633 0
M  V30 6190 N 572.025 -1.5352 0.356285 0
M  V30 6191 C 573.271 -2.02104 -0.229271 0
M  V30 6192 C 573.626 -1.23923 -1.47176 0
M  V30 6193 O 572.919 -0.321957 -1.88876 0
M  V30 6194 C 573.113 -3.52607 -0.583369 0
M  V30 6195 C 572.942 -4.4536 0.623253 0
M  V30 6196 C 571.712 -4.92446 1.13248 0
M  V30 6197 C 573.91 -4.92375 1.48563 0
M  V30 6198 N 571.892 -5.69183 2.3001 0
M  V30 6199 C 573.263 -5.67362 2.50001 0
M  V30 6200 C 575.318 -4.74464 1.50959 0
M  V30 6201 C 574.021 -6.26341 3.5368 0
M  V30 6202 C 576.047 -5.34302 2.53526 0
M  V30 6203 C 575.409 -6.09166 3.53688 0
M  V30 6204 H 571.508 -0.780595 -0.0468602 0
M  V30 6205 H 574.092 -1.88204 0.49873 0
M  V30 6206 H 572.263 -3.66686 -1.28046 0
M  V30 6207 H 573.995 -3.87922 -1.15321 0
M  V30 6208 H 570.75 -4.6842 0.698562 0
M  V30 6209 H 571.174 -6.12216 2.88998 0
M  V30 6210 H 575.816 -4.16117 0.748785 0
M  V30 6211 H 573.534 -6.8379 4.30648 0
M  V30 6212 H 577.12 -5.22342 2.56223 0
M  V30 6213 H 576 -6.54644 4.31753 0
M  V30 6214 N 573.503 -0.0852151 -1.57369 0
M  V30 6215 C 574.413 0.891712 -2.16992 0
M  V30 6216 C 575.429 1.3174 -1.13669 0
M  V30 6217 O 576.605 1.38735 -1.45995 0
M  V30 6218 C 573.67 2.13635 -2.73059 0
M  V30 6219 C 572.731 1.7658 -3.91303 0
M  V30 6220 C 571.964 2.95111 -4.44686 0
M  V30 6221 O 572.187 4.09539 -3.97032 0
M  V30 6222 O 571.121 2.74149 -5.35841 0
M  V30 6223 H 574.947 0.414477 -3.00858 0
M  V30 6224 H 572.532 0.138598 -1.48756 0
M  V30 6225 H 574.414 2.86595 -3.08935 0
M  V30 6226 H 573.089 2.6043 -1.92244 0
M  V30 6227 H 571.996 1.00831 -3.60255 0
M  V30 6228 H 573.329 1.34557 -4.7345 0
M  V30 6229 N 574.981 1.5647 0.188427 0
M  V30 6230 C 576.23 1.80207 0.905995 0
M  V30 6231 C 576.543 0.659579 1.84144 0
M  V30 6232 O 577.749 0.781431 2.60011 0
M  V30 6233 C 576.205 3.19255 1.66145 0
M  V30 6234 C 575.813 4.41324 0.770504 0
M  V30 6235 C 577.557 3.52298 2.36826 0
M  V30 6236 C 575.464 5.71394 1.52521 0
M  V30 6237 H 574.394 0.671953 0.342045 0
M  V30 6238 H 577.045 1.82808 0.159164 0
M  V30 6239 H 575.427 3.10922 2.45242 0
M  V30 6240 H 576.601 4.60797 0.0177261 0
M  V30 6241 H 574.916 4.16035 0.174199 0
M  V30 6242 H 577.513 4.46715 2.93854 0
M  V30 6243 H 577.856 2.76359 3.11338 0
M  V30 6244 H 578.389 3.62108 1.6469 0
M  V30 6245 H 575.128 6.50316 0.82275 0
M  V30 6246 H 574.648 5.55928 2.25175 0
M  V30 6247 H 576.327 6.12747 2.07725 0
M  V30 6248 N 576.459 -0.456382 1.50847 0
M  V30 6249 C 577.687 -1.23026 1.66349 0
M  V30 6250 C 578.102 -1.85473 0.352868 0
M  V30 6251 O 577.459 -1.69885 -0.666739 0
M  V30 6252 C 577.51 -2.32827 2.76539 0
M  V30 6253 O 577.231 -1.72938 4.02522 0
M  V30 6254 C 578.732 -3.23448 3.03144 0
M  V30 6255 H 575.952 -0.371527 0.558756 0
M  V30 6256 H 578.496 -0.543082 1.97157 0
M  V30 6257 H 576.651 -2.97294 2.48384 0
M  V30 6258 H 577.065 -2.45357 4.63573 0
M  V30 6259 H 578.539 -3.96669 3.83872 0
M  V30 6260 H 579.016 -3.83094 2.14793 0
M  V30 6261 H 579.622 -2.64702 3.32886 0
M  V30 6262 N 577.937 -1.40673 -0.710563 0
M  V30 6263 C 578.884 -1.41336 -1.82463 0
M  V30 6264 C 579.854 -0.269648 -1.63897 0
M  V30 6265 O 581.039 -0.468463 -1.8496 0
M  V30 6266 C 578.179 -1.28665 -3.20218 0
M  V30 6267 C 577.292 -2.52784 -3.5032 0
M  V30 6268 C 576.427 -2.32517 -4.77608 0
M  V30 6269 C 575.466 -3.52187 -5.0063 0
M  V30 6270 N 574.603 -3.31084 -6.19135 0
M  V30 6271 H 579.443 -2.36558 -1.8123 0
M  V30 6272 H 576.98 -1.17483 -0.885226 0
M  V30 6273 H 578.938 -1.19324 -3.99772 0
M  V30 6274 H 577.568 -0.370602 -3.20666 0
M  V30 6275 H 576.62 -2.72634 -2.65283 0
M  V30 6276 H 577.932 -3.41845 -3.63241 0
M  V30 6277 H 577.086 -2.20558 -5.65189 0
M  V30 6278 H 575.825 -1.40889 -4.66906 0
M  V30 6279 H 574.83 -3.64617 -4.11502 0
M  V30 6280 H 576.055 -4.44749 -5.13201 0
M  V30 6281 H 574.001 -2.42143 -6.09674 0
M  V30 6282 H 573.918 -4.13713 -6.32754 0
M  V30 6283 H 575.186 -3.22868 -7.0949 0
M  V30 6284 N 579.415 0.9433 -1.26252 0
M  V30 6285 C 580.362 2.0417 -1.07625 0
M  V30 6286 C 581.332 1.6609 0.0180738 0
M  V30 6287 O 582.517 1.90276 -0.141289 0
M  V30 6288 C 579.657 3.37653 -0.713043 0
M  V30 6289 C 578.77 3.88783 -1.8834 0
M  V30 6290 C 577.905 5.10642 -1.4635 0
M  V30 6291 C 576.944 5.54028 -2.60229 0
M  V30 6292 N 576.081 6.67092 -2.18936 0
M  V30 6293 H 580.921 2.19436 -2.01623 0
M  V30 6294 H 578.458 1.07519 -1.00389 0
M  V30 6295 H 580.416 4.14391 -0.483358 0
M  V30 6296 H 579.046 3.22241 0.18996 0
M  V30 6297 H 578.098 3.08464 -2.22608 0
M  V30 6298 H 579.41 4.16922 -2.73821 0
M  V30 6299 H 578.564 5.94832 -1.19414 0
M  V30 6300 H 577.303 4.84244 -0.579568 0
M  V30 6301 H 576.308 4.68396 -2.87898 0
M  V30 6302 H 577.533 5.82429 -3.49219 0
M  V30 6303 H 575.479 6.42381 -1.32974 0
M  V30 6304 H 575.396 6.94806 -2.97961 0
M  V30 6305 H 576.664 7.54662 -1.95206 0
M  V30 6306 N 580.893 1.08022 1.14757 0
M  V30 6307 C 582.121 0.828847 1.89572 0
M  V30 6308 C 582.536 -0.618621 1.78377 0
M  V30 6309 O 581.893 -1.42482 1.1404 0
M  V30 6310 C 581.944 1.23677 3.39685 0
M  V30 6311 O 581.665 2.62746 3.50566 0
M  V30 6312 C 583.166 1.01569 4.31507 0
M  V30 6313 H 580.386 0.299196 0.600602 0
M  V30 6314 H 582.93 1.43846 1.45357 0
M  V30 6315 H 581.085 0.671347 3.81539 0
M  V30 6316 H 581.499 2.79573 4.43778 0
M  V30 6317 H 582.973 1.35055 5.35223 0
M  V30 6318 H 583.45 -0.0475433 4.39174 0
M  V30 6319 H 584.056 1.56636 3.95405 0
M  V30 6320 N 582.371 -1.3172 0.865308 0
M  V30 6321 C 583.611 -1.98675 0.480365 0
M  V30 6322 C 583.975 -1.66929 -0.948621 0
M  V30 6323 O 585.176 -2.27059 -1.43867 0
M  V30 6324 C 583.447 -3.49972 0.724858 0
M  V30 6325 S 585.006 -4.36598 0.439078 0
M  V30 6326 H 581.824 -0.687967 0.179506 0
M  V30 6327 H 584.426 -1.60215 1.12033 0
M  V30 6328 H 583.13 -3.70567 1.76375 0
M  V30 6329 H 582.661 -3.93335 0.0717173 0
M  V30 6330 H 584.676 -4.90792 -0.730564 0
M  V30 6331 N 583.85 -0.624285 -1.44708 0
M  V30 6332 C 584.812 0.0749638 -2.29077 0
M  V30 6333 C 585.812 0.778965 -1.40673 0
M  V30 6334 O 587.003 0.624591 -1.62618 0
M  V30 6335 C 584.135 1.11663 -3.22094 0
M  V30 6336 H 585.327 -0.667013 -2.92388 0
M  V30 6337 H 582.88 -0.384098 -1.51507 0
M  V30 6338 H 583.615 1.88881 -2.63618 0
M  V30 6339 H 583.401 0.61583 -3.87234 0
M  V30 6340 H 584.891 1.60585 -3.8549 0
M  V30 6341 N 585.328 1.53329 -0.364422 0
M  V30 6342 C 586.558 2.05359 0.226096 0
M  V30 6343 C 586.966 1.23777 1.43094 0
M  V30 6344 O 586.309 0.271139 1.81688 0
M  V30 6345 C 586.371 3.52918 0.684794 0
M  V30 6346 C 586.035 4.55218 -0.403206 0
M  V30 6347 C 587.032 5.04583 -1.2527 0
M  V30 6348 C 584.717 4.99134 -0.563117 0
M  V30 6349 C 586.711 5.96463 -2.24745 0
M  V30 6350 C 584.398 5.9082 -1.56124 0
M  V30 6351 C 585.396 6.39375 -2.40184 0
M  V30 6352 O 585.084 7.29255 -3.38293 0
M  V30 6353 H 584.816 0.674588 0.0436772 0
M  V30 6354 H 587.37 1.98688 -0.520782 0
M  V30 6355 H 585.6 3.57122 1.48326 0
M  V30 6356 H 587.289 3.87812 1.19818 0
M  V30 6357 H 588.055 4.71403 -1.14034 0
M  V30 6358 H 583.934 4.60928 0.0813909 0
M  V30 6359 H 587.478 6.34285 -2.90393 0
M  V30 6360 H 583.375 6.23414 -1.67407 0
M  V30 6361 H 584.143 7.47249 -3.34009 0
M  V30 6362 N 586.806 0.0935595 1.57322 0
M  V30 6363 C 588.034 -0.578934 1.98635 0
M  V30 6364 C 588.449 -1.61819 0.972626 0
M  V30 6365 O 587.806 -1.82461 -0.0379638 0
M  V30 6366 C 587.857 -1.22802 3.40003 0
M  V30 6367 O 587.578 -0.230334 4.37494 0
M  V30 6368 C 589.079 -1.98627 3.96311 0
M  V30 6369 H 586.299 -0.155324 0.652775 0
M  V30 6370 H 588.843 0.172393 2.03772 0
M  V30 6371 H 586.998 -1.93029 3.35885 0
M  V30 6372 H 587.412 -0.698649 5.19826 0
M  V30 6373 H 588.886 -2.39405 4.97382 0
M  V30 6374 H 589.363 -2.85151 3.34044 0
M  V30 6375 H 589.969 -1.3322 4.03897 0
M  V30 6376 N 588.284 -1.56567 -0.180126 0
M  V30 6377 C 589.232 -1.96632 -1.24251 0
M  V30 6378 C 590.226 -0.853818 -1.46309 0
M  V30 6379 O 591.432 -1.0389 -1.46993 0
M  V30 6380 H 587.807 -0.625476 -0.417473 0
M  V30 6381 H 589.778 -2.85201 -0.877679 0
M  V30 6382 C 588.527 -2.33486 -2.57642 0
M  V30 6383 H 587.85 -3.18626 -2.4149 0
M  V30 6384 H 589.29 -2.65371 -3.30688 0
M  V30 6385 C 587.749 -1.17499 -3.15746 0
M  V30 6386 O 588.279 -0.457956 -3.99081 0
M  V30 6387 N 586.485 -0.94786 -2.74707 0
M  V30 6388 H 586.032 -1.53269 -2.07042 0
M  V30 6389 H 585.99 -0.173626 -3.1392 0
M  V30 6390 N 589.762 0.448376 -1.51087 0
M  V30 6391 C 590.712 1.54156 -1.67988 0
M  V30 6392 C 591.696 1.5178 -0.534015 0
M  V30 6393 O 592.888 1.58419 -0.789448 0
M  V30 6394 C 590.017 2.92437 -1.79822 0
M  V30 6395 C 589.103 2.99611 -3.00157 0
M  V30 6396 N 589.494 2.7655 -4.23502 0
M  V30 6397 C 587.792 3.30764 -2.99184 0
M  V30 6398 C 588.493 2.89281 -5.0467 0
M  V30 6399 N 587.469 3.20473 -4.39088 0
M  V30 6400 H 591.271 1.35061 -2.61028 0
M  V30 6401 H 588.785 0.655504 -1.48583 0
M  V30 6402 H 590.782 3.71068 -1.90037 0
M  V30 6403 H 589.442 3.1256 -0.879554 0
M  V30 6404 H 590.453 2.5169 -4.52628 0
M  V30 6405 H 587.13 3.56732 -2.16907 0
M  V30 6406 H 588.52 2.75499 -6.12821 0
M  V30 6407 N 591.24 1.41047 0.703093 0
M  V30 6408 C 592.468 1.4334 1.49202 0
M  V30 6409 C 592.883 0.0365596 1.88765 0
M  V30 6410 O 592.24 -0.942419 1.56284 0
M  V30 6411 C 592.291 2.33538 2.75939 0
M  V30 6412 O 592.012 3.67786 2.38045 0
M  V30 6413 C 593.513 2.44555 3.6974 0
M  V30 6414 H 590.733 0.488472 0.460039 0
M  V30 6415 H 593.277 1.85245 0.86629 0
M  V30 6416 H 591.432 1.94962 3.34766 0
M  V30 6417 H 591.846 4.15816 3.19683 0
M  V30 6418 H 593.32 3.11849 4.55471 0
M  V30 6419 H 593.797 1.47447 4.1371 0
M  V30 6420 H 594.403 2.83735 3.16819 0
M  V30 6421 N 592.718 -0.936591 1.26751 0
M  V30 6422 C 593.964 -1.6858 1.12733 0
M  V30 6423 C 594.297 -1.91414 -0.327745 0
M  V30 6424 O 593.572 -1.49812 -1.24043 0
M  V30 6425 C 593.855 -3.05779 1.90187 0
M  V30 6426 C 593.708 -2.90242 3.43627 0
M  V30 6427 C 595.027 -4.0597 1.69931 0
M  V30 6428 H 592.146 -0.61182 0.410908 0
M  V30 6429 H 594.788 -1.08747 1.55801 0
M  V30 6430 H 592.938 -3.56853 1.53584 0
M  V30 6431 H 594.61 -2.46354 3.9001 0
M  V30 6432 H 592.853 -2.2577 3.70419 0
M  V30 6433 H 593.524 -3.87572 3.93055 0
M  V30 6434 H 596 -3.63874 2.0183 0
M  V30 6435 H 594.876 -4.99974 2.26534 0
M  V30 6436 H 595.137 -4.37369 0.64502 0
M  V30 6437 N 594.196 -1.08629 -1.14182 0
M  V30 6438 C 595.126 -0.740003 -2.21464 0
M  V30 6439 C 596.107 0.278591 -1.67803 0
M  V30 6440 O 597.292 0.148461 -1.93632 0
M  V30 6441 C 594.422 -0.150952 -3.46972 0
M  V30 6442 C 593.376 -1.09815 -4.13672 0
M  V30 6443 C 592.702 -0.3712 -5.3341 0
M  V30 6444 C 594.002 -2.43722 -4.61949 0
M  V30 6445 H 595.696 -1.63697 -2.50686 0
M  V30 6446 H 593.242 -0.788526 -1.20492 0
M  V30 6447 H 595.195 0.103325 -4.21273 0
M  V30 6448 H 593.919 0.781164 -3.1712 0
M  V30 6449 H 592.578 -1.33756 -3.41328 0
M  V30 6450 H 592.226 0.564792 -4.99819 0
M  V30 6451 H 591.926 -1.00267 -5.78982 0
M  V30 6452 H 593.45 -0.12503 -6.10472 0
M  V30 6453 H 594.864 -2.24034 -5.27714 0
M  V30 6454 H 593.261 -3.02582 -5.18232 0
M  V30 6455 H 594.331 -3.05082 -3.76899 0
M  V30 6456 N 595.674 1.31259 -0.872281 0
M  V30 6457 C 597.085 1.78822 -0.536617 0
M  V30 6458 C 597.436 1.71855 0.946594 0
M  V30 6459 O 596.561 1.28769 1.73918 0
M  V30 6460 C 597.156 3.24698 -0.967294 0
M  V30 6461 C 595.715 3.70147 -0.683251 0
M  V30 6462 C 594.862 2.51994 -1.15733 0
M  V30 6463 H 597.813 1.18308 -1.05777 0
M  V30 6464 H 597.834 3.79386 -0.290929 0
M  V30 6465 H 597.346 3.29737 -2.04683 0
M  V30 6466 H 595.447 3.70607 0.384825 0
M  V30 6467 H 595.56 4.62183 -1.2619 0
M  V30 6468 H 593.924 2.48078 -0.577024 0
M  V30 6469 H 594.707 2.59778 -2.24434 0
M  V30 6470 N 597.152 0.631951 1.44375 0
M  V30 6471 C 598.062 -0.073674 2.34484 0
M  V30 6472 C 599.078 -0.834825 1.52665 0
M  V30 6473 O 600.254 -0.786902 1.85391 0
M  V30 6474 C 597.319 -1.04247 3.30656 0
M  V30 6475 C 596.38 -0.280602 4.28382 0
M  V30 6476 C 595.613 -1.20325 5.19959 0
M  V30 6477 O 595.836 -2.44199 5.15484 0
M  V30 6478 O 594.77 -0.687128 5.97965 0
M  V30 6479 H 598.596 0.667477 2.96274 0
M  V30 6480 H 596.181 0.392144 1.44162 0
M  V30 6481 H 598.063 -1.59981 3.89851 0
M  V30 6482 H 596.738 -1.76422 2.71398 0
M  V30 6483 H 595.645 0.319804 3.72731 0
M  V30 6484 H 596.978 0.401144 4.90563 0
M  V30 6485 N 598.631 -1.53133 0.372548 0
M  V30 6486 C 599.594 -2.24569 -0.458389 0
M  V30 6487 C 600.594 -1.25603 -1.00402 0
M  V30 6488 O 601.784 -1.49827 -0.888672 0
M  V30 6489 C 598.916 -2.98783 -1.6414 0
M  V30 6490 H 600.109 -2.99436 0.166799 0
M  V30 6491 H 597.662 -1.55805 0.124357 0
M  V30 6492 H 598.397 -2.28176 -2.30448 0
M  V30 6493 H 598.182 -3.71404 -1.25704 0
M  V30 6494 H 599.672 -3.53068 -2.23008 0
M  V30 6495 N 600.109 -0.101901 -1.5727 0
M  V30 6496 C 601.039 0.851544 -2.17419 0
M  V30 6497 C 602.02 1.28942 -1.10941 0
M  V30 6498 O 603.205 1.35509 -1.39107 0
M  V30 6499 C 600.335 2.10816 -2.75996 0
M  V30 6500 C 599.289 1.80867 -3.87906 0
M  V30 6501 C 598.615 3.13413 -4.33216 0
M  V30 6502 C 599.915 1.0903 -5.10793 0
M  V30 6503 H 601.609 0.350381 -2.97343 0
M  V30 6504 H 599.155 0.16709 -1.43027 0
M  V30 6505 H 601.108 2.77959 -3.16729 0
M  V30 6506 H 599.832 2.63227 -1.93337 0
M  V30 6507 H 598.491 1.16119 -3.47724 0
M  V30 6508 H 598.139 3.63725 -3.47438 0
M  V30 6509 H 597.839 2.94155 -5.08671 0
M  V30 6510 H 599.363 3.81704 -4.76586 0
M  V30 6511 H 600.777 1.66295 -5.48652 0
M  V30 6512 H 599.174 0.99927 -5.91722 0
M  V30 6513 H 600.244 0.0741704 -4.84843 0
M  V30 6514 N 601.587 1.56661 0.17182 0
M  V30 6515 C 602.497 1.99604 1.2327 0
M  V30 6516 C 603.513 0.907333 1.4847 0
M  V30 6517 O 604.689 1.21492 1.60629 0
M  V30 6518 C 601.754 2.34685 2.55194 0
M  V30 6519 C 600.815 3.57381 2.3786 0
M  V30 6520 C 600.048 3.90779 3.63494 0
M  V30 6521 O 600.271 3.25152 4.6865 0
M  V30 6522 O 599.205 4.84129 3.57634 0
M  V30 6523 H 603.031 2.90114 0.898192 0
M  V30 6524 H 600.616 1.44522 0.378647 0
M  V30 6525 H 602.498 2.5822 3.33017 0
M  V30 6526 H 601.173 1.47336 2.88225 0
M  V30 6527 H 600.08 3.39064 1.5807 0
M  V30 6528 H 601.413 4.45268 2.09754 0
M  V30 6529 N 603.065 -0.440357 1.51323 0
M  V30 6530 C 604.481 -0.7766 1.39431 0
M  V30 6531 C 604.681 -1.95838 0.474296 0
M  V30 6532 O 603.737 -2.52398 -0.0716692 0
M  V30 6533 C 605.05 -1.05981 2.81405 0
M  V30 6534 C 606.598 -1.16442 2.90534 0
M  V30 6535 C 607.073 -1.48058 4.33408 0
M  V30 6536 N 608.564 -1.54988 4.36501 0
M  V30 6537 C 609.299 -1.81017 5.44078 0
M  V30 6538 N 608.795 -2.04858 6.61819 0
M  V30 6539 N 610.588 -1.82774 5.31554 0
M  V30 6540 H 602.739 0.338006 2.09693 0
M  V30 6541 H 605.002 0.0888072 0.943831 0
M  V30 6542 H 604.708 -0.264173 3.50706 0
M  V30 6543 H 604.582 -1.98822 3.20546 0
M  V30 6544 H 606.969 -1.95068 2.21432 0
M  V30 6545 H 607.05 -0.215088 2.54894 0
M  V30 6546 H 606.694 -0.699605 5.03059 0
M  V30 6547 H 606.624 -2.44192 4.66559 0
M  V30 6548 H 609.115 -1.38479 3.51613 0
M  V30 6549 H 609.428 -2.2408 7.396 0
M  V30 6550 H 607.773 -2.02187 6.6494 0
M  V30 6551 H 610.964 -1.63665 4.38556 0
M  V30 6552 H 611.137 -2.02722 6.15474 0
M  V30 6553 N 604.543 -1.41418 -0.695603 0
M  V30 6554 C 605.789 -1.41983 -1.45645 0
M  V30 6555 C 606.144 -0.0282216 -1.92379 0
M  V30 6556 O 605.437 0.945916 -1.66622 0
M  V30 6557 C 605.631 -2.36112 -2.68302 0
M  V30 6558 C 605.46 -3.84288 -2.33566 0
M  V30 6559 C 604.23 -4.52971 -2.23932 0
M  V30 6560 C 606.428 -4.75264 -1.96543 0
M  V30 6561 N 604.41 -5.86276 -1.82081 0
M  V30 6562 C 605.781 -5.97517 -1.6545 0
M  V30 6563 C 607.836 -4.62911 -1.83352 0
M  V30 6564 C 606.539 -7.08793 -1.22492 0
M  V30 6565 C 608.565 -5.74149 -1.41799 0
M  V30 6566 C 607.927 -6.95501 -1.11617 0
M  V30 6567 H 604.026 -0.574771 -0.530247 0
M  V30 6568 H 606.61 -1.77289 -0.804788 0
M  V30 6569 H 604.781 -2.02902 -3.31188 0
M  V30 6570 H 606.513 -2.27397 -3.34773 0
M  V30 6571 H 603.268 -4.06909 -2.42327 0
M  V30 6572 H 603.692 -6.56926 -1.63638 0
M  V30 6573 H 608.334 -3.69588 -2.05341 0
M  V30 6574 H 606.052 -8.01982 -0.992482 0
M  V30 6575 H 609.638 -5.66595 -1.32143 0
M  V30 6576 H 608.518 -7.80114 -0.799493 0
M  V30 6577 N 606.021 0.929856 -1.27246 0
M  V30 6578 C 607.432 1.49223 -1.12203 0
M  V30 6579 C 607.783 1.93989 0.293731 0
M  V30 6580 O 606.908 1.80978 1.18642 0
M  V30 6581 C 607.503 2.71198 -2.0307 0
M  V30 6582 C 606.062 3.23666 -1.92139 0
M  V30 6583 C 605.209 1.96409 -1.95752 0
M  V30 6584 H 608.16 0.744181 -1.4017 0
M  V30 6585 H 608.181 3.45905 -1.58524 0
M  V30 6586 H 607.693 2.38585 -3.06102 0
M  V30 6587 H 605.794 3.61042 -0.920834 0
M  V30 6588 H 605.907 3.90006 -2.78267 0
M  V30 6589 H 604.271 2.12806 -1.39949 0
M  V30 6590 H 605.054 1.66113 -3.00436 0
M  V30 6591 N 607.499 1.09233 1.13605 0
M  V30 6592 C 608.745 0.828385 1.8511 0
M  V30 6593 C 609.078 -0.64437 1.83198 0
M  V30 6594 O 608.353 -1.47428 1.26867 0
M  V30 6595 C 608.636 1.36167 3.33363 0
M  V30 6596 C 608.489 2.90038 3.438 0
M  V30 6597 C 609.808 0.993819 4.28732 0
M  V30 6598 H 606.927 0.30239 0.672108 0
M  V30 6599 H 609.569 1.35339 1.33355 0
M  V30 6600 H 607.719 0.9151 3.77569 0
M  V30 6601 H 609.391 3.43128 3.08319 0
M  V30 6602 H 607.634 3.27271 2.84739 0
M  V30 6603 H 608.305 3.22428 4.48045 0
M  V30 6604 H 610.781 1.37893 3.92587 0
M  V30 6605 H 609.657 1.39403 5.30903 0
M  V30 6606 H 609.918 -0.0982206 4.41991 0
M  V30 6607 N 608.977 -1.30795 0.87923 0
M  V30 6608 C 610.202 -2.01063 0.508769 0
M  V30 6609 C 610.627 -1.65508 -0.893803 0
M  V30 6610 O 609.985 -0.868616 -1.59138 0
M  V30 6611 C 610.033 -3.54054 0.683991 0
M  V30 6612 O 609.137 -4.11498 -0.272654 0
M  V30 6613 H 608.478 -0.632786 0.201191 0
M  V30 6614 H 611.008 -1.66776 1.18519 0
M  V30 6615 H 611.018 -4.03845 0.580798 0
M  V30 6616 H 609.693 -3.79271 1.70665 0
M  V30 6617 H 608.27 -3.72695 -0.12364 0
M  V30 6618 N 610.455 -0.639598 -1.44038 0
M  V30 6619 C 611.388 0.109736 -2.27936 0
M  V30 6620 C 612.366 0.843095 -1.39035 0
M  V30 6621 O 613.55 0.845456 -1.68476 0
M  V30 6622 C 610.677 1.16173 -3.18153 0
M  V30 6623 C 609.723 0.527954 -4.2322 0
M  V30 6624 S 610.556 -0.688318 -5.31058 0
M  V30 6625 C 611.712 0.363481 -6.24844 0
M  V30 6626 H 611.945 -0.601986 -2.91142 0
M  V30 6627 H 609.478 -0.42802 -1.48349 0
M  V30 6628 H 611.436 1.76372 -3.7068 0
M  V30 6629 H 610.097 1.84569 -2.54151 0
M  V30 6630 H 609.29 1.32054 -4.86393 0
M  V30 6631 H 608.892 0.000396444 -3.74 0
M  V30 6632 H 611.184 1.23362 -6.66174 0
M  V30 6633 H 612.127 -0.23288 -7.07717 0
M  V30 6634 H 612.535 0.693179 -5.60228 0
M  V30 6635 N 611.933 1.52934 -0.380664 0
M  V30 6636 C 613.18 2.01467 0.204278 0
M  V30 6637 C 613.508 1.26744 1.47533 0
M  V30 6638 O 612.763 0.353723 1.92477 0
M  V30 6639 C 613.062 3.5349 0.527199 0
M  V30 6640 C 612.728 4.46171 -0.651295 0
M  V30 6641 C 611.39 4.71227 -0.974619 0
M  V30 6642 C 613.742 5.00909 -1.44012 0
M  V30 6643 C 611.07 5.4827 -2.08847 0
M  V30 6644 C 613.422 5.7917 -2.5445 0
M  V30 6645 C 612.086 6.02507 -2.87301 0
M  V30 6646 H 611.356 0.73722 0.0747504 0
M  V30 6647 H 614.003 1.84411 -0.516234 0
M  V30 6648 H 612.308 3.68574 1.32892 0
M  V30 6649 H 614.005 3.88529 0.992283 0
M  V30 6650 H 610.595 4.26829 -0.389276 0
M  V30 6651 H 614.779 4.81485 -1.20357 0
M  V30 6652 H 610.035 5.64567 -2.34679 0
M  V30 6653 H 614.209 6.20588 -3.1598 0
M  V30 6654 H 611.836 6.61989 -3.7373 0
M  V30 6655 N 613.412 0.11024 1.57214 0
M  V30 6656 C 614.322 -0.857077 2.18383 0
M  V30 6657 C 615.338 -1.29915 1.1575 0
M  V30 6658 O 616.514 -1.36394 1.48184 0
M  V30 6659 C 613.579 -2.09264 2.76423 0
M  V30 6660 C 612.64 -1.70333 3.94063 0
M  V30 6661 C 611.873 -2.87999 4.49324 0
M  V30 6662 O 612.096 -4.0317 4.03497 0
M  V30 6663 O 611.03 -2.6559 5.40135 0
M  V30 6664 H 614.856 -0.366561 3.0148 0
M  V30 6665 H 612.441 -0.114914 1.48957 0
M  V30 6666 H 614.323 -2.81644 3.13456 0
M  V30 6667 H 612.998 -2.57339 1.96363 0
M  V30 6668 H 611.905 -0.950864 3.61814 0
M  V30 6669 H 613.238 -1.27007 4.75531 0
M  V30 6670 N 614.89 -1.56749 -0.16351 0
M  V30 6671 C 615.837 -1.97011 -1.2023 0
M  V30 6672 C 616.807 -0.835186 -1.43575 0
M  V30 6673 O 617.992 -1.09594 -1.56185 0
M  V30 6674 C 615.132 -2.34186 -2.53478 0
M  V30 6675 C 614.245 -3.60893 -2.37446 0
M  V30 6676 C 613.38 -3.87245 -3.63614 0
M  V30 6677 C 612.419 -5.07274 -3.42548 0
M  V30 6678 N 611.556 -5.29719 -4.60806 0
M  V30 6679 H 616.396 -2.85562 -0.851958 0
M  V30 6680 H 613.933 -1.41292 -0.409257 0
M  V30 6681 H 615.891 -2.53764 -3.31149 0
M  V30 6682 H 614.521 -1.48736 -2.86492 0
M  V30 6683 H 613.573 -3.49185 -1.50911 0
M  V30 6684 H 614.885 -4.48722 -2.1783 0
M  V30 6685 H 614.039 -4.07232 -4.49719 0
M  V30 6686 H 612.778 -2.97806 -3.86216 0
M  V30 6687 H 611.783 -4.87177 -2.5483 0
M  V30 6688 H 613.008 -5.98251 -3.2136 0
M  V30 6689 H 610.954 -4.43233 -4.83612 0
M  V30 6690 H 610.871 -6.11786 -4.44132 0
M  V30 6691 H 612.139 -5.54192 -5.48171 0
M  V30 6692 N 616.368 0.432326 -1.51554 0
M  V30 6693 C 617.298 1.53242 -1.76179 0
M  V30 6694 C 618.279 1.58717 -0.611801 0
M  V30 6695 O 619.464 1.74364 -0.855033 0
M  V30 6696 C 616.594 2.91278 -1.89141 0
M  V30 6697 C 615.548 3.00663 -3.04608 0
M  V30 6698 C 614.874 4.40728 -3.02759 0
M  V30 6699 C 616.174 2.74281 -4.44485 0
M  V30 6700 H 617.868 1.32886 -2.68294 0
M  V30 6701 H 615.414 0.637841 -1.29103 0
M  V30 6702 H 617.367 3.68203 -2.04951 0
M  V30 6703 H 616.091 3.12877 -0.936785 0
M  V30 6704 H 614.75 2.26179 -2.88511 0
M  V30 6705 H 614.398 4.59301 -2.05065 0
M  V30 6706 H 614.098 4.47936 -3.80299 0
M  V30 6707 H 615.622 5.19619 -3.20669 0
M  V30 6708 H 617.036 3.40936 -4.60907 0
M  V30 6709 H 615.433 2.92893 -5.23769 0
M  V30 6710 H 616.503 1.69856 -4.54177 0
M  V30 6711 N 617.846 1.41785 0.688094 0
M  V30 6712 C 618.776 1.47 1.8142 0
M  V30 6713 C 619.757 0.327881 1.6691 0
M  V30 6714 O 620.942 0.540362 1.86531 0
M  V30 6715 C 618.072 1.35876 3.19617 0
M  V30 6716 C 617.026 2.47976 3.48844 0
M  V30 6717 C 616.352 2.21915 4.86475 0
M  V30 6718 C 617.652 3.90309 3.47068 0
M  V30 6719 H 619.346 2.41247 1.77314 0
M  V30 6720 H 616.892 1.16116 0.851651 0
M  V30 6721 H 618.845 1.38134 3.98117 0
M  V30 6722 H 617.569 0.38116 3.24368 0
M  V30 6723 H 616.228 2.45013 2.72698 0
M  V30 6724 H 615.876 1.2248 4.8786 0
M  V30 6725 H 615.576 2.97037 5.06994 0
M  V30 6726 H 617.1 2.25901 5.67275 0
M  V30 6727 H 618.514 3.94947 4.1556 0
M  V30 6728 H 616.911 4.65175 3.7912 0
M  V30 6729 H 617.981 4.17927 2.45896 0
M  V30 6730 N 619.324 -0.923095 1.27737 0
M  V30 6731 C 620.735 -1.48626 1.12993 0
M  V30 6732 C 621.086 -1.94142 -0.283439 0
M  V30 6733 O 620.211 -1.81605 -1.17681 0
M  V30 6734 C 620.806 -2.70117 2.04505 0
M  V30 6735 C 619.365 -3.22642 1.93853 0
M  V30 6736 C 618.512 -1.95368 1.96791 0
M  V30 6737 H 621.463 -0.736737 1.40563 0
M  V30 6738 H 621.484 -3.4506 1.60356 0
M  V30 6739 H 620.996 -2.36959 3.07363 0
M  V30 6740 H 619.097 -3.60549 0.939968 0
M  V30 6741 H 619.21 -3.88525 2.80331 0
M  V30 6742 H 617.574 -2.12061 1.41076 0
M  V30 6743 H 618.357 -1.64517 3.01312 0
M  V30 6744 N 620.802 -1.09834 -1.13024 0
M  V30 6745 C 622.218 -0.828875 -1.36388 0
M  V30 6746 C 622.418 0.554756 -1.93713 0
M  V30 6747 O 621.474 1.30882 -2.15931 0
M  V30 6748 C 622.787 -1.92352 -2.3113 0
M  V30 6749 C 624.335 -1.95124 -2.44735 0
M  V30 6750 C 624.81 -3.03745 -3.42787 0
M  V30 6751 N 626.301 -3.03012 -3.5034 0
M  V30 6752 C 627.036 -3.83699 -4.26101 0
M  V30 6753 N 626.532 -4.74306 -5.04981 0
M  V30 6754 N 628.325 -3.71942 -4.21445 0
M  V30 6755 H 620.476 -1.99029 -0.74169 0
M  V30 6756 H 622.739 -0.864557 -0.388903 0
M  V30 6757 H 622.445 -2.91906 -1.96172 0
M  V30 6758 H 622.319 -1.80536 -3.3119 0
M  V30 6759 H 624.706 -0.962069 -2.78977 0
M  V30 6760 H 624.787 -2.11018 -1.44586 0
M  V30 6761 H 624.431 -4.02878 -3.09276 0
M  V30 6762 H 624.361 -2.85094 -4.42752 0
M  V30 6763 H 626.852 -2.37352 -2.94062 0
M  V30 6764 H 627.165 -5.32446 -5.60108 0
M  V30 6765 H 625.51 -4.78339 -5.04199 0
M  V30 6766 H 628.701 -3.00513 -3.589 0
M  V30 6767 H 628.874 -4.35062 -4.80235 0
M  V30 6768 N 622.28 1.30327 -0.886154 0
M  V30 6769 C 623.23 2.25668 -0.325248 0
M  V30 6770 C 624.214 1.51318 0.546972 0
M  V30 6771 O 625.406 1.72623 0.391203 0
M  V30 6772 C 622.535 3.40229 0.458167 0
M  V30 6773 C 621.621 4.21933 -0.428208 0
M  V30 6774 N 622.012 4.82129 -1.52921 0
M  V30 6775 C 620.31 4.45439 -0.223535 0
M  V30 6776 C 621.011 5.43351 -2.07714 0
M  V30 6777 N 619.987 5.26002 -1.37195 0
M  V30 6778 H 623.789 2.69759 -1.1665 0
M  V30 6779 H 621.303 1.4478 -0.735691 0
M  V30 6780 H 623.3 4.07579 0.876648 0
M  V30 6781 H 621.96 2.97678 1.29684 0
M  V30 6782 H 622.971 4.81312 -1.91205 0
M  V30 6783 H 619.648 4.13481 0.577875 0
M  V30 6784 H 621.038 6.01118 -3.00178 0
M  V30 6785 N 623.758 0.647228 1.43697 0
M  V30 6786 C 624.688 -0.0345631 2.33474 0
M  V30 6787 C 625.669 -0.818193 1.4913 0
M  V30 6788 O 626.854 -0.780867 1.77809 0
M  V30 6789 C 623.984 -1.00576 3.32418 0
M  V30 6790 C 622.938 -0.33266 4.26705 0
M  V30 6791 C 622.264 -1.41489 5.1564 0
M  V30 6792 C 623.564 0.771204 5.16575 0
M  V30 6793 H 625.258 0.715163 2.90733 0
M  V30 6794 H 622.804 0.345364 1.39797 0
M  V30 6795 H 624.757 -1.49159 3.94119 0
M  V30 6796 H 623.481 -1.78657 2.73403 0
M  V30 6797 H 622.14 0.13267 3.6636 0
M  V30 6798 H 621.788 -2.18698 4.52968 0
M  V30 6799 H 621.488 -0.969799 5.79542 0
M  V30 6800 H 623.012 -1.9022 5.80214 0
M  V30 6801 H 624.426 0.36779 5.72119 0
M  V30 6802 H 622.823 1.1404 5.89165 0
M  V30 6803 H 623.893 1.63169 4.56622 0
M  V30 6804 N 625.236 -1.5273 0.388769 0
M  V30 6805 C 626.146 -2.30165 -0.453993 0
M  V30 6806 C 627.162 -1.37058 -1.07197 0
M  V30 6807 O 628.338 -1.70127 -1.0779 0
M  V30 6808 C 625.403 -3.09303 -1.56628 0
M  V30 6809 C 624.464 -4.18117 -0.973467 0
M  V30 6810 C 623.697 -4.93472 -2.03275 0
M  V30 6811 O 623.92 -4.68913 -3.24772 0
M  V30 6812 O 622.854 -5.78833 -1.65034 0
M  V30 6813 H 626.68 -3.03185 0.176816 0
M  V30 6814 H 624.265 -1.4862 0.152501 0
M  V30 6815 H 626.147 -3.58648 -2.21246 0
M  V30 6816 H 624.822 -2.39098 -2.18206 0
M  V30 6817 H 623.729 -3.7297 -0.290556 0
M  V30 6818 H 625.062 -4.90556 -0.401908 0
M  V30 6819 N 626.714 -0.118576 -1.57153 0
M  V30 6820 C 627.963 0.539339 -1.94355 0
M  V30 6821 C 628.276 1.67858 -1.00415 0
M  V30 6822 O 629.482 2.39922 -1.27081 0
M  V30 6823 C 627.938 1.01082 -3.45414 0
M  V30 6824 C 627.546 -0.0999402 -4.47889 0
M  V30 6825 C 629.29 1.64013 -3.91535 0
M  V30 6826 C 627.197 0.388212 -5.90124 0
M  V30 6827 H 626.127 0.205247 -0.725527 0
M  V30 6828 H 628.778 -0.19836 -1.82425 0
M  V30 6829 H 627.16 1.80292 -3.52577 0
M  V30 6830 H 628.334 -0.876189 -4.52393 0
M  V30 6831 H 626.649 -0.635885 -4.11516 0
M  V30 6832 H 629.246 2.01649 -4.95219 0
M  V30 6833 H 629.589 2.51836 -3.31488 0
M  V30 6834 H 630.122 0.913439 -3.87171 0
M  V30 6835 H 626.861 -0.453963 -6.53926 0
M  V30 6836 H 626.381 1.13095 -5.89041 0
M  V30 6837 H 628.06 0.849574 -6.41398 0
M  V30 6838 N 628.193 1.56834 0.155195 0
M  V30 6839 C 629.442 1.82088 0.867567 0
M  V30 6840 C 629.755 0.69849 1.82703 0
M  V30 6841 O 630.961 0.836407 2.58295 0
M  V30 6842 C 629.417 3.22707 1.59336 0
M  V30 6843 C 629.025 4.42859 0.676719 0
M  V30 6844 C 630.769 3.57242 2.293 0
M  V30 6845 C 628.676 5.74501 1.40367 0
M  V30 6846 H 627.606 0.679057 0.327715 0
M  V30 6847 H 630.257 1.83105 0.120351 0
M  V30 6848 H 628.639 3.16054 2.38591 0
M  V30 6849 H 629.813 4.60731 -0.0800196 0
M  V30 6850 H 628.128 4.16311 0.0859129 0
M  V30 6851 H 630.725 4.52847 2.84312 0
M  V30 6852 H 631.068 2.82901 3.05406 0
M  V30 6853 H 631.601 3.6552 1.56972 0
M  V30 6854 H 628.34 6.51915 0.684623 0
M  V30 6855 H 627.86 5.60579 2.13332 0
M  V30 6856 H 629.539 6.17016 1.94681 0
M  V30 6857 N 629.671 -0.424282 1.51781 0
M  V30 6858 C 630.901 -1.19297 1.68677 0
M  V30 6859 C 631.309 -1.85152 0.389258 0
M  V30 6860 O 630.652 -1.72067 -0.643311 0
M  V30 6861 C 630.714 -2.30929 2.75521 0
M  V30 6862 C 630.378 -1.85335 4.17732 0
M  V30 6863 C 631.375 -1.34951 5.0208 0
M  V30 6864 C 629.06 -1.92629 4.63896 0
M  V30 6865 C 631.054 -0.924636 6.30658 0
M  V30 6866 C 628.741 -1.49754 5.92467 0
M  V30 6867 C 629.739 -0.997543 6.75676 0
M  V30 6868 O 629.427 -0.57492 8.01842 0
M  V30 6869 H 629.159 -0.36512 0.568914 0
M  V30 6870 H 631.713 -0.507327 1.99036 0
M  V30 6871 H 629.943 -3.02811 2.40505 0
M  V30 6872 H 631.632 -2.92748 2.81165 0
M  V30 6873 H 632.398 -1.287 4.67612 0
M  V30 6874 H 628.277 -2.30491 3.99243 0
M  V30 6875 H 631.821 -0.533682 6.95556 0
M  V30 6876 H 627.718 -1.55679 6.26446 0
M  V30 6877 H 628.486 -0.699597 8.15505 0
M  V30 6878 N 631.149 -1.42148 -0.680565 0
M  V30 6879 C 632.112 -1.4488 -1.77602 0
M  V30 6880 C 633.112 -0.337209 -1.57224 0
M  V30 6881 O 634.302 -0.597778 -1.63622 0
M  V30 6882 C 631.434 -1.27483 -3.16166 0
M  V30 6883 H 632.627 -2.42412 -1.76568 0
M  V30 6884 H 630.18 -1.28511 -0.889645 0
M  V30 6885 H 630.915 -0.30851 -3.22829 0
M  V30 6886 H 630.7 -2.08037 -3.3236 0
M  V30 6887 H 632.19 -1.32265 -3.96101 0
M  V30 6888 N 632.627 0.916307 -1.28225 0
M  V30 6889 C 633.876 1.65975 -1.14608 0
M  V30 6890 C 634.189 1.93204 0.305191 0
M  V30 6891 O 635.395 2.65611 0.562432 0
M  V30 6892 C 633.851 2.98989 -2.00333 0
M  V30 6893 C 633.459 2.79417 -3.50186 0
M  V30 6894 C 635.203 3.76856 -1.95397 0
M  V30 6895 C 633.11 4.08056 -4.28071 0
M  V30 6896 H 632.04 0.622587 -0.425324 0
M  V30 6897 H 634.691 1.01705 -1.52736 0
M  V30 6898 H 633.073 3.6438 -1.5506 0
M  V30 6899 H 634.247 2.22723 -4.034 0
M  V30 6900 H 632.562 2.14966 -3.56621 0
M  V30 6901 H 635.159 4.72203 -2.50856 0
M  V30 6902 H 635.502 4.05776 -0.930137 0
M  V30 6903 H 636.035 3.1828 -2.38626 0
M  V30 6904 H 632.774 3.8431 -5.31024 0
M  V30 6905 H 632.294 4.64371 -3.79631 0
M  V30 6906 H 633.973 4.76333 -4.37854 0
M  V30 6907 N 634.105 1.10431 1.1244 0
M  V30 6908 C 635.053 0.747974 2.20246 0
M  V30 6909 C 636.047 -0.255848 1.67457 0
M  V30 6910 O 637.253 -0.116221 1.79624 0
M  V30 6911 H 633.628 0.223946 0.71788 0
M  V30 6912 H 635.599 1.6661 2.47556 0
M  V30 6913 C 634.348 0.195957 3.47147 0
M  V30 6914 H 633.671 0.959606 3.88113 0
M  V30 6915 H 635.111 -0.0153154 4.23997 0
M  V30 6916 C 633.57 -1.07132 3.19413 0
M  V30 6917 O 634.1 -2.15284 3.3914 0
M  V30 6918 N 632.306 -0.98994 2.73219 0
M  V30 6919 H 631.853 -0.109736 2.57366 0
M  V30 6920 H 631.811 -1.83856 2.55038 0
M  V30 6921 N 635.583 -1.29855 0.893053 0
M  V30 6922 C 636.515 -2.26911 0.32311 0
M  V30 6923 C 637.528 -1.54039 -0.526858 0
M  V30 6924 O 638.717 -1.75132 -0.345095 0
M  V30 6925 C 635.817 -3.34266 -0.558509 0
M  V30 6926 C 634.99 -4.36601 0.264222 0
M  V30 6927 C 634.049 -5.23326 -0.549171 0
M  V30 6928 O 633.075 -5.69192 0.0309883 0
M  V30 6929 N 634.277 -5.50008 -1.85664 0
M  V30 6930 H 637.042 -2.76455 1.15726 0
M  V30 6931 H 634.603 -1.4312 0.756859 0
M  V30 6932 H 636.595 -3.89211 -1.1089 0
M  V30 6933 H 635.165 -2.8459 -1.29334 0
M  V30 6934 H 634.385 -3.81409 0.996046 0
M  V30 6935 H 635.673 -5.02019 0.827906 0
M  V30 6936 H 635.071 -5.14542 -2.35081 0
M  V30 6937 H 633.628 -6.07796 -2.35431 0
M  V30 6938 N 637.061 -0.65484 -1.43351 0
M  V30 6939 C 638.477 -0.32255 -1.56307 0
M  V30 6940 C 638.677 1.17324 -1.63821 0
M  V30 6941 O 637.733 1.95813 -1.59417 0
M  V30 6942 C 639.046 -1.03533 -2.82314 0
M  V30 6943 C 640.594 -1.01574 -2.9606 0
M  V30 6944 C 641.069 -1.70945 -4.24902 0
M  V30 6945 N 642.56 -1.67716 -4.3177 0
M  V30 6946 C 643.295 -2.18265 -5.30234 0
M  V30 6947 N 642.791 -2.7711 -6.34966 0
M  V30 6948 N 644.584 -2.08756 -5.21898 0
M  V30 6949 H 636.735 -1.62549 -1.36717 0
M  V30 6950 H 638.998 -0.683676 -0.656727 0
M  V30 6951 H 638.704 -2.09045 -2.8283 0
M  V30 6952 H 638.578 -0.587913 -3.7259 0
M  V30 6953 H 640.965 0.0309834 -2.95084 0
M  V30 6954 H 641.046 -1.50186 -2.07069 0
M  V30 6955 H 640.69 -2.75574 -4.26639 0
M  V30 6956 H 640.62 -1.19797 -5.12793 0
M  V30 6957 H 643.111 -1.24777 -3.56706 0
M  V30 6958 H 643.424 -3.13353 -7.06421 0
M  V30 6959 H 641.769 -2.81171 -6.35585 0
M  V30 6960 H 644.96 -1.62488 -4.38994 0
M  V30 6961 H 645.133 -2.48459 -5.98475 0
M  V30 6962 N 638.539 1.52521 -0.396863 0
M  V30 6963 C 639.489 2.2348 0.451722 0
M  V30 6964 C 640.473 1.2415 1.0235 0
M  V30 6965 O 641.665 1.4945 0.948348 0
M  V30 6966 C 638.794 3.05067 1.57445 0
M  V30 6967 C 637.88 4.11799 1.01404 0
M  V30 6968 N 638.271 5.05482 0.179234 0
M  V30 6969 C 636.569 4.27064 1.28578 0
M  V30 6970 C 637.27 5.81552 -0.131202 0
M  V30 6971 N 636.246 5.41523 0.474735 0
M  V30 6972 H 640.048 2.93269 -0.192534 0
M  V30 6973 H 637.562 1.61081 -0.206591 0
M  V30 6974 H 639.559 3.54446 2.19485 0
M  V30 6975 H 638.219 2.36816 2.22145 0
M  V30 6976 H 639.23 5.17573 -0.18411 0
M  V30 6977 H 635.907 3.70042 1.93327 0
M  V30 6978 H 637.297 6.67023 -0.808061 0
M  V30 6979 N 640.017 0.126909 1.57088 0
M  V30 6980 C 640.947 -0.816847 2.18746 0
M  V30 6981 C 641.928 -1.27161 1.12979 0
M  V30 6982 O 643.113 -1.33279 1.41246 0
M  V30 6983 C 640.243 -2.06398 2.79315 0
M  V30 6984 C 639.197 -1.74673 3.90735 0
M  V30 6985 C 638.523 -3.06482 4.38147 0
M  V30 6986 C 639.823 -1.0089 5.12463 0
M  V30 6987 H 641.517 -0.303032 2.97863 0
M  V30 6988 H 639.063 -0.144314 1.43275 0
M  V30 6989 H 641.016 -2.72885 3.2111 0
M  V30 6990 H 639.74 -2.60118 1.975 0
M  V30 6991 H 638.399 -1.10572 3.49527 0
M  V30 6992 H 638.047 -3.58152 3.5318 0
M  V30 6993 H 637.747 -2.86025 5.13287 0
M  V30 6994 H 639.271 -3.74073 4.82599 0
M  V30 6995 H 640.685 -1.57546 5.51228 0
M  V30 6996 H 639.082 -0.905006 5.93237 0
M  V30 6997 H 640.152 0.00297335 4.849 0
M  V30 6998 N 641.495 -1.56914 -0.146875 0
M  V30 6999 C 642.772 -1.74273 -0.888165 0
M  V30 7000 C 643.152 -0.69496 -1.99333 0
M  V30 7001 O 642.5 0.286093 -2.26702 0
M  V30 7002 C 642.71 -3.18336 -1.43051 0
M  V30 7003 C 644.058 -3.80024 -1.89387 0
M  V30 7004 O 645.082 -3.21765 -1.52792 0
M  V30 7005 O 643.941 -4.82367 -2.56874 0
M  V30 7006 H 641.035 -0.712565 -0.419738 0
M  V30 7007 H 643.581 -1.6918 -0.132791 0
M  V30 7008 H 642.353 -3.86092 -0.636274 0
M  V30 7009 H 641.976 -3.27854 -2.24938 0
M  V30 7010 N 642.974 0.416227 -1.52004 0
M  V30 7011 C 643.924 1.50558 -1.7122 0
M  V30 7012 C 644.908 1.50613 -0.56609 0
M  V30 7013 O 646.1 1.56709 -0.822874 0
M  V30 7014 C 643.229 2.88556 -1.85984 0
M  V30 7015 C 642.315 2.93177 -3.06445 0
M  V30 7016 N 642.706 2.67505 -4.29272 0
M  V30 7017 C 641.004 3.24343 -3.06133 0
M  V30 7018 C 641.705 2.78511 -5.10692 0
M  V30 7019 N 640.681 3.11087 -4.45787 0
M  V30 7020 H 644.483 1.29494 -2.63834 0
M  V30 7021 H 641.997 0.62384 -1.4994 0
M  V30 7022 H 643.994 3.66954 -1.97865 0
M  V30 7023 H 642.654 3.10624 -0.945654 0
M  V30 7024 H 643.665 2.42033 -4.57865 0
M  V30 7025 H 640.342 3.52051 -2.24425 0
M  V30 7026 H 641.732 2.62438 -6.18527 0
M  V30 7027 N 644.452 1.42507 0.673017 0
M  V30 7028 C 645.698 1.43284 1.43519 0
M  V30 7029 C 646.031 0.049668 1.94136 0
M  V30 7030 O 645.306 -0.926369 1.71022 0
M  V30 7031 C 645.589 2.45874 2.63093 0
M  V30 7032 C 645.442 3.93388 2.18096 0
M  V30 7033 C 646.761 2.45431 3.6531 0
M  V30 7034 H 643.88 0.521752 0.520522 0
M  V30 7035 H 646.522 1.73932 0.764701 0
M  V30 7036 H 644.672 2.19869 3.20296 0
M  V30 7037 H 646.344 4.30379 1.66046 0
M  V30 7038 H 644.587 4.07169 1.49652 0
M  V30 7039 H 645.258 4.60752 3.03993 0
M  V30 7040 H 647.734 2.68561 3.17827 0
M  V30 7041 H 646.61 3.19189 4.46553 0
M  V30 7042 H 646.871 1.48092 4.16559 0
M  V30 7043 N 645.93 -0.909495 1.28709 0
M  V30 7044 C 646.893 -1.99399 1.13016 0
M  V30 7045 C 647.893 -1.60654 0.068536 0
M  V30 7046 O 649.083 -1.71334 0.314671 0
M  V30 7047 C 646.215 -3.33078 0.726085 0
M  V30 7048 H 647.408 -2.14751 2.09338 0
M  V30 7049 H 644.961 -1.09272 1.11756 0
M  V30 7050 H 645.696 -3.23428 -0.23771 0
M  V30 7051 H 645.481 -3.62562 1.49302 0
M  V30 7052 H 646.971 -4.12681 0.639058 0
M  V30 7053 N 647.408 -1.11026 -1.11852 0
M  V30 7054 C 648.371 -0.768006 -2.1595 0
M  V30 7055 C 649.371 0.210538 -1.59416 0
M  V30 7056 O 650.561 -0.0133978 -1.74195 0
M  V30 7057 C 647.693 -0.138678 -3.40618 0
M  V30 7058 H 648.886 -1.69012 -2.4774 0
M  V30 7059 H 646.439 -0.911578 -1.26964 0
M  V30 7060 H 647.174 0.793872 -3.14433 0
M  V30 7061 H 646.959 -0.843012 -3.8293 0
M  V30 7062 H 648.449 0.0848039 -4.17514 0
M  V30 7063 N 648.886 1.2938 -0.899927 0
M  V30 7064 C 649.816 2.30144 -0.39446 0
M  V30 7065 C 650.797 1.61611 0.530639 0
M  V30 7066 O 651.982 1.89119 0.441319 0
M  V30 7067 C 649.112 3.45229 0.37868 0
M  V30 7068 C 648.066 4.25564 -0.456012 0
M  V30 7069 C 647.392 5.32848 0.444637 0
M  V30 7070 C 648.692 4.93651 -1.70605 0
M  V30 7071 H 650.386 2.72673 -1.23653 0
M  V30 7072 H 647.932 1.31086 -0.596034 0
M  V30 7073 H 649.885 4.14797 0.743037 0
M  V30 7074 H 648.609 3.01545 1.25453 0
M  V30 7075 H 647.268 3.57704 -0.802704 0
M  V30 7076 H 646.916 4.85408 1.31863 0
M  V30 7077 H 646.616 5.87497 -0.110154 0
M  V30 7078 H 648.14 6.05268 0.805182 0
M  V30 7079 H 649.554 5.55655 -1.41141 0
M  V30 7080 H 647.951 5.58233 -2.20217 0
M  V30 7081 H 649.021 4.18926 -2.4419 0
M  V30 7082 N 650.364 0.662433 1.43002 0
M  V30 7083 C 651.611 0.179591 2.01702 0
M  V30 7084 C 651.939 -1.20964 1.52309 0
M  V30 7085 O 651.194 -1.82343 0.7106 0
M  V30 7086 C 651.493 0.149363 3.57088 0
M  V30 7087 C 651.159 1.48158 4.25864 0
M  V30 7088 C 649.821 1.84638 4.44367 0
M  V30 7089 C 652.173 2.35953 4.64732 0
M  V30 7090 C 649.501 3.08561 4.99006 0
M  V30 7091 C 651.853 3.59176 5.20745 0
M  V30 7092 C 650.517 3.95841 5.37463 0
M  V30 7093 H 649.787 0.0657172 0.73808 0
M  V30 7094 H 652.434 0.854968 1.71355 0
M  V30 7095 H 650.739 -0.609491 3.8703 0
M  V30 7096 H 652.436 -0.241241 4.00274 0
M  V30 7097 H 649.026 1.18777 4.11813 0
M  V30 7098 H 653.21 2.09058 4.50121 0
M  V30 7099 H 648.466 3.37005 5.10135 0
M  V30 7100 H 652.64 4.27417 5.49807 0
M  V30 7101 H 650.267 4.91942 5.79566 0
M  V30 7102 N 651.842 -1.52309 0.404946 0
M  V30 7103 C 653.253 -1.86585 -0.0655926 0
M  V30 7104 C 653.604 -1.3239 -1.44801 0
M  V30 7105 O 652.729 -0.6615 -2.06042 0
M  V30 7106 C 653.324 -3.38566 -0.125801 0
M  V30 7107 C 651.883 -3.72497 -0.540666 0
M  V30 7108 C 651.03 -2.75806 0.287487 0
M  V30 7109 H 653.981 -1.45995 0.622185 0
M  V30 7110 H 654.002 -3.68658 -0.941888 0
M  V30 7111 H 653.514 -3.77981 0.880473 0
M  V30 7112 H 651.615 -3.38659 -1.55373 0
M  V30 7113 H 651.728 -4.78234 -0.287956 0
M  V30 7114 H 650.092 -2.53474 -0.249561 0
M  V30 7115 H 650.875 -3.18059 1.29203 0
M  V30 7116 N 653.32 -0.135238 -1.57019 0
M  V30 7117 C 654.568 0.51777 -1.95355 0
M  V30 7118 C 654.889 1.6617 -1.02042 0
M  V30 7119 O 654.159 1.95738 -0.0797343 0
M  V30 7120 H 652.739 0.194264 -0.721298 0
M  V30 7121 H 655.401 -0.207983 -1.93787 0
M  V30 7122 H 654.497 0.901675 -2.98791 0
M  V30 7123 N 654.798 1.5699 0.138552 0
M  V30 7124 C 656.075 1.74741 0.87891 0
M  V30 7125 C 656.455 0.705522 1.98961 0
M  V30 7126 O 655.803 -0.274066 2.2685 0
M  V30 7127 C 656.013 3.1909 1.4136 0
M  V30 7128 C 657.361 3.81023 1.87368 0
M  V30 7129 O 658.385 3.22571 1.51084 0
M  V30 7130 O 657.244 4.83722 2.54312 0
M  V30 7131 H 654.338 0.714781 0.415953 0
M  V30 7132 H 656.884 1.69248 0.123817 0
M  V30 7133 H 655.656 3.86424 0.61579 0
M  V30 7134 H 655.279 3.29043 2.23196 0
M  V30 7135 N 656.276 -0.40816 1.52223 0
M  V30 7136 C 657.522 -1.15673 1.66576 0
M  V30 7137 C 657.855 -1.90141 0.394996 0
M  V30 7138 O 657.13 -1.84798 -0.606613 0
M  V30 7139 C 657.413 -2.15042 2.88841 0
M  V30 7140 C 657.266 -1.44465 4.25969 0
M  V30 7141 C 658.585 -3.15699 3.0663 0
M  V30 7142 H 655.704 -0.41916 0.606196 0
M  V30 7143 H 658.346 -0.442348 1.84779 0
M  V30 7144 H 656.496 -2.75964 2.73452 0
M  V30 7145 H 658.168 -0.866544 4.53088 0
M  V30 7146 H 656.411 -0.746612 4.27327 0
M  V30 7147 H 657.082 -2.16976 5.07568 0
M  V30 7148 H 659.558 -2.64854 3.20923 0
M  V30 7149 H 658.434 -3.82491 3.9369 0
M  V30 7150 H 658.695 -3.83481 2.19987 0
M  V30 7151 N 657.755 -1.42862 -0.66545 0
M  V30 7152 C 659.032 -1.3431 -1.42197 0
M  V30 7153 C 659.412 0.0150265 -2.11095 0
M  V30 7154 O 658.76 1.03101 -2.03918 0
M  V30 7155 C 658.97 -2.51783 -2.41674 0
M  V30 7156 C 660.318 -2.94321 -3.0604 0
M  V30 7157 O 661.342 -2.51741 -2.52001 0
M  V30 7158 O 660.201 -3.68047 -4.03985 0
M  V30 7159 H 657.295 -0.530159 -0.634713 0
M  V30 7160 H 659.841 -1.54888 -0.693386 0
M  V30 7161 H 658.613 -3.42282 -1.89627 0
M  V30 7162 H 658.236 -2.33241 -3.22001 0
M  V30 7163 N 659.233 0.902656 -1.29189 0
M  V30 7164 C 660.649 1.18296 -1.07137 0
M  V30 7165 C 660.849 2.00701 0.179223 0
M  V30 7166 O 659.905 2.3675 0.877812 0
M  V30 7167 C 661.218 1.90677 -2.32514 0
M  V30 7168 C 662.766 2.03515 -2.37804 0
M  V30 7169 C 663.241 2.79307 -3.62976 0
M  V30 7170 N 664.732 2.86862 -3.63681 0
M  V30 7171 C 665.467 3.46035 -4.57217 0
M  V30 7172 N 664.963 4.06399 -5.61081 0
M  V30 7173 N 666.756 3.43681 -4.44792 0
M  V30 7174 H 658.907 0.352765 -2.0945 0
M  V30 7175 H 661.17 0.21876 -0.922414 0
M  V30 7176 H 660.876 1.3756 -3.23682 0
M  V30 7177 H 660.75 2.91169 -2.39793 0
M  V30 7178 H 663.137 2.55809 -1.47125 0
M  V30 7179 H 663.218 1.02166 -2.34512 0
M  V30 7180 H 662.862 2.2769 -4.54004 0
M  V30 7181 H 662.792 3.80995 -3.63525 0
M  V30 7182 H 665.283 2.43987 -2.88581 0
M  V30 7183 H 665.596 4.49564 -6.2858 0
M  V30 7184 H 663.941 4.0487 -5.64894 0
M  V30 7185 H 667.132 2.9574 -3.62843 0
M  V30 7186 H 667.305 3.89503 -5.17872 0
M  V30 7187 N 660.711 1.11618 1.11262 0
M  V30 7188 C 661.641 0.79846 2.19424 0
M  V30 7189 C 662.622 -0.234003 1.68483 0
M  V30 7190 O 663.807 -0.0970704 1.93957 0
M  V30 7191 C 660.937 0.242892 3.4645 0
M  V30 7192 C 659.891 1.20744 4.10615 0
M  V30 7193 C 659.217 0.512494 5.32238 0
M  V30 7194 C 660.517 2.55884 4.55325 0
M  V30 7195 H 662.211 1.70286 2.46258 0
M  V30 7196 H 659.757 0.820195 1.18359 0
M  V30 7197 H 661.71 0.00840447 4.21399 0
M  V30 7198 H 660.434 -0.696811 3.1908 0
M  V30 7199 H 659.093 1.42759 3.37662 0
M  V30 7200 H 658.741 -0.432075 5.01141 0
M  V30 7201 H 658.441 1.15583 5.7612 0
M  V30 7202 H 659.965 0.286842 6.09926 0
M  V30 7203 H 661.379 2.37946 5.21588 0
M  V30 7204 H 659.776 3.16216 5.10027 0
M  V30 7205 H 660.846 3.14968 3.68678 0
M  V30 7206 N 662.189 -1.289 0.906776 0
M  V30 7207 C 663.605 -1.47733 0.603902 0
M  V30 7208 C 663.805 -1.82568 -0.852702 0
M  V30 7209 O 662.861 -1.92642 -1.63234 0
M  V30 7210 C 664.174 -2.58522 1.53581 0
M  V30 7211 C 665.722 -2.72394 1.54177 0
M  V30 7212 C 666.197 -3.86318 2.46013 0
M  V30 7213 N 667.688 -3.93661 2.441 0
M  V30 7214 C 668.423 -4.81177 3.11859 0
M  V30 7215 N 667.919 -5.73333 3.88923 0
M  V30 7216 N 669.712 -4.74728 3.00981 0
M  V30 7217 H 661.863 -1.04567 1.84877 0
M  V30 7218 H 664.126 -0.520118 0.792579 0
M  V30 7219 H 663.832 -2.39667 2.57396 0
M  V30 7220 H 663.706 -3.55475 1.26165 0
M  V30 7221 H 666.093 -2.90641 0.511034 0
M  V30 7222 H 666.174 -1.75993 1.85634 0
M  V30 7223 H 665.818 -3.68826 3.49185 0
M  V30 7224 H 665.748 -4.82102 2.11862 0
M  V30 7225 H 668.239 -3.27751 1.88115 0
M  V30 7226 H 668.552 -6.36923 4.37663 0
M  V30 7227 H 666.897 -5.73196 3.93029 0
M  V30 7228 H 670.088 -4.01722 2.40286 0
M  V30 7229 H 670.261 -5.42719 3.54062 0
M  V30 7230 N 663.667 -0.670007 -1.42649 0
M  V30 7231 C 665.083 -0.33911 -1.55956 0
M  V30 7232 C 665.283 1.1558 -1.65056 0
M  V30 7233 O 664.339 1.94111 -1.61485 0
M  V30 7234 C 665.652 -1.06522 -2.812 0
M  V30 7235 C 667.2 -1.04708 -2.94966 0
M  V30 7236 C 667.675 -1.75442 -4.23065 0
M  V30 7237 N 669.166 -1.72286 -4.29967 0
M  V30 7238 C 669.901 -2.23877 -5.27889 0
M  V30 7239 N 669.397 -2.83829 -6.31991 0
M  V30 7240 N 671.19 -2.14279 -5.19654 0
M  V30 7241 H 663.341 -1.6399 -1.34986 0
M  V30 7242 H 665.604 -0.690603 -0.649439 0
M  V30 7243 H 665.31 -2.12033 -2.80597 0
M  V30 7244 H 665.184 -0.627398 -3.71946 0
M  V30 7245 H 667.571 -0.000315966 -2.951 0
M  V30 7246 H 667.652 -1.52374 -2.05465 0
M  V30 7247 H 667.296 -2.80084 -4.23693 0
M  V30 7248 H 667.226 -1.25229 -5.11493 0
M  V30 7249 H 669.717 -1.28554 -3.55362 0
M  V30 7250 H 670.03 -3.20827 -7.03057 0
M  V30 7251 H 668.375 -2.87896 -6.32567 0
M  V30 7252 H 671.566 -1.67135 -4.37245 0
M  V30 7253 H 671.739 -2.54792 -5.95806 0
M  V30 7254 N 665.145 1.52092 -0.413018 0
M  V30 7255 C 666.078 2.23613 0.455234 0
M  V30 7256 C 667.056 1.2459 1.04481 0
M  V30 7257 O 668.24 1.53653 1.09193 0
M  V30 7258 C 665.367 2.96775 1.63224 0
M  V30 7259 C 664.413 4.10261 1.16568 0
M  V30 7260 S 665.246 5.35348 0.127633 0
M  V30 7261 C 666.402 6.1204 1.30987 0
M  V30 7262 H 666.635 2.96911 -0.152042 0
M  V30 7263 H 664.168 1.53134 -0.197343 0
M  V30 7264 H 666.126 3.39532 2.30713 0
M  V30 7265 H 664.787 2.23113 2.21087 0
M  V30 7266 H 663.98 4.6064 2.04515 0
M  V30 7267 H 663.582 3.6964 0.569386 0
M  V30 7268 H 665.874 6.39651 2.23276 0
M  V30 7269 H 666.817 7.03022 0.846533 0
M  V30 7270 H 667.225 5.43161 1.53743 0
M  V30 7271 N 666.623 0.143563 1.56945 0
M  V30 7272 C 667.848 -0.518701 2.00809 0
M  V30 7273 C 668.273 -1.5785 1.02298 0
M  V30 7274 O 667.631 -1.813 -0.0017839 0
M  V30 7275 C 667.679 -1.09929 3.43436 0
M  V30 7276 O 666.783 -2.21425 3.47915 0
M  V30 7277 H 666.124 -0.127215 0.6517 0
M  V30 7278 H 668.654 0.239283 2.03196 0
M  V30 7279 H 668.664 -1.4288 3.82164 0
M  V30 7280 H 667.339 -0.323162 4.14643 0
M  V30 7281 H 665.916 -1.89728 3.21026 0
M  V30 7282 N 668.101 -1.57061 -0.130224 0
M  V30 7283 C 669.347 -1.8453 -0.841216 0
M  V30 7284 C 669.68 -0.727666 -1.80052 0
M  V30 7285 O 668.955 0.267419 -1.92653 0
M  V30 7286 C 669.238 -3.22553 -1.60099 0
M  V30 7287 C 669.091 -4.44901 -0.662048 0
M  V30 7288 C 670.41 -3.58003 -2.55973 0
M  V30 7289 H 667.529 -0.671215 -0.304366 0
M  V30 7290 H 670.171 -1.89705 -0.105821 0
M  V30 7291 H 668.321 -3.18272 -2.22789 0
M  V30 7292 H 669.993 -4.61278 -0.0448559 0
M  V30 7293 H 668.236 -4.33791 0.0272253 0
M  V30 7294 H 668.907 -5.3812 -1.23006 0
M  V30 7295 H 671.383 -3.63002 -2.03393 0
M  V30 7296 H 670.259 -4.55576 -3.06172 0
M  V30 7297 H 670.52 -2.84833 -3.38116 0
M  V30 7298 N 669.579 0.400081 -1.52437 0
M  V30 7299 C 670.828 1.14332 -1.66166 0
M  V30 7300 C 671.141 1.91419 -0.402253 0
M  V30 7301 O 672.347 2.6824 -0.419487 0
M  V30 7302 C 670.803 2.08137 -2.9361 0
M  V30 7303 C 670.411 1.36524 -4.26691 0
M  V30 7304 C 672.155 2.82664 -3.16703 0
M  V30 7305 C 670.062 2.29031 -5.45251 0
M  V30 7306 H 668.992 0.430499 -0.61902 0
M  V30 7307 H 671.643 0.407017 -1.78929 0
M  V30 7308 H 670.025 2.85358 -2.74567 0
M  V30 7309 H 671.199 0.646061 -4.56249 0
M  V30 7310 H 669.514 0.74002 -4.09771 0
M  V30 7311 H 672.111 3.52037 -4.0246 0
M  V30 7312 H 672.454 3.46122 -2.31312 0
M  V30 7313 H 672.987 2.12541 -3.36261 0
M  V30 7314 H 669.726 1.70206 -6.33017 0
M  V30 7315 H 669.246 2.98896 -5.2002 0
M  V30 7316 H 670.925 2.89359 -5.78689 0
M  V30 7317 N 671.057 1.43213 0.657864 0
M  V30 7318 C 671.967 1.50448 1.80007 0
M  V30 7319 C 672.983 0.39191 1.69529 0
M  V30 7320 O 674.159 0.645349 1.90781 0
M  V30 7321 C 671.224 1.42062 3.16258 0
M  V30 7322 C 670.285 2.63951 3.38568 0
M  V30 7323 C 669.518 2.55956 4.68318 0
M  V30 7324 O 669.741 1.60473 5.47361 0
M  V30 7325 O 668.675 3.46378 4.92245 0
M  V30 7326 H 672.501 2.4689 1.76858 0
M  V30 7327 H 670.086 1.25163 0.81576 0
M  V30 7328 H 671.968 1.3981 3.97531 0
M  V30 7329 H 670.643 0.487524 3.20008 0
M  V30 7330 H 669.55 2.71776 2.57077 0
M  V30 7331 H 670.883 3.56217 3.39662 0
M  V30 7332 N 672.536 -0.895792 1.29666 0
M  V30 7333 C 673.446 -2.03329 1.17024 0
M  V30 7334 C 674.462 -1.73753 0.0925962 0
M  V30 7335 O 675.638 -1.99071 0.305431 0
M  V30 7336 C 672.703 -3.36072 0.851841 0
M  V30 7337 C 671.764 -3.7914 2.01373 0
M  V30 7338 C 670.997 -5.05549 1.71043 0
M  V30 7339 O 671.22 -5.66874 0.633213 0
M  V30 7340 O 670.154 -5.44764 2.5596 0
M  V30 7341 H 673.98 -2.16918 2.12556 0
M  V30 7342 H 671.565 -1.02007 1.09156 0
M  V30 7343 H 673.447 -4.15729 0.689006 0
M  V30 7344 H 672.122 -3.23616 -0.0736634 0
M  V30 7345 H 671.029 -3.00233 2.23183 0
M  V30 7346 H 672.362 -3.96186 2.92058 0
M  V30 7347 N 674.014 -1.12206 -1.10668 0
M  V30 7348 C 675.262 -0.874144 -1.82217 0
M  V30 7349 C 675.583 0.601736 -1.85484 0
M  V30 7350 O 674.853 1.43725 -1.33116 0
M  V30 7351 H 673.433 -0.320404 -0.674797 0
M  V30 7352 H 676.095 -1.41606 -1.33917 0
M  V30 7353 H 675.191 -1.25349 -2.85822 0
M  V30 7354 N 675.492 1.28418 -0.913599 0
M  V30 7355 C 676.769 1.89977 -0.465619 0
M  V30 7356 C 677.149 1.82813 1.05559 0
M  V30 7357 O 676.497 1.26397 1.90358 0
M  V30 7358 C 676.707 3.34492 -0.995813 0
M  V30 7359 C 678.055 4.11468 -1.04782 0
M  V30 7360 O 679.079 3.43451 -0.944445 0
M  V30 7361 O 677.938 5.33046 -1.20518 0
M  V30 7362 H 675.032 0.813734 -0.147532 0
M  V30 7363 H 677.578 1.36786 -1.00437 0
M  V30 7364 H 676.35 3.33929 -2.03978 0
M  V30 7365 H 675.973 3.95181 -0.437878 0
M  V30 7366 N 676.97 0.677563 1.42291 0
M  V30 7367 C 678.21 0.204894 2.0337 0
M  V30 7368 C 678.574 -1.16744 1.5243 0
M  V30 7369 O 679.775 -1.73492 2.05314 0
M  V30 7370 C 678.046 0.240742 3.56588 0
M  V30 7371 S 679.605 -0.16052 4.38506 0
M  V30 7372 H 676.423 0.0839932 0.706021 0
M  V30 7373 H 679.025 0.891332 1.73999 0
M  V30 7374 H 677.729 1.24184 3.91161 0
M  V30 7375 H 677.26 -0.465439 3.90637 0
M  V30 7376 H 679.275 -1.39315 4.76241 0
M  V30 7377 N 678.448 -1.51871 0.421078 0
M  V30 7378 C 679.395 -2.27334 -0.398508 0
M  V30 7379 C 680.365 -1.30241 -1.03085 0
M  V30 7380 O 681.55 -1.59121 -1.05285 0
M  V30 7381 C 678.69 -3.10664 -1.50272 0
M  V30 7382 C 677.803 -4.2273 -0.890122 0
M  V30 7383 C 676.938 -4.93399 -1.96803 0
M  V30 7384 C 675.977 -5.97409 -1.333 0
M  V30 7385 N 675.114 -6.61548 -2.35156 0
M  V30 7386 H 679.954 -2.96938 0.251411 0
M  V30 7387 H 677.491 -1.46472 0.135825 0
M  V30 7388 H 679.449 -3.57292 -2.15403 0
M  V30 7389 H 678.079 -2.43207 -2.1225 0
M  V30 7390 H 677.131 -3.80186 -0.127537 0
M  V30 7391 H 678.443 -4.97302 -0.386349 0
M  V30 7392 H 677.597 -5.43491 -2.69633 0
M  V30 7393 H 676.336 -4.18421 -2.50549 0
M  V30 7394 H 675.341 -5.46624 -0.59008 0
M  V30 7395 H 676.566 -6.74335 -0.803076 0
M  V30 7396 H 674.512 -5.89394 -2.88012 0
M  V30 7397 H 674.429 -7.31832 -1.89624 0
M  V30 7398 H 675.697 -7.16276 -3.0752 0
M  V30 7399 N 679.926 -0.151884 -1.56866 0
M  V30 7400 C 681.342 0.204486 -1.58285 0
M  V30 7401 C 681.542 1.6431 -1.16639 0
M  V30 7402 O 680.598 2.37077 -0.868946 0
M  V30 7403 C 681.911 -0.0587019 -3.00643 0
M  V30 7404 C 683.459 0.00462303 -3.13 0
M  V30 7405 C 683.934 -0.231297 -4.57416 0
M  V30 7406 N 685.425 -0.178394 -4.62856 0
M  V30 7407 C 686.16 -0.335379 -5.72418 0
M  V30 7408 N 685.656 -0.550355 -6.90611 0
M  V30 7409 N 687.449 -0.272641 -5.61438 0
M  V30 7410 H 679.6 -1.09116 -1.82229 0
M  V30 7411 H 681.863 -0.432311 -0.843689 0
M  V30 7412 H 681.569 -1.05453 -3.35518 0
M  V30 7413 H 681.443 0.658508 -3.71407 0
M  V30 7414 H 683.83 0.991009 -2.77962 0
M  V30 7415 H 683.911 -0.744992 -2.44711 0
M  V30 7416 H 683.555 -1.2148 -4.93158 0
M  V30 7417 H 683.485 0.5387 -5.23837 0
M  V30 7418 H 685.976 -0.0170923 -3.77896 0
M  V30 7419 H 686.289 -0.660116 -7.69976 0
M  V30 7420 H 684.634 -0.586736 -6.92519 0
M  V30 7421 H 687.825 -0.105421 -4.67981 0
M  V30 7422 H 687.998 -0.398418 -6.46774 0
M  V30 7423 N 681.404 1.57128 0.121893 0
M  V30 7424 C 682.653 1.83888 0.828748 0
M  V30 7425 C 682.966 0.737087 1.81181 0
M  V30 7426 O 684.172 0.891007 2.56463 0
M  V30 7427 C 682.628 3.26014 1.52455 0
M  V30 7428 C 682.236 4.44195 0.58263 0
M  V30 7429 C 683.98 3.62025 2.21671 0
M  V30 7430 C 681.887 5.77349 1.28149 0
M  V30 7431 H 680.817 0.685856 0.313238 0
M  V30 7432 H 683.468 1.83319 0.0814851 0
M  V30 7433 H 681.85 3.21044 2.31834 0
M  V30 7434 H 683.024 4.60457 -0.177729 0
M  V30 7435 H 681.339 4.164 -0.00241228 0
M  V30 7436 H 683.936 4.58776 2.74643 0
M  V30 7437 H 684.279 2.89315 2.99337 0
M  V30 7438 H 684.812 3.68767 1.49184 0
M  V30 7439 H 681.551 6.53221 0.546189 0
M  V30 7440 H 681.071 5.64978 2.01394 0
M  V30 7441 H 682.75 6.21006 1.81549 0
M  V30 7442 N 682.882 -0.391992 1.52647 0
M  V30 7443 C 683.83 -1.4991 1.77848 0
M  V30 7444 C 684.824 -1.56587 0.646282 0
M  V30 7445 O 686.03 -1.59789 0.828698 0
M  V30 7446 H 682.405 -0.498883 0.56269 0
M  V30 7447 H 684.376 -1.25847 2.70564 0
M  V30 7448 C 683.125 -2.87081 1.96163 0
M  V30 7449 H 682.448 -2.82692 2.82711 0
M  V30 7450 H 683.888 -3.63792 2.17787 0
M  V30 7451 C 682.347 -3.28822 0.733348 0
M  V30 7452 O 682.877 -4.01598 -0.0906481 0
M  V30 7453 N 681.083 -2.85068 0.564317 0
M  V30 7454 H 680.63 -2.26012 1.23598 0
M  V30 7455 H 680.588 -3.13355 -0.256166 0
M  V30 7456 N 684.36 -1.4356 -0.65026 0
M  V30 7457 C 685.293 -1.434 -1.77515 0
M  V30 7458 C 686.271 -0.295082 -1.599 0
M  V30 7459 O 687.455 -0.489128 -1.82043 0
M  V30 7460 C 684.582 -1.2484 -3.14853 0
M  V30 7461 C 683.628 -2.42046 -3.51163 0
M  V30 7462 S 684.461 -4.04595 -3.50803 0
M  V30 7463 C 685.617 -3.88424 -4.90793 0
M  V30 7464 H 685.85 -2.38586 -1.77381 0
M  V30 7465 H 683.383 -1.30627 -0.823169 0
M  V30 7466 H 685.341 -1.14819 -3.94115 0
M  V30 7467 H 684.002 -0.311977 -3.12547 0
M  V30 7468 H 683.195 -2.24873 -4.51052 0
M  V30 7469 H 682.797 -2.48708 -2.79321 0
M  V30 7470 H 685.089 -3.50932 -5.79528 0
M  V30 7471 H 686.032 -4.88076 -5.13018 0
M  V30 7472 H 686.44 -3.20829 -4.64467 0
M  V30 7473 N 685.838 0.888903 -1.30139 0
M  V30 7474 C 686.801 1.97576 -1.16174 0
M  V30 7475 C 687.801 1.60525 -0.094086 0
M  V30 7476 O 688.991 1.70812 -0.341889 0
M  V30 7477 C 686.123 3.3188 -0.778983 0
M  V30 7478 H 687.316 2.11393 -2.12728 0
M  V30 7479 H 684.869 1.0748 -1.1348 0
M  V30 7480 H 685.604 3.23765 0.186225 0
M  V30 7481 H 685.389 3.60141 -1.55051 0
M  V30 7482 H 686.879 4.11612 -0.704631 0
M  V30 7483 N 687.317 1.12792 1.10072 0
M  V30 7484 C 688.267 0.768086 2.14673 0
M  V30 7485 C 689.251 -0.234716 1.59179 0
M  V30 7486 O 690.443 -0.039643 1.76956 0
M  V30 7487 C 687.572 0.228472 3.42539 0
M  V30 7488 C 686.658 1.25979 4.04957 0
M  V30 7489 N 687.049 2.4586 4.42025 0
M  V30 7490 C 685.347 1.10602 4.32069 0
M  V30 7491 C 686.048 3.11747 4.9111 0
M  V30 7492 N 685.024 2.39185 4.88151 0
M  V30 7493 H 688.826 1.68029 2.4113 0
M  V30 7494 H 686.34 1.00925 1.27232 0
M  V30 7495 H 688.337 -0.0475216 4.16873 0
M  V30 7496 H 686.997 -0.678136 3.1754 0
M  V30 7497 H 688.008 2.83215 4.33601 0
M  V30 7498 H 684.685 0.257021 4.16708 0
M  V30 7499 H 686.075 4.13862 5.29309 0
M  V30 7500 N 688.795 -1.27931 0.920396 0
M  V30 7501 C 689.725 -2.29487 0.431024 0
M  V30 7502 C 690.706 -1.62435 -0.504861 0
M  V30 7503 O 691.891 -1.89797 -0.411176 0
M  V30 7504 C 689.021 -3.45788 -0.323709 0
M  V30 7505 C 687.975 -4.24784 0.523658 0
M  V30 7506 C 687.301 -5.33488 -0.359809 0
M  V30 7507 C 688.601 -4.90874 1.78437 0
M  V30 7508 H 690.295 -2.70671 1.27975 0
M  V30 7509 H 687.841 -1.30121 0.616813 0
M  V30 7510 H 689.794 -4.15927 -0.676952 0
M  V30 7511 H 688.518 -3.03502 -1.2064 0
M  V30 7512 H 687.177 -3.56382 0.85951 0
M  V30 7513 H 686.825 -4.87445 -1.24124 0
M  V30 7514 H 686.525 -5.87247 0.203605 0
M  V30 7515 H 688.049 -6.06472 -0.708787 0
M  V30 7516 H 689.463 -5.53339 1.49963 0
M  V30 7517 H 687.86 -5.54659 2.29071 0
M  V30 7518 H 688.93 -4.14988 2.50824 0
M  V30 7519 N 690.273 -0.685099 -1.4193 0
M  V30 7520 C 691.513 -0.215676 -2.03259 0
M  V30 7521 C 691.877 1.15934 -1.53047 0
M  V30 7522 O 693.078 1.72401 -2.06231 0
M  V30 7523 C 691.349 -0.259649 -3.56456 0
M  V30 7524 S 692.908 0.137262 -4.38585 0
M  V30 7525 H 689.726 -0.0877362 -0.705566 0
M  V30 7526 H 692.328 -0.900547 -1.73523 0
M  V30 7527 H 691.032 -1.26256 -3.90497 0
M  V30 7528 H 690.563 0.444716 -3.90878 0
M  V30 7529 H 692.578 1.36787 -4.76973 0
M  V30 7530 N 691.751 1.51645 -0.429126 0
M  V30 7531 C 692.997 2.02314 0.140286 0
M  V30 7532 C 693.33 1.31314 1.43074 0
M  V30 7533 O 692.605 0.425531 1.89788 0
M  V30 7534 C 692.888 3.5822 0.36749 0
M  V30 7535 C 692.741 4.39846 -0.941039 0
M  V30 7536 C 694.06 4.25055 1.14089 0
M  V30 7537 H 691.179 0.735335 0.0495112 0
M  V30 7538 H 693.821 1.81358 -0.566514 0
M  V30 7539 H 691.971 3.76207 0.969556 0
M  V30 7540 H 693.643 4.33527 -1.57646 0
M  V30 7541 H 691.886 4.05259 -1.54751 0
M  V30 7542 H 692.557 5.47069 -0.73621 0
M  V30 7543 H 695.033 4.11288 0.630986 0
M  V30 7544 H 693.909 5.34038 1.26863 0
M  V30 7545 H 694.17 3.85358 2.16683 0
M  V30 7546 N 693.229 0.160201 1.56784 0
M  V30 7547 C 694.478 -0.487619 1.95717 0
M  V30 7548 C 694.791 -1.65136 1.0483 0
M  V30 7549 O 695.997 -2.36468 1.33398 0
M  V30 7550 C 694.453 -0.91888 3.47972 0
M  V30 7551 C 694.061 0.218655 4.47466 0
M  V30 7552 C 695.805 -1.53575 3.95746 0
M  V30 7553 C 693.712 -0.231614 5.90946 0
M  V30 7554 H 692.642 -0.185939 0.730714 0
M  V30 7555 H 695.293 0.246657 1.81835 0
M  V30 7556 H 693.675 -1.70881 3.57234 0
M  V30 7557 H 694.849 0.995825 4.49911 0
M  V30 7558 H 693.164 0.744767 4.09685 0
M  V30 7559 H 695.761 -1.88448 5.00391 0
M  V30 7560 H 696.104 -2.42959 3.38048 0
M  V30 7561 H 696.637 -0.810467 3.89456 0
M  V30 7562 H 693.376 0.62718 6.52493 0
M  V30 7563 H 692.896 -0.974379 5.91833 0
M  V30 7564 H 694.575 -0.67922 6.43425 0
M  V30 7565 N 694.707 -1.5719 -0.113559 0
M  V30 7566 C 695.955 -1.84772 -0.818761 0
M  V30 7567 C 696.276 -0.746196 -1.80158 0
M  V30 7568 O 695.546 0.229305 -1.94553 0
M  V30 7569 H 694.126 -0.681737 -0.305359 0
M  V30 7570 H 696.788 -1.94645 -0.0995845 0
M  V30 7571 H 695.884 -2.80878 -1.36067 0
M  V30 7572 N 696.185 0.383891 -1.52853 0
M  V30 7573 C 697.41 1.154 -1.7233 0
M  V30 7574 C 697.835 1.82809 -0.44298 0
M  V30 7575 O 697.193 1.71026 0.601645 0
M  V30 7576 C 697.241 2.17386 -2.87708 0
M  V30 7577 O 696.345 3.24082 -2.55038 0
M  V30 7578 H 695.686 0.335709 -0.572883 0
M  V30 7579 H 698.216 0.44662 -1.99666 0
M  V30 7580 H 698.226 2.61296 -3.1335 0
M  V30 7581 H 696.901 1.6771 -3.80587 0
M  V30 7582 H 695.478 2.85273 -2.40153 0
M  V30 7583 N 697.663 1.43903 0.642637 0
M  V30 7584 C 698.613 1.46321 1.74854 0
M  V30 7585 C 699.597 0.330361 1.57472 0
M  V30 7586 O 700.789 0.574881 1.67404 0
M  V30 7587 C 697.918 1.39919 3.13493 0
M  V30 7588 C 697.004 2.58274 3.36385 0
M  V30 7589 N 697.395 3.83578 3.29699 0
M  V30 7590 C 695.693 2.53224 3.67142 0
M  V30 7591 C 696.394 4.62375 3.52965 0
M  V30 7592 N 695.37 3.93269 3.75287 0
M  V30 7593 H 699.172 2.41062 1.68126 0
M  V30 7594 H 696.686 1.38704 0.844693 0
M  V30 7595 H 698.683 1.39735 3.92785 0
M  V30 7596 H 697.343 0.46207 3.21395 0
M  V30 7597 H 698.354 4.15713 3.08874 0
M  V30 7598 H 695.031 1.68252 3.82096 0
M  V30 7599 H 696.421 5.714 3.53485 0
M  V30 7600 N 699.141 -0.881989 1.30609 0
M  V30 7601 C 700.104 -1.96957 1.1722 0
M  V30 7602 C 701.104 -1.60472 0.102598 0
M  V30 7603 O 702.294 -1.70628 0.350943 0
M  V30 7604 C 699.426 -3.31463 0.796572 0
M  V30 7605 H 700.619 -2.10262 2.13846 0
M  V30 7606 H 698.172 -1.06877 1.14048 0
M  V30 7607 H 698.907 -3.23859 -0.169053 0
M  V30 7608 H 698.692 -3.59314 1.56959 0
M  V30 7609 H 700.182 -4.11233 0.72645 0
M  V30 7610 N 700.619 -1.13374 -1.09472 0
M  V30 7611 C 701.865 -0.896516 -1.81908 0
M  V30 7612 C 702.198 0.575933 -1.85463 0
M  V30 7613 O 701.473 1.42618 -1.32251 0
M  V30 7614 C 701.756 -1.48445 -3.28079 0
M  V30 7615 C 701.609 -3.02598 -3.32798 0
M  V30 7616 C 702.928 -1.15226 -4.24748 0
M  V30 7617 H 700.047 -0.327127 -0.660422 0
M  V30 7618 H 702.689 -1.40195 -1.2824 0
M  V30 7619 H 700.839 -1.0546 -3.73912 0
M  V30 7620 H 702.511 -3.54335 -2.95372 0
M  V30 7621 H 700.754 -3.37613 -2.72397 0
M  V30 7622 H 701.425 -3.38835 -4.3577 0
M  V30 7623 H 703.901 -1.52369 -3.87199 0
M  V30 7624 H 702.777 -1.59012 -5.25363 0
M  V30 7625 H 703.038 -0.0658891 -4.42051 0
M  V30 7626 N 702.098 1.27442 -0.927168 0
M  V30 7627 C 703.046 2.28844 -0.416333 0
M  V30 7628 C 704.04 1.61882 0.499057 0
M  V30 7629 O 705.246 1.75969 0.378817 0
M  V30 7630 H 701.621 0.742989 -0.116065 0
M  V30 7631 H 703.592 2.69344 -1.28438 0
M  V30 7632 C 702.341 3.4626 0.316107 0
M  V30 7633 H 701.664 3.97999 -0.379082 0
M  V30 7634 H 703.104 4.19173 0.637975 0
M  V30 7635 C 701.563 3.00211 1.5289 0
M  V30 7636 O 702.093 3.03837 2.62766 0
M  V30 7637 N 700.299 2.55713 1.38054 0
M  V30 7638 H 699.846 2.52962 0.4866 0
M  V30 7639 H 699.804 2.25264 2.19325 0
M  V30 7640 N 703.576 0.692616 1.41565 0
M  V30 7641 C 704.824 0.221896 2.00878 0
M  V30 7642 C 705.145 -1.18164 1.5512 0
M  V30 7643 O 704.415 -1.79679 0.78054 0
M  V30 7644 H 702.995 0.0790463 0.742806 0
M  V30 7645 H 705.657 0.893115 1.73232 0
M  V30 7646 H 704.753 0.23702 3.11199 0
M  V30 7647 N 705.054 -1.51416 0.437162 0
M  V30 7648 C 706.3 -2.02386 -0.129555 0
M  V30 7649 C 706.633 -1.32071 -1.42376 0
M  V30 7650 O 705.908 -0.43559 -1.8956 0
M  V30 7651 C 706.191 -3.5841 -0.348487 0
M  V30 7652 C 706.044 -4.39341 0.964352 0
M  V30 7653 C 707.363 -4.25654 -1.11834 0
M  V30 7654 H 704.482 -0.735587 -0.0456109 0
M  V30 7655 H 707.124 -1.81055 0.576124 0
M  V30 7656 H 705.274 -3.76716 -0.949592 0
M  V30 7657 H 706.946 -4.32685 1.59942 0
M  V30 7658 H 705.189 -4.04432 1.56898 0
M  V30 7659 H 705.86 -5.4667 0.765212 0
M  V30 7660 H 708.336 -4.11617 -0.609165 0
M  V30 7661 H 707.212 -5.34704 -1.24029 0
M  V30 7662 H 707.473 -3.86502 -2.14636 0
M  V30 7663 N 706.532 -0.168513 -1.56696 0
M  V30 7664 C 707.495 0.748928 -2.16619 0
M  V30 7665 C 708.495 1.16007 -1.11351 0
M  V30 7666 O 709.685 1.07748 -1.3688 0
M  V30 7667 C 706.817 2.01904 -2.74677 0
M  V30 7668 H 708.01 0.227317 -2.99037 0
M  V30 7669 H 705.563 0.0810372 -1.5609 0
M  V30 7670 H 706.298 2.58381 -1.95985 0
M  V30 7671 H 706.083 1.73323 -3.51712 0
M  V30 7672 H 707.573 2.67383 -3.20774 0
M  V30 7673 N 708.01 1.57248 0.105221 0
M  V30 7674 C 709.426 1.52853 0.459153 0
M  V30 7675 C 709.626 0.883674 1.8109 0
M  V30 7676 O 708.682 0.471864 2.48052 0
M  V30 7677 C 709.995 2.97596 0.43096 0
M  V30 7678 C 711.543 3.08758 0.513536 0
M  V30 7679 C 712.018 4.55089 0.515593 0
M  V30 7680 N 713.509 4.59597 0.576639 0
M  V30 7681 C 714.244 5.70253 0.599904 0
M  V30 7682 N 713.74 6.90368 0.579985 0
M  V30 7683 N 715.533 5.58399 0.643953 0
M  V30 7684 H 707.684 1.97547 -0.780306 0
M  V30 7685 H 709.947 0.902758 -0.289363 0
M  V30 7686 H 709.653 3.48201 -0.494903 0
M  V30 7687 H 709.527 3.55756 1.2537 0
M  V30 7688 H 711.914 2.58148 1.42982 0
M  V30 7689 H 711.995 2.53568 -0.337148 0
M  V30 7690 H 711.639 5.06348 -0.396701 0
M  V30 7691 H 711.569 5.08105 1.38335 0
M  V30 7692 H 714.06 3.73144 0.597639 0
M  V30 7693 H 714.373 7.70462 0.600741 0
M  V30 7694 H 712.718 6.92843 0.547191 0
M  V30 7695 H 715.909 4.63467 0.656975 0
M  V30 7696 H 716.082 6.44644 0.658616 0
M  V30 7697 N 709.488 -0.375779 1.53054 0
M  V30 7698 C 710.737 -1.11674 1.67964 0
M  V30 7699 C 711.05 -1.90755 0.432655 0
M  V30 7700 O 712.256 -2.67538 0.462109 0
M  V30 7701 C 710.712 -2.0344 2.96884 0
M  V30 7702 C 710.32 -1.29719 4.28809 0
M  V30 7703 C 712.064 -2.7759 3.2116 0
M  V30 7704 C 709.971 -2.20327 5.48826 0
M  V30 7705 H 708.901 -0.420597 0.625791 0
M  V30 7706 H 711.552 -0.378499 1.79554 0
M  V30 7707 H 709.934 -2.80953 2.79072 0
M  V30 7708 H 711.108 -0.573394 4.57219 0
M  V30 7709 H 709.423 -0.674735 4.10897 0
M  V30 7710 H 712.02 -3.4559 4.0801 0
M  V30 7711 H 712.363 -3.42399 2.36789 0
M  V30 7712 H 712.896 -2.07164 3.396 0
M  V30 7713 H 709.635 -1.60113 6.35645 0
M  V30 7714 H 709.155 -2.90585 5.2471 0
M  V30 7715 H 710.834 -2.80116 5.83219 0
M  V30 7716 N 710.966 -1.44241 -0.634997 0
M  V30 7717 C 711.916 -1.47247 -1.74076 0
M  V30 7718 C 712.9 -0.338708 -1.57295 0
M  V30 7719 O 714.092 -0.583751 -1.67097 0
M  V30 7720 C 711.221 -1.41579 -3.12746 0
M  V30 7721 C 710.307 -2.60055 -3.35011 0
M  V30 7722 N 710.698 -3.85321 -3.27661 0
M  V30 7723 C 708.996 -2.55168 -3.65794 0
M  V30 7724 C 709.697 -4.64241 -3.50508 0
M  V30 7725 N 708.673 -3.95254 -3.73196 0
M  V30 7726 H 712.475 -2.4195 -1.66845 0
M  V30 7727 H 709.989 -1.3915 -0.837326 0
M  V30 7728 H 711.986 -1.41816 -3.92038 0
M  V30 7729 H 710.646 -0.479108 -3.21146 0
M  V30 7730 H 711.657 -4.17345 -3.06665 0
M  V30 7731 H 708.334 -1.70276 -3.81198 0
M  V30 7732 H 709.724 -5.73267 -3.50449 0
M  V30 7733 N 712.444 0.87505 -1.31075 0
M  V30 7734 C 713.669 1.66583 -1.23551 0
M  V30 7735 C 714.094 1.87067 0.19686 0
M  V30 7736 O 713.452 1.40877 1.1412 0
M  V30 7737 C 713.5 3.01401 -1.97965 0
M  V30 7738 O 712.604 3.90923 -1.31351 0
M  V30 7739 H 711.945 0.508645 -0.426821 0
M  V30 7740 H 714.475 1.09139 -1.7306 0
M  V30 7741 H 714.485 3.51374 -2.07366 0
M  V30 7742 H 713.16 2.85812 -3.02133 0
M  V30 7743 H 711.737 3.49369 -1.30368 0
M  V30 7744 N 713.922 1.13953 1.08869 0
M  V30 7745 C 714.832 0.835666 2.19212 0
M  V30 7746 C 715.848 -0.182005 1.73045 0
M  V30 7747 O 717.024 -0.0116661 2.01397 0
M  V30 7748 C 714.089 0.312325 3.4529 0
M  V30 7749 C 713.15 1.39196 4.06107 0
M  V30 7750 C 712.383 0.893496 5.26168 0
M  V30 7751 O 712.606 -0.266807 5.69776 0
M  V30 7752 O 711.54 1.67037 5.78258 0
M  V30 7753 H 715.366 1.75769 2.47667 0
M  V30 7754 H 712.951 0.917421 1.17914 0
M  V30 7755 H 714.833 0.0261582 4.21392 0
M  V30 7756 H 713.508 -0.582042 3.18424 0
M  V30 7757 H 712.415 1.73152 3.31616 0
M  V30 7758 H 713.748 2.26068 4.37212 0
M  V30 7759 N 715.4 -1.26948 0.933913 0
M  V30 7760 C 716.649 -1.93378 0.573409 0
M  V30 7761 C 716.962 -1.74148 -0.890614 0
M  V30 7762 O 718.168 -2.34971 -1.36017 0
M  V30 7763 C 716.624 -3.46449 0.974747 0
M  V30 7764 C 716.232 -3.74425 2.45988 0
M  V30 7765 C 717.976 -4.18924 0.685791 0
M  V30 7766 C 715.883 -5.209 2.8003 0
M  V30 7767 H 714.813 -0.723952 0.210736 0
M  V30 7768 H 717.464 -1.44143 1.13557 0
M  V30 7769 H 715.846 -3.94528 0.341181 0
M  V30 7770 H 717.02 -3.37079 3.14188 0
M  V30 7771 H 715.335 -3.15167 2.72138 0
M  V30 7772 H 717.932 -5.26786 0.916546 0
M  V30 7773 H 718.275 -4.14587 -0.377217 0
M  V30 7774 H 718.808 -3.76687 1.27874 0
M  V30 7775 H 715.547 -5.30332 3.85264 0
M  V30 7776 H 715.067 -5.59369 2.16485 0
M  V30 7777 H 716.746 -5.88837 2.68105 0
M  V30 7778 N 716.879 -0.700114 -1.41195 0
M  V30 7779 C 718.125 -0.233351 -2.01453 0
M  V30 7780 C 718.458 1.16548 -1.55339 0
M  V30 7781 O 717.733 1.78756 -0.766575 0
M  V30 7782 C 718.016 -0.2961 -3.58881 0
M  V30 7783 C 717.869 -1.7322 -4.15108 0
M  V30 7784 C 719.188 0.341525 -4.38773 0
M  V30 7785 H 716.307 -0.0862667 -0.731934 0
M  V30 7786 H 718.949 -0.889693 -1.67882 0
M  V30 7787 H 717.099 0.262736 -3.87611 0
M  V30 7788 H 718.771 -2.34523 -3.97236 0
M  V30 7789 H 717.014 -2.2649 -3.69979 0
M  V30 7790 H 717.685 -1.7276 -5.24269 0
M  V30 7791 H 720.161 -0.134461 -4.15883 0
M  V30 7792 H 719.037 0.267098 -5.4825 0
M  V30 7793 H 719.298 1.42289 -4.18577 0
M  V30 7794 N 718.357 1.51182 -0.445186 0
M  V30 7795 C 719.304 2.27939 0.362291 0
M  V30 7796 C 720.274 1.31864 1.01 0
M  V30 7797 O 721.459 1.60776 1.02741 0
M  V30 7798 C 718.599 3.13016 1.45311 0
M  V30 7799 C 717.712 4.24093 0.822757 0
M  V30 7800 C 716.847 4.96467 1.88928 0
M  V30 7801 C 715.886 5.99454 1.23778 0
M  V30 7802 N 715.023 6.65206 2.24602 0
M  V30 7803 H 719.863 2.965 -0.29862 0
M  V30 7804 H 717.4 1.46237 -0.15911 0
M  V30 7805 H 719.358 3.60673 2.09692 0
M  V30 7806 H 717.988 2.46553 2.08354 0
M  V30 7807 H 717.04 3.80341 0.0670364 0
M  V30 7808 H 718.352 4.97853 0.307184 0
M  V30 7809 H 717.506 5.47712 2.60953 0
M  V30 7810 H 716.245 4.22355 2.4386 0
M  V30 7811 H 715.25 5.47494 0.503042 0
M  V30 7812 H 716.475 6.75527 0.695694 0
M  V30 7813 H 714.421 5.93901 2.78599 0
M  V30 7814 H 714.338 7.34756 1.77958 0
M  V30 7815 H 715.606 7.21078 2.96085 0
M  V30 7816 N 719.835 0.176821 1.56605 0
M  V30 7817 C 720.767 -0.782836 2.15417 0
M  V30 7818 C 721.78 -1.18982 1.11117 0
M  V30 7819 O 722.969 -1.12872 1.38283 0
M  V30 7820 C 720.069 -2.06596 2.68647 0
M  V30 7821 C 719.242 -1.82167 3.9766 0
M  V30 7822 C 718.301 -2.94751 4.35899 0
M  V30 7823 O 717.327 -2.65148 5.03672 0
M  V30 7824 N 718.529 -4.2267 3.97907 0
M  V30 7825 H 721.294 -0.280012 2.98389 0
M  V30 7826 H 718.855 -0.00577529 1.61899 0
M  V30 7827 H 720.847 -2.81018 2.91223 0
M  V30 7828 H 719.417 -2.48054 1.90232 0
M  V30 7829 H 718.637 -0.916208 3.83405 0
M  V30 7830 H 719.925 -1.6322 4.81909 0
M  V30 7831 H 719.323 -4.4958 3.43357 0
M  V30 7832 H 717.88 -4.93778 4.25472 0
M  V30 7833 N 721.313 -1.57302 -0.09688 0
M  V30 7834 C 722.538 -1.9058 -0.818169 0
M  V30 7835 C 722.963 -0.770921 -1.71576 0
M  V30 7836 O 722.321 0.277588 -1.79162 0
M  V30 7837 C 722.369 -3.22714 -1.60898 0
M  V30 7838 O 721.473 -3.10178 -2.71779 0
M  V30 7839 H 720.814 -0.624759 -0.224882 0
M  V30 7840 H 723.344 -2.04471 -0.07264 0
M  V30 7841 H 723.354 -3.55978 -1.99358 0
M  V30 7842 H 722.029 -4.04899 -0.950227 0
M  V30 7843 H 720.606 -2.88424 -2.3636 0
M  V30 7844 N 722.791 0.367657 -1.53252 0
M  V30 7845 C 724.037 1.11216 -1.69584 0
M  V30 7846 C 724.37 1.89026 -0.445269 0
M  V30 7847 O 723.645 1.86342 0.557404 0
M  V30 7848 C 723.928 2.07308 -2.94441 0
M  V30 7849 C 723.781 1.3312 -4.2965 0
M  V30 7850 C 725.1 3.07459 -3.14892 0
M  V30 7851 H 722.219 0.40294 -0.617096 0
M  V30 7852 H 724.861 0.393201 -1.85887 0
M  V30 7853 H 723.011 2.68617 -2.80673 0
M  V30 7854 H 724.683 0.746111 -4.55226 0
M  V30 7855 H 722.926 0.633051 -4.29156 0
M  V30 7856 H 723.597 2.03443 -5.13142 0
M  V30 7857 H 726.073 2.56252 -3.27832 0
M  V30 7858 H 724.949 3.71919 -4.03693 0
M  V30 7859 H 725.21 3.77514 -2.30077 0
M  V30 7860 N 724.269 1.44576 0.627338 0
M  V30 7861 C 725.516 1.47558 1.38682 0
M  V30 7862 C 725.844 0.109636 1.94191 0
M  V30 7863 O 725.099 -0.889092 1.74338 0
M  V30 7864 C 725.398 2.48644 2.56731 0
M  V30 7865 C 725.064 3.93873 2.19489 0
M  V30 7866 C 723.726 4.33421 2.09045 0
M  V30 7867 C 726.078 4.85286 1.90124 0
M  V30 7868 C 723.406 5.62303 1.6743 0
M  V30 7869 C 725.758 6.14559 1.50001 0
M  V30 7870 C 724.422 6.53058 1.38101 0
M  V30 7871 H 723.692 0.539955 0.507474 0
M  V30 7872 H 726.339 1.77811 0.711021 0
M  V30 7873 H 724.644 2.11889 3.29561 0
M  V30 7874 H 726.341 2.48197 3.14959 0
M  V30 7875 H 722.931 3.62587 2.28537 0
M  V30 7876 H 727.115 4.55483 1.971 0
M  V30 7877 H 722.371 5.90945 1.56823 0
M  V30 7878 H 726.545 6.84848 1.26319 0
M  V30 7879 H 724.172 7.52826 1.05628 0
M  V30 7880 N 725.747 -0.868086 1.31537 0
M  V30 7881 C 726.694 -1.97548 1.19346 0
M  V30 7882 C 727.664 -1.65913 0.0787922 0
M  V30 7883 O 728.849 -1.89129 0.251985 0
M  V30 7884 C 725.989 -3.32922 0.908692 0
M  V30 7885 C 725.102 -3.77141 2.10687 0
M  V30 7886 C 724.237 -5.01241 1.75873 0
M  V30 7887 C 723.276 -5.37914 2.92088 0
M  V30 7888 N 722.413 -6.53192 2.57457 0
M  V30 7889 H 727.253 -2.07307 2.14074 0
M  V30 7890 H 724.79 -1.01483 1.06487 0
M  V30 7891 H 726.748 -4.10867 0.724138 0
M  V30 7892 H 725.378 -3.228 -0.0017611 0
M  V30 7893 H 724.43 -2.94961 2.40213 0
M  V30 7894 H 725.742 -4.00248 2.97663 0
M  V30 7895 H 724.896 -5.86858 1.53891 0
M  V30 7896 H 723.635 -4.80041 0.86091 0
M  V30 7897 H 722.64 -4.50814 3.14717 0
M  V30 7898 H 723.865 -5.61077 3.82582 0
M  V30 7899 H 721.811 -6.33536 1.702 0
M  V30 7900 H 721.728 -6.76252 3.37963 0
M  V30 7901 H 722.996 -7.41997 2.38873 0
M  V30 7902 N 727.225 -1.14528 -1.08264 0
M  V30 7903 C 728.502 -0.825185 -1.77342 0
M  V30 7904 C 728.882 0.681037 -1.99813 0
M  V30 7905 O 728.23 1.62234 -1.60912 0
M  V30 7906 C 728.44 -1.62556 -3.08831 0
M  V30 7907 C 729.788 -1.82585 -3.83338 0
M  V30 7908 O 730.812 -1.59254 -3.18617 0
M  V30 7909 O 729.671 -2.21598 -4.99556 0
M  V30 7910 H 726.765 -0.302531 -0.769678 0
M  V30 7911 H 729.311 -1.25056 -1.14713 0
M  V30 7912 H 728.083 -2.64862 -2.88035 0
M  V30 7913 H 727.706 -1.1959 -3.79189 0
M  V30 7914 N 728.703 1.26451 -0.940633 0
M  V30 7915 C 729.95 1.93778 -0.587909 0
M  V30 7916 C 730.278 1.73811 0.872935 0
M  V30 7917 O 729.533 1.06816 1.63978 0
M  V30 7918 C 729.832 3.46503 -0.875794 0
M  V30 7919 C 729.498 3.86609 -2.32043 0
M  V30 7920 C 728.16 3.97269 -2.71534 0
M  V30 7921 C 730.512 4.0672 -3.25927 0
M  V30 7922 C 727.84 4.25436 -4.04006 0
M  V30 7923 C 730.192 4.36375 -4.57995 0
M  V30 7924 C 728.856 4.45249 -4.97302 0
M  V30 7925 H 728.126 0.709084 -0.215131 0
M  V30 7926 H 730.773 1.50272 -1.18704 0
M  V30 7927 H 729.078 3.91319 -0.194124 0
M  V30 7928 H 730.775 3.96759 -0.581665 0
M  V30 7929 H 727.365 3.78858 -2.00411 0
M  V30 7930 H 731.549 3.97912 -2.96614 0
M  V30 7931 H 726.805 4.30519 -4.34124 0
M  V30 7932 H 730.979 4.50882 -5.30734 0
M  V30 7933 H 728.606 4.66829 -5.99979 0
M  V30 7934 N 730.181 0.707592 1.40822 0
M  V30 7935 C 731.411 0.252706 2.05049 0
M  V30 7936 C 731.819 -1.10758 1.53393 0
M  V30 7937 O 731.162 -1.70567 0.682097 0
M  V30 7938 C 731.224 0.146001 3.59203 0
M  V30 7939 C 730.888 1.44027 4.33711 0
M  V30 7940 C 731.885 2.38058 4.62195 0
M  V30 7941 C 729.57 1.69698 4.72766 0
M  V30 7942 C 731.564 3.56013 5.28709 0
M  V30 7943 C 729.251 2.87936 5.39014 0
M  V30 7944 C 730.249 3.80915 5.66915 0
M  V30 7945 O 729.937 4.9708 6.31796 0
M  V30 7946 H 729.669 0.112784 0.666525 0
M  V30 7947 H 732.223 0.96417 1.81364 0
M  V30 7948 H 730.453 -0.621338 3.81676 0
M  V30 7949 H 732.142 -0.273275 4.04979 0
M  V30 7950 H 732.908 2.19487 4.32493 0
M  V30 7951 H 728.787 0.981835 4.50423 0
M  V30 7952 H 732.331 4.28604 5.50404 0
M  V30 7953 H 728.228 3.06419 5.68135 0
M  V30 7954 H 728.996 4.97053 6.50293 0
M  V30 7955 N 731.66 -1.50943 0.453197 0
M  V30 7956 C 732.57 -2.31884 -0.355963 0
M  V30 7957 C 733.586 -1.41481 -1.01287 0
M  V30 7958 O 734.762 -1.74546 -1.00477 0
M  V30 7959 C 731.827 -3.15668 -1.43369 0
M  V30 7960 C 730.888 -4.2187 -0.795253 0
M  V30 7961 C 730.121 -5.0165 -1.82162 0
M  V30 7962 O 730.344 -4.82266 -3.04592 0
M  V30 7963 O 729.278 -5.85311 -1.40336 0
M  V30 7964 H 733.104 -3.02162 0.305248 0
M  V30 7965 H 730.689 -1.47839 0.215398 0
M  V30 7966 H 732.571 -3.67709 -2.05836 0
M  V30 7967 H 731.246 -2.48137 -2.07869 0
M  V30 7968 H 730.153 -3.73867 -0.132106 0
M  V30 7969 H 731.486 -4.9182 -0.193484 0
M  V30 7970 N 733.138 -0.185124 -1.56509 0
M  V30 7971 C 734.068 0.735098 -2.21627 0
M  V30 7972 C 735.049 1.2288 -1.1762 0
M  V30 7973 O 736.234 1.27945 -1.46095 0
M  V30 7974 C 733.364 1.95889 -2.86783 0
M  V30 7975 C 732.318 1.6005 -3.96948 0
M  V30 7976 C 731.644 2.90009 -4.4922 0
M  V30 7977 C 732.944 0.818008 -5.15855 0
M  V30 7978 H 734.638 0.192274 -2.98782 0
M  V30 7979 H 732.184 0.0910393 -1.43712 0
M  V30 7980 H 734.137 2.60779 -3.31017 0
M  V30 7981 H 732.861 2.52608 -2.07018 0
M  V30 7982 H 731.52 0.975237 -3.5339 0
M  V30 7983 H 731.168 3.44797 -3.6623 0
M  V30 7984 H 730.868 2.66778 -5.23549 0
M  V30 7985 H 732.392 3.55904 -4.9615 0
M  V30 7986 H 733.806 1.36979 -5.56695 0
M  V30 7987 H 732.203 0.684207 -5.96187 0
M  V30 7988 H 733.273 -0.182939 -4.84555 0
M  V30 7989 N 734.616 1.57351 0.0885366 0
M  V30 7990 C 735.526 2.05858 1.12516 0
M  V30 7991 C 736.542 0.984758 1.43452 0
M  V30 7992 O 737.718 1.29836 1.53963 0
M  V30 7993 C 734.783 2.47882 2.42395 0
M  V30 7994 C 733.844 3.69487 2.18582 0
M  V30 7995 C 733.077 4.09497 3.42268 0
M  V30 7996 O 733.3 3.49536 4.50755 0
M  V30 7997 O 732.234 5.02406 3.31469 0
M  V30 7998 H 736.06 2.94467 0.743146 0
M  V30 7999 H 733.645 1.46326 0.301507 0
M  V30 8000 H 735.527 2.75509 3.18862 0
M  V30 8001 H 734.202 1.62408 2.8001 0
M  V30 8002 H 733.109 3.46967 1.39875 0
M  V30 8003 H 734.442 4.55761 1.85857 0
M  V30 8004 N 736.094 -0.359525 1.53444 0
M  V30 8005 C 737.505 -0.936009 1.61542 0
M  V30 8006 C 737.856 -1.90069 0.486633 0
M  V30 8007 O 736.981 -2.12929 -0.386047 0
M  V30 8008 C 737.576 -1.70441 2.92806 0
M  V30 8009 C 736.135 -2.23015 3.03218 0
M  V30 8010 C 735.282 -1.04438 2.56881 0
M  V30 8011 H 738.233 -0.138134 1.58098 0
M  V30 8012 H 738.254 -2.56609 2.80948 0
M  V30 8013 H 737.766 -1.00205 3.74941 0
M  V30 8014 H 735.867 -2.96475 2.25684 0
M  V30 8015 H 735.98 -2.50481 4.08407 0
M  V30 8016 H 734.344 -1.41314 2.11902 0
M  V30 8017 H 735.127 -0.356905 3.4144 0
M  V30 8018 N 737.572 -1.44907 -0.619662 0
M  V30 8019 C 738.482 -1.55168 -1.75955 0
M  V30 8020 C 739.498 -0.43672 -1.6843 0
M  V30 8021 O 740.674 -0.695704 -1.89002 0
M  V30 8022 C 737.739 -1.50397 -3.12381 0
M  V30 8023 C 736.8 -2.72835 -3.31451 0
M  V30 8024 C 736.033 -2.68283 -4.61368 0
M  V30 8025 O 736.256 -1.74929 -5.42914 0
M  V30 8026 O 735.19 -3.59308 -4.82889 0
M  V30 8027 H 739.016 -2.51493 -1.7025 0
M  V30 8028 H 736.601 -1.27282 -0.782289 0
M  V30 8029 H 738.483 -1.50301 -3.93685 0
M  V30 8030 H 737.158 -0.572197 -3.18603 0
M  V30 8031 H 736.065 -2.78496 -2.49781 0
M  V30 8032 H 737.398 -3.65098 -3.30098 0
M  V30 8033 N 739.05 0.861098 -1.31996 0
M  V30 8034 C 739.997 1.96912 -1.20392 0
M  V30 8035 C 740.967 1.65869 -0.0875899 0
M  V30 8036 O 742.152 1.88992 -0.262011 0
M  V30 8037 C 739.292 3.32435 -0.926335 0
M  V30 8038 C 738.405 3.76018 -2.12684 0
M  V30 8039 C 737.54 5.00301 -1.78529 0
M  V30 8040 C 736.579 5.36357 -2.94937 0
M  V30 8041 N 735.716 6.51818 -2.60917 0
M  V30 8042 H 740.556 2.06169 -2.1517 0
M  V30 8043 H 738.093 1.00917 -1.07024 0
M  V30 8044 H 740.051 4.10478 -0.745917 0
M  V30 8045 H 738.681 3.22796 -0.0153578 0
M  V30 8046 H 737.733 2.93683 -2.41774 0
M  V30 8047 H 739.045 3.98664 -2.99781 0
M  V30 8048 H 738.199 5.86034 -1.57001 0
M  V30 8049 H 736.938 4.79578 -0.886356 0
M  V30 8050 H 735.943 4.49139 -3.17103 0
M  V30 8051 H 737.168 5.59041 -3.85552 0
M  V30 8052 H 735.114 6.32624 -1.73558 0
M  V30 8053 H 735.031 6.7445 -3.41544 0
M  V30 8054 H 736.299 7.4072 -2.42804 0
M  V30 8055 N 740.528 1.15101 1.07655 0
M  V30 8056 C 741.775 0.923974 1.80191 0
M  V30 8057 C 742.103 -0.549065 1.86589 0
M  V30 8058 O 741.358 -1.42307 1.3434 0
M  V30 8059 C 741.657 1.47954 3.25337 0
M  V30 8060 C 741.323 2.97253 3.39044 0
M  V30 8061 C 739.985 3.38012 3.42493 0
M  V30 8062 C 742.337 3.93219 3.42094 0
M  V30 8063 C 739.665 4.73384 3.4659 0
M  V30 8064 C 742.017 5.28458 3.47728 0
M  V30 8065 C 740.681 5.68717 3.49453 0
M  V30 8066 H 739.951 0.338106 0.659367 0
M  V30 8067 H 742.598 1.43594 1.26701 0
M  V30 8068 H 740.903 0.888691 3.81588 0
M  V30 8069 H 742.6 1.27972 3.80032 0
M  V30 8070 H 739.19 2.64746 3.37057 0
M  V30 8071 H 743.374 3.62805 3.38654 0
M  V30 8072 H 738.63 5.03925 3.46222 0
M  V30 8073 H 742.804 6.02618 3.49034 0
M  V30 8074 H 740.431 6.73596 3.5238 0
M  V30 8075 N 742.006 -1.2595 0.947325 0
M  V30 8076 C 742.938 -2.25336 0.41906 0
M  V30 8077 C 743.951 -1.56135 -0.461051 0
M  V30 8078 O 745.14 -1.76438 -0.270505 0
M  V30 8079 C 742.24 -3.36334 -0.416233 0
M  V30 8080 C 741.413 -4.35088 0.449162 0
M  V30 8081 C 740.472 -5.25185 -0.326716 0
M  V30 8082 O 739.498 -5.68548 0.272374 0
M  V30 8083 N 740.7 -5.57388 -1.6217 0
M  V30 8084 H 743.465 -2.71298 1.27348 0
M  V30 8085 H 741.026 -1.39781 0.81688 0
M  V30 8086 H 743.018 -3.93564 -0.942826 0
M  V30 8087 H 741.588 -2.89819 -1.17148 0
M  V30 8088 H 740.808 -3.76841 1.15692 0
M  V30 8089 H 742.096 -4.98056 1.04008 0
M  V30 8090 H 741.494 -5.2405 -2.13046 0
M  V30 8091 H 740.051 -6.17234 -2.0944 0
M  V30 8092 N 743.484 -0.715051 -1.40445 0
M  V30 8093 C 744.432 -0.0509974 -2.32544 0
M  V30 8094 C 745.426 0.747602 -1.52011 0
M  V30 8095 O 746.632 0.651031 -1.67814 0
M  V30 8096 H 743.007 0.00231113 -0.751996 0
M  V30 8097 H 744.978 -0.84449 -2.86201 0
M  V30 8098 C 743.727 0.857101 -3.3697 0
M  V30 8099 H 743.05 0.252 -3.99005 0
M  V30 8100 H 744.49 1.28971 -4.03909 0
M  V30 8101 C 742.949 1.98231 -2.72408 0
M  V30 8102 O 743.479 3.07309 -2.58697 0
M  V30 8103 N 741.685 1.76577 -2.308 0
M  V30 8104 H 741.232 0.878641 -2.42152 0
M  V30 8105 H 741.19 2.52043 -1.87941 0
M  V30 8106 N 744.962 1.50701 -0.461195 0
M  V30 8107 C 745.909 2.2831 0.338094 0
M  V30 8108 C 746.879 1.32928 0.995957 0
M  V30 8109 O 748.064 1.61857 1.0103 0
M  V30 8110 C 745.204 3.14539 1.41983 0
M  V30 8111 C 744.317 4.24942 0.77773 0
M  V30 8112 C 743.452 4.98443 1.83652 0
M  V30 8113 C 742.491 6.00733 1.17413 0
M  V30 8114 N 741.628 6.6755 2.17533 0
M  V30 8115 H 746.468 2.96167 -0.330051 0
M  V30 8116 H 744.005 1.4606 -0.174611 0
M  V30 8117 H 745.963 3.62877 2.05855 0
M  V30 8118 H 744.593 2.48749 2.05727 0
M  V30 8119 H 743.645 3.80391 0.0266924 0
M  V30 8120 H 744.957 4.98151 0.254362 0
M  V30 8121 H 744.111 5.50449 2.55129 0
M  V30 8122 H 742.85 4.24917 2.39367 0
M  V30 8123 H 741.855 5.47997 0.444944 0
M  V30 8124 H 743.08 6.76227 0.624006 0
M  V30 8125 H 741.026 5.96823 2.72284 0
M  V30 8126 H 740.943 7.36603 1.70154 0
M  V30 8127 H 742.211 7.24178 2.88421 0
M  V30 8128 N 746.441 0.193421 1.56409 0
M  V30 8129 C 747.669 -0.451438 2.01915 0
M  V30 8130 C 748.084 -1.55306 1.07357 0
M  V30 8131 O 747.441 -1.82333 0.0781512 0
M  V30 8132 C 747.492 -1.00931 3.47124 0
M  V30 8133 O 747.213 0.0483623 4.38073 0
M  V30 8134 C 748.714 -1.73021 4.0814 0
M  V30 8135 H 745.934 -0.113495 0.661332 0
M  V30 8136 H 748.478 0.301636 2.02263 0
M  V30 8137 H 746.633 -1.71277 3.47481 0
M  V30 8138 H 747.047 -0.366644 5.23217 0
M  V30 8139 H 748.521 -2.07289 5.11601 0
M  V30 8140 H 748.998 -2.6333 3.51502 0
M  V30 8141 H 749.604 -1.07264 4.11551 0
M  V30 8142 N 747.919 -1.57396 -0.0801906 0
M  V30 8143 C 748.867 -2.04136 -1.11495 0
M  V30 8144 C 749.861 -0.945137 -1.40583 0
M  V30 8145 O 751.067 -1.13028 -1.40088 0
M  V30 8146 H 747.442 -0.65076 -0.37685 0
M  V30 8147 H 749.413 -2.90205 -0.694526 0
M  V30 8148 C 748.162 -2.49399 -2.42272 0
M  V30 8149 H 747.485 -3.33339 -2.20737 0
M  V30 8150 H 748.925 -2.85864 -3.13142 0
M  V30 8151 C 747.384 -1.37341 -3.07635 0
M  V30 8152 O 747.914 -0.710829 -3.95361 0
M  V30 8153 N 746.12 -1.12064 -2.68123 0
M  V30 8154 H 745.667 -1.66126 -1.96875 0
M  V30 8155 H 745.625 -0.372916 -3.12181 0
M  V30 8156 N 749.397 0.351382 -1.53633 0
M  V30 8157 C 750.645 1.09034 -1.70165 0
M  V30 8158 C 750.966 1.89413 -0.463422 0
M  V30 8159 O 750.236 1.888 0.522624 0
M  V30 8160 H 748.816 0.405522 -0.627344 0
M  V30 8161 H 751.478 0.394554 -1.90865 0
M  V30 8162 H 750.574 1.77215 -2.56907 0
M  V30 8163 N 750.875 1.45233 0.611969 0
M  V30 8164 C 752.124 1.48296 1.36716 0
M  V30 8165 C 752.437 0.12706 1.95187 0
M  V30 8166 O 753.643 0.0353066 2.71477 0
M  V30 8167 C 752.099 2.61168 2.47627 0
M  V30 8168 C 751.707 4.03051 1.95587 0
M  V30 8169 C 753.451 2.73472 3.24674 0
M  V30 8170 C 751.358 5.07312 3.03954 0
M  V30 8171 H 750.288 0.5518 0.513841 0
M  V30 8172 H 752.939 1.7136 0.656359 0
M  V30 8173 H 751.321 2.31379 3.21372 0
M  V30 8174 H 752.495 4.42497 1.2858 0
M  V30 8175 H 750.81 3.95158 1.31298 0
M  V30 8176 H 753.407 3.48537 4.05494 0
M  V30 8177 H 753.75 1.79953 3.75397 0
M  V30 8178 H 754.283 3.02765 2.58028 0
M  V30 8179 H 751.022 6.02525 2.58154 0
M  V30 8180 H 750.542 4.7244 3.69541 0
M  V30 8181 H 752.221 5.31867 3.6841 0
M  V30 8182 N 752.353 -0.854086 1.3245 0
M  V30 8183 C 753.581 -1.64074 1.26045 0
M  V30 8184 C 753.996 -1.8802 -0.171456 0
M  V30 8185 O 753.353 -1.4496 -1.10873 0
M  V30 8186 C 753.404 -2.9997 2.01743 0
M  V30 8187 O 753.125 -2.77084 3.39346 0
M  V30 8188 C 754.626 -3.94414 2.02368 0
M  V30 8189 H 751.846 -0.511015 0.434862 0
M  V30 8190 H 754.39 -1.06494 1.74583 0
M  V30 8191 H 752.545 -3.54193 1.56926 0
M  V30 8192 H 752.959 -3.63514 3.78098 0
M  V30 8193 H 754.433 -4.87032 2.59815 0
M  V30 8194 H 754.91 -4.27427 1.01009 0
M  V30 8195 H 755.516 -3.46127 2.47135 0
M  V30 8196 N 753.831 -1.1567 -1.07043 0
M  V30 8197 C 755.242 -0.942408 -1.61169 0
M  V30 8198 C 755.593 0.515537 -1.89306 0
M  V30 8199 O 754.718 1.38726 -1.66084 0
M  V30 8200 C 755.313 -1.70431 -2.92812 0
M  V30 8201 C 753.872 -1.53521 -3.43669 0
M  V30 8202 C 753.019 -1.7179 -2.17678 0
M  V30 8203 H 755.97 -1.3065 -0.9009 0
M  V30 8204 H 755.991 -1.17566 -3.61882 0
M  V30 8205 H 755.503 -2.76538 -2.72302 0
M  V30 8206 H 753.604 -0.498224 -3.69254 0
M  V30 8207 H 753.717 -2.31422 -4.19501 0
M  V30 8208 H 752.081 -1.14468 -2.27529 0
M  V30 8209 H 752.864 -2.79269 -1.99659 0
M  V30 8210 N 755.309 1.25446 -0.953992 0
M  V30 8211 C 756.725 1.4539 -0.658316 0
M  V30 8212 C 756.925 1.85607 0.784356 0
M  V30 8213 O 755.981 1.98568 1.55972 0
M  V30 8214 C 757.294 2.52643 -1.6307 0
M  V30 8215 C 758.842 2.66484 -1.64181 0
M  V30 8216 C 759.317 3.76921 -2.60182 0
M  V30 8217 N 760.808 3.84331 -2.58542 0
M  V30 8218 C 761.543 4.69271 -3.29503 0
M  V30 8219 N 761.039 5.58503 -4.09934 0
M  V30 8220 N 762.832 4.6323 -3.18393 0
M  V30 8221 H 754.983 0.976337 -1.8863 0
M  V30 8222 H 757.246 0.490343 -0.811337 0
M  V30 8223 H 756.952 2.29949 -2.66114 0
M  V30 8224 H 756.826 3.50547 -1.39271 0
M  V30 8225 H 759.213 2.88545 -0.618552 0
M  V30 8226 H 759.294 1.68982 -1.92038 0
M  V30 8227 H 758.938 3.55612 -3.62633 0
M  V30 8228 H 758.868 4.73906 -2.29609 0
M  V30 8229 H 761.359 3.20544 -2.0015 0
M  V30 8230 H 761.672 6.20241 -4.61 0
M  V30 8231 H 760.017 5.58214 -4.14032 0
M  V30 8232 H 763.208 3.92527 -2.5503 0
M  V30 8233 H 763.381 5.29204 -3.73961 0
M  V30 8234 N 756.787 0.722489 1.40064 0
M  V30 8235 C 758.203 0.396758 1.5459 0
M  V30 8236 C 758.403 -1.09375 1.69232 0
M  V30 8237 O 757.459 -1.87984 1.68578 0
M  V30 8238 C 758.772 1.16885 2.77053 0
M  V30 8239 C 760.32 1.15583 2.90877 0
M  V30 8240 C 760.795 1.91023 4.16262 0
M  V30 8241 N 762.286 1.88126 4.23276 0
M  V30 8242 C 763.021 2.43315 5.19216 0
M  V30 8243 N 762.517 3.07089 6.21022 0
M  V30 8244 N 764.31 2.33418 5.11344 0
M  V30 8245 H 756.461 1.68887 1.28806 0
M  V30 8246 H 758.724 0.714231 0.62336 0
M  V30 8247 H 758.43 2.22301 2.72534 0
M  V30 8248 H 758.304 0.765011 3.69361 0
M  V30 8249 H 760.691 0.10984 2.94896 0
M  V30 8250 H 760.772 1.59895 1.99668 0
M  V30 8251 H 760.416 2.95616 4.13006 0
M  V30 8252 H 760.346 1.44126 5.06493 0
M  V30 8253 H 762.837 1.41654 3.50346 0
M  V30 8254 H 763.15 3.467 6.90666 0
M  V30 8255 H 761.495 3.11175 6.21446 0
M  V30 8256 H 764.686 1.83248 4.30741 0
M  V30 8257 H 764.859 2.7673 5.85939 0
M  V30 8258 N 758.265 -1.50454 0.469181 0
M  V30 8259 C 759.511 -2.03248 -0.0787241 0
M  V30 8260 C 759.866 -1.34499 -1.37578 0
M  V30 8261 O 759.159 -0.461173 -1.85967 0
M  V30 8262 C 759.353 -3.55963 -0.320207 0
M  V30 8263 C 759.182 -4.3951 0.951893 0
M  V30 8264 C 757.952 -4.82689 1.49465 0
M  V30 8265 C 760.15 -4.79999 1.84677 0
M  V30 8266 N 758.132 -5.50553 2.71597 0
M  V30 8267 C 759.503 -5.47254 2.91398 0
M  V30 8268 C 761.558 -4.61959 1.85738 0
M  V30 8269 C 760.261 -5.98381 3.99166 0
M  V30 8270 C 762.287 -5.14024 2.92461 0
M  V30 8271 C 761.649 -5.81253 3.97901 0
M  V30 8272 H 757.748 -0.78192 0.0111715 0
M  V30 8273 H 760.332 -1.83986 0.636961 0
M  V30 8274 H 758.503 -3.75174 -1.00493 0
M  V30 8275 H 760.235 -3.95407 -0.862285 0
M  V30 8276 H 756.99 -4.61948 1.0441 0
M  V30 8277 H 757.414 -5.89093 3.33615 0
M  V30 8278 H 762.056 -4.09416 1.05539 0
M  V30 8279 H 759.774 -6.49961 4.80183 0
M  V30 8280 H 763.36 -5.01897 2.94263 0
M  V30 8281 H 762.24 -6.20814 4.79123 0
M  V30 8282 N 759.743 -0.201713 -1.56304 0
M  V30 8283 C 760.673 0.71155 -2.22394 0
M  V30 8284 C 761.654 1.21625 -1.18917 0
M  V30 8285 O 762.839 1.26388 -1.47444 0
M  V30 8286 C 759.969 1.92837 -2.88845 0
M  V30 8287 C 758.923 1.55831 -3.98623 0
M  V30 8288 C 758.249 2.85228 -4.52271 0
M  V30 8289 C 759.549 0.763249 -5.16693 0
M  V30 8290 H 761.243 0.160573 -2.98969 0
M  V30 8291 H 758.789 0.0757916 -1.438 0
M  V30 8292 H 760.742 2.57253 -3.33764 0
M  V30 8293 H 759.466 2.50398 -2.09686 0
M  V30 8294 H 758.125 0.9377 -3.54405 0
M  V30 8295 H 757.773 3.40893 -3.69866 0
M  V30 8296 H 757.473 2.6121 -5.26349 0
M  V30 8297 H 758.997 3.50622 -4.99897 0
M  V30 8298 H 760.411 1.31066 -5.58117 0
M  V30 8299 H 758.808 0.620935 -5.96879 0
M  V30 8300 H 759.878 -0.234322 -4.84334 0
M  V30 8301 N 761.222 1.57436 0.0718424 0
M  V30 8302 C 762.152 2.06724 1.08571 0
M  V30 8303 C 763.133 0.960731 1.40371 0
M  V30 8304 O 764.318 1.23345 1.49999 0
M  V30 8305 C 761.448 2.51112 2.39916 0
M  V30 8306 C 760.402 3.65639 2.22469 0
M  V30 8307 C 759.728 3.96082 3.59198 0
M  V30 8308 C 761.028 4.95687 1.64596 0
M  V30 8309 H 762.722 2.91679 0.675569 0
M  V30 8310 H 760.268 1.40319 0.32352 0
M  V30 8311 H 762.221 2.84206 3.11135 0
M  V30 8312 H 760.945 1.63186 2.8291 0
M  V30 8313 H 759.604 3.32828 1.53691 0
M  V30 8314 H 759.252 3.05287 3.99761 0
M  V30 8315 H 758.952 4.73199 3.48362 0
M  V30 8316 H 760.476 4.31672 4.31847 0
M  V30 8317 H 761.89 5.27011 2.25681 0
M  V30 8318 H 760.287 5.77126 1.64457 0
M  V30 8319 H 761.357 4.8108 0.60744 0
M  V30 8320 N 762.7 -0.34323 1.53817 0
M  V30 8321 C 763.63 -1.42709 1.84814 0
M  V30 8322 C 764.611 -1.5488 0.703297 0
M  V30 8323 O 765.796 -1.69082 0.955237 0
M  V30 8324 C 762.926 -2.79756 2.05801 0
M  V30 8325 C 761.88 -2.82392 3.21619 0
M  V30 8326 C 761.206 -4.22326 3.2794 0
M  V30 8327 C 762.506 -2.479 4.59721 0
M  V30 8328 H 764.2 -1.17018 2.75585 0
M  V30 8329 H 761.746 -0.561485 1.32602 0
M  V30 8330 H 763.699 -3.55627 2.26069 0
M  V30 8331 H 762.423 -3.06883 1.11761 0
M  V30 8332 H 761.082 -2.08974 3.01207 0
M  V30 8333 H 760.73 -4.46564 2.31494 0
M  V30 8334 H 760.43 -4.25001 4.05768 0
M  V30 8335 H 761.954 -5.00039 3.50419 0
M  V30 8336 H 763.368 -3.13484 4.80001 0
M  V30 8337 H 761.765 -2.61857 5.39954 0
M  V30 8338 H 762.835 -1.43087 4.63308 0
M  V30 8339 N 764.178 -1.45556 -0.604258 0
M  V30 8340 C 765.418 -1.51289 -1.37445 0
M  V30 8341 C 765.782 -0.152112 -1.91397 0
M  V30 8342 O 766.983 -0.0841419 -2.68668 0
M  V30 8343 C 765.254 -2.5646 -2.48924 0
M  V30 8344 S 766.813 -2.81442 -3.36654 0
M  V30 8345 H 763.631 -0.534774 -0.468549 0
M  V30 8346 H 766.233 -1.82657 -0.696902 0
M  V30 8347 H 764.937 -3.53995 -2.07644 0
M  V30 8348 H 764.468 -2.26753 -3.21476 0
M  V30 8349 H 766.483 -2.15074 -4.47166 0
M  V30 8350 N 765.656 0.84705 -1.32902 0
M  V30 8351 C 766.604 1.97765 -1.22441 0
M  V30 8352 C 767.598 1.68919 -0.127546 0
M  V30 8353 O 768.804 1.77633 -0.290973 0
M  V30 8354 H 765.179 0.649072 -0.379748 0
M  V30 8355 H 767.15 2.03713 -2.18044 0
M  V30 8356 C 765.899 3.33834 -0.972125 0
M  V30 8357 H 765.222 3.56564 -1.80837 0
M  V30 8358 H 766.662 4.13467 -0.939209 0
M  V30 8359 C 765.121 3.35328 0.325059 0
M  V30 8360 O 765.651 3.78887 1.33445 0
M  V30 8361 N 763.857 2.88488 0.349718 0
M  V30 8362 H 763.404 2.53234 -0.472236 0
M  V30 8363 H 763.362 2.8987 1.21748 0
M  V30 8364 N 767.134 1.16236 1.06428 0
M  V30 8365 C 768.545 0.950942 1.60667 0
M  V30 8366 C 768.896 -0.505491 1.89576 0
M  V30 8367 O 768.021 -1.37843 1.66818 0
M  V30 8368 C 768.616 1.71982 2.91904 0
M  V30 8369 C 767.175 1.55342 3.4285 0
M  V30 8370 C 766.322 1.72942 2.16763 0
M  V30 8371 H 769.273 1.31126 0.893959 0
M  V30 8372 H 769.294 1.19483 3.61253 0
M  V30 8373 H 768.806 2.77978 2.70831 0
M  V30 8374 H 766.907 0.5178 3.68985 0
M  V30 8375 H 767.02 2.33643 4.18267 0
M  V30 8376 H 765.384 1.15673 2.26918 0
M  V30 8377 H 766.167 2.80324 1.98175 0
M  V30 8378 N 768.612 -1.24939 0.960631 0
M  V30 8379 C 769.86 -1.92437 0.617441 0
M  V30 8380 C 770.181 -1.75543 -0.849101 0
M  V30 8381 O 769.451 -1.12269 -1.60538 0
M  V30 8382 H 768.031 -0.712192 0.225371 0
M  V30 8383 H 770.693 -1.5198 1.22017 0
M  V30 8384 H 769.789 -3.00247 0.851933 0
M  V30 8385 N 770.09 -0.729906 -1.39679 0
M  V30 8386 C 771.02 -0.101618 -2.33279 0
M  V30 8387 C 772.001 0.729854 -1.53646 0
M  V30 8388 O 773.186 0.67587 -1.82059 0
M  V30 8389 C 770.316 0.81024 -3.37716 0
M  V30 8390 C 769.27 0.0833126 -4.27919 0
M  V30 8391 C 768.596 1.11185 -5.23012 0
M  V30 8392 C 769.896 -1.07107 -5.112 0
M  V30 8393 H 771.59 -0.883452 -2.86069 0
M  V30 8394 H 769.136 -0.426283 -1.37546 0
M  V30 8395 H 771.089 1.25927 -4.02145 0
M  V30 8396 H 769.813 1.62413 -2.83354 0
M  V30 8397 H 768.472 -0.346043 -3.64963 0
M  V30 8398 H 768.12 1.91917 -4.64948 0
M  V30 8399 H 767.82 0.63026 -5.8421 0
M  V30 8400 H 769.344 1.56068 -5.90318 0
M  V30 8401 H 770.758 -0.700726 -5.69002 0
M  V30 8402 H 769.155 -1.48196 -5.81514 0
M  V30 8403 H 770.225 -1.89513 -4.46332 0
M  V30 8404 N 771.568 1.50203 -0.477153 0
M  V30 8405 C 772.531 2.27194 0.302599 0
M  V30 8406 C 773.531 1.32221 0.915112 0
M  V30 8407 O 774.721 1.55593 0.783348 0
M  V30 8408 C 771.853 3.0938 1.43167 0
M  V30 8409 H 773.046 2.97575 -0.372678 0
M  V30 8410 H 770.599 1.54578 -0.231392 0
M  V30 8411 H 771.334 2.43509 2.14182 0
M  V30 8412 H 771.119 3.79181 0.998197 0
M  V30 8413 H 772.609 3.67592 1.98157 0
M  V30 8414 N 773.046 0.209999 1.56195 0
M  V30 8415 C 773.994 -0.721416 2.2113 0
M  V30 8416 C 774.988 -1.20852 1.18706 0
M  V30 8417 O 776.194 -1.16968 1.36815 0
M  V30 8418 H 772.569 -0.251033 0.708863 0
M  V30 8419 H 774.54 -0.150193 2.98022 0
M  V30 8420 C 773.289 -1.92392 2.89621 0
M  V30 8421 H 772.612 -1.5582 3.68185 0
M  V30 8422 H 774.052 -2.55367 3.38473 0
M  V30 8423 C 772.511 -2.77208 1.91461 0
M  V30 8424 O 773.041 -3.75603 1.42426 0
M  V30 8425 N 771.247 -2.43006 1.59363 0
M  V30 8426 H 770.794 -1.63047 1.99433 0
M  V30 8427 H 770.752 -3.00036 0.939449 0
M  V30 8428 N 774.524 -1.57472 -0.0634922 0
M  V30 8429 C 775.752 -1.91887 -0.773767 0
M  V30 8430 C 776.167 -0.806733 -1.70696 0
M  V30 8431 O 775.524 0.219383 -1.81177 0
M  V30 8432 C 775.575 -3.26092 -1.56034 0
M  V30 8433 O 775.296 -4.33029 -0.66464 0
M  V30 8434 C 776.797 -3.74573 -2.37087 0
M  V30 8435 H 774.017 -0.634074 -0.219525 0
M  V30 8436 H 776.561 -2.04476 -0.0312828 0
M  V30 8437 H 774.716 -3.15004 -2.25502 0
M  V30 8438 H 775.13 -5.10291 -1.21258 0
M  V30 8439 H 776.604 -4.71084 -2.87722 0
M  V30 8440 H 777.081 -3.04003 -3.16984 0
M  V30 8441 H 777.687 -3.88631 -1.72759 0
M  V30 8442 N 776.003 0.335068 -1.53997 0
M  V30 8443 C 777.252 1.07182 -1.70865 0
M  V30 8444 C 777.565 1.89541 -0.483078 0
M  V30 8445 O 778.771 2.66219 -0.532879 0
M  V30 8446 C 777.227 1.95497 -3.02174 0
M  V30 8447 C 776.835 1.18304 -4.32097 0
M  V30 8448 C 778.579 2.68978 -3.28407 0
M  V30 8449 C 776.486 2.05699 -5.54474 0
M  V30 8450 H 775.416 0.403857 -0.636722 0
M  V30 8451 H 778.067 0.33076 -1.80494 0
M  V30 8452 H 776.449 2.73456 -2.86423 0
M  V30 8453 H 777.623 0.451969 -4.58578 0
M  V30 8454 H 775.938 0.565556 -4.12541 0
M  V30 8455 H 778.535 3.34651 -4.17029 0
M  V30 8456 H 778.878 3.36 -2.45784 0
M  V30 8457 H 779.411 1.98087 -3.44973 0
M  V30 8458 H 776.15 1.43204 -6.39666 0
M  V30 8459 H 775.67 2.76572 -5.32229 0
M  V30 8460 H 777.349 2.64554 -5.90441 0
M  V30 8461 N 777.481 1.45874 0.596531 0
M  V30 8462 C 778.727 1.5069 1.35722 0
M  V30 8463 C 779.06 0.152506 1.936 0
M  V30 8464 O 778.335 -0.834411 1.75692 0
M  V30 8465 C 778.618 2.59474 2.4969 0
M  V30 8466 C 778.471 4.04396 1.96937 0
M  V30 8467 C 779.79 2.64451 3.51787 0
M  V30 8468 H 776.909 0.548611 0.492133 0
M  V30 8469 H 779.551 1.77741 0.671428 0
M  V30 8470 H 777.701 2.36539 3.08191 0
M  V30 8471 H 779.373 4.38576 1.43 0
M  V30 8472 H 777.616 4.14529 1.27859 0
M  V30 8473 H 778.287 4.76218 2.79143 0
M  V30 8474 H 780.763 2.85031 3.03145 0
M  V30 8475 H 779.639 3.42411 4.29006 0
M  V30 8476 H 779.9 1.69965 4.08123 0
M  V30 8477 N 778.959 -0.83999 1.33349 0
M  V30 8478 C 779.869 -1.98182 1.25543 0
M  V30 8479 C 780.885 -1.73204 0.166208 0
M  V30 8480 O 782.061 -1.97596 0.389589 0
M  V30 8481 C 779.126 -3.32157 0.993614 0
M  V30 8482 C 778.187 -3.70258 2.17273 0
M  V30 8483 C 777.42 -4.9784 1.92331 0
M  V30 8484 O 777.643 -5.63679 0.873074 0
M  V30 8485 O 776.577 -5.33418 2.78835 0
M  V30 8486 H 780.403 -2.07708 2.21565 0
M  V30 8487 H 777.988 -0.972852 1.13384 0
M  V30 8488 H 779.87 -4.12433 0.864711 0
M  V30 8489 H 778.545 -3.23637 0.0636596 0
M  V30 8490 H 777.452 -2.90497 2.35716 0
M  V30 8491 H 778.785 -3.83442 3.08598 0
M  V30 8492 N 780.437 -1.16799 -1.0581 0
M  V30 8493 C 781.384 -0.87902 -2.13405 0
M  V30 8494 C 782.354 0.174541 -1.6518 0
M  V30 8495 O 783.539 0.0386843 -1.90761 0
M  V30 8496 C 780.679 -0.391616 -3.42871 0
M  V30 8497 C 779.792 -1.50857 -4.04804 0
M  V30 8498 C 778.927 -0.975682 -5.22163 0
M  V30 8499 C 777.966 -2.06851 -5.76089 0
M  V30 8500 N 777.103 -1.55085 -6.84758 0
M  V30 8501 H 781.943 -1.80043 -2.37463 0
M  V30 8502 H 779.48 -0.898083 -1.16503 0
M  V30 8503 H 781.438 -0.0906247 -4.17102 0
M  V30 8504 H 780.068 0.49284 -3.19016 0
M  V30 8505 H 779.12 -1.92542 -3.28073 0
M  V30 8506 H 780.432 -2.33305 -4.40874 0
M  V30 8507 H 779.586 -0.628165 -6.03439 0
M  V30 8508 H 778.325 -0.120566 -4.87551 0
M  V30 8509 H 777.33 -2.42467 -4.93447 0
M  V30 8510 H 778.555 -2.92768 -6.12751 0
M  V30 8511 H 776.501 -0.718345 -6.52055 0
M  V30 8512 H 776.418 -2.31145 -7.19797 0
M  V30 8513 H 777.686 -1.23206 -7.69702 0
M  V30 8514 N 781.915 1.24427 -0.967243 0
M  V30 8515 C 783.164 1.91789 -0.624478 0
M  V30 8516 C 783.477 1.76448 0.844129 0
M  V30 8517 O 784.683 2.38495 1.2974 0
M  V30 8518 C 783.139 3.43743 -1.06626 0
M  V30 8519 C 782.747 3.67771 -2.55829 0
M  V30 8520 C 784.491 4.16958 -0.79662 0
M  V30 8521 C 782.398 5.13293 -2.93742 0
M  V30 8522 H 781.328 0.71811 -0.229856 0
M  V30 8523 H 783.979 1.41081 -1.17339 0
M  V30 8524 H 782.361 3.93484 -0.445663 0
M  V30 8525 H 783.535 3.28631 -3.23015 0
M  V30 8526 H 781.85 3.07841 -2.80398 0
M  V30 8527 H 784.447 5.24171 -1.05589 0
M  V30 8528 H 784.79 4.15442 0.267163 0
M  V30 8529 H 785.323 3.73164 -1.37816 0
M  V30 8530 H 782.062 5.19931 -3.9919 0
M  V30 8531 H 781.582 5.53433 -2.3124 0
M  V30 8532 H 783.261 5.81521 -2.83623 0
M  V30 8533 N 783.393 0.737304 1.3929 0
M  V30 8534 C 784.641 0.285691 2.00071 0
M  V30 8535 C 784.962 -1.13169 1.58801 0
M  V30 8536 O 784.232 -1.77104 0.837308 0
M  V30 8537 H 782.812 0.102638 0.739915 0
M  V30 8538 H 785.474 0.947775 1.70303 0
M  V30 8539 H 784.57 0.335906 3.10287 0
M  V30 8540 N 784.871 -1.49948 0.485112 0
M  V30 8541 C 785.781 -2.32587 -0.306697 0
M  V30 8542 C 786.797 -1.43598 -0.982632 0
M  V30 8543 O 787.973 -1.76638 -0.967519 0
M  V30 8544 C 785.038 -3.18638 -1.3664 0
M  V30 8545 C 784.099 -4.23462 -0.705589 0
M  V30 8546 C 783.332 -5.05401 -1.7148 0
M  V30 8547 O 783.555 -4.88618 -2.94293 0
M  V30 8548 O 782.489 -5.88157 -1.27889 0
M  V30 8549 H 786.315 -3.01447 0.369272 0
M  V30 8550 H 783.9 -1.47349 0.246709 0
M  V30 8551 H 785.782 -3.71992 -1.9799 0
M  V30 8552 H 784.457 -2.52491 -2.02559 0
M  V30 8553 H 783.364 -3.74063 -0.0527733 0
M  V30 8554 H 784.697 -4.92119 -0.0891187 0
M  V30 8555 N 786.349 -0.21828 -1.56081 0
M  V30 8556 C 787.259 0.704602 -2.23769 0
M  V30 8557 C 788.275 1.21633 -1.24425 0
M  V30 8558 O 789.451 1.25862 -1.57228 0
M  V30 8559 C 786.516 1.89725 -2.90182 0
M  V30 8560 C 785.577 1.42782 -4.0486 0
M  V30 8561 C 784.81 2.56361 -4.68097 0
M  V30 8562 O 785.033 3.74417 -4.30312 0
M  V30 8563 O 783.967 2.2775 -5.57148 0
M  V30 8564 H 787.793 0.158007 -3.03289 0
M  V30 8565 H 785.378 0.0120279 -1.49395 0
M  V30 8566 H 787.26 2.59382 -3.32113 0
M  V30 8567 H 785.935 2.432 -2.13624 0
M  V30 8568 H 784.842 0.699359 -3.67505 0
M  V30 8569 H 786.175 0.939474 -4.83151 0
M  V30 8570 N 787.827 1.57504 0.0551401 0
M  V30 8571 C 789.074 1.88055 0.751104 0
M  V30 8572 C 789.402 0.812231 1.76729 0
M  V30 8573 O 788.657 -0.189918 1.94776 0
M  V30 8574 C 788.956 3.25311 1.48013 0
M  V30 8575 C 788.622 4.46858 0.602375 0
M  V30 8576 C 787.284 4.79847 0.360536 0
M  V30 8577 C 789.636 5.212 -0.00524047 0
M  V30 8578 C 786.964 5.84582 -0.498127 0
M  V30 8579 C 789.316 6.26844 -0.851453 0
M  V30 8580 C 787.98 6.58324 -1.103 0
M  V30 8581 H 787.25 0.688142 0.274848 0
M  V30 8582 H 789.897 1.91497 0.0114795 0
M  V30 8583 H 788.202 3.17737 2.29239 0
M  V30 8584 H 789.899 3.46189 2.02371 0
M  V30 8585 H 786.489 4.21049 0.801007 0
M  V30 8586 H 790.673 4.96013 0.168682 0
M  V30 8587 H 785.929 6.07361 -0.701594 0
M  V30 8588 H 790.103 6.83603 -1.32893 0
M  V30 8589 H 787.73 7.39304 -1.77011 0
M  V30 8590 N 789.305 -0.326896 1.54172 0
M  V30 8591 C 790.235 -1.40741 1.86317 0
M  V30 8592 C 791.216 -1.54125 0.719684 0
M  V30 8593 O 792.401 -1.6806 0.973117 0
M  V30 8594 C 789.531 -2.77557 2.08757 0
M  V30 8595 C 788.485 -2.78965 3.24596 0
M  V30 8596 C 787.811 -4.18824 3.32401 0
M  V30 8597 C 789.111 -2.4301 4.62324 0
M  V30 8598 H 790.805 -1.14088 2.76811 0
M  V30 8599 H 788.351 -0.547389 1.3319 0
M  V30 8600 H 790.304 -3.53209 2.29829 0
M  V30 8601 H 789.028 -3.0568 1.15009 0
M  V30 8602 H 787.687 -2.05767 3.03406 0
M  V30 8603 H 787.335 -4.44083 2.36218 0
M  V30 8604 H 787.035 -4.20673 4.10253 0
M  V30 8605 H 788.559 -4.96294 3.55703 0
M  V30 8606 H 789.973 -3.08375 4.83299 0
M  V30 8607 H 788.37 -2.56116 5.42701 0
M  V30 8608 H 789.44 -1.38165 4.64799 0
M  V30 8609 N 790.784 -1.46188 -0.588786 0
M  V30 8610 C 792.012 -1.54743 -1.37339 0
M  V30 8611 C 792.427 -0.186446 -1.87877 0
M  V30 8612 O 791.784 0.815247 -1.63279 0
M  V30 8613 C 791.835 -2.54727 -2.56508 0
M  V30 8614 O 791.556 -3.85539 -2.08066 0
M  V30 8615 C 793.057 -2.73163 -3.49137 0
M  V30 8616 H 790.277 -0.523484 -0.419768 0
M  V30 8617 H 792.821 -1.91543 -0.716345 0
M  V30 8618 H 790.976 -2.20948 -3.18215 0
M  V30 8619 H 791.39 -4.39905 -2.85629 0
M  V30 8620 H 792.864 -3.47057 -4.2925 0
M  V30 8621 H 793.341 -1.79856 -4.00685 0
M  V30 8622 H 793.947 -3.08014 -2.9327 0
M  V30 8623 N 792.262 0.832906 -1.33792 0
M  V30 8624 C 793.539 1.57359 -1.16178 0
M  V30 8625 C 793.919 2.09372 0.269532 0
M  V30 8626 O 793.267 1.89993 1.26944 0
M  V30 8627 C 793.477 2.70279 -2.20795 0
M  V30 8628 C 794.825 3.39305 -2.55259 0
M  V30 8629 O 795.849 2.80526 -2.19508 0
M  V30 8630 O 794.708 4.45428 -3.16632 0
M  V30 8631 H 791.802 0.694025 -0.449731 0
M  V30 8632 H 794.348 0.875144 -1.45394 0
M  V30 8633 H 793.12 2.29527 -3.16911 0
M  V30 8634 H 792.743 3.47782 -1.927 0
M  V30 8635 N 793.74 1.17359 1.05189 0
M  V30 8636 C 794.67 0.91365 2.14883 0
M  V30 8637 C 795.651 -0.144365 1.69486 0
M  V30 8638 O 796.836 0.00587861 1.94199 0
M  V30 8639 C 793.966 0.426196 3.44675 0
M  V30 8640 C 792.92 1.4234 4.03638 0
M  V30 8641 C 792.246 0.793902 5.28773 0
M  V30 8642 C 793.546 2.7966 4.41121 0
M  V30 8643 H 795.24 1.831 2.36885 0
M  V30 8644 H 792.786 0.881781 1.13845 0
M  V30 8645 H 794.739 0.231767 4.20762 0
M  V30 8646 H 793.463 -0.526693 3.22325 0
M  V30 8647 H 792.122 1.60457 3.2962 0
M  V30 8648 H 791.77 -0.165824 5.02727 0
M  V30 8649 H 791.47 1.45959 5.69183 0
M  V30 8650 H 792.994 0.609747 6.07548 0
M  V30 8651 H 794.408 2.6526 5.08242 0
M  V30 8652 H 792.805 3.42807 4.92548 0
M  V30 8653 H 793.875 3.34068 3.51464 0
M  V30 8654 N 795.218 -1.23913 0.973828 0
M  V30 8655 C 796.443 -1.96735 0.656511 0
M  V30 8656 C 796.868 -1.71682 -0.768571 0
M  V30 8657 O 796.226 -0.984267 -1.52256 0
M  V30 8658 C 796.274 -3.48004 0.944735 0
M  V30 8659 O 795.378 -4.12387 0.0333357 0
M  V30 8660 H 794.719 -0.616119 0.247575 0
M  V30 8661 H 797.249 -1.57525 1.30564 0
M  V30 8662 H 797.259 -3.98424 0.87876 0
M  V30 8663 H 795.934 -3.65567 1.98328 0
M  V30 8664 H 794.511 -3.72585 0.153157 0
M  V30 8665 N 796.696 -0.74468 -1.38897 0
M  V30 8666 C 797.628 -0.0713608 -2.29089 0
M  V30 8667 C 798.641 0.693224 -1.47303 0
M  V30 8668 O 799.83 0.535785 -1.70269 0
M  V30 8669 C 796.93 0.923078 -3.26087 0
M  V30 8670 C 796.103 0.217998 -4.36856 0
M  V30 8671 C 795.162 1.12192 -5.14101 0
M  V30 8672 O 794.188 0.595771 -5.66073 0
M  V30 8673 N 795.39 2.45082 -5.26227 0
M  V30 8674 H 798.155 -0.845906 -2.87514 0
M  V30 8675 H 795.716 -0.594712 -1.50581 0
M  V30 8676 H 797.708 1.53061 -3.74639 0
M  V30 8677 H 796.278 1.59876 -2.68623 0
M  V30 8678 H 795.498 -0.570134 -3.90055 0
M  V30 8679 H 796.786 -0.270248 -5.08082 0
M  V30 8680 H 796.184 2.90294 -4.85537 0
M  V30 8681 H 794.741 3.00907 -5.78185 0
M  V30 8682 N 798.174 1.49689 -0.493057 0
M  V30 8683 C 799.104 2.31826 0.279073 0
M  V30 8684 C 800.085 1.39733 0.969987 0
M  V30 8685 O 801.27 1.68646 0.962925 0
M  V30 8686 C 798.4 3.20046 1.34862 0
M  V30 8687 C 797.354 4.20869 0.77805 0
M  V30 8688 C 796.68 4.97971 1.94753 0
M  V30 8689 C 797.98 5.21813 -0.225543 0
M  V30 8690 H 799.674 2.96627 -0.406512 0
M  V30 8691 H 797.22 1.42647 -0.196943 0
M  V30 8692 H 799.173 3.76315 1.89645 0
M  V30 8693 H 797.897 2.53172 2.06328 0
M  V30 8694 H 796.556 3.65733 0.252036 0
M  V30 8695 H 796.204 4.27552 2.64969 0
M  V30 8696 H 795.904 5.66186 1.57187 0
M  V30 8697 H 797.428 5.57082 2.49984 0
M  V30 8698 H 798.842 5.72823 0.233864 0
M  V30 8699 H 797.239 5.97872 -0.516622 0
M  V30 8700 H 798.309 4.71209 -1.14412 0
M  V30 8701 N 799.652 0.226554 1.55963 0
M  V30 8702 C 800.599 -0.681504 2.20509 0
M  V30 8703 C 801.569 -1.1866 1.16229 0
M  V30 8704 O 802.754 -1.24478 1.44602 0
M  V30 8705 C 799.894 -1.88183 2.89277 0
M  V30 8706 C 799.007 -1.41517 4.08163 0
M  V30 8707 C 798.142 -2.57346 4.647 0
M  V30 8708 C 797.181 -2.07441 5.75877 0
M  V30 8709 N 796.318 -3.16561 6.26685 0
M  V30 8710 H 801.158 -0.124372 2.9774 0
M  V30 8711 H 798.695 -0.0496333 1.47016 0
M  V30 8712 H 800.653 -2.58666 3.27335 0
M  V30 8713 H 799.283 -2.41177 2.14555 0
M  V30 8714 H 798.335 -0.605099 3.75557 0
M  V30 8715 H 799.647 -1.00928 4.88482 0
M  V30 8716 H 798.801 -3.35903 5.05227 0
M  V30 8717 H 797.54 -3.01227 3.83554 0
M  V30 8718 H 796.545 -1.27347 5.34848 0
M  V30 8719 H 797.77 -1.64554 6.58862 0
M  V30 8720 H 795.716 -3.59914 5.48451 0
M  V30 8721 H 795.633 -2.80239 7.02141 0
M  V30 8722 H 796.901 -3.95238 6.71868 0
M  V30 8723 N 801.13 -1.57531 -0.0467866 0
M  V30 8724 C 802.077 -2.05387 -1.05285 0
M  V30 8725 C 803.047 -0.939385 -1.36985 0
M  V30 8726 O 804.232 -1.20877 -1.47626 0
M  V30 8727 C 801.372 -2.52343 -2.35408 0
M  V30 8728 C 800.485 -3.77512 -2.10022 0
M  V30 8729 C 799.62 -4.1315 -3.33887 0
M  V30 8730 C 798.659 -5.31286 -3.03976 0
M  V30 8731 N 797.796 -5.62441 -4.20243 0
M  V30 8732 H 802.636 -2.91095 -0.637788 0
M  V30 8733 H 800.173 -1.43939 -0.303322 0
M  V30 8734 H 802.131 -2.77628 -3.11413 0
M  V30 8735 H 800.761 -1.69577 -2.7467 0
M  V30 8736 H 799.813 -3.59417 -1.24594 0
M  V30 8737 H 801.125 -4.63644 -1.83945 0
M  V30 8738 H 800.279 -4.39469 -4.18273 0
M  V30 8739 H 799.018 -3.25634 -3.63062 0
M  V30 8740 H 798.023 -5.04738 -2.17991 0
M  V30 8741 H 799.248 -6.20441 -2.76098 0
M  V30 8742 H 797.194 -4.77885 -4.49402 0
M  V30 8743 H 797.111 -6.43046 -3.97528 0
M  V30 8744 H 798.379 -5.93327 -5.05553 0
M  V30 8745 N 802.608 0.318715 -1.54344 0
M  V30 8746 C 803.538 1.39751 -1.87061 0
M  V30 8747 C 804.519 1.53741 -0.727848 0
M  V30 8748 O 805.704 1.67541 -0.982016 0
M  V30 8749 C 802.834 2.76446 -2.10226 0
M  V30 8750 C 801.788 2.77239 -3.26071 0
M  V30 8751 C 801.114 4.17056 -3.34617 0
M  V30 8752 C 802.414 2.40555 -4.63606 0
M  V30 8753 H 804.108 1.12619 -2.77412 0
M  V30 8754 H 801.654 0.540318 -1.33479 0
M  V30 8755 H 803.607 3.51985 -2.31699 0
M  V30 8756 H 802.331 3.05066 -1.16629 0
M  V30 8757 H 800.99 2.04155 -3.04493 0
M  V30 8758 H 800.638 4.42824 -2.3857 0
M  V30 8759 H 800.338 4.18492 -4.12478 0
M  V30 8760 H 801.862 4.94401 -3.5833 0
M  V30 8761 H 803.276 3.05808 -4.84927 0
M  V30 8762 H 801.673 2.53234 -5.44052 0
M  V30 8763 H 802.743 1.35698 -4.65526 0
M  V30 8764 N 804.086 1.46499 0.581025 0
M  V30 8765 C 805.016 1.60052 1.70017 0
M  V30 8766 C 805.997 0.450788 1.64018 0
M  V30 8767 O 807.182 0.677237 1.82009 0
M  V30 8768 C 804.312 1.5921 3.08658 0
M  V30 8769 C 803.266 2.73169 3.29488 0
M  V30 8770 C 802.592 2.57389 4.68674 0
M  V30 8771 C 803.892 4.14978 3.1716 0
M  V30 8772 H 805.586 2.53735 1.5893 0
M  V30 8773 H 803.132 1.22113 0.763173 0
M  V30 8774 H 805.085 1.67285 3.86773 0
M  V30 8775 H 803.809 0.620718 3.20647 0
M  V30 8776 H 802.468 2.64566 2.53773 0
M  V30 8777 H 802.116 1.58331 4.77431 0
M  V30 8778 H 801.816 3.33826 4.83564 0
M  V30 8779 H 803.34 2.67358 5.48956 0
M  V30 8780 H 804.754 4.24684 3.85119 0
M  V30 8781 H 803.151 4.92016 3.4357 0
M  V30 8782 H 804.221 4.35016 2.14218 0
M  V30 8783 N 805.565 -0.825799 1.34232 0
M  V30 8784 C 806.976 -1.39835 1.23706 0
M  V30 8785 C 807.327 -1.95709 -0.138649 0
M  V30 8786 O 806.452 -1.89833 -1.03886 0
M  V30 8787 C 807.047 -2.54203 2.23978 0
M  V30 8788 C 805.606 -3.07374 2.17251 0
M  V30 8789 C 804.753 -1.80232 2.10741 0
M  V30 8790 H 807.704 -0.630442 1.4564 0
M  V30 8791 H 807.725 -3.32214 1.8551 0
M  V30 8792 H 807.237 -2.13506 3.24094 0
M  V30 8793 H 805.338 -3.52583 1.20483 0
M  V30 8794 H 805.451 -3.6666 3.08379 0
M  V30 8795 H 803.815 -2.01012 1.56417 0
M  V30 8796 H 804.598 -1.41713 3.12686 0
M  V30 8797 N 807.043 -1.17915 -1.04565 0
M  V30 8798 C 807.973 -0.925033 -2.14395 0
M  V30 8799 C 808.954 0.135375 -1.6956 0
M  V30 8800 O 810.139 -0.0161774 -1.94193 0
M  V30 8801 C 807.269 -0.444469 -3.44444 0
M  V30 8802 C 806.223 -1.44478 -4.02877 0
M  V30 8803 C 805.549 -0.821933 -5.28345 0
M  V30 8804 C 806.849 -2.81995 -4.39632 0
M  V30 8805 H 808.543 -1.84354 -2.35911 0
M  V30 8806 H 806.089 -0.887806 -1.13375 0
M  V30 8807 H 808.042 -0.254078 -4.20633 0
M  V30 8808 H 806.766 0.509592 -3.226 0
M  V30 8809 H 805.425 -1.62203 -3.28764 0
M  V30 8810 H 805.073 0.139161 -5.02807 0
M  V30 8811 H 804.773 -1.48976 -5.68401 0
M  V30 8812 H 806.297 -0.641959 -6.07216 0
M  V30 8813 H 807.711 -2.67952 -5.06828 0
M  V30 8814 H 806.108 -3.45414 -4.90723 0
M  V30 8815 H 807.178 -3.35927 -3.49687 0
M  V30 8816 N 808.521 1.23394 -0.980386 0
M  V30 8817 C 809.767 1.92094 -0.650223 0
M  V30 8818 C 810.1 1.76309 0.814173 0
M  V30 8819 O 809.375 1.12406 1.5873 0
M  V30 8820 C 809.658 3.44713 -1.04139 0
M  V30 8821 C 809.511 3.69606 -2.56342 0
M  V30 8822 C 810.83 4.36191 -0.585296 0
M  V30 8823 H 807.949 0.697618 -0.237695 0
M  V30 8824 H 810.591 1.45517 -1.22167 0
M  V30 8825 H 808.741 3.84513 -0.55515 0
M  V30 8826 H 810.413 3.39288 -3.1254 0
M  V30 8827 H 808.656 3.14318 -2.98976 0
M  V30 8828 H 809.327 4.76441 -2.78762 0
M  V30 8829 H 811.803 4.03836 -1.00276 0
M  V30 8830 H 810.679 5.41679 -0.887428 0
M  V30 8831 H 810.94 4.39097 0.51438 0
M  V30 8832 N 809.999 0.752036 1.385 0
M  V30 8833 C 811.224 0.316993 2.04963 0
M  V30 8834 C 811.649 -1.04582 1.56346 0
M  V30 8835 O 811.007 -1.66616 0.714755 0
M  V30 8836 C 811.055 0.347235 3.58924 0
M  V30 8837 O 810.159 -0.659296 4.07096 0
M  V30 8838 H 809.5 0.140652 0.648932 0
M  V30 8839 H 812.03 1.02272 1.77205 0
M  V30 8840 H 812.04 0.19757 4.07521 0
M  V30 8841 H 810.715 1.34157 3.93668 0
M  V30 8842 H 809.292 -0.474371 3.6987 0
M  V30 8843 N 811.477 -1.49425 0.500989 0
M  V30 8844 C 812.754 -1.9531 -0.106551 0
M  V30 8845 C 813.134 -1.44248 -1.54129 0
M  V30 8846 O 812.482 -0.656237 -2.18874 0
M  V30 8847 C 812.692 -3.48995 -0.0191972 0
M  V30 8848 C 814.04 -4.24161 -0.193129 0
M  V30 8849 O 815.064 -3.56075 -0.0943843 0
M  V30 8850 O 813.923 -5.45064 -0.395869 0
M  V30 8851 H 811.017 -0.82149 -0.0953068 0
M  V30 8852 H 813.563 -1.6007 0.563526 0
M  V30 8853 H 812.335 -3.78794 0.981353 0
M  V30 8854 H 811.958 -3.90852 -0.72942 0
M  V30 8855 N 812.955 -0.234822 -1.55841 0
M  V30 8856 C 813.865 0.680828 -2.24504 0
M  V30 8857 C 814.881 1.20306 -1.25708 0
M  V30 8858 O 816.057 1.24188 -1.58554 0
M  V30 8859 C 813.122 1.86636 -2.92178 0
M  V30 8860 C 812.183 1.3848 -4.06352 0
M  V30 8861 C 811.416 2.51382 -4.70789 0
M  V30 8862 O 811.639 3.69831 -4.34259 0
M  V30 8863 O 810.573 2.21828 -5.59532 0
M  V30 8864 H 814.399 0.12583 -3.03439 0
M  V30 8865 H 811.984 -0.00381817 -1.494 0
M  V30 8866 H 813.866 2.55845 -3.34845 0
M  V30 8867 H 812.541 2.40921 -2.16192 0
M  V30 8868 H 811.448 0.660341 -3.68226 0
M  V30 8869 H 812.781 0.888177 -4.8412 0
M  V30 8870 N 814.433 1.57553 0.0384317 0
M  V30 8871 C 815.679 1.89121 0.732199 0
M  V30 8872 C 816.012 0.831404 1.75503 0
M  V30 8873 O 815.287 -0.154642 1.93884 0
M  V30 8874 C 815.57 3.31338 1.41021 0
M  V30 8875 C 815.423 4.48004 0.401532 0
M  V30 8876 C 816.742 3.72318 2.34665 0
M  V30 8877 H 813.861 0.687819 0.264715 0
M  V30 8878 H 816.503 1.89999 -0.00496279 0
M  V30 8879 H 814.653 3.3072 2.03854 0
M  V30 8880 H 816.325 4.60755 -0.224159 0
M  V30 8881 H 814.568 4.32895 -0.280092 0
M  V30 8882 H 815.239 5.44377 0.91423 0
M  V30 8883 H 817.715 3.74243 1.81883 0
M  V30 8884 H 816.591 4.72652 2.7909 0
M  V30 8885 H 816.852 3.04062 3.20934 0
M  V30 8886 N 815.911 -0.310526 1.54511 0
M  V30 8887 C 817.158 -1.04691 1.73338 0
M  V30 8888 C 817.486 -1.87584 0.514038 0
M  V30 8889 O 816.741 -1.89096 -0.504119 0
M  V30 8890 C 817.04 -1.98942 2.96912 0
M  V30 8891 C 816.706 -1.321 4.31115 0
M  V30 8892 C 815.368 -1.13603 4.67598 0
M  V30 8893 C 817.72 -0.842362 5.14348 0
M  V30 8894 C 815.048 -0.459102 5.84901 0
M  V30 8895 C 817.4 -0.179202 6.32346 0
M  V30 8896 C 816.064 0.0178111 6.67498 0
M  V30 8897 H 815.334 -0.38309 0.634289 0
M  V30 8898 H 817.981 -0.322723 1.88761 0
M  V30 8899 H 816.286 -2.77856 2.76231 0
M  V30 8900 H 817.983 -2.55972 3.08674 0
M  V30 8901 H 814.573 -1.47502 4.02419 0
M  V30 8902 H 818.757 -0.973013 4.86668 0
M  V30 8903 H 814.013 -0.295385 6.10686 0
M  V30 8904 H 818.187 0.199619 6.96114 0
M  V30 8905 H 815.814 0.544356 7.58249 0
M  V30 8906 N 817.389 -1.46805 -0.573248 0
M  V30 8907 C 818.638 -1.51868 -1.32736 0
M  V30 8908 C 818.951 -0.178765 -1.94781 0
M  V30 8909 O 820.157 -0.107272 -2.71288 0
M  V30 8910 C 818.613 -2.67641 -2.40616 0
M  V30 8911 C 818.221 -4.08094 -1.84832 0
M  V30 8912 C 819.965 -2.81984 -3.17309 0
M  V30 8913 C 817.872 -5.15193 -2.90397 0
M  V30 8914 H 816.802 -0.56523 -0.49903 0
M  V30 8915 H 819.453 -1.7304 -0.610695 0
M  V30 8916 H 817.835 -2.39818 -3.15124 0
M  V30 8917 H 819.009 -4.45751 -1.16803 0
M  V30 8918 H 817.324 -3.985 -1.20775 0
M  V30 8919 H 819.921 -3.59166 -3.96111 0
M  V30 8920 H 820.264 -1.89842 -3.70494 0
M  V30 8921 H 820.797 -3.095 -2.4991 0
M  V30 8922 H 817.536 -6.09158 -2.42088 0
M  V30 8923 H 817.056 -4.82071 -3.56886 0
M  V30 8924 H 818.735 -5.41448 -3.54179 0
M  V30 8925 N 818.867 0.818669 -1.34668 0
M  V30 8926 C 820.283 1.11243 -1.14443 0
M  V30 8927 C 820.483 2.01435 0.0512212 0
M  V30 8928 O 819.539 2.41854 0.725471 0
M  V30 8929 C 820.852 1.75504 -2.4417 0
M  V30 8930 C 822.4 1.8798 -2.50265 0
M  V30 8931 C 822.875 2.55657 -3.80004 0
M  V30 8932 N 824.366 2.63153 -3.81189 0
M  V30 8933 C 825.101 3.16258 -4.78298 0
M  V30 8934 N 824.597 3.69893 -5.85791 0
M  V30 8935 N 826.39 3.14698 -4.65748 0
M  V30 8936 H 818.541 0.218848 -2.1127 0
M  V30 8937 H 820.804 0.159655 -0.934459 0
M  V30 8938 H 820.51 1.16697 -3.31775 0
M  V30 8939 H 820.384 2.75329 -2.57825 0
M  V30 8940 H 822.771 2.45934 -1.63096 0
M  V30 8941 H 822.852 0.870447 -2.40535 0
M  V30 8942 H 822.496 1.98356 -4.67565 0
M  V30 8943 H 822.426 3.57105 -3.87019 0
M  V30 8944 H 824.917 2.2514 -3.03513 0
M  V30 8945 H 825.23 4.08678 -6.55898 0
M  V30 8946 H 823.575 3.68125 -5.89499 0
M  V30 8947 H 826.766 2.72066 -3.80917 0
M  V30 8948 H 826.939 3.5578 -5.41594 0
M  V30 8949 N 820.346 1.18468 1.03938 0
M  V30 8950 C 821.623 0.890435 1.74157 0
M  V30 8951 C 822.003 -0.606409 2.02203 0
M  V30 8952 O 821.351 -1.5615 1.66822 0
M  V30 8953 C 821.561 1.73906 3.02585 0
M  V30 8954 C 822.909 1.96686 3.76297 0
M  V30 8955 O 823.933 1.70969 3.12487 0
M  V30 8956 O 822.792 2.39986 4.90988 0
M  V30 8957 H 819.886 0.330889 0.757919 0
M  V30 8958 H 822.432 1.29228 1.09992 0
M  V30 8959 H 821.204 2.75369 2.78006 0
M  V30 8960 H 820.827 1.33581 3.74489 0
M  V30 8961 N 821.824 -1.22873 0.986916 0
M  V30 8962 C 823.07 -1.91746 0.660401 0
M  V30 8963 C 823.403 -1.76738 -0.804812 0
M  V30 8964 O 822.678 -1.13246 -1.58131 0
M  V30 8965 C 822.961 -3.44156 1.05966 0
M  V30 8966 C 822.814 -3.68242 2.58298 0
M  V30 8967 C 824.133 -4.35874 0.60842 0
M  V30 8968 H 821.252 -0.696347 0.241391 0
M  V30 8969 H 823.894 -1.44867 1.22937 0
M  V30 8970 H 822.044 -3.84213 0.575534 0
M  V30 8971 H 823.716 -3.37626 3.14335 0
M  V30 8972 H 821.959 -3.12728 3.00638 0
M  V30 8973 H 822.63 -4.74956 2.81285 0
M  V30 8974 H 825.106 -4.03299 1.02417 0
M  V30 8975 H 823.982 -5.41201 0.916142 0
M  V30 8976 H 824.243 -4.39364 -0.491086 0
M  V30 8977 N 823.302 -0.75937 -1.38099 0
M  V30 8978 C 824.265 -0.14372 -2.28749 0
M  V30 8979 C 825.265 0.641338 -1.47457 0
M  V30 8980 O 826.455 0.466751 -1.67831 0
M  V30 8981 C 823.587 0.804545 -3.3127 0
M  V30 8982 H 824.78 -0.942663 -2.847 0
M  V30 8983 H 822.333 -0.526757 -1.47156 0
M  V30 8984 H 823.068 1.62895 -2.80421 0
M  V30 8985 H 822.853 0.243939 -3.9134 0
M  V30 8986 H 824.343 1.23111 -3.99041 0
M  V30 8987 N 824.78 1.49157 -0.508906 0
M  V30 8988 C 825.727 2.2927 0.265288 0
M  V30 8989 C 826.697 1.3603 0.953162 0
M  V30 8990 O 827.882 1.64989 0.958291 0
M  V30 8991 C 825.022 3.18897 1.31904 0
M  V30 8992 C 824.135 4.27201 0.642144 0
M  V30 8993 C 823.27 5.04033 1.67701 0
M  V30 8994 C 822.309 6.04165 0.982422 0
M  V30 8995 N 821.446 6.74133 1.96186 0
M  V30 8996 H 826.286 2.94967 -0.424107 0
M  V30 8997 H 823.823 1.45431 -0.220991 0
M  V30 8998 H 825.781 3.69242 1.94206 0
M  V30 8999 H 824.411 2.55168 1.97709 0
M  V30 9000 H 823.463 3.80283 -0.0943395 0
M  V30 9001 H 824.775 4.98708 0.0957507 0
M  V30 9002 H 823.929 5.58287 2.37487 0
M  V30 9003 H 822.668 4.32317 2.25728 0
M  V30 9004 H 821.673 5.49135 0.270378 0
M  V30 9005 H 822.898 6.7787 0.408554 0
M  V30 9006 H 820.844 6.05183 2.53159 0
M  V30 9007 H 820.761 7.41643 1.46634 0
M  V30 9008 H 822.029 7.32987 2.65236 0
M  V30 9009 N 826.258 0.243083 1.55714 0
M  V30 9010 C 827.504 -0.383287 1.99145 0
M  V30 9011 C 827.837 -1.57868 1.13098 0
M  V30 9012 O 827.112 -1.93535 0.193509 0
M  V30 9013 C 827.395 -0.796879 3.51172 0
M  V30 9014 C 827.248 0.403642 4.47985 0
M  V30 9015 C 828.567 -1.64525 4.08191 0
M  V30 9016 H 825.686 -0.137843 0.723995 0
M  V30 9017 H 828.328 0.343631 1.86867 0
M  V30 9018 H 826.478 -1.41625 3.61766 0
M  V30 9019 H 828.15 1.04204 4.49376 0
M  V30 9020 H 826.393 1.04741 4.20965 0
M  V30 9021 H 827.064 0.0709794 5.51954 0
M  V30 9022 H 829.54 -1.12246 4.00674 0
M  V30 9023 H 828.416 -1.9035 5.14838 0
M  V30 9024 H 828.677 -2.61582 3.56409 0
M  V30 9025 N 827.736 -1.57571 -0.0300757 0
M  V30 9026 C 828.683 -2.06492 -1.03101 0
M  V30 9027 C 829.653 -0.953862 -1.3598 0
M  V30 9028 O 830.838 -1.22436 -1.46335 0
M  V30 9029 C 827.978 -2.54826 -2.32718 0
M  V30 9030 C 827.091 -3.79718 -2.06006 0
M  V30 9031 C 826.226 -4.16668 -3.29487 0
M  V30 9032 C 825.265 -5.3448 -2.98324 0
M  V30 9033 N 824.402 -5.66867 -4.14254 0
M  V30 9034 H 829.242 -2.91755 -0.606877 0
M  V30 9035 H 826.779 -1.44252 -0.288038 0
M  V30 9036 H 828.737 -2.80916 -3.08451 0
M  V30 9037 H 827.367 -1.72481 -2.72856 0
M  V30 9038 H 826.419 -3.60718 -1.20774 0
M  V30 9039 H 827.731 -4.65569 -1.79017 0
M  V30 9040 H 826.885 -4.43881 -4.13588 0
M  V30 9041 H 825.624 -3.29466 -3.59588 0
M  V30 9042 H 824.629 -5.07021 -2.12625 0
M  V30 9043 H 825.854 -6.23334 -2.69502 0
M  V30 9044 H 823.8 -4.82625 -4.44308 0
M  V30 9045 H 823.717 -6.47226 -3.90685 0
M  V30 9046 H 824.985 -5.98656 -4.99231 0
M  V30 9047 N 829.214 0.302327 -1.54673 0
M  V30 9048 C 830.146 1.39443 -1.81902 0
M  V30 9049 C 831.159 1.46891 -0.701914 0
M  V30 9050 O 832.348 1.49233 -0.979369 0
M  V30 9051 C 829.448 2.77824 -1.9408 0
M  V30 9052 C 828.621 2.93324 -3.24468 0
M  V30 9053 C 827.68 4.12196 -3.27079 0
M  V30 9054 O 826.706 4.04344 -4.00617 0
M  V30 9055 N 827.908 5.22768 -2.52376 0
M  V30 9056 H 830.673 1.1644 -2.76155 0
M  V30 9057 H 828.234 0.492392 -1.54231 0
M  V30 9058 H 830.226 3.5559 -1.9323 0
M  V30 9059 H 828.796 2.9378 -1.06828 0
M  V30 9060 H 828.016 2.02682 -3.38103 0
M  V30 9061 H 829.304 3.0059 -4.10516 0
M  V30 9062 H 828.702 5.32027 -1.92259 0
M  V30 9063 H 827.259 5.98874 -2.57281 0
M  V30 9064 N 830.692 1.47107 0.565454 0
M  V30 9065 C 831.602 1.61591 1.70075 0
M  V30 9066 C 832.618 0.498931 1.66693 0
M  V30 9067 O 833.794 0.765372 1.8629 0
M  V30 9068 C 830.859 1.61887 3.06583 0
M  V30 9069 C 829.92 2.84949 3.21096 0
M  V30 9070 C 829.153 2.85221 4.51093 0
M  V30 9071 O 829.376 1.94959 5.36048 0
M  V30 9072 O 828.31 3.76982 4.69221 0
M  V30 9073 H 832.136 2.57638 1.60799 0
M  V30 9074 H 829.721 1.30097 0.73451 0
M  V30 9075 H 831.603 1.64809 3.87835 0
M  V30 9076 H 830.278 0.69005 3.16259 0
M  V30 9077 H 829.185 2.87575 2.39273 0
M  V30 9078 H 830.518 3.77098 3.1632 0
M  V30 9079 N 832.17 -0.811516 1.35101 0
M  V30 9080 C 833.118 -1.94449 1.27642 0
M  V30 9081 C 834.112 -1.68522 0.172287 0
M  V30 9082 O 835.318 -1.76799 0.337967 0
M  V30 9083 H 831.693 -0.638776 0.396824 0
M  V30 9084 H 833.664 -1.97861 2.23369 0
M  V30 9085 C 832.413 -3.31139 1.06029 0
M  V30 9086 H 831.736 -3.51644 1.90227 0
M  V30 9087 H 833.176 -4.10831 1.0485 0
M  V30 9088 C 831.635 -3.36072 -0.236039 0
M  V30 9089 O 832.165 -3.82292 -1.23353 0
M  V30 9090 N 830.371 -2.89314 -0.273107 0
M  V30 9091 H 829.918 -2.51893 0.539211 0
M  V30 9092 H 829.876 -2.92996 -1.1402 0
M  V30 9093 N 833.648 -1.19017 -1.03309 0
M  V30 9094 C 834.595 -0.924088 -2.11493 0
M  V30 9095 C 835.565 0.139464 -1.65513 0
M  V30 9096 O 836.75 -0.00178761 -1.908 0
M  V30 9097 C 833.89 -0.464255 -3.41963 0
M  V30 9098 C 833.003 -1.5941 -4.01513 0
M  V30 9099 C 832.138 -1.08622 -5.19976 0
M  V30 9100 C 831.177 -2.19024 -5.71572 0
M  V30 9101 N 830.314 -1.69575 -6.81314 0
M  V30 9102 H 835.154 -1.85039 -2.33591 0
M  V30 9103 H 832.691 -0.922593 -1.14572 0
M  V30 9104 H 834.649 -0.179078 -4.16815 0
M  V30 9105 H 833.279 0.425062 -3.19989 0
M  V30 9106 H 832.331 -1.99458 -3.23915 0
M  V30 9107 H 833.643 -2.42604 -4.35826 0
M  V30 9108 H 832.797 -0.756022 -6.01971 0
M  V30 9109 H 831.536 -0.223955 -4.87186 0
M  V30 9110 H 830.541 -2.5288 -4.88193 0
M  V30 9111 H 831.766 -3.05699 -6.06403 0
M  V30 9112 H 829.712 -0.856494 -6.50385 0
M  V30 9113 H 829.629 -2.46361 -7.14732 0
M  V30 9114 H 830.897 -1.39505 -7.66915 0
M  V30 9115 N 835.127 1.22348 -0.993418 0
M  V30 9116 C 836.057 2.26584 -0.564088 0
M  V30 9117 C 837.038 1.65102 0.409298 0
M  V30 9118 O 838.223 1.91872 0.299819 0
M  V30 9119 C 835.353 3.47087 0.121554 0
M  V30 9120 C 834.307 4.21009 -0.770429 0
M  V30 9121 C 833.633 5.34678 0.0481586 0
M  V30 9122 C 834.933 4.79636 -2.06752 0
M  V30 9123 H 836.627 2.62749 -1.43538 0
M  V30 9124 H 834.173 1.26303 -0.691628 0
M  V30 9125 H 836.126 4.19166 0.433303 0
M  V30 9126 H 834.85 3.1002 1.0274 0
M  V30 9127 H 833.509 3.50764 -1.06583 0
M  V30 9128 H 833.157 4.93852 0.954933 0
M  V30 9129 H 832.857 5.85061 -0.545641 0
M  V30 9130 H 834.381 6.09573 0.353991 0
M  V30 9131 H 835.795 5.43654 -1.81969 0
M  V30 9132 H 834.192 5.4036 -2.61019 0
M  V30 9133 H 835.262 3.99659 -2.74592 0
M  V30 9134 N 836.605 0.766683 1.37694 0
M  V30 9135 C 837.552 0.147725 2.30327 0
M  V30 9136 C 838.522 -0.695366 1.50844 0
M  V30 9137 O 839.707 -0.64878 1.79431 0
M  V30 9138 C 836.847 -0.72935 3.37305 0
M  V30 9139 C 835.96 0.129795 4.31805 0
M  V30 9140 C 835.095 -0.751511 5.25857 0
M  V30 9141 C 834.134 0.110475 6.12 0
M  V30 9142 N 833.271 -0.728522 6.9831 0
M  V30 9143 H 838.111 0.943204 2.82679 0
M  V30 9144 H 835.648 0.476736 1.3916 0
M  V30 9145 H 837.606 -1.25263 3.97951 0
M  V30 9146 H 836.236 -1.49048 2.86329 0
M  V30 9147 H 835.288 0.770829 3.72508 0
M  V30 9148 H 836.6 0.794923 4.92425 0
M  V30 9149 H 835.754 -1.34146 5.91684 0
M  V30 9150 H 834.493 -1.45034 4.65636 0
M  V30 9151 H 833.498 0.712999 5.45157 0
M  V30 9152 H 834.723 0.806557 6.74293 0
M  V30 9153 H 832.669 -1.41206 6.40622 0
M  V30 9154 H 832.586 -0.12058 7.55904 0
M  V30 9155 H 833.854 -1.30303 7.68532 0
M  V30 9156 N 838.083 -1.48885 0.516809 0
M  V30 9157 C 839.33 -2.02488 -0.0220602 0
M  V30 9158 C 839.658 -1.39513 -1.35523 0
M  V30 9159 O 838.913 -0.52558 -1.8851 0
M  V30 9160 C 839.212 -3.56801 -0.206798 0
M  V30 9161 C 838.878 -4.38496 1.05035 0
M  V30 9162 C 837.54 -4.60538 1.39492 0
M  V30 9163 C 839.892 -4.85909 1.88525 0
M  V30 9164 C 837.22 -5.2724 2.57361 0
M  V30 9165 C 839.572 -5.53909 3.05561 0
M  V30 9166 C 838.236 -5.74193 3.4038 0
M  V30 9167 H 837.506 -0.740956 -0.00807238 0
M  V30 9168 H 840.153 -1.79014 0.680168 0
M  V30 9169 H 838.458 -3.79042 -0.991687 0
M  V30 9170 H 840.155 -3.95885 -0.638447 0
M  V30 9171 H 836.745 -4.2159 0.771984 0
M  V30 9172 H 840.929 -4.68694 1.63218 0
M  V30 9173 H 836.185 -5.41145 2.84556 0
M  V30 9174 H 840.359 -5.89619 3.7057 0
M  V30 9175 H 837.986 -6.25652 4.31814 0
M  V30 9176 N 839.561 -0.251338 -1.55583 0
M  V30 9177 C 840.786 0.379136 -2.03905 0
M  V30 9178 C 841.211 1.50428 -1.12929 0
M  V30 9179 O 840.569 1.80882 -0.123114 0
M  V30 9180 C 840.617 0.86009 -3.50193 0
M  V30 9181 O 839.721 1.96932 -3.62342 0
M  V30 9182 H 839.062 0.0820183 -0.658915 0
M  V30 9183 H 841.592 -0.378692 -2.01065 0
M  V30 9184 H 841.602 1.16214 -3.91099 0
M  V30 9185 H 840.277 0.0367559 -4.15884 0
M  V30 9186 H 838.854 1.67163 -3.33333 0
M  V30 9187 N 841.039 1.57585 0.0217189 0
M  V30 9188 C 842.002 2.06004 1.00474 0
M  V30 9189 C 843.002 0.965461 1.2859 0
M  V30 9190 O 844.192 1.22884 1.23471 0
M  V30 9191 C 841.324 2.48319 2.33561 0
M  V30 9192 H 842.517 2.94112 0.586346 0
M  V30 9193 H 840.07 1.53973 0.268716 0
M  V30 9194 H 840.805 1.63389 2.80133 0
M  V30 9195 H 840.59 3.28239 2.1448 0
M  V30 9196 H 842.08 2.86181 3.04122 0
M  V30 9197 N 842.517 -0.29412 1.54831 0
M  V30 9198 C 843.764 -1.02846 1.74439 0
M  V30 9199 C 844.092 -1.87029 0.533905 0
M  V30 9200 O 843.347 -1.8962 -0.484035 0
M  V30 9201 C 843.646 -1.95782 2.99006 0
M  V30 9202 C 843.312 -1.2752 4.32492 0
M  V30 9203 C 841.974 -1.08637 4.68777 0
M  V30 9204 C 844.326 -0.787761 5.15212 0
M  V30 9205 C 841.654 -0.39704 5.85355 0
M  V30 9206 C 844.006 -0.112123 6.32501 0
M  V30 9207 C 842.67 0.0886071 6.67441 0
M  V30 9208 H 841.94 -0.376341 0.638317 0
M  V30 9209 H 844.587 -0.302684 1.89093 0
M  V30 9210 H 842.892 -2.74911 2.79162 0
M  V30 9211 H 844.589 -2.52684 3.11371 0
M  V30 9212 H 841.179 -1.43226 4.03961 0
M  V30 9213 H 845.363 -0.921341 4.87673 0
M  V30 9214 H 840.619 -0.230597 6.10965 0
M  V30 9215 H 844.793 0.27344 6.95863 0
M  V30 9216 H 842.42 0.624748 7.57628 0
M  V30 9217 N 843.995 -1.47404 -0.557645 0
M  V30 9218 C 844.925 -1.62736 -1.67449 0
M  V30 9219 C 845.906 -0.476824 -1.6328 0
M  V30 9220 O 847.091 -0.706108 -1.80908 0
M  V30 9221 C 844.221 -1.641 -3.06086 0
M  V30 9222 C 843.175 -2.78377 -3.25101 0
M  V30 9223 C 842.501 -2.64812 -4.6452 0
M  V30 9224 C 843.801 -4.19971 -3.10518 0
M  V30 9225 H 845.495 -2.56232 -1.54873 0
M  V30 9226 H 843.041 -1.23312 -0.743649 0
M  V30 9227 H 844.994 -1.73417 -3.84063 0
M  V30 9228 H 843.718 -0.671652 -3.19619 0
M  V30 9229 H 842.377 -2.6857 -2.49531 0
M  V30 9230 H 842.025 -1.65906 -4.74852 0
M  V30 9231 H 841.725 -3.41477 -4.78191 0
M  V30 9232 H 843.249 -2.76057 -5.44633 0
M  V30 9233 H 844.663 -4.30757 -3.78313 0
M  V30 9234 H 843.06 -4.97419 -3.35699 0
M  V30 9235 H 844.13 -4.38369 -2.0727 0
M  V30 9236 N 845.473 0.80434 -1.35529 0
M  V30 9237 C 846.383 1.94784 -1.30753 0
M  V30 9238 C 847.399 1.72703 -0.212071 0
M  V30 9239 O 848.575 1.96494 -0.441841 0
M  V30 9240 C 845.64 3.29406 -1.08133 0
M  V30 9241 C 844.701 3.64367 -2.27013 0
M  V30 9242 C 843.934 4.92566 -2.05463 0
M  V30 9243 O 844.157 5.61166 -1.02222 0
M  V30 9244 O 843.091 5.25838 -2.92879 0
M  V30 9245 H 846.917 2.01761 -2.26994 0
M  V30 9246 H 844.502 0.942448 -1.15924 0
M  V30 9247 H 846.384 4.09995 -0.973756 0
M  V30 9248 H 845.059 3.23355 -0.149444 0
M  V30 9249 H 843.966 2.84146 -2.43335 0
M  V30 9250 H 845.299 3.75125 -3.18656 0
M  V30 9251 N 846.951 1.19563 1.02676 0
M  V30 9252 C 847.898 0.935291 2.11 0
M  V30 9253 C 848.868 -0.130685 1.65585 0
M  V30 9254 O 850.053 0.0119062 1.90796 0
M  V30 9255 C 847.193 0.482384 3.41712 0
M  V30 9256 C 846.306 1.61537 4.00662 0
M  V30 9257 C 845.441 1.11378 5.19392 0
M  V30 9258 C 844.48 2.22052 5.70403 0
M  V30 9259 N 843.617 1.73185 6.80405 0
M  V30 9260 H 848.457 1.86275 2.32606 0
M  V30 9261 H 845.994 0.928656 1.14081 0
M  V30 9262 H 847.952 0.20118 4.16715 0
M  V30 9263 H 846.582 -0.408086 3.2021 0
M  V30 9264 H 845.634 2.01173 3.22852 0
M  V30 9265 H 846.946 2.44912 4.34534 0
M  V30 9266 H 846.1 0.787935 6.01562 0
M  V30 9267 H 844.839 0.249789 4.8706 0
M  V30 9268 H 843.844 2.55465 4.86845 0
M  V30 9269 H 845.069 3.08911 6.04774 0
M  V30 9270 H 843.015 0.890973 6.49921 0
M  V30 9271 H 842.932 2.50148 7.13416 0
M  V30 9272 H 844.2 1.4357 7.66164 0
M  V30 9273 N 848.429 -1.21819 0.999893 0
M  V30 9274 C 849.339 -2.27691 0.565159 0
M  V30 9275 C 850.355 -1.69587 -0.389398 0
M  V30 9276 O 851.531 -1.99786 -0.254499 0
M  V30 9277 C 848.596 -3.46537 -0.106432 0
M  V30 9278 C 847.657 -4.19932 0.891964 0
M  V30 9279 C 846.89 -5.33103 0.252327 0
M  V30 9280 O 847.113 -5.62398 -0.952103 0
M  V30 9281 O 846.047 -5.94184 0.960698 0
M  V30 9282 H 849.873 -2.67059 1.44613 0
M  V30 9283 H 847.458 -1.28119 0.768499 0
M  V30 9284 H 849.34 -4.18631 -0.482301 0
M  V30 9285 H 848.015 -3.09079 -0.961865 0
M  V30 9286 H 846.922 -3.5008 1.3189 0
M  V30 9287 H 848.255 -4.61287 1.71682 0
M  V30 9288 N 849.908 -0.773975 -1.37286 0
M  V30 9289 C 851.138 -0.350249 -2.03609 0
M  V30 9290 C 851.546 1.03313 -1.58502 0
M  V30 9291 O 850.889 1.67118 -0.7627 0
M  V30 9292 C 850.951 -0.317215 -3.58098 0
M  V30 9293 C 850.615 -1.64556 -4.26345 0
M  V30 9294 C 851.612 -2.59839 -4.50311 0
M  V30 9295 C 849.297 -1.92061 -4.64131 0
M  V30 9296 C 851.291 -3.80833 -5.11122 0
M  V30 9297 C 848.978 -3.13325 -5.24663 0
M  V30 9298 C 849.976 -4.0753 -5.48095 0
M  V30 9299 O 849.664 -5.26658 -6.0736 0
M  V30 9300 H 849.396 -0.144456 -0.660385 0
M  V30 9301 H 851.95 -1.0496 -1.76557 0
M  V30 9302 H 850.18 0.438528 -3.84205 0
M  V30 9303 H 851.869 0.0797428 -4.05822 0
M  V30 9304 H 852.635 -2.39872 -4.21529 0
M  V30 9305 H 848.514 -1.19562 -4.45226 0
M  V30 9306 H 852.058 -4.54377 -5.29327 0
M  V30 9307 H 847.955 -3.33177 -5.52869 0
M  V30 9308 H 848.723 -5.27513 -6.25837 0
M  V30 9309 N 851.386 1.48609 -0.524698 0
M  V30 9310 C 852.333 2.29539 0.240956 0
M  V30 9311 C 853.303 1.37033 0.938681 0
M  V30 9312 O 854.488 1.65996 0.940737 0
M  V30 9313 C 851.628 3.20278 1.28514 0
M  V30 9314 C 850.741 4.27858 0.596798 0
M  V30 9315 C 849.876 5.05784 1.62346 0
M  V30 9316 C 848.915 6.05173 0.918287 0
M  V30 9317 N 848.052 6.76176 1.89025 0
M  V30 9318 H 852.892 2.945 -0.455368 0
M  V30 9319 H 850.429 1.45188 -0.236403 0
M  V30 9320 H 852.387 3.71281 1.90279 0
M  V30 9321 H 851.017 2.57251 1.94992 0
M  V30 9322 H 850.069 3.80162 -0.134668 0
M  V30 9323 H 851.381 4.98782 0.0428506 0
M  V30 9324 H 850.535 5.60775 2.31553 0
M  V30 9325 H 849.274 4.34687 2.2113 0
M  V30 9326 H 848.279 5.49391 0.21212 0
M  V30 9327 H 849.504 6.78265 0.336633 0
M  V30 9328 H 847.45 6.07834 2.46726 0
M  V30 9329 H 847.367 7.43157 1.3876 0
M  V30 9330 H 848.635 7.35759 2.57446 0
M  V30 9331 N 852.864 0.259585 1.55447 0
M  V30 9332 C 854.11 -0.362143 1.9954 0
M  V30 9333 C 854.443 -1.5666 1.14767 0
M  V30 9334 O 853.718 -1.93319 0.214025 0
M  V30 9335 C 854.001 -0.759588 3.51998 0
M  V30 9336 C 853.854 0.451134 4.47532 0
M  V30 9337 C 855.173 -1.60186 4.09913 0
M  V30 9338 H 852.292 -0.130157 0.725416 0
M  V30 9339 H 854.934 0.363431 1.86492 0
M  V30 9340 H 853.084 -1.3778 3.63248 0
M  V30 9341 H 854.756 1.08965 4.48246 0
M  V30 9342 H 852.999 1.092 4.19831 0
M  V30 9343 H 853.67 0.129518 5.51848 0
M  V30 9344 H 856.146 -1.0799 4.01842 0
M  V30 9345 H 855.022 -1.84879 5.16828 0
M  V30 9346 H 855.283 -2.57787 3.59163 0
M  V30 9347 N 854.342 -1.57594 -0.0133615 0
M  V30 9348 C 855.289 -2.07574 -1.00905 0
M  V30 9349 C 856.259 -0.968231 -1.34961 0
M  V30 9350 O 857.444 -1.23981 -1.45028 0
M  V30 9351 C 854.584 -2.5728 -2.30002 0
M  V30 9352 C 853.697 -3.81881 -2.01967 0
M  V30 9353 C 852.832 -4.20139 -3.25049 0
M  V30 9354 C 851.871 -5.37614 -2.92639 0
M  V30 9355 N 851.008 -5.71229 -4.08218 0
M  V30 9356 H 855.848 -2.92382 -0.575899 0
M  V30 9357 H 853.385 -1.4455 -0.272722 0
M  V30 9358 H 855.343 -2.84171 -3.05454 0
M  V30 9359 H 853.973 -1.75365 -2.71011 0
M  V30 9360 H 853.025 -3.61979 -1.16942 0
M  V30 9361 H 854.337 -4.67441 -1.74069 0
M  V30 9362 H 853.491 -4.48242 -4.08857 0
M  V30 9363 H 852.23 -3.33262 -3.56073 0
M  V30 9364 H 851.235 -5.09248 -2.07235 0
M  V30 9365 H 852.46 -6.26157 -2.62876 0
M  V30 9366 H 850.406 -4.8731 -4.39164 0
M  V30 9367 H 850.323 -6.51333 -3.83799 0
M  V30 9368 H 851.591 -6.03917 -4.92854 0
M  V30 9369 N 855.82 0.285905 -1.54985 0
M  V30 9370 C 857.069 1.01691 -1.74189 0
M  V30 9371 C 857.382 1.87908 -0.543135 0
M  V30 9372 O 858.588 2.64389 -0.617305 0
M  V30 9373 C 857.044 1.85785 -3.0824 0
M  V30 9374 C 856.652 1.04497 -4.35642 0
M  V30 9375 C 858.396 2.58393 -3.36798 0
M  V30 9376 C 856.303 1.87955 -5.60738 0
M  V30 9377 H 855.233 0.383396 -0.649248 0
M  V30 9378 H 857.884 0.27317 -1.81455 0
M  V30 9379 H 856.266 2.64205 -2.94978 0
M  V30 9380 H 857.44 0.305847 -4.59784 0
M  V30 9381 H 855.755 0.434023 -4.14132 0
M  V30 9382 H 858.352 3.21214 -4.27464 0
M  V30 9383 H 858.695 3.28011 -2.56349 0
M  V30 9384 H 859.228 1.87012 -3.511 0
M  V30 9385 H 855.967 1.22781 -6.43898 0
M  V30 9386 H 855.487 2.59499 -5.40759 0
M  V30 9387 H 857.166 2.45636 -5.98558 0
M  V30 9388 N 857.298 1.47698 0.54982 0
M  V30 9389 C 858.246 1.61156 1.67724 0
M  V30 9390 C 859.24 0.478606 1.62498 0
M  V30 9391 O 860.446 0.656661 1.67595 0
M  V30 9392 H 856.821 0.507304 0.55511 0
M  V30 9393 H 858.792 2.55884 1.53512 0
M  V30 9394 C 857.541 1.64994 3.06059 0
M  V30 9395 H 856.864 2.51525 3.10765 0
M  V30 9396 H 858.304 1.78459 3.84615 0
M  V30 9397 C 856.763 0.384677 3.34697 0
M  V30 9398 O 857.293 -0.511057 3.98436 0
M  V30 9399 N 855.499 0.262434 2.89413 0
M  V30 9400 H 855.046 0.99229 2.37721 0
M  V30 9401 H 855.004 -0.583177 3.08944 0
M  V30 9402 N 858.776 -0.797141 1.35954 0
M  V30 9403 C 860.187 -1.37179 1.26644 0
M  V30 9404 C 860.538 -1.9596 -0.0971046 0
M  V30 9405 O 859.663 -1.91994 -0.998355 0
M  V30 9406 C 860.258 -2.49395 2.2932 0
M  V30 9407 C 858.817 -3.02697 2.23722 0
M  V30 9408 C 857.964 -1.75721 2.14517 0
M  V30 9409 H 860.915 -0.599407 1.46945 0
M  V30 9410 H 860.936 -3.28204 1.92515 0
M  V30 9411 H 860.448 -2.06584 3.2855 0
M  V30 9412 H 858.549 -3.49948 1.27934 0
M  V30 9413 H 858.662 -3.60036 3.16087 0
M  V30 9414 H 857.026 -1.97649 1.60646 0
M  V30 9415 H 857.809 -1.35049 3.15621 0
M  V30 9416 N 860.254 -1.20106 -1.0204 0
M  V30 9417 C 861.479 -1.0351 -1.79723 0
M  V30 9418 C 861.904 0.411328 -1.83548 0
M  V30 9419 O 861.262 1.29608 -1.26773 0
M  V30 9420 C 861.31 -1.61876 -3.22224 0
M  V30 9421 O 860.414 -0.853813 -4.03465 0
M  V30 9422 H 859.755 -0.365299 -0.554484 0
M  V30 9423 H 862.285 -1.59316 -1.28373 0
M  V30 9424 H 862.295 -1.65451 -3.72948 0
M  V30 9425 H 860.97 -2.67148 -3.18755 0
M  V30 9426 H 859.547 -0.891983 -3.62075 0
M  V30 9427 N 861.732 1.21287 -1.00634 0
M  V30 9428 C 862.957 1.94925 -0.708441 0
M  V30 9429 C 863.382 1.73659 0.722783 0
M  V30 9430 O 862.74 1.02429 1.49593 0
M  V30 9431 C 862.788 3.45377 -1.03667 0
M  V30 9432 O 861.892 4.12153 -0.142661 0
M  V30 9433 H 861.233 0.609338 -0.263824 0
M  V30 9434 H 863.763 1.54008 -1.34695 0
M  V30 9435 H 863.773 3.95954 -0.984086 0
M  V30 9436 H 862.448 3.6018 -2.0795 0
M  V30 9437 H 861.025 3.72048 -0.251888 0
M  V30 9438 N 863.21 0.781244 1.36873 0
M  V30 9439 C 864.143 0.120106 2.27884 0
M  V30 9440 C 865.121 -0.698961 1.4681 0
M  V30 9441 O 866.305 -0.671694 1.76126 0
M  V30 9442 C 863.432 -0.835804 3.28226 0
M  V30 9443 C 862.478 -0.0995527 4.26384 0
M  V30 9444 S 863.311 1.21903 5.2144 0
M  V30 9445 C 864.467 0.266904 6.25331 0
M  V30 9446 H 864.7 0.891796 2.83609 0
M  V30 9447 H 862.233 0.575075 1.43291 0
M  V30 9448 H 864.191 -1.3819 3.86541 0
M  V30 9449 H 862.852 -1.58068 2.71428 0
M  V30 9450 H 862.045 -0.82457 4.97209 0
M  V30 9451 H 861.647 0.375818 3.72107 0
M  V30 9452 H 863.939 -0.55725 6.75204 0
M  V30 9453 H 864.882 0.943603 7.01785 0
M  V30 9454 H 865.29 -0.126121 5.64359 0
M  V30 9455 N 864.689 -1.48329 0.532571 0
M  V30 9456 C 865.936 -2.025 -0.000582356 0
M  V30 9457 C 866.264 -1.40942 -1.34036 0
M  V30 9458 O 865.519 -0.545545 -1.87942 0
M  V30 9459 C 865.818 -3.57 -0.168943 0
M  V30 9460 C 865.484 -4.37357 1.0968 0
M  V30 9461 C 864.146 -4.59033 1.44369 0
M  V30 9462 C 866.498 -4.83882 1.93669 0
M  V30 9463 C 863.826 -5.24481 2.62939 0
M  V30 9464 C 866.178 -5.50637 3.11419 0
M  V30 9465 C 864.842 -5.70551 3.46451 0
M  V30 9466 H 864.112 -0.741 -0.000213099 0
M  V30 9467 H 866.759 -1.78282 0.699117 0
M  V30 9468 H 865.064 -3.80072 -0.951429 0
M  V30 9469 H 866.761 -3.9654 -0.596422 0
M  V30 9470 H 863.351 -4.20748 0.816655 0
M  V30 9471 H 867.535 -4.66936 1.6818 0
M  V30 9472 H 862.791 -5.38096 2.9028 0
M  V30 9473 H 866.965 -5.85655 3.76803 0
M  V30 9474 H 864.592 -6.21037 4.38425 0
M  V30 9475 N 866.167 -0.267825 -1.55308 0
M  V30 9476 C 867.444 0.402449 -1.91415 0
M  V30 9477 C 867.824 1.7428 -1.1912 0
M  V30 9478 O 867.172 2.2631 -0.315609 0
M  V30 9479 C 867.382 0.549926 -3.4464 0
M  V30 9480 C 868.73 0.836188 -4.16285 0
M  V30 9481 O 869.754 0.635009 -3.50494 0
M  V30 9482 O 868.613 1.22051 -5.32697 0
M  V30 9483 H 865.707 0.219177 -0.797427 0
M  V30 9484 H 868.253 -0.313439 -1.6678 0
M  V30 9485 H 867.025 -0.393641 -3.89315 0
M  V30 9486 H 866.648 1.31556 -3.75205 0
M  V30 9487 N 867.645 1.57599 0.00500368 0
M  V30 9488 C 868.891 1.90631 0.691919 0
M  V30 9489 C 869.224 0.868443 1.737 0
M  V30 9490 O 868.499 -0.113482 1.94169 0
M  V30 9491 C 868.782 3.34255 1.33961 0
M  V30 9492 C 868.635 4.48755 0.306413 0
M  V30 9493 C 869.954 3.77211 2.26715 0
M  V30 9494 H 867.073 0.693279 0.250066 0
M  V30 9495 H 869.715 1.89946 -0.0452634 0
M  V30 9496 H 867.865 3.3497 1.96793 0
M  V30 9497 H 869.537 4.60176 -0.321841 0
M  V30 9498 H 867.78 4.32203 -0.371852 0
M  V30 9499 H 868.451 5.46193 0.798554 0
M  V30 9500 H 870.927 3.78017 1.73904 0
M  V30 9501 H 869.803 4.78466 2.69002 0
M  V30 9502 H 870.064 3.10801 3.14413 0
M  V30 9503 N 869.123 -0.277682 1.55134 0
M  V30 9504 C 870.073 -1.34531 1.8408 0
M  V30 9505 C 871.057 -1.44904 0.699393 0
M  V30 9506 O 872.249 -1.48664 0.960623 0
M  V30 9507 C 869.378 -2.7064 2.11208 0
M  V30 9508 C 868.464 -2.64396 3.31596 0
M  V30 9509 N 868.855 -2.2777 4.51613 0
M  V30 9510 C 867.153 -2.95464 3.34091 0
M  V30 9511 C 867.854 -2.31401 5.33693 0
M  V30 9512 N 866.83 -2.69688 4.71984 0
M  V30 9513 H 870.632 -1.05214 2.74421 0
M  V30 9514 H 868.146 -0.486311 1.54948 0
M  V30 9515 H 870.143 -3.47649 2.301 0
M  V30 9516 H 868.803 -3.00849 1.22148 0
M  V30 9517 H 869.814 -1.99827 4.77797 0
M  V30 9518 H 866.491 -3.30415 2.5521 0
M  V30 9519 H 867.881 -2.05685 6.39643 0
M  V30 9520 N 870.601 -1.47988 -0.541979 0
M  V30 9521 C 871.847 -1.55623 -1.30036 0
M  V30 9522 C 872.18 -0.224254 -1.92901 0
M  V30 9523 O 871.455 0.768629 -1.78668 0
M  V30 9524 C 871.738 -2.68562 -2.39888 0
M  V30 9525 C 871.591 -4.11426 -1.81792 0
M  V30 9526 C 872.91 -2.77325 -3.41729 0
M  V30 9527 H 870.029 -0.566498 -0.471433 0
M  V30 9528 H 872.671 -1.8011 -0.604998 0
M  V30 9529 H 870.821 -2.47814 -2.992 0
M  V30 9530 H 872.493 -4.43581 -1.26624 0
M  V30 9531 H 870.736 -4.18989 -1.12386 0
M  V30 9532 H 871.407 -4.8625 -2.61276 0
M  V30 9533 H 873.883 -2.96085 -2.92357 0
M  V30 9534 H 872.759 -3.58097 -4.16002 0
M  V30 9535 H 873.02 -1.84995 -4.01534 0
M  V30 9536 N 872.079 0.78992 -1.36375 0
M  V30 9537 C 873.026 1.90254 -1.3066 0
M  V30 9538 C 873.996 1.65171 -0.17539 0
M  V30 9539 O 875.181 1.87338 -0.361824 0
M  V30 9540 C 872.321 3.27057 -1.10125 0
M  V30 9541 C 871.434 3.64215 -2.32317 0
M  V30 9542 C 870.569 4.90134 -2.04798 0
M  V30 9543 C 869.608 5.19969 -3.22953 0
M  V30 9544 N 868.745 6.37071 -2.95102 0
M  V30 9545 H 873.585 1.94474 -2.25796 0
M  V30 9546 H 871.122 0.951022 -1.12223 0
M  V30 9547 H 873.08 4.05947 -0.962453 0
M  V30 9548 H 871.71 3.22261 -0.186444 0
M  V30 9549 H 870.762 2.80454 -2.57002 0
M  V30 9550 H 872.074 3.82212 -3.20492 0
M  V30 9551 H 871.228 5.76888 -1.87845 0
M  V30 9552 H 869.967 4.74205 -1.13932 0
M  V30 9553 H 868.972 4.31699 -3.40465 0
M  V30 9554 H 870.197 5.37817 -4.14644 0
M  V30 9555 H 868.143 6.22535 -2.06848 0
M  V30 9556 H 868.06 6.55398 -3.76815 0
M  V30 9557 H 869.328 7.26808 -2.81727 0
M  V30 9558 N 873.557 1.20646 1.01402 0
M  V30 9559 C 874.973 0.961866 1.27359 0
M  V30 9560 C 875.173 -0.357083 1.98311 0
M  V30 9561 O 874.229 -1.08498 2.28001 0
M  V30 9562 C 875.542 2.14627 2.10609 0
M  V30 9563 C 877.09 2.18753 2.23866 0
M  V30 9564 C 877.565 3.36686 3.10494 0
M  V30 9565 N 879.056 3.36716 3.18083 0
M  V30 9566 C 879.791 4.24615 3.85343 0
M  V30 9567 N 879.287 5.22697 4.54708 0
M  V30 9568 N 881.08 4.12449 3.81893 0
M  V30 9569 H 873.231 2.05481 0.537721 0
M  V30 9570 H 875.494 0.899292 0.299963 0
M  V30 9571 H 875.2 3.10159 1.65814 0
M  V30 9572 H 875.074 2.12935 3.11349 0
M  V30 9573 H 877.461 1.23782 2.67885 0
M  V30 9574 H 877.542 2.24492 1.22626 0
M  V30 9575 H 877.186 4.31945 2.67181 0
M  V30 9576 H 877.116 3.28185 4.11828 0
M  V30 9577 H 879.607 2.65728 2.68695 0
M  V30 9578 H 879.92 5.86087 5.03708 0
M  V30 9579 H 878.265 5.26631 4.53525 0
M  V30 9580 H 881.456 3.35091 3.26851 0
M  V30 9581 H 881.629 4.81162 4.34035 0
M  V30 9582 N 875.035 -1.20752 1.01276 0
M  V30 9583 C 876.284 -1.8934 0.695229 0
M  V30 9584 C 876.597 -1.79459 -0.77806 0
M  V30 9585 O 877.803 -2.43146 -1.20799 0
M  V30 9586 C 876.259 -3.39548 1.1931 0
M  V30 9587 C 875.867 -3.58023 2.69302 0
M  V30 9588 C 877.611 -4.13714 0.950823 0
M  V30 9589 C 875.518 -5.02037 3.1259 0
M  V30 9590 H 874.448 -0.709084 0.25635 0
M  V30 9591 H 877.099 -1.36629 1.22494 0
M  V30 9592 H 875.481 -3.91559 0.591395 0
M  V30 9593 H 876.655 -3.16416 3.34989 0
M  V30 9594 H 874.97 -2.97222 2.9163 0
M  V30 9595 H 877.567 -5.19891 1.24971 0
M  V30 9596 H 877.91 -4.16147 -0.112791 0
M  V30 9597 H 878.443 -3.67792 1.51571 0
M  V30 9598 H 875.182 -5.04757 4.18211 0
M  V30 9599 H 874.702 -5.44469 2.51621 0
M  V30 9600 H 876.381 -5.70594 3.0501 0
M  V30 9601 N 876.513 -0.788492 -1.36457 0
M  V30 9602 C 877.463 -0.159377 -2.27442 0
M  V30 9603 C 878.447 0.656146 -1.46913 0
M  V30 9604 O 879.639 0.516372 -1.693 0
M  V30 9605 C 876.768 0.705703 -3.35968 0
M  V30 9606 C 875.854 -0.11856 -4.23934 0
M  V30 9607 N 876.245 -1.1726 -4.9202 0
M  V30 9608 C 874.543 0.102752 -4.45882 0
M  V30 9609 C 875.244 -1.6743 -5.57083 0
M  V30 9610 N 874.22 -0.983682 -5.34626 0
M  V30 9611 H 878.022 -0.96614 -2.77566 0
M  V30 9612 H 875.536 -0.627864 -1.49772 0
M  V30 9613 H 877.533 1.17231 -4.00078 0
M  V30 9614 H 876.193 1.51102 -2.87399 0
M  V30 9615 H 877.204 -1.55502 -4.94004 0
M  V30 9616 H 873.881 0.878651 -4.08149 0
M  V30 9617 H 875.271 -2.55423 -6.21457 0
M  V30 9618 N 877.991 1.48044 -0.54043 0
M  V30 9619 C 878.901 2.33565 0.220163 0
M  V30 9620 C 879.917 1.47146 0.928659 0
M  V30 9621 O 881.093 1.80107 0.901295 0
M  V30 9622 C 878.158 3.2349 1.2472 0
M  V30 9623 C 877.219 4.25789 0.547938 0
M  V30 9624 C 876.452 5.11417 1.52605 0
M  V30 9625 O 876.675 4.99204 2.75956 0
M  V30 9626 O 875.609 5.92498 1.05972 0
M  V30 9627 H 879.435 2.99868 -0.480898 0
M  V30 9628 H 877.02 1.46332 -0.301226 0
M  V30 9629 H 878.902 3.79084 1.84047 0
M  V30 9630 H 877.577 2.59835 1.93048 0
M  V30 9631 H 876.484 3.74001 -0.0860941 0
M  V30 9632 H 877.817 4.92111 -0.0935896 0
M  V30 9633 N 879.47 0.276058 1.55163 0
M  V30 9634 C 880.7 -0.343274 2.03728 0
M  V30 9635 C 881.108 -1.49945 1.15383 0
M  V30 9636 O 880.451 -1.82942 0.166696 0
M  V30 9637 C 880.513 -0.885683 3.48419 0
M  V30 9638 C 880.177 0.141976 4.56779 0
M  V30 9639 C 881.174 0.961816 5.10926 0
M  V30 9640 C 878.859 0.276487 5.01538 0
M  V30 9641 C 880.853 1.90234 6.0835 0
M  V30 9642 C 878.54 1.22049 5.98788 0
M  V30 9643 C 879.538 2.03192 6.52075 0
M  V30 9644 O 879.226 2.95996 7.47423 0
M  V30 9645 H 878.958 -0.0822192 0.670981 0
M  V30 9646 H 881.512 0.406199 2.01343 0
M  V30 9647 H 879.742 -1.68524 3.48047 0
M  V30 9648 H 881.431 -1.4182 3.80318 0
M  V30 9649 H 882.197 0.868637 4.77158 0
M  V30 9650 H 878.076 -0.345095 4.59707 0
M  V30 9651 H 881.62 2.5361 6.49867 0
M  V30 9652 H 877.517 1.31448 6.31974 0
M  V30 9653 H 878.285 2.90688 7.65142 0
M  V30 9654 N 880.948 -1.576 0.00335426 0
M  V30 9655 C 881.895 -2.08632 -0.986975 0
M  V30 9656 C 882.865 -0.982491 -1.33927 0
M  V30 9657 O 884.05 -1.25513 -1.43705 0
M  V30 9658 C 881.19 -2.59705 -2.27261 0
M  V30 9659 C 880.303 -3.84002 -1.97905 0
M  V30 9660 C 879.438 -4.23563 -3.20574 0
M  V30 9661 C 878.477 -5.40688 -2.8692 0
M  V30 9662 N 877.614 -5.75526 -4.02136 0
M  V30 9663 H 882.454 -2.92977 -0.544855 0
M  V30 9664 H 879.991 -1.44831 -0.257376 0
M  V30 9665 H 881.949 -2.87395 -3.02423 0
M  V30 9666 H 880.579 -1.7823 -2.69136 0
M  V30 9667 H 879.631 -3.63199 -1.13096 0
M  V30 9668 H 880.943 -4.69261 -1.69102 0
M  V30 9669 H 880.097 -4.52554 -4.04079 0
M  V30 9670 H 878.836 -3.37019 -3.52518 0
M  V30 9671 H 877.841 -5.11417 -2.01822 0
M  V30 9672 H 879.066 -6.2891 -2.5622 0
M  V30 9673 H 877.012 -4.9194 -4.33971 0
M  V30 9674 H 876.929 -6.55367 -3.76869 0
M  V30 9675 H 878.197 -6.0911 -4.8642 0
M  V30 9676 N 882.426 0.269451 -1.5528 0
M  V30 9677 C 883.842 0.616827 -1.47199 0
M  V30 9678 C 884.042 1.89354 -0.68901 0
M  V30 9679 O 883.098 2.51631 -0.209287 0
M  V30 9680 C 884.411 0.740492 -2.9144 0
M  V30 9681 C 885.959 0.834312 -3.01676 0
M  V30 9682 C 886.434 0.989725 -4.47178 0
M  V30 9683 N 887.925 1.05516 -4.51022 0
M  V30 9684 C 888.66 1.19427 -5.60825 0
M  V30 9685 N 888.156 1.30035 -6.80487 0
M  V30 9686 N 889.949 1.22566 -5.48575 0
M  V30 9687 H 882.1 -0.568962 -2.04638 0
M  V30 9688 H 884.363 -0.193153 -0.928114 0
M  V30 9689 H 884.069 -0.127234 -3.5147 0
M  V30 9690 H 883.943 1.61965 -3.40657 0
M  V30 9691 H 886.33 1.6925 -2.4174 0
M  V30 9692 H 886.411 -0.0695298 -2.55705 0
M  V30 9693 H 886.055 0.136179 -5.07717 0
M  V30 9694 H 885.985 1.90827 -4.90808 0
M  V30 9695 H 888.476 0.985434 -3.64825 0
M  V30 9696 H 888.789 1.40494 -7.59922 0
M  V30 9697 H 887.134 1.27033 -6.83292 0
M  V30 9698 H 890.325 1.13911 -4.54029 0
M  V30 9699 H 890.498 1.33063 -6.34191 0
M  V30 9700 N 883.904 1.48273 0.534124 0
M  V30 9701 C 884.836 1.5857 1.65494 0
M  V30 9702 C 885.849 0.470266 1.5586 0
M  V30 9703 O 887.038 0.740928 1.62396 0
M  V30 9704 C 884.138 1.49554 3.04117 0
M  V30 9705 C 883.311 2.76066 3.39273 0
M  V30 9706 C 882.37 2.60562 4.57159 0
M  V30 9707 O 881.396 3.34438 4.60587 0
M  V30 9708 N 882.598 1.69906 5.55079 0
M  V30 9709 H 885.363 2.55226 1.57099 0
M  V30 9710 H 882.924 1.44944 0.721303 0
M  V30 9711 H 884.916 1.36882 3.80848 0
M  V30 9712 H 883.486 0.608895 3.06613 0
M  V30 9713 H 882.706 3.03332 2.51761 0
M  V30 9714 H 883.994 3.60006 3.59546 0
M  V30 9715 H 883.392 1.09079 5.55084 0
M  V30 9716 H 881.949 1.63175 6.31044 0
M  V30 9717 N 885.382 -0.782676 1.36792 0
M  V30 9718 C 886.312 -1.90973 1.34356 0
M  V30 9719 C 887.293 -1.6875 0.213917 0
M  V30 9720 O 888.478 -1.89766 0.412601 0
M  V30 9721 C 885.608 -3.28097 1.13884 0
M  V30 9722 C 884.562 -3.6486 2.23744 0
M  V30 9723 C 883.888 -5.00406 1.88408 0
M  V30 9724 C 885.188 -3.72742 3.6587 0
M  V30 9725 H 886.882 -1.93268 2.28665 0
M  V30 9726 H 884.428 -0.928447 1.10072 0
M  V30 9727 H 886.381 -4.06569 1.10813 0
M  V30 9728 H 885.105 -3.26206 0.160275 0
M  V30 9729 H 883.764 -2.88689 2.25952 0
M  V30 9730 H 883.412 -4.95044 0.891083 0
M  V30 9731 H 883.112 -5.25973 2.61966 0
M  V30 9732 H 884.636 -5.81291 1.86905 0
M  V30 9733 H 886.05 -4.4139 3.65852 0
M  V30 9734 H 884.447 -4.09798 4.38389 0
M  V30 9735 H 885.517 -2.73676 4.00287 0
M  V30 9736 N 886.86 -1.21182 -1.00761 0
M  V30 9737 C 887.79 -0.992773 -2.11344 0
M  V30 9738 C 888.771 0.0813618 -1.69905 0
M  V30 9739 O 889.956 -0.0779503 -1.94043 0
M  V30 9740 C 887.086 -0.553826 -3.42856 0
M  V30 9741 C 886.04 -1.57223 -3.98077 0
M  V30 9742 C 885.366 -0.989605 -5.25463 0
M  V30 9743 C 886.666 -2.95839 -4.30438 0
M  V30 9744 H 888.36 -1.91766 -2.29927 0
M  V30 9745 H 885.906 -0.923426 -1.10494 0
M  V30 9746 H 887.859 -0.387771 -4.19612 0
M  V30 9747 H 886.583 0.406702 -3.24058 0
M  V30 9748 H 885.242 -1.7258 -3.23437 0
M  V30 9749 H 884.89 -0.0208743 -5.02996 0
M  V30 9750 H 884.59 -1.66984 -5.63374 0
M  V30 9751 H 886.114 -0.834815 -6.04866 0
M  V30 9752 H 887.528 -2.8394 -4.98047 0
M  V30 9753 H 885.925 -3.60851 -4.79486 0
M  V30 9754 H 886.995 -3.46882 -3.38823 0
M  V30 9755 N 888.338 1.20213 -1.01915 0
M  V30 9756 C 889.286 2.25125 -0.584936 0
M  V30 9757 C 890.28 1.65138 0.377602 0
M  V30 9758 O 891.486 1.78294 0.247245 0
M  V30 9759 H 887.861 0.732333 -0.170858 0
M  V30 9760 H 889.832 2.59075 -1.48063 0
M  V30 9761 C 888.581 3.47651 0.058389 0
M  V30 9762 H 887.904 3.9409 -0.673263 0
M  V30 9763 H 889.344 4.2275 0.325285 0
M  V30 9764 C 887.803 3.10725 1.30199 0
M  V30 9765 O 888.333 3.22491 2.39505 0
M  V30 9766 N 886.539 2.6525 1.18706 0
M  V30 9767 H 886.086 2.55875 0.297618 0
M  V30 9768 H 886.044 2.40913 2.02011 0
M  V30 9769 N 889.816 0.795718 1.36037 0
M  V30 9770 C 891.056 0.376514 2.00902 0
M  V30 9771 C 891.42 -1.03405 1.61776 0
M  V30 9772 O 892.621 -1.55468 2.19279 0
M  V30 9773 C 890.892 0.542086 3.53265 0
M  V30 9774 S 892.451 0.211694 4.38289 0
M  V30 9775 H 889.269 0.143527 0.696363 0
M  V30 9776 H 891.871 1.03559 1.65819 0
M  V30 9777 H 890.575 1.56888 3.79229 0
M  V30 9778 H 890.106 -0.132698 3.93176 0
M  V30 9779 H 892.121 -0.98452 4.86335 0
M  V30 9780 N 891.294 -1.47756 0.548274 0
M  V30 9781 C 892.224 -2.32702 -0.19284 0
M  V30 9782 C 893.205 -1.43237 -0.917457 0
M  V30 9783 O 894.39 -1.72103 -0.89967 0
M  V30 9784 C 891.52 -3.24831 -1.22891 0
M  V30 9785 C 890.474 -4.23466 -0.621312 0
M  V30 9786 C 889.8 -5.04856 -1.76137 0
M  V30 9787 C 891.1 -5.20616 0.419055 0
M  V30 9788 H 892.794 -2.94914 0.516323 0
M  V30 9789 H 890.34 -1.41818 0.24975 0
M  V30 9790 H 892.293 -3.83094 -1.75547 0
M  V30 9791 H 891.017 -2.60656 -1.9679 0
M  V30 9792 H 889.676 -3.66416 -0.116123 0
M  V30 9793 H 889.324 -4.37091 -2.48918 0
M  V30 9794 H 889.024 -5.71629 -1.36065 0
M  V30 9795 H 890.548 -5.65976 -2.29136 0
M  V30 9796 H 891.962 -5.73296 -0.0211034 0
M  V30 9797 H 890.359 -5.95543 0.738163 0
M  V30 9798 H 891.429 -4.66638 1.31822 0
M  V30 9799 N 892.772 -0.284283 -1.55015 0
M  V30 9800 C 893.722 0.613913 -2.19579 0
M  V30 9801 C 894.706 1.11153 -1.16335 0
M  V30 9802 O 895.898 1.05508 -1.42116 0
M  V30 9803 C 893.027 1.79329 -2.92739 0
M  V30 9804 C 892.113 1.31242 -4.03282 0
M  V30 9805 N 892.504 0.548344 -5.02819 0
M  V30 9806 C 890.802 1.5946 -4.1652 0
M  V30 9807 C 891.503 0.294358 -5.80955 0
M  V30 9808 N 890.479 0.869406 -5.36603 0
M  V30 9809 H 894.281 0.0224088 -2.93891 0
M  V30 9810 H 891.795 -0.0882619 -1.6216 0
M  V30 9811 H 893.792 2.44814 -3.37449 0
M  V30 9812 H 892.452 2.38865 -2.1994 0
M  V30 9813 H 893.463 0.194812 -5.17533 0
M  V30 9814 H 890.14 2.19866 -3.54916 0
M  V30 9815 H 891.53 -0.318195 -6.71146 0
M  V30 9816 N 894.251 1.57596 -0.0117121 0
M  V30 9817 C 895.497 1.91355 0.671661 0
M  V30 9818 C 895.83 0.886818 1.72769 0
M  V30 9819 O 895.105 -0.0928813 1.94278 0
M  V30 9820 C 895.388 3.35657 1.30409 0
M  V30 9821 C 895.241 4.49055 0.2588 0
M  V30 9822 C 896.56 3.79595 2.22701 0
M  V30 9823 H 893.679 0.695893 0.242698 0
M  V30 9824 H 896.321 1.89887 -0.0654071 0
M  V30 9825 H 894.471 3.37038 1.9323 0
M  V30 9826 H 896.143 4.59809 -0.370631 0
M  V30 9827 H 894.386 4.31785 -0.417672 0
M  V30 9828 H 895.057 5.4701 0.740578 0
M  V30 9829 H 897.533 3.7984 1.69885 0
M  V30 9830 H 896.409 4.81292 2.63912 0
M  V30 9831 H 896.67 3.14118 3.11098 0
M  V30 9832 N 895.729 -0.261212 1.5542 0
M  V30 9833 C 896.975 -0.992699 1.76843 0
M  V30 9834 C 897.308 -1.8551 0.574428 0
M  V30 9835 O 896.583 -1.89739 -0.427713 0
M  V30 9836 C 896.866 -1.86532 3.08022 0
M  V30 9837 C 896.719 -1.03206 4.378 0
M  V30 9838 C 898.038 -2.85036 3.35324 0
M  V30 9839 H 895.157 -0.359473 0.643388 0
M  V30 9840 H 897.799 -0.264214 1.88154 0
M  V30 9841 H 895.949 -2.48644 2.9851 0
M  V30 9842 H 897.621 -0.430743 4.59285 0
M  V30 9843 H 895.864 -0.335911 4.32497 0
M  V30 9844 H 896.535 -1.6761 5.25938 0
M  V30 9845 H 899.011 -2.3306 3.44706 0
M  V30 9846 H 897.887 -3.43226 4.28354 0
M  V30 9847 H 898.148 -3.60768 2.55537 0
M  V30 9848 N 897.207 -1.48554 -0.526253 0
M  V30 9849 C 898.435 -1.60429 -1.30652 0
M  V30 9850 C 898.85 -0.265963 -1.86917 0
M  V30 9851 O 898.207 0.745262 -1.6659 0
M  V30 9852 C 898.258 -2.65377 -2.45473 0
M  V30 9853 O 897.979 -3.94017 -1.91527 0
M  V30 9854 C 899.48 -2.87726 -3.37237 0
M  V30 9855 H 896.7 -0.540817 -0.397187 0
M  V30 9856 H 899.244 -1.94409 -0.634461 0
M  V30 9857 H 897.399 -2.34246 -3.08557 0
M  V30 9858 H 897.813 -4.51623 -2.66715 0
M  V30 9859 H 899.287 -3.64951 -4.14144 0
M  V30 9860 H 899.764 -1.96688 -3.92696 0
M  V30 9861 H 900.37 -3.20176 -2.79942 0
M  V30 9862 N 898.685 0.775411 -1.37205 0
M  V30 9863 C 899.615 1.90258 -1.35367 0
M  V30 9864 C 900.596 1.68634 -0.222864 0
M  V30 9865 O 901.781 1.89545 -0.422659 0
M  V30 9866 C 898.911 3.27488 -1.15623 0
M  V30 9867 C 897.865 3.63668 -2.25676 0
M  V30 9868 C 897.191 4.994 -1.91059 0
M  V30 9869 C 898.491 3.70797 -3.67841 0
M  V30 9870 H 900.185 1.92053 -2.29687 0
M  V30 9871 H 897.731 0.922597 -1.10563 0
M  V30 9872 H 899.684 4.05976 -1.12968 0
M  V30 9873 H 898.408 3.26117 -0.177573 0
M  V30 9874 H 897.067 2.87486 -2.2748 0
M  V30 9875 H 896.715 4.94565 -0.917324 0
M  V30 9876 H 896.415 5.24576 -2.64751 0
M  V30 9877 H 897.939 5.80291 -1.89985 0
M  V30 9878 H 899.353 4.39444 -3.68187 0
M  V30 9879 H 897.75 4.07468 -4.40556 0
M  V30 9880 H 898.82 2.71549 -4.01732 0
M  V30 9881 N 900.163 1.21714 1.00117 0
M  V30 9882 C 901.393 1.06124 1.77261 0
M  V30 9883 C 901.801 -0.391717 1.85101 0
M  V30 9884 O 901.144 -1.28347 1.31426 0
M  V30 9885 C 901.206 1.58778 3.22536 0
M  V30 9886 C 900.87 3.07289 3.38264 0
M  V30 9887 C 901.867 4.04801 3.26239 0
M  V30 9888 C 899.552 3.46574 3.63582 0
M  V30 9889 C 901.546 5.39585 3.39303 0
M  V30 9890 C 899.233 4.81509 3.76288 0
M  V30 9891 C 900.231 5.77824 3.64155 0
M  V30 9892 O 899.919 7.1031 3.7645 0
M  V30 9893 H 899.651 0.372979 0.563793 0
M  V30 9894 H 902.205 1.61589 1.26799 0
M  V30 9895 H 900.435 0.977129 3.74151 0
M  V30 9896 H 902.124 1.38974 3.81367 0
M  V30 9897 H 902.89 3.75795 3.066 0
M  V30 9898 H 898.769 2.72137 3.72106 0
M  V30 9899 H 902.313 6.14744 3.2975 0
M  V30 9900 H 898.21 5.102 3.95432 0
M  V30 9901 H 898.978 7.17774 3.93374 0
M  V30 9902 N 901.641 -1.19671 1.02551 0
M  V30 9903 C 902.589 -2.24812 0.596867 0
M  V30 9904 C 903.583 -1.65336 -0.368839 0
M  V30 9905 O 904.789 -1.78422 -0.237786 0
M  V30 9906 H 901.164 -0.731417 0.174739 0
M  V30 9907 H 903.135 -2.58286 1.49435 0
M  V30 9908 C 901.884 -3.47677 -0.0399514 0
M  V30 9909 H 901.207 -3.93728 0.694153 0
M  V30 9910 H 902.647 -4.22917 -0.302861 0
M  V30 9911 C 901.106 -3.11411 -1.2855 0
M  V30 9912 O 901.636 -3.23757 -2.37791 0
M  V30 9913 N 899.842 -2.65875 -1.17297 0
M  V30 9914 H 899.389 -2.56029 -0.284045 0
M  V30 9915 H 899.347 -2.41981 -2.00731 0
M  V30 9916 N 903.119 -0.802921 -1.35613 0
M  V30 9917 C 904.535 -0.486214 -1.52014 0
M  V30 9918 C 904.735 0.993219 -1.75321 0
M  V30 9919 O 903.791 1.77835 -1.79251 0
M  V30 9920 C 905.104 -1.32839 -2.69767 0
M  V30 9921 C 906.652 -1.32346 -2.83643 0
M  V30 9922 C 907.127 -2.14967 -4.04417 0
M  V30 9923 N 908.618 -2.12484 -4.11588 0
M  V30 9924 C 909.353 -2.73173 -5.04147 0
M  V30 9925 N 908.849 -3.42774 -6.02061 0
M  V30 9926 N 910.642 -2.62834 -4.96865 0
M  V30 9927 H 902.793 -1.76109 -1.18741 0
M  V30 9928 H 905.056 -0.74936 -0.580658 0
M  V30 9929 H 904.762 -2.37813 -2.5911 0
M  V30 9930 H 904.636 -0.979058 -3.64272 0
M  V30 9931 H 907.023 -0.281586 -2.93753 0
M  V30 9932 H 907.104 -1.71264 -1.90006 0
M  V30 9933 H 906.748 -3.19193 -3.95068 0
M  V30 9934 H 906.678 -1.73411 -4.97228 0
M  V30 9935 H 909.169 -1.61839 -3.41492 0
M  V30 9936 H 909.482 -3.86378 -6.69277 0
M  V30 9937 H 907.827 -3.46878 -6.02246 0
M  V30 9938 H 911.018 -2.08049 -4.19325 0
M  V30 9939 H 911.191 -3.10421 -5.68808 0
M  V30 9940 N 904.597 1.47463 -0.556102 0
M  V30 9941 C 905.846 2.01678 -0.029492 0
M  V30 9942 C 906.159 1.436 1.32809 0
M  V30 9943 O 907.365 1.89472 1.94455 0
M  V30 9944 C 905.821 3.599 -0.00223937 0
M  V30 9945 C 905.429 4.26969 -1.35651 0
M  V30 9946 C 907.173 4.2187 0.471822 0
M  V30 9947 C 905.08 5.77194 -1.28843 0
M  V30 9948 H 904.01 0.753965 -0.00725504 0
M  V30 9949 H 906.661 1.69467 -0.703789 0
M  V30 9950 H 905.043 3.89068 0.737682 0
M  V30 9951 H 906.217 4.09444 -2.11406 0
M  V30 9952 H 904.532 3.76983 -1.76842 0
M  V30 9953 H 907.129 5.31955 0.541139 0
M  V30 9954 H 907.472 3.88968 1.48356 0
M  V30 9955 H 908.005 3.97228 -0.213207 0
M  V30 9956 H 904.744 6.14713 -2.27613 0
M  V30 9957 H 904.264 5.9706 -0.572668 0
M  V30 9958 H 905.943 6.3938 -0.990031 0
M  V30 9959 N 906.075 0.2925 1.54862 0
M  V30 9960 C 907.022 -0.587365 2.23201 0
M  V30 9961 C 907.992 -1.13623 1.21157 0
M  V30 9962 O 909.177 -1.18233 1.49752 0
M  V30 9963 C 906.317 -1.75745 2.96998 0
M  V30 9964 C 905.43 -1.24078 4.13798 0
M  V30 9965 C 904.565 -2.37405 4.75197 0
M  V30 9966 C 903.604 -1.82829 5.84157 0
M  V30 9967 N 902.741 -2.89696 6.39547 0
M  V30 9968 H 907.581 0.00202207 2.98 0
M  V30 9969 H 905.118 0.012766 1.47094 0
M  V30 9970 H 907.076 -2.44549 3.38011 0
M  V30 9971 H 905.706 -2.3186 2.24591 0
M  V30 9972 H 904.758 -0.445268 3.77785 0
M  V30 9973 H 906.07 -0.801186 4.92324 0
M  V30 9974 H 905.224 -3.14172 5.19019 0
M  V30 9975 H 903.963 -2.84688 3.95985 0
M  V30 9976 H 902.968 -1.04548 5.39768 0
M  V30 9977 H 904.193 -1.36461 6.65248 0
M  V30 9978 H 902.139 -3.36328 5.63222 0
M  V30 9979 H 902.056 -2.50206 7.13395 0
M  V30 9980 H 903.324 -3.66386 6.88027 0
M  V30 9981 N 907.553 -1.57587 0.0200696 0
M  V30 9982 C 908.969 -1.56018 -0.336237 0
M  V30 9983 C 909.169 -1.02478 -1.73495 0
M  V30 9984 O 908.225 -0.667487 -2.43518 0
M  V30 9985 C 909.538 -3.00079 -0.193112 0
M  V30 9986 C 911.086 -3.11863 -0.266557 0
M  V30 9987 C 911.561 -4.57747 -0.152326 0
M  V30 9988 N 913.052 -4.62726 -0.209596 0
M  V30 9989 C 913.787 -5.73217 -0.144855 0
M  V30 9990 N 913.283 -6.92794 -0.0295487 0
M  V30 9991 N 915.076 -5.61751 -0.198184 0
M  V30 9992 H 907.227 -1.90722 0.93482 0
M  V30 9993 H 909.49 -0.876909 0.360186 0
M  V30 9994 H 909.196 -3.43167 0.770036 0
M  V30 9995 H 909.07 -3.64593 -0.967029 0
M  V30 9996 H 911.457 -2.68693 -1.22016 0
M  V30 9997 H 911.538 -2.50087 0.53758 0
M  V30 9998 H 911.182 -5.01595 0.797817 0
M  V30 9999 H 911.112 -5.17491 -0.97521 0
M  V30 10000 H 913.603 -3.76713 -0.299229 0
M  V30 10001 H 913.916 -7.72799 0.0134071 0
M  V30 10002 H 912.261 -6.95 0.00510737 0
M  V30 10003 H 915.452 -4.67222 -0.286603 0
M  V30 10004 H 915.625 -6.47839 -0.144266 0
M  V30 10005 N 909.032 0.252966 -1.55557 0
M  V30 10006 C 910.309 1.00432 -1.67847 0
M  V30 10007 C 910.689 2.03587 -0.55816 0
M  V30 10008 O 910.037 2.24239 0.439197 0
M  V30 10009 C 910.247 1.64313 -3.079 0
M  V30 10010 C 911.595 2.14726 -3.66303 0
M  V30 10011 O 912.619 1.74264 -3.10661 0
M  V30 10012 O 911.478 2.89 -4.63833 0
M  V30 10013 H 908.572 0.467102 -0.682455 0
M  V30 10014 H 911.118 0.247233 -1.67889 0
M  V30 10015 H 909.89 0.896681 -3.80888 0
M  V30 10016 H 909.513 2.46657 -3.11843 0
M  V30 10017 N 910.51 1.48831 0.518367 0
M  V30 10018 C 911.921 1.50842 1.10016 0
M  V30 10019 C 912.272 0.284744 1.94123 0
M  V30 10020 O 911.397 -0.607088 2.0771 0
M  V30 10021 C 911.992 2.73329 2.00191 0
M  V30 10022 C 910.551 2.78175 2.53566 0
M  V30 10023 C 909.698 2.4452 1.30786 0
M  V30 10024 H 912.649 1.55779 0.303073 0
M  V30 10025 H 912.67 2.52506 2.84642 0
M  V30 10026 H 912.182 3.62374 1.3895 0
M  V30 10027 H 910.283 1.93368 3.18496 0
M  V30 10028 H 910.396 3.79905 2.91906 0
M  V30 10029 H 908.76 1.95924 1.62744 0
M  V30 10030 H 909.543 3.35819 0.712797 0
M  V30 10031 N 911.988 -0.768124 1.37614 0
M  V30 10032 C 912.951 -1.86314 1.3349 0
M  V30 10033 C 913.951 -1.59025 0.23823 0
M  V30 10034 O 915.141 -1.6704 0.494288 0
M  V30 10035 C 912.273 -3.23519 1.07462 0
M  V30 10036 H 913.466 -1.91382 2.30896 0
M  V30 10037 H 911.019 -0.968267 1.22696 0
M  V30 10038 H 911.754 -3.24127 0.106028 0
M  V30 10039 H 911.539 -3.44719 1.86846 0
M  V30 10040 H 913.029 -4.03597 1.07236 0
M  V30 10041 N 913.466 -1.22244 -0.994698 0
M  V30 10042 C 914.413 -0.990906 -2.08446 0
M  V30 10043 C 915.383 0.086737 -1.65873 0
M  V30 10044 O 916.568 -0.0624882 -1.90698 0
M  V30 10045 C 913.708 -0.572813 -3.40313 0
M  V30 10046 C 912.821 -1.72103 -3.96238 0
M  V30 10047 C 911.956 -1.2511 -5.16257 0
M  V30 10048 C 910.995 -2.37098 -5.64315 0
M  V30 10049 N 910.132 -1.91164 -6.75574 0
M  V30 10050 H 914.972 -1.92377 -2.27585 0
M  V30 10051 H 912.509 -0.958576 -1.11578 0
M  V30 10052 H 914.467 -0.311594 -4.16035 0
M  V30 10053 H 913.097 0.323044 -3.21179 0
M  V30 10054 H 912.149 -2.09662 -3.17405 0
M  V30 10055 H 913.461 -2.56347 -4.27888 0
M  V30 10056 H 912.615 -0.947152 -5.99261 0
M  V30 10057 H 911.354 -0.378836 -4.86226 0
M  V30 10058 H 910.359 -2.68283 -4.799 0
M  V30 10059 H 911.584 -3.24837 -5.96371 0
M  V30 10060 H 909.53 -1.06298 -6.47331 0
M  V30 10061 H 909.447 -2.68975 -7.06533 0
M  V30 10062 H 910.715 -1.63833 -7.62088 0
M  V30 10063 N 914.944 1.19125 -1.03184 0
M  V30 10064 C 915.907 2.20662 -0.619766 0
M  V30 10065 C 916.907 1.57621 0.318179 0
M  V30 10066 O 918.097 1.73885 0.104783 0
M  V30 10067 C 915.229 3.40774 0.0926696 0
M  V30 10068 H 916.422 2.58633 -1.5182 0
M  V30 10069 H 913.975 1.32855 -0.823364 0
M  V30 10070 H 914.71 3.08324 1.00531 0
M  V30 10071 H 914.495 3.87766 -0.581344 0
M  V30 10072 H 915.985 4.15977 0.367792 0
M  V30 10073 N 916.422 0.810101 1.35185 0
M  V30 10074 C 917.669 0.392117 1.98667 0
M  V30 10075 C 917.997 -1.0416 1.64259 0
M  V30 10076 O 917.252 -1.73795 0.899647 0
M  V30 10077 C 917.551 0.526561 3.535 0
M  V30 10078 C 917.217 1.92411 4.07785 0
M  V30 10079 C 915.879 2.30644 4.22323 0
M  V30 10080 C 918.231 2.83827 4.37141 0
M  V30 10081 C 915.559 3.59655 4.63536 0
M  V30 10082 C 917.911 4.12287 4.79794 0
M  V30 10083 C 916.575 4.50515 4.92536 0
M  V30 10084 H 915.845 0.143486 0.726975 0
M  V30 10085 H 918.492 1.03157 1.61341 0
M  V30 10086 H 916.797 -0.19633 3.91308 0
M  V30 10087 H 918.494 0.183871 4.00578 0
M  V30 10088 H 915.084 1.61707 3.96924 0
M  V30 10089 H 919.268 2.55536 4.25459 0
M  V30 10090 H 914.524 3.89117 4.71591 0
M  V30 10091 H 918.698 4.83221 5.01468 0
M  V30 10092 H 916.325 5.50535 5.24229 0
M  V30 10093 N 917.9 -1.47166 0.563914 0
M  V30 10094 C 919.146 -2.02756 0.0424338 0
M  V30 10095 C 919.479 -1.43662 -1.3067 0
M  V30 10096 O 918.754 -0.594676 -1.85186 0
M  V30 10097 C 919.037 -3.60074 -0.0434793 0
M  V30 10098 C 918.89 -4.29587 1.33323 0
M  V30 10099 C 920.209 -4.336 -0.753568 0
M  V30 10100 H 917.328 -0.736806 0.0168946 0
M  V30 10101 H 919.97 -1.75521 0.727496 0
M  V30 10102 H 918.12 -3.83409 -0.626906 0
M  V30 10103 H 919.792 -4.17573 1.96037 0
M  V30 10104 H 918.035 -3.8968 1.9061 0
M  V30 10105 H 918.706 -5.38218 1.22576 0
M  V30 10106 H 921.182 -4.15299 -0.258126 0
M  V30 10107 H 920.058 -5.43291 -0.782659 0
M  V30 10108 H 920.319 -4.03302 -1.81108 0
M  V30 10109 N 919.378 -0.300708 -1.54705 0
M  V30 10110 C 920.789 0.191995 -1.8571 0
M  V30 10111 C 921.14 1.53447 -1.22264 0
M  V30 10112 O 920.265 2.10054 -0.520226 0
M  V30 10113 C 920.86 0.355148 -3.36933 0
M  V30 10114 C 919.419 0.792071 -3.67972 0
M  V30 10115 C 918.566 -0.099756 -2.77121 0
M  V30 10116 H 921.517 -0.521729 -1.49879 0
M  V30 10117 H 921.538 1.18977 -3.61421 0
M  V30 10118 H 921.05 -0.622075 -3.83082 0
M  V30 10119 H 919.151 1.77986 -3.27341 0
M  V30 10120 H 919.264 0.611661 -4.75179 0
M  V30 10121 H 917.628 0.420909 -2.51198 0
M  V30 10122 H 918.411 -1.07333 -3.2609 0
M  V30 10123 N 920.856 1.57574 -0.0284266 0
M  V30 10124 C 922.272 1.56194 0.327958 0
M  V30 10125 C 922.472 1.03397 1.72949 0
M  V30 10126 O 921.528 0.680392 2.4316 0
M  V30 10127 C 922.841 3.00177 0.177196 0
M  V30 10128 C 924.389 3.12 0.250014 0
M  V30 10129 C 924.864 4.57821 0.128049 0
M  V30 10130 N 926.355 4.6283 0.185054 0
M  V30 10131 C 927.09 5.73286 0.114454 0
M  V30 10132 N 926.586 6.928 -0.00719225 0
M  V30 10133 N 928.379 5.61848 0.16839 0
M  V30 10134 H 920.53 1.90224 -0.944921 0
M  V30 10135 H 922.793 0.874987 -0.364832 0
M  V30 10136 H 922.499 3.42753 -0.788224 0
M  V30 10137 H 922.373 3.65101 0.94768 0
M  V30 10138 H 924.76 2.69337 1.20589 0
M  V30 10139 H 924.841 2.49799 -0.550835 0
M  V30 10140 H 924.485 5.01165 -0.824407 0
M  V30 10141 H 924.415 5.18001 0.947753 0
M  V30 10142 H 926.906 3.76867 0.279247 0
M  V30 10143 H 927.219 7.72781 -0.0543903 0
M  V30 10144 H 925.564 6.94987 -0.0419648 0
M  V30 10145 H 928.755 4.67367 0.261821 0
M  V30 10146 H 928.928 6.47907 0.109908 0
M  V30 10147 N 922.334 -0.244713 1.55689 0
M  V30 10148 C 923.562 -0.989944 1.8168 0
M  V30 10149 C 923.977 -1.78863 0.604449 0
M  V30 10150 O 923.334 -1.77437 -0.426907 0
M  V30 10151 C 923.385 -1.92607 3.05916 0
M  V30 10152 O 923.106 -1.1597 4.22472 0
M  V30 10153 C 924.607 -2.78711 3.44724 0
M  V30 10154 H 921.827 -0.2912 0.604519 0
M  V30 10155 H 924.371 -0.266938 2.0275 0
M  V30 10156 H 922.526 -2.60333 2.8689 0
M  V30 10157 H 922.94 -1.79311 4.92898 0
M  V30 10158 H 924.414 -3.40141 4.34751 0
M  V30 10159 H 924.891 -3.49935 2.6541 0
M  V30 10160 H 925.497 -2.16435 3.66109 0
M  V30 10161 N 923.813 -1.49104 -0.510467 0
M  V30 10162 C 925.059 -1.58346 -1.26705 0
M  V30 10163 C 925.392 -0.265121 -1.92382 0
M  V30 10164 O 924.667 0.730558 -1.80258 0
M  V30 10165 C 924.95 -2.7359 -2.34137 0
M  V30 10166 C 924.803 -4.1519 -1.73024 0
M  V30 10167 C 926.122 -2.84511 -3.3577 0
M  V30 10168 H 923.241 -0.57637 -0.459311 0
M  V30 10169 H 925.883 -1.81353 -0.566658 0
M  V30 10170 H 924.033 -2.54105 -2.93876 0
M  V30 10171 H 925.705 -4.46167 -1.17186 0
M  V30 10172 H 923.948 -4.21279 -1.03473 0
M  V30 10173 H 924.619 -4.91683 -2.50903 0
M  V30 10174 H 927.095 -3.0222 -2.86011 0
M  V30 10175 H 925.971 -3.6684 -4.08313 0
M  V30 10176 H 926.232 -1.93471 -3.97519 0
M  V30 10177 N 925.291 0.760815 -1.38019 0
M  V30 10178 C 926.224 1.88212 -1.2904 0
M  V30 10179 C 927.202 1.61721 -0.168805 0
M  V30 10180 O 928.386 1.85318 -0.344893 0
M  V30 10181 C 925.513 3.23672 -0.997702 0
M  V30 10182 C 924.559 3.6906 -2.13769 0
M  V30 10183 S 925.392 3.81445 -3.75845 0
M  V30 10184 C 926.548 5.19736 -3.48748 0
M  V30 10185 H 926.781 1.95541 -2.23944 0
M  V30 10186 H 924.314 0.923051 -1.2377 0
M  V30 10187 H 926.272 4.01904 -0.835657 0
M  V30 10188 H 924.933 3.14031 -0.065967 0
M  V30 10189 H 924.126 4.67295 -1.88816 0
M  V30 10190 H 923.728 2.97961 -2.26043 0
M  V30 10191 H 926.02 6.05259 -3.04414 0
M  V30 10192 H 926.963 5.49706 -4.46351 0
M  V30 10193 H 927.371 4.88191 -2.83425 0
M  V30 10194 N 926.769 1.22769 0.988202 0
M  V30 10195 C 928.018 1.0492 1.72263 0
M  V30 10196 C 928.331 -0.415282 1.91141 0
M  V30 10197 O 929.537 -0.713547 2.61956 0
M  V30 10198 C 927.993 1.82891 3.09966 0
M  V30 10199 C 927.601 3.33618 2.99003 0
M  V30 10200 C 929.345 1.73505 3.87423 0
M  V30 10201 C 927.252 4.04012 4.3189 0
M  V30 10202 H 926.182 0.38899 0.645912 0
M  V30 10203 H 928.833 1.46664 1.10281 0
M  V30 10204 H 927.215 1.33948 3.72658 0
M  V30 10205 H 928.389 3.8999 2.45448 0
M  V30 10206 H 926.704 3.43732 2.35027 0
M  V30 10207 H 929.301 2.23416 4.85787 0
M  V30 10208 H 929.644 0.696344 4.10435 0
M  V30 10209 H 930.177 2.20016 3.31418 0
M  V30 10210 H 926.916 5.08155 4.14075 0
M  V30 10211 H 926.436 3.52428 4.8534 0
M  V30 10212 H 928.115 4.0987 5.00615 0
M  V30 10213 N 928.247 -1.18576 1.03814 0
M  V30 10214 C 929.495 -1.88121 0.738574 0
M  V30 10215 C 929.816 -1.80587 -0.735744 0
M  V30 10216 O 929.086 -1.22251 -1.53074 0
M  V30 10217 H 927.666 -0.696417 0.270208 0
M  V30 10218 H 930.328 -1.43912 1.31435 0
M  V30 10219 H 929.424 -2.94222 1.04115 0
M  V30 10220 N 929.725 -0.817259 -1.34754 0
M  V30 10221 C 930.973 -0.401852 -1.98065 0
M  V30 10222 C 931.294 1.03718 -1.65129 0
M  V30 10223 O 930.564 1.71921 -0.939141 0
M  V30 10224 H 929.144 -0.145603 -0.732672 0
M  V30 10225 H 931.806 -1.04545 -1.64488 0
M  V30 10226 H 930.902 -0.516241 -3.07801 0
M  V30 10227 N 931.203 1.46865 -0.571711 0
M  V30 10228 C 932.15 2.30189 0.167808 0
M  V30 10229 C 933.12 1.3995 0.89461 0
M  V30 10230 O 934.305 1.68905 0.887451 0
M  V30 10231 C 931.445 3.24205 1.1826 0
M  V30 10232 C 930.558 4.2954 0.460376 0
M  V30 10233 C 929.693 5.10693 1.46173 0
M  V30 10234 C 928.732 6.07788 0.725291 0
M  V30 10235 N 927.869 6.81847 1.67417 0
M  V30 10236 H 932.709 2.92902 -0.548831 0
M  V30 10237 H 930.246 1.44362 -0.282474 0
M  V30 10238 H 932.204 3.77147 1.7837 0
M  V30 10239 H 930.834 2.63324 1.86709 0
M  V30 10240 H 929.886 3.79541 -0.255546 0
M  V30 10241 H 931.198 4.98665 -0.115855 0
M  V30 10242 H 930.352 5.67857 2.13595 0
M  V30 10243 H 929.091 4.41502 2.07188 0
M  V30 10244 H 928.096 5.49787 0.037228 0
M  V30 10245 H 929.321 6.78993 0.120678 0
M  V30 10246 H 927.267 6.15376 2.27263 0
M  V30 10247 H 927.184 7.47195 1.15046 0
M  V30 10248 H 928.452 7.43577 2.33908 0
M  V30 10249 N 932.681 0.308908 1.54543 0
M  V30 10250 C 933.644 -0.550857 2.22482 0
M  V30 10251 C 934.644 -1.0551 1.21344 0
M  V30 10252 O 935.834 -0.949866 1.46025 0
M  V30 10253 C 932.966 -1.76354 2.9174 0
M  V30 10254 H 934.159 0.0428395 2.99869 0
M  V30 10255 H 931.712 0.059825 1.56185 0
M  V30 10256 H 932.447 -2.39686 2.18451 0
M  V30 10257 H 932.232 -1.40954 3.65889 0
M  V30 10258 H 933.722 -2.37417 3.43545 0
M  V30 10259 N 934.159 -1.57557 0.0367827 0
M  V30 10260 C 935.122 -2.09591 -0.927589 0
M  V30 10261 C 936.122 -1.01252 -1.24919 0
M  V30 10262 O 937.312 -1.27382 -1.18825 0
M  V30 10263 C 934.444 -2.56816 -2.24184 0
M  V30 10264 H 935.637 -2.96086 -0.476784 0
M  V30 10265 H 933.19 -1.54864 -0.211385 0
M  V30 10266 H 933.925 -1.73673 -2.73876 0
M  V30 10267 H 933.71 -3.35973 -2.0215 0
M  V30 10268 H 935.2 -2.97271 -2.93291 0
M  V30 10269 N 935.637 0.236453 -1.55816 0
M  V30 10270 C 937.048 0.80468 -1.68469 0
M  V30 10271 C 937.399 1.85601 -0.636133 0
M  V30 10272 O 936.524 2.15323 0.215622 0
M  V30 10273 C 937.119 1.46634 -3.05424 0
M  V30 10274 C 935.678 1.98214 -3.19981 0
M  V30 10275 C 934.825 0.83695 -2.64368 0
M  V30 10276 H 937.776 0.0120647 -1.58695 0
M  V30 10277 H 937.797 2.33472 -3.00451 0
M  V30 10278 H 937.309 0.700931 -3.81718 0
M  V30 10279 H 935.41 2.77604 -2.4853 0
M  V30 10280 H 935.523 2.17235 -4.2702 0
M  V30 10281 H 933.887 1.24028 -2.22462 0
M  V30 10282 H 934.67 0.084451 -3.43196 0
M  V30 10283 N 937.115 1.49373 0.502552 0
M  V30 10284 C 938.363 1.58467 1.25429 0
M  V30 10285 C 938.684 0.272593 1.93085 0
M  V30 10286 O 937.954 -0.707947 1.82661 0
M  V30 10287 H 936.534 0.583866 0.46595 0
M  V30 10288 H 939.196 1.8599 0.582568 0
M  V30 10289 H 938.292 2.37993 2.01906 0
M  V30 10290 N 938.594 -0.753485 1.38421 0
M  V30 10291 C 939.824 -1.54049 1.37669 0
M  V30 10292 C 940.232 -1.89167 -0.0353656 0
M  V30 10293 O 939.575 -1.53285 -1.01239 0
M  V30 10294 C 939.637 -2.86777 2.16793 0
M  V30 10295 C 939.301 -2.74196 3.65603 0
M  V30 10296 C 940.298 -2.43985 4.59094 0
M  V30 10297 C 937.983 -2.91645 4.0896 0
M  V30 10298 C 939.977 -2.31379 5.93921 0
M  V30 10299 C 937.664 -2.78658 5.43868 0
M  V30 10300 C 938.662 -2.48568 6.36163 0
M  V30 10301 O 938.35 -2.3564 7.68589 0
M  V30 10302 H 938.082 -0.483276 0.472673 0
M  V30 10303 H 940.636 -0.940267 1.82615 0
M  V30 10304 H 938.866 -3.48988 1.66565 0
M  V30 10305 H 940.555 -3.48289 2.08446 0
M  V30 10306 H 941.321 -2.30172 4.26902 0
M  V30 10307 H 937.2 -3.14063 3.37469 0
M  V30 10308 H 940.744 -2.07813 6.65927 0
M  V30 10309 H 936.641 -2.92044 5.75656 0
M  V30 10310 H 937.409 -2.50851 7.79112 0
M  V30 10311 N 940.072 -1.23292 -0.981677 0
M  V30 10312 C 941.022 -0.980133 -2.05858 0
M  V30 10313 C 942.006 0.0734044 -1.60732 0
M  V30 10314 O 943.198 -0.138561 -1.76457 0
M  V30 10315 C 940.327 -0.571879 -3.38503 0
M  V30 10316 C 939.413 -1.66075 -3.90231 0
M  V30 10317 N 939.804 -2.89077 -4.15052 0
M  V30 10318 C 938.102 -1.53503 -4.18751 0
M  V30 10319 C 938.803 -3.59567 -4.5726 0
M  V30 10320 N 937.779 -2.87076 -4.61615 0
M  V30 10321 H 941.581 -1.91432 -2.23005 0
M  V30 10322 H 939.095 -1.13211 -1.16434 0
M  V30 10323 H 941.092 -0.372059 -4.15236 0
M  V30 10324 H 939.752 0.355278 -3.2275 0
M  V30 10325 H 940.763 -3.25395 -4.02912 0
M  V30 10326 H 937.44 -0.674891 -4.12009 0
M  V30 10327 H 938.83 -4.65007 -4.84993 0
M  V30 10328 N 941.55 1.18024 -1.04442 0
M  V30 10329 C 942.483 2.20623 -0.583171 0
M  V30 10330 C 943.461 1.57994 0.384262 0
M  V30 10331 O 944.645 1.86135 0.297673 0
M  V30 10332 C 941.772 3.38378 0.147561 0
M  V30 10333 C 940.818 4.19423 -0.773711 0
M  V30 10334 S 941.651 4.85534 -2.25869 0
M  V30 10335 C 942.807 6.06686 -1.53891 0
M  V30 10336 H 943.04 2.59406 -1.45244 0
M  V30 10337 H 940.573 1.28518 -0.855708 0
M  V30 10338 H 942.531 4.06621 0.562988 0
M  V30 10339 H 941.192 2.97998 0.992765 0
M  V30 10340 H 940.385 5.03568 -0.208694 0
M  V30 10341 H 939.987 3.56579 -1.12816 0
M  V30 10342 H 942.279 6.72347 -0.834045 0
M  V30 10343 H 943.222 6.67702 -2.35755 0
M  V30 10344 H 943.63 5.55031 -1.02961 0
M  V30 10345 N 943.028 0.824394 1.34319 0
M  V30 10346 C 943.991 0.252696 2.27803 0
M  V30 10347 C 944.991 -0.570254 1.50349 0
M  V30 10348 O 946.181 -0.386145 1.69866 0
M  V30 10349 C 943.313 -0.645575 3.34731 0
M  V30 10350 H 944.506 1.07742 2.79878 0
M  V30 10351 H 942.059 0.596367 1.44475 0
M  V30 10352 H 942.794 -1.4933 2.87873 0
M  V30 10353 H 942.579 -0.0569478 3.92059 0
M  V30 10354 H 944.069 -1.03933 4.0446 0
M  V30 10355 N 944.506 -1.46559 0.579492 0
M  V30 10356 C 945.453 -2.30275 -0.155598 0
M  V30 10357 C 946.423 -1.40422 -0.887175 0
M  V30 10358 O 947.608 -1.69373 -0.878481 0
M  V30 10359 C 944.748 -3.24827 -1.16539 0
M  V30 10360 C 943.861 -4.29778 -0.43759 0
M  V30 10361 C 942.996 -5.11461 -1.43462 0
M  V30 10362 C 942.035 -6.08164 -0.693048 0
M  V30 10363 N 941.172 -6.82726 -1.63799 0
M  V30 10364 H 946.012 -2.92607 0.564356 0
M  V30 10365 H 943.549 -1.44211 0.290126 0
M  V30 10366 H 945.507 -3.78088 -1.76368 0
M  V30 10367 H 944.137 -2.64311 -1.8531 0
M  V30 10368 H 943.189 -3.794 0.27567 0
M  V30 10369 H 944.501 -4.98597 0.142298 0
M  V30 10370 H 943.655 -5.68982 -2.1058 0
M  V30 10371 H 942.394 -4.42595 -2.04844 0
M  V30 10372 H 941.399 -5.49799 -0.00807093 0
M  V30 10373 H 942.624 -6.79047 -0.0846678 0
M  V30 10374 H 940.57 -6.16572 -2.23997 0
M  V30 10375 H 940.487 -7.47795 -1.11082 0
M  V30 10376 H 941.755 -7.44807 -2.29962 0
M  V30 10377 N 945.984 -0.3171 -1.54377 0
M  V30 10378 C 946.914 0.544623 -2.2706 0
M  V30 10379 C 947.895 1.12469 -1.27611 0
M  V30 10380 O 949.08 1.15103 -1.56413 0
M  V30 10381 C 946.21 1.70879 -3.02353 0
M  V30 10382 C 945.164 1.25833 -4.09084 0
M  V30 10383 C 944.49 2.50894 -4.72182 0
M  V30 10384 C 945.79 0.377876 -5.20931 0
M  V30 10385 H 947.484 -0.0616372 -2.99337 0
M  V30 10386 H 945.03 -0.0310848 -1.43966 0
M  V30 10387 H 946.983 2.31787 -3.51927 0
M  V30 10388 H 945.707 2.34155 -2.27682 0
M  V30 10389 H 944.366 0.672228 -3.60384 0
M  V30 10390 H 944.014 3.12518 -3.94134 0
M  V30 10391 H 943.714 2.21447 -5.44275 0
M  V30 10392 H 945.238 3.12575 -5.24528 0
M  V30 10393 H 946.652 0.893056 -5.66302 0
M  V30 10394 H 945.049 0.176474 -5.9984 0
M  V30 10395 H 946.119 -0.592943 -4.81261 0
M  V30 10396 N 947.462 1.57535 -0.0451378 0
M  V30 10397 C 948.711 1.91628 0.629415 0
M  V30 10398 C 949.024 0.924754 1.72359 0
M  V30 10399 O 950.23 1.15751 2.45589 0
M  V30 10400 C 948.686 3.40322 1.17084 0
M  V30 10401 C 948.294 4.47867 0.109101 0
M  V30 10402 C 950.038 3.83458 1.82099 0
M  V30 10403 C 947.945 5.87671 0.663072 0
M  V30 10404 H 946.875 0.715163 0.238868 0
M  V30 10405 H 949.526 1.83151 -0.113046 0
M  V30 10406 H 947.908 3.43783 1.96543 0
M  V30 10407 H 949.082 4.55988 -0.664201 0
M  V30 10408 H 947.397 4.14034 -0.443227 0
M  V30 10409 H 949.994 4.85273 2.2453 0
M  V30 10410 H 950.337 3.19379 2.67026 0
M  V30 10411 H 950.87 3.82488 1.09305 0
M  V30 10412 H 947.609 6.55332 -0.148423 0
M  V30 10413 H 947.129 5.83124 1.4045 0
M  V30 10414 H 948.808 6.36737 1.14785 0
M  V30 10415 N 948.94 -0.228186 1.55939 0
M  V30 10416 C 950.189 -0.951563 1.77843 0
M  V30 10417 C 950.502 -1.85763 0.612501 0
M  V30 10418 O 951.708 -2.61916 0.715006 0
M  V30 10419 C 950.164 -1.74216 3.14923 0
M  V30 10420 C 949.772 -0.882569 4.39221 0
M  V30 10421 C 951.516 -2.45715 3.46156 0
M  V30 10422 C 949.423 -1.67014 5.67327 0
M  V30 10423 H 948.353 -0.359035 0.663031 0
M  V30 10424 H 951.004 -0.205636 1.82344 0
M  V30 10425 H 949.386 -2.53075 3.0458 0
M  V30 10426 H 950.56 -0.13499 4.60602 0
M  V30 10427 H 948.875 -0.280022 4.15457 0
M  V30 10428 H 951.472 -3.05127 4.39092 0
M  V30 10429 H 951.815 -3.1827 2.68346 0
M  V30 10430 H 952.348 -1.73852 3.57799 0
M  V30 10431 H 949.087 -0.987985 6.48012 0
M  V30 10432 H 948.607 -2.3925 5.50018 0
M  V30 10433 H 950.286 -2.23252 6.07262 0
M  V30 10434 N 950.418 -1.49637 -0.494624 0
M  V30 10435 C 951.365 -1.66776 -1.59545 0
M  V30 10436 C 952.335 -0.509159 -1.58104 0
M  V30 10437 O 953.52 -0.736949 -1.75993 0
M  V30 10438 C 950.66 -1.74624 -2.97658 0
M  V30 10439 C 949.773 -3.01831 -3.09067 0
M  V30 10440 C 948.908 -3.00619 -4.37952 0
M  V30 10441 C 947.947 -4.22378 -4.43016 0
M  V30 10442 N 947.084 -4.1904 -5.63339 0
M  V30 10443 H 951.924 -2.60767 -1.44238 0
M  V30 10444 H 949.461 -1.29286 -0.701673 0
M  V30 10445 H 951.419 -1.77156 -3.77719 0
M  V30 10446 H 950.049 -0.840936 -3.11654 0
M  V30 10447 H 949.101 -3.08881 -2.22029 0
M  V30 10448 H 950.413 -3.91823 -3.08669 0
M  V30 10449 H 949.567 -3.01749 -5.26339 0
M  V30 10450 H 948.306 -2.08416 -4.40924 0
M  V30 10451 H 947.311 -4.21485 -3.5303 0
M  V30 10452 H 948.536 -5.15781 -4.41755 0
M  V30 10453 H 946.482 -3.29677 -5.67141 0
M  V30 10454 H 946.399 -5.02774 -5.64583 0
M  V30 10455 H 947.667 -4.24281 -6.53916 0
M  V30 10456 N 951.896 0.746133 -1.38819 0
M  V30 10457 C 952.826 1.87344 -1.39372 0
M  V30 10458 C 953.807 1.68123 -0.258583 0
M  V30 10459 O 954.992 1.88606 -0.462769 0
M  V30 10460 C 952.122 3.24962 -1.22543 0
M  V30 10461 C 951.076 3.58799 -2.33339 0
M  V30 10462 C 950.402 4.95235 -2.01609 0
M  V30 10463 C 951.702 3.62911 -3.75624 0
M  V30 10464 H 953.396 1.87138 -2.33709 0
M  V30 10465 H 950.942 0.898937 -1.12495 0
M  V30 10466 H 952.895 4.03488 -1.21554 0
M  V30 10467 H 951.619 3.25667 -0.246707 0
M  V30 10468 H 950.278 2.82596 -2.33527 0
M  V30 10469 H 949.926 4.92508 -1.02202 0
M  V30 10470 H 949.626 5.18843 -2.75819 0
M  V30 10471 H 951.15 5.76131 -2.02251 0
M  V30 10472 H 952.564 4.31535 -3.77426 0
M  V30 10473 H 950.961 3.98031 -4.491 0
M  V30 10474 H 952.031 2.62967 -4.07402 0
M  V30 10475 N 953.375 1.23811 0.975125 0
M  V30 10476 C 954.621 1.07495 1.71967 0
M  V30 10477 C 954.954 -0.386451 1.90316 0
M  V30 10478 O 954.229 -1.28591 1.45927 0
M  V30 10479 C 954.512 1.80694 3.11483 0
M  V30 10480 C 954.365 3.3454 3.00671 0
M  V30 10481 C 955.684 1.57367 4.11003 0
M  V30 10482 H 952.803 0.3919 0.624166 0
M  V30 10483 H 955.445 1.52383 1.13487 0
M  V30 10484 H 953.595 1.42538 3.61407 0
M  V30 10485 H 955.267 3.8225 2.5823 0
M  V30 10486 H 953.51 3.63301 2.37054 0
M  V30 10487 H 954.181 3.80951 3.99475 0
M  V30 10488 H 956.657 1.90545 3.69908 0
M  V30 10489 H 955.533 2.11052 5.06703 0
M  V30 10490 H 955.794 0.510221 4.39146 0
M  V30 10491 N 954.853 -1.17469 1.05066 0
M  V30 10492 C 956.081 -1.9162 0.780334 0
M  V30 10493 C 956.496 -1.76745 -0.663817 0
M  V30 10494 O 955.853 -1.10377 -1.45338 0
M  V30 10495 C 955.904 -3.42723 1.14992 0
M  V30 10496 O 955.625 -3.57139 2.53739 0
M  V30 10497 C 957.126 -4.33952 0.905549 0
M  V30 10498 H 954.346 -0.608022 0.283814 0
M  V30 10499 H 956.89 -1.4897 1.401 0
M  V30 10500 H 955.045 -3.83124 0.57403 0
M  V30 10501 H 955.459 -4.5075 2.68189 0
M  V30 10502 H 956.933 -5.38487 1.21391 0
M  V30 10503 H 957.41 -4.38911 -0.159295 0
M  V30 10504 H 958.016 -3.99263 1.46522 0
M  V30 10505 N 956.331 -0.831506 -1.3388 0
M  V30 10506 C 957.556 -0.435954 -2.02766 0
M  V30 10507 C 957.981 0.952889 -1.62178 0
M  V30 10508 O 957.339 1.62166 -0.810681 0
M  V30 10509 C 957.387 -0.555907 -3.56289 0
M  V30 10510 O 956.491 0.420826 -4.10247 0
M  V30 10511 H 955.832 -0.178248 -0.639628 0
M  V30 10512 H 958.362 -1.1243 -1.70941 0
M  V30 10513 H 958.372 -0.434831 -4.05676 0
M  V30 10514 H 957.047 -1.56881 -3.85177 0
M  V30 10515 H 955.624 0.257919 -3.72007 0
M  V30 10516 N 957.809 1.4625 -0.587256 0
M  V30 10517 C 959.058 2.01571 -0.0722643 0
M  V30 10518 C 959.371 1.46385 1.29733 0
M  V30 10519 O 960.577 1.93554 1.90392 0
M  V30 10520 C 959.033 3.59814 -0.078579 0
M  V30 10521 C 958.641 4.23996 -1.44678 0
M  V30 10522 C 960.385 4.22776 0.382231 0
M  V30 10523 C 958.292 5.74332 -1.41057 0
M  V30 10524 H 957.222 0.753642 -0.0232461 0
M  V30 10525 H 959.873 1.67936 -0.739577 0
M  V30 10526 H 958.255 3.90546 0.654988 0
M  V30 10527 H 959.429 4.04867 -2.20043 0
M  V30 10528 H 957.744 3.73147 -1.84799 0
M  V30 10529 H 960.341 5.32983 0.428182 0
M  V30 10530 H 960.684 3.92027 1.40072 0
M  V30 10531 H 961.217 3.96687 -0.297417 0
M  V30 10532 H 957.956 6.09747 -2.40601 0
M  V30 10533 H 957.476 5.95711 -0.699185 0
M  V30 10534 H 959.155 6.37137 -1.12543 0
M  V30 10535 N 959.287 0.325282 1.54207 0
M  V30 10536 C 960.535 -0.276229 2.00203 0
M  V30 10537 C 960.856 -1.52519 1.21503 0
M  V30 10538 O 960.126 -1.93313 0.317302 0
M  V30 10539 H 958.706 -0.105059 0.739575 0
M  V30 10540 H 961.368 0.442225 1.89817 0
M  V30 10541 H 960.464 -0.531427 3.07542 0
M  V30 10542 N 960.765 -1.57509 0.0534917 0
M  V30 10543 C 962.042 -1.84137 -0.659767 0
M  V30 10544 C 962.422 -0.942362 -1.88899 0
M  V30 10545 O 961.77 -0.00398566 -2.285 0
M  V30 10546 C 961.98 -3.33919 -1.01486 0
M  V30 10547 C 963.328 -4.00989 -1.39616 0
M  V30 10548 O 964.352 -3.38557 -1.10713 0
M  V30 10549 O 963.211 -5.11071 -1.93567 0
M  V30 10550 H 960.305 -0.760081 -0.325893 0
M  V30 10551 H 962.851 -1.69497 0.0830315 0
M  V30 10552 H 961.623 -3.91046 -0.141041 0
M  V30 10553 H 961.246 -3.53755 -1.81503 0
M  V30 10554 N 962.243 0.219913 -1.56058 0
M  V30 10555 C 963.489 0.945463 -1.79412 0
M  V30 10556 C 963.822 1.83922 -0.62341 0
M  V30 10557 O 963.097 1.90806 0.377256 0
M  V30 10558 C 963.38 1.783 -3.1286 0
M  V30 10559 C 963.233 0.915626 -4.40382 0
M  V30 10560 C 964.552 2.76045 -3.42764 0
M  V30 10561 H 961.671 0.342288 -0.652693 0
M  V30 10562 H 964.313 0.214235 -1.88788 0
M  V30 10563 H 962.463 2.40642 -3.04998 0
M  V30 10564 H 964.135 0.30882 -4.60265 0
M  V30 10565 H 962.378 0.221124 -4.33236 0
M  V30 10566 H 963.049 1.53607 -5.30197 0
M  V30 10567 H 965.525 2.23838 -3.50764 0
M  V30 10568 H 964.401 3.31748 -4.37304 0
M  V30 10569 H 964.662 3.53866 -2.65012 0
M  V30 10570 N 963.721 1.49897 0.486681 0
M  V30 10571 C 964.967 1.60342 1.2417 0
M  V30 10572 C 965.3 0.295694 1.91936 0
M  V30 10573 O 964.575 -0.701788 1.81398 0
M  V30 10574 C 964.858 2.77281 2.29755 0
M  V30 10575 C 964.711 4.1789 1.66397 0
M  V30 10576 C 966.03 2.89817 3.31201 0
M  V30 10577 H 963.149 0.583605 0.450083 0
M  V30 10578 H 965.791 1.82232 0.537734 0
M  V30 10579 H 963.941 2.58748 2.89796 0
M  V30 10580 H 965.613 4.47975 1.10073 0
M  V30 10581 H 963.856 4.22872 0.967579 0
M  V30 10582 H 964.527 4.95612 2.43049 0
M  V30 10583 H 967.003 3.06732 2.81167 0
M  V30 10584 H 965.879 3.7329 4.02425 0
M  V30 10585 H 966.14 1.9977 3.94391 0
M  V30 10586 N 965.199 -0.738761 1.39212 0
M  V30 10587 C 966.147 -1.8741 1.3777 0
M  V30 10588 C 967.141 -1.67371 0.261375 0
M  V30 10589 O 968.347 -1.74759 0.431209 0
M  V30 10590 H 964.722 -0.616843 0.430126 0
M  V30 10591 H 966.693 -1.85742 2.33543 0
M  V30 10592 C 965.442 -3.25053 1.23433 0
M  V30 10593 H 964.765 -3.41066 2.086 0
M  V30 10594 H 966.205 -4.04696 1.2648 0
M  V30 10595 C 964.664 -3.36851 -0.0575624 0
M  V30 10596 O 965.194 -3.88293 -1.02915 0
M  V30 10597 N 963.4 -2.90355 -0.119364 0
M  V30 10598 H 962.947 -2.48681 0.671976 0
M  V30 10599 H 962.905 -2.98628 -0.983286 0
M  V30 10600 N 966.677 -1.24326 -0.968545 0
M  V30 10601 C 967.627 -1.00191 -2.04807 0
M  V30 10602 C 968.611 0.0563524 -1.60801 0
M  V30 10603 O 969.803 -0.157268 -1.763 0
M  V30 10604 C 966.932 -0.607749 -3.37878 0
M  V30 10605 C 966.018 -1.70204 -3.88447 0
M  V30 10606 N 966.409 -2.93463 -4.11962 0
M  V30 10607 C 964.707 -1.57936 -4.171 0
M  V30 10608 C 965.408 -3.64397 -4.5342 0
M  V30 10609 N 964.384 -2.91956 -4.58544 0
M  V30 10610 H 968.186 -1.93786 -2.20962 0
M  V30 10611 H 965.7 -1.1444 -1.15227 0
M  V30 10612 H 967.697 -0.416079 -4.14819 0
M  V30 10613 H 966.357 0.321026 -3.23109 0
M  V30 10614 H 967.368 -3.2965 -3.99438 0
M  V30 10615 H 964.045 -0.718552 -4.1127 0
M  V30 10616 H 965.435 -4.70125 -4.80034 0
M  V30 10617 N 968.156 1.1691 -1.05688 0
M  V30 10618 C 969.433 1.83266 -0.683601 0
M  V30 10619 C 969.813 1.93858 0.835602 0
M  V30 10620 O 969.161 1.47696 1.7435 0
M  V30 10621 C 969.371 3.20625 -1.37842 0
M  V30 10622 C 970.719 3.96473 -1.51967 0
M  V30 10623 O 971.743 3.30122 -1.33783 0
M  V30 10624 O 970.602 5.15393 -1.81749 0
M  V30 10625 H 967.696 0.791028 -0.241254 0
M  V30 10626 H 970.242 1.24165 -1.15677 0
M  V30 10627 H 969.014 3.07914 -2.41463 0
M  V30 10628 H 968.637 3.87398 -0.894921 0
M  V30 10629 N 969.634 0.838594 1.33437 0
M  V30 10630 C 971.045 0.490934 1.8013 0
M  V30 10631 C 971.396 -0.990024 1.6939 0
M  V30 10632 O 970.521 -1.77139 1.24302 0
M  V30 10633 C 971.116 0.884347 3.27055 0
M  V30 10634 C 969.675 0.588829 3.71766 0
M  V30 10635 C 968.822 1.09282 2.54858 0
M  V30 10636 H 971.773 1.02732 1.20962 0
M  V30 10637 H 971.794 0.194283 3.80004 0
M  V30 10638 H 971.306 1.96225 3.34839 0
M  V30 10639 H 969.407 -0.479018 3.69508 0
M  V30 10640 H 969.52 1.14387 4.65245 0
M  V30 10641 H 967.884 0.513702 2.49466 0
M  V30 10642 H 968.667 2.1775 2.65405 0
M  V30 10643 N 971.112 -1.45937 0.595003 0
M  V30 10644 C 972.358 -2.0262 0.0854317 0
M  V30 10645 C 972.691 -1.46402 -1.27594 0
M  V30 10646 O 971.966 -0.633823 -1.83883 0
M  V30 10647 C 972.249 -3.60085 0.0329075 0
M  V30 10648 C 972.102 -4.26663 1.42405 0
M  V30 10649 C 973.421 -4.35101 -0.661426 0
M  V30 10650 H 970.54 -0.736282 0.0325196 0
M  V30 10651 H 973.182 -1.73938 0.764563 0
M  V30 10652 H 971.332 -3.84652 -0.545439 0
M  V30 10653 H 973.004 -4.13321 2.04851 0
M  V30 10654 H 971.247 -3.85549 1.98833 0
M  V30 10655 H 971.918 -5.35497 1.33965 0
M  V30 10656 H 974.394 -4.15753 -0.169977 0
M  V30 10657 H 973.27 -5.44829 -0.667243 0
M  V30 10658 H 973.531 -4.07053 -1.72513 0
M  V30 10659 N 972.59 -0.333456 -1.54032 0
M  V30 10660 C 973.836 0.266527 -2.01041 0
M  V30 10661 C 974.169 1.51006 -1.2211 0
M  V30 10662 O 973.444 1.92078 -0.306016 0
M  V30 10663 C 973.727 0.59078 -3.55221 0
M  V30 10664 C 973.58 -0.664143 -4.4487 0
M  V30 10665 C 974.899 1.40447 -4.17088 0
M  V30 10666 H 972.018 0.0953979 -0.7308 0
M  V30 10667 H 974.66 -0.451995 -1.84545 0
M  V30 10668 H 972.81 1.20292 -3.69408 0
M  V30 10669 H 974.482 -1.30227 -4.42537 0
M  V30 10670 H 972.725 -1.29106 -4.14143 0
M  V30 10671 H 973.396 -0.392664 -5.50602 0
M  V30 10672 H 975.872 0.886946 -4.06537 0
M  V30 10673 H 974.748 1.6001 -5.2506 0
M  V30 10674 H 975.009 2.40357 -3.71054 0
M  V30 10675 N 974.068 1.57479 -0.061844 0
M  V30 10676 C 975.316 1.92727 0.608336 0
M  V30 10677 C 975.637 0.941799 1.70749 0
M  V30 10678 O 974.907 -0.0116608 1.95897 0
M  V30 10679 H 973.487 0.71145 0.2277 0
M  V30 10680 H 976.149 1.94546 -0.117359 0
M  V30 10681 H 975.245 2.9426 1.04007 0
M  V30 10682 N 975.546 -0.211634 1.56173 0
M  V30 10683 C 976.823 -0.959467 1.70451 0
M  V30 10684 C 977.203 -2.02036 0.611942 0
M  V30 10685 O 976.551 -2.25325 -0.37959 0
M  V30 10686 C 976.761 -1.56092 3.12148 0
M  V30 10687 C 978.109 -2.04939 3.71867 0
M  V30 10688 O 979.133 -1.65966 3.15172 0
M  V30 10689 O 977.992 -2.766 4.71333 0
M  V30 10690 H 975.086 -0.448844 0.6946 0
M  V30 10691 H 977.632 -0.202633 1.68486 0
M  V30 10692 H 976.404 -0.79538 3.83131 0
M  V30 10693 H 976.027 -2.38303 3.18273 0
M  V30 10694 N 977.024 -1.50153 -0.478725 0
M  V30 10695 C 978.44 -1.3741 -0.811833 0
M  V30 10696 C 978.64 -0.424303 -1.96982 0
M  V30 10697 O 977.696 0.13588 -2.52134 0
M  V30 10698 C 979.009 -2.78616 -1.13108 0
M  V30 10699 C 980.557 -2.87477 -1.23798 0
M  V30 10700 C 981.032 -4.295 -1.5904 0
M  V30 10701 N 982.523 -4.32415 -1.66047 0
M  V30 10702 C 983.258 -5.39295 -1.94805 0
M  V30 10703 N 982.754 -6.56392 -2.21635 0
M  V30 10704 N 984.547 -5.26731 -1.96243 0
M  V30 10705 H 976.698 -2.10486 0.284531 0
M  V30 10706 H 978.961 -0.945786 0.0647585 0
M  V30 10707 H 978.667 -3.49921 -0.35334 0
M  V30 10708 H 978.541 -3.15382 -2.06915 0
M  V30 10709 H 980.928 -2.16396 -2.00641 0
M  V30 10710 H 981.009 -2.54264 -0.279888 0
M  V30 10711 H 980.653 -5.01115 -0.827404 0
M  V30 10712 H 980.583 -4.60194 -2.55987 0
M  V30 10713 H 983.074 -3.47975 -1.47383 0
M  V30 10714 H 983.387 -7.33658 -2.4283 0
M  V30 10715 H 981.732 -6.59579 -2.19043 0
M  V30 10716 H 984.923 -4.34249 -1.74773 0
M  V30 10717 H 985.096 -6.10115 -2.1832 0
M  V30 10718 N 978.502 0.731368 -1.39602 0
M  V30 10719 C 979.432 1.85855 -1.41351 0
M  V30 10720 C 980.413 1.67839 -0.2764 0
M  V30 10721 O 981.598 1.88104 -0.482747 0
M  V30 10722 C 978.728 3.23644 -1.25983 0
M  V30 10723 C 977.682 3.56304 -2.37132 0
M  V30 10724 C 977.008 4.93069 -2.0685 0
M  V30 10725 C 978.308 3.58906 -3.79452 0
M  V30 10726 H 980.002 1.84648 -2.3568 0
M  V30 10727 H 977.548 0.886955 -1.13442 0
M  V30 10728 H 979.501 4.02176 -1.25826 0
M  V30 10729 H 978.225 3.25387 -0.281234 0
M  V30 10730 H 976.884 2.80104 -2.36511 0
M  V30 10731 H 976.532 4.91396 -1.0742 0
M  V30 10732 H 976.232 5.15888 -2.81306 0
M  V30 10733 H 977.756 5.73953 -2.0835 0
M  V30 10734 H 979.17 4.27508 -3.81982 0
M  V30 10735 H 977.567 3.93246 -4.53297 0
M  V30 10736 H 978.637 2.58631 -4.10168 0
M  V30 10737 N 979.98 1.24838 0.961938 0
M  V30 10738 C 980.927 1.04582 2.05745 0
M  V30 10739 C 981.897 -0.0427281 1.66045 0
M  V30 10740 O 983.082 0.113026 1.90465 0
M  V30 10741 C 980.222 0.66284 3.38675 0
M  V30 10742 C 979.335 1.82548 3.91536 0
M  V30 10743 C 978.47 1.38753 5.12758 0
M  V30 10744 C 977.509 2.51976 5.5783 0
M  V30 10745 N 976.646 2.09009 6.70268 0
M  V30 10746 H 981.486 1.98343 2.22405 0
M  V30 10747 H 979.023 0.987822 1.08998 0
M  V30 10748 H 980.981 0.421788 4.15062 0
M  V30 10749 H 979.611 -0.237776 3.21923 0
M  V30 10750 H 978.663 2.18004 3.11735 0
M  V30 10751 H 979.975 2.67601 4.20941 0
M  V30 10752 H 979.129 1.1057 5.96539 0
M  V30 10753 H 977.868 0.507618 4.85051 0
M  V30 10754 H 976.873 2.80912 4.72619 0
M  V30 10755 H 978.098 3.40534 5.87549 0
M  V30 10756 H 976.044 1.23423 6.44285 0
M  V30 10757 H 975.961 2.87613 6.99153 0
M  V30 10758 H 977.229 1.83981 7.57477 0
M  V30 10759 N 981.458 -1.16348 1.06306 0
M  V30 10760 C 982.704 -1.87158 0.781007 0
M  V30 10761 C 983.037 -1.81499 -0.690784 0
M  V30 10762 O 982.312 -1.23074 -1.50609 0
M  V30 10763 C 982.595 -3.3672 1.27639 0
M  V30 10764 C 982.448 -3.51069 2.81194 0
M  V30 10765 C 983.767 -4.31122 0.884388 0
M  V30 10766 H 980.886 -0.679586 0.285187 0
M  V30 10767 H 983.528 -1.36756 1.31901 0
M  V30 10768 H 981.678 -3.79775 0.818715 0
M  V30 10769 H 983.35 -3.16952 3.35171 0
M  V30 10770 H 981.593 -2.92976 3.19918 0
M  V30 10771 H 982.264 -4.56105 3.10921 0
M  V30 10772 H 984.74 -3.95969 1.27858 0
M  V30 10773 H 983.616 -5.34279 1.25847 0
M  V30 10774 H 983.877 -4.41598 -0.210673 0
M  V30 10775 N 982.937 -0.845659 -1.3299 0
M  V30 10776 C 984.186 -0.440928 -1.96822 0
M  V30 10777 C 984.499 1.00668 -1.67706 0
M  V30 10778 O 985.705 1.51641 -2.25205 0
M  V30 10779 C 984.161 -0.73752 -3.52262 0
M  V30 10780 C 983.769 -2.20026 -3.90247 0
M  V30 10781 C 985.513 -0.400072 -4.22611 0
M  V30 10782 C 983.42 -2.44054 -5.38694 0
M  V30 10783 H 982.35 -0.161148 -0.736578 0
M  V30 10784 H 985.001 -1.03519 -1.51513 0
M  V30 10785 H 983.383 -0.0728025 -3.95933 0
M  V30 10786 H 984.557 -2.90602 -3.57613 0
M  V30 10787 H 982.872 -2.50135 -3.32899 0
M  V30 10788 H 985.469 -0.557136 -5.3179 0
M  V30 10789 H 985.812 0.657547 -4.11074 0
M  V30 10790 H 986.345 -1.0203 -3.84493 0
M  V30 10791 H 983.084 -3.48407 -5.55241 0
M  V30 10792 H 982.604 -1.78047 -5.72765 0
M  V30 10793 H 984.283 -2.27549 -6.05665 0
M  V30 10794 N 984.415 1.45619 -0.602734 0
M  V30 10795 C 985.662 2.02272 -0.0960337 0
M  V30 10796 C 985.99 1.47177 1.27159 0
M  V30 10797 O 985.245 0.634593 1.85125 0
M  V30 10798 C 985.544 3.574 -0.00157909 0
M  V30 10799 C 985.21 4.31626 -1.30422 0
M  V30 10800 C 983.872 4.51622 -1.66106 0
M  V30 10801 C 986.224 4.74091 -2.16535 0
M  V30 10802 C 983.552 5.11338 -2.87663 0
M  V30 10803 C 985.904 5.35151 -3.37336 0
M  V30 10804 C 984.568 5.53371 -3.73278 0
M  V30 10805 H 983.838 0.740166 -0.0351412 0
M  V30 10806 H 986.485 1.74744 -0.783382 0
M  V30 10807 H 984.79 3.84179 0.769008 0
M  V30 10808 H 986.487 3.98934 0.406549 0
M  V30 10809 H 983.077 4.16372 -1.01647 0
M  V30 10810 H 987.261 4.5838 -1.90266 0
M  V30 10811 H 982.517 5.23634 -3.15622 0
M  V30 10812 H 986.691 5.67011 -4.04316 0
M  V30 10813 H 984.318 5.99412 -4.67556 0
M  V30 10814 N 985.893 0.34162 1.53853 0
M  V30 10815 C 986.823 -0.508431 2.27897 0
M  V30 10816 C 987.804 -1.10425 1.29384 0
M  V30 10817 O 988.989 -1.126 1.58224 0
M  V30 10818 C 986.119 -1.66048 3.05034 0
M  V30 10819 C 985.073 -1.19309 4.11035 0
M  V30 10820 C 984.399 -2.4335 4.76114 0
M  V30 10821 C 985.699 -0.294952 5.21467 0
M  V30 10822 H 987.393 0.109251 2.99201 0
M  V30 10823 H 984.939 0.0539847 1.43899 0
M  V30 10824 H 986.892 -2.26158 3.5557 0
M  V30 10825 H 985.616 -2.30503 2.31379 0
M  V30 10826 H 984.275 -0.614809 3.61408 0
M  V30 10827 H 983.923 -3.06208 3.99056 0
M  V30 10828 H 983.623 -2.1276 5.47729 0
M  V30 10829 H 985.147 -3.0419 5.29434 0
M  V30 10830 H 986.561 -0.80285 5.67651 0
M  V30 10831 H 984.958 -0.0810221 6.00045 0
M  V30 10832 H 986.028 0.669433 4.80257 0
M  V30 10833 N 987.371 -1.57444 0.0701946 0
M  V30 10834 C 988.281 -2.16132 -0.912377 0
M  V30 10835 C 989.297 -1.12406 -1.32819 0
M  V30 10836 O 990.473 -1.44665 -1.40121 0
M  V30 10837 C 987.538 -2.71008 -2.16231 0
M  V30 10838 C 986.599 -3.896 -1.80306 0
M  V30 10839 C 985.832 -4.4185 -2.9934 0
M  V30 10840 O 986.055 -3.93106 -4.13309 0
M  V30 10841 O 984.989 -5.33201 -2.7925 0
M  V30 10842 H 988.815 -3.00449 -0.443167 0
M  V30 10843 H 986.4 -1.48617 -0.152786 0
M  V30 10844 H 988.282 -3.06186 -2.8953 0
M  V30 10845 H 986.957 -1.8975 -2.62253 0
M  V30 10846 H 985.864 -3.59277 -1.04264 0
M  V30 10847 H 987.197 -4.72145 -1.39068 0
M  V30 10848 N 988.849 0.203349 -1.56283 0
M  V30 10849 C 989.797 1.27157 -1.94766 0
M  V30 10850 C 990.791 1.4756 -0.832005 0
M  V30 10851 O 991.997 1.48519 -1.01696 0
M  V30 10852 H 988.372 0.426712 -0.61921 0
M  V30 10853 H 990.343 0.919921 -2.83866 0
M  V30 10854 C 989.092 2.6108 -2.29636 0
M  V30 10855 H 988.415 2.46193 -3.15006 0
M  V30 10856 H 989.855 3.34591 -2.60433 0
M  V30 10857 C 988.314 3.17456 -1.12799 0
M  V30 10858 O 988.844 3.99717 -0.398661 0
M  V30 10859 N 987.05 2.76084 -0.906975 0
M  V30 10860 H 986.597 2.09294 -1.50179 0
M  V30 10861 H 986.555 3.14143 -0.127005 0
M  V30 10862 N 990.327 1.50405 0.470755 0
M  V30 10863 C 991.557 1.64928 1.24428 0
M  V30 10864 C 991.965 0.332139 1.86262 0
M  V30 10865 O 991.308 -0.695919 1.70008 0
M  V30 10866 C 991.37 2.6829 2.39293 0
M  V30 10867 C 991.034 4.11835 1.98093 0
M  V30 10868 C 992.031 4.97693 1.50326 0
M  V30 10869 C 989.716 4.57753 2.06803 0
M  V30 10870 C 991.71 6.27516 1.11813 0
M  V30 10871 C 989.397 5.87582 1.67902 0
M  V30 10872 C 990.395 6.72289 1.20485 0
M  V30 10873 O 990.083 7.99694 0.821219 0
M  V30 10874 H 989.815 0.557418 0.382442 0
M  V30 10875 H 992.369 1.97382 0.568292 0
M  V30 10876 H 990.599 2.31079 3.10063 0
M  V30 10877 H 992.288 2.7203 3.01255 0
M  V30 10878 H 993.054 4.63434 1.43018 0
M  V30 10879 H 988.933 3.91966 2.42659 0
M  V30 10880 H 992.477 6.93586 0.747317 0
M  V30 10881 H 988.374 6.21362 1.74869 0
M  V30 10882 H 989.142 8.12968 0.950038 0
M  V30 10883 N 991.805 -0.723954 1.39988 0
M  V30 10884 C 993.221 -1.03095 1.21834 0
M  V30 10885 C 993.421 -2.01309 0.0876647 0
M  V30 10886 O 992.477 -2.46277 -0.55714 0
M  V30 10887 C 993.79 -1.58267 2.5568 0
M  V30 10888 C 995.338 -1.70293 2.6262 0
M  V30 10889 C 995.813 -2.28872 3.96713 0
M  V30 10890 N 997.304 -2.36269 3.98411 0
M  V30 10891 C 998.039 -2.82557 4.98948 0
M  V30 10892 N 997.535 -3.28661 6.0988 0
M  V30 10893 N 999.328 -2.81866 4.86321 0
M  V30 10894 H 991.479 -0.0727891 2.12275 0
M  V30 10895 H 993.742 -0.0949029 0.943238 0
M  V30 10896 H 993.448 -0.935642 3.39026 0
M  V30 10897 H 993.322 -2.56914 2.76179 0
M  V30 10898 H 995.709 -2.34115 1.7965 0
M  V30 10899 H 995.79 -0.70268 2.45959 0
M  V30 10900 H 995.434 -1.65675 4.80119 0
M  V30 10901 H 995.364 -3.29595 4.107 0
M  V30 10902 H 997.855 -2.03697 3.18302 0
M  V30 10903 H 998.168 -3.62524 6.82493 0
M  V30 10904 H 996.513 -3.26641 6.13458 0
M  V30 10905 H 999.704 -2.45179 3.98754 0
M  V30 10906 H 999.877 -3.17626 5.64817 0
M  V30 10907 N 993.283 -1.25346 -0.955304 0
M  V30 10908 C 994.529 -1.10218 -1.70235 0
M  V30 10909 C 994.862 0.356124 -1.90907 0
M  V30 10910 O 994.137 1.26253 -1.47954 0
M  V30 10911 C 994.42 -1.85627 -3.08569 0
M  V30 10912 C 994.273 -3.39281 -2.95311 0
M  V30 10913 C 995.592 -1.63886 -4.08448 0
M  V30 10914 H 992.711 -0.401781 -0.617852 0
M  V30 10915 H 995.353 -1.5417 -1.11048 0
M  V30 10916 H 993.503 -1.48269 -3.59094 0
M  V30 10917 H 995.175 -3.8631 -2.52116 0
M  V30 10918 H 993.418 -3.67027 -2.31244 0
M  V30 10919 H 994.089 -3.87258 -3.93364 0
M  V30 10920 H 996.565 -1.96406 -3.6683 0
M  V30 10921 H 995.441 -2.19087 -5.03281 0
M  V30 10922 H 995.702 -0.580021 -4.38279 0
M  V30 10923 N 994.761 1.15782 -1.06922 0
M  V30 10924 C 995.986 1.90896 -0.810771 0
M  V30 10925 C 996.411 1.77246 0.629714 0
M  V30 10926 O 995.769 1.10215 1.43953 0
M  V30 10927 C 995.817 3.39397 -1.21829 0
M  V30 10928 O 994.921 4.10818 -0.360934 0
M  V30 10929 H 994.262 0.594497 -0.295752 0
M  V30 10930 H 996.792 1.46652 -1.42669 0
M  V30 10931 H 996.802 3.90181 -1.19259 0
M  V30 10932 H 995.477 3.4865 -2.2675 0
M  V30 10933 H 994.054 3.7019 -0.448748 0
M  V30 10934 N 996.239 0.8527 1.3254 0
M  V30 10935 C 997.169 0.311234 2.31416 0
M  V30 10936 C 998.15 -0.588557 1.59593 0
M  V30 10937 O 999.335 -0.509211 1.87405 0
M  V30 10938 C 996.465 -0.502892 3.4364 0
M  V30 10939 C 995.419 0.302296 4.26931 0
M  V30 10940 C 994.745 -0.636445 5.30899 0
M  V30 10941 C 996.045 1.52697 4.99481 0
M  V30 10942 H 997.739 1.13742 2.76953 0
M  V30 10943 H 995.285 0.548389 1.33149 0
M  V30 10944 H 997.238 -0.892092 4.11849 0
M  V30 10945 H 995.962 -1.36242 2.96826 0
M  V30 10946 H 994.621 0.673226 3.60365 0
M  V30 10947 H 994.269 -1.49277 4.80339 0
M  V30 10948 H 993.969 -0.101716 5.87512 0
M  V30 10949 H 995.493 -1.02286 6.01972 0
M  V30 10950 H 996.907 1.21017 5.60382 0
M  V30 10951 H 995.304 1.9995 5.65809 0
M  V30 10952 H 996.374 2.28929 4.27457 0
M  V30 10953 N 997.718 -1.45297 0.610449 0
M  V30 10954 C 998.681 -2.28995 -0.0968194 0
M  V30 10955 C 999.681 -1.39923 -0.792353 0
M  V30 10956 O 1000.87 -1.62014 -0.64008 0
M  V30 10957 C 998.003 -3.21013 -1.14731 0
M  V30 10958 H 999.196 -2.93012 0.639082 0
M  V30 10959 H 996.749 -1.51867 0.369624 0
M  V30 10960 H 997.484 -2.61803 -1.91388 0
M  V30 10961 H 997.269 -3.86628 -0.652753 0
M  V30 10962 H 998.759 -3.8394 -1.64256 0
M  V30 10963 N 999.196 -0.349774 -1.5367 0
M  V30 10964 C 1000.11 0.512421 -2.28935 0
M  V30 10965 C 1001.12 1.1065 -1.34286 0
M  V30 10966 O 1002.3 1.12084 -1.67329 0
M  V30 10967 C 999.363 1.64449 -3.05217 0
M  V30 10968 C 998.424 1.07956 -4.15505 0
M  V30 10969 C 997.657 2.15768 -4.88139 0
M  V30 10970 O 997.88 3.366 -4.60496 0
M  V30 10971 O 996.814 1.79712 -5.74445 0
M  V30 10972 H 1000.64 -0.0996001 -3.03537 0
M  V30 10973 H 998.225 -0.114629 -1.4896 0
M  V30 10974 H 1000.11 2.30302 -3.52901 0
M  V30 10975 H 998.782 2.24221 -2.33467 0
M  V30 10976 H 997.689 0.385381 -3.7211 0
M  V30 10977 H 999.022 0.526621 -4.89375 0
M  V30 10978 N 1000.67 1.57404 -0.0785433 0
M  V30 10979 C 1001.62 2.13104 0.88631 0
M  V30 10980 C 1002.59 1.04527 1.29086 0
M  V30 10981 O 1003.78 1.32226 1.37553 0
M  V30 10982 C 1000.92 2.70252 2.14611 0
M  V30 10983 C 1000.03 3.93007 1.79358 0
M  V30 10984 C 999.164 4.38376 3 0
M  V30 10985 C 998.203 5.53761 2.60796 0
M  V30 10986 N 997.34 5.94058 3.74219 0
M  V30 10987 H 1002.18 2.95243 0.404452 0
M  V30 10988 H 999.717 1.45894 0.187982 0
M  V30 10989 H 1001.67 3.01497 2.88367 0
M  V30 10990 H 1000.3 1.90868 2.60326 0
M  V30 10991 H 999.357 3.68181 0.956384 0
M  V30 10992 H 1000.67 4.76795 1.4652 0
M  V30 10993 H 999.823 4.71317 3.82027 0
M  V30 10994 H 998.562 3.53455 3.36037 0
M  V30 10995 H 997.567 5.20464 1.77192 0
M  V30 10996 H 998.792 6.40419 2.25922 0
M  V30 10997 H 996.738 5.12085 4.10005 0
M  V30 10998 H 996.655 6.72602 3.45171 0
M  V30 10999 H 997.923 6.31624 4.56805 0
M  V30 11000 N 1002.15 -0.195058 1.56388 0
M  V30 11001 C 1003.4 -0.9168 1.80894 0
M  V30 11002 C 1003.73 -1.82907 0.652592 0
M  V30 11003 O 1003.01 -1.91382 -0.346853 0
M  V30 11004 C 1003.29 -1.733 3.15657 0
M  V30 11005 C 1003.14 -0.845449 4.41783 0
M  V30 11006 C 1004.46 -2.70557 3.47112 0
M  V30 11007 H 1001.58 -0.331861 0.658056 0
M  V30 11008 H 1004.22 -0.184174 1.89105 0
M  V30 11009 H 1002.37 -2.3576 3.08787 0
M  V30 11010 H 1004.04 -0.235557 4.60698 0
M  V30 11011 H 1002.29 -0.152172 4.33533 0
M  V30 11012 H 1002.96 -1.45152 5.32574 0
M  V30 11013 H 1005.43 -2.1823 3.54281 0
M  V30 11014 H 1004.31 -3.24749 4.42526 0
M  V30 11015 H 1004.57 -3.49605 2.70608 0
M  V30 11016 N 1003.63 -1.50653 -0.462772 0
M  V30 11017 C 1004.88 -1.61296 -1.21105 0
M  V30 11018 C 1005.19 -0.322757 -1.92919 0
M  V30 11019 O 1006.4 -0.308211 -2.69745 0
M  V30 11020 C 1004.85 -2.84752 -2.201 0
M  V30 11021 C 1004.46 -4.20681 -1.54051 0
M  V30 11022 C 1006.21 -3.04744 -2.95518 0
M  V30 11023 C 1004.11 -5.35314 -2.51381 0
M  V30 11024 H 1003.04 -0.60069 -0.455728 0
M  V30 11025 H 1005.69 -1.77093 -0.480656 0
M  V30 11026 H 1004.08 -2.62532 -2.96467 0
M  V30 11027 H 1005.25 -4.53187 -0.834168 0
M  V30 11028 H 1003.56 -4.06361 -0.908828 0
M  V30 11029 H 1006.16 -3.87559 -3.68378 0
M  V30 11030 H 1006.5 -2.16802 -3.55391 0
M  V30 11031 H 1007.04 -3.27185 -2.26263 0
M  V30 11032 H 1003.78 -6.25437 -1.96235 0
M  V30 11033 H 1003.3 -5.07216 -3.20144 0
M  V30 11034 H 1004.98 -5.66229 -3.1304 0
M  V30 11035 N 1005.11 0.71652 -1.4037 0
M  V30 11036 C 1006.52 1.29562 -1.34427 0
M  V30 11037 C 1006.87 1.96192 -0.0173106 0
M  V30 11038 O 1006 1.97488 0.884719 0
M  V30 11039 C 1006.59 2.35601 -2.4347 0
M  V30 11040 C 1005.15 2.89138 -2.4099 0
M  V30 11041 C 1004.3 1.62915 -2.24397 0
M  V30 11042 H 1007.25 0.512715 -1.5019 0
M  V30 11043 H 1007.27 3.16422 -2.11323 0
M  V30 11044 H 1006.78 1.87077 -3.40035 0
M  V30 11045 H 1004.88 3.41894 -1.4812 0
M  V30 11046 H 1004.99 3.40995 -3.3654 0
M  V30 11047 H 1003.36 1.87947 -1.71896 0
M  V30 11048 H 1004.14 1.16417 -3.22958 0
M  V30 11049 N 1006.59 1.25851 0.948643 0
M  V30 11050 C 1007.55 1.0683 2.0278 0
M  V30 11051 C 1008.55 0.0191016 1.60789 0
M  V30 11052 O 1009.74 0.261836 1.72221 0
M  V30 11053 C 1006.87 0.623318 3.35153 0
M  V30 11054 H 1008.06 2.02635 2.21086 0
M  V30 11055 H 1005.62 1.08343 1.12657 0
M  V30 11056 H 1006.35 -0.337053 3.22544 0
M  V30 11057 H 1006.14 1.38082 3.66982 0
M  V30 11058 H 1007.63 0.511854 4.14451 0
M  V30 11059 N 1008.06 -1.15214 1.07534 0
M  V30 11060 C 1009.03 -2.18209 0.701237 0
M  V30 11061 C 1010.03 -1.58693 -0.25946 0
M  V30 11062 O 1011.22 -1.74154 -0.0401744 0
M  V30 11063 C 1008.35 -3.40883 0.0338703 0
M  V30 11064 H 1009.54 -2.5282 1.61314 0
M  V30 11065 H 1007.1 -1.29707 0.872105 0
M  V30 11066 H 1007.83 -3.11843 -0.890187 0
M  V30 11067 H 1007.62 -3.85342 0.72486 0
M  V30 11068 H 1009.11 -4.17056 -0.213152 0
M  V30 11069 N 1009.54 -0.859717 -1.32086 0
M  V30 11070 C 1010.82 -0.386665 -1.9174 0
M  V30 11071 C 1011.2 1.13028 -1.78292 0
M  V30 11072 O 1010.55 1.95422 -1.18417 0
M  V30 11073 C 1010.76 -0.856648 -3.38323 0
M  V30 11074 C 1012.11 -0.87678 -4.15449 0
M  V30 11075 O 1013.13 -0.80162 -3.47063 0
M  V30 11076 O 1011.99 -0.98373 -5.37573 0
M  V30 11077 H 1009.08 -0.113758 -0.819139 0
M  V30 11078 H 1011.63 -0.946952 -1.40822 0
M  V30 11079 H 1010.4 -1.89996 -3.42078 0
M  V30 11080 H 1010.02 -0.274095 -3.96654 0
M  V30 11081 N 1011.02 1.44971 -0.618145 0
M  V30 11082 C 1011.95 2.33357 0.0815955 0
M  V30 11083 C 1012.93 1.47451 0.848072 0
M  V30 11084 O 1014.12 1.762 0.816532 0
M  V30 11085 C 1011.25 3.30324 1.07253 0
M  V30 11086 C 1010.2 4.25948 0.418563 0
M  V30 11087 C 1009.53 5.12685 1.51849 0
M  V30 11088 C 1010.83 5.18024 -0.66697 0
M  V30 11089 H 1012.52 2.92115 -0.656442 0
M  V30 11090 H 1010.07 1.40465 -0.317129 0
M  V30 11091 H 1012.02 3.91033 1.57069 0
M  V30 11092 H 1010.74 2.69748 1.8413 0
M  V30 11093 H 1009.4 3.66553 -0.0588308 0
M  V30 11094 H 1009.05 4.4847 2.2778 0
M  V30 11095 H 1008.75 5.7747 1.08637 0
M  V30 11096 H 1010.27 5.76264 2.01871 0
M  V30 11097 H 1011.69 5.72744 -0.252448 0
M  V30 11098 H 1010.09 5.91343 -1.02146 0
M  V30 11099 H 1011.16 4.59817 -1.53936 0
M  V30 11100 N 1012.5 0.357919 1.53482 0
M  V30 11101 C 1013.72 -0.237769 2.06033 0
M  V30 11102 C 1014.15 -1.42292 1.23023 0
M  V30 11103 O 1013.51 -1.79604 0.247427 0
M  V30 11104 C 1013.55 -0.616806 3.55286 0
M  V30 11105 O 1012.66 -1.71503 3.75047 0
M  V30 11106 H 1012 -0.0364322 0.663 0
M  V30 11107 H 1014.53 0.516301 1.97979 0
M  V30 11108 H 1014.54 -0.88996 3.98175 0
M  V30 11109 H 1013.21 0.249825 4.15149 0
M  V30 11110 H 1011.79 -1.43803 3.44057 0
M  V30 11111 N 1013.98 -1.5736 0.0868897 0
M  V30 11112 C 1014.91 -2.10582 -0.904858 0
M  V30 11113 C 1015.92 -1.04124 -1.25148 0
M  V30 11114 O 1017.11 -1.31595 -1.20603 0
M  V30 11115 C 1014.21 -2.56381 -2.21635 0
M  V30 11116 C 1013.38 -3.86581 -2.04631 0
M  V30 11117 C 1012.44 -4.18313 -3.19219 0
M  V30 11118 O 1011.47 -4.87669 -2.93544 0
M  V30 11119 N 1012.67 -3.73061 -4.44754 0
M  V30 11120 H 1015.44 -2.96297 -0.450352 0
M  V30 11121 H 1013 -1.616 -0.0984376 0
M  V30 11122 H 1014.99 -2.7466 -2.97227 0
M  V30 11123 H 1013.56 -1.75721 -2.58536 0
M  V30 11124 H 1012.78 -3.77532 -1.13417 0
M  V30 11125 H 1014.07 -4.71777 -1.90537 0
M  V30 11126 H 1013.46 -3.1706 -4.68497 0
M  V30 11127 H 1012.02 -3.96511 -5.17322 0
M  V30 11128 N 1015.45 0.186762 -1.56489 0
M  V30 11129 C 1016.39 1.25565 -1.91745 0
M  V30 11130 C 1017.4 1.4128 -0.80894 0
M  V30 11131 O 1018.59 1.41558 -1.08737 0
M  V30 11132 C 1015.69 2.62662 -2.14154 0
M  V30 11133 C 1014.86 2.68448 -3.45333 0
M  V30 11134 C 1013.92 3.86798 -3.56754 0
M  V30 11135 O 1012.95 3.73514 -4.29507 0
M  V30 11136 N 1014.15 5.02607 -2.90459 0
M  V30 11137 H 1016.91 0.956351 -2.84032 0
M  V30 11138 H 1014.47 0.376631 -1.57458 0
M  V30 11139 H 1016.47 3.40277 -2.19075 0
M  V30 11140 H 1015.04 2.85046 -1.28326 0
M  V30 11141 H 1014.26 1.77044 -3.52206 0
M  V30 11142 H 1015.54 2.69311 -4.31682 0
M  V30 11143 H 1014.94 5.163 -2.31194 0
M  V30 11144 H 1013.5 5.78139 -3.00996 0
M  V30 11145 N 1016.93 1.50896 0.454776 0
M  V30 11146 C 1018.18 1.61936 1.20248 0
M  V30 11147 C 1018.49 0.332983 1.92745 0
M  V30 11148 O 1019.7 0.322512 2.69578 0
M  V30 11149 C 1018.16 2.85916 2.18587 0
M  V30 11150 C 1017.76 4.21492 1.51818 0
M  V30 11151 C 1019.51 3.06307 2.93898 0
M  V30 11152 C 1017.42 5.3664 2.48539 0
M  V30 11153 H 1016.35 0.603098 0.452536 0
M  V30 11154 H 1019 1.77345 0.471257 0
M  V30 11155 H 1017.38 2.64101 2.95071 0
M  V30 11156 H 1018.55 4.53623 0.810123 0
M  V30 11157 H 1016.87 4.06837 0.887265 0
M  V30 11158 H 1019.46 3.89507 3.66317 0
M  V30 11159 H 1019.81 2.18683 3.54236 0
M  V30 11160 H 1020.34 3.2838 2.24525 0
M  V30 11161 H 1017.08 6.26469 1.92916 0
M  V30 11162 H 1016.6 5.08907 3.17449 0
M  V30 11163 H 1018.28 5.67881 3.10033 0
M  V30 11164 N 1018.41 -0.709066 1.40748 0
M  V30 11165 C 1019.64 -1.50313 1.42901 0
M  V30 11166 C 1020.06 -1.88072 0.032213 0
M  V30 11167 O 1019.42 -1.53716 -0.96131 0
M  V30 11168 C 1019.47 -2.75074 2.33166 0
M  V30 11169 O 1018.57 -3.72036 1.7794 0
M  V30 11170 H 1017.91 -0.452934 0.485538 0
M  V30 11171 H 1020.44 -0.872712 1.85054 0
M  V30 11172 H 1020.45 -3.23532 2.48578 0
M  V30 11173 H 1019.13 -2.46927 3.34664 0
M  V30 11174 H 1017.7 -3.30911 1.71908 0
M  V30 11175 N 1019.89 -1.26353 -0.941956 0
M  V30 11176 C 1021.12 -1.14626 -1.72245 0
M  V30 11177 C 1021.53 0.298588 -1.86424 0
M  V30 11178 O 1020.89 1.2045 -1.37106 0
M  V30 11179 C 1020.94 -1.80933 -3.12963 0
M  V30 11180 O 1020.66 -3.19771 -2.99463 0
M  V30 11181 C 1022.16 -1.7515 -4.07231 0
M  V30 11182 H 1019.38 -0.3992 -0.539333 0
M  V30 11183 H 1021.93 -1.66958 -1.1809 0
M  V30 11184 H 1020.08 -1.32541 -3.64021 0
M  V30 11185 H 1020.5 -3.52571 -3.88322 0
M  V30 11186 H 1021.97 -2.26183 -5.03533 0
M  V30 11187 H 1022.45 -0.717855 -4.33294 0
M  V30 11188 H 1023.05 -2.2309 -3.62093 0
M  V30 11189 N 1021.37 1.14642 -1.08144 0
M  V30 11190 C 1022.33 2.17834 -0.712799 0
M  V30 11191 C 1023.33 1.58828 0.251041 0
M  V30 11192 O 1024.52 1.74173 0.0309381 0
M  V30 11193 C 1021.65 3.4086 -0.0519477 0
M  V30 11194 H 1022.85 2.51961 -1.62653 0
M  V30 11195 H 1020.4 1.29243 -0.878971 0
M  V30 11196 H 1021.13 3.12311 0.873636 0
M  V30 11197 H 1020.92 3.84952 -0.745286 0
M  V30 11198 H 1022.41 4.17163 0.191031 0
M  V30 11199 N 1022.85 0.866709 1.31628 0
M  V30 11200 C 1024.09 0.475086 1.96437 0
M  V30 11201 C 1024.41 -0.975179 1.68865 0
M  V30 11202 O 1023.68 -1.68317 1.0023 0
M  V30 11203 H 1022.26 0.172695 0.726764 0
M  V30 11204 H 1024.93 1.10578 1.60494 0
M  V30 11205 H 1024.02 0.630123 3.05673 0
M  V30 11206 N 1024.32 -1.44642 0.625825 0
M  V30 11207 C 1025.55 -2.06458 0.135116 0
M  V30 11208 C 1025.97 -1.46729 -1.18811 0
M  V30 11209 O 1025.32 -0.58818 -1.72762 0
M  V30 11210 C 1025.37 -3.61499 0.00850114 0
M  V30 11211 O 1025.1 -4.19002 1.2794 0
M  V30 11212 C 1026.6 -4.40339 -0.511527 0
M  V30 11213 H 1023.82 -0.666541 0.0772294 0
M  V30 11214 H 1026.36 -1.85597 0.858726 0
M  V30 11215 H 1024.52 -3.81641 -0.665522 0
M  V30 11216 H 1024.93 -5.12385 1.12081 0
M  V30 11217 H 1026.4 -5.49262 -0.549149 0
M  V30 11218 H 1026.88 -4.11409 -1.53752 0
M  V30 11219 H 1027.49 -4.25104 0.129066 0
M  V30 11220 N 1025.8 -0.366053 -1.5329 0
M  V30 11221 C 1026.71 0.488111 -2.29466 0
M  V30 11222 C 1027.73 1.09219 -1.35452 0
M  V30 11223 O 1028.9 1.10303 -1.68509 0
M  V30 11224 C 1025.97 1.61202 -3.06944 0
M  V30 11225 C 1025.03 1.03543 -4.16626 0
M  V30 11226 C 1024.26 2.10578 -4.904 0
M  V30 11227 O 1024.49 3.31697 -4.6404 0
M  V30 11228 O 1023.42 1.73609 -5.76319 0
M  V30 11229 H 1027.25 -0.131789 -3.03414 0
M  V30 11230 H 1024.83 -0.130421 -1.4883 0
M  V30 11231 H 1026.71 2.26546 -3.55324 0
M  V30 11232 H 1025.39 2.21732 -2.35832 0
M  V30 11233 H 1024.29 0.345892 -3.72498 0
M  V30 11234 H 1025.63 0.474687 -4.89906 0
M  V30 11235 N 1027.28 1.57312 -0.0952337 0
M  V30 11236 C 1028.24 2.12889 0.849161 0
M  V30 11237 C 1029.24 1.05819 1.21075 0
M  V30 11238 O 1030.43 1.31704 1.14016 0
M  V30 11239 C 1027.56 2.6496 2.14498 0
M  V30 11240 H 1028.76 2.97651 0.366566 0
M  V30 11241 H 1026.31 1.55542 0.153762 0
M  V30 11242 H 1027.05 1.83718 2.67242 0
M  V30 11243 H 1026.83 3.43244 1.89542 0
M  V30 11244 H 1028.32 3.07952 2.82056 0
M  V30 11245 N 1028.76 -0.17846 1.56586 0
M  V30 11246 C 1029.98 -0.916061 1.86073 0
M  V30 11247 C 1030.41 -1.75349 0.680754 0
M  V30 11248 O 1029.77 -1.77479 -0.37028 0
M  V30 11249 C 1029.81 -1.77445 3.1392 0
M  V30 11250 O 1028.92 -2.87524 2.95641 0
M  V30 11251 H 1028.26 -0.257031 0.612234 0
M  V30 11252 H 1030.79 -0.178755 2.03818 0
M  V30 11253 H 1030.8 -2.1758 3.45142 0
M  V30 11254 H 1029.47 -1.15927 3.99417 0
M  V30 11255 H 1028.05 -2.51023 2.75757 0
M  V30 11256 N 1030.24 -1.51135 -0.446768 0
M  V30 11257 C 1031.48 -1.63013 -1.19461 0
M  V30 11258 C 1031.8 -0.344067 -1.91941 0
M  V30 11259 O 1031.07 0.639666 -1.85162 0
M  V30 11260 H 1029.65 -0.600757 -0.443959 0
M  V30 11261 H 1032.32 -1.88024 -0.513137 0
M  V30 11262 H 1031.41 -2.45322 -1.92933 0
M  V30 11263 N 1031.71 0.701592 -1.41122 0
M  V30 11264 C 1032.94 1.49049 -1.43499 0
M  V30 11265 C 1033.36 1.88761 -0.0385684 0
M  V30 11266 O 1032.71 1.56384 0.940755 0
M  V30 11267 C 1032.76 2.7569 -2.33832 0
M  V30 11268 O 1032.49 2.37653 -3.68039 0
M  V30 11269 C 1033.99 3.69479 -2.44949 0
M  V30 11270 H 1031.21 0.459519 -0.488961 0
M  V30 11271 H 1033.75 0.864318 -1.85337 0
M  V30 11272 H 1031.91 3.34559 -1.95318 0
M  V30 11273 H 1032.32 3.19241 -4.16156 0
M  V30 11274 H 1033.79 4.55139 -3.12334 0
M  V30 11275 H 1034.27 4.13553 -1.47887 0
M  V30 11276 H 1034.88 3.16517 -2.84072 0
M  V30 11277 N 1033.19 1.2685 0.935242 0
M  V30 11278 C 1034.44 1.12522 1.67878 0
M  V30 11279 C 1034.76 -0.330894 1.92172 0
M  V30 11280 O 1034.03 -1.23259 1.52263 0
M  V30 11281 H 1032.61 0.413418 0.622169 0
M  V30 11282 H 1035.27 1.59267 1.12339 0
M  V30 11283 H 1034.37 1.64853 2.65009 0
M  V30 11284 N 1034.67 -1.14067 1.0875 0
M  V30 11285 C 1035.62 -2.21332 0.715195 0
M  V30 11286 C 1036.61 -1.67059 -0.280679 0
M  V30 11287 O 1037.82 -1.79432 -0.142874 0
M  V30 11288 H 1034.19 -0.721126 0.213264 0
M  V30 11289 H 1036.16 -2.50002 1.62916 0
M  V30 11290 C 1034.91 -3.474 0.144401 0
M  V30 11291 H 1034.24 -3.89495 0.901884 0
M  V30 11292 H 1035.68 -4.23928 -0.0782564 0
M  V30 11293 C 1034.14 -3.17787 -1.11862 0
M  V30 11294 O 1034.67 -3.35906 -2.20295 0
M  V30 11295 N 1032.87 -2.71719 -1.03039 0
M  V30 11296 H 1032.42 -2.57175 -0.14793 0
M  V30 11297 H 1032.38 -2.52281 -1.87621 0
M  V30 11298 N 1036.15 -0.873678 -1.31166 0
M  V30 11299 C 1037.08 -0.276805 -2.26515 0
M  V30 11300 C 1038.06 0.596166 -1.51277 0
M  V30 11301 O 1039.24 0.548769 -1.80335 0
M  V30 11302 C 1036.37 0.607711 -3.33203 0
M  V30 11303 C 1035.42 -0.194411 -4.26057 0
M  V30 11304 S 1036.25 -1.57534 -5.11804 0
M  V30 11305 C 1037.41 -0.697047 -6.22006 0
M  V30 11306 H 1037.64 -1.08505 -2.76792 0
M  V30 11307 H 1035.17 -0.672419 -1.38989 0
M  V30 11308 H 1037.13 1.11234 -3.95142 0
M  V30 11309 H 1035.79 1.38994 -2.81673 0
M  V30 11310 H 1034.98 0.480094 -5.01708 0
M  V30 11311 H 1034.59 -0.631262 -3.68634 0
M  V30 11312 H 1036.88 0.0907919 -6.77439 0
M  V30 11313 H 1037.82 -1.42481 -6.93617 0
M  V30 11314 H 1038.23 -0.262954 -5.63887 0
M  V30 11315 N 1037.63 1.44308 -0.633487 0
M  V30 11316 C 1038.57 2.30694 0.0700257 0
M  V30 11317 C 1039.54 1.43618 0.834447 0
M  V30 11318 O 1040.73 1.72517 0.815014 0
M  V30 11319 C 1037.87 3.28929 1.04403 0
M  V30 11320 C 1036.98 4.31106 0.277779 0
M  V30 11321 C 1036.12 5.16433 1.24381 0
M  V30 11322 C 1035.16 6.10317 0.466855 0
M  V30 11323 N 1034.29 6.88335 1.38347 0
M  V30 11324 H 1039.13 2.90311 -0.672567 0
M  V30 11325 H 1036.67 1.43034 -0.343449 0
M  V30 11326 H 1038.63 3.84373 1.62214 0
M  V30 11327 H 1037.26 2.71006 1.75372 0
M  V30 11328 H 1036.31 3.78115 -0.416292 0
M  V30 11329 H 1037.62 4.97725 -0.327251 0
M  V30 11330 H 1036.78 5.76406 1.89318 0
M  V30 11331 H 1035.51 4.49893 1.88276 0
M  V30 11332 H 1034.52 5.49451 -0.195989 0
M  V30 11333 H 1035.74 6.78894 -0.167414 0
M  V30 11334 H 1033.69 6.24461 2.00959 0
M  V30 11335 H 1033.61 7.51402 0.832517 0
M  V30 11336 H 1034.88 7.52829 2.0216 0
M  V30 11337 N 1039.1 0.374177 1.53094 0
M  V30 11338 C 1040.35 -0.212816 2.01379 0
M  V30 11339 C 1040.68 -1.48069 1.26118 0
M  V30 11340 O 1039.93 -1.92625 0.345561 0
M  V30 11341 C 1040.23 -0.542179 3.53264 0
M  V30 11342 C 1039.9 0.632375 4.46444 0
M  V30 11343 C 1038.56 0.954635 4.71636 0
M  V30 11344 C 1040.91 1.41887 5.01515 0
M  V30 11345 C 1038.24 2.06521 5.4915 0
M  V30 11346 C 1040.59 2.51993 5.80243 0
M  V30 11347 C 1039.26 2.84744 6.03719 0
M  V30 11348 H 1038.53 -0.0778749 0.736897 0
M  V30 11349 H 1041.17 0.508412 1.84628 0
M  V30 11350 H 1039.48 -1.34454 3.68007 0
M  V30 11351 H 1041.18 -1.00874 3.88105 0
M  V30 11352 H 1037.77 0.371179 4.2699 0
M  V30 11353 H 1041.95 1.18315 4.81991 0
M  V30 11354 H 1037.21 2.32284 5.65557 0
M  V30 11355 H 1041.38 3.13346 6.21922 0
M  V30 11356 H 1039.01 3.70921 6.63568 0
M  V30 11357 N 1040.58 -1.57259 0.103575 0
M  V30 11358 C 1041.52 -2.10165 -0.889141 0
M  V30 11359 C 1042.49 -1.01426 -1.27089 0
M  V30 11360 O 1043.68 -1.2898 -1.37465 0
M  V30 11361 C 1040.8 -2.58564 -2.18774 0
M  V30 11362 C 1039.85 -3.79043 -1.95522 0
M  V30 11363 S 1040.68 -5.22213 -1.18551 0
M  V30 11364 C 1041.84 -5.73968 -2.49623 0
M  V30 11365 H 1042.07 -2.9404 -0.439083 0
M  V30 11366 H 1039.61 -1.54008 -0.10989 0
M  V30 11367 H 1041.56 -2.87106 -2.93395 0
M  V30 11368 H 1040.22 -1.749 -2.609 0
M  V30 11369 H 1039.42 -4.11004 -2.91705 0
M  V30 11370 H 1039.02 -3.51038 -1.29028 0
M  V30 11371 H 1041.31 -5.82752 -3.45553 0
M  V30 11372 H 1042.25 -6.72324 -2.22229 0
M  V30 11373 H 1042.66 -5.01946 -2.58284 0
M  V30 11374 N 1042.06 0.170153 -1.56679 0
M  V30 11375 C 1042.99 1.21285 -1.9953 0
M  V30 11376 C 1043.97 1.46104 -0.871071 0
M  V30 11377 O 1045.16 1.57419 -1.13724 0
M  V30 11378 C 1042.29 2.5515 -2.35618 0
M  V30 11379 C 1041.24 2.44898 -3.51011 0
M  V30 11380 C 1040.57 3.83263 -3.72845 0
M  V30 11381 C 1041.87 1.95271 -4.84424 0
M  V30 11382 H 1043.56 0.856646 -2.86883 0
M  V30 11383 H 1041.11 0.410634 -1.38021 0
M  V30 11384 H 1043.06 3.28299 -2.64193 0
M  V30 11385 H 1041.78 2.92561 -1.45175 0
M  V30 11386 H 1040.44 1.74203 -3.22566 0
M  V30 11387 H 1040.09 4.18069 -2.79691 0
M  V30 11388 H 1039.79 3.77272 -4.50488 0
M  V30 11389 H 1041.31 4.57996 -4.03822 0
M  V30 11390 H 1042.73 2.58195 -5.11867 0
M  V30 11391 H 1041.13 2.00225 -5.65712 0
M  V30 11392 H 1042.2 0.90709 -4.7634 0
M  V30 11393 N 1043.54 1.5137 0.438746 0
M  V30 11394 C 1044.49 1.73154 1.55308 0
M  V30 11395 C 1045.48 0.597825 1.58501 0
M  V30 11396 O 1046.69 0.77917 1.62262 0
M  V30 11397 H 1043.06 0.547083 0.51595 0
M  V30 11398 H 1045.03 2.66566 1.34108 0
M  V30 11399 C 1043.78 1.87242 2.92977 0
M  V30 11400 H 1043.1 2.73884 2.91252 0
M  V30 11401 H 1044.54 2.06497 3.70317 0
M  V30 11402 C 1043 0.631887 3.30921 0
M  V30 11403 O 1043.53 -0.214099 4.01129 0
M  V30 11404 N 1041.74 0.47639 2.86669 0
M  V30 11405 H 1041.29 1.16589 2.29706 0
M  V30 11406 H 1041.24 -0.352403 3.12419 0
M  V30 11407 N 1045.02 -0.694098 1.41492 0
M  V30 11408 C 1046.26 -1.45127 1.4065 0
M  V30 11409 C 1046.59 -1.94993 0.0170289 0
M  V30 11410 O 1045.86 -1.71799 -0.941372 0
M  V30 11411 H 1044.44 -0.538493 0.51772 0
M  V30 11412 H 1047.1 -0.821441 1.76744 0
M  V30 11413 H 1046.19 -2.31372 2.0946 0
M  V30 11414 N 1046.49 -1.27344 -0.928501 0
M  V30 11415 C 1047.46 -1.10043 -2.01055 0
M  V30 11416 C 1048.46 -0.0446793 -1.60738 0
M  V30 11417 O 1049.65 -0.289202 -1.71783 0
M  V30 11418 C 1046.78 -0.676559 -3.34119 0
M  V30 11419 H 1047.97 -2.06126 -2.17835 0
M  V30 11420 H 1045.53 -1.10121 -1.10919 0
M  V30 11421 H 1046.26 0.285697 -3.23039 0
M  V30 11422 H 1046.05 -1.43903 -3.64739 0
M  V30 11423 H 1047.54 -0.577725 -4.13584 0
M  V30 11424 N 1047.97 1.13488 -1.09353 0
M  V30 11425 C 1048.9 2.20988 -0.75409 0
M  V30 11426 C 1049.88 1.67977 0.267901 0
M  V30 11427 O 1051.07 1.93722 0.136128 0
M  V30 11428 C 1048.2 3.46869 -0.173042 0
M  V30 11429 C 1047.15 4.12965 -1.12446 0
M  V30 11430 C 1046.48 5.33163 -0.405157 0
M  V30 11431 C 1047.78 4.60388 -2.46658 0
M  V30 11432 H 1049.47 2.49639 -1.6529 0
M  V30 11433 H 1047.02 1.19987 -0.796182 0
M  V30 11434 H 1048.97 4.21331 0.0764988 0
M  V30 11435 H 1047.7 3.17611 0.760956 0
M  V30 11436 H 1046.35 3.40469 -1.35927 0
M  V30 11437 H 1046 5.00169 0.532955 0
M  V30 11438 H 1045.7 5.78332 -1.03952 0
M  V30 11439 H 1047.23 6.1038 -0.163899 0
M  V30 11440 H 1048.64 5.26276 -2.27389 0
M  V30 11441 H 1047.04 5.16294 -3.05876 0
M  V30 11442 H 1048.11 3.74949 -3.07476 0
M  V30 11443 N 1049.45 0.880621 1.30701 0
M  V30 11444 C 1050.68 0.511682 2.00473 0
M  V30 11445 C 1051.09 -0.898684 1.6604 0
M  V30 11446 O 1050.45 -1.59035 0.895218 0
M  V30 11447 C 1050.5 0.671723 3.55204 0
M  V30 11448 O 1050.22 2.02656 3.8841 0
M  V30 11449 C 1051.72 0.3052 4.42248 0
M  V30 11450 H 1048.94 0.198231 0.64105 0
M  V30 11451 H 1051.49 1.18472 1.66687 0
M  V30 11452 H 1049.64 0.0461066 3.87373 0
M  V30 11453 H 1050.06 2.04202 4.83117 0
M  V30 11454 H 1051.53 0.468095 5.50012 0
M  V30 11455 H 1052.01 -0.756456 4.32637 0
M  V30 11456 H 1052.61 0.906959 4.15517 0
M  V30 11457 N 1050.93 -1.4397 0.641131 0
M  V30 11458 C 1052.18 -2.01163 0.147026 0
M  V30 11459 C 1052.49 -1.51099 -1.24211 0
M  V30 11460 O 1053.7 -2.00487 -1.83078 0
M  V30 11461 C 1052.15 -3.59275 0.212068 0
M  V30 11462 C 1051.76 -4.18334 1.60314 0
M  V30 11463 C 1053.51 -4.23903 -0.225057 0
M  V30 11464 C 1051.41 -5.68701 1.62276 0
M  V30 11465 H 1050.34 -0.75226 0.051201 0
M  V30 11466 H 1052.99 -1.65075 0.801396 0
M  V30 11467 H 1051.38 -3.92708 -0.509589 0
M  V30 11468 H 1052.55 -3.96422 2.34918 0
M  V30 11469 H 1050.86 -3.66031 1.9852 0
M  V30 11470 H 1053.46 -5.34205 -0.230074 0
M  V30 11471 H 1053.8 -3.96956 -1.25426 0
M  V30 11472 H 1054.34 -3.95309 0.44444 0
M  V30 11473 H 1051.08 -6.00397 2.63066 0
M  V30 11474 H 1050.6 -5.92705 0.919797 0
M  V30 11475 H 1052.28 -6.32521 1.36112 0
M  V30 11476 N 1052.41 -0.382291 -1.52893 0
M  V30 11477 C 1053.66 0.201734 -2.01091 0
M  V30 11478 C 1053.98 1.47905 -1.2708 0
M  V30 11479 O 1053.25 1.92002 -0.38883 0
M  V30 11480 H 1051.83 0.0775373 -0.742965 0
M  V30 11481 H 1054.49 -0.512369 -1.88045 0
M  V30 11482 H 1053.58 0.416919 -3.09303 0
M  V30 11483 N 1053.89 1.57202 -0.111913 0
M  V30 11484 C 1055.11 1.99297 0.555713 0
M  V30 11485 C 1055.53 0.991444 1.60673 0
M  V30 11486 O 1054.89 -0.0166672 1.82492 0
M  V30 11487 C 1054.94 3.41413 1.18826 0
M  V30 11488 O 1054.66 4.37733 0.179261 0
M  V30 11489 C 1056.16 3.98602 1.93989 0
M  V30 11490 H 1053.38 0.654543 0.147695 0
M  V30 11491 H 1055.92 2.03557 -0.196163 0
M  V30 11492 H 1054.08 3.38115 1.89096 0
M  V30 11493 H 1054.49 5.20606 0.637935 0
M  V30 11494 H 1055.97 5.00143 2.33584 0
M  V30 11495 H 1056.44 3.37349 2.81233 0
M  V30 11496 H 1057.05 4.05424 1.28497 0
M  V30 11497 N 1055.36 -0.161842 1.56767 0
M  V30 11498 C 1056.3 -1.22927 1.9226 0
M  V30 11499 C 1057.27 -1.42309 0.786562 0
M  V30 11500 O 1058.46 -1.57163 1.04078 0
M  V30 11501 C 1055.59 -2.59069 2.18177 0
M  V30 11502 C 1054.63 -2.56368 3.40849 0
M  V30 11503 S 1055.46 -2.04518 4.94907 0
M  V30 11504 C 1056.62 -3.42418 5.23928 0
M  V30 11505 H 1056.85 -0.926377 2.82499 0
M  V30 11506 H 1054.39 -0.366822 1.49979 0
M  V30 11507 H 1056.34 -3.37421 2.33789 0
M  V30 11508 H 1055.01 -2.86554 1.28629 0
M  V30 11509 H 1054.2 -3.56551 3.56213 0
M  V30 11510 H 1053.8 -1.86116 3.24402 0
M  V30 11511 H 1056.09 -4.38461 5.16486 0
M  V30 11512 H 1057.04 -3.3192 6.25487 0
M  V30 11513 H 1057.44 -3.38868 4.51474 0
M  V30 11514 N 1056.84 -1.516 -0.430713 0
M  V30 11515 C 1058.12 -1.55142 -1.19123 0
M  V30 11516 C 1058.5 -0.319596 -2.08667 0
M  V30 11517 O 1057.85 0.694927 -2.17676 0
M  V30 11518 C 1058.06 -2.86891 -1.98732 0
M  V30 11519 C 1059.4 -3.39089 -2.55546 0
M  V30 11520 O 1060.43 -2.88486 -2.08936 0
M  V30 11521 O 1059.29 -4.27401 -3.40574 0
M  V30 11522 H 1056.38 -0.624019 -0.542705 0
M  V30 11523 H 1058.93 -1.63917 -0.439244 0
M  V30 11524 H 1057.7 -3.68002 -1.33005 0
M  V30 11525 H 1057.32 -2.81309 -2.80982 0
M  V30 11526 N 1058.32 0.686584 -1.41858 0
M  V30 11527 C 1059.57 1.44379 -1.41418 0
M  V30 11528 C 1059.89 1.94981 -0.0273696 0
M  V30 11529 O 1059.16 1.72296 0.932248 0
M  V30 11530 H 1057.74 0.53574 -0.520568 0
M  V30 11531 H 1060.4 0.812056 -1.77177 0
M  V30 11532 H 1059.5 2.30258 -2.10684 0
M  V30 11533 N 1059.8 1.27835 0.921735 0
M  V30 11534 C 1060.76 1.11108 2.00469 0
M  V30 11535 C 1061.76 0.053203 1.60712 0
M  V30 11536 O 1062.95 0.298308 1.71627 0
M  V30 11537 C 1060.08 0.694269 3.33755 0
M  V30 11538 H 1061.28 2.07279 2.16738 0
M  V30 11539 H 1058.83 1.10708 1.10333 0
M  V30 11540 H 1059.56 -0.268561 3.23186 0
M  V30 11541 H 1059.35 1.45836 3.6397 0
M  V30 11542 H 1060.84 0.59965 4.13272 0
M  V30 11543 N 1061.28 -1.12907 1.09954 0
M  V30 11544 C 1062.22 -2.20561 0.73863 0
M  V30 11545 C 1063.22 -1.67347 -0.262944 0
M  V30 11546 O 1064.42 -1.79574 -0.123834 0
M  V30 11547 H 1060.8 -0.718823 0.220901 0
M  V30 11548 H 1062.77 -2.4826 1.65559 0
M  V30 11549 C 1061.52 -3.47227 0.181239 0
M  V30 11550 H 1060.84 -3.88516 0.943144 0
M  V30 11551 H 1062.28 -4.23987 -0.0332888 0
M  V30 11552 C 1060.74 -3.18956 -1.08485 0
M  V30 11553 O 1061.27 -3.38224 -2.1672 0
M  V30 11554 N 1059.48 -2.72797 -1.00151 0
M  V30 11555 H 1059.02 -2.57317 -0.120645 0
M  V30 11556 H 1058.98 -2.54256 -1.84935 0
M  V30 11557 N 1062.75 -0.88754 -1.30232 0
M  V30 11558 C 1064 -0.508031 -1.96334 0
M  V30 11559 C 1064.33 0.940905 -1.69884 0
M  V30 11560 O 1063.61 1.66523 -1.005 0
M  V30 11561 C 1063.89 -0.786566 -3.51405 0
M  V30 11562 C 1063.74 -2.28632 -3.8736 0
M  V30 11563 C 1065.06 -0.264803 -4.39303 0
M  V30 11564 H 1062.18 -0.186051 -0.71313 0
M  V30 11565 H 1064.82 -1.112 -1.5406 0
M  V30 11566 H 1062.97 -0.272523 -3.87543 0
M  V30 11567 H 1064.65 -2.86896 -3.61231 0
M  V30 11568 H 1062.89 -2.75194 -3.35337 0
M  V30 11569 H 1063.56 -2.43181 -4.95547 0
M  V30 11570 H 1066.04 -0.704809 -4.10087 0
M  V30 11571 H 1064.91 -0.488998 -5.46717 0
M  V30 11572 H 1065.17 0.834055 -4.34161 0
M  V30 11573 N 1064.23 1.43628 -0.648757 0
M  V30 11574 C 1065.14 2.34554 0.0463037 0
M  V30 11575 C 1066.16 1.53629 0.816952 0
M  V30 11576 O 1067.33 1.86297 0.765212 0
M  V30 11577 C 1064.4 3.3185 1.00381 0
M  V30 11578 C 1063.46 4.2868 0.230589 0
M  V30 11579 C 1062.69 5.21328 1.14249 0
M  V30 11580 O 1062.92 5.18298 2.38166 0
M  V30 11581 O 1061.85 5.98726 0.617296 0
M  V30 11582 H 1065.68 2.95475 -0.702008 0
M  V30 11583 H 1063.26 1.43694 -0.408942 0
M  V30 11584 H 1065.14 3.91692 1.5542 0
M  V30 11585 H 1063.82 2.73439 1.73243 0
M  V30 11586 H 1062.73 3.72332 -0.363282 0
M  V30 11587 H 1064.06 4.90061 -0.458368 0
M  V30 11588 N 1065.71 0.390394 1.52688 0
M  V30 11589 C 1066.64 -0.48838 2.22913 0
M  V30 11590 C 1067.62 -1.06319 1.23025 0
M  V30 11591 O 1068.81 -1.11462 1.52015 0
M  V30 11592 C 1065.93 -1.67612 2.9432 0
M  V30 11593 C 1064.98 -1.22646 4.08485 0
M  V30 11594 S 1065.81 -0.207092 5.35099 0
M  V30 11595 C 1066.97 -1.40058 6.10028 0
M  V30 11596 H 1067.2 0.107949 2.97104 0
M  V30 11597 H 1064.73 0.174588 1.5341 0
M  V30 11598 H 1066.69 -2.35728 3.36069 0
M  V30 11599 H 1065.35 -2.24375 2.19806 0
M  V30 11600 H 1064.55 -2.11331 4.57554 0
M  V30 11601 H 1064.15 -0.624197 3.68754 0
M  V30 11602 H 1066.44 -2.32747 6.36266 0
M  V30 11603 H 1067.38 -0.950804 7.01687 0
M  V30 11604 H 1067.79 -1.61789 5.40818 0
M  V30 11605 N 1067.19 -1.57141 0.120249 0
M  V30 11606 C 1068.15 -2.14213 -0.815185 0
M  V30 11607 C 1069.15 -1.07731 -1.19376 0
M  V30 11608 O 1070.34 -1.33502 -1.11906 0
M  V30 11609 C 1067.47 -2.68339 -2.10255 0
M  V30 11610 H 1068.67 -2.98197 -0.319166 0
M  V30 11611 H 1066.22 -1.55767 -0.128997 0
M  V30 11612 H 1066.95 -1.87946 -2.64285 0
M  V30 11613 H 1066.74 -3.46216 -1.84057 0
M  V30 11614 H 1068.23 -3.124 -2.77121 0
M  V30 11615 N 1068.67 0.153526 -1.5685 0
M  V30 11616 C 1069.58 1.20932 -2.01029 0
M  V30 11617 C 1070.59 1.47401 -0.924598 0
M  V30 11618 O 1071.77 1.592 -1.23359 0
M  V30 11619 C 1068.83 2.52438 -2.37647 0
M  V30 11620 C 1067.89 2.33673 -3.60132 0
M  V30 11621 C 1067.13 3.58909 -3.94994 0
M  V30 11622 O 1067.35 4.64823 -3.30599 0
M  V30 11623 O 1066.28 3.5196 -4.8827 0
M  V30 11624 H 1070.11 0.864273 -2.91143 0
M  V30 11625 H 1067.7 0.361755 -1.44954 0
M  V30 11626 H 1069.58 3.29981 -2.62088 0
M  V30 11627 H 1068.25 2.86486 -1.5069 0
M  V30 11628 H 1067.16 1.54102 -3.40886 0
M  V30 11629 H 1068.49 2.04544 -4.47686 0
M  V30 11630 N 1070.14 1.51827 0.422667 0
M  V30 11631 C 1071.05 1.77066 1.53899 0
M  V30 11632 C 1072.07 0.655541 1.61179 0
M  V30 11633 O 1073.25 0.939448 1.78147 0
M  V30 11634 C 1070.31 1.90372 2.89758 0
M  V30 11635 C 1069.37 3.14256 2.92475 0
M  V30 11636 C 1068.61 3.26918 4.21853 0
M  V30 11637 O 1068.83 2.45164 5.15025 0
M  V30 11638 O 1067.76 4.19989 4.31153 0
M  V30 11639 H 1071.59 2.71791 1.35511 0
M  V30 11640 H 1069.17 1.36506 0.607165 0
M  V30 11641 H 1071.06 2.01024 3.70361 0
M  V30 11642 H 1069.73 0.988347 3.08242 0
M  V30 11643 H 1068.64 3.09072 2.10773 0
M  V30 11644 H 1069.97 4.0553 2.78937 0
M  V30 11645 N 1071.62 -0.679052 1.4222 0
M  V30 11646 C 1072.59 -1.77448 1.45069 0
M  V30 11647 C 1073.59 -1.57189 0.338882 0
M  V30 11648 O 1074.78 -1.63559 0.599519 0
M  V30 11649 C 1071.91 -3.1603 1.27819 0
M  V30 11650 H 1073.1 -1.7631 2.426 0
M  V30 11651 H 1070.65 -0.888277 1.28605 0
M  V30 11652 H 1071.39 -3.22796 0.311946 0
M  V30 11653 H 1071.17 -3.32138 2.08391 0
M  V30 11654 H 1072.66 -3.9596 1.32686 0
M  V30 11655 N 1073.1 -1.28322 -0.914942 0
M  V30 11656 C 1074.35 -1.15179 -1.66067 0
M  V30 11657 C 1074.67 0.300279 -1.92674 0
M  V30 11658 O 1073.94 1.20821 -1.54205 0
M  V30 11659 H 1072.52 -0.423264 -0.615513 0
M  V30 11660 H 1075.18 -1.61034 -1.09791 0
M  V30 11661 H 1074.28 -1.69048 -2.62353 0
M  V30 11662 N 1074.58 1.12322 -1.10551 0
M  V30 11663 C 1075.54 2.16273 -0.758844 0
M  V30 11664 C 1076.54 1.59325 0.217294 0
M  V30 11665 O 1077.73 1.74199 -0.00601346 0
M  V30 11666 C 1074.86 3.40674 -0.124238 0
M  V30 11667 H 1076.06 2.48454 -1.6796 0
M  V30 11668 H 1073.61 1.2735 -0.906188 0
M  V30 11669 H 1074.34 3.14094 0.807194 0
M  V30 11670 H 1074.13 3.83284 -0.826772 0
M  V30 11671 H 1075.62 4.17474 0.102502 0
M  V30 11672 N 1076.06 0.894434 1.2976 0
M  V30 11673 C 1076.97 0.372622 2.31622 0
M  V30 11674 C 1077.98 -0.52996 1.65733 0
M  V30 11675 O 1079.16 -0.420807 1.96955 0
M  V30 11676 C 1076.22 -0.396076 3.4443 0
M  V30 11677 C 1075.28 0.537394 4.25923 0
M  V30 11678 C 1074.52 -0.194713 5.33345 0
M  V30 11679 O 1074.74 -1.41943 5.52457 0
M  V30 11680 O 1073.67 0.460055 6.00139 0
M  V30 11681 H 1077.5 1.21756 2.78225 0
M  V30 11682 H 1075.09 0.65858 1.34101 0
M  V30 11683 H 1076.97 -0.830962 4.13126 0
M  V30 11684 H 1075.64 -1.21716 2.99945 0
M  V30 11685 H 1074.55 1.02129 3.5989 0
M  V30 11686 H 1075.88 1.32475 4.74037 0
M  V30 11687 N 1077.53 -1.43282 0.656365 0
M  V30 11688 C 1078.48 -2.32556 -0.0452037 0
M  V30 11689 C 1079.48 -1.48789 -0.80982 0
M  V30 11690 O 1080.68 -1.64979 -0.719865 0
M  V30 11691 H 1077.06 -0.751258 -0.0334043 0
M  V30 11692 H 1079.03 -2.89448 0.725423 0
M  V30 11693 C 1077.78 -3.33138 -0.995706 0
M  V30 11694 H 1077.1 -3.97622 -0.416774 0
M  V30 11695 H 1078.54 -3.98231 -1.45562 0
M  V30 11696 C 1077 -2.63978 -2.09325 0
M  V30 11697 O 1077.53 -2.45769 -3.17743 0
M  V30 11698 N 1075.74 -2.23301 -1.8597 0
M  V30 11699 H 1075.28 -2.38312 -0.97802 0
M  V30 11700 H 1075.24 -1.77358 -2.59599 0
M  V30 11701 N 1079.01 -0.398486 -1.52479 0
M  V30 11702 C 1079.94 0.423498 -2.29627 0
M  V30 11703 C 1080.92 1.05547 -1.33394 0
M  V30 11704 O 1082.11 1.0665 -1.62294 0
M  V30 11705 C 1079.24 1.54612 -3.10986 0
M  V30 11706 C 1078.19 1.03971 -4.15179 0
M  V30 11707 C 1077.52 2.25512 -4.84818 0
M  V30 11708 C 1078.82 0.10121 -5.22202 0
M  V30 11709 H 1080.51 -0.220222 -2.98589 0
M  V30 11710 H 1078.06 -0.107355 -1.43599 0
M  V30 11711 H 1080.01 2.12806 -3.63719 0
M  V30 11712 H 1078.74 2.21756 -2.39774 0
M  V30 11713 H 1077.4 0.480251 -3.63441 0
M  V30 11714 H 1077.04 2.91187 -4.10145 0
M  V30 11715 H 1076.74 1.92285 -5.55248 0
M  V30 11716 H 1078.27 2.84331 -5.40359 0
M  V30 11717 H 1079.68 0.591617 -5.70239 0
M  V30 11718 H 1078.08 -0.141737 -5.99933 0
M  V30 11719 H 1079.15 -0.847216 -4.77441 0
M  V30 11720 N 1080.49 1.57075 -0.12858 0
M  V30 11721 C 1081.74 1.9552 0.527087 0
M  V30 11722 C 1082.07 1.01243 1.66072 0
M  V30 11723 O 1081.32 0.0381076 1.95663 0
M  V30 11724 C 1081.62 3.40329 1.09138 0
M  V30 11725 C 1081.29 4.50832 0.0781039 0
M  V30 11726 C 1079.95 4.80782 -0.200493 0
M  V30 11727 C 1082.3 5.17595 -0.61192 0
M  V30 11728 C 1079.63 5.74809 -1.17524 0
M  V30 11729 C 1081.98 6.12671 -1.57536 0
M  V30 11730 C 1080.64 6.41008 -1.86184 0
M  V30 11731 H 1079.91 0.715458 0.192875 0
M  V30 11732 H 1082.56 1.90328 -0.211515 0
M  V30 11733 H 1080.87 3.42262 1.90694 0
M  V30 11734 H 1082.56 3.67393 1.60696 0
M  V30 11735 H 1079.15 4.2751 0.30543 0
M  V30 11736 H 1083.34 4.94605 -0.40986 0
M  V30 11737 H 1078.59 5.95065 -1.40384 0
M  V30 11738 H 1082.77 6.63486 -2.11565 0
M  V30 11739 H 1080.39 7.13673 -2.61868 0
M  V30 11740 N 1081.97 -0.145205 1.5693 0
M  V30 11741 C 1083.22 -0.855955 1.82637 0
M  V30 11742 C 1083.53 -1.82255 0.710109 0
M  V30 11743 O 1084.74 -2.57758 0.852837 0
M  V30 11744 C 1083.19 -1.57278 3.23715 0
M  V30 11745 C 1082.8 -0.648507 4.43281 0
M  V30 11746 C 1084.55 -2.27021 3.58695 0
M  V30 11747 C 1082.45 -1.36706 5.75383 0
M  V30 11748 H 1081.38 -0.323385 0.68113 0
M  V30 11749 H 1084.03 -0.10869 1.83178 0
M  V30 11750 H 1082.42 -2.36574 3.17567 0
M  V30 11751 H 1083.59 0.109355 4.6067 0
M  V30 11752 H 1081.9 -0.0594029 4.16358 0
M  V30 11753 H 1084.5 -2.81423 4.54648 0
M  V30 11754 H 1084.84 -3.03598 2.8484 0
M  V30 11755 H 1085.38 -1.54642 3.66512 0
M  V30 11756 H 1082.12 -0.6431 6.52338 0
M  V30 11757 H 1081.64 -2.09759 5.61926 0
M  V30 11758 H 1083.32 -1.90748 6.18243 0
M  V30 11759 N 1083.45 -1.52049 -0.414609 0
M  V30 11760 C 1084.69 -1.65838 -1.16206 0
M  V30 11761 C 1085.02 -0.385623 -1.90639 0
M  V30 11762 O 1084.28 0.631214 -1.85241 0
M  V30 11763 C 1084.58 -2.82735 -2.18622 0
M  V30 11764 C 1084.24 -4.21163 -1.61037 0
M  V30 11765 C 1082.9 -4.58816 -1.45056 0
M  V30 11766 C 1085.26 -5.0745 -1.18928 0
M  V30 11767 C 1082.58 -5.8044 -0.854761 0
M  V30 11768 C 1084.94 -6.29674 -0.607686 0
M  V30 11769 C 1083.6 -6.66081 -0.434968 0
M  V30 11770 H 1082.87 -0.606845 -0.425229 0
M  V30 11771 H 1085.52 -1.86137 -0.450009 0
M  V30 11772 H 1083.82 -2.56749 -2.95952 0
M  V30 11773 H 1085.52 -2.90601 -2.76319 0
M  V30 11774 H 1082.11 -3.91488 -1.74457 0
M  V30 11775 H 1086.29 -4.78948 -1.30086 0
M  V30 11776 H 1081.55 -6.07276 -0.70891 0
M  V30 11777 H 1085.72 -6.95865 -0.272988 0
M  V30 11778 H 1083.35 -7.60195 0.0288116 0
M  V30 11779 N 1084.93 0.6715 -1.42579 0
M  V30 11780 C 1086.17 1.42871 -1.42941 0
M  V30 11781 C 1086.49 1.94941 -0.0480483 0
M  V30 11782 O 1085.76 1.73275 0.913921 0
M  V30 11783 H 1084.34 0.530189 -0.526221 0
M  V30 11784 H 1087.01 0.793219 -1.78028 0
M  V30 11785 H 1086.1 2.2801 -2.13114 0
M  V30 11786 N 1086.4 1.28806 0.908124 0
M  V30 11787 C 1087.33 1.15758 2.02787 0
M  V30 11788 C 1088.31 0.053911 1.70015 0
M  V30 11789 O 1089.5 0.231901 1.9281 0
M  V30 11790 C 1086.63 0.824526 3.37371 0
M  V30 11791 C 1085.58 1.88359 3.84324 0
M  V30 11792 C 1084.91 1.40404 5.15937 0
M  V30 11793 C 1086.21 3.29108 4.05568 0
M  V30 11794 H 1087.9 2.09431 2.13961 0
M  V30 11795 H 1085.45 1.00831 1.02806 0
M  V30 11796 H 1087.4 0.71999 4.15204 0
M  V30 11797 H 1086.13 -0.147902 3.26265 0
M  V30 11798 H 1084.79 1.97736 3.087 0
M  V30 11799 H 1084.43 0.420515 5.01239 0
M  V30 11800 H 1084.13 2.11224 5.48323 0
M  V30 11801 H 1085.66 1.31283 5.9632 0
M  V30 11802 H 1087.07 3.2262 4.73909 0
M  V30 11803 H 1085.47 3.97812 4.49294 0
M  V30 11804 H 1086.54 3.72709 3.10187 0
M  V30 11805 N 1087.88 -1.11734 1.11145 0
M  V30 11806 C 1089.3 -1.35412 0.844736 0
M  V30 11807 C 1089.5 -1.94347 -0.532111 0
M  V30 11808 O 1088.55 -2.17443 -1.28353 0
M  V30 11809 C 1089.87 -2.28869 1.95037 0
M  V30 11810 C 1091.41 -2.42442 1.97967 0
M  V30 11811 C 1091.89 -3.39219 3.07725 0
M  V30 11812 N 1093.38 -3.4678 3.07079 0
M  V30 11813 C 1094.12 -4.21595 3.88646 0
M  V30 11814 N 1093.61 -4.99411 4.80167 0
M  V30 11815 N 1095.4 -4.17075 3.76835 0
M  V30 11816 H 1087.56 -0.718412 1.99881 0
M  V30 11817 H 1089.82 -0.378787 0.869037 0
M  V30 11818 H 1089.52 -1.92752 2.94176 0
M  V30 11819 H 1089.4 -3.2906 1.84389 0
M  V30 11820 H 1091.79 -2.77835 0.994561 0
M  V30 11821 H 1091.87 -1.42113 2.12691 0
M  V30 11822 H 1091.51 -3.04553 4.0646 0
M  V30 11823 H 1091.44 -4.39394 2.90242 0
M  V30 11824 H 1093.93 -2.91272 2.40767 0
M  V30 11825 H 1094.24 -5.53856 5.38946 0
M  V30 11826 H 1092.59 -4.98582 4.84191 0
M  V30 11827 H 1095.78 -3.55369 3.04681 0
M  V30 11828 H 1095.95 -4.75125 4.40637 0
M  V30 11829 N 1089.36 -0.901303 -1.29284 0
M  V30 11830 C 1090.61 -0.528826 -1.95784 0
M  V30 11831 C 1090.94 0.922833 -1.70873 0
M  V30 11832 O 1090.21 1.65448 -1.0226 0
M  V30 11833 C 1090.5 -0.823793 -3.50551 0
M  V30 11834 C 1090.35 -2.32727 -3.84913 0
M  V30 11835 C 1091.67 -0.311382 -4.38997 0
M  V30 11836 H 1088.79 -0.193604 -0.711116 0
M  V30 11837 H 1091.43 -1.12828 -1.52872 0
M  V30 11838 H 1089.58 -0.313612 -3.87232 0
M  V30 11839 H 1091.25 -2.90712 -3.58168 0
M  V30 11840 H 1089.49 -2.78735 -3.32399 0
M  V30 11841 H 1090.17 -2.48423 -4.9294 0
M  V30 11842 H 1092.64 -0.748265 -4.09317 0
M  V30 11843 H 1091.52 -0.546957 -5.46168 0
M  V30 11844 H 1091.78 0.787959 -4.35021 0
M  V30 11845 N 1090.84 1.42931 -0.663954 0
M  V30 11846 C 1091.75 2.3459 0.0214234 0
M  V30 11847 C 1092.76 1.54487 0.800611 0
M  V30 11848 O 1093.94 1.87098 0.74541 0
M  V30 11849 C 1091 3.32896 0.968556 0
M  V30 11850 C 1090.07 4.28901 0.185108 0
M  V30 11851 C 1089.3 5.2251 1.08713 0
M  V30 11852 O 1089.52 5.20795 2.32655 0
M  V30 11853 O 1088.46 5.99347 0.553758 0
M  V30 11854 H 1092.28 2.94714 -0.733308 0
M  V30 11855 H 1089.87 1.43252 -0.424159 0
M  V30 11856 H 1091.75 3.93318 1.51257 0
M  V30 11857 H 1090.42 2.75261 1.70333 0
M  V30 11858 H 1089.33 3.71926 -0.402752 0
M  V30 11859 H 1090.66 4.89547 -0.510319 0
M  V30 11860 N 1092.32 0.406567 1.52266 0
M  V30 11861 C 1093.59 -0.228477 1.94261 0
M  V30 11862 C 1093.97 -1.62848 1.34328 0
M  V30 11863 O 1093.32 -2.22549 0.518082 0
M  V30 11864 C 1093.53 -0.237401 3.48192 0
M  V30 11865 C 1094.88 -0.457997 4.22123 0
M  V30 11866 O 1095.9 -0.316868 3.54788 0
M  V30 11867 O 1094.76 -0.735946 5.41522 0
M  V30 11868 H 1091.86 -0.146492 0.813922 0
M  V30 11869 H 1094.4 0.462325 1.63281 0
M  V30 11870 H 1093.17 0.742556 3.8419 0
M  V30 11871 H 1092.8 -0.972408 3.85526 0
M  V30 11872 N 1093.79 -1.57004 0.136909 0
M  V30 11873 C 1095.04 -1.96087 -0.517477 0
M  V30 11874 C 1095.37 -1.0213 -1.65176 0
M  V30 11875 O 1094.65 -0.0617958 -1.94402 0
M  V30 11876 C 1094.93 -3.44958 -1.03323 0
M  V30 11877 C 1094.78 -4.49691 0.0988609 0
M  V30 11878 C 1096.1 -3.96091 -1.91832 0
M  V30 11879 H 1093.22 -0.712978 -0.186632 0
M  V30 11880 H 1095.86 -1.88767 0.216095 0
M  V30 11881 H 1094.01 -3.51327 -1.65836 0
M  V30 11882 H 1095.69 -4.55409 0.734847 0
M  V30 11883 H 1093.93 -4.271 0.75947 0
M  V30 11884 H 1094.6 -5.51165 -0.303554 0
M  V30 11885 H 1097.08 -3.92139 -1.39164 0
M  V30 11886 H 1095.95 -5.00742 -2.24831 0
M  V30 11887 H 1096.21 -3.37846 -2.85153 0
M  V30 11888 N 1095.27 0.136881 -1.57004 0
M  V30 11889 C 1096.18 1.18793 -2.023 0
M  V30 11890 C 1097.2 1.46412 -0.94018 0
M  V30 11891 O 1098.37 1.57883 -1.2504 0
M  V30 11892 C 1095.44 2.49903 -2.40311 0
M  V30 11893 C 1094.5 2.29841 -3.6259 0
M  V30 11894 C 1093.73 3.54699 -3.98779 0
M  V30 11895 O 1093.96 4.61291 -3.3551 0
M  V30 11896 O 1092.89 3.46761 -4.91976 0
M  V30 11897 H 1096.72 0.833345 -2.92043 0
M  V30 11898 H 1094.3 0.346361 -1.4533 0
M  V30 11899 H 1096.18 3.27183 -2.65574 0
M  V30 11900 H 1094.86 2.84872 -1.5372 0
M  V30 11901 H 1093.77 1.50478 -3.42501 0
M  V30 11902 H 1095.1 1.99784 -4.4983 0
M  V30 11903 N 1096.75 1.52266 0.40654 0
M  V30 11904 C 1097.71 1.75168 1.47814 0
M  V30 11905 C 1098.71 0.621575 1.48301 0
M  V30 11906 O 1099.9 0.889476 1.4978 0
M  V30 11907 C 1097.04 1.83642 2.87208 0
M  V30 11908 H 1098.23 2.70834 1.28798 0
M  V30 11909 H 1095.78 1.42722 0.637196 0
M  V30 11910 H 1096.52 0.898994 3.1159 0
M  V30 11911 H 1096.3 2.65801 2.88257 0
M  V30 11912 H 1097.79 2.03093 3.64888 0
M  V30 11913 N 1098.23 -0.663929 1.42933 0
M  V30 11914 C 1099.16 -1.78899 1.50058 0
M  V30 11915 C 1100.14 -1.66329 0.356164 0
M  V30 11916 O 1101.32 -1.85587 0.571944 0
M  V30 11917 C 1098.45 -3.17265 1.41281 0
M  V30 11918 C 1097.41 -3.44584 2.53861 0
M  V30 11919 C 1096.73 -4.82638 2.3014 0
M  V30 11920 C 1098.03 -3.40394 3.96143 0
M  V30 11921 H 1099.73 -1.73194 2.44222 0
M  V30 11922 H 1097.27 -0.83182 1.17545 0
M  V30 11923 H 1099.23 -3.95715 1.44872 0
M  V30 11924 H 1097.95 -3.23675 0.43616 0
M  V30 11925 H 1096.61 -2.685 2.49606 0
M  V30 11926 H 1096.26 -4.85711 1.30743 0
M  V30 11927 H 1095.96 -5.01879 3.056 0
M  V30 11928 H 1097.48 -5.63359 2.35497 0
M  V30 11929 H 1098.9 -4.08796 4.01943 0
M  V30 11930 H 1097.29 -3.7117 4.71543 0
M  V30 11931 H 1098.36 -2.38767 4.22041 0
M  V30 11932 N 1099.71 -1.29285 -0.901281 0
M  V30 11933 C 1100.98 -1.07847 -1.63182 0
M  V30 11934 C 1101.36 0.377927 -2.07689 0
M  V30 11935 O 1100.71 1.36642 -1.83143 0
M  V30 11936 C 1100.92 -2.06457 -2.81383 0
M  V30 11937 C 1102.27 -2.37289 -3.52107 0
M  V30 11938 O 1103.29 -2.0464 -2.91549 0
M  V30 11939 O 1102.15 -2.93067 -4.61274 0
M  V30 11940 H 1099.25 -0.413073 -0.71645 0
M  V30 11941 H 1101.79 -1.40651 -0.949488 0
M  V30 11942 H 1100.56 -3.04561 -2.4568 0
M  V30 11943 H 1100.19 -1.74374 -3.57323 0
M  V30 11944 N 1101.18 1.11143 -1.11736 0
M  V30 11945 C 1102.6 1.34962 -0.851905 0
M  V30 11946 C 1102.8 1.94627 0.521797 0
M  V30 11947 O 1101.86 2.18121 1.27198 0
M  V30 11948 C 1103.17 2.27832 -1.96248 0
M  V30 11949 C 1104.72 2.41388 -1.9925 0
M  V30 11950 C 1105.19 3.37582 -3.09519 0
M  V30 11951 N 1106.68 3.45147 -3.08914 0
M  V30 11952 C 1107.42 4.19527 -3.90876 0
M  V30 11953 N 1106.91 4.96858 -4.82809 0
M  V30 11954 N 1108.71 4.15071 -3.79042 0
M  V30 11955 H 1100.86 0.707801 -2.0026 0
M  V30 11956 H 1103.12 0.374172 -0.871033 0
M  V30 11957 H 1102.83 1.91189 -2.95194 0
M  V30 11958 H 1102.7 3.28078 -1.86132 0
M  V30 11959 H 1105.09 2.77304 -1.00928 0
M  V30 11960 H 1105.17 1.40983 -2.13442 0
M  V30 11961 H 1104.81 3.02393 -4.0807 0
M  V30 11962 H 1104.74 4.37849 -2.92568 0
M  V30 11963 H 1107.23 2.89991 -2.42309 0
M  V30 11964 H 1107.55 5.5099 -5.41876 0
M  V30 11965 H 1105.89 4.96008 -4.86828 0
M  V30 11966 H 1109.08 3.53748 -3.06562 0
M  V30 11967 H 1109.26 4.72781 -4.4315 0
M  V30 11968 N 1102.66 0.908147 1.28804 0
M  V30 11969 C 1103.61 0.390734 2.27468 0
M  V30 11970 C 1104.58 -0.531765 1.57358 0
M  V30 11971 O 1105.76 -0.455177 1.85291 0
M  V30 11972 C 1102.9 -0.368159 3.43131 0
M  V30 11973 C 1102.02 0.586202 4.28004 0
M  V30 11974 C 1101.15 -0.190581 5.30858 0
M  V30 11975 C 1100.19 0.757758 6.07391 0
M  V30 11976 N 1099.33 0.0148488 7.02098 0
M  V30 11977 H 1104.17 1.23717 2.71105 0
M  V30 11978 H 1101.71 0.621382 1.33331 0
M  V30 11979 H 1103.66 -0.824289 4.08976 0
M  V30 11980 H 1102.29 -1.17898 3.00499 0
M  V30 11981 H 1101.35 1.16086 3.62254 0
M  V30 11982 H 1102.66 1.31177 4.81242 0
M  V30 11983 H 1101.81 -0.707528 6.0256 0
M  V30 11984 H 1100.55 -0.949234 4.78373 0
M  V30 11985 H 1099.56 1.28613 5.34545 0
M  V30 11986 H 1100.78 1.51588 6.61965 0
M  V30 11987 H 1098.73 -0.725916 6.51971 0
M  V30 11988 H 1098.64 0.680347 7.52932 0
M  V30 11989 H 1099.91 -0.482086 7.78008 0
M  V30 11990 N 1104.14 -1.42577 0.671525 0
M  V30 11991 C 1105.39 -2.01185 0.192051 0
M  V30 11992 C 1105.71 -1.53349 -1.20454 0
M  V30 11993 O 1104.98 -0.753781 -1.80817 0
M  V30 11994 H 1103.56 -0.743898 0.0680106 0
M  V30 11995 H 1106.22 -1.74539 0.8673 0
M  V30 11996 H 1105.32 -3.11516 0.190796 0
M  V30 11997 N 1105.62 -0.414636 -1.52048 0
M  V30 11998 C 1106.85 0.158456 -2.05991 0
M  V30 11999 C 1107.26 1.38947 -1.28415 0
M  V30 12000 O 1106.6 1.80698 -0.330728 0
M  V30 12001 C 1106.66 0.568392 -3.54978 0
M  V30 12002 C 1106.33 -0.552654 -4.53646 0
M  V30 12003 C 1107.32 -1.41791 -5.00191 0
M  V30 12004 C 1105.01 -0.726917 -4.97012 0
M  V30 12005 C 1107 -2.44234 -5.88752 0
M  V30 12006 C 1104.69 -1.75464 -5.85368 0
M  V30 12007 C 1105.69 -2.61075 -6.31133 0
M  V30 12008 O 1105.37 -3.62087 -7.17738 0
M  V30 12009 H 1105.11 0.0214746 -0.675659 0
M  V30 12010 H 1107.66 -0.585825 -1.96869 0
M  V30 12011 H 1105.89 1.36504 -3.61806 0
M  V30 12012 H 1107.58 1.07003 -3.91542 0
M  V30 12013 H 1108.35 -1.29471 -4.67399 0
M  V30 12014 H 1104.22 -0.0701964 -4.60947 0
M  V30 12015 H 1107.77 -3.1109 -6.24395 0
M  V30 12016 H 1103.67 -1.87813 -6.17573 0
M  V30 12017 H 1104.43 -3.58396 -7.35863 0
M  V30 12018 N 1107.1 1.56929 -0.145233 0
M  V30 12019 C 1108.04 2.17958 0.812237 0
M  V30 12020 C 1109.04 1.13608 1.25657 0
M  V30 12021 O 1110.24 1.31861 1.22526 0
M  V30 12022 H 1106.62 0.697876 0.28013 0
M  V30 12023 H 1108.59 2.97146 0.273297 0
M  V30 12024 C 1107.34 2.81418 2.04203 0
M  V30 12025 H 1106.66 3.61427 1.70911 0
M  V30 12026 H 1108.1 3.27624 2.69144 0
M  V30 12027 C 1106.56 1.79835 2.84888 0
M  V30 12028 O 1107.09 1.26773 3.81171 0
M  V30 12029 N 1105.3 1.49179 2.49387 0
M  V30 12030 H 1104.84 1.9252 1.71154 0
M  V30 12031 H 1104.8 0.81458 3.03664 0
M  V30 12032 N 1108.58 -0.128553 1.57075 0
M  V30 12033 C 1109.54 -1.14215 1.98715 0
M  V30 12034 C 1110.54 -1.34843 0.876019 0
M  V30 12035 O 1111.73 -1.31522 1.14227 0
M  V30 12036 C 1108.86 -2.49865 2.31905 0
M  V30 12037 H 1110.05 -0.784481 2.89458 0
M  V30 12038 H 1107.61 -0.372531 1.51796 0
M  V30 12039 H 1108.34 -2.9057 1.44012 0
M  V30 12040 H 1108.13 -2.3625 3.12935 0
M  V30 12041 H 1109.62 -3.22832 2.64895 0
M  V30 12042 N 1110.05 -1.5248 -0.398459 0
M  V30 12043 C 1111.47 -1.4152 -0.737854 0
M  V30 12044 C 1111.67 -0.528122 -1.94456 0
M  V30 12045 O 1110.73 0.00203799 -2.525 0
M  V30 12046 C 1112.04 -2.8422 -0.9818 0
M  V30 12047 C 1113.59 -2.93635 -1.08386 0
M  V30 12048 C 1114.06 -4.37327 -1.3605 0
M  V30 12049 N 1115.55 -4.40609 -1.42892 0
M  V30 12050 C 1116.29 -5.48863 -1.65944 0
M  V30 12051 N 1115.78 -6.67217 -1.86529 0
M  V30 12052 N 1117.58 -5.36393 -1.68046 0
M  V30 12053 H 1109.73 -2.08681 0.395705 0
M  V30 12054 H 1111.99 -0.941023 0.114801 0
M  V30 12055 H 1111.7 -3.51302 -0.167358 0
M  V30 12056 H 1111.57 -3.25907 -1.89907 0
M  V30 12057 H 1113.96 -2.26728 -1.88888 0
M  V30 12058 H 1114.04 -2.5539 -0.144714 0
M  V30 12059 H 1113.68 -5.04797 -0.56061 0
M  V30 12060 H 1113.61 -4.73116 -2.31233 0
M  V30 12061 H 1116.1 -3.55298 -1.2873 0
M  V30 12062 H 1116.42 -7.45498 -2.03599 0
M  V30 12063 H 1114.76 -6.70263 -1.83773 0
M  V30 12064 H 1117.95 -4.42903 -1.51509 0
M  V30 12065 H 1118.13 -6.2083 -1.85672 0
M  V30 12066 N 1111.53 0.65634 -1.43283 0
M  V30 12067 C 1112.44 1.79847 -1.50639 0
M  V30 12068 C 1113.46 1.69487 -0.393714 0
M  V30 12069 O 1114.63 1.90712 -0.647379 0
M  V30 12070 C 1111.7 3.16107 -1.42398 0
M  V30 12071 C 1110.76 3.38287 -2.64312 0
M  V30 12072 C 1109.99 4.68046 -2.56454 0
M  V30 12073 O 1110.22 5.4719 -1.61056 0
M  V30 12074 O 1109.15 4.91877 -3.46902 0
M  V30 12075 H 1112.98 1.76596 -2.47078 0
M  V30 12076 H 1110.56 0.814428 -1.25249 0
M  V30 12077 H 1112.44 3.97382 -1.40233 0
M  V30 12078 H 1111.12 3.19956 -0.490929 0
M  V30 12079 H 1110.02 2.56788 -2.72049 0
M  V30 12080 H 1111.36 3.39282 -3.56579 0
M  V30 12081 N 1113.01 1.29761 0.894412 0
M  V30 12082 C 1114.24 1.20765 1.67629 0
M  V30 12083 C 1114.65 -0.233434 1.87754 0
M  V30 12084 O 1113.99 -1.16747 1.4183 0
M  V30 12085 C 1114.05 1.85542 3.07919 0
M  V30 12086 C 1113.72 3.34852 3.11004 0
M  V30 12087 C 1114.71 4.30994 2.90758 0
M  V30 12088 C 1112.4 3.76141 3.32901 0
M  V30 12089 C 1114.39 5.664 2.92352 0
M  V30 12090 C 1112.08 5.11667 3.34126 0
M  V30 12091 C 1113.08 6.06607 3.13874 0
M  V30 12092 O 1112.77 7.39659 3.14897 0
M  V30 12093 H 1112.5 0.419418 0.530155 0
M  V30 12094 H 1115.05 1.71754 1.12648 0
M  V30 12095 H 1113.28 1.29071 3.64524 0
M  V30 12096 H 1114.97 1.70795 3.68217 0
M  V30 12097 H 1115.74 4.00427 2.73648 0
M  V30 12098 H 1111.62 3.02694 3.47703 0
M  V30 12099 H 1115.16 6.40479 2.76464 0
M  V30 12100 H 1111.06 5.41877 3.50769 0
M  V30 12101 H 1111.82 7.4853 3.31127 0
M  V30 12102 N 1114.49 -1.10549 1.12324 0
M  V30 12103 C 1115.72 -1.86 0.899312 0
M  V30 12104 C 1116.13 -1.80881 -0.554854 0
M  V30 12105 O 1115.47 -1.19485 -1.39531 0
M  V30 12106 C 1115.53 -3.35384 1.29452 0
M  V30 12107 C 1115.19 -3.64263 2.75974 0
M  V30 12108 C 1116.19 -3.60962 3.74169 0
M  V30 12109 C 1113.88 -3.92976 3.1285 0
M  V30 12110 C 1115.87 -3.85966 5.07256 0
M  V30 12111 C 1113.56 -4.17637 4.4612 0
M  V30 12112 C 1114.56 -4.14122 5.43132 0
M  V30 12113 O 1114.24 -4.38156 6.73999 0
M  V30 12114 H 1113.98 -0.594743 0.321337 0
M  V30 12115 H 1116.53 -1.40674 1.49667 0
M  V30 12116 H 1114.76 -3.81361 0.640358 0
M  V30 12117 H 1116.45 -3.9222 1.04491 0
M  V30 12118 H 1117.21 -3.38819 3.47025 0
M  V30 12119 H 1113.09 -3.94843 2.3795 0
M  V30 12120 H 1116.64 -3.83138 5.82967 0
M  V30 12121 H 1112.53 -4.39258 4.72993 0
M  V30 12122 H 1113.3 -4.55677 6.79927 0
M  V30 12123 N 1115.97 -0.914965 -1.28321 0
M  V30 12124 C 1117.24 -0.46764 -1.89928 0
M  V30 12125 C 1117.62 1.05364 -1.82925 0
M  V30 12126 O 1116.97 1.90223 -1.26599 0
M  V30 12127 C 1117.18 -0.999372 -3.34385 0
M  V30 12128 C 1118.53 -1.0522 -4.11356 0
M  V30 12129 O 1119.55 -0.9481 -3.4335 0
M  V30 12130 O 1118.41 -1.21085 -5.32917 0
M  V30 12131 H 1115.51 -0.148398 -0.813577 0
M  V30 12132 H 1118.05 -1.00583 -1.36679 0
M  V30 12133 H 1116.82 -2.04333 -3.33712 0
M  V30 12134 H 1116.45 -0.442083 -3.95135 0
M  V30 12135 N 1117.44 1.42219 -0.679077 0
M  V30 12136 C 1118.39 2.27992 0.0194379 0
M  V30 12137 C 1119.38 1.41317 0.769313 0
M  V30 12138 O 1120.57 1.64731 0.647521 0
M  V30 12139 C 1117.7 3.29401 0.966945 0
M  V30 12140 C 1116.78 4.23559 0.214187 0
M  V30 12141 N 1117.18 4.99699 -0.783226 0
M  V30 12142 C 1115.47 4.43703 0.452026 0
M  V30 12143 C 1116.17 5.68496 -1.23237 0
M  V30 12144 N 1115.15 5.40692 -0.561484 0
M  V30 12145 H 1118.95 2.84287 -0.745542 0
M  V30 12146 H 1116.47 1.54234 -0.508504 0
M  V30 12147 H 1118.46 3.89655 1.48238 0
M  V30 12148 H 1117.12 2.74667 1.7317 0
M  V30 12149 H 1118.13 5.04675 -1.16291 0
M  V30 12150 H 1114.81 4.00004 1.19595 0
M  V30 12151 H 1116.2 6.3957 -2.05912 0
M  V30 12152 N 1118.92 0.422693 1.51826 0
M  V30 12153 C 1119.85 -0.386913 2.30272 0
M  V30 12154 C 1120.83 -1.03411 1.35056 0
M  V30 12155 O 1122.02 -1.04055 1.6397 0
M  V30 12156 C 1119.15 -1.49645 3.13407 0
M  V30 12157 C 1118.1 -0.973532 4.16781 0
M  V30 12158 C 1117.43 -2.1777 4.88344 0
M  V30 12159 C 1118.73 -0.0181194 5.22297 0
M  V30 12160 H 1120.42 0.267697 2.98201 0
M  V30 12161 H 1117.97 0.130186 1.4341 0
M  V30 12162 H 1119.92 -2.06993 3.67059 0
M  V30 12163 H 1118.64 -2.17914 2.43272 0
M  V30 12164 H 1117.3 -0.42237 3.64159 0
M  V30 12165 H 1116.95 -2.84625 4.14726 0
M  V30 12166 H 1116.65 -1.83427 5.58237 0
M  V30 12167 H 1118.18 -2.75699 5.44814 0
M  V30 12168 H 1119.59 -0.500822 5.71108 0
M  V30 12169 H 1117.99 0.237163 5.99631 0
M  V30 12170 H 1119.06 0.923065 4.76033 0
M  V30 12171 N 1120.4 -1.5685 0.153553 0
M  V30 12172 C 1121.81 -1.83074 -0.36618 0
M  V30 12173 C 1122.16 -1.07257 -1.64288 0
M  V30 12174 O 1121.29 -0.319925 -2.14022 0
M  V30 12175 C 1121.88 -3.32086 -0.671142 0
M  V30 12176 C 1120.44 -3.58868 -1.13537 0
M  V30 12177 C 1119.59 -2.76827 -0.161887 0
M  V30 12178 H 1122.54 -1.54129 0.378139 0
M  V30 12179 H 1122.56 -3.48598 -1.52512 0
M  V30 12180 H 1122.07 -3.8724 0.258234 0
M  V30 12181 H 1120.17 -3.09107 -2.08047 0
M  V30 12182 H 1120.29 -4.67299 -1.05682 0
M  V30 12183 H 1118.65 -2.46112 -0.6558 0
M  V30 12184 H 1119.43 -3.34755 0.761195 0
M  V30 12185 N 1121.88 0.120221 -1.57141 0
M  V30 12186 C 1122.79 1.16641 -2.03549 0
M  V30 12187 C 1123.8 1.45407 -0.955656 0
M  V30 12188 O 1124.98 1.56547 -1.26708 0
M  V30 12189 C 1122.04 2.4734 -2.42948 0
M  V30 12190 C 1121.11 2.25982 -3.65008 0
M  V30 12191 C 1120.34 3.50449 -4.02518 0
M  V30 12192 O 1120.56 4.57706 -3.40384 0
M  V30 12193 O 1119.5 3.41524 -4.95626 0
M  V30 12194 H 1123.32 0.802323 -2.9291 0
M  V30 12195 H 1120.91 0.330927 -1.45689 0
M  V30 12196 H 1122.79 3.24348 -2.69029 0
M  V30 12197 H 1121.46 2.83225 -1.56733 0
M  V30 12198 H 1120.37 1.46837 -3.44078 0
M  V30 12199 H 1121.7 1.95002 -4.51924 0
M  V30 12200 N 1123.36 1.52689 0.390367 0
M  V30 12201 C 1124.29 1.80338 1.48325 0
M  V30 12202 C 1125.27 0.655338 1.56969 0
M  V30 12203 O 1126.45 0.902792 1.7194 0
M  V30 12204 C 1123.58 1.97101 2.85952 0
M  V30 12205 C 1122.54 3.12783 2.92148 0
M  V30 12206 C 1121.86 3.14798 4.32211 0
M  V30 12207 C 1123.16 4.5188 2.61919 0
M  V30 12208 H 1124.86 2.71857 1.25437 0
M  V30 12209 H 1122.4 1.30813 0.601995 0
M  V30 12210 H 1124.36 2.15027 3.62411 0
M  V30 12211 H 1123.08 1.02271 3.10174 0
M  V30 12212 H 1121.74 2.94638 2.18137 0
M  V30 12213 H 1121.39 2.17653 4.53471 0
M  V30 12214 H 1121.09 3.92507 4.37278 0
M  V30 12215 H 1122.61 3.34877 5.10578 0
M  V30 12216 H 1124.02 4.70134 3.28096 0
M  V30 12217 H 1122.42 5.31647 2.78337 0
M  V30 12218 H 1123.49 4.58689 1.57266 0
M  V30 12219 N 1124.83 -0.648732 1.43629 0
M  V30 12220 C 1125.78 -1.76145 1.49136 0
M  V30 12221 C 1126.75 -1.62569 0.340649 0
M  V30 12222 O 1127.94 -1.82748 0.548435 0
M  V30 12223 C 1125.08 -3.14321 1.42466 0
M  V30 12224 C 1124.19 -3.38999 2.67776 0
M  V30 12225 C 1123.32 -4.67047 2.53062 0
M  V30 12226 C 1122.36 -4.84845 3.7362 0
M  V30 12227 N 1121.5 -6.04155 3.57689 0
M  V30 12228 H 1126.34 -1.70774 2.44213 0
M  V30 12229 H 1123.88 -0.833311 1.2122 0
M  V30 12230 H 1125.84 -3.94206 1.36592 0
M  V30 12231 H 1124.47 -3.18751 0.509666 0
M  V30 12232 H 1123.52 -2.53179 2.83909 0
M  V30 12233 H 1124.83 -3.48035 3.57314 0
M  V30 12234 H 1123.98 -5.55066 2.44922 0
M  V30 12235 H 1122.72 -4.60339 1.61056 0
M  V30 12236 H 1121.73 -3.95261 3.82163 0
M  V30 12237 H 1122.95 -4.9338 4.6664 0
M  V30 12238 H 1120.9 -5.9857 2.6842 0
M  V30 12239 H 1120.82 -6.14169 4.40832 0
M  V30 12240 H 1122.08 -6.94782 3.53409 0
M  V30 12241 N 1126.31 -1.30234 -0.887518 0
M  V30 12242 C 1127.24 -1.12212 -1.99853 0
M  V30 12243 C 1128.26 -0.0660929 -1.62666 0
M  V30 12244 O 1129.45 -0.311853 -1.75755 0
M  V30 12245 C 1126.55 -0.688591 -3.31831 0
M  V30 12246 C 1125.72 -1.82581 -3.97471 0
M  V30 12247 C 1124.78 -1.38126 -5.07748 0
M  V30 12248 O 1123.8 -2.08805 -5.29518 0
M  V30 12249 N 1125.01 -0.258868 -5.79923 0
M  V30 12250 H 1127.77 -2.07901 -2.15864 0
M  V30 12251 H 1125.33 -1.22336 -1.06045 0
M  V30 12252 H 1127.32 -0.374252 -4.02966 0
M  V30 12253 H 1125.89 0.176185 -3.12103 0
M  V30 12254 H 1125.11 -2.3084 -3.19541 0
M  V30 12255 H 1126.4 -2.58798 -4.38065 0
M  V30 12256 H 1125.8 0.330131 -5.64736 0
M  V30 12257 H 1124.36 -0.00396813 -6.518 0
M  V30 12258 N 1127.79 1.09952 -1.12909 0
M  V30 12259 C 1128.75 2.14615 -0.804548 0
M  V30 12260 C 1129.75 1.5975 0.18345 0
M  V30 12261 O 1130.94 1.74147 -0.0429623 0
M  V30 12262 C 1128.08 3.40333 -0.196471 0
M  V30 12263 H 1129.27 2.44835 -1.73193 0
M  V30 12264 H 1126.82 1.25399 -0.932997 0
M  V30 12265 H 1127.56 3.15735 0.740388 0
M  V30 12266 H 1127.34 3.81444 -0.907886 0
M  V30 12267 H 1128.83 4.17598 0.0139264 0
M  V30 12268 N 1129.27 0.921757 1.27833 0
M  V30 12269 C 1130.51 0.559906 1.94918 0
M  V30 12270 C 1130.85 -0.895532 1.72319 0
M  V30 12271 O 1130.12 -1.638 1.04879 0
M  V30 12272 C 1130.41 0.879458 3.49196 0
M  V30 12273 C 1130.26 2.38821 3.81162 0
M  V30 12274 C 1131.58 0.381183 4.38446 0
M  V30 12275 H 1128.7 0.204893 0.707946 0
M  V30 12276 H 1131.34 1.15246 1.51058 0
M  V30 12277 H 1129.49 0.375177 3.86684 0
M  V30 12278 H 1131.16 2.96373 3.53498 0
M  V30 12279 H 1129.4 2.83988 3.27923 0
M  V30 12280 H 1130.07 2.56234 4.88926 0
M  V30 12281 H 1132.55 0.813289 4.08075 0
M  V30 12282 H 1131.43 0.633778 5.45229 0
M  V30 12283 H 1131.69 -0.718651 4.3622 0
M  V30 12284 N 1130.75 -1.41857 0.686609 0
M  V30 12285 C 1132.02 -1.95082 0.142228 0
M  V30 12286 C 1132.4 -1.62646 -1.34572 0
M  V30 12287 O 1131.75 -0.928757 -2.08773 0
M  V30 12288 C 1131.96 -3.46415 0.423955 0
M  V30 12289 C 1133.31 -4.23181 0.346842 0
M  V30 12290 O 1134.33 -3.54393 0.358363 0
M  V30 12291 O 1133.19 -5.4568 0.299211 0
M  V30 12292 H 1130.29 -0.826943 0.00974 0
M  V30 12293 H 1132.83 -1.51622 0.762153 0
M  V30 12294 H 1131.6 -3.63273 1.45424 0
M  V30 12295 H 1131.23 -3.96949 -0.227391 0
M  V30 12296 N 1132.22 -0.430739 -1.51599 0
M  V30 12297 C 1133.16 0.419726 -2.25324 0
M  V30 12298 C 1134.17 0.991925 -1.29092 0
M  V30 12299 O 1135.36 0.887188 -1.54891 0
M  V30 12300 C 1132.46 1.59844 -2.98836 0
M  V30 12301 C 1131.63 1.14629 -4.22112 0
M  V30 12302 C 1130.69 2.19437 -4.78261 0
M  V30 12303 O 1129.72 1.79141 -5.40275 0
M  V30 12304 N 1130.92 3.51849 -4.61717 0
M  V30 12305 H 1133.68 -0.212112 -2.98948 0
M  V30 12306 H 1131.24 -0.259269 -1.59811 0
M  V30 12307 H 1133.24 2.29567 -3.33288 0
M  V30 12308 H 1131.81 2.13575 -2.28264 0
M  V30 12309 H 1131.03 0.276367 -3.9323 0
M  V30 12310 H 1132.31 0.821488 -5.02124 0
M  V30 12311 H 1131.71 3.87324 -4.12306 0
M  V30 12312 H 1130.27 4.17486 -5.00548 0
M  V30 12313 N 1133.7 1.56767 -0.161869 0
M  V30 12314 C 1134.95 1.95769 0.485536 0
M  V30 12315 C 1135.26 1.05006 1.65025 0
M  V30 12316 O 1136.47 1.33649 2.36326 0
M  V30 12317 C 1134.93 3.4807 0.915176 0
M  V30 12318 C 1134.53 4.47443 -0.223416 0
M  V30 12319 C 1136.28 3.95909 1.53153 0
M  V30 12320 C 1134.19 5.90971 0.225325 0
M  V30 12321 H 1133.12 0.730911 0.185161 0
M  V30 12322 H 1135.77 1.81808 -0.248592 0
M  V30 12323 H 1134.15 3.57415 1.705 0
M  V30 12324 H 1135.32 4.49805 -1.00061 0
M  V30 12325 H 1133.64 4.09606 -0.749127 0
M  V30 12326 H 1136.23 5.00592 1.87915 0
M  V30 12327 H 1136.58 3.38307 2.42599 0
M  V30 12328 H 1137.11 3.89542 0.806322 0
M  V30 12329 H 1133.85 6.52426 -0.634124 0
M  V30 12330 H 1133.37 5.91936 0.96808 0
M  V30 12331 H 1135.05 6.43497 0.672373 0
M  V30 12332 N 1135.18 -0.111886 1.57202 0
M  V30 12333 C 1136.41 -0.836317 1.89791 0
M  V30 12334 C 1136.83 -1.72304 0.754513 0
M  V30 12335 O 1136.19 -1.78889 -0.294672 0
M  V30 12336 C 1136.24 -1.63971 3.21164 0
M  V30 12337 O 1135.34 -2.74726 3.0757 0
M  V30 12338 H 1134.68 -0.230833 0.622585 0
M  V30 12339 H 1137.21 -0.0921478 2.04392 0
M  V30 12340 H 1137.22 -2.02746 3.54059 0
M  V30 12341 H 1135.9 -0.98882 4.03974 0
M  V30 12342 H 1134.47 -2.39101 2.86156 0
M  V30 12343 N 1136.66 -1.52894 -0.382264 0
M  V30 12344 C 1137.88 -1.72453 -1.15216 0
M  V30 12345 C 1138.31 -0.444925 -1.82762 0
M  V30 12346 O 1137.67 0.599825 -1.7109 0
M  V30 12347 C 1137.71 -2.87939 -2.17079 0
M  V30 12348 O 1136.82 -2.55383 -3.23811 0
M  V30 12349 H 1136.16 -0.57324 -0.335099 0
M  V30 12350 H 1138.69 -1.99713 -0.444495 0
M  V30 12351 H 1138.7 -3.13628 -2.60963 0
M  V30 12352 H 1137.37 -3.80765 -1.67305 0
M  V30 12353 H 1135.95 -2.40457 -2.85018 0
M  V30 12354 N 1138.14 0.641106 -1.43971 0
M  V30 12355 C 1139.39 1.39807 -1.4594 0
M  V30 12356 C 1139.71 1.94795 -0.0893874 0
M  V30 12357 O 1138.98 1.75175 0.876962 0
M  V30 12358 H 1137.56 0.518908 -0.537349 0
M  V30 12359 H 1140.22 0.755278 -1.79671 0
M  V30 12360 H 1139.31 2.23439 -2.17903 0
M  V30 12361 N 1139.62 1.30703 0.880598 0
M  V30 12362 C 1140.86 1.19778 1.63277 0
M  V30 12363 C 1141.19 -0.246521 1.92931 0
M  V30 12364 O 1140.45 -1.19226 1.55189 0
M  V30 12365 C 1140.74 1.97628 2.97789 0
M  V30 12366 C 1140.41 3.47213 2.87669 0
M  V30 12367 C 1139.07 3.88004 2.84617 0
M  V30 12368 C 1141.42 4.4245 2.75477 0
M  V30 12369 C 1138.75 5.22315 2.67216 0
M  V30 12370 C 1141.1 5.76874 2.59614 0
M  V30 12371 C 1139.77 6.16898 2.54939 0
M  V30 12372 H 1139.04 0.438298 0.597475 0
M  V30 12373 H 1141.69 1.61853 1.02352 0
M  V30 12374 H 1139.99 1.48201 3.6269 0
M  V30 12375 H 1141.69 1.86563 3.54958 0
M  V30 12376 H 1138.28 3.14802 2.90857 0
M  V30 12377 H 1142.46 4.11875 2.76899 0
M  V30 12378 H 1137.72 5.52412 2.62014 0
M  V30 12379 H 1141.89 6.50304 2.49155 0
M  V30 12380 H 1139.52 7.20916 2.41214 0
M  V30 12381 N 1141.09 -1.09351 1.1349 0
M  V30 12382 C 1142.34 -1.81543 0.897123 0
M  V30 12383 C 1142.67 -1.85754 -0.576703 0
M  V30 12384 O 1141.92 -1.32213 -1.44285 0
M  V30 12385 C 1142.22 -3.27498 1.43108 0
M  V30 12386 C 1141.89 -3.4342 2.92188 0
M  V30 12387 C 1140.55 -3.47473 3.32891 0
M  V30 12388 C 1142.9 -3.47894 3.88097 0
M  V30 12389 C 1140.23 -3.5358 4.68186 0
M  V30 12390 C 1142.58 -3.55535 5.23238 0
M  V30 12391 C 1141.25 -3.57857 5.63467 0
M  V30 12392 H 1140.52 -0.664314 0.32828 0
M  V30 12393 H 1143.16 -1.28819 1.41697 0
M  V30 12394 H 1141.47 -3.82865 0.831946 0
M  V30 12395 H 1143.17 -3.8189 1.22316 0
M  V30 12396 H 1139.76 -3.4095 2.59713 0
M  V30 12397 H 1143.94 -3.44002 3.57737 0
M  V30 12398 H 1139.2 -3.53665 4.9873 0
M  V30 12399 H 1143.37 -3.57942 5.9737 0
M  V30 12400 H 1141 -3.62341 6.68291 0
M  V30 12401 N 1142.57 -0.928524 -1.27343 0
M  V30 12402 C 1143.8 -0.58516 -1.98974 0
M  V30 12403 C 1144.22 0.829964 -1.68799 0
M  V30 12404 O 1143.58 1.55705 -0.928738 0
M  V30 12405 C 1143.63 -0.818662 -3.51184 0
M  V30 12406 O 1142.73 0.115355 -4.12239 0
M  V30 12407 H 1142.07 -0.225203 -0.624644 0
M  V30 12408 H 1144.6 -1.248 -1.6213 0
M  V30 12409 H 1144.61 -0.734554 -4.01333 0
M  V30 12410 H 1143.29 -1.8502 -3.72479 0
M  V30 12411 H 1141.86 -0.0187371 -3.72895 0
M  V30 12412 N 1144.05 1.41491 -0.694123 0
M  V30 12413 C 1145.46 1.84283 -0.299439 0
M  V30 12414 C 1145.81 1.58081 1.16211 0
M  V30 12415 O 1144.94 1.05051 1.89191 0
M  V30 12416 C 1145.53 3.34522 -0.536696 0
M  V30 12417 C 1144.09 3.7589 -0.195944 0
M  V30 12418 C 1143.24 2.64908 -0.819692 0
M  V30 12419 H 1146.19 1.31063 -0.894884 0
M  V30 12420 H 1146.21 3.79947 0.205062 0
M  V30 12421 H 1145.72 3.53561 -1.6005 0
M  V30 12422 H 1143.82 3.62452 0.863655 0
M  V30 12423 H 1143.94 4.74671 -0.649954 0
M  V30 12424 H 1142.3 2.53476 -0.249412 0
M  V30 12425 H 1143.08 2.86765 -1.88734 0
M  V30 12426 N 1145.53 0.438773 1.51369 0
M  V30 12427 C 1146.47 -0.37195 2.27783 0
M  V30 12428 C 1147.44 -1.01558 1.31435 0
M  V30 12429 O 1148.63 -1.03421 1.60339 0
M  V30 12430 C 1145.77 -1.46636 3.12397 0
M  V30 12431 C 1144.88 -0.840727 4.2374 0
M  V30 12432 C 1144.02 -1.91031 4.95662 0
M  V30 12433 C 1143.06 -1.26318 5.98924 0
M  V30 12434 N 1142.19 -2.27419 6.64248 0
M  V30 12435 H 1147.03 0.286048 2.96624 0
M  V30 12436 H 1144.57 0.152909 1.46303 0
M  V30 12437 H 1146.53 -2.11219 3.59781 0
M  V30 12438 H 1145.16 -2.09397 2.45668 0
M  V30 12439 H 1144.21 -0.0831588 3.80309 0
M  V30 12440 H 1145.52 -0.328285 4.97719 0
M  V30 12441 H 1144.68 -2.63272 5.46601 0
M  V30 12442 H 1143.42 -2.45649 4.21317 0
M  V30 12443 H 1142.42 -0.526246 5.47276 0
M  V30 12444 H 1143.65 -0.724324 6.75226 0
M  V30 12445 H 1141.59 -2.81114 5.92715 0
M  V30 12446 H 1141.51 -1.81071 7.33996 0
M  V30 12447 H 1142.78 -2.99139 7.19817 0
M  V30 12448 N 1147.01 -1.56678 0.170181 0
M  V30 12449 C 1147.92 -2.21496 -0.773079 0
M  V30 12450 C 1148.93 -1.20626 -1.25401 0
M  V30 12451 O 1150.11 -1.53283 -1.30638 0
M  V30 12452 C 1147.17 -2.8421 -1.98558 0
M  V30 12453 C 1146.23 -4.00278 -1.55164 0
M  V30 12454 C 1145.47 -4.59992 -2.70634 0
M  V30 12455 O 1145.69 -4.18595 -3.87472 0
M  V30 12456 O 1144.62 -5.49881 -2.44775 0
M  V30 12457 H 1148.45 -3.02659 -0.251195 0
M  V30 12458 H 1146.03 -1.49288 -0.0579621 0
M  V30 12459 H 1147.92 -3.2398 -2.69472 0
M  V30 12460 H 1146.59 -2.06045 -2.49654 0
M  V30 12461 H 1145.5 -3.6518 -0.812038 0
M  V30 12462 H 1146.83 -4.80033 -1.0876 0
M  V30 12463 N 1148.48 0.103547 -1.57259 0
M  V30 12464 C 1149.89 0.659006 -1.74683 0
M  V30 12465 C 1150.25 1.79542 -0.791142 0
M  V30 12466 O 1149.37 2.16376 0.0323585 0
M  V30 12467 C 1149.97 1.20222 -3.16752 0
M  V30 12468 C 1148.52 1.70382 -3.35629 0
M  V30 12469 C 1147.67 0.609886 -2.7051 0
M  V30 12470 H 1150.62 -0.122474 -1.58227 0
M  V30 12471 H 1150.64 2.07169 -3.19157 0
M  V30 12472 H 1150.16 0.374901 -3.86285 0
M  V30 12473 H 1148.26 2.55542 -2.71162 0
M  V30 12474 H 1148.37 1.80263 -4.43894 0
M  V30 12475 H 1146.73 1.04728 -2.32173 0
M  V30 12476 H 1147.52 -0.206713 -3.42677 0
M  V30 12477 N 1149.96 1.53094 0.37415 0
M  V30 12478 C 1151.24 1.59456 1.13283 0
M  V30 12479 C 1151.62 0.396821 2.07337 0
M  V30 12480 O 1150.97 -0.613659 2.20106 0
M  V30 12481 C 1151.18 2.94069 1.87948 0
M  V30 12482 C 1152.52 3.4834 2.42785 0
M  V30 12483 O 1153.55 2.96042 1.98085 0
M  V30 12484 O 1152.41 4.39747 3.24477 0
M  V30 12485 H 1149.5 0.643731 0.519171 0
M  V30 12486 H 1152.05 1.65434 0.378105 0
M  V30 12487 H 1150.82 3.72685 1.19255 0
M  V30 12488 H 1150.44 2.91544 2.70348 0
M  V30 12489 N 1151.44 -0.633461 1.44309 0
M  V30 12490 C 1152.68 -1.40465 1.48489 0
M  V30 12491 C 1153.04 -1.91664 0.113519 0
M  V30 12492 O 1154.24 -2.68783 0.0299948 0
M  V30 12493 C 1152.52 -2.54041 2.51392 0
M  V30 12494 S 1154.07 -3.42256 2.74602 0
M  V30 12495 H 1150.89 -0.479228 0.525225 0
M  V30 12496 H 1153.49 -0.733561 1.81216 0
M  V30 12497 H 1152.2 -2.14734 3.49739 0
M  V30 12498 H 1151.73 -3.25979 2.2023 0
M  V30 12499 H 1153.74 -4.51409 2.06021 0
M  V30 12500 N 1152.92 -1.31168 -0.873655 0
M  V30 12501 C 1154.17 -1.20642 -1.6264 0
M  V30 12502 C 1154.49 0.236286 -1.93059 0
M  V30 12503 O 1153.75 1.18401 -1.55819 0
M  V30 12504 C 1154.05 -1.99204 -2.96736 0
M  V30 12505 C 1153.71 -3.48734 -2.85824 0
M  V30 12506 C 1152.38 -3.89507 -2.82555 0
M  V30 12507 C 1154.73 -4.43905 -2.73127 0
M  V30 12508 C 1152.06 -5.23724 -2.64442 0
M  V30 12509 C 1154.41 -5.78242 -2.56551 0
M  V30 12510 C 1153.07 -6.18241 -2.51663 0
M  V30 12511 H 1152.34 -0.44146 -0.595142 0
M  V30 12512 H 1154.99 -1.62394 -1.01492 0
M  V30 12513 H 1153.29 -1.50122 -3.61899 0
M  V30 12514 H 1154.99 -1.88443 -3.53963 0
M  V30 12515 H 1151.58 -3.1634 -2.89184 0
M  V30 12516 H 1155.76 -4.13338 -2.7471 0
M  V30 12517 H 1151.02 -5.53794 -2.59081 0
M  V30 12518 H 1155.19 -6.51616 -2.45702 0
M  V30 12519 H 1152.82 -7.22185 -2.37387 0
M  V30 12520 N 1154.4 1.08748 -1.14068 0
M  V30 12521 C 1155.34 2.15573 -0.824425 0
M  V30 12522 C 1156.31 1.64683 0.216522 0
M  V30 12523 O 1157.5 1.90601 0.0872193 0
M  V30 12524 C 1154.64 3.43756 -0.30423 0
M  V30 12525 C 1153.75 4.08512 -1.40506 0
M  V30 12526 C 1152.89 5.24477 -0.842479 0
M  V30 12527 C 1151.93 5.81167 -1.92123 0
M  V30 12528 N 1151.06 6.88483 -1.37608 0
M  V30 12529 H 1155.9 2.41968 -1.73941 0
M  V30 12530 H 1153.44 1.18751 -0.868143 0
M  V30 12531 H 1155.4 4.17197 0.0155546 0
M  V30 12532 H 1154.03 3.17658 0.573868 0
M  V30 12533 H 1153.08 3.32866 -1.84131 0
M  V30 12534 H 1154.39 4.46669 -2.2201 0
M  V30 12535 H 1153.55 6.04842 -0.474389 0
M  V30 12536 H 1152.28 4.877 0.00355212 0
M  V30 12537 H 1151.29 4.99458 -2.29831 0
M  V30 12538 H 1152.51 6.20003 -2.77079 0
M  V30 12539 H 1150.46 6.53672 -0.552168 0
M  V30 12540 H 1150.38 7.25446 -2.12752 0
M  V30 12541 H 1151.65 7.72588 -1.03578 0
M  V30 12542 N 1155.87 0.935264 1.26849 0
M  V30 12543 C 1157.15 0.497797 1.8916 0
M  V30 12544 C 1157.53 -1.02441 1.84578 0
M  V30 12545 O 1156.88 -1.88185 1.29609 0
M  V30 12546 C 1157.09 1.05244 3.32753 0
M  V30 12547 C 1158.44 1.11751 4.0963 0
M  V30 12548 O 1159.46 1.0026 3.41799 0
M  V30 12549 O 1158.32 1.29548 5.30923 0
M  V30 12550 H 1155.41 0.161322 0.811113 0
M  V30 12551 H 1157.96 1.02744 1.35062 0
M  V30 12552 H 1156.73 2.09617 3.30419 0
M  V30 12553 H 1156.36 0.504889 3.94381 0
M  V30 12554 N 1157.35 -1.41121 0.701616 0
M  V30 12555 C 1158.6 -2.00359 0.232214 0
M  V30 12556 C 1158.91 -1.56231 -1.17691 0
M  V30 12557 O 1160.12 -2.08071 -1.74409 0
M  V30 12558 C 1158.58 -3.58052 0.364257 0
M  V30 12559 C 1158.18 -4.11158 1.77913 0
M  V30 12560 C 1159.93 -4.24476 -0.0450628 0
M  V30 12561 C 1157.84 -5.61306 1.8625 0
M  V30 12562 H 1156.77 -0.749411 0.0830609 0
M  V30 12563 H 1159.42 -1.61528 0.870689 0
M  V30 12564 H 1157.8 -3.94515 -0.342569 0
M  V30 12565 H 1158.97 -3.86101 2.5152 0
M  V30 12566 H 1157.29 -3.57282 2.13866 0
M  V30 12567 H 1159.88 -5.347 -0.00329209 0
M  V30 12568 H 1160.23 -4.01919 -1.08477 0
M  V30 12569 H 1160.76 -3.93069 0.611704 0
M  V30 12570 H 1157.5 -5.88699 2.88294 0
M  V30 12571 H 1157.02 -5.88271 1.17036 0
M  V30 12572 H 1158.7 -6.26179 1.62817 0
M  V30 12573 N 1158.83 -0.446794 -1.51134 0
M  V30 12574 C 1160.08 0.116666 -2.02464 0
M  V30 12575 C 1160.41 1.41532 -1.32975 0
M  V30 12576 O 1159.68 1.89278 -0.447651 0
M  V30 12577 C 1159.97 0.325659 -3.58624 0
M  V30 12578 C 1159.82 -0.992307 -4.38718 0
M  V30 12579 C 1161.14 1.09121 -4.26357 0
M  V30 12580 H 1158.26 0.0409262 -0.735863 0
M  V30 12581 H 1160.9 -0.587641 -1.80684 0
M  V30 12582 H 1159.05 0.925585 -3.77313 0
M  V30 12583 H 1160.72 -1.62694 -4.31658 0
M  V30 12584 H 1158.97 -1.5947 -4.03425 0
M  V30 12585 H 1159.64 -0.800005 -5.46172 0
M  V30 12586 H 1162.11 0.582944 -4.11996 0
M  V30 12587 H 1160.99 1.20621 -5.35483 0
M  V30 12588 H 1161.25 2.12171 -3.87861 0
M  V30 12589 N 1160.31 1.56586 -0.178487 0
M  V30 12590 C 1161.26 2.19631 0.765822 0
M  V30 12591 C 1162.25 1.16247 1.23219 0
M  V30 12592 O 1163.46 1.34431 1.19701 0
M  V30 12593 H 1159.83 0.703661 0.265264 0
M  V30 12594 H 1161.8 2.97659 0.210207 0
M  V30 12595 C 1160.55 2.85686 1.98188 0
M  V30 12596 H 1159.87 3.64971 1.63206 0
M  V30 12597 H 1161.31 3.33259 2.62134 0
M  V30 12598 C 1159.77 1.85837 2.81009 0
M  V30 12599 O 1160.3 1.3483 3.78396 0
M  V30 12600 N 1158.51 1.54435 2.46167 0
M  V30 12601 H 1158.06 1.96107 1.67032 0
M  V30 12602 H 1158.01 0.878808 3.01868 0
M  V30 12603 N 1161.79 -0.095206 1.57312 0
M  V30 12604 C 1162.72 -1.14662 1.97301 0
M  V30 12605 C 1163.7 -1.38845 0.846212 0
M  V30 12606 O 1164.88 -1.52607 1.1065 0
M  V30 12607 C 1162.01 -2.49582 2.28968 0
M  V30 12608 C 1161.05 -2.41681 3.51415 0
M  V30 12609 S 1161.89 -1.83343 5.03136 0
M  V30 12610 C 1163.04 -3.19888 5.3798 0
M  V30 12611 H 1163.28 -0.805726 2.86174 0
M  V30 12612 H 1160.81 -0.302881 1.514 0
M  V30 12613 H 1162.77 -3.27202 2.47889 0
M  V30 12614 H 1161.43 -2.80841 1.40667 0
M  V30 12615 H 1160.62 -3.41122 3.71015 0
M  V30 12616 H 1160.22 -1.7219 3.32004 0
M  V30 12617 H 1162.52 -4.16161 5.34618 0
M  V30 12618 H 1163.46 -3.05093 6.39002 0
M  V30 12619 H 1163.87 -3.19414 4.6544 0
M  V30 12620 N 1163.26 -1.53291 -0.366026 0
M  V30 12621 C 1164.19 -1.82675 -1.45437 0
M  V30 12622 C 1165.18 -0.680227 -1.55907 0
M  V30 12623 O 1166.36 -0.930032 -1.70482 0
M  V30 12624 C 1163.49 -2.01626 -2.8278 0
M  V30 12625 C 1162.44 -3.17391 -2.87135 0
M  V30 12626 C 1161.77 -3.21634 -4.27148 0
M  V30 12627 C 1163.07 -4.5599 -2.54697 0
M  V30 12628 H 1164.76 -2.73818 -1.21096 0
M  V30 12629 H 1162.31 -1.31754 -0.581108 0
M  V30 12630 H 1164.26 -2.20765 -3.58944 0
M  V30 12631 H 1162.99 -1.07193 -3.08508 0
M  V30 12632 H 1161.65 -2.98071 -2.13422 0
M  V30 12633 H 1161.29 -2.2484 -4.49951 0
M  V30 12634 H 1160.99 -3.99414 -4.30978 0
M  V30 12635 H 1162.52 -3.42957 -5.05186 0
M  V30 12636 H 1163.93 -4.75294 -3.20575 0
M  V30 12637 H 1162.33 -5.36008 -2.69844 0
M  V30 12638 H 1163.4 -4.61133 -1.49949 0
M  V30 12639 N 1164.74 0.6258 -1.44643 0
M  V30 12640 C 1165.68 1.75056 -1.46392 0
M  V30 12641 C 1166.65 1.59376 -0.322179 0
M  V30 12642 O 1167.84 1.81187 -0.519956 0
M  V30 12643 C 1164.96 3.12689 -1.30166 0
M  V30 12644 C 1164.01 3.47005 -2.47972 0
M  V30 12645 S 1164.84 3.43885 -4.10491 0
M  V30 12646 C 1166 4.84129 -3.96698 0
M  V30 12647 H 1166.23 1.73306 -2.41562 0
M  V30 12648 H 1163.77 0.800879 -1.32005 0
M  V30 12649 H 1165.72 3.9211 -1.21492 0
M  V30 12650 H 1164.38 3.11972 -0.364982 0
M  V30 12651 H 1163.58 4.47171 -2.32496 0
M  V30 12652 H 1163.18 2.75059 -2.53414 0
M  V30 12653 H 1165.47 5.73488 -3.60718 0
M  V30 12654 H 1166.41 5.0466 -4.96713 0
M  V30 12655 H 1166.82 4.58954 -3.28666 0
M  V30 12656 N 1166.22 1.31629 0.866686 0
M  V30 12657 C 1167.17 1.16149 1.96197 0
M  V30 12658 C 1168.15 0.0716068 1.60741 0
M  V30 12659 O 1169.35 0.296868 1.74493 0
M  V30 12660 C 1166.48 0.874322 3.3198 0
M  V30 12661 C 1165.56 2.00534 3.73693 0
M  V30 12662 N 1165.95 3.25272 3.87339 0
M  V30 12663 C 1164.25 1.90582 4.0323 0
M  V30 12664 C 1164.95 3.99275 4.2303 0
M  V30 12665 N 1163.93 3.27471 4.33894 0
M  V30 12666 H 1167.73 2.10732 2.04864 0
M  V30 12667 H 1165.24 1.23234 1.05769 0
M  V30 12668 H 1167.24 0.7444 4.102 0
M  V30 12669 H 1165.9 -0.0632521 3.24638 0
M  V30 12670 H 1166.91 3.60349 3.71979 0
M  V30 12671 H 1163.59 1.0431 4.0426 0
M  V30 12672 H 1164.98 5.06784 4.41157 0
M  V30 12673 N 1167.7 -1.08142 1.14644 0
M  V30 12674 C 1168.65 -2.13338 0.804412 0
M  V30 12675 C 1169.63 -1.59554 -0.207664 0
M  V30 12676 O 1170.83 -1.76997 -0.00960233 0
M  V30 12677 C 1167.95 -3.42102 0.286579 0
M  V30 12678 C 1167.04 -4.0276 1.32834 0
M  V30 12679 N 1167.43 -4.37789 2.53327 0
M  V30 12680 C 1165.73 -4.30129 1.17919 0
M  V30 12681 C 1166.43 -4.85748 3.20037 0
M  V30 12682 N 1165.41 -4.84021 2.47436 0
M  V30 12683 H 1169.21 -2.38243 1.72097 0
M  V30 12684 H 1166.72 -1.25501 1.0307 0
M  V30 12685 H 1168.72 -4.16894 0.0232417 0
M  V30 12686 H 1167.38 -3.18645 -0.624142 0
M  V30 12687 H 1168.39 -4.28731 2.90534 0
M  V30 12688 H 1165.07 -4.16212 0.327713 0
M  V30 12689 H 1166.46 -5.22208 4.22786 0
M  V30 12690 N 1169.18 -0.941978 -1.26351 0
M  V30 12691 C 1170.45 -0.507822 -1.88893 0
M  V30 12692 C 1170.83 1.0146 -1.85119 0
M  V30 12693 O 1170.18 1.87495 -1.30606 0
M  V30 12694 C 1170.39 -1.07007 -3.3219 0
M  V30 12695 C 1171.74 -1.13922 -4.09032 0
M  V30 12696 O 1172.76 -1.02072 -3.41262 0
M  V30 12697 O 1171.62 -1.32362 -5.30229 0
M  V30 12698 H 1168.72 -0.165621 -0.810246 0
M  V30 12699 H 1171.26 -1.03459 -1.34515 0
M  V30 12700 H 1170.04 -2.11366 -3.29302 0
M  V30 12701 H 1169.66 -0.525797 -3.94108 0
M  V30 12702 N 1170.66 1.40747 -0.709091 0
M  V30 12703 C 1172.07 1.54961 -0.381989 0
M  V30 12704 C 1172.27 1.68181 1.10985 0
M  V30 12705 O 1171.33 1.66776 1.89584 0
M  V30 12706 C 1172.64 2.78156 -1.14236 0
M  V30 12707 C 1174.19 2.91967 -1.12803 0
M  V30 12708 C 1174.66 4.18066 -1.87042 0
M  V30 12709 N 1176.15 4.25052 -1.84078 0
M  V30 12710 C 1176.89 5.21514 -2.38349 0
M  V30 12711 N 1176.39 6.23924 -3.01149 0
M  V30 12712 N 1178.18 5.13548 -2.28528 0
M  V30 12713 H 1170.33 1.30412 -1.6765 0
M  V30 12714 H 1172.59 0.630147 -0.70825 0
M  V30 12715 H 1172.3 2.74643 -2.19691 0
M  V30 12716 H 1172.17 3.70074 -0.729731 0
M  V30 12717 H 1174.56 2.94987 -0.0816956 0
M  V30 12718 H 1174.64 2.01185 -1.57982 0
M  V30 12719 H 1174.28 4.15808 -2.91662 0
M  V30 12720 H 1174.21 5.07845 -1.39287 0
M  V30 12721 H 1176.71 3.51682 -1.38305 0
M  V30 12722 H 1177.02 6.93942 -3.40094 0
M  V30 12723 H 1175.36 6.24387 -3.05231 0
M  V30 12724 H 1178.55 4.3247 -1.79129 0
M  V30 12725 H 1178.73 5.88553 -2.71126 0
M  V30 12726 N 1172.13 0.454803 1.50895 0
M  V30 12727 C 1173.38 -0.10577 2.02224 0
M  V30 12728 C 1173.71 -1.41176 1.33789 0
M  V30 12729 O 1172.96 -1.90522 0.447181 0
M  V30 12730 C 1173.26 -0.354159 3.55641 0
M  V30 12731 C 1172.93 0.868136 4.42464 0
M  V30 12732 C 1171.59 1.2033 4.65912 0
M  V30 12733 C 1173.94 1.68272 4.93289 0
M  V30 12734 C 1171.27 2.3534 5.37431 0
M  V30 12735 C 1173.62 2.82396 5.6607 0
M  V30 12736 C 1172.29 3.16346 5.87777 0
M  V30 12737 H 1171.56 -0.0387041 0.739989 0
M  V30 12738 H 1174.2 0.605564 1.81673 0
M  V30 12739 H 1172.51 -1.14757 3.74617 0
M  V30 12740 H 1174.21 -0.8016 3.92906 0
M  V30 12741 H 1170.8 0.596995 4.24422 0
M  V30 12742 H 1174.98 1.43698 4.75042 0
M  V30 12743 H 1170.24 2.61936 5.52449 0
M  V30 12744 H 1174.41 3.45873 6.04438 0
M  V30 12745 H 1172.04 4.05574 6.42973 0
M  V30 12746 N 1173.61 -1.56489 0.186789 0
M  V30 12747 C 1174.56 -2.18703 -0.737402 0
M  V30 12748 C 1175.53 -1.13171 -1.21579 0
M  V30 12749 O 1176.71 -1.41388 -1.28118 0
M  V30 12750 C 1173.85 -2.84394 -1.95484 0
M  V30 12751 C 1172.97 -4.04429 -1.51859 0
M  V30 12752 C 1172.1 -4.58001 -2.69089 0
M  V30 12753 C 1171.14 -5.70412 -2.22029 0
M  V30 12754 N 1170.28 -6.18425 -3.32407 0
M  V30 12755 H 1175.12 -2.97327 -0.200105 0
M  V30 12756 H 1172.65 -1.46842 -0.087032 0
M  V30 12757 H 1174.61 -3.20646 -2.66912 0
M  V30 12758 H 1173.24 -2.08347 -2.46559 0
M  V30 12759 H 1172.29 -3.73895 -0.70048 0
M  V30 12760 H 1173.61 -4.85756 -1.13327 0
M  V30 12761 H 1172.76 -4.96515 -3.48652 0
M  V30 12762 H 1171.5 -3.75764 -3.1089 0
M  V30 12763 H 1170.5 -5.31434 -1.40918 0
M  V30 12764 H 1171.73 -6.54461 -1.81268 0
M  V30 12765 H 1169.68 -5.39113 -3.73755 0
M  V30 12766 H 1169.59 -6.94782 -2.98017 0
M  V30 12767 H 1170.86 -6.61592 -4.12209 0
M  V30 12768 N 1175.09 0.086862 -1.5736 0
M  V30 12769 C 1176.34 0.790008 -1.8678 0
M  V30 12770 C 1176.67 1.77977 -0.777042 0
M  V30 12771 O 1175.94 1.93317 0.21419 0
M  V30 12772 C 1176.23 1.51143 -3.26845 0
M  V30 12773 C 1176.08 0.539106 -4.46558 0
M  V30 12774 C 1177.4 2.46003 -3.64926 0
M  V30 12775 H 1174.52 0.285741 -0.679354 0
M  V30 12776 H 1177.16 0.0534655 -1.89925 0
M  V30 12777 H 1175.31 2.13928 -3.24295 0
M  V30 12778 H 1176.98 -0.0823679 -4.61226 0
M  V30 12779 H 1175.22 -0.146842 -4.33551 0
M  V30 12780 H 1175.9 1.0812 -5.41308 0
M  V30 12781 H 1178.37 1.93306 -3.68473 0
M  V30 12782 H 1177.25 2.93493 -4.63846 0
M  V30 12783 H 1177.51 3.30133 -2.94049 0
M  V30 12784 N 1176.57 1.53483 0.357892 0
M  V30 12785 C 1177.81 1.70037 1.09971 0
M  V30 12786 C 1178.14 0.456112 1.89076 0
M  V30 12787 O 1177.4 -0.562029 1.87456 0
M  V30 12788 C 1177.7 2.90654 2.07978 0
M  V30 12789 C 1177.36 4.26849 1.45295 0
M  V30 12790 C 1176.02 4.63884 1.27928 0
M  V30 12791 C 1178.38 5.11514 1.00013 0
M  V30 12792 C 1175.7 5.83213 0.638745 0
M  V30 12793 C 1178.06 6.31496 0.373568 0
M  V30 12794 C 1176.72 6.67237 0.187457 0
M  V30 12795 H 1175.99 0.622209 0.402414 0
M  V30 12796 H 1178.64 1.87679 0.380615 0
M  V30 12797 H 1176.94 2.67556 2.86219 0
M  V30 12798 H 1178.64 3.00656 2.65343 0
M  V30 12799 H 1175.23 3.97693 1.59807 0
M  V30 12800 H 1179.41 4.83446 1.12221 0
M  V30 12801 H 1174.67 6.09489 0.483035 0
M  V30 12802 H 1178.84 6.96398 0.0145346 0
M  V30 12803 H 1176.47 7.59564 -0.310933 0
M  V30 12804 N 1178.05 -0.61812 1.44973 0
M  V30 12805 C 1179.01 -1.71135 1.52465 0
M  V30 12806 C 1180.01 -1.5561 0.405246 0
M  V30 12807 O 1181.2 -1.60869 0.668351 0
M  V30 12808 C 1178.33 -3.10324 1.41108 0
M  V30 12809 H 1179.52 -1.65862 2.49859 0
M  V30 12810 H 1177.08 -0.832932 1.32257 0
M  V30 12811 H 1177.81 -3.21183 0.448574 0
M  V30 12812 H 1177.6 -3.23001 2.2229 0
M  V30 12813 H 1179.09 -3.89976 1.49361 0
M  V30 12814 N 1179.52 -1.32087 -0.859693 0
M  V30 12815 C 1180.8 -1.12984 -1.59668 0
M  V30 12816 C 1181.18 0.311661 -2.08787 0
M  V30 12817 O 1180.53 1.30746 -1.87397 0
M  V30 12818 C 1180.74 -2.15305 -2.74672 0
M  V30 12819 C 1182.09 -2.48371 -3.44379 0
M  V30 12820 O 1183.11 -2.13811 -2.84891 0
M  V30 12821 O 1181.97 -3.07594 -4.51717 0
M  V30 12822 H 1179.06 -0.435657 -0.702945 0
M  V30 12823 H 1181.61 -1.43601 -0.90426 0
M  V30 12824 H 1180.38 -3.12223 -2.35866 0
M  V30 12825 H 1180 -1.85653 -3.51594 0
M  V30 12826 N 1181 1.07532 -1.15215 0
M  V30 12827 C 1182.23 1.8355 -0.94831 0
M  V30 12828 C 1182.64 1.82289 0.506701 0
M  V30 12829 O 1181.98 1.23142 1.36314 0
M  V30 12830 C 1182.04 3.31834 -1.38298 0
M  V30 12831 C 1181.71 3.56818 -2.85535 0
M  V30 12832 C 1182.71 3.50915 -3.83608 0
M  V30 12833 C 1180.39 3.84543 -3.23159 0
M  V30 12834 C 1182.38 3.72382 -5.17311 0
M  V30 12835 C 1180.07 4.05662 -4.57036 0
M  V30 12836 C 1181.07 3.99576 -5.53921 0
M  V30 12837 O 1180.76 4.20132 -6.85379 0
M  V30 12838 H 1180.49 0.586014 -0.336992 0
M  V30 12839 H 1183.04 1.36656 -1.53344 0
M  V30 12840 H 1181.27 3.79529 -0.741244 0
M  V30 12841 H 1182.96 3.89312 -1.14853 0
M  V30 12842 H 1183.73 3.295 -3.55886 0
M  V30 12843 H 1179.61 3.88395 -2.48335 0
M  V30 12844 H 1183.15 3.67547 -5.92921 0
M  V30 12845 H 1179.05 4.26563 -4.84473 0
M  V30 12846 H 1179.82 4.3749 -6.91769 0
M  V30 12847 N 1182.48 0.948665 1.2585 0
M  V30 12848 C 1183.39 0.470525 2.29833 0
M  V30 12849 C 1184.41 -0.45919 1.67832 0
M  V30 12850 O 1185.58 -0.336893 1.98562 0
M  V30 12851 C 1182.65 -0.249635 3.458 0
M  V30 12852 C 1181.71 0.717559 4.23261 0
M  V30 12853 C 1180.94 0.0316724 5.33691 0
M  V30 12854 O 1181.16 -1.18384 5.5798 0
M  V30 12855 O 1180.1 0.71418 5.97648 0
M  V30 12856 H 1183.92 1.33447 2.72811 0
M  V30 12857 H 1181.51 0.714864 1.31187 0
M  V30 12858 H 1183.39 -0.654993 4.16279 0
M  V30 12859 H 1182.07 -1.08885 3.04837 0
M  V30 12860 H 1180.97 1.17301 3.55234 0
M  V30 12861 H 1182.31 1.52461 4.67992 0
M  V30 12862 N 1183.96 -1.40369 0.716545 0
M  V30 12863 C 1184.92 -2.29083 0.0733105 0
M  V30 12864 C 1185.92 -1.45415 -0.686378 0
M  V30 12865 O 1187.11 -1.66316 -0.518139 0
M  V30 12866 C 1184.24 -3.28639 -0.906032 0
M  V30 12867 H 1185.44 -2.87464 0.85467 0
M  V30 12868 H 1182.99 -1.48706 0.481256 0
M  V30 12869 H 1183.72 -2.75279 -1.71441 0
M  V30 12870 H 1183.51 -3.90405 -0.364163 0
M  V30 12871 H 1185 -3.95066 -1.35324 0
M  V30 12872 N 1185.44 -0.462799 -1.50652 0
M  V30 12873 C 1186.67 0.0928413 -2.06391 0
M  V30 12874 C 1187.07 1.34791 -1.3277 0
M  V30 12875 O 1186.42 1.79555 -0.388048 0
M  V30 12876 C 1186.48 0.45517 -3.56607 0
M  V30 12877 C 1186.14 -0.696698 -4.51658 0
M  V30 12878 C 1187.14 -1.57633 -4.95427 0
M  V30 12879 C 1184.83 -0.884669 -4.94448 0
M  V30 12880 C 1186.82 -2.62841 -5.80684 0
M  V30 12881 C 1184.51 -1.93998 -5.79489 0
M  V30 12882 C 1185.5 -2.81022 -6.22508 0
M  V30 12883 O 1185.19 -3.84738 -7.05856 0
M  V30 12884 H 1184.92 -3.18898e-05 -0.676 0
M  V30 12885 H 1187.48 -0.648161 -1.94905 0
M  V30 12886 H 1185.71 1.24924 -3.65966 0
M  V30 12887 H 1187.4 0.944923 -3.94748 0
M  V30 12888 H 1188.16 -1.44276 -4.63044 0
M  V30 12889 H 1184.04 -0.216807 -4.6049 0
M  V30 12890 H 1187.59 -3.30797 -6.14182 0
M  V30 12891 H 1183.48 -2.07366 -6.11285 0
M  V30 12892 H 1184.25 -3.81626 -7.24088 0
M  V30 12893 N 1186.91 1.56388 -0.195085 0
M  V30 12894 C 1187.85 2.14992 0.765096 0
M  V30 12895 C 1188.83 1.08663 1.20959 0
M  V30 12896 O 1190.01 1.36775 1.29711 0
M  V30 12897 C 1187.14 2.7088 2.03327 0
M  V30 12898 C 1186.18 3.89797 1.7309 0
M  V30 12899 S 1187.02 5.28236 0.879025 0
M  V30 12900 C 1188.17 5.87545 2.15734 0
M  V30 12901 H 1188.4 2.961 0.266902 0
M  V30 12902 H 1185.94 1.54387 0.0199116 0
M  V30 12903 H 1187.9 3.03723 2.76157 0
M  V30 12904 H 1186.56 1.89814 2.50259 0
M  V30 12905 H 1185.75 4.27312 2.67246 0
M  V30 12906 H 1185.35 3.57964 1.08342 0
M  V30 12907 H 1187.64 6.01907 3.10989 0
M  V30 12908 H 1188.59 6.84137 1.82652 0
M  V30 12909 H 1188.99 5.16151 2.2858 0
M  V30 12910 N 1188.39 -0.0785156 1.57404 0
M  V30 12911 C 1189.32 -1.12058 1.99939 0
M  V30 12912 C 1190.34 -1.35372 0.904343 0
M  V30 12913 O 1191.53 -1.33731 1.1823 0
M  V30 12914 C 1188.63 -2.47285 2.31739 0
M  V30 12915 C 1187.8 -2.44021 3.63005 0
M  V30 12916 C 1186.86 -3.61303 3.82552 0
M  V30 12917 O 1185.88 -3.43039 4.54217 0
M  V30 12918 N 1187.09 -4.81404 3.24392 0
M  V30 12919 H 1189.85 -0.758416 2.89945 0
M  V30 12920 H 1187.41 -0.267266 1.59679 0
M  V30 12921 H 1189.4 -3.24377 2.41995 0
M  V30 12922 H 1187.97 -2.75529 1.47657 0
M  V30 12923 H 1187.19 -1.52361 3.63565 0
M  V30 12924 H 1188.48 -2.38934 4.49208 0
M  V30 12925 H 1187.88 -4.99147 2.66211 0
M  V30 12926 H 1186.44 -5.56031 3.40107 0
M  V30 12927 N 1189.87 -1.5367 -0.349747 0
M  V30 12928 C 1191.11 -1.72329 -1.09919 0
M  V30 12929 C 1191.47 -0.473178 -1.86078 0
M  V30 12930 O 1192.68 -0.53669 -2.63388 0
M  V30 12931 C 1190.95 -2.94817 -2.02034 0
M  V30 12932 S 1192.51 -3.34257 -2.84285 0
M  V30 12933 H 1189.32 -0.606225 -0.3715 0
M  V30 12934 H 1191.93 -1.91803 -0.378399 0
M  V30 12935 H 1190.63 -3.83979 -1.44874 0
M  V30 12936 H 1190.16 -2.7779 -2.78561 0
M  V30 12937 H 1192.18 -2.87506 -4.04419 0
M  V30 12938 N 1191.35 0.610423 -1.45298 0
M  V30 12939 C 1192.28 1.73507 -1.4976 0
M  V30 12940 C 1193.29 1.58092 -0.38867 0
M  V30 12941 O 1194.48 1.66026 -0.655571 0
M  V30 12942 C 1191.58 3.11475 -1.33554 0
M  V30 12943 C 1190.76 3.53156 -2.5807 0
M  V30 12944 C 1189.81 4.70076 -2.36463 0
M  V30 12945 O 1188.84 4.77337 -3.10061 0
M  V30 12946 N 1190.04 5.63155 -1.40843 0
M  V30 12947 H 1192.81 1.70144 -2.46721 0
M  V30 12948 H 1190.37 0.79562 -1.41002 0
M  V30 12949 H 1192.36 3.87444 -1.16914 0
M  V30 12950 H 1190.93 3.09361 -0.448803 0
M  V30 12951 H 1190.15 2.67178 -2.89844 0
M  V30 12952 H 1191.44 3.77761 -3.40843 0
M  V30 12953 H 1190.84 5.60001 -0.800982 0
M  V30 12954 H 1189.39 6.38669 -1.30175 0
M  V30 12955 N 1192.83 1.32541 0.852676 0
M  V30 12956 C 1193.79 1.21578 1.94297 0
M  V30 12957 C 1194.79 0.138318 1.60204 0
M  V30 12958 O 1195.98 0.388864 1.69804 0
M  V30 12959 C 1193.11 0.870209 3.29606 0
M  V30 12960 H 1194.3 2.18476 2.05446 0
M  V30 12961 H 1191.86 1.16401 1.0431 0
M  V30 12962 H 1192.59 -0.0968698 3.24155 0
M  V30 12963 H 1192.38 1.64924 3.55728 0
M  V30 12964 H 1193.87 0.817874 4.09513 0
M  V30 12965 N 1194.3 -1.0692 1.15784 0
M  V30 12966 C 1195.24 -2.14168 0.816375 0
M  V30 12967 C 1196.25 -1.61872 -0.17357 0
M  V30 12968 O 1197.44 -1.78429 0.0502973 0
M  V30 12969 C 1194.54 -3.38346 0.193682 0
M  V30 12970 C 1193.71 -4.19979 1.22215 0
M  V30 12971 C 1192.77 -5.2253 0.620424 0
M  V30 12972 O 1191.8 -5.54446 1.28757 0
M  V30 12973 N 1193 -5.77434 -0.595811 0
M  V30 12974 H 1195.76 -2.44062 1.73937 0
M  V30 12975 H 1193.32 -1.22865 1.05431 0
M  V30 12976 H 1195.32 -4.04092 -0.22174 0
M  V30 12977 H 1193.89 -3.06129 -0.632735 0
M  V30 12978 H 1193.11 -3.49984 1.81397 0
M  V30 12979 H 1194.39 -4.71329 1.91641 0
M  V30 12980 H 1193.79 -5.5376 -1.15611 0
M  V30 12981 H 1192.35 -6.44788 -0.953529 0
M  V30 12982 N 1195.78 -0.955326 -1.25345 0
M  V30 12983 C 1197.03 -0.611388 -1.93365 0
M  V30 12984 C 1197.36 0.84953 -1.74633 0
M  V30 12985 O 1196.64 1.60962 -1.09185 0
M  V30 12986 C 1196.92 -0.971732 -3.46741 0
M  V30 12987 C 1196.77 -2.48843 -3.74696 0
M  V30 12988 C 1198.09 -0.497295 -4.37281 0
M  V30 12989 H 1195.21 -0.223591 -0.702265 0
M  V30 12990 H 1197.85 -1.1921 -1.47949 0
M  V30 12991 H 1196 -0.477568 -3.85554 0
M  V30 12992 H 1197.67 -3.05641 -3.45516 0
M  V30 12993 H 1195.92 -2.92582 -3.20278 0
M  V30 12994 H 1196.59 -2.69107 -4.8196 0
M  V30 12995 H 1199.06 -0.921196 -4.05775 0
M  V30 12996 H 1197.94 -0.778113 -5.43357 0
M  V30 12997 H 1198.2 0.602743 -4.37972 0
M  V30 12998 N 1197.26 1.39987 -0.723979 0
M  V30 12999 C 1198.54 1.94637 -0.1939 0
M  V30 13000 C 1198.92 1.66156 1.30212 0
M  V30 13001 O 1198.27 0.983783 2.06238 0
M  V30 13002 C 1198.48 3.4517 -0.515652 0
M  V30 13003 C 1199.82 4.22113 -0.458919 0
M  V30 13004 O 1200.85 3.53318 -0.452198 0
M  V30 13005 O 1199.71 5.44695 -0.443783 0
M  V30 13006 H 1196.8 0.826394 -0.0316615 0
M  V30 13007 H 1199.35 1.49548 -0.802085 0
M  V30 13008 H 1198.12 3.5929 -1.55004 0
M  V30 13009 H 1197.74 3.97413 0.122067 0
M  V30 13010 N 1198.74 0.470782 1.50404 0
M  V30 13011 C 1199.67 -0.359838 2.26358 0
M  V30 13012 C 1200.68 -0.95735 1.31676 0
M  V30 13013 O 1201.87 -0.84581 1.57189 0
M  V30 13014 C 1198.97 -1.51864 3.02969 0
M  V30 13015 C 1198.15 -1.03397 4.25003 0
M  V30 13016 C 1197.21 -2.06679 4.83911 0
M  V30 13017 O 1196.23 -1.64754 5.44835 0
M  V30 13018 N 1197.43 -3.39484 4.70883 0
M  V30 13019 H 1200.2 0.291299 2.98281 0
M  V30 13020 H 1197.76 0.301549 1.59067 0
M  V30 13021 H 1199.75 -2.2065 3.39258 0
M  V30 13022 H 1198.32 -2.07448 2.33846 0
M  V30 13023 H 1197.54 -0.172012 3.93825 0
M  V30 13024 H 1198.83 -0.68807 5.04126 0
M  V30 13025 H 1198.23 -3.76256 4.22431 0
M  V30 13026 H 1196.78 -4.04068 5.11441 0
M  V30 13027 N 1200.22 -1.56282 0.203376 0
M  V30 13028 C 1201.15 -2.2247 -0.709183 0
M  V30 13029 C 1202.13 -1.19046 -1.21499 0
M  V30 13030 O 1203.31 -1.47578 -1.26231 0
M  V30 13031 C 1200.44 -2.8905 -1.92529 0
M  V30 13032 C 1199.4 -3.98789 -1.55407 0
M  V30 13033 C 1198.72 -4.52574 -2.84747 0
M  V30 13034 C 1200.02 -5.16774 -0.75775 0
M  V30 13035 H 1201.72 -2.98986 -0.157392 0
M  V30 13036 H 1199.26 -1.43808 -0.0742613 0
M  V30 13037 H 1201.22 -3.34038 -2.56898 0
M  V30 13038 H 1199.94 -2.09952 -2.50175 0
M  V30 13039 H 1198.6 -3.54504 -0.933928 0
M  V30 13040 H 1198.25 -3.70229 -3.40499 0
M  V30 13041 H 1197.95 -5.26627 -2.6065 0
M  V30 13042 H 1199.47 -5.00269 -3.5009 0
M  V30 13043 H 1200.89 -5.58256 -1.30472 0
M  V30 13044 H 1199.28 -5.96945 -0.614583 0
M  V30 13045 H 1200.35 -4.84308 0.239476 0
M  V30 13046 N 1201.7 0.070167 -1.57444 0
M  V30 13047 C 1202.93 0.78076 -1.91279 0
M  V30 13048 C 1203.33 1.71559 -0.797754 0
M  V30 13049 O 1202.68 1.82156 0.237665 0
M  V30 13050 C 1202.74 1.62664 -3.20594 0
M  V30 13051 C 1202.4 0.861007 -4.48816 0
M  V30 13052 C 1203.4 0.179522 -5.1959 0
M  V30 13053 C 1201.08 0.8277 -4.95434 0
M  V30 13054 C 1203.08 -0.525024 -6.35234 0
M  V30 13055 C 1200.77 0.119382 -6.10983 0
M  V30 13056 C 1201.76 -0.555778 -6.80735 0
M  V30 13057 O 1201.45 -1.25268 -7.9408 0
M  V30 13058 H 1201.18 0.227053 -0.636728 0
M  V30 13059 H 1203.74 0.0442334 -2.05352 0
M  V30 13060 H 1201.97 2.40601 -3.02734 0
M  V30 13061 H 1203.66 2.21606 -3.40067 0
M  V30 13062 H 1204.42 0.19655 -4.84602 0
M  V30 13063 H 1200.3 1.34268 -4.41014 0
M  V30 13064 H 1203.85 -1.05257 -6.89613 0
M  V30 13065 H 1199.74 0.100287 -6.45422 0
M  V30 13066 H 1200.51 -1.16212 -8.10208 0
M  V30 13067 N 1203.17 1.53854 0.341593 0
M  V30 13068 C 1204.59 1.44161 0.684821 0
M  V30 13069 C 1204.79 0.599929 1.92362 0
M  V30 13070 O 1203.85 0.0916771 2.52334 0
M  V30 13071 C 1205.16 2.87668 0.875637 0
M  V30 13072 C 1206.71 2.97455 0.974131 0
M  V30 13073 C 1207.18 4.42075 1.19725 0
M  V30 13074 N 1208.67 4.45609 1.2644 0
M  V30 13075 C 1209.41 5.54643 1.45459 0
M  V30 13076 N 1208.9 6.7368 1.61637 0
M  V30 13077 N 1210.7 5.4226 1.48022 0
M  V30 13078 H 1202.85 2.07069 -0.472883 0
M  V30 13079 H 1205.11 0.936114 -0.149648 0
M  V30 13080 H 1204.82 3.51681 0.0368595 0
M  V30 13081 H 1204.69 3.32731 1.7768 0
M  V30 13082 H 1207.08 2.33582 1.80343 0
M  V30 13083 H 1207.16 2.55751 0.0498282 0
M  V30 13084 H 1206.8 5.06529 0.372872 0
M  V30 13085 H 1206.73 4.81372 2.13515 0
M  V30 13086 H 1209.22 3.59831 1.15455 0
M  V30 13087 H 1209.54 7.52541 1.7579 0
M  V30 13088 H 1207.88 6.76622 1.5877 0
M  V30 13089 H 1211.07 4.48221 1.34966 0
M  V30 13090 H 1211.25 6.27293 1.62502 0
M  V30 13091 N 1204.65 -0.602709 1.4562 0
M  V30 13092 C 1205.6 -1.73425 1.55005 0
M  V30 13093 C 1206.59 -1.64118 0.419713 0
M  V30 13094 O 1207.8 -1.69853 0.595815 0
M  V30 13095 H 1204.17 -0.573038 0.486962 0
M  V30 13096 H 1206.15 -1.62637 2.50184 0
M  V30 13097 C 1204.89 -3.11808 1.53853 0
M  V30 13098 H 1204.22 -3.19631 2.40158 0
M  V30 13099 H 1205.66 -3.90798 1.64477 0
M  V30 13100 C 1204.12 -3.35866 0.263765 0
M  V30 13101 O 1204.65 -3.96334 -0.654364 0
M  V30 13102 N 1202.85 -2.90171 0.157927 0
M  V30 13103 H 1202.4 -2.41144 0.905944 0
M  V30 13104 H 1202.36 -3.06641 -0.694175 0
M  V30 13105 N 1206.13 -1.32992 -0.845635 0
M  V30 13106 C 1207.54 -1.21616 -1.41656 0
M  V30 13107 C 1207.89 0.167687 -1.95482 0
M  V30 13108 O 1207.02 1.06692 -1.8827 0
M  V30 13109 C 1207.61 -2.2018 -2.575 0
M  V30 13110 C 1206.17 -2.12664 -3.10565 0
M  V30 13111 C 1205.32 -2.08042 -1.83341 0
M  V30 13112 H 1208.27 -1.44688 -0.651993 0
M  V30 13113 H 1208.29 -1.80558 -3.34931 0
M  V30 13114 H 1207.8 -3.20888 -2.18294 0
M  V30 13115 H 1205.9 -1.15235 -3.54333 0
M  V30 13116 H 1206.02 -3.02902 -3.71197 0
M  V30 13117 H 1204.38 -1.53416 -2.03312 0
M  V30 13118 H 1205.16 -3.10547 -1.46339 0
M  V30 13119 N 1207.61 1.06304 -1.1635 0
M  V30 13120 C 1208.55 2.13776 -0.869965 0
M  V30 13121 C 1209.52 1.65105 0.181541 0
M  V30 13122 O 1210.71 1.90743 0.0467705 0
M  V30 13123 C 1207.85 3.43034 -0.377077 0
M  V30 13124 C 1206.96 4.0544 -1.4914 0
M  V30 13125 C 1206.1 5.22572 -0.953538 0
M  V30 13126 C 1205.14 5.76961 -2.04407 0
M  V30 13127 N 1204.27 6.85409 -1.52181 0
M  V30 13128 H 1209.11 2.38224 -1.79034 0
M  V30 13129 H 1206.65 1.16882 -0.893136 0
M  V30 13130 H 1208.61 4.17136 -0.0729426 0
M  V30 13131 H 1207.24 3.18804 0.506359 0
M  V30 13132 H 1206.29 3.28886 -1.9115 0
M  V30 13133 H 1207.6 4.41859 -2.31434 0
M  V30 13134 H 1206.76 6.037 -0.602579 0
M  V30 13135 H 1205.5 4.87598 -0.099897 0
M  V30 13136 H 1204.5 4.9447 -2.40373 0
M  V30 13137 H 1205.73 6.13987 -2.90167 0
M  V30 13138 H 1203.67 6.52354 -0.690697 0
M  V30 13139 H 1203.59 7.2077 -2.28092 0
M  V30 13140 H 1204.86 7.70217 -1.19942 0
M  V30 13141 N 1209.09 0.96196 1.24836 0
M  V30 13142 C 1210 0.494876 2.29321 0
M  V30 13143 C 1211.01 -0.441363 1.68309 0
M  V30 13144 O 1212.19 -0.315814 1.98908 0
M  V30 13145 C 1209.25 -0.212944 3.46045 0
M  V30 13146 C 1208.31 0.762411 4.22476 0
M  V30 13147 C 1207.55 0.0882756 5.33627 0
M  V30 13148 O 1207.77 -1.12459 5.59204 0
M  V30 13149 O 1206.7 0.777529 5.96857 0
M  V30 13150 H 1210.53 1.36333 2.7138 0
M  V30 13151 H 1208.11 0.728738 1.30421 0
M  V30 13152 H 1210 -0.610805 4.1695 0
M  V30 13153 H 1208.67 -1.05645 3.05975 0
M  V30 13154 H 1207.58 1.21062 3.5397 0
M  V30 13155 H 1208.91 1.57416 4.66349 0
M  V30 13156 N 1210.56 -1.39601 0.731392 0
M  V30 13157 C 1211.81 -2.01364 0.287048 0
M  V30 13158 C 1212.16 -1.56991 -1.11227 0
M  V30 13159 O 1211.46 -0.787202 -1.74682 0
M  V30 13160 C 1211.65 -3.55934 0.323352 0
M  V30 13161 C 1211.48 -4.15314 1.72466 0
M  V30 13162 C 1210.25 -4.48059 2.33605 0
M  V30 13163 C 1212.45 -4.39098 2.67764 0
M  V30 13164 N 1210.43 -4.9292 3.65927 0
M  V30 13165 C 1211.8 -4.86124 3.84816 0
M  V30 13166 C 1213.86 -4.2116 2.65572 0
M  V30 13167 C 1212.56 -5.17095 5.00005 0
M  V30 13168 C 1214.59 -4.53242 3.79902 0
M  V30 13169 C 1213.95 -5.00471 4.95689 0
M  V30 13170 H 1210.05 -0.76724 0.151217 0
M  V30 13171 H 1212.63 -1.6958 0.956588 0
M  V30 13172 H 1210.8 -3.87114 -0.315819 0
M  V30 13173 H 1212.53 -4.04461 -0.1392 0
M  V30 13174 H 1209.29 -4.35734 1.85561 0
M  V30 13175 H 1209.71 -5.19713 4.33851 0
M  V30 13176 H 1214.35 -3.83852 1.77251 0
M  V30 13177 H 1212.07 -5.5331 5.8896 0
M  V30 13178 H 1215.66 -4.40988 3.795 0
M  V30 13179 H 1214.54 -5.24826 5.8269 0
M  V30 13180 N 1212.04 -0.478751 -1.50152 0
M  V30 13181 C 1213.27 0.0710485 -2.06778 0
M  V30 13182 C 1213.69 1.32826 -1.34174 0
M  V30 13183 O 1213.04 1.77758 -0.413304 0
M  V30 13184 C 1213.09 0.351351 -3.59789 0
M  V30 13185 O 1212.81 -0.855998 -4.29656 0
M  V30 13186 C 1214.32 0.947269 -4.33061 0
M  V30 13187 H 1211.54 -0.0105032 -0.670918 0
M  V30 13188 H 1214.08 -0.669732 -1.93222 0
M  V30 13189 H 1212.23 1.04207 -3.73121 0
M  V30 13190 H 1212.65 -0.605252 -5.20996 0
M  V30 13191 H 1214.12 1.09312 -5.41068 0
M  V30 13192 H 1214.6 1.93937 -3.94062 0
M  V30 13193 H 1215.21 0.294693 -4.24278 0
M  V30 13194 N 1213.52 1.56172 -0.211661 0
M  V30 13195 C 1214.47 2.19849 0.702515 0
M  V30 13196 C 1215.44 1.15091 1.19763 0
M  V30 13197 O 1216.62 1.43408 1.25852 0
M  V30 13198 C 1213.76 2.87468 1.90935 0
M  V30 13199 C 1212.88 4.06794 1.45406 0
M  V30 13200 C 1212.01 4.62224 2.61769 0
M  V30 13201 C 1211.05 5.73872 2.12926 0
M  V30 13202 N 1210.19 6.23635 3.22526 0
M  V30 13203 H 1215.03 2.97608 0.152777 0
M  V30 13204 H 1212.56 1.46962 0.0636596 0
M  V30 13205 H 1214.52 3.24851 2.61777 0
M  V30 13206 H 1213.15 2.12244 2.43213 0
M  V30 13207 H 1212.2 3.74962 0.640907 0
M  V30 13208 H 1213.52 4.87497 1.05584 0
M  V30 13209 H 1212.67 5.01999 3.40709 0
M  V30 13210 H 1211.41 3.80662 3.04873 0
M  V30 13211 H 1210.41 5.33609 1.32445 0
M  V30 13212 H 1211.64 6.57262 1.70833 0
M  V30 13213 H 1209.58 5.44991 3.65131 0
M  V30 13214 H 1209.5 6.99435 2.86926 0
M  V30 13215 H 1210.77 6.68066 4.01631 0
M  V30 13216 N 1215 -0.0618163 1.57479 0
M  V30 13217 C 1215.95 -1.0724 2.04373 0
M  V30 13218 C 1216.92 -1.37875 0.926271 0
M  V30 13219 O 1218.1 -1.48772 1.19463 0
M  V30 13220 C 1215.24 -2.37805 2.50085 0
M  V30 13221 C 1214.35 -2.13614 3.7549 0
M  V30 13222 C 1213.49 -3.37814 4.09945 0
M  V30 13223 C 1212.53 -3.09032 5.28361 0
M  V30 13224 N 1211.66 -4.25591 5.58406 0
M  V30 13225 H 1216.5 -0.665536 2.90473 0
M  V30 13226 H 1214.04 -0.317043 1.43643 0
M  V30 13227 H 1216 -3.14048 2.74644 0
M  V30 13228 H 1214.63 -2.76275 1.66948 0
M  V30 13229 H 1213.68 -1.28017 3.58212 0
M  V30 13230 H 1214.99 -1.88361 4.61867 0
M  V30 13231 H 1214.15 -4.22447 4.35458 0
M  V30 13232 H 1212.89 -3.66153 3.22154 0
M  V30 13233 H 1211.89 -2.22797 5.02635 0
M  V30 13234 H 1213.12 -2.82006 6.17778 0
M  V30 13235 H 1211.06 -4.53941 4.73575 0
M  V30 13236 H 1210.98 -4.03646 6.39223 0
M  V30 13237 H 1212.25 -5.11191 5.88476 0
M  V30 13238 N 1216.48 -1.54033 -0.333429 0
M  V30 13239 C 1217.72 -1.72019 -1.07411 0
M  V30 13240 C 1218.06 -0.487265 -1.87988 0
M  V30 13241 O 1217.33 0.515757 -1.87537 0
M  V30 13242 C 1217.61 -2.98986 -2.00698 0
M  V30 13243 C 1217.47 -4.32509 -1.23517 0
M  V30 13244 C 1218.79 -3.21663 -3.00368 0
M  V30 13245 H 1215.9 -0.625919 -0.389094 0
M  V30 13246 H 1218.55 -1.86717 -0.351697 0
M  V30 13247 H 1216.7 -2.86586 -2.62298 0
M  V30 13248 H 1218.37 -4.56775 -0.644522 0
M  V30 13249 H 1216.61 -4.3046 -0.537298 0
M  V30 13250 H 1217.28 -5.17547 -1.91962 0
M  V30 13251 H 1219.76 -3.33459 -2.48886 0
M  V30 13252 H 1218.63 -4.11877 -3.62834 0
M  V30 13253 H 1218.9 -2.3843 -3.72295 0
M  V30 13254 N 1217.95 0.594978 -1.45938 0
M  V30 13255 C 1219.2 1.34976 -1.49881 0
M  V30 13256 C 1219.52 1.95025 -0.14983 0
M  V30 13257 O 1220.72 2.71417 -0.0669868 0
M  V30 13258 C 1219.18 2.44563 -2.6404 0
M  V30 13259 C 1218.79 1.9087 -4.05306 0
M  V30 13260 C 1220.53 3.21461 -2.77242 0
M  V30 13261 C 1218.44 2.98013 -5.10825 0
M  V30 13262 H 1217.37 0.507366 -0.55776 0
M  V30 13263 H 1220.02 0.636316 -1.72114 0
M  V30 13264 H 1218.4 3.1865 -2.35114 0
M  V30 13265 H 1219.57 1.23408 -4.43968 0
M  V30 13266 H 1217.89 1.26678 -3.96663 0
M  V30 13267 H 1220.49 4.01399 -3.53246 0
M  V30 13268 H 1220.83 3.73271 -1.84321 0
M  V30 13269 H 1221.36 2.54477 -3.05756 0
M  V30 13270 H 1218.1 2.51104 -6.05497 0
M  V30 13271 H 1217.62 3.64003 -4.7672 0
M  V30 13272 H 1219.3 3.62178 -5.36131 0
M  V30 13273 N 1219.43 1.33438 0.838571 0
M  V30 13274 C 1220.85 1.12779 1.12929 0
M  V30 13275 C 1221.05 -0.0811188 2.01337 0
M  V30 13276 O 1220.1 -0.761294 2.4075 0
M  V30 13277 C 1221.42 2.41537 1.7911 0
M  V30 13278 C 1222.97 2.47447 1.91674 0
M  V30 13279 C 1223.44 3.76167 2.6127 0
M  V30 13280 N 1224.93 3.7724 2.68783 0
M  V30 13281 C 1225.67 4.7355 3.23323 0
M  V30 13282 N 1225.16 5.80235 3.78549 0
M  V30 13283 N 1226.96 4.61025 3.21578 0
M  V30 13284 H 1219.11 2.10921 0.250187 0
M  V30 13285 H 1221.37 0.931986 0.17351 0
M  V30 13286 H 1221.08 3.30006 1.21609 0
M  V30 13287 H 1220.95 2.53709 2.79127 0
M  V30 13288 H 1223.34 1.59427 2.48328 0
M  V30 13289 H 1223.42 2.39216 0.906058 0
M  V30 13290 H 1223.06 4.64569 2.05275 0
M  V30 13291 H 1222.99 3.81675 3.62811 0
M  V30 13292 H 1225.48 3.00138 2.29621 0
M  V30 13293 H 1225.8 6.49759 4.1837 0
M  V30 13294 H 1224.14 5.83969 3.76836 0
M  V30 13295 H 1227.33 3.76836 2.77691 0
M  V30 13296 H 1227.5 5.36253 3.63781 0
M  V30 13297 N 1220.91 -1.05686 1.16912 0
M  V30 13298 C 1221.86 -2.15417 0.877404 0
M  V30 13299 C 1222.85 -1.6868 -0.155986 0
M  V30 13300 O 1224.06 -1.79998 -0.00938156 0
M  V30 13301 H 1220.43 -0.70332 0.266168 0
M  V30 13302 H 1222.4 -2.37228 1.81012 0
M  V30 13303 C 1221.15 -3.45372 0.401696 0
M  V30 13304 H 1220.48 -3.81732 1.18832 0
M  V30 13305 H 1221.92 -4.2334 0.236418 0
M  V30 13306 C 1220.38 -3.25209 -0.87981 0
M  V30 13307 O 1220.91 -3.51322 -1.94771 0
M  V30 13308 N 1219.11 -2.78614 -0.825997 0
M  V30 13309 H 1218.66 -2.57564 0.0432439 0
M  V30 13310 H 1218.62 -2.65503 -1.68391 0
M  V30 13311 N 1222.39 -0.968567 -1.24324 0
M  V30 13312 C 1223.64 -0.626519 -1.91723 0
M  V30 13313 C 1223.95 0.84225 -1.76538 0
M  V30 13314 O 1225.16 1.29486 -2.38633 0
M  V30 13315 C 1223.61 -1.06992 -3.43629 0
M  V30 13316 C 1223.22 -2.5622 -3.67499 0
M  V30 13317 C 1224.96 -0.801057 -4.16873 0
M  V30 13318 C 1222.87 -2.94288 -5.1298 0
M  V30 13319 H 1221.8 -0.23062 -0.717865 0
M  V30 13320 H 1224.45 -1.17489 -1.40956 0
M  V30 13321 H 1222.83 -0.44985 -3.93437 0
M  V30 13322 H 1224.01 -3.23364 -3.28287 0
M  V30 13323 H 1222.32 -2.80726 -3.07542 0
M  V30 13324 H 1224.92 -1.06147 -5.24058 0
M  V30 13325 H 1225.26 0.262742 -4.1547 0
M  V30 13326 H 1225.8 -1.38213 -3.73017 0
M  V30 13327 H 1222.54 -3.99743 -5.19506 0
M  V30 13328 H 1222.06 -2.31829 -5.53187 0
M  V30 13329 H 1223.73 -2.84242 -5.81219 0
M  V30 13330 N 1223.87 1.39211 -0.738786 0
M  V30 13331 C 1224.83 2.28937 -0.109746 0
M  V30 13332 C 1225.83 1.46488 0.663157 0
M  V30 13333 O 1227.02 1.67119 0.491614 0
M  V30 13334 C 1224.15 3.30039 0.853633 0
M  V30 13335 H 1225.34 2.86068 -0.900295 0
M  V30 13336 H 1222.9 1.47922 -0.504853 0
M  V30 13337 H 1223.63 2.77971 1.6704 0
M  V30 13338 H 1223.42 3.90935 0.302007 0
M  V30 13339 H 1224.91 3.97169 1.29022 0
M  V30 13340 N 1225.34 0.486708 1.49896 0
M  V30 13341 C 1226.58 -0.0613987 2.04308 0
M  V30 13342 C 1226.95 -1.3558 1.35948 0
M  V30 13343 O 1228.15 -1.98726 1.81001 0
M  V30 13344 C 1226.42 -0.225167 3.5669 0
M  V30 13345 S 1227.98 -0.729581 4.32692 0
M  V30 13346 H 1224.8 -0.00856238 0.710948 0
M  V30 13347 H 1227.4 0.657414 1.84115 0
M  V30 13348 H 1226.1 0.722447 4.03991 0
M  V30 13349 H 1225.63 -0.969639 3.81263 0
M  V30 13350 H 1227.65 -2.00082 4.54072 0
M  V30 13351 N 1226.82 -1.56058 0.219941 0
M  V30 13352 C 1228.05 -2.031 -0.42014 0
M  V30 13353 C 1228.47 -1.09875 -1.52673 0
M  V30 13354 O 1227.83 -0.0866458 -1.81093 0
M  V30 13355 C 1227.88 -3.48389 -0.93047 0
M  V30 13356 O 1226.98 -3.583 -2.04192 0
M  V30 13357 H 1226.32 -0.657129 -0.0952772 0
M  V30 13358 H 1228.85 -2.01787 0.338105 0
M  V30 13359 H 1228.86 -3.88678 -1.2407 0
M  V30 13360 H 1227.54 -4.15725 -0.120539 0
M  V30 13361 H 1226.12 -3.29898 -1.73845 0
M  V30 13362 N 1228.3 0.053464 -1.57509 0
M  V30 13363 C 1229.55 0.747622 -1.87763 0
M  V30 13364 C 1229.87 1.77178 -0.814433 0
M  V30 13365 O 1229.14 1.95287 0.154862 0
M  V30 13366 H 1227.72 0.279109 -0.692898 0
M  V30 13367 H 1230.38 0.0252006 -1.94884 0
M  V30 13368 H 1229.48 1.25244 -2.85868 0
M  V30 13369 N 1229.78 1.54207 0.325255 0
M  V30 13370 C 1230.73 1.83474 1.40021 0
M  V30 13371 C 1231.7 0.681719 1.51466 0
M  V30 13372 O 1232.88 0.92798 1.66713 0
M  V30 13373 C 1230.02 2.06624 2.76407 0
M  V30 13374 C 1229.13 3.3431 2.73607 0
M  V30 13375 C 1228.27 3.4743 4.01828 0
M  V30 13376 C 1227.31 4.68997 3.93329 0
M  V30 13377 N 1226.45 4.79052 5.13277 0
M  V30 13378 H 1231.29 2.75182 1.14363 0
M  V30 13379 H 1228.82 1.36284 0.553639 0
M  V30 13380 H 1230.78 2.18037 3.5569 0
M  V30 13381 H 1229.41 1.18209 3.00377 0
M  V30 13382 H 1228.46 3.31643 1.86324 0
M  V30 13383 H 1229.77 4.237 2.6321 0
M  V30 13384 H 1228.93 3.58376 4.89542 0
M  V30 13385 H 1227.67 2.56128 4.1503 0
M  V30 13386 H 1226.67 4.58109 3.04 0
M  V30 13387 H 1227.9 5.61681 3.81695 0
M  V30 13388 H 1225.84 3.90666 5.26988 0
M  V30 13389 H 1225.76 5.62406 5.05208 0
M  V30 13390 H 1227.03 4.94328 6.02711 0
M  V30 13391 N 1231.26 -0.58723 1.46251 0
M  V30 13392 C 1232.5 -1.3456 1.51327 0
M  V30 13393 C 1232.83 -1.93815 0.163146 0
M  V30 13394 O 1232.09 -1.76723 -0.840677 0
M  V30 13395 C 1232.39 -2.49776 2.5563 0
M  V30 13396 C 1232.05 -2.08543 3.99776 0
M  V30 13397 C 1230.71 -1.97013 4.39021 0
M  V30 13398 C 1233.07 -1.76669 4.90344 0
M  V30 13399 C 1230.39 -1.5186 5.66706 0
M  V30 13400 C 1232.75 -1.32996 6.18462 0
M  V30 13401 C 1231.41 -1.20039 6.56618 0
M  V30 13402 H 1230.68 -0.492391 0.553744 0
M  V30 13403 H 1233.33 -0.661715 1.79704 0
M  V30 13404 H 1231.63 -3.23592 2.20897 0
M  V30 13405 H 1233.33 -3.07995 2.56788 0
M  V30 13406 H 1229.92 -2.18451 3.68751 0
M  V30 13407 H 1234.1 -1.84465 4.60746 0
M  V30 13408 H 1229.36 -1.40467 5.95045 0
M  V30 13409 H 1233.53 -1.07385 6.88071 0
M  V30 13410 H 1231.16 -0.848268 7.55452 0
M  V30 13411 N 1232.74 -1.33881 -0.831482 0
M  V30 13412 C 1233.96 -1.28961 -1.62431 0
M  V30 13413 C 1234.39 0.135249 -1.87613 0
M  V30 13414 O 1233.74 1.09426 -1.44553 0
M  V30 13415 C 1233.79 -2.07767 -2.94729 0
M  V30 13416 O 1232.9 -1.44133 -3.86393 0
M  V30 13417 H 1232.24 -0.443313 -0.494337 0
M  V30 13418 H 1234.77 -1.76555 -1.0339 0
M  V30 13419 H 1234.78 -2.18806 -3.44366 0
M  V30 13420 H 1233.45 -3.11367 -2.75724 0
M  V30 13421 H 1232.03 -1.41784 -3.44894 0
M  V30 13422 N 1234.21 1.05064 -1.1747 0
M  V30 13423 C 1235.44 1.82299 -0.98903 0
M  V30 13424 C 1235.86 1.82441 0.457907 0
M  V30 13425 O 1235.22 1.23433 1.32793 0
M  V30 13426 C 1235.27 3.26239 -1.53624 0
M  V30 13427 O 1234.37 4.05507 -0.750857 0
M  V30 13428 H 1233.71 0.563601 -0.35107 0
M  V30 13429 H 1236.24 1.32386 -1.55997 0
M  V30 13430 H 1236.25 3.77038 -1.55906 0
M  V30 13431 H 1234.93 3.25451 -2.58949 0
M  V30 13432 H 1233.51 3.64227 -0.799548 0
M  V30 13433 N 1235.69 0.975146 1.23809 0
M  V30 13434 C 1236.97 0.557725 1.8748 0
M  V30 13435 C 1237.35 -0.965164 1.87744 0
M  V30 13436 O 1236.7 -1.83966 1.35531 0
M  V30 13437 C 1236.91 1.15777 3.29236 0
M  V30 13438 C 1238.25 1.24726 4.05868 0
M  V30 13439 O 1239.28 1.11084 3.38436 0
M  V30 13440 O 1238.14 1.46373 5.26533 0
M  V30 13441 H 1235.23 0.187045 0.80557 0
M  V30 13442 H 1237.78 1.06989 1.31725 0
M  V30 13443 H 1236.55 2.20023 3.23583 0
M  V30 13444 H 1236.17 0.630103 3.92575 0
M  V30 13445 N 1237.17 -1.38817 0.746158 0
M  V30 13446 C 1238.59 -1.53894 0.42294 0
M  V30 13447 C 1238.79 -1.71064 -1.06486 0
M  V30 13448 O 1237.84 -1.71744 -1.85095 0
M  V30 13449 C 1239.15 -2.75029 1.2157 0
M  V30 13450 C 1240.7 -2.88873 1.20504 0
M  V30 13451 C 1241.18 -4.1296 1.9806 0
M  V30 13452 N 1242.67 -4.20022 1.95283 0
M  V30 13453 C 1243.4 -5.15011 2.52093 0
M  V30 13454 N 1242.9 -6.1572 3.17586 0
M  V30 13455 N 1244.69 -5.07308 2.42064 0
M  V30 13456 H 1236.84 -1.25921 1.71049 0
M  V30 13457 H 1239.11 -0.611148 0.724708 0
M  V30 13458 H 1238.81 -2.68722 2.26895 0
M  V30 13459 H 1238.69 -3.68009 0.827593 0
M  V30 13460 H 1241.07 -2.94667 0.159877 0
M  V30 13461 H 1241.15 -1.96925 1.63261 0
M  V30 13462 H 1240.8 -4.07929 3.02583 0
M  V30 13463 H 1240.73 -5.03974 1.52702 0
M  V30 13464 H 1243.22 -3.47892 1.4758 0
M  V30 13465 H 1243.53 -6.84682 3.58373 0
M  V30 13466 H 1241.88 -6.16075 3.21678 0
M  V30 13467 H 1245.07 -4.27569 1.90532 0
M  V30 13468 H 1245.24 -5.81158 2.86635 0
M  V30 13469 N 1238.65 -0.49465 -1.49636 0
M  V30 13470 C 1239.88 0.0491129 -2.06842 0
M  V30 13471 C 1240.29 1.31395 -1.35576 0
M  V30 13472 O 1239.65 1.7731 -0.432135 0
M  V30 13473 C 1239.7 0.313171 -3.60141 0
M  V30 13474 O 1239.42 -0.90152 -4.28724 0
M  V30 13475 C 1240.92 0.901284 -4.34041 0
M  V30 13476 H 1238.14 -0.0176186 -0.670769 0
M  V30 13477 H 1240.68 -0.690188 -1.92501 0
M  V30 13478 H 1238.84 1.00244 -3.74206 0
M  V30 13479 H 1239.25 -0.660477 -5.20325 0
M  V30 13480 H 1240.73 1.03567 -5.42197 0
M  V30 13481 H 1241.2 1.89746 -3.96097 0
M  V30 13482 H 1241.81 0.249677 -4.24566 0
M  V30 13483 N 1240.13 1.55939 -0.228214 0
M  V30 13484 C 1241.37 1.97652 0.402067 0
M  V30 13485 C 1241.69 1.11911 1.60422 0
M  V30 13486 O 1242.89 1.43552 2.30445 0
M  V30 13487 C 1241.35 3.51638 0.766724 0
M  V30 13488 C 1240.96 4.46092 -0.412991 0
M  V30 13489 C 1242.7 4.02049 1.36224 0
M  V30 13490 C 1240.61 5.91394 -0.0255281 0
M  V30 13491 H 1239.54 0.738107 0.153994 0
M  V30 13492 H 1242.19 1.8059 -0.32548 0
M  V30 13493 H 1240.57 3.64325 1.55188 0
M  V30 13494 H 1241.75 4.45156 -1.19049 0
M  V30 13495 H 1240.06 4.0606 -0.92218 0
M  V30 13496 H 1242.66 5.08111 1.66514 0
M  V30 13497 H 1243 3.48292 2.28032 0
M  V30 13498 H 1243.53 3.92612 0.640378 0
M  V30 13499 H 1240.27 6.49149 -0.910269 0
M  V30 13500 H 1239.79 5.95509 0.716149 0
M  V30 13501 H 1241.47 6.4577 0.398839 0
M  V30 13502 N 1241.6 -0.0451101 1.57535 0
M  V30 13503 C 1242.83 -0.75132 1.92777 0
M  V30 13504 C 1243.25 -1.69743 0.826599 0
M  V30 13505 O 1242.6 -1.8142 -0.198224 0
M  V30 13506 C 1242.66 -1.52218 3.2789 0
M  V30 13507 O 1242.38 -0.614059 4.33775 0
M  V30 13508 C 1243.88 -2.32699 3.77314 0
M  V30 13509 H 1241.1 -0.21211 0.636593 0
M  V30 13510 H 1243.64 -0.0074174 2.04499 0
M  V30 13511 H 1241.8 -2.2181 3.17614 0
M  V30 13512 H 1242.21 -1.15294 5.11671 0
M  V30 13513 H 1243.68 -2.82205 4.7441 0
M  V30 13514 H 1244.16 -3.13414 3.07682 0
M  V30 13515 H 1244.77 -1.68212 3.90621 0
M  V30 13516 N 1243.08 -1.54377 -0.317073 0
M  V30 13517 C 1243.99 -1.87247 -1.41335 0
M  V30 13518 C 1245.01 -0.765017 -1.5628 0
M  V30 13519 O 1246.18 -1.05994 -1.71252 0
M  V30 13520 C 1243.25 -2.0988 -2.75955 0
M  V30 13521 C 1242.31 -3.33658 -2.70131 0
M  V30 13522 C 1241.54 -3.55202 -3.9833 0
M  V30 13523 O 1241.77 -2.80061 -4.96913 0
M  V30 13524 O 1240.7 -4.48693 -4.01196 0
M  V30 13525 H 1244.53 -2.80481 -1.16465 0
M  V30 13526 H 1242.11 -1.40364 -0.511687 0
M  V30 13527 H 1243.99 -2.2606 -3.55633 0
M  V30 13528 H 1242.67 -1.19834 -3.00702 0
M  V30 13529 H 1241.58 -3.22857 -1.88981 0
M  V30 13530 H 1242.91 -4.23782 -2.50338 0
M  V30 13531 N 1244.56 0.579466 -1.4656 0
M  V30 13532 C 1245.79 1.36153 -1.55389 0
M  V30 13533 C 1246.2 1.88192 -0.195062 0
M  V30 13534 O 1245.54 1.64464 0.81836 0
M  V30 13535 C 1245.6 2.58269 -2.50075 0
M  V30 13536 C 1245.27 2.27675 -3.96249 0
M  V30 13537 C 1246.26 1.86313 -4.85369 0
M  V30 13538 C 1243.95 2.39719 -4.41407 0
M  V30 13539 C 1245.94 1.57395 -6.17661 0
M  V30 13540 C 1243.63 2.10414 -5.73733 0
M  V30 13541 C 1244.63 1.69317 -6.6168 0
M  V30 13542 O 1244.32 1.40373 -7.9155 0
M  V30 13543 H 1244.05 0.422174 -0.527963 0
M  V30 13544 H 1246.6 0.711089 -1.92698 0
M  V30 13545 H 1244.83 3.26129 -2.0779 0
M  V30 13546 H 1246.52 3.20339 -2.49275 0
M  V30 13547 H 1247.29 1.7652 -4.51736 0
M  V30 13548 H 1243.17 2.70669 -3.73175 0
M  V30 13549 H 1246.71 1.25244 -6.86265 0
M  V30 13550 H 1242.61 2.19833 -6.06913 0
M  V30 13551 H 1243.38 1.54191 -8.03845 0
M  V30 13552 N 1246.04 1.3432 0.824371 0
M  V30 13553 C 1247 1.25672 1.91675 0
M  V30 13554 C 1248 0.172269 1.59875 0
M  V30 13555 O 1249.19 0.424794 1.68941 0
M  V30 13556 C 1246.32 0.939928 3.27686 0
M  V30 13557 H 1247.52 2.22785 2.00766 0
M  V30 13558 H 1245.07 1.18587 1.01817 0
M  V30 13559 H 1245.8 -0.0280898 3.24288 0
M  V30 13560 H 1245.59 1.72432 3.5215 0
M  V30 13561 H 1247.08 0.904553 4.07686 0
M  V30 13562 N 1247.52 -1.0444 1.18026 0
M  V30 13563 C 1248.93 -1.29766 0.929143 0
M  V30 13564 C 1249.13 -1.97338 -0.407436 0
M  V30 13565 O 1248.19 -2.25166 -1.14265 0
M  V30 13566 C 1249.5 -2.16002 2.09197 0
M  V30 13567 C 1251.05 -2.29361 2.12985 0
M  V30 13568 C 1251.52 -3.18962 3.28675 0
M  V30 13569 N 1253.02 -3.26549 3.28512 0
M  V30 13570 C 1253.75 -3.96025 4.14671 0
M  V30 13571 N 1253.25 -4.67863 5.10956 0
M  V30 13572 N 1255.04 -3.92266 4.02597 0
M  V30 13573 H 1247.19 -0.58984 2.04046 0
M  V30 13574 H 1249.45 -0.322752 0.891367 0
M  V30 13575 H 1249.16 -1.73653 3.05839 0
M  V30 13576 H 1249.03 -3.16667 2.04943 0
M  V30 13577 H 1251.42 -2.70948 1.16924 0
M  V30 13578 H 1251.5 -1.28299 2.21298 0
M  V30 13579 H 1251.15 -2.78087 4.25006 0
M  V30 13580 H 1251.08 -4.20047 3.17598 0
M  V30 13581 H 1253.57 -2.75371 2.58804 0
M  V30 13582 H 1253.88 -5.1846 5.73079 0
M  V30 13583 H 1252.22 -4.6678 5.14919 0
M  V30 13584 H 1255.42 -3.35273 3.26665 0
M  V30 13585 H 1255.59 -4.4614 4.69961 0
M  V30 13586 N 1248.99 -0.981699 -1.2329 0
M  V30 13587 C 1249.9 -0.531296 -2.28505 0
M  V30 13588 C 1250.92 0.414531 -1.6899 0
M  V30 13589 O 1252.1 0.284129 -1.99386 0
M  V30 13590 C 1249.16 0.157864 -3.4634 0
M  V30 13591 C 1248.22 -0.829527 -4.21209 0
M  V30 13592 C 1247.46 -0.17316 -5.33419 0
M  V30 13593 O 1247.68 1.03549 -5.60922 0
M  V30 13594 O 1246.61 -0.872385 -5.95544 0
M  V30 13595 H 1250.44 -1.40633 -2.69177 0
M  V30 13596 H 1248.02 -0.749395 -1.29246 0
M  V30 13597 H 1249.91 0.544394 -4.17869 0
M  V30 13598 H 1248.58 1.00764 -3.07617 0
M  V30 13599 H 1247.49 -1.26678 -3.51999 0
M  V30 13600 H 1248.82 -1.64815 -4.63785 0
M  V30 13601 N 1250.47 1.3842 -0.753509 0
M  V30 13602 C 1251.72 1.99359 -0.306416 0
M  V30 13603 C 1252.03 1.60492 1.11811 0
M  V30 13604 O 1253.24 2.14401 1.66567 0
M  V30 13605 C 1251.7 3.56453 -0.496895 0
M  V30 13606 C 1251.3 4.04272 -1.9305 0
M  V30 13607 C 1253.05 4.24351 -0.11251 0
M  V30 13608 C 1250.96 5.54007 -2.06955 0
M  V30 13609 H 1249.89 0.745812 -0.110818 0
M  V30 13610 H 1252.54 1.58185 -0.930039 0
M  V30 13611 H 1250.92 3.95515 0.195912 0
M  V30 13612 H 1252.09 3.765 -2.65677 0
M  V30 13613 H 1250.41 3.49098 -2.26979 0
M  V30 13614 H 1253 5.34344 -0.195161 0
M  V30 13615 H 1253.35 4.05668 0.934849 0
M  V30 13616 H 1253.88 3.90528 -0.757168 0
M  V30 13617 H 1250.62 5.77594 -3.09944 0
M  V30 13618 H 1250.14 5.83522 -1.38788 0
M  V30 13619 H 1251.82 6.19704 -1.85945 0
M  V30 13620 N 1251.95 0.502579 1.49372 0
M  V30 13621 C 1253.2 -0.0334303 2.03373 0
M  V30 13622 C 1253.55 -1.34548 1.3753 0
M  V30 13623 O 1252.84 -1.84894 0.502484 0
M  V30 13624 C 1253.04 -0.240835 3.56588 0
M  V30 13625 C 1252.87 1.04956 4.37281 0
M  V30 13626 C 1251.64 1.6018 4.7924 0
M  V30 13627 C 1253.84 1.95323 4.75766 0
M  V30 13628 N 1251.82 2.83793 5.44366 0
M  V30 13629 C 1253.19 3.03516 5.40628 0
M  V30 13630 C 1255.24 1.95982 4.57707 0
M  V30 13631 C 1253.95 4.12396 5.89341 0
M  V30 13632 C 1255.97 3.03839 5.07382 0
M  V30 13633 C 1255.33 4.10749 5.72245 0
M  V30 13634 H 1251.43 0.0285863 0.781477 0
M  V30 13635 H 1254.02 0.677787 1.82522 0
M  V30 13636 H 1252.19 -0.921111 3.7732 0
M  V30 13637 H 1253.92 -0.773993 3.9723 0
M  V30 13638 H 1250.68 1.14674 4.59507 0
M  V30 13639 H 1251.1 3.46654 5.81515 0
M  V30 13640 H 1255.74 1.14632 4.06963 0
M  V30 13641 H 1253.46 4.94542 6.39104 0
M  V30 13642 H 1257.05 3.0537 4.95218 0
M  V30 13643 H 1255.93 4.92833 6.09988 0
M  V30 13644 N 1253.43 -1.55816 0.23648 0
M  V30 13645 C 1254.68 -1.98294 -0.390373 0
M  V30 13646 C 1255 -1.12573 -1.59224 0
M  V30 13647 O 1254.27 -0.206128 -1.94813 0
M  V30 13648 H 1252.85 -0.732349 -0.14722 0
M  V30 13649 H 1255.51 -1.92037 0.332848 0
M  V30 13650 H 1254.61 -3.03996 -0.706595 0
M  V30 13651 N 1254.91 0.036755 -1.57557 0
M  V30 13652 C 1256.15 0.730186 -1.89199 0
M  V30 13653 C 1256.49 1.75414 -0.833271 0
M  V30 13654 O 1255.76 1.93901 0.152579 0
M  V30 13655 C 1256.04 1.40669 -3.31488 0
M  V30 13656 C 1255.9 0.396764 -4.48047 0
M  V30 13657 C 1257.22 2.34268 -3.72567 0
M  V30 13658 H 1254.33 0.263983 -0.6881 0
M  V30 13659 H 1256.98 -0.0069847 -1.89999 0
M  V30 13660 H 1255.13 2.03502 -3.30937 0
M  V30 13661 H 1256.8 -0.229062 -4.60731 0
M  V30 13662 H 1255.04 -0.284698 -4.32865 0
M  V30 13663 H 1255.71 0.908436 -5.44474 0
M  V30 13664 H 1258.19 1.81485 -3.74436 0
M  V30 13665 H 1257.06 2.78587 -4.72949 0
M  V30 13666 H 1257.33 3.20611 -3.04403 0
M  V30 13667 N 1256.39 1.54543 0.308881 0
M  V30 13668 C 1257.3 1.87994 1.4034 0
M  V30 13669 C 1258.31 0.773294 1.55872 0
M  V30 13670 O 1259.49 1.069 1.70688 0
M  V30 13671 C 1256.55 2.11341 2.74838 0
M  V30 13672 C 1255.61 3.35086 2.68358 0
M  V30 13673 C 1254.85 3.5731 3.96441 0
M  V30 13674 O 1255.07 2.82692 4.9542 0
M  V30 13675 O 1254 4.50814 3.98811 0
M  V30 13676 H 1257.83 2.81094 1.14976 0
M  V30 13677 H 1255.41 1.40634 0.504236 0
M  V30 13678 H 1257.3 2.27943 3.54429 0
M  V30 13679 H 1255.97 1.21427 3.00062 0
M  V30 13680 H 1254.88 3.23855 1.87267 0
M  V30 13681 H 1256.21 4.25104 2.48087 0
M  V30 13682 N 1257.86 -0.571685 1.46866 0
M  V30 13683 C 1259.27 -1.15383 1.46778 0
M  V30 13684 C 1259.63 -1.95023 0.214576 0
M  V30 13685 O 1258.75 -2.05386 -0.681574 0
M  V30 13686 C 1259.35 -2.09915 2.65935 0
M  V30 13687 C 1257.9 -2.6343 2.68852 0
M  V30 13688 C 1257.05 -1.39517 2.39646 0
M  V30 13689 H 1260 -0.359036 1.54585 0
M  V30 13690 H 1260.02 -2.9356 2.42081 0
M  V30 13691 H 1259.54 -1.51923 3.57129 0
M  V30 13692 H 1257.64 -3.2526 1.8176 0
M  V30 13693 H 1257.75 -3.05412 3.69134 0
M  V30 13694 H 1256.11 -1.69702 1.8993 0
M  V30 13695 H 1256.9 -0.833399 3.33031 0
M  V30 13696 N 1259.34 -1.34755 -0.817236 0
M  V30 13697 C 1260.57 -1.30676 -1.61054 0
M  V30 13698 C 1260.99 0.115343 -1.87746 0
M  V30 13699 O 1260.35 1.07887 -1.45705 0
M  V30 13700 C 1260.4 -2.10881 -2.92509 0
M  V30 13701 O 1259.5 -1.48223 -3.84842 0
M  V30 13702 H 1258.84 -0.448531 -0.489608 0
M  V30 13703 H 1261.37 -1.77642 -1.01512 0
M  V30 13704 H 1261.38 -2.22446 -3.42026 0
M  V30 13705 H 1260.06 -3.14274 -2.72406 0
M  V30 13706 H 1258.63 -1.45434 -3.4337 0
M  V30 13707 N 1260.82 1.03812 -1.18578 0
M  V30 13708 C 1262.1 1.74062 -0.892288 0
M  V30 13709 C 1262.48 2.02267 0.604256 0
M  V30 13710 O 1261.82 1.66988 1.55972 0
M  V30 13711 C 1262.03 3.024 -1.74228 0
M  V30 13712 C 1263.38 3.76088 -1.97087 0
M  V30 13713 O 1264.41 3.12305 -1.71302 0
M  V30 13714 O 1263.27 4.90732 -2.40509 0
M  V30 13715 H 1260.36 0.757567 -0.331695 0
M  V30 13716 H 1262.91 1.09855 -1.29345 0
M  V30 13717 H 1261.68 2.77713 -2.75665 0
M  V30 13718 H 1261.3 3.74346 -1.3398 0
M  V30 13719 N 1262.3 0.988223 1.22768 0
M  V30 13720 C 1263.23 0.554478 2.26821 0
M  V30 13721 C 1264.21 -0.416293 1.64927 0
M  V30 13722 O 1265.39 -0.30795 1.91743 0
M  V30 13723 C 1262.52 -0.136266 3.47033 0
M  V30 13724 C 1261.48 0.752575 4.21332 0
M  V30 13725 C 1260.8 -0.0708236 5.34653 0
M  V30 13726 C 1262.1 2.04717 4.80508 0
M  V30 13727 H 1263.8 1.42423 2.63355 0
M  V30 13728 H 1261.34 0.686267 1.26595 0
M  V30 13729 H 1263.3 -0.451068 4.18979 0
M  V30 13730 H 1262.02 -1.04053 3.09581 0
M  V30 13731 H 1260.68 1.05095 3.51213 0
M  V30 13732 H 1260.33 -0.975859 4.93443 0
M  V30 13733 H 1260.03 0.520835 5.85287 0
M  V30 13734 H 1261.55 -0.379828 6.09417 0
M  V30 13735 H 1262.97 1.79663 5.44421 0
M  V30 13736 H 1261.36 2.58726 5.41462 0
M  V30 13737 H 1262.43 2.72896 4.00819 0
M  V30 13738 N 1263.78 -1.38018 0.760839 0
M  V30 13739 C 1264.71 -2.2899 0.0980916 0
M  V30 13740 C 1265.72 -1.48102 -0.675985 0
M  V30 13741 O 1266.91 -1.70883 -0.515878 0
M  V30 13742 C 1264.01 -3.27142 -0.884959 0
M  V30 13743 C 1263.18 -4.37081 -0.167 0
M  V30 13744 C 1262.24 -5.15375 -1.06184 0
M  V30 13745 O 1261.27 -5.6673 -0.529667 0
M  V30 13746 N 1262.47 -5.29052 -2.38924 0
M  V30 13747 H 1265.23 -2.86508 0.879403 0
M  V30 13748 H 1262.8 -1.49877 0.612245 0
M  V30 13749 H 1264.79 -3.764 -1.48678 0
M  V30 13750 H 1263.36 -2.70471 -1.5673 0
M  V30 13751 H 1262.58 -3.89363 0.615617 0
M  V30 13752 H 1263.87 -5.07732 0.329525 0
M  V30 13753 H 1263.26 -4.88892 -2.84607 0
M  V30 13754 H 1261.82 -5.81658 -2.94139 0
M  V30 13755 N 1265.25 -0.510493 -1.49103 0
M  V30 13756 C 1266.5 0.0325393 -2.01674 0
M  V30 13757 C 1266.82 1.37162 -1.39448 0
M  V30 13758 O 1268.02 2.00189 -1.83402 0
M  V30 13759 C 1266.48 0.108433 -3.59737 0
M  V30 13760 C 1266.09 -1.22458 -4.30939 0
M  V30 13761 C 1267.83 0.601326 -4.20219 0
M  V30 13762 C 1265.74 -1.11033 -5.80884 0
M  V30 13763 H 1264.67 0.0159333 -0.753832 0
M  V30 13764 H 1267.32 -0.651344 -1.71551 0
M  V30 13765 H 1265.7 0.856974 -3.86616 0
M  V30 13766 H 1266.87 -1.98715 -4.15751 0
M  V30 13767 H 1265.19 -1.65166 -3.82242 0
M  V30 13768 H 1267.79 0.704462 -5.30039 0
M  V30 13769 H 1268.13 1.60247 -3.84222 0
M  V30 13770 H 1268.66 -0.0909561 -3.97696 0
M  V30 13771 H 1265.4 -2.08603 -6.21422 0
M  V30 13772 H 1264.92 -0.388798 -5.98539 0
M  V30 13773 H 1266.6 -0.792949 -6.42123 0
M  V30 13774 N 1266.73 1.55688 -0.24474 0
M  V30 13775 C 1268.14 1.84897 0.25882 0
M  V30 13776 C 1268.49 1.16653 1.57755 0
M  V30 13777 O 1267.62 0.444162 2.11793 0
M  V30 13778 C 1268.21 3.35434 0.476385 0
M  V30 13779 C 1266.77 3.64877 0.924213 0
M  V30 13780 C 1265.92 2.773 0.00021322 0
M  V30 13781 H 1268.87 1.51662 -0.467358 0
M  V30 13782 H 1268.89 3.56896 1.31929 0
M  V30 13783 H 1268.4 3.85076 -0.483567 0
M  V30 13784 H 1266.5 3.20711 1.89671 0
M  V30 13785 H 1266.62 4.72665 0.78257 0
M  V30 13786 H 1264.98 2.49517 0.511194 0
M  V30 13787 H 1265.76 3.29747 -0.955072 0
M  V30 13788 N 1268.21 -0.0283989 1.57574 0
M  V30 13789 C 1269.62 -0.574912 1.77628 0
M  V30 13790 C 1269.97 -1.75563 0.875903 0
M  V30 13791 O 1269.1 -2.16284 0.0709141 0
M  V30 13792 C 1269.69 -1.04972 3.22128 0
M  V30 13793 C 1268.25 -1.54175 3.43376 0
M  V30 13794 C 1267.4 -0.480127 2.73112 0
M  V30 13795 H 1270.35 0.197826 1.57462 0
M  V30 13796 H 1270.37 -1.91705 3.28678 0
M  V30 13797 H 1269.88 -0.190173 3.87634 0
M  V30 13798 H 1267.98 -2.42313 2.83046 0
M  V30 13799 H 1268.1 -1.58879 4.51989 0
M  V30 13800 H 1266.46 -0.935314 2.36905 0
M  V30 13801 H 1267.24 0.369973 3.41301 0
M  V30 13802 N 1269.69 -1.54705 -0.300681 0
M  V30 13803 C 1271.1 -1.64998 -0.873654 0
M  V30 13804 C 1271.45 -0.558842 -1.88073 0
M  V30 13805 O 1270.57 0.304474 -2.14247 0
M  V30 13806 C 1271.17 -2.99099 -1.59138 0
M  V30 13807 C 1269.73 -3.11512 -2.11276 0
M  V30 13808 C 1268.88 -2.60681 -0.945551 0
M  V30 13809 H 1271.83 -1.5851 -0.0776752 0
M  V30 13810 H 1271.85 -2.9054 -2.45696 0
M  V30 13811 H 1271.36 -3.78493 -0.858172 0
M  V30 13812 H 1269.46 -2.36838 -2.87643 0
M  V30 13813 H 1269.57 -4.17672 -2.34707 0
M  V30 13814 H 1267.94 -2.17143 -1.33121 0
M  V30 13815 H 1268.72 -3.42553 -0.226291 0
M  V30 13816 N 1271.17 0.563888 -1.47167 0
M  V30 13817 C 1272.11 1.69254 -1.59549 0
M  V30 13818 C 1273.11 1.62948 -0.463078 0
M  V30 13819 O 1274.31 1.68214 -0.640639 0
M  V30 13820 H 1270.69 0.559925 -0.501984 0
M  V30 13821 H 1272.66 1.55946 -2.54408 0
M  V30 13822 C 1271.41 3.0762 -1.62066 0
M  V30 13823 H 1270.73 3.13151 -2.48549 0
M  V30 13824 H 1272.17 3.863 -1.74781 0
M  V30 13825 C 1270.63 3.35048 -0.352721 0
M  V30 13826 O 1271.16 3.9793 0.549053 0
M  V30 13827 N 1269.37 2.8965 -0.234805 0
M  V30 13828 H 1268.91 2.38657 -0.969561 0
M  V30 13829 H 1268.87 3.08373 0.61263 0
M  V30 13830 N 1272.64 1.35187 0.810078 0
M  V30 13831 C 1273.89 1.27602 1.56207 0
M  V30 13832 C 1274.21 -0.148621 1.95035 0
M  V30 13833 O 1275.41 -0.346721 2.69277 0
M  V30 13834 C 1273.87 2.23759 2.81886 0
M  V30 13835 C 1273.48 3.71549 2.5031 0
M  V30 13836 C 1275.22 2.25109 3.59898 0
M  V30 13837 C 1273.13 4.5954 3.7226 0
M  V30 13838 H 1272.06 0.474078 0.586316 0
M  V30 13839 H 1274.71 1.6043 0.890759 0
M  V30 13840 H 1273.09 1.83898 3.5071 0
M  V30 13841 H 1274.26 4.20025 1.89515 0
M  V30 13842 H 1272.58 3.72773 1.85551 0
M  V30 13843 H 1275.18 2.88066 4.50469 0
M  V30 13844 H 1275.52 1.25387 3.96968 0
M  V30 13845 H 1276.05 2.63481 2.98031 0
M  V30 13846 H 1272.79 5.60246 3.403 0
M  V30 13847 H 1272.31 4.15792 4.32293 0
M  V30 13848 H 1273.99 4.74789 4.39528 0
M  V30 13849 N 1274.12 -1.03182 1.19127 0
M  V30 13850 C 1275.53 -1.57984 0.994888 0
M  V30 13851 C 1275.88 -1.90898 -0.453019 0
M  V30 13852 O 1275.01 -1.70556 -1.33191 0
M  V30 13853 C 1275.6 -2.8705 1.79966 0
M  V30 13854 C 1274.16 -3.38435 1.64737 0
M  V30 13855 C 1273.31 -2.11912 1.78854 0
M  V30 13856 H 1276.26 -0.857458 1.33542 0
M  V30 13857 H 1276.28 -3.57821 1.294 0
M  V30 13858 H 1275.79 -2.63062 2.85341 0
M  V30 13859 H 1273.9 -3.67416 0.619358 0
M  V30 13860 H 1274.01 -4.11665 2.45089 0
M  V30 13861 H 1272.37 -2.23642 1.21886 0
M  V30 13862 H 1273.16 -1.90369 2.85682 0
M  V30 13863 N 1275.6 -0.99472 -1.22242 0
M  V30 13864 C 1277.02 -0.705762 -1.43147 0
M  V30 13865 C 1277.22 0.722908 -1.88086 0
M  V30 13866 O 1276.27 1.49359 -2.03588 0
M  V30 13867 C 1277.59 -1.71288 -2.47145 0
M  V30 13868 C 1279.13 -1.72853 -2.60942 0
M  V30 13869 C 1279.61 -2.72433 -3.68163 0
M  V30 13870 N 1281.1 -2.71039 -3.75623 0
M  V30 13871 C 1281.83 -3.44753 -4.58184 0
M  V30 13872 N 1281.33 -4.28075 -5.44724 0
M  V30 13873 N 1283.12 -3.33451 -4.52512 0
M  V30 13874 H 1275.27 -1.91738 -0.913792 0
M  V30 13875 H 1277.54 -0.82702 -0.463403 0
M  V30 13876 H 1277.24 -2.7353 -2.21075 0
M  V30 13877 H 1277.12 -1.50721 -3.45779 0
M  V30 13878 H 1279.5 -0.713085 -2.86355 0
M  V30 13879 H 1279.59 -1.9749 -1.62577 0
M  V30 13880 H 1279.23 -3.74129 -3.43497 0
M  V30 13881 H 1279.16 -2.45066 -4.66101 0
M  V30 13882 H 1281.65 -2.10581 -3.1379 0
M  V30 13883 H 1281.96 -4.81143 -6.04749 0
M  V30 13884 H 1280.31 -4.32161 -5.44299 0
M  V30 13885 H 1283.5 -2.67797 -3.8393 0
M  V30 13886 H 1283.67 -3.91158 -5.16623 0
M  V30 13887 N 1277.08 1.37613 -0.768148 0
M  V30 13888 C 1278.36 1.93921 -0.255724 0
M  V30 13889 C 1278.74 1.70215 1.2486 0
M  V30 13890 O 1278.08 1.0489 2.03003 0
M  V30 13891 C 1278.29 3.43354 -0.625204 0
M  V30 13892 C 1279.64 4.20439 -0.592978 0
M  V30 13893 O 1280.67 3.51701 -0.564375 0
M  V30 13894 O 1279.52 5.43008 -0.616849 0
M  V30 13895 H 1276.62 0.824968 -0.0579366 0
M  V30 13896 H 1279.16 1.46921 -0.849257 0
M  V30 13897 H 1277.94 3.54177 -1.66356 0
M  V30 13898 H 1277.56 3.976 -0.00442816 0
M  V30 13899 O 1278.6 0.659875 1.47404 0
M  V30 13900 H 1279.29 0.187421 1.92791 0
M  V30 END ATOM
M  V30 BEGIN BOND
M  V30 END BOND
M  V30 END CTAB
M  END
$$$$
