drugbank_target|Q5JVS0 Intracellular hyaluronan-binding protein 4 (DB08818)
 OpenBabel12092121013D

  0  0  0     0  0            999 V3000
M  V30 BEGIN CTAB
M  V30 COUNTS 6304 6368 0 0 0
M  V30 BEGIN ATOM
M  V30 1 H -0.908 1.98254 -0.117106 0
M  V30 2 N 0 1.576 0 0
M  V30 3 C 0.933 2.03868 1.02534 0
M  V30 4 C 1.911 0.928543 1.3348 0
M  V30 5 O 3.095 1.19667 1.45644 0
M  V30 6 C 0.222 2.43627 2.35294 0
M  V30 7 C -0.732 3.65373 2.2001 0
M  V30 8 S 0.101 5.13292 1.52614 0
M  V30 9 C 1.257 5.56322 2.86805 0
M  V30 10 H 1.49 2.90518 0.631377 0
M  V30 11 H -0.977 1.52953 0.210867 0
M  V30 12 H 0.981 2.67203 3.11629 0
M  V30 13 H -0.358 1.57376 2.7183 0
M  V30 14 H -1.165 3.90944 3.18086 0
M  V30 15 H -1.563 3.418 1.51819 0
M  V30 16 H 0.729 5.58782 3.83104 0
M  V30 17 H 1.672 6.56266 2.65933 0
M  V30 18 H 2.08 4.83886 2.90714 0
M  V30 19 N 1.4781 -0.272755 1.55222 0
M  V30 20 C 2.4251 -1.33716 1.88119 0
M  V30 21 C 3.3951 -1.49066 0.73271 0
M  V30 22 O 4.5801 -1.63469 0.984002 0
M  V30 23 C 1.7201 -2.69238 2.15882 0
M  V30 24 C 0.8331 -2.62108 3.43399 0
M  V30 25 C -0.0319 -3.89811 3.60861 0
M  V30 26 C -0.9929 -3.77193 4.8207 0
M  V30 27 N -1.8559 -4.9673 4.96189 0
M  V30 28 H 2.9841 -1.04962 2.78903 0
M  V30 29 H 0.5211 -0.507088 1.38083 0
M  V30 30 H 2.4791 -3.48089 2.29978 0
M  V30 31 H 1.1091 -2.96194 1.28331 0
M  V30 32 H 0.1611 -1.74967 3.37773 0
M  V30 33 H 1.4731 -2.48685 4.32386 0
M  V30 34 H 0.6271 -4.77103 3.74777 0
M  V30 35 H -0.6339 -4.06102 2.7006 0
M  V30 36 H -1.6289 -2.88284 4.68159 0
M  V30 37 H -0.4039 -3.62421 5.74307 0
M  V30 38 H -2.4579 -5.13431 4.08319 0
M  V30 39 H -2.5409 -4.85839 5.79221 0
M  V30 40 H -1.2729 -5.85594 5.1449 0
M  V30 41 N 2.9562 -1.48159 -0.537278 0
M  V30 42 C 4.2042 -1.55497 -1.29094 0
M  V30 43 C 4.5252 -0.227454 -1.93669 0
M  V30 44 O 3.7952 0.750386 -1.80959 0
M  V30 45 H 2.3752 -0.572832 -0.47945 0
M  V30 46 H 5.0372 -1.84579 -0.625818 0
M  V30 47 H 4.1332 -2.33216 -2.07405 0
M  V30 48 N 4.4343 0.785586 -1.36625 0
M  V30 49 C 5.3973 1.87999 -1.31107 0
M  V30 50 C 6.3973 1.59316 -0.217959 0
M  V30 51 O 7.5873 1.67656 -0.472977 0
M  V30 52 C 4.7193 3.24861 -1.03334 0
M  V30 53 H 5.9123 1.94307 -2.2844 0
M  V30 54 H 3.4653 0.983813 -1.21453 0
M  V30 55 H 4.2003 3.24235 -0.0647432 0
M  V30 56 H 3.9853 3.4707 -1.82441 0
M  V30 57 H 5.4753 4.04929 -1.02088 0
M  V30 58 N 5.9124 1.20967 1.01018 0
M  V30 59 C 6.8424 0.988272 2.11555 0
M  V30 60 C 7.8234 -0.0849778 1.69888 0
M  V30 61 O 9.0084 0.0738202 1.9406 0
M  V30 62 C 6.1384 0.546528 3.42973 0
M  V30 63 C 5.0924 1.56375 3.9841 0
M  V30 64 C 4.4184 0.97842 5.25672 0
M  V30 65 C 5.7184 2.94922 4.31066 0
M  V30 66 H 7.4124 1.91276 2.30334 0
M  V30 67 H 4.9584 0.921073 1.1069 0
M  V30 68 H 6.9114 0.378839 4.19694 0
M  V30 69 H 5.6354 -0.413598 3.23971 0
M  V30 70 H 4.2944 1.71891 3.23804 0
M  V30 71 H 3.9424 0.0101688 5.02999 0
M  V30 72 H 3.6424 1.65784 5.63728 0
M  V30 73 H 5.1664 0.821939 6.05043 0
M  V30 74 H 6.5804 2.8288 4.9865 0
M  V30 75 H 4.9774 3.5983 4.80253 0
M  V30 76 H 6.0474 3.4616 3.39561 0
M  V30 77 N 7.3905 -1.2043 1.01659 0
M  V30 78 C 8.6385 -1.89423 0.704522 0
M  V30 79 C 8.9595 -1.79231 -0.768197 0
M  V30 80 O 8.2295 -1.1947 -1.55254 0
M  V30 81 H 6.8095 -0.701178 0.257602 0
M  V30 82 H 9.4715 -1.4626 1.28818 0
M  V30 83 H 8.5675 -2.96052 0.987916 0
M  V30 84 N 8.8686 -0.792821 -1.36206 0
M  V30 85 C 10.0936 -0.377701 -2.03932 0
M  V30 86 C 10.5186 0.998947 -1.59382 0
M  V30 87 O 9.8766 1.64421 -0.763903 0
M  V30 88 C 9.9246 -0.453635 -3.57735 0
M  V30 89 O 9.0286 0.538151 -4.08874 0
M  V30 90 H 8.3696 -0.159855 -0.644471 0
M  V30 91 H 10.8996 -1.07488 -1.7409 0
M  V30 92 H 10.9096 -0.318464 -4.06755 0
M  V30 93 H 9.5846 -1.45784 -3.89512 0
M  V30 94 H 8.1616 0.364359 -3.71116 0
M  V30 95 N 10.3467 1.47872 -0.545128 0
M  V30 96 C 11.7577 1.86384 -0.108581 0
M  V30 97 C 12.1087 1.45309 1.31832 0
M  V30 98 O 11.2337 0.850641 1.9898 0
M  V30 99 C 11.8287 3.38265 -0.190274 0
M  V30 100 C 10.3877 3.75914 0.191164 0
M  V30 101 C 9.5347 2.71926 -0.543273 0
M  V30 102 H 12.4857 1.39561 -0.755537 0
M  V30 103 H 12.5067 3.75831 0.594217 0
M  V30 104 H 12.0187 3.6813 -1.2289 0
M  V30 105 H 10.1197 3.51665 1.23136 0
M  V30 106 H 10.2327 4.78836 -0.158987 0
M  V30 107 H 8.5967 2.54697 0.0122495 0
M  V30 108 H 9.3797 3.04634 -1.58282 0
M  V30 109 N 11.8248 0.280983 1.55075 0
M  V30 110 C 13.0708 -0.33461 2.00021 0
M  V30 111 C 13.4038 -1.55063 1.16915 0
M  V30 112 O 12.6788 -1.93006 0.240646 0
M  V30 113 C 12.9618 -0.711007 3.53011 0
M  V30 114 C 12.8148 0.512766 4.46868 0
M  V30 115 C 14.1338 -1.54522 4.12081 0
M  V30 116 H 11.2528 -0.120147 0.727141 0
M  V30 117 H 13.8948 0.389097 1.85973 0
M  V30 118 H 12.0448 -1.32761 3.65112 0
M  V30 119 H 13.7168 1.15131 4.46702 0
M  V30 120 H 11.9598 1.14975 4.18286 0
M  V30 121 H 12.6308 0.205556 5.51617 0
M  V30 122 H 15.1068 -1.02442 4.03293 0
M  V30 123 H 13.9828 -1.77739 5.19327 0
M  V30 124 H 14.2438 -2.52813 3.62682 0
M  V30 125 N 13.3029 -1.57598 0.00835791 0
M  V30 126 C 14.2659 -2.07884 -0.965242 0
M  V30 127 C 15.2659 -0.989825 -1.26725 0
M  V30 128 O 16.4559 -1.25218 -1.21104 0
M  V30 129 C 13.5879 -2.52731 -2.28779 0
M  V30 130 H 14.7809 -2.95178 -0.530112 0
M  V30 131 H 12.3339 -1.54458 -0.239283 0
M  V30 132 H 13.0689 -1.68705 -2.76964 0
M  V30 133 H 12.8539 -3.32272 -2.08177 0
M  V30 134 H 14.3439 -2.91933 -2.98605 0
M  V30 135 N 14.781 0.264519 -1.55364 0
M  V30 136 C 15.744 1.31046 -1.88042 0
M  V30 137 C 16.744 1.41943 -0.755569 0
M  V30 138 O 17.934 1.40947 -1.02369 0
M  V30 139 C 15.066 2.69067 -2.09323 0
M  V30 140 H 16.259 1.03297 -2.81549 0
M  V30 141 H 13.812 0.502989 -1.47986 0
M  V30 142 H 14.547 3.01982 -1.18226 0
M  V30 143 H 14.332 2.62542 -2.91229 0
M  V30 144 H 15.822 3.44623 -2.35848 0
M  V30 145 N 16.2591 1.48442 0.529413 0
M  V30 146 C 17.2221 1.62524 1.61612 0
M  V30 147 C 18.2221 0.498509 1.52877 0
M  V30 148 O 19.4121 0.76431 1.56537 0
M  V30 149 C 16.5441 1.59597 3.01233 0
M  V30 150 H 17.7371 2.59423 1.50465 0
M  V30 151 H 15.2901 1.37047 0.751514 0
M  V30 152 H 16.0251 0.641781 3.17886 0
M  V30 153 H 15.8101 2.41397 3.08982 0
M  V30 154 H 17.3001 1.72646 3.80241 0
M  V30 155 N 17.7372 -0.778329 1.37039 0
M  V30 156 C 18.9852 -1.53361 1.31623 0
M  V30 157 C 19.3062 -1.94739 -0.100831 0
M  V30 158 O 18.5762 -1.65797 -1.04347 0
M  V30 159 H 17.1562 -0.568794 0.484234 0
M  V30 160 H 19.8182 -0.926742 1.71457 0
M  V30 161 H 18.9142 -2.43606 1.95096 0
M  V30 162 N 19.2153 -1.21501 -1.00376 0
M  V30 163 C 20.1783 -0.976927 -2.07337 0
M  V30 164 C 21.1783 0.0525322 -1.60714 0
M  V30 165 O 22.3683 -0.184869 -1.73216 0
M  V30 166 C 19.5003 -0.473423 -3.37597 0
M  V30 167 H 20.6933 -1.92587 -2.29892 0
M  V30 168 H 18.2463 -1.03217 -1.17371 0
M  V30 169 H 18.9813 0.480379 -3.20722 0
M  V30 170 H 18.7663 -1.216 -3.72768 0
M  V30 171 H 20.2563 -0.32675 -4.1632 0
M  V30 172 N 20.6934 1.19889 -1.02296 0
M  V30 173 C 21.6564 2.21116 -0.603351 0
M  V30 174 C 22.6564 1.5738 0.329884 0
M  V30 175 O 23.8464 1.73802 0.117702 0
M  V30 176 C 20.9784 3.40696 0.117992 0
M  V30 177 H 22.1714 2.59754 -1.49893 0
M  V30 178 H 19.7244 1.33463 -0.813468 0
M  V30 179 H 20.4594 3.07569 1.0282 0
M  V30 180 H 20.2444 3.88188 -0.552511 0
M  V30 181 H 21.7344 4.15692 0.398696 0
M  V30 182 N 22.1715 0.800033 1.35784 0
M  V30 183 C 23.1045 0.151499 2.27697 0
M  V30 184 C 24.0825 -0.678663 1.4776 0
M  V30 185 O 25.2665 -0.647358 1.77035 0
M  V30 186 C 22.3935 -0.790492 3.29346 0
M  V30 187 C 21.4395 -0.0407832 4.26481 0
M  V30 188 S 22.2725 1.29077 5.19711 0
M  V30 189 C 23.4285 0.353055 6.24903 0
M  V30 190 H 23.6615 0.930796 2.82353 0
M  V30 191 H 21.1945 0.594767 1.42485 0
M  V30 192 H 23.1525 -1.3285 3.88409 0
M  V30 193 H 21.8135 -1.54312 2.73581 0
M  V30 194 H 21.0065 -0.755971 4.98298 0
M  V30 195 H 20.6085 0.427063 3.71554 0
M  V30 196 H 22.9005 -0.464147 6.75908 0
M  V30 197 H 23.8435 1.04023 7.00418 0
M  V30 198 H 24.2515 -0.0483344 5.64479 0
M  V30 199 N 23.6496 -1.47581 0.552962 0
M  V30 200 C 24.5816 -2.27997 -0.234533 0
M  V30 201 C 25.5946 -1.36753 -0.883321 0
M  V30 202 O 26.7836 -1.61612 -0.757889 0
M  V30 203 C 23.8836 -3.10879 -1.34935 0
M  V30 204 C 23.0566 -4.30056 -0.798158 0
M  V30 205 C 22.1156 -4.94567 -1.79694 0
M  V30 206 O 21.1416 -5.53087 -1.34474 0
M  V30 207 N 22.3436 -4.88878 -3.13015 0
M  V30 208 H 25.1086 -2.96222 0.455255 0
M  V30 209 H 22.6696 -1.57163 0.388761 0
M  V30 210 H 24.6616 -3.50903 -2.01616 0
M  V30 211 H 23.2316 -2.44924 -1.94244 0
M  V30 212 H 22.4516 -3.94174 0.0453079 0
M  V30 213 H 23.7396 -5.07152 -0.409173 0
M  V30 214 H 23.1376 -4.42526 -3.52402 0
M  V30 215 H 21.6946 -5.32934 -3.75266 0
M  V30 216 N 25.1277 -0.289203 -1.54924 0
M  V30 217 C 26.0377 0.601863 -2.26748 0
M  V30 218 C 27.0537 1.15834 -1.2984 0
M  V30 219 O 28.2297 1.18564 -1.62802 0
M  V30 220 C 25.2947 1.76299 -2.98529 0
M  V30 221 C 24.3557 1.24178 -4.10948 0
M  V30 222 C 23.5887 2.34757 -4.79296 0
M  V30 223 O 23.8117 3.54411 -4.46933 0
M  V30 224 O 22.7457 2.02115 -5.66951 0
M  V30 225 H 26.5717 0.0195879 -3.03694 0
M  V30 226 H 24.1567 -0.0560868 -1.49295 0
M  V30 227 H 26.0387 2.43973 -3.43592 0
M  V30 228 H 24.7137 2.33209 -2.24488 0
M  V30 229 H 23.6207 0.531104 -3.70311 0
M  V30 230 H 24.9537 0.718252 -4.86931 0
M  V30 231 N 26.6058 1.57591 -0.0167156 0
M  V30 232 C 27.8308 1.9598 0.67872 0
M  V30 233 C 28.2558 0.892546 1.65575 0
M  V30 234 O 27.6138 -0.147772 1.80697 0
M  V30 235 C 27.6618 3.33468 1.37227 0
M  V30 236 O 26.7658 3.28954 2.48722 0
M  V30 237 H 26.1068 0.639339 0.17928 0
M  V30 238 H 28.6368 2.04463 -0.0748802 0
M  V30 239 H 28.6468 3.69417 1.7319 0
M  V30 240 H 27.3218 4.10694 0.656007 0
M  V30 241 H 25.8988 3.04705 2.14963 0
M  V30 242 N 28.0839 -0.256276 1.55502 0
M  V30 243 C 29.3309 -0.985619 1.76895 0
M  V30 244 C 29.6589 -1.85671 0.579355 0
M  V30 245 O 28.9139 -1.90744 -0.437651 0
M  V30 246 C 29.2129 -1.88432 3.03691 0
M  V30 247 C 28.8789 -1.16936 4.35473 0
M  V30 248 C 27.5409 -0.97173 4.71286 0
M  V30 249 C 29.8929 -0.661889 5.1698 0
M  V30 250 C 27.2209 -0.254179 5.86149 0
M  V30 251 C 29.5729 0.042149 6.32586 0
M  V30 252 C 28.2369 0.25134 6.67027 0
M  V30 253 H 27.5069 -0.360663 0.647304 0
M  V30 254 H 30.1539 -0.256483 1.89775 0
M  V30 255 H 28.4589 -2.68021 2.85783 0
M  V30 256 H 30.1559 -2.45015 3.1744 0
M  V30 257 H 26.7459 -1.33332 4.07333 0
M  V30 258 H 30.9299 -0.802145 4.89775 0
M  V30 259 H 26.1859 -0.0815408 6.11346 0
M  V30 260 H 30.3599 0.443049 6.94989 0
M  V30 261 H 27.9869 0.809314 7.5588 0
M  V30 262 N 29.562 -1.4872 -0.521534 0
M  V30 263 C 30.81 -1.56857 -1.27437 0
M  V30 264 C 31.131 -0.247982 -1.93417 0
M  V30 265 O 30.401 0.731151 -1.81744 0
M  V30 266 H 28.981 -0.577885 -0.473347 0
M  V30 267 H 31.643 -1.85233 -0.606205 0
M  V30 268 H 30.739 -2.35402 -2.0492 0
M  V30 269 N 31.0401 0.771051 -1.3745 0
M  V30 270 C 32.2801 1.54264 -1.34096 0
M  V30 271 C 32.6441 1.91858 0.0737639 0
M  V30 272 O 33.8451 2.67797 0.23203 0
M  V30 273 C 32.1161 2.77326 -2.25445 0
M  V30 274 S 33.6751 3.67383 -2.39948 0
M  V30 275 H 30.4931 0.528122 -0.476034 0
M  V30 276 H 33.0951 0.906633 -1.73206 0
M  V30 277 H 31.7991 2.47788 -3.27153 0
M  V30 278 H 31.3301 3.45886 -1.87421 0
M  V30 279 H 33.3451 4.69334 -1.61059 0
M  V30 280 N 32.5182 1.22032 0.997298 0
M  V30 281 C 33.7642 1.04376 1.73878 0
M  V30 282 C 34.0972 -0.420716 1.89588 0
M  V30 283 O 33.3722 -1.31202 1.43583 0
M  V30 284 C 33.6552 1.75047 3.14691 0
M  V30 285 C 33.5082 3.29062 3.06656 0
M  V30 286 C 34.8272 1.49928 4.13775 0
M  V30 287 H 31.9462 0.380578 0.631133 0
M  V30 288 H 34.5882 1.50312 1.16217 0
M  V30 289 H 32.7382 1.35996 3.63919 0
M  V30 290 H 34.4102 3.7753 2.65083 0
M  V30 291 H 32.6532 3.58967 2.43568 0
M  V30 292 H 33.3242 3.73683 4.06282 0
M  V30 293 H 35.8002 1.83842 3.73285 0
M  V30 294 H 34.6762 2.01878 5.10428 0
M  V30 295 H 34.9372 0.430929 4.39995 0
M  V30 296 N 33.9963 -1.19345 1.0293 0
M  V30 297 C 35.2423 -1.89318 0.727083 0
M  V30 298 C 35.5753 -1.79446 -0.742483 0
M  V30 299 O 34.8503 -1.1871 -1.54072 0
M  V30 300 C 35.1333 -3.40238 1.17942 0
M  V30 301 C 34.9863 -3.58979 2.71024 0
M  V30 302 C 36.3053 -4.33479 0.760548 0
M  V30 303 H 33.4243 -0.687475 0.265606 0
M  V30 304 H 36.0663 -1.40477 1.2793 0
M  V30 305 H 34.2163 -3.81964 0.709608 0
M  V30 306 H 35.8883 -3.26421 3.25955 0
M  V30 307 H 34.1313 -3.02018 3.11396 0
M  V30 308 H 34.8023 -4.64823 2.9773 0
M  V30 309 H 37.2783 -3.99469 1.16464 0
M  V30 310 H 36.1543 -5.37664 1.10493 0
M  V30 311 H 36.4153 -4.40813 -0.337063 0
M  V30 312 N 35.4744 -0.807222 -1.35358 0
M  V30 313 C 36.4374 -0.223665 -2.28106 0
M  V30 314 C 37.4374 0.589354 -1.4961 0
M  V30 315 O 38.6274 0.407745 -1.69361 0
M  V30 316 C 35.7594 0.688149 -3.33882 0
M  V30 317 H 36.9524 -1.04169 -2.81227 0
M  V30 318 H 34.5054 -0.577921 -1.45223 0
M  V30 319 H 35.2404 1.52984 -2.85948 0
M  V30 320 H 35.0254 0.10687 -3.91954 0
M  V30 321 H 36.5154 1.09075 -4.03104 0
M  V30 322 N 36.9525 1.47285 -0.560781 0
M  V30 323 C 37.9005 2.31756 0.197942 0
M  V30 324 C 38.8945 1.43146 0.905854 0
M  V30 325 O 40.1005 1.59891 0.826733 0
M  V30 326 H 36.4755 0.747438 0.0827049 0
M  V30 327 H 38.4465 2.9359 -0.533629 0
M  V30 328 C 37.1955 3.25874 1.21249 0
M  V30 329 H 36.5185 3.94023 0.67719 0
M  V30 330 H 37.9585 3.87803 1.71419 0
M  V30 331 C 36.4175 2.49651 2.26221 0
M  V30 332 O 36.9475 2.24355 3.33208 0
M  V30 333 N 35.1535 2.10597 2.00243 0
M  V30 334 H 34.7005 2.31369 1.13252 0
M  V30 335 H 34.6585 1.59913 2.70694 0
M  V30 336 N 38.4306 0.297415 1.54768 0
M  V30 337 C 39.8466 -0.0560823 1.59501 0
M  V30 338 C 40.0466 -1.52725 1.31444 0
M  V30 339 O 39.1026 -2.27947 1.08611 0
M  V30 340 C 40.4156 0.338631 2.98787 0
M  V30 341 C 41.9636 0.287097 3.11681 0
M  V30 342 C 42.4386 0.656579 4.53269 0
M  V30 343 N 43.9296 0.608977 4.59179 0
M  V30 344 C 44.6646 0.867385 5.66802 0
M  V30 345 N 44.1606 1.19157 6.82476 0
M  V30 346 N 45.9536 0.794687 5.56454 0
M  V30 347 H 38.1046 1.25624 1.71267 0
M  V30 348 H 40.3676 0.509057 0.799728 0
M  V30 349 H 40.0736 1.36263 3.2423 0
M  V30 350 H 39.9476 -0.309508 3.75928 0
M  V30 351 H 42.3346 -0.727649 2.85988 0
M  V30 352 H 42.4156 0.969809 2.36703 0
M  V30 353 H 42.0596 1.66912 4.7969 0
M  V30 354 H 41.9896 -0.0481649 5.26578 0
M  V30 355 H 44.4806 0.369198 3.76092 0
M  V30 356 H 44.7936 1.37482 7.60473 0
M  V30 357 H 43.1386 1.22958 6.84037 0
M  V30 358 H 46.3296 0.541098 4.64962 0
M  V30 359 H 46.5026 0.999445 6.40246 0
M  V30 360 N 39.9087 -1.5758 0.0250728 0
M  V30 361 C 41.1557 -1.91633 -0.654444 0
M  V30 362 C 41.4837 -0.901103 -1.72367 0
M  V30 363 O 40.7387 0.0905647 -1.9549 0
M  V30 364 C 41.0377 -3.32421 -1.31268 0
M  V30 365 C 40.7037 -4.49344 -0.374223 0
M  V30 366 C 39.3657 -4.8106 -0.115911 0
M  V30 367 C 41.7177 -5.20498 0.270432 0
M  V30 368 C 39.0457 -5.8129 0.79493 0
M  V30 369 C 41.3977 -6.21699 1.1693 0
M  V30 370 C 40.0617 -6.51859 1.43655 0
M  V30 371 H 39.3317 -0.701236 -0.239478 0
M  V30 372 H 41.9787 -1.91307 0.0859734 0
M  V30 373 H 40.2837 -3.28989 -2.12775 0
M  V30 374 H 41.9807 -3.56038 -1.84494 0
M  V30 375 H 38.5707 -4.24579 -0.58573 0
M  V30 376 H 42.7547 -4.96229 0.0839194 0
M  V30 377 H 38.0107 -6.03005 1.00973 0
M  V30 378 H 42.1847 -6.75955 1.67504 0
M  V30 379 H 39.8117 -7.2934 2.144 0
M  V30 380 N 41.3868 0.248026 -1.55636 0
M  V30 381 C 42.3368 1.30994 -1.86614 0
M  V30 382 C 43.3208 1.43543 -0.726918 0
M  V30 383 O 44.5128 1.46804 -0.988818 0
M  V30 384 C 41.6418 2.6656 -2.16335 0
M  V30 385 C 40.7278 2.58019 -3.36581 0
M  V30 386 N 41.1188 2.1911 -4.55878 0
M  V30 387 C 39.4168 2.89035 -3.39669 0
M  V30 388 C 40.1178 2.21174 -5.38012 0
M  V30 389 N 39.0938 2.60632 -4.77045 0
M  V30 390 H 42.8958 0.999583 -2.76379 0
M  V30 391 H 40.4098 0.456652 -1.55848 0
M  V30 392 H 42.4068 3.43194 -2.36692 0
M  V30 393 H 41.0668 2.98463 -1.27867 0
M  V30 394 H 42.0778 1.90672 -4.81523 0
M  V30 395 H 38.7548 3.25485 -2.61469 0
M  V30 396 H 40.1448 1.9344 -6.43452 0
M  V30 397 N 42.8649 1.48995 0.513639 0
M  V30 398 C 43.7969 1.60836 1.63293 0
M  V30 399 C 44.8099 0.491701 1.55197 0
M  V30 400 O 45.9989 0.763238 1.6136 0
M  V30 401 C 43.0989 1.53731 3.02027 0
M  V30 402 C 42.2719 2.80715 3.35437 0
M  V30 403 C 41.3309 2.66837 4.53525 0
M  V30 404 O 40.3569 3.40753 4.55934 0
M  V30 405 N 41.5589 1.77539 5.52684 0
M  V30 406 H 44.3239 2.57366 1.53566 0
M  V30 407 H 41.8849 1.45925 0.701259 0
M  V30 408 H 43.8769 1.42118 3.78926 0
M  V30 409 H 42.4469 0.651092 3.05744 0
M  V30 410 H 41.6669 3.06772 2.47557 0
M  V30 411 H 42.9549 3.64927 3.54551 0
M  V30 412 H 42.3529 1.16719 5.53528 0
M  V30 413 H 40.9099 1.71856 6.28736 0
M  V30 414 N 44.343 -0.763751 1.37857 0
M  V30 415 C 45.273 -1.89103 1.36975 0
M  V30 416 C 46.254 -1.68439 0.237152 0
M  V30 417 O 47.439 -1.8918 0.438713 0
M  V30 418 C 44.569 -3.26496 1.18395 0
M  V30 419 C 43.523 -3.61741 2.28751 0
M  V30 420 C 42.849 -4.97762 1.95286 0
M  V30 421 C 44.149 -3.67665 3.70972 0
M  V30 422 H 45.843 -1.90099 2.31307 0
M  V30 423 H 43.389 -0.91319 1.11341 0
M  V30 424 H 45.342 -4.05003 1.16406 0
M  V30 425 H 44.066 -3.25955 0.205215 0
M  V30 426 H 42.725 -2.85547 2.29909 0
M  V30 427 H 42.373 -4.93769 0.959221 0
M  V30 428 H 42.073 -5.22313 2.69189 0
M  V30 429 H 43.597 -5.7866 1.94898 0
M  V30 430 H 45.011 -4.36307 3.719 0
M  V30 431 H 43.408 -4.03718 4.43995 0
M  V30 432 H 44.478 -2.68134 4.0402 0
M  V30 433 N 45.8211 -1.22559 -0.990812 0
M  V30 434 C 46.7511 -1.0218 -2.09956 0
M  V30 435 C 47.7321 0.0579394 -1.70001 0
M  V30 436 O 48.9171 -0.104684 -1.93918 0
M  V30 437 C 46.0471 -0.601023 -3.4206 0
M  V30 438 C 45.0011 -1.62694 -3.95872 0
M  V30 439 C 44.3271 -1.06193 -5.24049 0
M  V30 440 C 45.6271 -3.01743 -4.2632 0
M  V30 441 H 47.3211 -1.94916 -2.27262 0
M  V30 442 H 44.8671 -0.938566 -1.09211 0
M  V30 443 H 46.8201 -0.445561 -4.19038 0
M  V30 444 H 45.5441 0.362005 -3.24588 0
M  V30 445 H 44.2031 -1.77021 -3.21028 0
M  V30 446 H 43.8511 -0.0901903 -5.02919 0
M  V30 447 H 43.5511 -1.74732 -5.61019 0
M  V30 448 H 45.0751 -0.918092 -6.03658 0
M  V30 449 H 46.4891 -2.90777 -4.94087 0
M  V30 450 H 44.8861 -3.67425 -4.74467 0
M  V30 451 H 45.9561 -3.51518 -3.34011 0
M  V30 452 N 47.2992 1.18797 -1.03562 0
M  V30 453 C 48.5762 1.84469 -0.650434 0
M  V30 454 C 48.9562 1.92319 0.870433 0
M  V30 455 O 48.3042 1.44528 1.76986 0
M  V30 456 C 48.5142 3.2306 -1.32036 0
M  V30 457 C 49.8622 3.9915 -1.44792 0
M  V30 458 O 50.8862 3.32481 -1.27806 0
M  V30 459 O 49.7452 5.18587 -1.72423 0
M  V30 460 H 46.8392 0.795251 -0.226946 0
M  V30 461 H 49.3852 1.26231 -1.13419 0
M  V30 462 H 48.1572 3.1222 -2.3587 0
M  V30 463 H 47.7802 3.88949 -0.8249 0
M  V30 464 N 48.7773 0.814389 1.34928 0
M  V30 465 C 50.0543 0.321363 1.92942 0
M  V30 466 C 50.4343 -1.19014 1.74353 0
M  V30 467 O 49.7823 -1.99328 1.11716 0
M  V30 468 C 49.9923 0.741323 3.41036 0
M  V30 469 C 51.3403 0.735266 4.18185 0
M  V30 470 O 52.3643 0.68336 3.49584 0
M  V30 471 O 51.2233 0.800703 5.40602 0
M  V30 472 H 48.3173 0.0858893 0.822528 0
M  V30 473 H 50.8633 0.898609 1.43955 0
M  V30 474 H 49.6353 1.78276 3.4833 0
M  V30 475 H 49.2583 0.139307 3.97356 0
M  V30 476 N 50.2554 -1.46986 0.568584 0
M  V30 477 C 51.1654 -2.33942 -0.17555 0
M  V30 478 C 52.1814 -1.48891 -0.90041 0
M  V30 479 O 53.3574 -1.81794 -0.86676 0
M  V30 480 C 50.4224 -3.25811 -1.18524 0
M  V30 481 C 49.4834 -4.26757 -0.466582 0
M  V30 482 C 48.7164 -5.14236 -1.42817 0
M  V30 483 O 48.9394 -5.04379 -2.66379 0
M  V30 484 O 47.8734 -5.94412 -0.946453 0
M  V30 485 H 51.6994 -2.98896 0.538036 0
M  V30 486 H 49.2844 -1.4573 0.329097 0
M  V30 487 H 51.1664 -3.82527 -1.76779 0
M  V30 488 H 49.8414 -2.63471 -1.88055 0
M  V30 489 H 48.7484 -3.73769 0.157451 0
M  V30 490 H 50.0814 -4.91843 0.187485 0
M  V30 491 N 51.7335 -0.305618 -1.54608 0
M  V30 492 C 52.9585 0.307562 -2.05107 0
M  V30 493 C 53.3835 1.46385 -1.18123 0
M  V30 494 O 52.7415 1.8034 -0.186324 0
M  V30 495 C 52.7895 0.73704 -3.52987 0
M  V30 496 O 51.8935 1.84134 -3.6901 0
M  V30 497 H 51.2345 0.0589143 -0.661381 0
M  V30 498 H 53.7645 -0.448807 -1.99617 0
M  V30 499 H 53.7745 1.02459 -3.94925 0
M  V30 500 H 52.4495 -0.108773 -4.15758 0
M  V30 501 H 51.0265 1.55398 -3.38978 0
M  V30 502 N 53.2116 1.57565 -0.0334293 0
M  V30 503 C 54.4886 1.83282 0.683163 0
M  V30 504 C 54.8686 0.91823 1.90084 0
M  V30 505 O 54.2166 -0.025113 2.28486 0
M  V30 506 C 54.4266 3.32599 1.0573 0
M  V30 507 C 55.7746 3.99179 1.44711 0
M  V30 508 O 56.7986 3.3712 1.15015 0
M  V30 509 O 55.6576 5.08565 2.0006 0
M  V30 510 H 52.7516 0.755869 0.335546 0
M  V30 511 H 55.2976 1.69589 -0.0614402 0
M  V30 512 H 54.0696 3.90834 0.190828 0
M  V30 513 H 53.6926 3.51415 1.85993 0
M  V30 514 N 54.6897 -0.239769 1.55765 0
M  V30 515 C 56.1007 -0.808263 1.68297 0
M  V30 516 C 56.4517 -1.85736 0.632181 0
M  V30 517 O 55.5767 -2.15277 -0.220204 0
M  V30 518 C 56.1717 -1.47284 3.05111 0
M  V30 519 C 54.7307 -1.98895 3.19559 0
M  V30 520 C 53.8777 -0.842575 2.64189 0
M  V30 521 H 56.8287 -0.0154422 1.58692 0
M  V30 522 H 56.8497 -2.34111 2.99954 0
M  V30 523 H 56.3617 -0.709053 3.81568 0
M  V30 524 H 54.4627 -2.78132 2.47938 0
M  V30 525 H 54.5757 -2.18143 4.26556 0
M  V30 526 H 52.9397 -1.24501 2.22197 0
M  V30 527 H 53.7227 -0.0917552 3.43177 0
M  V30 528 N 56.1678 -1.49265 -0.50573 0
M  V30 529 C 57.4148 -1.58513 -1.26015 0
M  V30 530 C 57.7428 -0.26972 -1.92621 0
M  V30 531 O 56.9978 0.741997 -1.81088 0
M  V30 532 C 57.2968 -2.69008 -2.35308 0
M  V30 533 C 56.9628 -4.10662 -1.86192 0
M  V30 534 C 55.6248 -4.49212 -1.72516 0
M  V30 535 C 57.9768 -4.99336 -1.49375 0
M  V30 536 C 55.3048 -5.74214 -1.20394 0
M  V30 537 C 57.6568 -6.24852 -0.987072 0
M  V30 538 C 56.3208 -6.62236 -0.836669 0
M  V30 539 H 55.5908 -0.580041 -0.461122 0
M  V30 540 H 58.2378 -1.83078 -0.561665 0
M  V30 541 H 56.5428 -2.38396 -3.10926 0
M  V30 542 H 58.2398 -2.73373 -2.93374 0
M  V30 543 H 54.8298 -3.8023 -1.97795 0
M  V30 544 H 59.0138 -4.70212 -1.5879 0
M  V30 545 H 54.2698 -6.01883 -1.07458 0
M  V30 546 H 58.4438 -6.92944 -0.692983 0
M  V30 547 H 56.0708 -7.58979 -0.430607 0
M  V30 548 N 57.6459 0.756429 -1.3826 0
M  V30 549 C 58.9229 1.50584 -1.24835 0
M  V30 550 C 59.3029 2.10556 0.151485 0
M  V30 551 O 58.6509 1.96825 1.1607 0
M  V30 552 C 58.8609 2.57448 -2.3563 0
M  V30 553 C 60.2089 3.24429 -2.73917 0
M  V30 554 O 61.2329 2.67751 -2.34921 0
M  V30 555 O 60.0919 4.26937 -3.41156 0
M  V30 556 H 57.1859 0.667664 -0.48801 0
M  V30 557 H 59.7319 0.792083 -1.5008 0
M  V30 558 H 58.5039 2.11362 -3.29305 0
M  V30 559 H 58.1269 3.36408 -2.11933 0
M  V30 560 N 59.124 1.23083 0.984299 0
M  V30 561 C 60.373 1.05466 1.71929 0
M  V30 562 C 60.686 -0.409211 1.91272 0
M  V30 563 O 61.892 -0.705226 2.62181 0
M  V30 564 C 60.348 1.83874 3.09384 0
M  V30 565 C 59.956 3.34566 2.97943 0
M  V30 566 C 61.7 1.74734 3.8687 0
M  V30 567 C 59.607 4.05381 4.30605 0
M  V30 568 H 58.537 0.391039 0.644674 0
M  V30 569 H 61.188 1.47013 1.09815 0
M  V30 570 H 59.57 1.35131 3.72231 0
M  V30 571 H 60.744 3.90767 2.44209 0
M  V30 572 H 59.059 3.44476 2.33934 0
M  V30 573 H 61.656 2.24957 4.85076 0
M  V30 574 H 61.999 0.709372 4.10212 0
M  V30 575 H 62.532 2.21067 3.30717 0
M  V30 576 H 59.271 5.09467 4.1246 0
M  V30 577 H 58.791 3.53967 4.84218 0
M  V30 578 H 60.47 4.11458 4.99311 0
M  V30 579 N 60.6021 -1.18246 1.0419 0
M  V30 580 C 61.5321 -2.24127 0.654914 0
M  V30 581 C 62.5131 -1.66617 -0.342451 0
M  V30 582 O 63.6981 -1.92924 -0.222277 0
M  V30 583 C 60.8281 -3.47295 0.0183757 0
M  V30 584 C 59.7821 -4.17563 0.939414 0
M  V30 585 C 59.1081 -5.34438 0.167286 0
M  V30 586 C 60.4081 -4.70917 2.25908 0
M  V30 587 H 62.1021 -2.56753 1.54007 0
M  V30 588 H 59.6481 -1.23414 0.74195 0
M  V30 589 H 61.6011 -4.20572 -0.264082 0
M  V30 590 H 60.3251 -3.13907 -0.901664 0
M  V30 591 H 58.9841 -3.46186 1.20628 0
M  V30 592 H 58.6321 -4.97298 -0.7552 0
M  V30 593 H 58.3321 -5.82388 0.780901 0
M  V30 594 H 59.8561 -6.10504 -0.108125 0
M  V30 595 H 61.2701 -5.35882 2.03724 0
M  V30 596 H 59.6671 -5.29406 2.82577 0
M  V30 597 H 60.7371 -3.88272 2.9047 0
M  V30 598 N 62.0802 -0.821533 -1.34494 0
M  V30 599 C 63.4962 -0.507117 -1.51329 0
M  V30 600 C 63.6962 0.968964 -1.76673 0
M  V30 601 O 62.7522 1.75348 -1.81685 0
M  V30 602 C 64.0652 -1.36544 -2.67911 0
M  V30 603 C 65.6132 -1.36242 -2.81793 0
M  V30 604 C 66.0882 -2.2052 -4.01416 0
M  V30 605 N 67.5792 -2.18136 -4.08621 0
M  V30 606 C 68.3142 -2.80095 -5.00334 0
M  V30 607 N 67.8102 -3.51039 -5.9728 0
M  V30 608 N 69.6032 -2.69656 -4.93196 0
M  V30 609 H 61.7542 -1.77729 -1.16302 0
M  V30 610 H 64.0172 -0.757291 -0.570276 0
M  V30 611 H 63.7232 -2.41361 -2.55808 0
M  V30 612 H 63.5972 -1.02917 -3.62888 0
M  V30 613 H 65.9842 -0.322041 -2.93338 0
M  V30 614 H 66.0652 -1.73866 -1.87628 0
M  V30 615 H 65.7092 -3.24607 -3.90631 0
M  V30 616 H 65.6392 -1.80247 -4.94791 0
M  V30 617 H 68.1302 -1.6653 -3.39229 0
M  V30 618 H 68.4432 -3.95565 -6.63889 0
M  V30 619 H 66.7882 -3.55145 -5.97409 0
M  V30 620 H 69.9792 -2.13808 -4.16418 0
M  V30 621 H 70.1522 -3.1823 -5.64476 0
M  V30 622 N 63.5583 1.46682 -0.576371 0
M  V30 623 C 64.4683 2.34032 0.163141 0
M  V30 624 C 65.4843 1.49367 0.892501 0
M  V30 625 O 66.6603 1.82252 0.857106 0
M  V30 626 C 63.7253 3.26435 1.16795 0
M  V30 627 C 62.7863 4.26998 0.443944 0
M  V30 628 C 62.0193 5.14986 1.40088 0
M  V30 629 O 62.2423 5.05785 2.637 0
M  V30 630 O 61.1763 5.94906 0.914917 0
M  V30 631 H 65.0023 2.98607 -0.55388 0
M  V30 632 H 62.5873 1.45554 -0.336821 0
M  V30 633 H 64.4693 3.83459 1.74748 0
M  V30 634 H 63.1443 2.64465 1.86655 0
M  V30 635 H 62.0513 3.7368 -0.177271 0
M  V30 636 H 63.3843 4.91736 -0.213566 0
M  V30 637 N 65.0364 0.313813 1.54444 0
M  V30 638 C 65.9994 -0.54379 2.22656 0
M  V30 639 C 66.9994 -1.05124 1.21678 0
M  V30 640 O 68.1894 -0.945225 1.46325 0
M  V30 641 C 65.3214 -1.75427 2.92298 0
M  V30 642 H 66.5144 0.0523599 2.99854 0
M  V30 643 H 64.0674 0.0647834 1.56166 0
M  V30 644 H 64.8024 -2.38991 2.19211 0
M  V30 645 H 64.5874 -1.39791 3.66334 0
M  V30 646 H 66.0774 -2.36325 3.44297 0
M  V30 647 N 66.5145 -1.57545 0.0417849 0
M  V30 648 C 67.4245 -2.14451 -0.951213 0
M  V30 649 C 68.4405 -1.09992 -1.34825 0
M  V30 650 O 69.6165 -1.42114 -1.42708 0
M  V30 651 C 66.6815 -2.67063 -2.21084 0
M  V30 652 C 65.7425 -3.86284 -1.87304 0
M  V30 653 C 64.9755 -4.36378 -3.07261 0
M  V30 654 O 65.1985 -3.85587 -4.20332 0
M  V30 655 O 64.1325 -5.28077 -2.88822 0
M  V30 656 H 67.9585 -2.99601 -0.497287 0
M  V30 657 H 65.5435 -1.48317 -0.179567 0
M  V30 658 H 67.4255 -3.00914 -2.95006 0
M  V30 659 H 66.1005 -1.84989 -2.65633 0
M  V30 660 H 65.0075 -3.57338 -1.10727 0
M  V30 661 H 66.3405 -4.6956 -1.47562 0
M  V30 662 N 67.9926 0.231505 -1.5589 0
M  V30 663 C 69.4086 0.580748 -1.48659 0
M  V30 664 C 69.6086 1.87617 -0.73498 0
M  V30 665 O 68.6646 2.51046 -0.270586 0
M  V30 666 C 69.9776 0.669202 -2.93159 0
M  V30 667 C 71.5256 0.760499 -3.03621 0
M  V30 668 C 72.0006 0.880383 -4.49459 0
M  V30 669 N 73.4916 0.944861 -4.53461 0
M  V30 670 C 74.2266 1.05716 -5.63571 0
M  V30 671 N 73.7226 1.13403 -6.83456 0
M  V30 672 N 75.5156 1.09152 -5.514 0
M  V30 673 H 67.6666 -0.618695 -2.03189 0
M  V30 674 H 69.9296 -0.215728 -0.923128 0
M  V30 675 H 69.6356 -0.212904 -3.51055 0
M  V30 676 H 69.5096 1.5361 -3.44505 0
M  V30 677 H 71.8966 1.63305 -2.45796 0
M  V30 678 H 71.9776 -0.131864 -2.5546 0
M  V30 679 H 71.6216 0.0123284 -5.07899 0
M  V30 680 H 71.5516 1.78802 -4.95316 0
M  V30 681 H 74.0426 0.896176 -3.6712 0
M  V30 682 H 74.3556 1.21921 -7.63122 0
M  V30 683 H 72.7006 1.10333 -6.86186 0
M  V30 684 H 75.8916 1.02805 -4.56671 0
M  V30 685 H 76.0646 1.17558 -6.37247 0
M  V30 686 N 69.4707 1.49531 0.497807 0
M  V30 687 C 70.8867 1.36365 0.829266 0
M  V30 688 C 71.0867 0.399184 1.97506 0
M  V30 689 O 70.1427 -0.167977 2.51941 0
M  V30 690 C 71.4557 2.77153 1.16647 0
M  V30 691 C 73.0037 2.85877 1.27449 0
M  V30 692 C 73.4787 4.2744 1.64497 0
M  V30 693 N 74.9697 4.30265 1.7154 0
M  V30 694 C 75.7047 5.3677 2.01656 0
M  V30 695 N 75.2007 6.53516 2.29976 0
M  V30 696 N 76.9937 5.24189 2.02934 0
M  V30 697 H 69.1447 2.10831 -0.257703 0
M  V30 698 H 71.4077 0.946534 -0.0527091 0
M  V30 699 H 71.1137 3.49442 0.397872 0
M  V30 700 H 70.9877 3.12722 2.10915 0
M  V30 701 H 73.3747 2.13824 2.0338 0
M  V30 702 H 73.4557 2.53887 0.312244 0
M  V30 703 H 73.0997 5.00021 0.891151 0
M  V30 704 H 73.0297 4.56896 2.61827 0
M  V30 705 H 75.5207 3.4607 1.51802 0
M  V30 706 H 75.8337 7.30506 2.52153 0
M  V30 707 H 74.1787 6.56737 2.27425 0
M  V30 708 H 77.3697 4.31988 1.80289 0
M  V30 709 H 77.5427 6.07286 2.26071 0
M  V30 710 N 70.9488 -0.749086 1.3866 0
M  V30 711 C 72.3648 -1.05276 1.19955 0
M  V30 712 C 72.5648 -2.01435 0.05134 0
M  V30 713 O 71.6208 -2.45232 -0.60147 0
M  V30 714 C 72.9338 -1.62853 2.52783 0
M  V30 715 C 74.4818 -1.75002 2.59506 0
M  V30 716 C 74.9568 -2.35991 3.92521 0
M  V30 717 N 76.4478 -2.43416 3.94085 0
M  V30 718 C 77.1828 -2.91511 4.9377 0
M  V30 719 N 76.6788 -3.39608 6.03853 0
M  V30 720 N 78.4718 -2.90592 4.81157 0
M  V30 721 H 70.6228 -0.111066 2.12109 0
M  V30 722 H 72.8858 -0.111901 0.941373 0
M  V30 723 H 72.5918 -0.99664 3.37283 0
M  V30 724 H 72.4658 -2.61854 2.715 0
M  V30 725 H 74.8528 -2.37317 1.75398 0
M  V30 726 H 74.9338 -0.74693 2.44652 0
M  V30 727 H 74.5778 -1.74308 4.77053 0
M  V30 728 H 74.5078 -3.3695 4.04688 0
M  V30 729 H 76.9988 -2.09405 3.14576 0
M  V30 730 H 77.3118 -3.74775 6.75843 0
M  V30 731 H 75.6568 -3.37653 6.07466 0
M  V30 732 H 78.8478 -2.52332 3.94267 0
M  V30 733 H 79.0208 -3.27762 5.58996 0
M  V30 734 N 72.4269 -1.23603 -0.977757 0
M  V30 735 C 73.3589 -0.977369 -2.07317 0
M  V30 736 C 74.3719 0.0495845 -1.62724 0
M  V30 737 O 75.5609 -0.186261 -1.77526 0
M  V30 738 C 72.6609 -0.451216 -3.35883 0
M  V30 739 C 71.8339 -1.53896 -4.09432 0
M  V30 740 C 70.8929 -1.01721 -5.16274 0
M  V30 741 O 69.9189 -1.70676 -5.43009 0
M  V30 742 N 71.1209 0.153594 -5.80297 0
M  V30 743 H 73.8859 -1.92047 -2.30082 0
M  V30 744 H 71.4469 -1.14497 -1.14465 0
M  V30 745 H 73.4389 -0.0871574 -4.04606 0
M  V30 746 H 72.0089 0.397368 -3.10064 0
M  V30 747 H 71.2289 -2.07566 -3.35127 0
M  V30 748 H 72.5169 -2.27037 -4.55337 0
M  V30 749 H 71.9149 0.730323 -5.60966 0
M  V30 750 H 70.4719 0.458892 -6.50183 0
M  V30 751 N 73.905 1.17692 -1.04816 0
M  V30 752 C 74.837 2.21103 -0.603822 0
M  V30 753 C 75.85 1.59411 0.33046 0
M  V30 754 O 77.039 1.7807 0.12379 0
M  V30 755 C 74.139 3.38623 0.136898 0
M  V30 756 C 73.312 4.29888 -0.807137 0
M  V30 757 C 72.371 5.26088 -0.10836 0
M  V30 758 O 71.397 5.64353 -0.741232 0
M  V30 759 N 72.599 5.68882 1.15558 0
M  V30 760 H 75.364 2.59848 -1.49329 0
M  V30 761 H 72.925 1.32553 -0.929587 0
M  V30 762 H 74.917 4.00009 0.614401 0
M  V30 763 H 73.487 2.98508 0.927993 0
M  V30 764 H 72.707 3.65993 -1.46434 0
M  V30 765 H 73.995 4.87759 -1.44807 0
M  V30 766 H 73.393 5.39861 1.69015 0
M  V30 767 H 71.95 6.32429 1.57722 0
M  V30 768 N 75.3831 0.828654 1.34056 0
M  V30 769 C 76.3151 0.212052 2.28217 0
M  V30 770 C 77.3281 -0.601362 1.51286 0
M  V30 771 O 78.5171 -0.430104 1.73241 0
M  V30 772 C 75.6171 -0.72088 3.31144 0
M  V30 773 C 74.7901 0.0509587 4.3737 0
M  V30 774 C 73.8491 -0.803766 5.20025 0
M  V30 775 O 72.8751 -0.246667 5.68665 0
M  V30 776 N 74.0771 -2.1227 5.40298 0
M  V30 777 H 76.8421 1.02105 2.81771 0
M  V30 778 H 74.4031 0.686153 1.46641 0
M  V30 779 H 76.3951 -1.29742 3.8334 0
M  V30 780 H 74.9651 -1.43061 2.77943 0
M  V30 781 H 74.1851 0.808831 3.85813 0
M  V30 782 H 75.4731 0.582065 5.0546 0
M  V30 783 H 74.8711 -2.59898 5.02464 0
M  V30 784 H 73.4281 -2.64796 5.95589 0
M  V30 785 N 76.8612 -1.46375 0.584142 0
M  V30 786 C 77.7912 -2.33103 -0.136037 0
M  V30 787 C 78.7722 -1.45431 -0.882255 0
M  V30 788 O 79.9572 -1.74246 -0.857434 0
M  V30 789 C 77.0872 -3.27731 -1.14933 0
M  V30 790 C 76.0412 -4.24855 -0.517862 0
M  V30 791 C 75.3672 -5.09001 -1.63773 0
M  V30 792 C 76.6672 -5.19439 0.545886 0
M  V30 793 H 78.3612 -2.93568 0.588086 0
M  V30 794 H 75.9072 -1.41166 0.284259 0
M  V30 795 H 77.8602 -3.87261 -1.66153 0
M  V30 796 H 76.5842 -2.65377 -1.90375 0
M  V30 797 H 75.2432 -3.6659 -0.0267361 0
M  V30 798 H 74.8912 -4.43031 -2.38185 0
M  V30 799 H 74.5912 -5.74777 -1.22085 0
M  V30 800 H 76.1152 -5.71396 -2.15266 0
M  V30 801 H 77.5292 -5.73177 0.118704 0
M  V30 802 H 75.9262 -5.93566 0.88317 0
M  V30 803 H 76.9962 -4.63285 1.43162 0
M  V30 804 N 78.3393 -0.321999 -1.54275 0
M  V30 805 C 79.2713 0.578671 -2.21775 0
M  V30 806 C 80.2843 1.08109 -1.21722 0
M  V30 807 O 81.4733 0.994938 -1.482 0
M  V30 808 C 78.5733 1.80661 -2.86731 0
M  V30 809 C 77.7463 1.44314 -4.12907 0
M  V30 810 C 76.8053 2.52845 -4.61472 0
M  V30 811 O 75.8313 2.17054 -5.2619 0
M  V30 812 N 77.0333 3.83748 -4.35566 0
M  V30 813 H 79.7983 0.000709447 -2.997 0
M  V30 814 H 77.3593 -0.145132 -1.61248 0
M  V30 815 H 79.3513 2.52655 -3.16145 0
M  V30 816 H 77.9213 2.29245 -2.12521 0
M  V30 817 H 77.1413 0.554906 -3.90275 0
M  V30 818 H 78.4293 1.17598 -4.95023 0
M  V30 819 H 77.8273 4.15625 -3.83761 0
M  V30 820 H 76.3843 4.51977 -4.69638 0
M  V30 821 N 79.8174 1.5752 -0.0501392 0
M  V30 822 C 81.2334 1.56631 0.306402 0
M  V30 823 C 81.4334 1.0577 1.71508 0
M  V30 824 O 80.4894 0.713837 2.422 0
M  V30 825 C 81.8024 3.00393 0.135811 0
M  V30 826 C 83.3504 3.12315 0.206993 0
M  V30 827 C 83.8254 4.57954 0.064944 0
M  V30 828 N 85.3164 4.63041 0.121254 0
M  V30 829 C 86.0514 5.73389 0.0354381 0
M  V30 830 N 85.5474 6.92724 -0.102666 0
M  V30 831 N 87.3404 5.62026 0.090946 0
M  V30 832 H 79.4914 1.88903 -0.971046 0
M  V30 833 H 81.7544 0.869876 -0.376855 0
M  V30 834 H 81.4604 3.41635 -0.835384 0
M  V30 835 H 81.3344 3.66373 0.897275 0
M  V30 836 H 83.7214 2.70973 1.16866 0
M  V30 837 H 83.8024 2.49016 -0.585208 0
M  V30 838 H 83.4464 4.99981 -0.893394 0
M  V30 839 H 83.3764 5.19258 0.876277 0
M  V30 840 H 85.8674 3.77216 0.227284 0
M  V30 841 H 86.1804 7.72633 -0.160882 0
M  V30 842 H 84.5254 6.94864 -0.137737 0
M  V30 843 H 87.7164 4.67684 0.197388 0
M  V30 844 H 87.8894 6.47997 0.0206089 0
M  V30 845 N 81.2955 -0.223234 1.56011 0
M  V30 846 C 82.2425 -1.27664 1.92277 0
M  V30 847 C 83.2125 -1.46659 0.779763 0
M  V30 848 O 84.3975 -1.60256 1.03551 0
M  V30 849 C 81.5375 -2.62234 2.24338 0
M  V30 850 C 80.6505 -2.51051 3.51564 0
M  V30 851 C 79.7855 -3.78133 3.7308 0
M  V30 852 C 78.8245 -3.61665 4.93827 0
M  V30 853 N 77.9615 -4.80693 5.11741 0
M  V30 854 H 82.8015 -0.960358 2.82101 0
M  V30 855 H 80.3385 -0.462901 1.39627 0
M  V30 856 H 82.2965 -3.40596 2.40936 0
M  V30 857 H 80.9265 -2.91961 1.3769 0
M  V30 858 H 79.9785 -1.64132 3.43169 0
M  V30 859 H 81.2905 -2.34803 4.40079 0
M  V30 860 H 80.4445 -4.64938 3.89766 0
M  V30 861 H 79.1835 -3.97304 2.82844 0
M  V30 862 H 78.1885 -2.73244 4.77093 0
M  V30 863 H 79.4135 -3.43966 5.85546 0
M  V30 864 H 77.3595 -5.00181 4.24446 0
M  V30 865 H 77.2765 -4.67165 5.94384 0
M  V30 866 H 78.5445 -5.6893 5.3286 0
M  V30 867 N 82.7736 -1.49793 -0.48987 0
M  V30 868 C 84.1896 -1.36803 -0.822022 0
M  V30 869 C 84.3896 -0.409652 -1.97292 0
M  V30 870 O 83.4456 0.154614 -2.52026 0
M  V30 871 C 84.7586 -2.77768 -1.15175 0
M  V30 872 C 86.3066 -2.86549 -1.25931 0
M  V30 873 C 86.7816 -4.28306 -1.62228 0
M  V30 874 N 88.2726 -4.31169 -1.69256 0
M  V30 875 C 89.0076 -5.37832 -1.98807 0
M  V30 876 N 88.5036 -6.54726 -2.26507 0
M  V30 877 N 90.2966 -5.25258 -2.00152 0
M  V30 878 H 82.4476 -2.10691 0.268881 0
M  V30 879 H 84.7106 -0.946241 0.057728 0
M  V30 880 H 84.4166 -3.49648 -0.379335 0
M  V30 881 H 84.2906 -3.13836 -2.09253 0
M  V30 882 H 86.6776 -2.14899 -2.02243 0
M  V30 883 H 86.7586 -2.54049 -0.298776 0
M  V30 884 H 86.4026 -5.00486 -0.864622 0
M  V30 885 H 86.3326 -4.58279 -2.594 0
M  V30 886 H 88.8236 -3.4687 -1.49965 0
M  V30 887 H 89.1366 -7.31833 -2.48276 0
M  V30 888 H 87.4816 -6.57933 -2.23939 0
M  V30 889 H 90.6726 -4.32938 -1.77996 0
M  V30 890 H 90.8456 -6.08476 -2.22848 0
M  V30 891 N 84.2517 0.741722 -1.39055 0
M  V30 892 C 85.6677 1.04638 -1.20512 0
M  V30 893 C 85.8677 2.01405 -0.0620218 0
M  V30 894 O 84.9237 2.45547 0.588457 0
M  V30 895 C 86.2367 1.6151 -2.53643 0
M  V30 896 C 87.7847 1.73623 -2.6043 0
M  V30 897 C 88.2597 2.33906 -3.93767 0
M  V30 898 N 89.7507 2.41323 -3.9537 0
M  V30 899 C 90.4857 2.88888 -4.95309 0
M  V30 900 N 89.9817 3.36401 -6.05645 0
M  V30 901 N 91.7747 2.88037 -4.82692 0
M  V30 902 H 83.9257 0.0998155 -2.12165 0
M  V30 903 H 86.1887 0.106907 -0.941953 0
M  V30 904 H 85.8947 0.978739 -3.37807 0
M  V30 905 H 85.7687 2.60411 -2.72885 0
M  V30 906 H 88.1557 2.36384 -1.76655 0
M  V30 907 H 88.2367 0.733945 -2.45045 0
M  V30 908 H 87.8807 1.71776 -4.7797 0
M  V30 909 H 87.8107 3.34799 -4.06469 0
M  V30 910 H 90.3017 2.07734 -3.15682 0
M  V30 911 H 90.6147 3.71186 -6.77821 0
M  V30 912 H 88.9597 3.34427 -6.09248 0
M  V30 913 H 92.1507 2.50237 -3.95599 0
M  V30 914 H 92.3237 3.24792 -5.60726 0
M  V30 915 N 85.7298 1.2412 0.971189 0
M  V30 916 C 87.0068 0.986867 1.6888 0
M  V30 917 C 87.3868 -0.491857 2.0529 0
M  V30 918 O 86.7348 -1.46531 1.75331 0
M  V30 919 C 86.9448 1.9063 2.92338 0
M  V30 920 C 88.2928 2.17515 3.64654 0
M  V30 921 O 89.3168 1.88254 3.02388 0
M  V30 922 O 88.1758 2.6719 4.7673 0
M  V30 923 H 85.2698 0.372944 0.738134 0
M  V30 924 H 87.8158 1.35203 1.02559 0
M  V30 925 H 86.5878 2.90552 2.62097 0
M  V30 926 H 86.2108 1.54408 3.66393 0
M  V30 927 N 87.2079 -1.17134 1.05439 0
M  V30 928 C 88.1179 -2.24878 0.668365 0
M  V30 929 C 89.1339 -1.71186 -0.311687 0
M  V30 930 O 90.3099 -2.00738 -0.163161 0
M  V30 931 C 87.3749 -3.46662 0.051648 0
M  V30 932 C 86.4359 -4.15429 1.08246 0
M  V30 933 C 85.6689 -5.31399 0.495082 0
M  V30 934 O 85.8919 -5.66153 -0.694743 0
M  V30 935 O 84.8259 -5.89187 1.23056 0
M  V30 936 H 88.6519 -2.60189 1.56637 0
M  V30 937 H 86.2369 -1.24482 0.826104 0
M  V30 938 H 88.1189 -4.20394 -0.290966 0
M  V30 939 H 86.7939 -3.13142 -0.819971 0
M  V30 940 H 85.7009 -3.43704 1.47711 0
M  V30 941 H 87.0339 -4.52982 1.92532 0
M  V30 942 N 88.686 -0.835752 -1.33615 0
M  V30 943 C 89.649 -0.272 -2.2758 0
M  V30 944 C 90.649 0.557487 -1.50827 0
M  V30 945 O 91.839 0.37173 -1.70188 0
M  V30 946 C 88.971 0.617173 -3.35267 0
M  V30 947 H 90.164 -1.10111 -2.78954 0
M  V30 948 H 87.717 -0.608594 -1.43965 0
M  V30 949 H 88.452 1.46884 -2.89129 0
M  V30 950 H 88.237 0.0237066 -3.92093 0
M  V30 951 H 89.727 1.005 -4.05326 0
M  V30 952 N 90.1641 1.46063 -0.591896 0
M  V30 953 C 91.1271 2.28854 0.125973 0
M  V30 954 C 92.1271 1.38903 0.810107 0
M  V30 955 O 93.3171 1.61186 0.66066 0
M  V30 956 C 90.4491 3.19526 1.1881 0
M  V30 957 H 91.6421 2.93802 -0.601717 0
M  V30 958 H 89.1951 1.52325 -0.350254 0
M  V30 959 H 89.9301 2.59345 1.94707 0
M  V30 960 H 89.7151 3.85766 0.701936 0
M  V30 961 H 91.2051 3.81817 1.69132 0
M  V30 962 N 91.6422 0.330177 1.54103 0
M  V30 963 C 92.6052 -0.520144 2.2322 0
M  V30 964 C 93.6052 -1.03828 1.22786 0
M  V30 965 O 94.7952 -0.929652 1.4732 0
M  V30 966 C 91.9272 -1.72317 2.94142 0
M  V30 967 H 93.1202 0.0841605 2.99782 0
M  V30 968 H 90.6732 0.0813433 1.56088 0
M  V30 969 H 91.4082 -2.36653 2.21734 0
M  V30 970 H 91.1932 -1.35898 3.67796 0
M  V30 971 H 92.6832 -2.3266 3.46784 0
M  V30 972 N 93.1203 -1.57491 0.0584922 0
M  V30 973 C 94.0833 -2.1085 -0.898617 0
M  V30 974 C 95.0833 -1.02964 -1.23511 0
M  V30 975 O 96.2733 -1.29007 -1.17059 0
M  V30 976 C 93.4053 -2.59881 -2.20623 0
M  V30 977 H 94.5983 -2.96715 -0.435936 0
M  V30 978 H 92.1513 -1.55141 -0.190023 0
M  V30 979 H 92.8863 -1.77431 -2.71457 0
M  V30 980 H 92.6713 -3.38727 -1.97501 0
M  V30 981 H 94.1613 -3.01285 -2.89166 0
M  V30 982 N 94.5984 0.214957 -1.56127 0
M  V30 983 C 95.5614 1.24997 -1.92116 0
M  V30 984 C 96.5614 1.39467 -0.800344 0
M  V30 985 O 97.7514 1.37619 -1.06802 0
M  V30 986 C 94.8834 2.62271 -2.17777 0
M  V30 987 H 96.0764 0.942875 -2.84693 0
M  V30 988 H 93.6294 0.455654 -1.49511 0
M  V30 989 H 94.3644 2.98068 -1.27773 0
M  V30 990 H 94.1494 2.53143 -2.99434 0
M  V30 991 H 95.6394 3.36946 -2.46693 0
M  V30 992 N 96.0765 1.50051 0.48192 0
M  V30 993 C 97.3245 1.60181 1.23234 0
M  V30 994 C 97.6455 0.299176 1.92691 0
M  V30 995 O 96.9155 -0.682708 1.83619 0
M  V30 996 H 95.4955 0.590232 0.457859 0
M  V30 997 H 98.1575 1.86775 0.556881 0
M  V30 998 H 97.2535 2.40753 1.98607 0
M  V30 999 N 97.5546 -0.734337 1.39446 0
M  V30 1000 C 98.5176 -1.83004 1.37994 0
M  V30 1001 C 99.5176 -1.58397 0.276938 0
M  V30 1002 O 100.708 -1.65785 0.534875 0
M  V30 1003 C 97.8396 -3.20802 1.1532 0
M  V30 1004 H 99.0326 -1.85694 2.35494 0
M  V30 1005 H 96.5856 -0.938059 1.25021 0
M  V30 1006 H 97.3206 -3.23772 0.185036 0
M  V30 1007 H 97.1056 -3.4006 1.95197 0
M  V30 1008 H 98.5956 -4.00862 1.17046 0
M  V30 1009 N 99.0327 -1.24633 -0.964593 0
M  V30 1010 C 100.281 -1.08573 -1.70459 0
M  V30 1011 C 100.602 0.375655 -1.91347 0
M  V30 1012 O 99.8717 1.26779 -1.49345 0
M  V30 1013 H 98.4517 -0.398784 -0.631649 0
M  V30 1014 H 101.114 -1.56601 -1.16026 0
M  V30 1015 H 100.21 -1.58623 -2.68785 0
M  V30 1016 N 100.511 1.16574 -1.06058 0
M  V30 1017 C 101.922 1.68662 -0.800632 0
M  V30 1018 C 102.273 1.84184 0.67608 0
M  V30 1019 O 101.398 1.53568 1.52466 0
M  V30 1020 C 101.993 3.06356 -1.44676 0
M  V30 1021 C 100.552 3.55575 -1.23465 0
M  V30 1022 C 99.6988 2.31616 -1.52477 0
M  V30 1023 H 102.65 1.00969 -1.22438 0
M  V30 1024 H 102.671 3.70636 -0.860788 0
M  V30 1025 H 102.183 2.95027 -2.52152 0
M  V30 1026 H 100.284 3.72167 -0.179527 0
M  V30 1027 H 100.397 4.37812 -1.94571 0
M  V30 1028 H 98.7608 2.36512 -0.945209 0
M  V30 1029 H 99.5438 2.22887 -2.61106 0
M  V30 1030 N 101.989 0.842826 1.3317 0
M  V30 1031 C 103.405 0.531128 1.50503 0
M  V30 1032 C 103.605 -0.940734 1.78192 0
M  V30 1033 O 102.661 -1.72436 1.84451 0
M  V30 1034 C 103.974 1.40789 2.65705 0
M  V30 1035 C 105.522 1.40708 2.79589 0
M  V30 1036 C 105.997 2.26878 3.97857 0
M  V30 1037 N 107.488 2.24609 4.05099 0
M  V30 1038 C 108.223 2.88019 4.95815 0
M  V30 1039 N 107.719 3.60496 5.9162 0
M  V30 1040 N 109.512 2.77469 4.88843 0
M  V30 1041 H 101.663 1.79557 1.1346 0
M  V30 1042 H 103.926 0.766267 0.558156 0
M  V30 1043 H 103.632 2.454 2.51936 0
M  V30 1044 H 103.506 1.08677 3.61205 0
M  V30 1045 H 105.893 0.368668 2.92788 0
M  V30 1046 H 105.974 1.76829 1.84838 0
M  V30 1047 H 105.618 3.3078 3.85418 0
M  V30 1048 H 105.548 1.88096 4.91861 0
M  V30 1049 H 108.039 1.71906 3.36536 0
M  V30 1050 H 108.352 4.06076 6.57512 0
M  V30 1051 H 106.697 3.64604 5.91683 0
M  V30 1052 H 109.888 2.20406 4.12963 0
M  V30 1053 H 110.061 3.2717 5.59342 0
M  V30 1054 N 103.467 -1.45747 0.599634 0
M  V30 1055 C 104.715 -2.01893 0.0915472 0
M  V30 1056 C 105.036 -1.47155 -1.27946 0
M  V30 1057 O 104.306 -0.66273 -1.84349 0
M  V30 1058 H 102.886 -0.746363 0.0308524 0
M  V30 1059 H 105.548 -1.78645 0.779237 0
M  V30 1060 H 104.644 -3.1208 0.0353086 0
M  V30 1061 N 104.945 -0.338344 -1.53925 0
M  V30 1062 C 106.193 0.259245 -2.0043 0
M  V30 1063 C 106.514 1.51484 -1.22791 0
M  V30 1064 O 105.784 1.93037 -0.33368 0
M  V30 1065 H 104.364 0.0987845 -0.740439 0
M  V30 1066 H 107.026 -0.458302 -1.89435 0
M  V30 1067 H 106.122 0.505334 -3.07982 0
M  V30 1068 N 106.423 1.57458 -0.0668435 0
M  V30 1069 C 107.839 1.56947 0.289772 0
M  V30 1070 C 108.039 1.07584 1.70376 0
M  V30 1071 O 107.095 0.739486 2.41429 0
M  V30 1072 C 108.408 3.0052 0.103943 0
M  V30 1073 C 109.956 3.12517 0.173857 0
M  V30 1074 C 110.431 4.57997 0.0163682 0
M  V30 1075 N 111.922 4.63144 0.0721352 0
M  V30 1076 C 112.657 5.73394 -0.0253794 0
M  V30 1077 N 112.153 6.92576 -0.176133 0
M  V30 1078 N 113.946 5.62091 0.0313305 0
M  V30 1079 H 106.097 1.87863 -0.991027 0
M  V30 1080 H 108.36 0.86583 -0.38606 0
M  V30 1081 H 108.066 3.40729 -0.871572 0
M  V30 1082 H 107.94 3.67304 0.858366 0
M  V30 1083 H 110.327 2.72197 1.13985 0
M  V30 1084 H 110.408 2.48381 -0.611586 0
M  V30 1085 H 110.052 4.99005 -0.946374 0
M  V30 1086 H 109.982 5.20158 0.821153 0
M  V30 1087 H 112.473 3.77436 0.187263 0
M  V30 1088 H 112.786 7.72418 -0.242821 0
M  V30 1089 H 111.131 6.94678 -0.211429 0
M  V30 1090 H 114.322 4.67867 0.147773 0
M  V30 1091 H 114.495 6.47982 -0.048121 0
M  V30 1092 N 107.901 -0.206675 1.56239 0
M  V30 1093 C 109.126 -0.949474 1.8439 0
M  V30 1094 C 109.551 -1.76549 0.649016 0
M  V30 1095 O 108.909 -1.76782 -0.402231 0
M  V30 1096 C 108.957 -1.83078 3.10668 0
M  V30 1097 O 108.061 -2.9281 2.90407 0
M  V30 1098 H 107.402 -0.268033 0.607499 0
M  V30 1099 H 109.932 -0.215488 2.03462 0
M  V30 1100 H 109.942 -2.2377 3.41161 0
M  V30 1101 H 108.617 -1.23112 3.97261 0
M  V30 1102 H 107.194 -2.55956 2.71184 0
M  V30 1103 N 109.379 -1.50304 -0.473955 0
M  V30 1104 C 110.79 -1.54042 -1.0549 0
M  V30 1105 C 111.141 -0.342248 -1.93192 0
M  V30 1106 O 110.266 0.545157 -2.09421 0
M  V30 1107 C 110.861 -2.79152 -1.91989 0
M  V30 1108 C 109.42 -2.8558 -2.45196 0
M  V30 1109 C 108.567 -2.48295 -1.2347 0
M  V30 1110 H 111.518 -1.5661 -0.256693 0
M  V30 1111 H 111.539 -2.60845 -2.7702 0
M  V30 1112 H 111.051 -3.66339 -1.28131 0
M  V30 1113 H 109.152 -2.02738 -3.12615 0
M  V30 1114 H 109.265 -3.88403 -2.80499 0
M  V30 1115 H 107.629 -2.00669 -1.56856 0
M  V30 1116 H 108.412 -3.37787 -0.612789 0
M  V30 1117 N 110.857 0.726932 -1.39834 0
M  V30 1118 C 111.82 1.82269 -1.38962 0
M  V30 1119 C 112.82 1.58248 -0.285334 0
M  V30 1120 O 114.01 1.65499 -0.54366 0
M  V30 1121 C 111.142 3.20186 -1.17019 0
M  V30 1122 H 112.335 1.84443 -2.36476 0
M  V30 1123 H 109.888 0.931416 -1.25516 0
M  V30 1124 H 110.623 3.23669 -0.202204 0
M  V30 1125 H 110.408 3.3902 -1.96998 0
M  V30 1126 H 111.898 4.00235 -1.1917 0
M  V30 1127 N 112.336 1.25143 0.95797 0
M  V30 1128 C 113.584 1.09476 1.69881 0
M  V30 1129 C 113.905 -0.365502 1.91544 0
M  V30 1130 O 113.175 -1.25985 1.50015 0
M  V30 1131 H 111.755 0.402128 0.629525 0
M  V30 1132 H 114.417 1.57214 1.15194 0
M  V30 1133 H 113.513 1.60046 2.6794 0
M  V30 1134 N 113.814 -1.1601 1.06675 0
M  V30 1135 C 114.777 -2.18724 0.685001 0
M  V30 1136 C 115.777 -1.58496 -0.271246 0
M  V30 1137 O 116.967 -1.74119 -0.0531156 0
M  V30 1138 C 114.099 -3.40899 0.00853648 0
M  V30 1139 H 115.292 -2.54011 1.59431 0
M  V30 1140 H 112.845 -1.30352 0.862441 0
M  V30 1141 H 113.58 -3.11173 -0.913337 0
M  V30 1142 H 113.365 -3.8587 0.696204 0
M  V30 1143 H 114.855 -4.16886 -0.24414 0
M  V30 1144 N 115.292 -0.849877 -1.32721 0
M  V30 1145 C 116.517 -0.463856 -2.02146 0
M  V30 1146 C 116.942 0.930449 -1.63476 0
M  V30 1147 O 116.3 1.61033 -0.832952 0
M  V30 1148 C 116.348 -0.604955 -3.55489 0
M  V30 1149 O 115.452 0.36425 -4.10788 0
M  V30 1150 H 114.793 -0.187046 -0.637111 0
M  V30 1151 H 117.323 -1.14775 -1.69375 0
M  V30 1152 H 117.333 -0.490696 -4.05038 0
M  V30 1153 H 116.008 -1.62174 -3.82978 0
M  V30 1154 H 114.585 0.206628 -3.72327 0
M  V30 1155 N 116.77 1.45427 -0.607355 0
M  V30 1156 C 118.018 2.01841 -0.102253 0
M  V30 1157 C 118.339 1.47832 1.27164 0
M  V30 1158 O 117.609 0.672497 1.83995 0
M  V30 1159 H 116.189 0.746188 -0.0348101 0
M  V30 1160 H 118.851 1.78229 -0.7887 0
M  V30 1161 H 117.947 3.12057 -0.0518585 0
M  V30 1162 N 118.248 0.346503 1.53744 0
M  V30 1163 C 119.198 -0.524953 2.21874 0
M  V30 1164 C 120.182 -1.06376 1.20718 0
M  V30 1165 O 121.374 -0.996972 1.46251 0
M  V30 1166 C 118.503 -1.6739 2.99726 0
M  V30 1167 C 117.589 -1.14888 4.08242 0
M  V30 1168 N 117.98 -0.345329 5.0462 0
M  V30 1169 C 116.278 -1.4255 4.22606 0
M  V30 1170 C 116.979 -0.0600706 5.81669 0
M  V30 1171 N 115.955 -0.65252 5.39669 0
M  V30 1172 H 119.757 0.0960091 2.93743 0
M  V30 1173 H 117.271 0.15352 1.61673 0
M  V30 1174 H 119.268 -2.3102 3.47038 0
M  V30 1175 H 117.928 -2.29811 2.29384 0
M  V30 1176 H 118.939 0.0138439 5.17898 0
M  V30 1177 H 115.616 -2.05389 3.63486 0
M  V30 1178 H 117.006 0.588321 6.69319 0
M  V30 1179 N 119.726 -1.57421 0.075193 0
M  V30 1180 C 121.142 -1.57099 -0.281444 0
M  V30 1181 C 121.342 -1.08486 -1.69803 0
M  V30 1182 O 120.398 -0.752279 -2.41033 0
M  V30 1183 C 121.711 -3.00571 -0.0880041 0
M  V30 1184 C 123.259 -3.12605 -0.157281 0
M  V30 1185 C 123.734 -4.57999 0.0079207 0
M  V30 1186 N 125.225 -4.63176 -0.0475725 0
M  V30 1187 C 125.96 -5.73373 0.0557876 0
M  V30 1188 N 125.456 -6.92473 0.21286 0
M  V30 1189 N 127.249 -5.621 -0.00152098 0
M  V30 1190 H 119.4 -1.87335 1.00098 0
M  V30 1191 H 121.663 -0.86377 0.390646 0
M  V30 1192 H 121.369 -3.40262 0.889629 0
M  V30 1193 H 121.243 -3.67754 -0.838875 0
M  V30 1194 H 123.63 -2.72798 -1.1254 0
M  V30 1195 H 123.711 -2.48053 0.62475 0
M  V30 1196 H 123.355 -4.98496 0.972824 0
M  V30 1197 H 123.285 -5.20586 -0.793556 0
M  V30 1198 H 125.776 -3.7753 -0.167244 0
M  V30 1199 H 126.089 -7.72279 0.283781 0
M  V30 1200 H 124.434 -6.94556 0.248267 0
M  V30 1201 H 127.625 -4.67938 -0.122958 0
M  V30 1202 H 127.798 -6.47948 0.0824844 0
M  V30 1203 N 121.204 0.198386 -1.56346 0
M  V30 1204 C 122.167 1.22952 -1.93431 0
M  V30 1205 C 123.167 1.38611 -0.815092 0
M  V30 1206 O 124.357 1.36479 -1.08255 0
M  V30 1207 C 121.489 2.59946 -2.20546 0
M  V30 1208 H 122.682 0.912626 -2.85677 0
M  V30 1209 H 120.235 0.43977 -1.49986 0
M  V30 1210 H 120.97 2.96696 -1.30927 0
M  V30 1211 H 120.755 2.49953 -3.02102 0
M  V30 1212 H 122.245 3.3431 -2.50253 0
M  V30 1213 N 122.682 1.50554 0.465978 0
M  V30 1214 C 123.93 1.61479 1.21528 0
M  V30 1215 C 124.251 0.319596 1.92363 0
M  V30 1216 O 123.521 -0.663194 1.84333 0
M  V30 1217 H 122.101 0.595055 0.451573 0
M  V30 1218 H 124.763 1.87355 0.53704 0
M  V30 1219 H 123.859 2.42846 1.96042 0
M  V30 1220 N 124.16 -0.719506 1.40217 0
M  V30 1221 C 125.123 -1.8153 1.39927 0
M  V30 1222 C 126.123 -1.58095 0.293723 0
M  V30 1223 O 127.313 -1.65209 0.552429 0
M  V30 1224 C 124.445 -3.19561 1.18716 0
M  V30 1225 H 125.638 -1.83186 2.37451 0
M  V30 1226 H 123.191 -0.924746 1.26008 0
M  V30 1227 H 123.926 -3.23557 0.219366 0
M  V30 1228 H 123.711 -3.3797 1.98793 0
M  V30 1229 H 125.201 -3.99598 1.21291 0
M  V30 1230 N 125.638 -1.25649 -0.95132 0
M  V30 1231 C 126.886 -1.10375 -1.69298 0
M  V30 1232 C 127.207 0.355339 -1.91735 0
M  V30 1233 O 126.477 1.25188 -1.50681 0
M  V30 1234 H 125.057 -0.405461 -0.627384 0
M  V30 1235 H 127.719 -1.57823 -1.14358 0
M  V30 1236 H 126.815 -1.61465 -2.67087 0
M  V30 1237 N 127.117 1.15442 -1.07289 0
M  V30 1238 C 128.365 1.85845 -0.794096 0
M  V30 1239 C 128.686 1.82692 0.681809 0
M  V30 1240 O 127.956 1.26741 1.49377 0
M  V30 1241 H 126.536 0.688089 -0.290763 0
M  V30 1242 H 129.198 1.39947 -1.3565 0
M  V30 1243 H 128.294 2.91001 -1.12804 0
M  V30 1244 N 128.595 0.856903 1.32268 0
M  V30 1245 C 130.011 0.547061 1.49931 0
M  V30 1246 C 130.211 -0.921781 1.7918 0
M  V30 1247 O 129.267 -1.70469 1.8627 0
M  V30 1248 C 130.58 1.43599 2.64196 0
M  V30 1249 C 132.128 1.43665 2.78081 0
M  V30 1250 C 132.603 2.31085 3.95428 0
M  V30 1251 N 134.094 2.28893 4.02694 0
M  V30 1252 C 134.829 2.93262 4.92732 0
M  V30 1253 N 134.325 3.66751 5.87763 0
M  V30 1254 N 136.118 2.82638 4.85873 0
M  V30 1255 H 128.269 1.8075 1.11549 0
M  V30 1256 H 130.532 0.772144 0.549997 0
M  V30 1257 H 130.238 2.48058 2.49319 0
M  V30 1258 H 130.112 1.12502 3.60032 0
M  V30 1259 H 132.499 0.399701 2.92381 0
M  V30 1260 H 132.58 1.7878 1.82952 0
M  V30 1261 H 132.224 3.34849 3.81888 0
M  V30 1262 H 132.154 1.93302 4.89839 0
M  V30 1263 H 134.645 1.75466 3.34694 0
M  V30 1264 H 134.958 4.13027 6.53168 0
M  V30 1265 H 133.303 3.70859 5.87783 0
M  V30 1266 H 136.494 2.24774 4.10602 0
M  V30 1267 H 136.667 3.33084 5.55841 0
M  V30 1268 N 130.073 -1.45103 0.615059 0
M  V30 1269 C 131.489 -1.57137 0.279322 0
M  V30 1270 C 131.689 -1.60523 -1.21797 0
M  V30 1271 O 130.745 -1.53956 -2.00134 0
M  V30 1272 C 132.058 -2.85062 0.957083 0
M  V30 1273 C 133.606 -2.98749 0.933706 0
M  V30 1274 C 134.081 -4.29455 1.59162 0
M  V30 1275 N 135.572 -4.36231 1.55746 0
M  V30 1276 C 136.307 -5.36051 2.0356 0
M  V30 1277 N 135.803 -6.42367 2.59494 0
M  V30 1278 N 137.596 -5.27456 1.94284 0
M  V30 1279 H 129.747 -1.41148 1.58717 0
M  V30 1280 H 132.01 -0.675331 0.665306 0
M  V30 1281 H 131.716 -2.88488 2.01166 0
M  V30 1282 H 131.59 -3.7407 0.48494 0
M  V30 1283 H 133.977 -2.94886 -0.112347 0
M  V30 1284 H 134.058 -2.11132 1.44419 0
M  V30 1285 H 133.702 -4.34077 2.63704 0
M  V30 1286 H 133.632 -5.15901 1.0561 0
M  V30 1287 H 136.123 -3.60011 1.14893 0
M  V30 1288 H 136.436 -7.14793 2.93752 0
M  V30 1289 H 134.781 -6.43097 2.63537 0
M  V30 1290 H 137.972 -4.43308 1.5032 0
M  V30 1291 H 138.145 -6.05099 2.3186 0
M  V30 1292 N 131.551 -0.354651 -1.53558 0
M  V30 1293 C 132.461 0.50515 -2.29097 0
M  V30 1294 C 133.477 1.10223 -1.34636 0
M  V30 1295 O 134.653 1.11553 -1.67684 0
M  V30 1296 C 131.718 1.63479 -3.05738 0
M  V30 1297 C 130.779 1.06636 -4.15845 0
M  V30 1298 C 130.012 2.14217 -4.88822 0
M  V30 1299 O 130.235 3.35137 -4.61562 0
M  V30 1300 O 129.169 1.77887 -5.75013 0
M  V30 1301 H 132.995 -0.109237 -3.03503 0
M  V30 1302 H 130.58 -0.119357 -1.48922 0
M  V30 1303 H 132.462 2.2918 -3.5363 0
M  V30 1304 H 131.137 2.23478 -2.34178 0
M  V30 1305 H 130.044 0.373565 -3.7223 0
M  V30 1306 H 131.377 0.511081 -4.89539 0
M  V30 1307 N 133.029 1.57378 -0.0835403 0
M  V30 1308 C 134.254 1.98682 0.594987 0
M  V30 1309 C 134.679 0.961969 1.61641 0
M  V30 1310 O 134.037 -0.0709989 1.81161 0
M  V30 1311 C 134.085 3.38988 1.2296 0
M  V30 1312 O 133.189 3.39208 2.34546 0
M  V30 1313 H 132.53 0.646368 0.152002 0
M  V30 1314 H 135.06 2.03961 -0.161533 0
M  V30 1315 H 135.07 3.76431 1.57366 0
M  V30 1316 H 133.745 4.13107 0.481228 0
M  V30 1317 H 132.322 3.13548 2.01846 0
M  V30 1318 N 134.507 -0.190092 1.56449 0
M  V30 1319 C 135.439 -1.25973 1.91477 0
M  V30 1320 C 136.452 -1.41452 0.805931 0
M  V30 1321 O 137.641 -1.41789 1.08435 0
M  V30 1322 C 134.741 -2.63117 2.13594 0
M  V30 1323 C 133.914 -2.69182 3.4476 0
M  V30 1324 C 132.973 -3.87557 3.5593 0
M  V30 1325 O 131.999 -3.74427 4.28711 0
M  V30 1326 N 133.201 -5.03224 2.89388 0
M  V30 1327 H 135.966 -0.962394 2.83828 0
M  V30 1328 H 133.527 -0.379981 1.57378 0
M  V30 1329 H 135.519 -3.40742 2.1835 0
M  V30 1330 H 134.089 -2.85319 1.27719 0
M  V30 1331 H 133.309 -1.77793 3.51828 0
M  V30 1332 H 134.597 -2.70229 4.31107 0
M  V30 1333 H 133.995 -5.16791 2.30094 0
M  V30 1334 H 132.552 -5.78778 2.99764 0
M  V30 1335 N 135.985 -1.50799 -0.457987 0
M  V30 1336 C 136.932 -1.70617 -1.5543 0
M  V30 1337 C 137.902 -0.547562 -1.56815 0
M  V30 1338 O 139.087 -0.779647 -1.74144 0
M  V30 1339 C 136.227 -1.81831 -2.93311 0
M  V30 1340 C 135.34 -3.09278 -3.01615 0
M  V30 1341 C 134.475 -3.11209 -4.30491 0
M  V30 1342 C 133.514 -4.33055 -4.32585 0
M  V30 1343 N 132.651 -4.32652 -5.52952 0
M  V30 1344 H 137.491 -2.64207 -1.37836 0
M  V30 1345 H 135.028 -1.30959 -0.669937 0
M  V30 1346 H 136.986 -1.86314 -3.73287 0
M  V30 1347 H 135.616 -0.916685 -3.0951 0
M  V30 1348 H 134.668 -3.14203 -2.1443 0
M  V30 1349 H 135.98 -3.99233 -2.99022 0
M  V30 1350 H 135.134 -3.14494 -5.18824 0
M  V30 1351 H 133.873 -2.19106 -4.35711 0
M  V30 1352 H 132.878 -4.29969 -3.42647 0
M  V30 1353 H 134.103 -5.264 -4.29046 0
M  V30 1354 H 132.049 -3.43409 -5.58933 0
M  V30 1355 H 131.966 -5.16392 -5.52155 0
M  V30 1356 H 133.234 -4.40101 -6.43375 0
M  V30 1357 N 137.463 0.71206 -1.40597 0
M  V30 1358 C 138.373 1.8562 -1.43466 0
M  V30 1359 C 139.389 1.70902 -0.326902 0
M  V30 1360 O 140.565 1.93105 -0.572043 0
M  V30 1361 C 137.63 3.21451 -1.29884 0
M  V30 1362 C 136.691 3.48398 -2.50833 0
M  V30 1363 C 135.924 4.77749 -2.3789 0
M  V30 1364 O 136.147 5.53089 -1.39459 0
M  V30 1365 O 135.081 5.05111 -3.27333 0
M  V30 1366 H 138.907 1.86155 -2.39958 0
M  V30 1367 H 136.492 0.86295 -1.21957 0
M  V30 1368 H 138.374 4.02579 -1.24531 0
M  V30 1369 H 137.049 3.21636 -0.364997 0
M  V30 1370 H 135.956 2.67265 -2.61763 0
M  V30 1371 H 137.289 3.53014 -3.4299 0
M  V30 1372 N 138.941 1.26152 0.944643 0
M  V30 1373 C 140.357 1.03189 1.21754 0
M  V30 1374 C 140.557 -0.245112 2.00004 0
M  V30 1375 O 139.613 -0.955176 2.33736 0
M  V30 1376 C 140.926 2.26119 1.98219 0
M  V30 1377 C 142.474 2.30984 2.11224 0
M  V30 1378 C 142.949 3.53597 2.91089 0
M  V30 1379 N 144.44 3.54053 2.98664 0
M  V30 1380 C 145.175 4.45593 3.60881 0
M  V30 1381 N 144.671 5.47416 4.24626 0
M  V30 1382 N 146.464 4.33252 3.58119 0
M  V30 1383 H 138.615 2.08177 0.421437 0
M  V30 1384 H 140.878 0.914723 0.248969 0
M  V30 1385 H 140.584 3.18984 1.48128 0
M  V30 1386 H 140.458 2.3009 2.98895 0
M  V30 1387 H 142.845 1.38635 2.60508 0
M  V30 1388 H 142.926 2.31026 1.09821 0
M  V30 1389 H 142.57 4.46273 2.42493 0
M  V30 1390 H 142.5 3.50802 3.92741 0
M  V30 1391 H 144.991 2.80403 2.53343 0
M  V30 1392 H 145.304 6.13459 4.69987 0
M  V30 1393 H 143.649 5.51278 4.23223 0
M  V30 1394 H 146.84 3.52924 3.0751 0
M  V30 1395 H 147.013 5.04786 4.06319 0
M  V30 1396 N 140.419 -1.14872 1.07899 0
M  V30 1397 C 141.366 -2.19791 0.704319 0
M  V30 1398 C 142.336 -1.63238 -0.306987 0
M  V30 1399 O 143.521 -1.8983 -0.192171 0
M  V30 1400 C 140.661 -3.44911 0.114244 0
M  V30 1401 C 139.774 -4.15637 1.1777 0
M  V30 1402 C 138.909 -5.28324 0.552037 0
M  V30 1403 C 137.948 -5.90875 1.59789 0
M  V30 1404 N 137.085 -6.95022 0.994404 0
M  V30 1405 H 141.925 -2.5119 1.60336 0
M  V30 1406 H 139.462 -1.23356 0.801352 0
M  V30 1407 H 141.42 -4.16477 -0.245544 0
M  V30 1408 H 140.05 -3.14011 -0.74813 0
M  V30 1409 H 139.102 -3.42512 1.65499 0
M  V30 1410 H 140.414 -4.5823 1.97046 0
M  V30 1411 H 139.568 -6.06538 0.1402 0
M  V30 1412 H 138.307 -4.86939 -0.272431 0
M  V30 1413 H 137.312 -5.11369 2.01945 0
M  V30 1414 H 138.537 -6.34337 2.42474 0
M  V30 1415 H 136.483 -6.55722 0.190939 0
M  V30 1416 H 136.4 -7.36073 1.72432 0
M  V30 1417 H 137.668 -7.77123 0.608253 0
M  V30 1418 N 141.898 -0.863906 -1.31812 0
M  V30 1419 C 143.123 -0.48527 -2.01643 0
M  V30 1420 C 143.548 0.913058 -1.64453 0
M  V30 1421 O 142.906 1.6014 -0.849985 0
M  V30 1422 C 142.954 -0.642625 -3.54828 0
M  V30 1423 O 142.058 0.320659 -4.11151 0
M  V30 1424 H 141.399 -0.193793 -0.635091 0
M  V30 1425 H 143.929 -1.16565 -1.68148 0
M  V30 1426 H 143.939 -0.533628 -4.04495 0
M  V30 1427 H 142.614 -1.66227 -3.81237 0
M  V30 1428 H 141.191 0.167126 -3.72525 0
M  V30 1429 N 143.376 1.44774 -0.622745 0
M  V30 1430 C 144.306 2.33382 0.0741861 0
M  V30 1431 C 145.287 1.47719 0.843387 0
M  V30 1432 O 146.472 1.76458 0.810934 0
M  V30 1433 C 143.602 3.30663 1.06204 0
M  V30 1434 C 142.556 4.26079 0.405037 0
M  V30 1435 C 141.882 5.13165 1.5022 0
M  V30 1436 C 143.182 5.1781 -0.683414 0
M  V30 1437 H 144.876 2.91905 -0.665713 0
M  V30 1438 H 142.422 1.40363 -0.321587 0
M  V30 1439 H 144.375 3.9153 1.55827 0
M  V30 1440 H 143.099 2.70331 1.83272 0
M  V30 1441 H 141.758 3.66532 -0.0704683 0
M  V30 1442 H 141.406 4.49191 2.26355 0
M  V30 1443 H 141.106 5.77812 1.06803 0
M  V30 1444 H 142.63 5.76902 2.00041 0
M  V30 1445 H 144.044 5.72661 -0.270631 0
M  V30 1446 H 142.441 5.91015 -1.04023 0
M  V30 1447 H 143.511 4.59326 -1.55395 0
M  V30 1448 N 144.854 0.36279 1.53368 0
M  V30 1449 C 146.265 -0.117022 1.86333 0
M  V30 1450 C 146.616 -1.48397 1.28347 0
M  V30 1451 O 145.741 -2.07787 0.604428 0
M  V30 1452 C 146.336 -0.21912 3.38091 0
M  V30 1453 C 144.895 -0.643184 3.70864 0
M  V30 1454 C 144.042 0.211318 2.76494 0
M  V30 1455 H 146.993 0.581687 1.47655 0
M  V30 1456 H 147.014 -1.04319 3.6592 0
M  V30 1457 H 146.526 0.775902 3.80265 0
M  V30 1458 H 144.627 -1.64654 3.34245 0
M  V30 1459 H 144.74 -0.41973 4.77258 0
M  V30 1460 H 143.104 -0.319367 2.5269 0
M  V30 1461 H 143.887 1.20383 3.21501 0
M  V30 1462 N 146.332 -1.57332 0.0918853 0
M  V30 1463 C 147.295 -2.12708 -0.85369 0
M  V30 1464 C 148.295 -1.05561 -1.213 0
M  V30 1465 O 149.485 -1.31461 -1.14296 0
M  V30 1466 C 146.617 -2.64503 -2.15061 0
M  V30 1467 H 147.81 -2.97573 -0.3729 0
M  V30 1468 H 145.363 -1.55509 -0.157072 0
M  V30 1469 H 146.098 -1.83149 -2.67632 0
M  V30 1470 H 145.883 -3.4284 -1.90272 0
M  V30 1471 H 147.373 -3.07351 -2.82711 0
M  V30 1472 N 147.81 0.181792 -1.56548 0
M  V30 1473 C 149.221 0.745244 -1.71181 0
M  V30 1474 C 149.572 1.83262 -0.70068 0
M  V30 1475 O 148.697 2.15946 0.140154 0
M  V30 1476 C 149.292 1.35859 -3.10367 0
M  V30 1477 C 147.851 1.86898 -3.2672 0
M  V30 1478 C 146.998 0.743942 -2.67134 0
M  V30 1479 H 149.949 -0.0434661 -1.5864 0
M  V30 1480 H 149.97 2.22817 -3.08436 0
M  V30 1481 H 149.482 0.566948 -3.83937 0
M  V30 1482 H 147.583 2.68738 -2.5809 0
M  V30 1483 H 147.696 2.02162 -4.34359 0
M  V30 1484 H 146.06 1.16169 -2.26665 0
M  V30 1485 H 146.843 -0.035676 -3.43281 0
M  V30 1486 N 149.288 1.51039 0.449983 0
M  V30 1487 C 150.534 1.63322 1.20223 0
M  V30 1488 C 150.867 0.34241 1.91158 0
M  V30 1489 O 150.142 -0.657344 1.83055 0
M  V30 1490 C 150.425 2.82801 2.22925 0
M  V30 1491 C 150.278 4.21823 1.56157 0
M  V30 1492 C 151.597 2.97807 3.24035 0
M  V30 1493 H 148.716 0.594407 0.435718 0
M  V30 1494 H 151.358 1.83489 0.493136 0
M  V30 1495 H 149.508 2.65738 2.834 0
M  V30 1496 H 151.18 4.50526 0.991162 0
M  V30 1497 H 149.423 4.25105 0.864172 0
M  V30 1498 H 150.094 5.01391 2.30891 0
M  V30 1499 H 152.57 3.13497 2.73603 0
M  V30 1500 H 151.446 3.82992 3.93202 0
M  V30 1501 H 151.707 2.09328 3.89402 0
M  V30 1502 N 150.766 -0.704594 1.40972 0
M  V30 1503 C 151.729 -1.80035 1.41845 0
M  V30 1504 C 152.729 -1.57774 0.310474 0
M  V30 1505 O 153.919 -1.64613 0.56992 0
M  V30 1506 C 151.051 -3.18284 1.22098 0
M  V30 1507 H 152.244 -1.80658 2.3938 0
M  V30 1508 H 149.797 -0.911329 1.26982 0
M  V30 1509 H 150.532 -3.23306 0.253672 0
M  V30 1510 H 150.317 -3.35843 2.02366 0
M  V30 1511 H 151.807 -3.98289 1.25522 0
M  V30 1512 N 152.244 -1.26651 -0.937939 0
M  V30 1513 C 153.176 -1.04283 -2.04102 0
M  V30 1514 C 154.189 -0.00221014 -1.628 0
M  V30 1515 O 155.378 -0.242645 -1.76843 0
M  V30 1516 C 152.478 -0.557846 -3.34277 0
M  V30 1517 C 151.651 -1.66843 -4.04329 0
M  V30 1518 C 150.71 -1.18095 -5.12777 0
M  V30 1519 O 149.736 -1.87865 -5.37304 0
M  V30 1520 N 150.938 -0.0311006 -5.80492 0
M  V30 1521 H 153.703 -1.9927 -2.23856 0
M  V30 1522 H 151.264 -1.1808 -1.10764 0
M  V30 1523 H 153.256 -0.215836 -4.04124 0
M  V30 1524 H 151.826 0.298523 -3.11171 0
M  V30 1525 H 151.046 -2.18123 -3.28353 0
M  V30 1526 H 152.334 -2.41408 -4.47883 0
M  V30 1527 H 151.732 0.551486 -5.63005 0
M  V30 1528 H 150.289 0.251809 -6.51313 0
M  V30 1529 N 153.722 1.14298 -1.08507 0
M  V30 1530 C 155.138 1.37347 -0.812901 0
M  V30 1531 C 155.338 1.93052 0.577325 0
M  V30 1532 O 154.394 2.14389 1.33393 0
M  V30 1533 C 155.707 2.33359 -1.89642 0
M  V30 1534 C 157.255 2.46996 -1.92255 0
M  V30 1535 C 157.73 3.46309 -2.99724 0
M  V30 1536 N 159.221 3.53853 -2.98902 0
M  V30 1537 C 159.956 4.3055 -3.787 0
M  V30 1538 N 159.452 5.10482 -4.6838 0
M  V30 1539 N 161.245 4.25757 -3.66998 0
M  V30 1540 H 153.396 0.764867 -1.9815 0
M  V30 1541 H 155.659 0.398966 -0.859959 0
M  V30 1542 H 155.365 1.99565 -2.89597 0
M  V30 1543 H 155.239 3.33274 -1.76659 0
M  V30 1544 H 157.626 2.80081 -0.929445 0
M  V30 1545 H 157.707 1.47039 -2.09316 0
M  V30 1546 H 157.351 3.13957 -3.99241 0
M  V30 1547 H 157.281 4.46049 -2.79907 0
M  V30 1548 H 159.772 2.96812 -2.33904 0
M  V30 1549 H 160.085 5.66284 -5.25873 0
M  V30 1550 H 158.43 5.09747 -4.72422 0
M  V30 1551 H 161.621 3.62383 -2.96304 0
M  V30 1552 H 161.794 4.85279 -4.29427 0
M  V30 1553 N 155.201 0.870884 1.31352 0
M  V30 1554 C 156.612 0.534714 1.78879 0
M  V30 1555 C 156.963 -0.948423 1.71754 0
M  V30 1556 O 156.088 -1.74055 1.28584 0
M  V30 1557 C 156.683 0.963839 3.24801 0
M  V30 1558 C 155.242 0.679311 3.70219 0
M  V30 1559 C 154.389 1.15465 2.52117 0
M  V30 1560 H 157.34 1.05651 1.18421 0
M  V30 1561 H 157.361 0.286892 3.79417 0
M  V30 1562 H 156.873 2.04332 3.29955 0
M  V30 1563 H 154.974 -0.388769 3.70566 0
M  V30 1564 H 155.087 1.25698 4.62317 0
M  V30 1565 H 153.451 0.574383 2.48139 0
M  V30 1566 H 154.234 2.24157 2.60016 0
M  V30 1567 N 156.679 -1.44442 0.630414 0
M  V30 1568 C 157.956 -1.9549 0.0655657 0
M  V30 1569 C 158.336 -1.5724 -1.40851 0
M  V30 1570 O 157.684 -0.846116 -2.12257 0
M  V30 1571 C 157.894 -3.47812 0.287691 0
M  V30 1572 C 159.242 -4.24216 0.180513 0
M  V30 1573 O 160.266 -3.55526 0.219019 0
M  V30 1574 O 159.125 -5.46434 0.0848493 0
M  V30 1575 H 156.219 -0.826688 -0.0227177 0
M  V30 1576 H 158.765 -1.54496 0.702068 0
M  V30 1577 H 157.537 -3.687 1.31056 0
M  V30 1578 H 157.16 -3.95751 -0.382984 0
M  V30 1579 N 158.157 -0.370918 -1.53173 0
M  V30 1580 C 159.382 0.220293 -2.06227 0
M  V30 1581 C 159.807 1.41243 -1.24225 0
M  V30 1582 O 159.165 1.79387 -0.262645 0
M  V30 1583 C 159.213 0.586663 -3.55796 0
M  V30 1584 O 158.317 1.68317 -3.76488 0
M  V30 1585 H 157.658 0.0308099 -0.663285 0
M  V30 1586 H 160.188 -0.533068 -1.97534 0
M  V30 1587 H 160.198 0.85617 -3.98916 0
M  V30 1588 H 158.873 -0.285013 -4.14922 0
M  V30 1589 H 157.45 1.40881 -3.45264 0
M  V30 1590 N 159.635 1.57281 -0.100228 0
M  V30 1591 C 161.046 1.81725 0.428107 0
M  V30 1592 C 161.397 1.01619 1.67833 0
M  V30 1593 O 160.522 0.247098 2.14985 0
M  V30 1594 C 161.117 3.29617 0.78347 0
M  V30 1595 C 159.676 3.54808 1.25653 0
M  V30 1596 C 158.823 2.76118 0.255752 0
M  V30 1597 H 161.774 1.55324 -0.325608 0
M  V30 1598 H 161.795 3.4322 1.64256 0
M  V30 1599 H 161.307 3.87893 -0.12665 0
M  V30 1600 H 159.408 3.01868 2.18418 0
M  V30 1601 H 159.521 4.63443 1.21482 0
M  V30 1602 H 157.885 2.43745 0.738956 0
M  V30 1603 H 158.668 3.37145 -0.647136 0
M  V30 1604 N 161.113 -0.173488 1.56642 0
M  V30 1605 C 162.361 -0.888706 1.81512 0
M  V30 1606 C 162.682 -1.82875 0.676872 0
M  V30 1607 O 161.952 -1.93536 -0.303414 0
M  V30 1608 H 160.532 -0.331164 0.669582 0
M  V30 1609 H 163.194 -0.173823 1.94123 0
M  V30 1610 H 162.29 -1.46691 2.75478 0
M  V30 1611 N 162.591 -1.51276 -0.441967 0
M  V30 1612 C 163.839 -1.63392 -1.18943 0
M  V30 1613 C 164.16 -0.350159 -1.9183 0
M  V30 1614 O 163.43 0.633784 -1.85364 0
M  V30 1615 H 162.01 -0.602164 -0.442049 0
M  V30 1616 H 164.672 -1.88186 -0.507165 0
M  V30 1617 H 163.768 -2.45934 -1.92154 0
M  V30 1618 N 164.069 0.697108 -1.41344 0
M  V30 1619 C 165.317 1.45426 -1.40341 0
M  V30 1620 C 165.638 1.94996 -0.0128787 0
M  V30 1621 O 164.908 1.71599 0.945027 0
M  V30 1622 H 163.488 0.539594 -0.516573 0
M  V30 1623 H 166.15 0.825201 -1.76569 0
M  V30 1624 H 165.246 2.31817 -2.08967 0
M  V30 1625 N 165.547 1.27147 0.931209 0
M  V30 1626 C 166.477 1.12081 2.04842 0
M  V30 1627 C 167.458 0.0232364 1.70084 0
M  V30 1628 O 168.643 0.197085 1.93197 0
M  V30 1629 C 165.773 0.76354 3.38803 0
M  V30 1630 C 164.727 1.81396 3.87659 0
M  V30 1631 C 164.053 1.31075 5.18385 0
M  V30 1632 C 165.353 3.21739 4.11438 0
M  V30 1633 H 167.047 2.05537 2.17703 0
M  V30 1634 H 164.593 0.989603 1.04608 0
M  V30 1635 H 166.546 0.644982 4.16435 0
M  V30 1636 H 165.27 -0.206727 3.25945 0
M  V30 1637 H 163.929 1.92136 3.12217 0
M  V30 1638 H 163.577 0.330037 5.01916 0
M  V30 1639 H 163.277 2.013 5.52044 0
M  V30 1640 H 164.801 1.20506 5.98591 0
M  V30 1641 H 166.215 3.14019 4.79651 0
M  V30 1642 H 164.612 3.89644 4.56397 0
M  V30 1643 H 165.682 3.67054 3.16859 0
M  V30 1644 N 167.025 -1.13721 1.09112 0
M  V30 1645 C 167.957 -2.1871 0.685467 0
M  V30 1646 C 168.97 -1.60527 -0.271068 0
M  V30 1647 O 170.159 -1.78407 -0.0576148 0
M  V30 1648 C 167.259 -3.38898 -0.0111255 0
M  V30 1649 C 166.432 -4.26597 0.966131 0
M  V30 1650 C 165.491 -5.25324 0.303539 0
M  V30 1651 O 164.517 -5.61213 0.950177 0
M  V30 1652 N 165.719 -5.72779 -0.943651 0
M  V30 1653 H 168.484 -2.54126 1.58871 0
M  V30 1654 H 166.045 -1.29012 0.978143 0
M  V30 1655 H 168.037 -4.02014 -0.465517 0
M  V30 1656 H 166.607 -3.01747 -0.816565 0
M  V30 1657 H 165.827 -3.60306 1.59917 0
M  V30 1658 H 167.115 -4.82048 1.6281 0
M  V30 1659 H 166.513 -5.45762 -1.48862 0
M  V30 1660 H 165.07 -6.37847 -1.34142 0
M  V30 1661 N 168.503 -0.877838 -1.30888 0
M  V30 1662 C 169.466 -0.344265 -2.266 0
M  V30 1663 C 170.466 0.50922 -1.52524 0
M  V30 1664 O 171.656 0.317398 -1.71284 0
M  V30 1665 C 168.788 0.510198 -3.37061 0
M  V30 1666 H 169.981 -1.1893 -2.7531 0
M  V30 1667 H 167.534 -0.654088 -1.41956 0
M  V30 1668 H 168.269 1.37612 -2.93655 0
M  V30 1669 H 168.054 -0.101047 -3.9197 0
M  V30 1670 H 169.544 0.875537 -4.08319 0
M  V30 1671 N 169.982 1.44106 -0.638065 0
M  V30 1672 C 171.393 1.85316 -0.226894 0
M  V30 1673 C 171.744 1.53399 1.22324 0
M  V30 1674 O 170.869 0.975463 1.93167 0
M  V30 1675 C 171.464 3.3637 -0.405013 0
M  V30 1676 C 170.023 3.76369 -0.0482902 0
M  V30 1677 C 169.17 2.67921 -0.715108 0
M  V30 1678 H 172.121 1.34474 -0.842764 0
M  V30 1679 H 172.142 3.7885 0.354 0
M  V30 1680 H 171.654 3.59569 -1.46053 0
M  V30 1681 H 169.755 3.58784 1.00522 0
M  V30 1682 H 169.868 4.76856 -0.463187 0
M  V30 1683 H 168.232 2.54259 -0.149753 0
M  V30 1684 H 169.015 2.93951 -1.77335 0
M  V30 1685 N 171.46 0.379036 1.52974 0
M  V30 1686 C 172.708 -0.206014 2.01047 0
M  V30 1687 C 173.029 -1.48175 1.26765 0
M  V30 1688 O 172.299 -1.92085 0.384743 0
M  V30 1689 H 170.879 -0.0791184 0.742798 0
M  V30 1690 H 173.541 0.508366 1.88153 0
M  V30 1691 H 172.637 -0.423501 3.09213 0
M  V30 1692 N 172.938 -1.57226 0.108567 0
M  V30 1693 C 173.87 -2.11809 -0.875752 0
M  V30 1694 C 174.883 -1.05839 -1.23701 0
M  V30 1695 O 176.072 -1.33245 -1.18778 0
M  V30 1696 C 173.172 -2.59411 -2.18081 0
M  V30 1697 C 172.345 -3.89364 -1.99284 0
M  V30 1698 C 171.404 -4.22672 -3.13424 0
M  V30 1699 O 170.43 -4.91668 -2.86795 0
M  V30 1700 N 171.632 -3.79154 -4.3957 0
M  V30 1701 H 174.397 -2.9689 -0.409477 0
M  V30 1702 H 171.958 -1.61721 -0.076158 0
M  V30 1703 H 173.95 -2.7873 -2.93414 0
M  V30 1704 H 172.52 -1.79268 -2.5609 0
M  V30 1705 H 171.74 -3.79059 -1.08203 0
M  V30 1706 H 173.028 -4.74358 -1.84017 0
M  V30 1707 H 172.426 -3.23486 -4.64083 0
M  V30 1708 H 170.983 -4.03602 -5.11809 0
M  V30 1709 N 174.416 0.165178 -1.56732 0
M  V30 1710 C 175.363 1.2044 -1.96883 0
M  V30 1711 C 176.333 1.43664 -0.833657 0
M  V30 1712 O 177.518 1.56302 -1.09427 0
M  V30 1713 C 174.658 2.53727 -2.33916 0
M  V30 1714 C 173.771 2.3783 -3.6064 0
M  V30 1715 C 172.906 3.64026 -3.86857 0
M  V30 1716 C 171.945 3.43088 -5.06909 0
M  V30 1717 N 171.082 4.61369 -5.29229 0
M  V30 1718 H 175.922 0.854996 -2.85471 0
M  V30 1719 H 173.459 0.41076 -1.41249 0
M  V30 1720 H 175.417 3.31419 -2.53411 0
M  V30 1721 H 174.047 2.8665 -1.48431 0
M  V30 1722 H 173.099 1.51282 -3.49024 0
M  V30 1723 H 174.411 2.18308 -4.4849 0
M  V30 1724 H 173.565 4.50152 -4.06753 0
M  V30 1725 H 172.304 3.86533 -2.97394 0
M  V30 1726 H 171.309 2.55349 -4.86906 0
M  V30 1727 H 172.534 3.21997 -5.97909 0
M  V30 1728 H 170.48 4.84084 -4.42718 0
M  V30 1729 H 170.397 4.44783 -6.11313 0
M  V30 1730 H 171.665 5.48761 -5.53608 0
M  V30 1731 N 175.894 1.51508 0.433938 0
M  V30 1732 C 177.31 1.39759 0.770682 0
M  V30 1733 C 177.51 0.482594 1.95636 0
M  V30 1734 O 176.566 -0.0609691 2.52426 0
M  V30 1735 C 177.879 2.81851 1.04787 0
M  V30 1736 C 179.427 2.91025 1.1521 0
M  V30 1737 C 179.902 4.34032 1.46219 0
M  V30 1738 N 181.393 4.37154 1.53136 0
M  V30 1739 C 182.128 5.4484 1.78709 0
M  V30 1740 N 181.624 6.62682 2.02051 0
M  V30 1741 N 183.417 5.32324 1.80519 0
M  V30 1742 H 175.568 2.09548 -0.346892 0
M  V30 1743 H 177.831 0.943446 -0.0928074 0
M  V30 1744 H 177.537 3.50815 0.249304 0
M  V30 1745 H 177.411 3.21386 1.97461 0
M  V30 1746 H 179.798 2.22257 1.94128 0
M  V30 1747 H 179.879 2.54983 0.204281 0
M  V30 1748 H 179.523 5.03351 0.678274 0
M  V30 1749 H 179.453 4.6759 2.42212 0
M  V30 1750 H 181.944 3.52197 1.36987 0
M  V30 1751 H 182.257 7.40543 2.20943 0
M  V30 1752 H 180.602 6.65791 1.99366 0
M  V30 1753 H 183.793 4.39246 1.61805 0
M  V30 1754 H 183.966 6.16328 2.00111 0
M  V30 1755 N 177.372 -0.689602 1.41712 0
M  V30 1756 C 178.6 -1.47827 1.44758 0
M  V30 1757 C 179.015 -1.88721 0.0545703 0
M  V30 1758 O 178.372 -1.57176 -0.927463 0
M  V30 1759 C 178.423 -2.73698 2.3616 0
M  V30 1760 O 178.144 -2.34524 3.7004 0
M  V30 1761 C 179.645 -3.67389 2.48072 0
M  V30 1762 H 176.865 -0.455357 0.49284 0
M  V30 1763 H 179.409 -0.848574 1.86063 0
M  V30 1764 H 177.564 -3.32891 1.98148 0
M  V30 1765 H 177.978 -3.15701 4.18847 0
M  V30 1766 H 179.452 -4.52475 3.16181 0
M  V30 1767 H 179.929 -4.12284 1.51388 0
M  V30 1768 H 180.535 -3.14097 2.86746 0
M  V30 1769 N 178.85 -1.27639 -0.924453 0
M  V30 1770 C 180.261 -1.12834 -1.48746 0
M  V30 1771 C 180.612 0.285505 -1.94112 0
M  V30 1772 O 179.737 1.17874 -1.81479 0
M  V30 1773 C 180.332 -2.04217 -2.70334 0
M  V30 1774 C 178.891 -1.93509 -3.22848 0
M  V30 1775 C 178.038 -1.96583 -1.95577 0
M  V30 1776 H 180.989 -1.40484 -0.738233 0
M  V30 1777 H 181.01 -1.59989 -3.4523 0
M  V30 1778 H 180.522 -3.07111 -2.37285 0
M  V30 1779 H 178.623 -0.936131 -3.60649 0
M  V30 1780 H 178.736 -2.79917 -3.88823 0
M  V30 1781 H 177.1 -1.4085 -2.12211 0
M  V30 1782 H 177.883 -3.01137 -1.64837 0
M  V30 1783 N 180.328 1.1314 -1.09713 0
M  V30 1784 C 181.744 1.36477 -0.827423 0
M  V30 1785 C 181.944 1.93654 0.556817 0
M  V30 1786 O 181 2.15791 1.31112 0
M  V30 1787 C 182.313 2.31334 -1.92106 0
M  V30 1788 C 183.861 2.44943 -1.94864 0
M  V30 1789 C 184.336 3.4311 -3.0338 0
M  V30 1790 N 185.827 3.50662 -3.02639 0
M  V30 1791 C 186.562 4.2651 -3.83246 0
M  V30 1792 N 186.058 5.05485 -4.73768 0
M  V30 1793 N 187.851 4.2184 -3.71493 0
M  V30 1794 H 180.002 0.743807 -1.9895 0
M  V30 1795 H 182.265 0.389823 -0.864143 0
M  V30 1796 H 181.971 1.96483 -2.91698 0
M  V30 1797 H 181.845 3.31381 -1.80184 0
M  V30 1798 H 184.232 2.79079 -0.959099 0
M  V30 1799 H 184.313 1.4481 -2.10864 0
M  V30 1800 H 183.957 3.09704 -4.02549 0
M  V30 1801 H 183.887 4.43055 -2.84622 0
M  V30 1802 H 186.378 2.94315 -2.37039 0
M  V30 1803 H 186.691 5.60675 -5.3185 0
M  V30 1804 H 185.036 5.04708 -4.77802 0
M  V30 1805 H 188.227 3.5922 -3.00131 0
M  V30 1806 H 188.4 4.80697 -4.3455 0
M  V30 1807 N 181.806 0.884767 1.30421 0
M  V30 1808 C 183.222 0.57874 1.48737 0
M  V30 1809 C 183.422 -0.883567 1.81095 0
M  V30 1810 O 182.478 -1.6648 1.89844 0
M  V30 1811 C 183.791 1.49171 2.61091 0
M  V30 1812 C 185.339 1.49532 2.74971 0
M  V30 1813 C 185.814 2.39421 3.90438 0
M  V30 1814 N 187.305 2.37383 3.97748 0
M  V30 1815 C 188.04 3.03647 4.86401 0
M  V30 1816 N 187.536 3.79136 5.79852 0
M  V30 1817 N 189.329 2.9288 4.79768 0
M  V30 1818 H 181.48 1.83075 1.0769 0
M  V30 1819 H 183.743 0.783637 0.533495 0
M  V30 1820 H 183.449 2.53291 2.44001 0
M  V30 1821 H 183.323 1.20113 3.57565 0
M  V30 1822 H 185.71 0.46163 2.91467 0
M  V30 1823 H 185.791 1.8262 1.79119 0
M  V30 1824 H 185.435 3.42874 3.74699 0
M  V30 1825 H 185.365 2.03649 4.85628 0
M  V30 1826 H 187.856 1.82525 3.30897 0
M  V30 1827 H 188.169 4.26789 6.4426 0
M  V30 1828 H 186.514 3.83243 5.79784 0
M  V30 1829 H 189.705 2.33433 4.05742 0
M  V30 1830 H 189.878 3.448 5.4865 0
M  V30 1831 N 183.284 -1.43765 0.645699 0
M  V30 1832 C 184.532 -2.01499 0.155731 0
M  V30 1833 C 184.853 -1.51151 -1.232 0
M  V30 1834 O 184.123 -0.721044 -1.82148 0
M  V30 1835 H 182.703 -0.745003 0.0545817 0
M  V30 1836 H 185.365 -1.76075 0.835677 0
M  V30 1837 H 184.461 -3.1181 0.134577 0
M  V30 1838 N 184.763 -0.387143 -1.52771 0
M  V30 1839 C 185.673 0.456442 -2.30117 0
M  V30 1840 C 186.689 1.07342 -1.36944 0
M  V30 1841 O 187.865 1.07971 -1.70013 0
M  V30 1842 C 184.93 1.56957 -3.09136 0
M  V30 1843 C 183.991 0.977916 -4.18014 0
M  V30 1844 C 183.224 2.038 -4.93256 0
M  V30 1845 O 183.447 3.25271 -4.68567 0
M  V30 1846 O 182.381 1.6565 -5.78657 0
M  V30 1847 H 186.207 -0.17359 -3.03203 0
M  V30 1848 H 183.792 -0.150919 -1.48636 0
M  V30 1849 H 185.674 2.21628 -3.58412 0
M  V30 1850 H 184.349 2.18461 -2.38865 0
M  V30 1851 H 183.256 0.294525 -3.72939 0
M  V30 1852 H 184.589 0.407128 -4.90513 0
M  V30 1853 N 186.241 1.57166 -0.116904 0
M  V30 1854 C 187.173 2.12271 0.864507 0
M  V30 1855 C 188.186 1.06494 1.23138 0
M  V30 1856 O 189.375 1.33873 1.18069 0
M  V30 1857 C 186.475 2.60564 2.16702 0
M  V30 1858 C 185.648 3.90416 1.97216 0
M  V30 1859 C 184.707 4.24329 3.11178 0
M  V30 1860 O 183.733 4.93182 2.84184 0
M  V30 1861 N 184.935 3.8148 4.37554 0
M  V30 1862 H 187.7 2.97102 0.393726 0
M  V30 1863 H 185.261 1.61759 0.0675805 0
M  V30 1864 H 187.253 2.80282 2.91932 0
M  V30 1865 H 185.823 1.80623 2.55135 0
M  V30 1866 H 185.043 3.79627 1.06192 0
M  V30 1867 H 186.331 4.75327 1.81499 0
M  V30 1868 H 185.729 3.25943 4.62361 0
M  V30 1869 H 184.286 4.06311 5.09661 0
M  V30 1870 N 187.719 -0.156864 1.56817 0
M  V30 1871 C 188.651 -1.21883 1.94106 0
M  V30 1872 C 189.664 -1.3971 0.835754 0
M  V30 1873 O 190.853 -1.39457 1.11418 0
M  V30 1874 C 187.953 -2.58527 2.19127 0
M  V30 1875 C 187.126 -2.61809 3.50393 0
M  V30 1876 C 186.185 -3.7992 3.64071 0
M  V30 1877 O 185.211 -3.65249 4.36557 0
M  V30 1878 N 186.413 -4.96973 2.99997 0
M  V30 1879 H 189.178 -0.901974 2.85805 0
M  V30 1880 H 186.739 -0.346513 1.58148 0
M  V30 1881 H 188.731 -3.36034 2.25529 0
M  V30 1882 H 187.301 -2.82545 1.33742 0
M  V30 1883 H 186.521 -1.7029 3.5552 0
M  V30 1884 H 187.809 -2.61024 4.36742 0
M  V30 1885 H 187.207 -5.11794 2.41004 0
M  V30 1886 H 185.764 -5.7229 3.11974 0
M  V30 1887 N 189.197 -1.51736 -0.425897 0
M  V30 1888 C 190.445 -1.64644 -1.17204 0
M  V30 1889 C 190.766 -0.370486 -1.91448 0
M  V30 1890 O 190.036 0.614088 -1.86026 0
M  V30 1891 H 188.616 -0.606819 -0.435638 0
M  V30 1892 H 191.278 -1.88713 -0.487177 0
M  V30 1893 H 190.374 -2.47958 -1.89534 0
M  V30 1894 N 190.675 0.682077 -1.42076 0
M  V30 1895 C 191.921 1.44283 -1.43366 0
M  V30 1896 C 192.276 1.92344 -0.0465775 0
M  V30 1897 O 191.569 1.67517 0.929973 0
M  V30 1898 C 191.763 2.66036 -2.38662 0
M  V30 1899 C 191.592 2.29889 -3.86499 0
M  V30 1900 C 190.362 2.19599 -4.55087 0
M  V30 1901 C 192.56 1.91999 -4.77117 0
M  V30 1902 N 190.542 1.76478 -5.87987 0
M  V30 1903 C 191.913 1.59741 -5.99068 0
M  V30 1904 C 193.968 1.78927 -4.64639 0
M  V30 1905 C 192.671 1.15723 -7.0993 0
M  V30 1906 C 194.697 1.36314 -5.75476 0
M  V30 1907 C 194.059 1.04975 -6.96534 0
M  V30 1908 H 190.158 0.524739 -0.579805 0
M  V30 1909 H 192.742 0.787834 -1.78048 0
M  V30 1910 H 190.913 3.29237 -2.06053 0
M  V30 1911 H 192.645 3.32588 -2.30581 0
M  V30 1912 H 189.4 2.38433 -4.09202 0
M  V30 1913 H 189.824 1.57362 -6.58458 0
M  V30 1914 H 194.466 2.01805 -3.7153 0
M  V30 1915 H 192.184 0.91591 -8.02893 0
M  V30 1916 H 195.77 1.26731 -5.6783 0
M  V30 1917 H 194.65 0.725017 -7.80841 0
M  V30 1918 N 192.153 1.28127 0.917671 0
M  V30 1919 C 193.101 1.11569 2.04096 0
M  V30 1920 C 194.095 0.0360242 1.69362 0
M  V30 1921 O 195.301 0.194501 1.78946 0
M  V30 1922 H 191.676 0.344097 0.668656 0
M  V30 1923 H 193.647 2.06711 2.15205 0
M  V30 1924 C 192.396 0.790197 3.38602 0
M  V30 1925 H 191.719 1.61293 3.6582 0
M  V30 1926 H 193.159 0.714271 4.1794 0
M  V30 1927 C 191.618 -0.505897 3.3308 0
M  V30 1928 O 192.148 -1.53736 3.71117 0
M  V30 1929 N 190.354 -0.505193 2.86175 0
M  V30 1930 H 189.901 0.334621 2.55417 0
M  V30 1931 H 189.859 -1.37243 2.82863 0
M  V30 1932 N 193.631 -1.12557 1.10312 0
M  V30 1933 C 194.908 -1.80363 0.756878 0
M  V30 1934 C 195.288 -1.97067 -0.756824 0
M  V30 1935 O 194.636 -1.54601 -1.68259 0
M  V30 1936 C 194.846 -3.14812 1.50647 0
M  V30 1937 C 196.194 -3.90029 1.67817 0
M  V30 1938 O 197.218 -3.24464 1.46974 0
M  V30 1939 O 196.077 -5.07652 2.02365 0
M  V30 1940 H 193.171 -0.780667 0.272926 0
M  V30 1941 H 195.717 -1.19404 1.20586 0
M  V30 1942 H 194.489 -2.97936 2.53672 0
M  V30 1943 H 194.112 -3.83478 1.05026 0
M  V30 1944 N 195.109 -0.891671 -1.2995 0
M  V30 1945 C 196.334 -0.527932 -2.00568 0
M  V30 1946 C 196.759 0.877969 -1.66353 0
M  V30 1947 O 196.117 1.58301 -0.883762 0
M  V30 1948 C 196.165 -0.717745 -3.53385 0
M  V30 1949 O 195.269 0.233376 -4.11739 0
M  V30 1950 H 194.61 -0.20722 -0.630837 0
M  V30 1951 H 197.14 -1.20105 -1.65638 0
M  V30 1952 H 197.15 -0.619307 -4.03272 0
M  V30 1953 H 195.825 -1.74276 -3.77625 0
M  V30 1954 H 194.402 0.0880706 -3.72796 0
M  V30 1955 N 196.587 1.43421 -0.653314 0
M  V30 1956 C 198.003 1.56341 -0.320886 0
M  V30 1957 C 198.203 1.63696 1.17499 0
M  V30 1958 O 197.259 1.59208 1.95982 0
M  V30 1959 C 198.572 2.82424 -1.03233 0
M  V30 1960 C 200.12 2.96168 -1.01259 0
M  V30 1961 C 200.595 4.25084 -1.70492 0
M  V30 1962 N 202.086 4.31948 -1.67257 0
M  V30 1963 C 202.821 5.30466 -2.17701 0
M  V30 1964 N 202.317 6.35261 -2.76434 0
M  V30 1965 N 204.11 5.2212 -2.082 0
M  V30 1966 H 196.261 1.3689 -1.62403 0
M  V30 1967 H 198.524 0.657455 -0.682977 0
M  V30 1968 H 198.23 2.83053 -2.08744 0
M  V30 1969 H 198.104 3.72653 -0.583948 0
M  V30 1970 H 200.491 2.9508 0.0341235 0
M  V30 1971 H 200.572 2.07229 -1.49966 0
M  V30 1972 H 200.216 4.26932 -2.7512 0
M  V30 1973 H 200.146 5.1292 -1.19251 0
M  V30 1974 H 202.637 3.56838 -1.24398 0
M  V30 1975 H 202.95 7.06754 -3.12601 0
M  V30 1976 H 201.295 6.35884 -2.80495 0
M  V30 1977 H 204.486 4.39166 -1.62021 0
M  V30 1978 H 204.659 5.98739 -2.47822 0
M  V30 1979 N 198.065 0.39524 1.52563 0
M  V30 1980 C 199.313 -0.184678 2.01254 0
M  V30 1981 C 199.634 -1.46822 1.28329 0
M  V30 1982 O 198.904 -1.91666 0.405094 0
M  V30 1983 H 197.484 -0.0712355 0.743596 0
M  V30 1984 H 200.146 0.528293 1.87603 0
M  V30 1985 H 199.242 -0.390681 3.09645 0
M  V30 1986 N 199.544 -1.57102 0.125237 0
M  V30 1987 C 200.955 -1.82384 -0.399142 0
M  V30 1988 C 201.306 -1.04276 -1.66195 0
M  V30 1989 O 200.431 -0.281269 -2.14564 0
M  V30 1990 C 201.026 -3.30821 -0.730932 0
M  V30 1991 C 199.585 -3.56762 -1.19992 0
M  V30 1992 C 198.732 -2.7649 -0.211792 0
M  V30 1993 H 201.683 -1.54786 0.350277 0
M  V30 1994 H 201.704 -3.4579 -1.58775 0
M  V30 1995 H 201.216 -3.87643 0.188345 0
M  V30 1996 H 199.317 -3.05305 -2.13588 0
M  V30 1997 H 199.43 -4.65317 -1.14093 0
M  V30 1998 H 197.794 -2.4489 -0.700085 0
M  V30 1999 H 198.577 -3.36073 0.700691 0
M  V30 2000 N 201.022 0.148545 -1.56898 0
M  V30 2001 C 201.932 1.20293 -2.01412 0
M  V30 2002 C 202.948 1.47107 -0.929273 0
M  V30 2003 O 204.124 1.58807 -1.23863 0
M  V30 2004 C 201.189 2.51682 -2.38447 0
M  V30 2005 C 200.25 2.32529 -3.60872 0
M  V30 2006 C 199.483 3.57653 -3.96132 0
M  V30 2007 O 199.706 4.63771 -3.32073 0
M  V30 2008 O 198.64 3.50408 -4.89385 0
M  V30 2009 H 202.466 0.855025 -2.91416 0
M  V30 2010 H 200.051 0.357151 -1.45068 0
M  V30 2011 H 201.933 3.29147 -2.63135 0
M  V30 2012 H 200.608 2.86006 -1.51599 0
M  V30 2013 H 199.515 1.53019 -3.41373 0
M  V30 2014 H 200.848 2.03121 -4.48333 0
M  V30 2015 N 202.5 1.5196 0.417844 0
M  V30 2016 C 203.748 1.65263 1.16329 0
M  V30 2017 C 204.069 0.380634 1.91249 0
M  V30 2018 O 203.339 -0.604214 1.86349 0
M  V30 2019 H 201.919 0.60912 0.432414 0
M  V30 2020 H 204.581 1.88969 0.477162 0
M  V30 2021 H 203.677 2.4896 1.88217 0
M  V30 2022 N 203.978 -0.674533 1.42435 0
M  V30 2023 C 204.911 -1.79924 1.40366 0
M  V30 2024 C 205.889 -1.60378 0.267899 0
M  V30 2025 O 207.073 -1.82847 0.458159 0
M  V30 2026 C 204.2 -3.16927 1.19478 0
M  V30 2027 C 203.246 -3.55221 2.36051 0
M  V30 2028 S 204.079 -3.5762 3.98583 0
M  V30 2029 C 205.235 -4.97315 3.80038 0
M  V30 2030 H 205.468 -1.81405 2.35541 0
M  V30 2031 H 203.001 -0.845221 1.29211 0
M  V30 2032 H 204.959 -3.96007 1.08114 0
M  V30 2033 H 203.62 -3.13031 0.258883 0
M  V30 2034 H 202.813 -4.54804 2.17185 0
M  V30 2035 H 202.415 -2.83502 2.43932 0
M  V30 2036 H 204.707 -5.85401 3.41045 0
M  V30 2037 H 205.65 -5.21228 4.79298 0
M  V30 2038 H 206.058 -4.69845 3.12899 0
M  V30 2039 N 205.456 -1.28612 -0.910864 0
M  V30 2040 C 206.386 -1.15326 -2.03032 0
M  V30 2041 C 207.367 -0.0502924 -1.70026 0
M  V30 2042 O 208.552 -0.227797 -1.92859 0
M  V30 2043 C 205.682 -0.817343 -3.37545 0
M  V30 2044 C 204.636 -1.8754 -3.84724 0
M  V30 2045 C 203.962 -1.39305 -5.16235 0
M  V30 2046 C 205.262 -3.28244 -4.06267 0
M  V30 2047 H 206.956 -2.08975 -2.14406 0
M  V30 2048 H 204.502 -1.00612 -1.03021 0
M  V30 2049 H 206.455 -0.711151 -4.15356 0
M  V30 2050 H 205.179 0.154846 -3.26233 0
M  V30 2051 H 203.838 -1.97079 -3.09121 0
M  V30 2052 H 203.486 -0.409846 -5.01328 0
M  V30 2053 H 203.186 -2.10057 -5.48771 0
M  V30 2054 H 204.71 -1.30014 -5.96598 0
M  V30 2055 H 206.124 -3.21611 -4.74594 0
M  V30 2056 H 204.521 -3.96855 -4.5014 0
M  V30 2057 H 205.591 -3.72048 -3.10979 0
M  V30 2058 N 206.934 1.1197 -1.10907 0
M  V30 2059 C 207.844 2.21433 -0.774896 0
M  V30 2060 C 208.86 1.72478 0.229657 0
M  V30 2061 O 210.036 2.01288 0.0672008 0
M  V30 2062 C 207.101 3.4602 -0.216986 0
M  V30 2063 C 206.162 4.09791 -1.27944 0
M  V30 2064 C 205.395 5.28431 -0.748055 0
M  V30 2065 O 205.618 5.68823 0.423833 0
M  V30 2066 O 204.552 5.82644 -1.51027 0
M  V30 2067 H 208.378 2.5242 -1.68873 0
M  V30 2068 H 205.963 1.20399 -0.884555 0
M  V30 2069 H 207.845 4.21304 0.090059 0
M  V30 2070 H 206.52 3.16698 0.669633 0
M  V30 2071 H 205.427 3.36265 -1.63941 0
M  V30 2072 H 206.76 4.4328 -2.13925 0
M  V30 2073 N 208.412 0.89855 1.29475 0
M  V30 2074 C 209.828 0.594483 1.48115 0
M  V30 2075 C 210.028 -0.86431 1.82022 0
M  V30 2076 O 209.084 -1.64457 1.91599 0
M  V30 2077 C 210.397 1.51932 2.59494 0
M  V30 2078 C 211.945 1.5244 2.7337 0
M  V30 2079 C 212.42 2.43548 3.87877 0
M  V30 2080 N 213.911 2.41589 3.95208 0
M  V30 2081 C 214.646 3.08789 4.83153 0
M  V30 2082 N 214.142 3.85265 5.75798 0
M  V30 2083 N 215.935 2.97952 4.76635 0
M  V30 2084 H 208.086 1.84207 1.05742 0
M  V30 2085 H 210.349 0.789251 0.525154 0
M  V30 2086 H 210.055 2.55865 2.41301 0
M  V30 2087 H 209.929 1.23899 3.56271 0
M  V30 2088 H 212.316 0.492518 2.90961 0
M  V30 2089 H 212.397 1.8451 1.77172 0
M  V30 2090 H 212.041 3.46829 3.71041 0
M  V30 2091 H 211.971 2.08788 4.83441 0
M  V30 2092 H 214.462 1.86025 3.28943 0
M  V30 2093 H 214.775 4.33598 6.39697 0
M  V30 2094 H 213.12 3.89371 5.75687 0
M  V30 2095 H 216.311 2.37723 4.03244 0
M  V30 2096 H 216.484 3.50599 5.44962 0
M  V30 2097 N 209.89 -1.43072 0.660911 0
M  V30 2098 C 210.853 -2.29194 -0.0166406 0
M  V30 2099 C 211.853 -1.42609 -0.742912 0
M  V30 2100 O 213.043 -1.64155 -0.583004 0
M  V30 2101 C 210.175 -3.24831 -1.0343 0
M  V30 2102 H 211.368 -2.90596 0.741208 0
M  V30 2103 H 208.921 -1.5048 0.422532 0
M  V30 2104 H 209.656 -2.68339 -1.82111 0
M  V30 2105 H 209.441 -3.88676 -0.517082 0
M  V30 2106 H 210.931 -3.89451 -1.50723 0
M  V30 2107 N 211.368 -0.403325 -1.52352 0
M  V30 2108 C 212.278 0.432009 -2.30588 0
M  V30 2109 C 213.294 1.05884 -1.38075 0
M  V30 2110 O 214.47 1.06161 -1.71148 0
M  V30 2111 C 211.535 1.53669 -3.10784 0
M  V30 2112 C 210.596 0.933525 -4.19027 0
M  V30 2113 C 209.829 1.98557 -4.9539 0
M  V30 2114 O 210.052 3.20283 -4.71991 0
M  V30 2115 O 208.986 1.59504 -5.80381 0
M  V30 2116 H 212.812 -0.205739 -3.03002 0
M  V30 2117 H 210.397 -0.166675 -1.48467 0
M  V30 2118 H 212.279 2.17814 -3.60742 0
M  V30 2119 H 210.954 2.15915 -2.41169 0
M  V30 2120 H 209.861 0.254954 -3.7323 0
M  V30 2121 H 211.194 0.35508 -4.90918 0
M  V30 2122 N 212.846 1.57033 -0.133567 0
M  V30 2123 C 214.262 1.58035 0.222944 0
M  V30 2124 C 214.462 1.14713 1.6566 0
M  V30 2125 O 213.518 0.841218 2.38075 0
M  V30 2126 C 214.831 3.00691 -0.0236116 0
M  V30 2127 C 216.379 3.12973 0.0411512 0
M  V30 2128 C 216.854 4.57654 -0.177899 0
M  V30 2129 N 218.345 4.63033 -0.124365 0
M  V30 2130 C 219.08 5.72771 -0.268553 0
M  V30 2131 N 218.576 6.91206 -0.46972 0
M  V30 2132 N 220.369 5.61718 -0.2071 0
M  V30 2133 H 212.52 1.8349 -1.06981 0
M  V30 2134 H 214.783 0.848677 -0.422436 0
M  V30 2135 H 214.489 3.36726 -1.0153 0
M  V30 2136 H 214.363 3.70614 0.701808 0
M  V30 2137 H 216.75 2.76787 1.02338 0
M  V30 2138 H 216.831 2.45564 -0.716383 0
M  V30 2139 H 216.475 4.94542 -1.15717 0
M  V30 2140 H 216.405 5.23173 0.599797 0
M  V30 2141 H 218.896 3.7789 0.027011 0
M  V30 2142 H 219.209 7.70693 -0.570212 0
M  V30 2143 H 217.554 6.93156 -0.505876 0
M  V30 2144 H 220.745 4.68072 -0.0507986 0
M  V30 2145 H 220.918 6.47195 -0.322909 0
M  V30 2146 N 214.325 -0.140222 1.56975 0
M  V30 2147 C 215.741 -0.493088 1.51792 0
M  V30 2148 C 215.941 -1.83013 0.843116 0
M  V30 2149 O 214.997 -2.49041 0.416493 0
M  V30 2150 C 216.31 -0.497144 2.96562 0
M  V30 2151 C 217.858 -0.582186 3.07538 0
M  V30 2152 C 218.333 -0.616838 4.53827 0
M  V30 2153 N 219.824 -0.678873 4.58198 0
M  V30 2154 C 220.559 -0.726782 5.68775 0
M  V30 2155 N 220.055 -0.733623 6.88905 0
M  V30 2156 N 221.848 -0.768179 5.56826 0
M  V30 2157 H 213.999 0.736108 1.99237 0
M  V30 2158 H 216.262 0.269182 0.90898 0
M  V30 2159 H 215.968 0.417217 3.49217 0
M  V30 2160 H 215.842 -1.33263 3.52875 0
M  V30 2161 H 218.229 -1.48697 2.54899 0
M  V30 2162 H 218.31 0.280581 2.54257 0
M  V30 2163 H 217.954 0.283812 5.07106 0
M  V30 2164 H 217.884 -1.49619 5.04898 0
M  V30 2165 H 220.375 -0.68061 3.7172 0
M  V30 2166 H 220.688 -0.772215 7.68932 0
M  V30 2167 H 219.033 -0.701389 6.91452 0
M  V30 2168 H 222.224 -0.760051 4.61888 0
M  V30 2169 H 222.397 -0.80205 6.43017 0
M  V30 2170 N 215.803 -1.52179 -0.40978 0
M  V30 2171 C 217.028 -1.70347 -1.18308 0
M  V30 2172 C 217.453 -0.411887 -1.83535 0
M  V30 2173 O 216.811 0.630587 -1.6998 0
M  V30 2174 C 216.859 -2.83977 -2.22238 0
M  V30 2175 O 215.963 -2.495 -3.28365 0
M  V30 2176 H 215.304 -0.567103 -0.345384 0
M  V30 2177 H 217.834 -1.98879 -0.480445 0
M  V30 2178 H 217.844 -3.0887 -2.66577 0
M  V30 2179 H 216.519 -3.77685 -1.74146 0
M  V30 2180 H 215.096 -2.35277 -2.89308 0
M  V30 2181 N 217.281 0.66697 -1.42791 0
M  V30 2182 C 218.511 1.45294 -1.46878 0
M  V30 2183 C 218.919 1.89027 -0.0809861 0
M  V30 2184 O 218.262 1.59219 0.916246 0
M  V30 2185 C 218.324 2.72908 -2.34012 0
M  V30 2186 C 217.988 2.51203 -3.81767 0
M  V30 2187 C 218.985 2.15302 -4.73224 0
M  V30 2188 C 216.67 2.65954 -4.26115 0
M  V30 2189 C 218.664 1.94431 -6.07022 0
M  V30 2190 C 216.351 2.44699 -5.59969 0
M  V30 2191 C 217.349 2.08992 -6.5024 0
M  V30 2192 O 217.037 1.87948 -7.81621 0
M  V30 2193 H 216.769 0.453306 -0.501487 0
M  V30 2194 H 219.323 0.826232 -1.88049 0
M  V30 2195 H 217.553 3.38089 -1.87703 0
M  V30 2196 H 219.242 3.34816 -2.29462 0
M  V30 2197 H 220.008 2.03495 -4.40244 0
M  V30 2198 H 215.887 2.92724 -3.56137 0
M  V30 2199 H 219.431 1.66484 -6.77443 0
M  V30 2200 H 215.328 2.56105 -5.9252 0
M  V30 2201 H 216.096 2.02483 -7.93059 0
M  V30 2202 N 218.759 1.29093 0.90403 0
M  V30 2203 C 220.175 1.07011 1.1841 0
M  V30 2204 C 220.375 -0.181358 2.00682 0
M  V30 2205 O 219.431 -0.880331 2.36657 0
M  V30 2206 C 220.744 2.32311 1.90924 0
M  V30 2207 C 222.292 2.37587 2.03768 0
M  V30 2208 C 222.767 3.62679 2.79693 0
M  V30 2209 N 224.258 3.63376 2.87249 0
M  V30 2210 C 224.993 4.56848 3.46522 0
M  V30 2211 N 224.489 5.60648 4.06996 0
M  V30 2212 N 226.282 4.44426 3.44154 0
M  V30 2213 H 218.433 2.09412 0.354993 0
M  V30 2214 H 220.696 0.922181 0.219742 0
M  V30 2215 H 220.402 3.23536 1.37905 0
M  V30 2216 H 220.276 2.39483 2.91424 0
M  V30 2217 H 222.663 1.46853 2.55965 0
M  V30 2218 H 222.744 2.34403 1.02415 0
M  V30 2219 H 222.388 4.53762 2.28173 0
M  V30 2220 H 222.318 3.63119 3.81381 0
M  V30 2221 H 224.809 2.88321 2.44293 0
M  V30 2222 H 225.122 6.28101 4.50232 0
M  V30 2223 H 223.467 5.64463 4.05471 0
M  V30 2224 H 226.658 3.62529 2.96126 0
M  V30 2225 H 226.831 5.17457 3.90054 0
M  V30 2226 N 220.237 -1.11381 1.11499 0
M  V30 2227 C 221.147 -2.21019 0.786628 0
M  V30 2228 C 222.163 -1.72597 -0.220507 0
M  V30 2229 O 223.339 -2.01321 -0.0565251 0
M  V30 2230 C 220.404 -3.459 0.235333 0
M  V30 2231 C 219.465 -4.09107 1.30115 0
M  V30 2232 C 218.698 -5.28027 0.776068 0
M  V30 2233 O 218.921 -5.6904 -0.393661 0
M  V30 2234 O 217.855 -5.81835 1.54114 0
M  V30 2235 H 221.681 -2.51521 1.70209 0
M  V30 2236 H 219.266 -1.19928 0.890928 0
M  V30 2237 H 221.148 -4.21346 -0.067715 0
M  V30 2238 H 219.823 -3.17049 -0.652828 0
M  V30 2239 H 218.73 -3.35391 1.65722 0
M  V30 2240 H 220.063 -4.42139 2.16273 0
M  V30 2241 N 221.715 -0.905404 -1.28997 0
M  V30 2242 C 222.945 -0.549049 -1.99171 0
M  V30 2243 C 223.353 0.87203 -1.67906 0
M  V30 2244 O 222.696 1.58796 -0.923561 0
M  V30 2245 C 222.758 -0.668306 -3.53234 0
M  V30 2246 C 222.422 -2.0574 -4.08069 0
M  V30 2247 C 223.419 -3.0292 -4.22534 0
M  V30 2248 C 221.104 -2.36833 -4.42962 0
M  V30 2249 C 223.098 -4.29314 -4.71135 0
M  V30 2250 C 220.785 -3.63467 -4.91258 0
M  V30 2251 C 221.783 -4.59522 -5.053 0
M  V30 2252 O 221.471 -5.83907 -5.52546 0
M  V30 2253 H 221.203 -0.208784 -0.64295 0
M  V30 2254 H 223.757 -1.21836 -1.65363 0
M  V30 2255 H 221.987 0.0580547 -3.86656 0
M  V30 2256 H 223.676 -0.320273 -4.04634 0
M  V30 2257 H 224.442 -2.80216 -3.95859 0
M  V30 2258 H 220.321 -1.62824 -4.31288 0
M  V30 2259 H 223.865 -5.04293 -4.8201 0
M  V30 2260 H 219.762 -3.86 -5.17372 0
M  V30 2261 H 220.53 -5.86578 -5.70849 0
M  V30 2262 N 223.193 1.4272 -0.668489 0
M  V30 2263 C 224.609 1.55992 -0.33745 0
M  V30 2264 C 224.809 1.64933 1.15756 0
M  V30 2265 O 223.865 1.61278 1.94282 0
M  V30 2266 C 225.178 2.81314 -1.06222 0
M  V30 2267 C 226.726 2.95078 -1.04394 0
M  V30 2268 C 227.201 4.23252 -1.74991 0
M  V30 2269 N 228.692 4.3015 -1.71829 0
M  V30 2270 C 229.427 5.28127 -2.23315 0
M  V30 2271 N 228.923 6.32293 -2.83156 0
M  V30 2272 N 230.716 5.19882 -2.13726 0
M  V30 2273 H 222.867 1.3516 -1.63846 0
M  V30 2274 H 225.13 0.650174 -0.689912 0
M  V30 2275 H 224.836 2.80823 -2.11734 0
M  V30 2276 H 224.71 3.72012 -0.62344 0
M  V30 2277 H 227.097 2.951 0.0028244 0
M  V30 2278 H 227.178 2.05627 -1.52155 0
M  V30 2279 H 226.822 4.2399 -2.79633 0
M  V30 2280 H 226.752 5.11626 -1.24685 0
M  V30 2281 H 229.243 3.55499 -1.28175 0
M  V30 2282 H 229.556 7.03398 -3.20079 0
M  V30 2283 H 227.901 6.32873 -2.87223 0
M  V30 2284 H 231.092 4.37423 -1.66669 0
M  V30 2285 H 231.265 5.96077 -2.54158 0
M  V30 2286 N 224.671 0.411399 1.52136 0
M  V30 2287 C 226.082 -0.0576826 1.86611 0
M  V30 2288 C 226.433 -1.44238 1.33003 0
M  V30 2289 O 225.558 -2.05759 0.670228 0
M  V30 2290 C 226.153 -0.111448 3.38617 0
M  V30 2291 C 224.712 -0.52487 3.72723 0
M  V30 2292 C 223.859 0.299176 2.75681 0
M  V30 2293 H 226.81 0.628368 1.4573 0
M  V30 2294 H 226.831 -0.926252 3.69054 0
M  V30 2295 H 226.343 0.896488 3.77604 0
M  V30 2296 H 224.444 -1.53936 3.39315 0
M  V30 2297 H 224.557 -0.267681 4.78352 0
M  V30 2298 H 222.921 -0.238814 2.53578 0
M  V30 2299 H 223.704 1.3055 3.17508 0
M  V30 2300 N 226.149 -1.5696 0.141893 0
M  V30 2301 C 227.379 -2.00031 -0.516828 0
M  V30 2302 C 227.787 -1.02091 -1.59293 0
M  V30 2303 O 227.13 -0.00909657 -1.83698 0
M  V30 2304 C 227.192 -3.39534 -1.1814 0
M  V30 2305 C 226.856 -4.56313 -0.250513 0
M  V30 2306 C 227.853 -5.17295 0.519839 0
M  V30 2307 C 225.538 -5.02061 -0.154907 0
M  V30 2308 C 227.532 -6.2243 1.3733 0
M  V30 2309 C 225.219 -6.07053 0.702161 0
M  V30 2310 C 226.217 -6.67106 1.46487 0
M  V30 2311 O 225.905 -7.70066 2.30767 0
M  V30 2312 H 225.637 -0.661451 -0.139493 0
M  V30 2313 H 228.191 -2.04086 0.231926 0
M  V30 2314 H 226.421 -3.32302 -1.97769 0
M  V30 2315 H 228.11 -3.66745 -1.73933 0
M  V30 2316 H 228.876 -4.82852 0.45598 0
M  V30 2317 H 224.755 -4.5505 -0.7383 0
M  V30 2318 H 228.299 -6.69233 1.96909 0
M  V30 2319 H 224.196 -6.40923 0.76733 0
M  V30 2320 H 224.964 -7.87264 2.23959 0
M  V30 2321 N 227.627 0.131896 -1.57047 0
M  V30 2322 C 228.537 1.1815 -2.02676 0
M  V30 2323 C 229.553 1.46113 -0.944824 0
M  V30 2324 O 230.729 1.57485 -1.25541 0
M  V30 2325 C 227.794 2.49139 -2.41103 0
M  V30 2326 C 226.855 2.28688 -3.63318 0
M  V30 2327 C 226.088 3.53431 -3.99903 0
M  V30 2328 O 226.311 4.60223 -3.36973 0
M  V30 2329 O 225.245 3.45198 -4.93074 0
M  V30 2330 H 229.071 0.824069 -2.92306 0
M  V30 2331 H 226.656 0.341745 -1.45439 0
M  V30 2332 H 228.538 3.26338 -2.66611 0
M  V30 2333 H 227.213 2.84382 -1.54624 0
M  V30 2334 H 226.12 1.4939 -3.42977 0
M  V30 2335 H 227.453 1.98355 -4.50462 0
M  V30 2336 N 229.106 1.52395 0.401703 0
M  V30 2337 C 230.334 1.70676 1.16949 0
M  V30 2338 C 230.749 0.419503 1.8408 0
M  V30 2339 O 230.106 -0.605061 1.72178 0
M  V30 2340 C 230.157 2.84753 2.22706 0
M  V30 2341 O 229.878 4.08495 1.58314 0
M  V30 2342 C 231.379 3.14608 3.12309 0
M  V30 2343 H 228.599 0.571787 0.351142 0
M  V30 2344 H 231.143 1.98987 0.471652 0
M  V30 2345 H 229.298 2.58941 2.88147 0
M  V30 2346 H 229.712 4.72117 2.28485 0
M  V30 2347 H 231.186 3.97923 3.82572 0
M  V30 2348 H 231.663 2.28464 3.75101 0
M  V30 2349 H 232.269 3.42212 2.52529 0
M  V30 2350 N 230.584 -0.659388 1.43143 0
M  V30 2351 C 231.494 -1.80167 1.50256 0
M  V30 2352 C 232.51 -1.69571 0.390106 0
M  V30 2353 O 233.686 -1.90849 0.643319 0
M  V30 2354 C 230.751 -3.16409 1.41725 0
M  V30 2355 C 229.812 -3.38848 2.63591 0
M  V30 2356 C 229.045 -4.68591 2.55458 0
M  V30 2357 O 229.268 -5.47532 1.59891 0
M  V30 2358 O 228.202 -4.92614 3.45854 0
M  V30 2359 H 232.028 -1.77121 2.46702 0
M  V30 2360 H 229.613 -0.817092 1.25076 0
M  V30 2361 H 231.495 -3.9768 1.39387 0
M  V30 2362 H 230.17 -3.20059 0.484118 0
M  V30 2363 H 229.077 -2.57366 2.71502 0
M  V30 2364 H 230.41 -3.4004 3.55856 0
M  V30 2365 N 232.062 -1.29571 -0.897171 0
M  V30 2366 C 233.478 -1.07637 -1.17841 0
M  V30 2367 C 233.678 0.170713 -2.00776 0
M  V30 2368 O 232.734 0.867768 -2.3712 0
M  V30 2369 C 234.047 -2.3332 -1.8969 0
M  V30 2370 C 235.595 -2.38664 -2.02505 0
M  V30 2371 C 236.07 -3.64157 -2.77765 0
M  V30 2372 N 237.561 -3.64894 -2.85318 0
M  V30 2373 C 238.296 -4.58679 -3.44094 0
M  V30 2374 N 237.792 -5.62799 -4.04017 0
M  V30 2375 N 239.585 -4.46245 -3.41793 0
M  V30 2376 H 231.736 -2.09598 -0.343883 0
M  V30 2377 H 233.999 -0.923333 -0.214848 0
M  V30 2378 H 233.705 -3.24262 -1.36187 0
M  V30 2379 H 233.579 -2.41025 -2.9015 0
M  V30 2380 H 235.966 -1.48208 -2.55183 0
M  V30 2381 H 236.047 -2.34943 -1.01171 0
M  V30 2382 H 235.691 -4.54965 -2.25763 0
M  V30 2383 H 235.621 -3.65137 -3.7945 0
M  V30 2384 H 238.112 -2.89613 -2.42761 0
M  V30 2385 H 238.425 -6.3048 -4.46895 0
M  V30 2386 H 236.77 -5.66605 -4.02472 0
M  V30 2387 H 239.961 -3.64094 -2.94199 0
M  V30 2388 H 240.134 -5.19518 -3.87304 0
M  V30 2389 N 233.54 1.10788 -1.12088 0
M  V30 2390 C 234.472 2.16816 -0.743213 0
M  V30 2391 C 235.485 1.6119 0.228412 0
M  V30 2392 O 236.674 1.78497 0.0102931 0
M  V30 2393 C 233.774 3.38809 -0.0787313 0
M  V30 2394 C 232.947 4.23885 -1.0789 0
M  V30 2395 C 232.006 5.24334 -0.442713 0
M  V30 2396 O 231.032 5.58497 -1.09864 0
M  V30 2397 N 232.234 5.75079 0.791457 0
M  V30 2398 H 234.999 2.49825 -1.65552 0
M  V30 2399 H 232.56 1.26373 -1.012 0
M  V30 2400 H 234.552 4.03107 0.358766 0
M  V30 2401 H 233.122 3.03805 0.736275 0
M  V30 2402 H 232.342 3.55939 -1.69414 0
M  V30 2403 H 233.63 4.77562 -1.75533 0
M  V30 2404 H 233.028 5.49517 1.3434 0
M  V30 2405 H 231.585 6.4118 1.17183 0
M  V30 2406 N 235.018 0.912232 1.28515 0
M  V30 2407 C 235.981 0.404223 2.25607 0
M  V30 2408 C 236.981 -0.468602 1.53821 0
M  V30 2409 O 238.171 -0.271873 1.72065 0
M  V30 2410 C 235.303 -0.420653 3.38295 0
M  V30 2411 H 236.496 1.26188 2.7206 0
M  V30 2412 H 234.049 0.691495 1.40171 0
M  V30 2413 H 234.784 -1.29777 2.97201 0
M  V30 2414 H 234.569 0.204935 3.91564 0
M  V30 2415 H 236.059 -0.766971 4.10496 0
M  V30 2416 N 236.496 -1.42363 0.676048 0
M  V30 2417 C 237.773 -1.95183 0.127726 0
M  V30 2418 C 238.153 -1.61641 -1.35777 0
M  V30 2419 O 237.501 -0.913216 -2.09458 0
M  V30 2420 C 237.711 -3.46721 0.398199 0
M  V30 2421 C 239.059 -4.23427 0.315383 0
M  V30 2422 O 240.083 -3.54649 0.332016 0
M  V30 2423 O 238.942 -5.45888 0.25865 0
M  V30 2424 H 236.036 -0.826992 0.00359427 0
M  V30 2425 H 238.582 -1.52184 0.750864 0
M  V30 2426 H 237.354 -3.64344 1.4272 0
M  V30 2427 H 236.977 -3.96769 -0.256885 0
M  V30 2428 N 237.974 -0.419461 -1.51915 0
M  V30 2429 C 239.221 0.152939 -2.01922 0
M  V30 2430 C 239.549 1.4426 -1.30458 0
M  V30 2431 O 238.804 1.91514 -0.402593 0
M  V30 2432 C 239.103 0.437067 -3.54717 0
M  V30 2433 C 238.769 -0.764632 -4.44369 0
M  V30 2434 C 237.431 -1.09423 -4.68594 0
M  V30 2435 C 239.783 -1.56713 -4.97082 0
M  V30 2436 C 237.111 -2.22732 -5.42777 0
M  V30 2437 C 239.463 -2.69107 -5.72507 0
M  V30 2438 C 238.127 -3.02541 -5.95 0
M  V30 2439 H 237.397 0.0559644 -0.738884 0
M  V30 2440 H 240.044 -0.562998 -1.83037 0
M  V30 2441 H 238.349 1.23469 -3.71837 0
M  V30 2442 H 240.046 0.893083 -3.90928 0
M  V30 2443 H 236.636 -0.497775 -4.257 0
M  V30 2444 H 240.82 -1.32571 -4.78266 0
M  V30 2445 H 236.076 -2.48971 -5.58411 0
M  V30 2446 H 240.25 -3.31671 -6.12346 0
M  V30 2447 H 237.877 -3.90457 -6.52264 0
M  V30 2448 N 239.452 1.56882 -0.150215 0
M  V30 2449 C 240.68 2.00593 0.506948 0
M  V30 2450 C 241.095 1.03033 1.58208 0
M  V30 2451 O 240.452 0.0278396 1.82479 0
M  V30 2452 C 240.503 3.44209 1.10465 0
M  V30 2453 O 240.224 4.3804 0.0724636 0
M  V30 2454 C 241.725 4.03214 1.84211 0
M  V30 2455 H 238.945 0.65795 0.13169 0
M  V30 2456 H 241.489 2.03018 -0.245743 0
M  V30 2457 H 239.644 3.42625 1.80795 0
M  V30 2458 H 240.058 5.22007 0.510793 0
M  V30 2459 H 241.532 5.0569 2.21318 0
M  V30 2460 H 242.009 3.44107 2.72923 0
M  V30 2461 H 242.615 4.08437 1.18572 0
M  V30 2462 N 240.93 -0.123565 1.57115 0
M  V30 2463 C 241.893 -1.13583 1.99076 0
M  V30 2464 C 242.893 -1.34564 0.880296 0
M  V30 2465 O 244.083 -1.31158 1.14644 0
M  V30 2466 C 241.215 -2.49128 2.32698 0
M  V30 2467 H 242.408 -0.775287 2.89706 0
M  V30 2468 H 239.961 -0.36771 1.51913 0
M  V30 2469 H 240.696 -2.90111 1.44934 0
M  V30 2470 H 240.481 -2.35255 3.13684 0
M  V30 2471 H 241.971 -3.2199 2.65918 0
M  V30 2472 N 242.408 -1.52605 -0.393616 0
M  V30 2473 C 243.318 -1.79971 -1.50492 0
M  V30 2474 C 244.334 -0.686181 -1.59899 0
M  V30 2475 O 245.51 -0.973274 -1.76322 0
M  V30 2476 C 242.575 -1.95867 -2.86072 0
M  V30 2477 C 241.636 -3.19781 -2.86424 0
M  V30 2478 C 240.869 -3.34909 -4.15538 0
M  V30 2479 O 241.092 -2.54948 -5.10253 0
M  V30 2480 O 240.026 -4.28141 -4.23059 0
M  V30 2481 H 243.852 -2.74328 -1.30299 0
M  V30 2482 H 241.437 -1.3764 -0.581005 0
M  V30 2483 H 243.319 -2.08056 -3.66457 0
M  V30 2484 H 241.994 -1.04699 -3.063 0
M  V30 2485 H 240.901 -3.13038 -2.04837 0
M  V30 2486 H 242.234 -4.1078 -2.71147 0
M  V30 2487 N 243.887 0.651787 -1.4349 0
M  V30 2488 C 244.834 1.76462 -1.4876 0
M  V30 2489 C 245.804 1.62641 -0.337189 0
M  V30 2490 O 246.989 1.82864 -0.544544 0
M  V30 2491 C 244.129 3.14623 -1.41796 0
M  V30 2492 C 243.242 3.39568 -2.67053 0
M  V30 2493 C 242.377 4.67585 -2.52068 0
M  V30 2494 C 241.416 4.85639 -3.72587 0
M  V30 2495 N 240.553 6.04915 -3.56402 0
M  V30 2496 H 245.393 1.71293 -2.43849 0
M  V30 2497 H 242.93 0.835889 -1.21043 0
M  V30 2498 H 244.888 3.94496 -1.35753 0
M  V30 2499 H 243.518 3.18859 -0.50288 0
M  V30 2500 H 242.57 2.53783 -2.8337 0
M  V30 2501 H 243.882 3.48795 -3.56572 0
M  V30 2502 H 243.036 5.55586 -2.4374 0
M  V30 2503 H 241.775 4.60681 -1.60075 0
M  V30 2504 H 240.78 3.96073 -3.81321 0
M  V30 2505 H 242.005 4.94372 -4.65589 0
M  V30 2506 H 239.951 5.9914 -2.67146 0
M  V30 2507 H 239.868 6.15106 -4.39524 0
M  V30 2508 H 241.136 6.95533 -3.51929 0
M  V30 2509 N 245.365 1.30045 0.890287 0
M  V30 2510 C 246.612 1.18561 1.64163 0
M  V30 2511 C 246.94 -0.260852 1.92743 0
M  V30 2512 O 246.195 -1.20376 1.54299 0
M  V30 2513 C 246.494 1.95409 2.99249 0
M  V30 2514 C 246.16 3.45066 2.90242 0
M  V30 2515 C 244.822 3.85878 2.87492 0
M  V30 2516 C 247.174 4.4039 2.78758 0
M  V30 2517 C 244.502 5.20314 2.7109 0
M  V30 2518 C 246.854 5.74928 2.63894 0
M  V30 2519 C 245.518 6.14986 2.59516 0
M  V30 2520 H 244.788 0.433846 0.600715 0
M  V30 2521 H 247.435 1.61088 1.03552 0
M  V30 2522 H 245.74 1.45501 3.63781 0
M  V30 2523 H 247.437 1.8392 3.56334 0
M  V30 2524 H 244.027 3.12631 2.93189 0
M  V30 2525 H 248.211 4.09806 2.79952 0
M  V30 2526 H 243.467 5.50449 2.66112 0
M  V30 2527 H 247.641 6.48434 2.53981 0
M  V30 2528 H 245.268 7.19104 2.46565 0
M  V30 2529 N 246.843 -1.10192 1.12674 0
M  V30 2530 C 248.254 -1.63707 0.897604 0
M  V30 2531 C 248.605 -1.87812 -0.567546 0
M  V30 2532 O 247.73 -1.62196 -1.43253 0
M  V30 2533 C 248.325 -2.974 1.62292 0
M  V30 2534 C 246.884 -3.47772 1.43986 0
M  V30 2535 C 246.031 -2.22332 1.65722 0
M  V30 2536 H 248.982 -0.936587 1.28116 0
M  V30 2537 H 249.003 -3.64986 1.07541 0
M  V30 2538 H 248.515 -2.79824 2.68924 0
M  V30 2539 H 246.616 -3.70487 0.396206 0
M  V30 2540 H 246.729 -4.25723 2.19765 0
M  V30 2541 H 245.093 -2.30599 1.08149 0
M  V30 2542 H 245.876 -2.07285 2.73657 0
M  V30 2543 N 248.321 -0.919034 -1.28029 0
M  V30 2544 C 249.598 -0.473668 -1.89778 0
M  V30 2545 C 249.978 1.04783 -1.83259 0
M  V30 2546 O 249.326 1.8982 -1.27202 0
M  V30 2547 C 249.536 -1.00998 -3.34066 0
M  V30 2548 C 250.884 -1.06525 -4.1102 0
M  V30 2549 O 251.908 -0.958996 -3.43048 0
M  V30 2550 O 250.767 -1.22776 -5.3253 0
M  V30 2551 H 247.861 -0.15098 -0.813101 0
M  V30 2552 H 250.407 -1.01016 -1.36359 0
M  V30 2553 H 249.179 -2.05392 -3.33061 0
M  V30 2554 H 248.802 -0.454626 -3.94992 0
M  V30 2555 N 249.799 1.42003 -0.683588 0
M  V30 2556 C 250.709 2.34597 -0.0109075 0
M  V30 2557 C 251.725 1.55576 0.779245 0
M  V30 2558 O 252.901 1.88107 0.719555 0
M  V30 2559 C 249.966 3.34199 0.922588 0
M  V30 2560 C 249.027 4.29115 0.125984 0
M  V30 2561 C 248.26 5.23959 1.01502 0
M  V30 2562 O 248.483 5.23952 2.25456 0
M  V30 2563 O 247.417 6.00053 0.47111 0
M  V30 2564 H 251.243 2.93675 -0.773853 0
M  V30 2565 H 248.828 1.42654 -0.443861 0
M  V30 2566 H 250.71 3.95365 1.45823 0
M  V30 2567 H 249.385 2.77582 1.66523 0
M  V30 2568 H 248.292 3.71335 -0.453969 0
M  V30 2569 H 249.625 4.88798 -0.577736 0
M  V30 2570 N 251.277 0.427512 1.51691 0
M  V30 2571 C 252.224 -0.388867 2.275 0
M  V30 2572 C 253.194 -1.02532 1.30677 0
M  V30 2573 O 254.379 -1.0461 1.59566 0
M  V30 2574 C 251.519 -1.48954 3.11298 0
M  V30 2575 C 250.632 -0.872194 4.23104 0
M  V30 2576 C 249.767 -1.94709 4.94228 0
M  V30 2577 C 248.806 -1.30766 5.97969 0
M  V30 2578 N 247.943 -2.32349 6.62539 0
M  V30 2579 H 252.783 0.263997 2.96828 0
M  V30 2580 H 250.32 0.142033 1.46413 0
M  V30 2581 H 252.278 -2.13887 3.58201 0
M  V30 2582 H 250.908 -2.11217 2.44105 0
M  V30 2583 H 249.96 -0.111419 3.80237 0
M  V30 2584 H 251.272 -0.365264 4.97461 0
M  V30 2585 H 250.426 -2.67327 5.44629 0
M  V30 2586 H 249.165 -2.48773 4.1948 0
M  V30 2587 H 248.17 -0.566902 5.4687 0
M  V30 2588 H 249.395 -0.774483 6.74669 0
M  V30 2589 H 247.341 -2.85511 5.90609 0
M  V30 2590 H 247.258 -1.8652 7.3263 0
M  V30 2591 H 248.526 -3.04481 7.17574 0
M  V30 2592 N 252.755 -1.56801 0.158532 0
M  V30 2593 C 254.166 -1.83189 -0.360366 0
M  V30 2594 C 254.517 -1.07778 -1.63946 0
M  V30 2595 O 253.642 -0.326718 -2.13919 0
M  V30 2596 C 254.237 -3.32297 -0.660595 0
M  V30 2597 C 252.796 -3.59227 -1.12398 0
M  V30 2598 C 251.943 -2.76877 -0.153097 0
M  V30 2599 H 254.894 -1.54008 0.383031 0
M  V30 2600 H 254.915 -3.4908 -1.51405 0
M  V30 2601 H 254.427 -3.87156 0.270527 0
M  V30 2602 H 252.528 -3.09766 -2.07064 0
M  V30 2603 H 252.641 -4.67632 -1.04197 0
M  V30 2604 H 251.005 -2.46319 -0.647983 0
M  V30 2605 H 251.788 -3.34511 0.77182 0
M  V30 2606 N 254.233 0.115231 -1.57178 0
M  V30 2607 C 255.481 0.820727 -1.84685 0
M  V30 2608 C 255.802 1.80237 -0.744279 0
M  V30 2609 O 255.072 1.94529 0.231375 0
M  V30 2610 H 253.652 0.306084 -0.681411 0
M  V30 2611 H 256.314 0.101656 -1.94635 0
M  V30 2612 H 255.41 1.36366 -2.80733 0
M  V30 2613 N 255.711 1.52812 0.385517 0
M  V30 2614 C 256.988 1.5861 1.14465 0
M  V30 2615 C 257.368 0.381402 2.07626 0
M  V30 2616 O 256.716 -0.629999 2.19643 0
M  V30 2617 C 256.926 2.92664 1.90128 0
M  V30 2618 C 258.274 3.46526 2.45367 0
M  V30 2619 O 259.298 2.94562 2.0028 0
M  V30 2620 O 258.157 4.37323 3.27736 0
M  V30 2621 H 255.251 0.639855 0.523941 0
M  V30 2622 H 257.797 1.65149 0.390389 0
M  V30 2623 H 256.569 3.71788 1.22022 0
M  V30 2624 H 256.192 2.89527 2.72507 0
M  V30 2625 N 257.189 -0.644168 1.43834 0
M  V30 2626 C 258.605 -0.960875 1.27434 0
M  V30 2627 C 258.805 -2.00499 0.200618 0
M  V30 2628 O 257.861 -2.49018 -0.417906 0
M  V30 2629 C 259.174 -1.43653 2.64167 0
M  V30 2630 C 260.722 -1.55271 2.71772 0
M  V30 2631 C 261.197 -2.06224 4.08944 0
M  V30 2632 N 262.688 -2.13513 4.11055 0
M  V30 2633 C 263.423 -2.54081 5.14033 0
M  V30 2634 N 262.919 -2.9388 6.27381 0
M  V30 2635 N 264.712 -2.54101 5.01387 0
M  V30 2636 H 256.863 0.0465779 2.12349 0
M  V30 2637 H 259.126 -0.0417638 0.94708 0
M  V30 2638 H 258.832 -0.743706 3.43747 0
M  V30 2639 H 258.706 -2.40993 2.90176 0
M  V30 2640 H 261.093 -2.23653 1.92519 0
M  V30 2641 H 261.174 -0.563395 2.49519 0
M  V30 2642 H 260.818 -1.38441 4.88668 0
M  V30 2643 H 260.748 -3.06003 4.28567 0
M  V30 2644 H 263.239 -1.85493 3.29242 0
M  V30 2645 H 263.552 -3.2361 7.01781 0
M  V30 2646 H 261.897 -2.91663 6.30839 0
M  V30 2647 H 265.088 -2.22391 4.11898 0
M  V30 2648 H 265.261 -2.85394 5.81768 0
M  V30 2649 N 258.668 -1.30515 -0.883378 0
M  V30 2650 C 259.915 -1.1943 -1.63532 0
M  V30 2651 C 260.243 0.250627 -1.92878 0
M  V30 2652 O 259.498 1.19556 -1.54935 0
M  V30 2653 C 259.797 -1.96994 -2.98209 0
M  V30 2654 C 259.463 -3.466 -2.88408 0
M  V30 2655 C 258.125 -3.87397 -2.85442 0
M  V30 2656 C 260.477 -4.41863 -2.76418 0
M  V30 2657 C 257.805 -5.21745 -2.68327 0
M  V30 2658 C 260.157 -5.7632 -2.60841 0
M  V30 2659 C 258.821 -6.16354 -2.56251 0
M  V30 2660 H 258.091 -0.437025 -0.598406 0
M  V30 2661 H 260.738 -1.61635 -1.02696 0
M  V30 2662 H 259.043 -1.47429 -3.63004 0
M  V30 2663 H 260.74 -1.85808 -3.55354 0
M  V30 2664 H 257.33 -3.14182 -2.91527 0
M  V30 2665 H 261.514 -4.11285 -2.77775 0
M  V30 2666 H 256.77 -5.51853 -2.63189 0
M  V30 2667 H 260.944 -6.49772 -2.50538 0
M  V30 2668 H 258.571 -7.20401 -2.42748 0
M  V30 2669 N 260.146 1.09593 -1.13257 0
M  V30 2670 C 261.423 1.78293 -0.804432 0
M  V30 2671 C 261.803 1.99004 0.70431 0
M  V30 2672 O 261.151 1.59007 1.641 0
M  V30 2673 C 261.361 3.10707 -1.5894 0
M  V30 2674 C 262.709 3.85443 -1.78099 0
M  V30 2675 O 263.733 3.20454 -1.55525 0
M  V30 2676 O 262.592 5.02108 -2.15753 0
M  V30 2677 H 259.686 0.773156 -0.293528 0
M  V30 2678 H 262.232 1.16164 -1.23709 0
M  V30 2679 H 261.004 2.91106 -2.61482 0
M  V30 2680 H 260.627 3.80558 -1.15157 0
M  V30 2681 N 261.624 0.925811 1.2754 0
M  V30 2682 C 263.04 0.625767 1.46821 0
M  V30 2683 C 263.24 -0.825506 1.83814 0
M  V30 2684 O 262.296 -1.60356 1.95044 0
M  V30 2685 C 263.609 1.57402 2.56213 0
M  V30 2686 C 265.157 1.58204 2.70075 0
M  V30 2687 C 265.632 2.51721 3.82623 0
M  V30 2688 N 267.123 2.49917 3.89994 0
M  V30 2689 C 267.858 3.18968 4.76494 0
M  V30 2690 N 267.354 3.97391 5.67496 0
M  V30 2691 N 269.147 3.07996 4.70208 0
M  V30 2692 H 261.298 1.86409 1.01811 0
M  V30 2693 H 263.561 0.800213 0.508295 0
M  V30 2694 H 263.267 2.60925 2.35819 0
M  V30 2695 H 263.141 1.31428 3.53563 0
M  V30 2696 H 265.528 0.554124 2.89851 0
M  V30 2697 H 265.609 1.88226 1.73218 0
M  V30 2698 H 265.253 3.54622 3.63601 0
M  V30 2699 H 265.183 2.18996 4.78903 0
M  V30 2700 H 267.674 1.9296 3.24923 0
M  V30 2701 H 267.987 4.4707 6.30356 0
M  V30 2702 H 266.332 4.01495 5.67298 0
M  V30 2703 H 269.523 2.46223 3.9811 0
M  V30 2704 H 269.696 3.6208 5.37403 0
M  V30 2705 N 263.102 -1.41638 0.69111 0
M  V30 2706 C 264.379 -1.95036 0.148421 0
M  V30 2707 C 264.759 -1.63072 -1.34055 0
M  V30 2708 O 264.107 -0.93538 -2.08478 0
M  V30 2709 C 264.317 -3.46279 0.434951 0
M  V30 2710 C 265.665 -4.23069 0.360275 0
M  V30 2711 O 266.689 -3.54277 0.369613 0
M  V30 2712 O 265.548 -5.45583 0.316534 0
M  V30 2713 H 262.642 -0.826908 0.0123654 0
M  V30 2714 H 265.188 -1.5138 0.766963 0
M  V30 2715 H 263.96 -3.6281 1.46576 0
M  V30 2716 H 263.583 -3.97019 -0.214787 0
M  V30 2717 N 264.58 -0.43555 -1.51462 0
M  V30 2718 C 265.996 -0.0877501 -1.59359 0
M  V30 2719 C 266.196 1.4027 -1.4466 0
M  V30 2720 O 265.252 2.17243 -1.28693 0
M  V30 2721 C 266.565 -0.606264 -2.94525 0
M  V30 2722 C 268.113 -0.566548 -3.0783 0
M  V30 2723 C 268.588 -1.06201 -4.45517 0
M  V30 2724 N 270.079 -1.01992 -4.51832 0
M  V30 2725 C 270.814 -1.37417 -5.5669 0
M  V30 2726 N 270.31 -1.80119 -6.68976 0
M  V30 2727 N 272.103 -1.29245 -5.47039 0
M  V30 2728 H 264.254 -1.40533 -1.59261 0
M  V30 2729 H 266.517 -0.578992 -0.750648 0
M  V30 2730 H 266.223 -1.64901 -3.10645 0
M  V30 2731 H 266.097 -0.0302097 -3.77188 0
M  V30 2732 H 268.484 0.467208 -2.91378 0
M  V30 2733 H 268.565 -1.17898 -2.2701 0
M  V30 2734 H 268.209 -2.09422 -4.62715 0
M  V30 2735 H 268.139 -0.426127 -5.24873 0
M  V30 2736 H 270.63 -0.706308 -3.71241 0
M  V30 2737 H 270.943 -2.05392 -7.45006 0
M  V30 2738 H 269.288 -1.84044 -6.70189 0
M  V30 2739 H 272.479 -0.957522 -4.58202 0
M  V30 2740 H 272.652 -1.57182 -6.28648 0
M  V30 2741 N 266.058 1.56714 -0.166846 0
M  V30 2742 C 267.469 1.83378 0.350646 0
M  V30 2743 C 267.82 1.08646 1.63372 0
M  V30 2744 O 266.945 0.338058 2.13743 0
M  V30 2745 C 267.54 3.32643 0.642963 0
M  V30 2746 C 266.099 3.59818 1.10491 0
M  V30 2747 C 265.246 2.76954 0.138411 0
M  V30 2748 H 268.197 1.53803 -0.391193 0
M  V30 2749 H 268.218 3.49878 1.49551 0
M  V30 2750 H 267.73 3.87007 -0.291055 0
M  V30 2751 H 265.831 3.1086 2.05418 0
M  V30 2752 H 265.944 4.68178 1.01716 0
M  V30 2753 H 264.308 2.4666 0.634911 0
M  V30 2754 H 265.091 3.34097 -0.789549 0
M  V30 2755 N 267.536 -0.106894 1.57237 0
M  V30 2756 C 268.466 -1.13148 2.04254 0
M  V30 2757 C 269.447 -1.42476 0.929224 0
M  V30 2758 O 270.632 -1.52709 1.19973 0
M  V30 2759 C 267.762 -2.4545 2.45706 0
M  V30 2760 C 266.716 -2.30558 3.60592 0
M  V30 2761 C 266.042 -3.67931 3.87983 0
M  V30 2762 C 267.342 -1.75597 4.91897 0
M  V30 2763 H 269.036 -0.740374 2.90101 0
M  V30 2764 H 266.582 -0.354696 1.39563 0
M  V30 2765 H 268.535 -3.17389 2.77205 0
M  V30 2766 H 267.259 -2.86475 1.56843 0
M  V30 2767 H 265.918 -1.61067 3.29322 0
M  V30 2768 H 265.566 -4.06462 2.96306 0
M  V30 2769 H 265.266 -3.58817 4.65322 0
M  V30 2770 H 266.79 -4.41356 4.21945 0
M  V30 2771 H 268.204 -2.37364 5.21854 0
M  V30 2772 H 266.601 -1.77272 5.73319 0
M  V30 2773 H 267.671 -0.714451 4.79608 0
M  V30 2774 N 269.014 -1.53014 -0.377408 0
M  V30 2775 C 270.43 -1.42523 -0.718281 0
M  V30 2776 C 270.63 -0.55487 -1.9371 0
M  V30 2777 O 269.686 -0.0327593 -2.52479 0
M  V30 2778 C 270.999 -2.85546 -0.942539 0
M  V30 2779 C 272.547 -2.95101 -1.04329 0
M  V30 2780 C 273.022 -4.3916 -1.3001 0
M  V30 2781 N 274.513 -4.42536 -1.36806 0
M  V30 2782 C 275.248 -5.51097 -1.58364 0
M  V30 2783 N 274.744 -6.69724 -1.77317 0
M  V30 2784 N 276.537 -5.38657 -1.60638 0
M  V30 2785 H 268.688 -2.08116 0.424426 0
M  V30 2786 H 270.951 -0.939352 0.127759 0
M  V30 2787 H 270.657 -3.51499 -0.118929 0
M  V30 2788 H 270.531 -3.28493 -1.85397 0
M  V30 2789 H 272.918 -2.29309 -1.85745 0
M  V30 2790 H 272.999 -2.55566 -0.109505 0
M  V30 2791 H 272.643 -5.05521 -0.490991 0
M  V30 2792 H 272.573 -4.76258 -2.24691 0
M  V30 2793 H 275.064 -3.57039 -1.23821 0
M  V30 2794 H 275.377 -7.48233 -1.93306 0
M  V30 2795 H 273.722 -6.72732 -1.74518 0
M  V30 2796 H 276.913 -4.44948 -1.45391 0
M  V30 2797 H 277.086 -6.2333 -1.77098 0
M  V30 2798 N 270.492 0.636531 -1.44174 0
M  V30 2799 C 271.74 1.39343 -1.46383 0
M  V30 2800 C 272.061 1.94766 -0.0955715 0
M  V30 2801 O 271.331 1.75452 0.871395 0
M  V30 2802 H 269.911 0.517199 -0.538994 0
M  V30 2803 H 272.573 0.74957 -1.7991 0
M  V30 2804 H 271.669 2.22746 -2.18611 0
M  V30 2805 N 271.97 1.30982 0.876444 0
M  V30 2806 C 273.386 1.09498 1.16113 0
M  V30 2807 C 273.586 -0.13875 2.01022 0
M  V30 2808 O 272.642 -0.829935 2.38471 0
M  V30 2809 C 273.955 2.36308 1.85954 0
M  V30 2810 C 275.503 2.41856 1.98683 0
M  V30 2811 C 275.978 3.6853 2.71937 0
M  V30 2812 N 277.469 3.69387 2.79477 0
M  V30 2813 C 278.204 4.64096 3.36753 0
M  V30 2814 N 277.7 5.69155 3.95012 0
M  V30 2815 N 279.493 4.51626 3.3465 0
M  V30 2816 H 271.644 2.10118 0.310494 0
M  V30 2817 H 273.907 0.926634 0.200131 0
M  V30 2818 H 273.613 3.26388 1.31011 0
M  V30 2819 H 273.487 2.4561 2.86278 0
M  V30 2820 H 275.874 1.52249 2.52793 0
M  V30 2821 H 275.955 2.36523 0.9742 0
M  V30 2822 H 275.599 4.58499 2.18496 0
M  V30 2823 H 275.529 3.71127 3.73593 0
M  V30 2824 H 278.02 2.93438 2.38123 0
M  V30 2825 H 278.333 6.3751 4.36808 0
M  V30 2826 H 276.678 5.72937 3.93406 0
M  V30 2827 H 279.869 3.68728 2.8837 0
M  V30 2828 H 280.042 5.25614 3.7899 0
M  V30 2829 N 273.449 -1.08991 1.13837 0
M  V30 2830 C 274.697 -1.80899 0.901098 0
M  V30 2831 C 275.018 -1.86356 -0.574134 0
M  V30 2832 O 274.288 -1.35235 -1.41733 0
M  V30 2833 H 272.868 -0.669966 0.330386 0
M  V30 2834 H 275.53 -1.318 1.43578 0
M  V30 2835 H 274.626 -2.83929 1.29578 0
M  V30 2836 N 274.927 -0.932562 -1.27047 0
M  V30 2837 C 276.175 -0.574422 -1.93765 0
M  V30 2838 C 276.496 0.887993 -1.73608 0
M  V30 2839 O 275.766 1.62999 -1.08665 0
M  V30 2840 H 274.346 -0.209451 -0.717035 0
M  V30 2841 H 277.008 -1.18601 -1.5466 0
M  V30 2842 H 276.104 -0.784841 -3.02071 0
M  V30 2843 N 276.405 1.4127 -0.698611 0
M  V30 2844 C 277.816 1.84187 -0.305289 0
M  V30 2845 C 278.167 1.58449 1.15708 0
M  V30 2846 O 277.292 1.05651 1.88856 0
M  V30 2847 C 277.887 3.3435 -0.547314 0
M  V30 2848 C 276.446 3.75826 -0.207878 0
M  V30 2849 C 275.593 2.64647 -0.828099 0
M  V30 2850 H 278.544 1.30778 -0.89904 0
M  V30 2851 H 278.565 3.8001 0.192998 0
M  V30 2852 H 278.077 3.53051 -1.61172 0
M  V30 2853 H 276.178 3.62725 0.852143 0
M  V30 2854 H 276.291 4.74462 -0.665021 0
M  V30 2855 H 274.655 2.53395 -0.257458 0
M  V30 2856 H 275.438 2.86165 -1.89643 0
M  V30 2857 N 277.883 0.443576 1.51229 0
M  V30 2858 C 279.299 0.0962001 1.5931 0
M  V30 2859 C 279.499 -1.39501 1.45402 0
M  V30 2860 O 278.555 -2.16557 1.29843 0
M  V30 2861 C 279.868 0.621875 2.94199 0
M  V30 2862 C 281.416 0.582865 3.07525 0
M  V30 2863 C 281.891 1.08562 4.44948 0
M  V30 2864 N 283.382 1.04387 4.51284 0
M  V30 2865 C 284.117 1.40368 5.55954 0
M  V30 2866 N 283.613 1.83664 6.68011 0
M  V30 2867 N 285.406 1.32145 5.46346 0
M  V30 2868 H 277.557 1.41376 1.58514 0
M  V30 2869 H 279.82 0.582965 0.747567 0
M  V30 2870 H 279.526 1.66546 3.09767 0
M  V30 2871 H 279.4 0.0502125 3.77167 0
M  V30 2872 H 281.787 -0.451749 2.91622 0
M  V30 2873 H 281.868 1.191 2.26382 0
M  V30 2874 H 281.512 2.11873 4.61598 0
M  V30 2875 H 281.442 0.453956 5.2464 0
M  V30 2876 H 283.933 0.725986 3.70861 0
M  V30 2877 H 284.246 2.0934 7.43906 0
M  V30 2878 H 282.591 1.87596 6.69203 0
M  V30 2879 H 285.782 0.981808 4.57688 0
M  V30 2880 H 285.955 1.60514 6.27805 0
M  V30 2881 N 279.361 -1.56624 0.175154 0
M  V30 2882 C 280.609 -1.96609 -0.467885 0
M  V30 2883 C 280.93 -1.06238 -1.63519 0
M  V30 2884 O 280.2 -0.129523 -1.95471 0
M  V30 2885 H 278.78 -0.726008 -0.175845 0
M  V30 2886 H 281.442 -1.93195 0.257234 0
M  V30 2887 H 280.538 -3.00989 -0.825342 0
M  V30 2888 N 280.839 0.0985539 -1.57292 0
M  V30 2889 C 282.087 0.801092 -1.85545 0
M  V30 2890 C 282.408 1.79438 -0.763353 0
M  V30 2891 O 281.678 1.94763 0.21073 0
M  V30 2892 H 280.258 0.29884 -0.684619 0
M  V30 2893 H 282.92 0.0810064 -1.94732 0
M  V30 2894 H 282.016 1.3338 -2.82163 0
M  V30 2895 N 282.317 1.53212 0.369288 0
M  V30 2896 C 283.25 1.74166 1.4745 0
M  V30 2897 C 284.228 0.589923 1.51521 0
M  V30 2898 O 285.412 0.822078 1.69629 0
M  V30 2899 C 282.539 1.81711 2.8583 0
M  V30 2900 C 281.585 3.03649 2.99499 0
M  V30 2901 S 282.418 4.63242 2.6864 0
M  V30 2902 C 283.574 4.7363 4.09177 0
M  V30 2903 H 283.807 2.67636 1.29454 0
M  V30 2904 H 281.34 1.43754 0.563396 0
M  V30 2905 H 283.298 1.86743 3.65564 0
M  V30 2906 H 281.959 0.89299 3.01139 0
M  V30 2907 H 281.152 3.05526 4.00836 0
M  V30 2908 H 280.754 2.9671 2.27683 0
M  V30 2909 H 283.046 4.53456 5.03372 0
M  V30 2910 H 283.989 5.75682 4.12306 0
M  V30 2911 H 284.397 4.02295 3.96004 0
M  V30 2912 N 283.795 -0.628877 1.44509 0
M  V30 2913 C 285.211 -0.947305 1.28446 0
M  V30 2914 C 285.411 -2.00275 0.221872 0
M  V30 2915 O 284.467 -2.49447 -0.391471 0
M  V30 2916 C 285.78 -1.40843 2.65676 0
M  V30 2917 C 287.328 -1.52379 2.73404 0
M  V30 2918 C 287.803 -2.01875 4.11109 0
M  V30 2919 N 289.294 -2.09142 4.13296 0
M  V30 2920 C 290.029 -2.48615 5.16699 0
M  V30 2921 N 289.525 -2.87209 6.30462 0
M  V30 2922 N 291.318 -2.48768 5.04054 0
M  V30 2923 H 283.469 0.0690977 2.12288 0
M  V30 2924 H 285.732 -0.0317164 0.947469 0
M  V30 2925 H 285.438 -0.707206 3.44516 0
M  V30 2926 H 285.312 -2.37902 2.92716 0
M  V30 2927 H 287.699 -2.21598 1.9488 0
M  V30 2928 H 287.78 -0.536898 2.50102 0
M  V30 2929 H 287.424 -1.3325 4.90109 0
M  V30 2930 H 287.354 -3.0144 4.31789 0
M  V30 2931 H 289.845 -1.81991 3.31191 0
M  V30 2932 H 290.158 -3.16149 7.05174 0
M  V30 2933 H 288.503 -2.84955 6.33897 0
M  V30 2934 H 291.694 -2.18009 4.14234 0
M  V30 2935 H 291.867 -2.79207 5.84763 0
M  V30 2936 N 285.273 -1.31445 -0.869486 0
M  V30 2937 C 286.521 -1.20918 -1.61936 0
M  V30 2938 C 286.842 0.232683 -1.93607 0
M  V30 2939 O 286.112 1.15352 -1.58338 0
M  V30 2940 H 284.692 -0.44454 -0.600328 0
M  V30 2941 H 287.354 -1.64776 -1.0409 0
M  V30 2942 H 286.45 -1.78124 -2.56278 0
M  V30 2943 N 286.751 1.08385 -1.14413 0
M  V30 2944 C 288.167 1.32844 -0.884563 0
M  V30 2945 C 288.367 1.95841 0.474181 0
M  V30 2946 O 287.423 2.21158 1.21842 0
M  V30 2947 C 288.736 2.22978 -2.01745 0
M  V30 2948 C 290.284 2.36458 -2.05077 0
M  V30 2949 C 290.759 3.29934 -3.1766 0
M  V30 2950 N 292.25 3.37511 -3.17239 0
M  V30 2951 C 292.985 4.09871 -4.0099 0
M  V30 2952 N 292.481 4.84936 -4.94781 0
M  V30 2953 N 294.274 4.05704 -3.89051 0
M  V30 2954 H 286.425 0.658756 -2.01926 0
M  V30 2955 H 288.688 0.352821 -0.879899 0
M  V30 2956 H 288.394 1.83934 -2.99769 0
M  V30 2957 H 288.268 3.23441 -1.94077 0
M  V30 2958 H 290.655 2.7476 -1.0766 0
M  V30 2959 H 290.736 1.35736 -2.16816 0
M  V30 2960 H 290.38 2.92352 -4.15322 0
M  V30 2961 H 290.31 4.30584 -3.03158 0
M  V30 2962 H 292.801 2.83996 -2.49308 0
M  V30 2963 H 293.114 5.37612 -5.55151 0
M  V30 2964 H 291.459 4.83988 -4.98779 0
M  V30 2965 H 294.65 3.46167 -3.15097 0
M  V30 2966 H 294.823 4.61834 -4.54547 0
M  V30 2967 N 288.23 0.939286 1.26551 0
M  V30 2968 C 289.478 0.58469 1.93457 0
M  V30 2969 C 289.799 -0.878774 1.74076 0
M  V30 2970 O 289.069 -1.62421 1.09528 0
M  V30 2971 H 287.649 0.21325 0.715914 0
M  V30 2972 H 290.311 1.1942 1.54029 0
M  V30 2973 H 289.407 0.800849 3.0165 0
M  V30 2974 N 289.708 -1.40897 0.706093 0
M  V30 2975 C 291.124 -1.55042 0.37869 0
M  V30 2976 C 291.324 -1.67944 -1.11342 0
M  V30 2977 O 290.38 -1.66372 -1.89938 0
M  V30 2978 C 291.693 -2.78398 1.13643 0
M  V30 2979 C 293.241 -2.92206 1.12181 0
M  V30 2980 C 293.716 -4.18463 1.86152 0
M  V30 2981 N 295.207 -4.25443 1.83173 0
M  V30 2982 C 295.942 -5.2202 2.37239 0
M  V30 2983 N 295.438 -6.24563 2.99821 0
M  V30 2984 N 297.231 -5.14033 2.27435 0
M  V30 2985 H 289.382 -1.30769 1.67372 0
M  V30 2986 H 291.645 -0.631653 0.706907 0
M  V30 2987 H 291.351 -2.7511 2.19106 0
M  V30 2988 H 291.225 -3.70228 0.721853 0
M  V30 2989 H 293.612 -2.95004 0.0754171 0
M  V30 2990 H 293.693 -2.01521 1.57554 0
M  V30 2991 H 293.337 -4.16427 2.90776 0
M  V30 2992 H 293.267 -5.08141 1.38206 0
M  V30 2993 H 295.758 -3.51976 1.37556 0
M  V30 2994 H 296.071 -6.94665 3.38616 0
M  V30 2995 H 294.416 -6.25035 3.03902 0
M  V30 2996 H 297.607 -4.3285 1.78208 0
M  V30 2997 H 297.78 -5.89129 2.69873 0
M  V30 2998 N 291.186 -0.45159 -1.50991 0
M  V30 2999 C 292.434 0.109857 -2.01801 0
M  V30 3000 C 292.755 1.41958 -1.3369 0
M  V30 3001 O 292.025 1.9003 -0.475951 0
M  V30 3002 H 290.605 0.0435884 -0.745727 0
M  V30 3003 H 293.267 -0.597557 -1.85514 0
M  V30 3004 H 292.363 0.275489 -3.10882 0
M  V30 3005 N 292.664 1.56529 -0.183458 0
M  V30 3006 C 293.912 1.96855 0.457452 0
M  V30 3007 C 294.233 1.07104 1.62953 0
M  V30 3008 O 293.503 0.139887 1.954 0
M  V30 3009 H 292.083 0.72693 0.171992 0
M  V30 3010 H 294.745 1.93056 -0.267476 0
M  V30 3011 H 293.841 3.01423 0.809368 0
M  V30 3012 N 294.142 -0.090211 1.57342 0
M  V30 3013 C 295.553 -0.644173 1.75235 0
M  V30 3014 C 295.904 -1.78865 0.806335 0
M  V30 3015 O 295.029 -2.16395 -0.0140128 0
M  V30 3016 C 295.624 -1.17532 3.1776 0
M  V30 3017 C 294.183 -1.67531 3.37061 0
M  V30 3018 C 293.33 -0.58693 2.71017 0
M  V30 3019 H 296.281 0.135884 1.58117 0
M  V30 3020 H 296.302 -2.04455 3.20902 0
M  V30 3021 H 295.814 -0.342138 3.86589 0
M  V30 3022 H 293.915 -2.53234 2.73319 0
M  V30 3023 H 294.028 -1.76493 4.45406 0
M  V30 3024 H 292.392 -1.02756 2.33052 0
M  V30 3025 H 293.175 0.235758 3.4249 0
M  V30 3026 N 295.62 -1.53406 -0.361157 0
M  V30 3027 C 296.868 -1.69467 -1.10115 0
M  V30 3028 C 297.189 -0.451352 -1.89705 0
M  V30 3029 O 296.459 0.534636 -1.88463 0
M  V30 3030 H 295.039 -0.624749 -0.409508 0
M  V30 3031 H 297.701 -1.90609 -0.406699 0
M  V30 3032 H 296.797 -2.55774 -1.78847 0
M  V30 3033 N 297.098 0.621204 -1.44841 0
M  V30 3034 C 298.046 1.75385 -1.52784 0
M  V30 3035 C 299.04 1.64639 -0.398779 0
M  V30 3036 O 300.246 1.70598 -0.574137 0
M  V30 3037 H 296.621 0.579193 -0.479625 0
M  V30 3038 H 298.592 1.6581 -2.48092 0
M  V30 3039 C 297.341 3.13742 -1.4987 0
M  V30 3040 H 296.664 3.22663 -2.36069 0
M  V30 3041 H 298.104 3.92861 -1.59487 0
M  V30 3042 C 296.563 3.36175 -0.220973 0
M  V30 3043 O 297.093 3.95469 0.704782 0
M  V30 3044 N 295.299 2.90348 -0.120963 0
M  V30 3045 H 294.846 2.42278 -0.875162 0
M  V30 3046 H 294.804 3.05732 0.733168 0
M  V30 3047 N 298.576 1.31904 0.862503 0
M  V30 3048 C 299.992 1.10724 1.14945 0
M  V30 3049 C 300.192 -0.117421 2.01158 0
M  V30 3050 O 299.248 -0.804595 2.39338 0
M  V30 3051 C 300.561 2.38267 1.83437 0
M  V30 3052 C 302.109 2.43949 1.96106 0
M  V30 3053 C 302.584 3.71394 2.68013 0
M  V30 3054 N 304.075 3.72331 2.75543 0
M  V30 3055 C 304.81 4.67641 3.31812 0
M  V30 3056 N 304.306 5.73313 3.88953 0
M  V30 3057 N 306.099 4.5515 3.29841 0
M  V30 3058 H 298.25 2.10436 0.288191 0
M  V30 3059 H 300.513 0.928705 0.190292 0
M  V30 3060 H 300.219 3.27759 1.27542 0
M  V30 3061 H 300.093 2.48633 2.83657 0
M  V30 3062 H 302.48 1.54922 2.51164 0
M  V30 3063 H 302.561 2.37543 0.949059 0
M  V30 3064 H 302.205 4.60791 2.13621 0
M  V30 3065 H 302.135 3.75069 3.69636 0
M  V30 3066 H 304.626 2.95947 2.34997 0
M  V30 3067 H 304.939 6.42107 4.30022 0
M  V30 3068 H 303.284 5.77077 3.87308 0
M  V30 3069 H 306.475 3.71766 2.84443 0
M  V30 3070 H 306.648 5.29604 3.73394 0
M  V30 3071 N 300.054 -1.07777 1.14986 0
M  V30 3072 C 301.3 -1.80557 0.923422 0
M  V30 3073 C 301.633 -1.86298 -0.548337 0
M  V30 3074 O 300.908 -1.34354 -1.40639 0
M  V30 3075 C 301.191 -3.25839 1.53299 0
M  V30 3076 C 301.044 -3.28269 3.07505 0
M  V30 3077 C 302.363 -4.22991 1.21518 0
M  V30 3078 H 299.482 -0.655493 0.336894 0
M  V30 3079 H 302.124 -1.26144 1.42083 0
M  V30 3080 H 300.274 -3.72306 1.10999 0
M  V30 3081 H 301.946 -2.90079 3.58681 0
M  V30 3082 H 300.189 -2.67355 3.4162 0
M  V30 3083 H 300.86 -4.30691 3.45266 0
M  V30 3084 H 303.336 -3.84894 1.581 0
M  V30 3085 H 302.212 -5.22945 1.66793 0
M  V30 3086 H 302.473 -4.41904 0.131505 0
M  V30 3087 N 301.532 -0.945985 -1.26051 0
M  V30 3088 C 302.779 -0.596118 -1.93527 0
M  V30 3089 C 303.107 0.865559 -1.74179 0
M  V30 3090 O 302.362 1.63524 -1.0751 0
M  V30 3091 C 302.661 -0.890475 -3.46129 0
M  V30 3092 C 302.327 -2.3368 -3.85622 0
M  V30 3093 C 300.989 -2.73216 -3.96114 0
M  V30 3094 C 303.341 -3.27648 -4.05334 0
M  V30 3095 C 300.669 -4.05806 -4.2372 0
M  V30 3096 C 303.021 -4.59841 -4.3443 0
M  V30 3097 C 301.685 -4.99185 -4.43137 0
M  V30 3098 H 300.955 -0.218135 -0.708165 0
M  V30 3099 H 303.602 -1.1934 -1.49768 0
M  V30 3100 H 301.907 -0.210711 -3.91233 0
M  V30 3101 H 303.604 -0.598478 -3.96509 0
M  V30 3102 H 300.194 -2.02015 -3.78005 0
M  V30 3103 H 304.378 -2.98298 -3.96651 0
M  V30 3104 H 299.634 -4.35945 -4.28675 0
M  V30 3105 H 303.808 -5.32641 -4.48628 0
M  V30 3106 H 301.435 -6.01952 -4.64282 0
M  V30 3107 N 303.011 1.40521 -0.713556 0
M  V30 3108 C 304.288 1.94775 -0.17943 0
M  V30 3109 C 304.668 1.65184 1.31444 0
M  V30 3110 O 304.016 0.968429 2.06963 0
M  V30 3111 C 304.226 3.45543 -0.489986 0
M  V30 3112 C 305.574 4.22442 -0.427536 0
M  V30 3113 O 306.598 3.53644 -0.425929 0
M  V30 3114 O 305.457 5.4501 -0.403292 0
M  V30 3115 H 302.551 0.826606 -0.0255192 0
M  V30 3116 H 305.097 1.5014 -0.790949 0
M  V30 3117 H 303.869 3.60432 -1.5233 0
M  V30 3118 H 303.492 3.97311 0.151598 0
M  V30 3119 N 304.489 0.459591 1.5075 0
M  V30 3120 C 305.452 -0.329093 2.26825 0
M  V30 3121 C 306.452 -0.930481 1.31144 0
M  V30 3122 O 307.642 -0.801453 1.54669 0
M  V30 3123 C 304.774 -1.46768 3.07688 0
M  V30 3124 H 305.967 0.337924 2.9799 0
M  V30 3125 H 303.52 0.213336 1.54837 0
M  V30 3126 H 304.255 -2.17009 2.40993 0
M  V30 3127 H 304.04 -1.04238 3.77991 0
M  V30 3128 H 305.53 -2.02433 3.65254 0
M  V30 3129 N 305.967 -1.56429 0.191757 0
M  V30 3130 C 307.214 -1.97485 -0.447891 0
M  V30 3131 C 307.542 -1.07852 -1.61859 0
M  V30 3132 O 306.797 -0.116903 -1.95351 0
M  V30 3133 C 307.096 -3.44449 -0.953384 0
M  V30 3134 C 306.762 -4.50781 0.103586 0
M  V30 3135 C 305.424 -4.79584 0.394023 0
M  V30 3136 C 307.776 -5.1471 0.819946 0
M  V30 3137 C 305.104 -5.69607 1.40585 0
M  V30 3138 C 307.456 -6.05827 1.8209 0
M  V30 3139 C 306.12 -6.32987 2.11857 0
M  V30 3140 H 305.39 -0.722648 -0.163895 0
M  V30 3141 H 308.037 -1.89322 0.28802 0
M  V30 3142 H 306.342 -3.49666 -1.76751 0
M  V30 3143 H 308.039 -3.73569 -1.45765 0
M  V30 3144 H 304.629 -4.28394 -0.132951 0
M  V30 3145 H 308.813 -4.92552 0.608789 0
M  V30 3146 H 304.069 -5.88926 1.64243 0
M  V30 3147 H 308.243 -6.54424 2.38123 0
M  V30 3148 H 305.87 -7.02544 2.90407 0
M  V30 3149 N 307.445 0.0818655 -1.57387 0
M  V30 3150 C 308.722 0.815343 -1.77796 0
M  V30 3151 C 309.102 1.96289 -0.77679 0
M  V30 3152 O 308.45 2.27691 0.192106 0
M  V30 3153 C 308.66 1.29765 -3.23978 0
M  V30 3154 C 310.008 1.7351 -3.8753 0
M  V30 3155 O 311.032 1.39356 -3.27808 0
M  V30 3156 O 309.891 2.36708 -4.92576 0
M  V30 3157 H 306.985 0.389914 -0.729312 0
M  V30 3158 H 309.531 0.0627213 -1.69584 0
M  V30 3159 H 308.303 0.47608 -3.88393 0
M  V30 3160 H 307.926 2.11189 -3.36875 0
M  V30 3161 N 308.923 1.53595 0.353017 0
M  V30 3162 C 309.855 1.77219 1.45348 0
M  V30 3163 C 310.868 0.65324 1.49119 0
M  V30 3164 O 312.057 0.929775 1.52373 0
M  V30 3165 C 309.157 1.84841 2.84055 0
M  V30 3166 C 308.33 3.14649 3.03833 0
M  V30 3167 C 307.389 3.13351 4.22727 0
M  V30 3168 O 306.415 3.87107 4.17297 0
M  V30 3169 N 307.617 2.35052 5.30783 0
M  V30 3170 H 310.382 2.72178 1.25457 0
M  V30 3171 H 307.943 1.52528 0.542833 0
M  V30 3172 H 309.935 1.81435 3.61751 0
M  V30 3173 H 308.505 0.971114 2.97133 0
M  V30 3174 H 307.725 3.31256 2.13689 0
M  V30 3175 H 309.013 4.00411 3.13925 0
M  V30 3176 H 308.411 1.74663 5.38061 0
M  V30 3177 H 306.968 2.37453 6.07009 0
M  V30 3178 N 310.401 -0.613514 1.45168 0
M  V30 3179 C 311.817 -0.933629 1.29443 0
M  V30 3180 C 312.017 -2.00028 0.243101 0
M  V30 3181 O 311.073 -2.49848 -0.364992 0
M  V30 3182 C 312.386 -1.38018 2.67155 0
M  V30 3183 C 313.934 -1.49471 2.75004 0
M  V30 3184 C 314.409 -1.97503 4.13227 0
M  V30 3185 N 315.9 -2.04746 4.15491 0
M  V30 3186 C 316.635 -2.43121 5.19307 0
M  V30 3187 N 316.131 -2.80506 6.33473 0
M  V30 3188 N 317.924 -2.43408 5.06664 0
M  V30 3189 H 310.075 0.0916097 2.12202 0
M  V30 3190 H 312.338 -0.0216655 0.947752 0
M  V30 3191 H 312.044 -0.670625 3.45247 0
M  V30 3192 H 311.918 -2.34784 2.95222 0
M  V30 3193 H 314.305 -2.19519 1.9722 0
M  V30 3194 H 314.386 -0.510342 2.50657 0
M  V30 3195 H 314.03 -1.28045 4.91495 0
M  V30 3196 H 313.96 -2.96843 4.34962 0
M  V30 3197 H 316.451 -1.78468 3.33103 0
M  V30 3198 H 316.764 -3.08652 7.08487 0
M  V30 3199 H 315.109 -2.78216 6.36884 0
M  V30 3200 H 318.3 -2.13604 4.16523 0
M  V30 3201 H 318.473 -2.72989 5.87691 0
M  V30 3202 N 311.879 -1.3236 -0.855495 0
M  V30 3203 C 313.127 -1.22629 -1.60644 0
M  V30 3204 C 313.448 0.212136 -1.93843 0
M  V30 3205 O 312.718 1.13666 -1.59552 0
M  V30 3206 H 311.298 -0.450882 -0.595579 0
M  V30 3207 H 313.96 -1.65871 -1.02337 0
M  V30 3208 H 313.056 -1.80832 -2.54374 0
M  V30 3209 N 313.357 1.07166 -1.15556 0
M  V30 3210 C 314.304 2.14417 -0.854055 0
M  V30 3211 C 315.274 1.64965 0.193806 0
M  V30 3212 O 316.459 1.90703 0.0609443 0
M  V30 3213 C 313.599 3.43304 -0.351574 0
M  V30 3214 C 312.712 4.06537 -1.46123 0
M  V30 3215 C 311.847 5.23266 -0.914677 0
M  V30 3216 C 310.886 5.78464 -2.00114 0
M  V30 3217 N 310.023 6.86521 -1.47083 0
M  V30 3218 H 314.863 2.39548 -1.77259 0
M  V30 3219 H 312.4 1.17543 -0.884425 0
M  V30 3220 H 314.358 4.17179 -0.0419409 0
M  V30 3221 H 312.988 3.18419 0.530037 0
M  V30 3222 H 312.04 3.30297 -1.88701 0
M  V30 3223 H 313.352 4.43567 -2.28144 0
M  V30 3224 H 312.506 6.04131 -0.557698 0
M  V30 3225 H 311.245 4.87658 -0.0636583 0
M  V30 3226 H 310.25 4.96243 -2.36692 0
M  V30 3227 H 311.475 6.16126 -2.85597 0
M  V30 3228 H 309.421 6.52849 -0.642198 0
M  V30 3229 H 309.338 7.22446 -2.22729 0
M  V30 3230 H 310.606 7.71087 -1.14215 0
M  V30 3231 N 314.835 0.952656 1.25548 0
M  V30 3232 C 316.251 0.656769 1.4546 0
M  V30 3233 C 316.451 -0.78633 1.85524 0
M  V30 3234 O 315.507 -1.56183 1.98402 0
M  V30 3235 C 316.82 1.62801 2.52817 0
M  V30 3236 C 318.368 1.63897 2.66659 0
M  V30 3237 C 318.843 2.5978 3.77198 0
M  V30 3238 N 320.334 2.58133 3.84606 0
M  V30 3239 C 321.069 3.29003 4.69621 0
M  V30 3240 N 320.565 4.09339 5.58939 0
M  V30 3241 N 322.358 3.179 4.63569 0
M  V30 3242 H 314.509 1.88526 0.978344 0
M  V30 3243 H 316.772 0.810815 0.491206 0
M  V30 3244 H 316.478 2.65869 2.30232 0
M  V30 3245 H 316.352 1.38898 3.50695 0
M  V30 3246 H 318.739 0.615481 2.8861 0
M  V30 3247 H 318.82 1.91858 1.69187 0
M  V30 3248 H 318.464 3.62254 3.55997 0
M  V30 3249 H 318.394 2.29105 4.7415 0
M  V30 3250 H 320.885 1.99809 3.20757 0
M  V30 3251 H 321.198 4.6034 6.20731 0
M  V30 3252 H 319.543 4.13438 5.58654 0
M  V30 3253 H 322.734 2.54612 3.92798 0
M  V30 3254 H 322.907 3.73398 5.29602 0
M  V30 3255 N 316.313 -1.40141 0.720998 0
M  V30 3256 C 317.223 -2.34486 0.0731031 0
M  V30 3257 C 318.239 -1.57587 -0.737723 0
M  V30 3258 O 319.415 -1.89949 -0.669429 0
M  V30 3259 C 316.48 -3.36528 -0.833656 0
M  V30 3260 C 315.541 -4.29298 -0.0121673 0
M  V30 3261 C 314.774 -5.26466 -0.875742 0
M  V30 3262 O 314.997 -5.29745 -2.11485 0
M  V30 3263 O 313.931 -6.01092 -0.31185 0
M  V30 3264 H 317.757 -2.9152 0.851444 0
M  V30 3265 H 315.342 -1.41427 0.481527 0
M  V30 3266 H 317.224 -3.99093 -1.35289 0
M  V30 3267 H 315.899 -2.81899 -1.59105 0
M  V30 3268 H 314.806 -3.70001 0.552262 0
M  V30 3269 H 316.139 -4.87094 0.707129 0
M  V30 3270 N 317.792 -0.46758 -1.50504 0
M  V30 3271 C 319.039 0.0886219 -2.02306 0
M  V30 3272 C 319.367 1.40037 -1.34981 0
M  V30 3273 O 318.622 1.90136 -0.463318 0
M  V30 3274 C 318.921 0.323995 -3.55928 0
M  V30 3275 C 318.587 -0.905618 -4.41712 0
M  V30 3276 C 317.249 -1.24275 -4.64875 0
M  V30 3277 C 319.601 -1.72448 -4.91845 0
M  V30 3278 C 316.929 -2.39888 -5.35417 0
M  V30 3279 C 319.281 -2.87185 -5.63656 0
M  V30 3280 C 317.945 -3.21317 -5.85074 0
M  V30 3281 H 317.215 0.0324291 -0.74029 0
M  V30 3282 H 319.862 -0.620945 -1.81153 0
M  V30 3283 H 318.167 1.11577 -3.75577 0
M  V30 3284 H 319.864 0.76826 -3.93572 0
M  V30 3285 H 316.454 -0.632956 -4.239 0
M  V30 3286 H 320.638 -1.4772 -4.73806 0
M  V30 3287 H 315.894 -2.66611 -5.50208 0
M  V30 3288 H 320.068 -3.50985 -6.01484 0
M  V30 3289 H 317.695 -4.1101 -6.39511 0
M  V30 3290 N 319.27 1.56325 -0.20005 0
M  V30 3291 C 320.18 2.22931 0.730668 0
M  V30 3292 C 321.196 1.22997 1.23076 0
M  V30 3293 O 322.372 1.55748 1.27689 0
M  V30 3294 C 319.437 2.87948 1.93098 0
M  V30 3295 C 318.498 4.03166 1.47497 0
M  V30 3296 C 317.731 4.65073 2.61807 0
M  V30 3297 O 317.954 4.25913 3.79413 0
M  V30 3298 O 316.888 5.54452 2.34237 0
M  V30 3299 H 320.714 3.03084 0.193391 0
M  V30 3300 H 318.299 1.49371 0.0294621 0
M  V30 3301 H 320.181 3.29063 2.6324 0
M  V30 3302 H 318.856 2.10771 2.45677 0
M  V30 3303 H 317.763 3.66664 0.742201 0
M  V30 3304 H 319.096 4.82022 0.995796 0
M  V30 3305 N 320.748 -0.0735177 1.57428 0
M  V30 3306 C 322.164 -0.428264 1.53747 0
M  V30 3307 C 322.364 -1.79272 0.91998 0
M  V30 3308 O 321.42 -2.47051 0.521745 0
M  V30 3309 C 322.733 -0.370914 2.98404 0
M  V30 3310 C 324.281 -0.451224 3.0973 0
M  V30 3311 C 324.756 -0.4238 4.56035 0
M  V30 3312 N 326.247 -0.483925 4.60665 0
M  V30 3313 C 326.982 -0.484891 5.71346 0
M  V30 3314 N 326.478 -0.440775 6.91396 0
M  V30 3315 N 328.271 -0.531319 5.59583 0
M  V30 3316 H 320.422 0.819949 1.95935 0
M  V30 3317 H 322.685 0.307493 0.896745 0
M  V30 3318 H 322.391 0.564956 3.47133 0
M  V30 3319 H 322.265 -1.18176 3.5821 0
M  V30 3320 H 324.652 -1.37752 2.60976 0
M  V30 3321 H 324.733 0.388167 2.52838 0
M  V30 3322 H 324.377 0.498638 5.05446 0
M  V30 3323 H 324.307 -1.2807 5.10789 0
M  V30 3324 H 326.798 -0.522338 3.74273 0
M  V30 3325 H 327.111 -0.44539 7.71515 0
M  V30 3326 H 325.456 -0.40749 6.93804 0
M  V30 3327 H 328.647 -0.563464 4.64696 0
M  V30 3328 H 328.82 -0.528603 6.4584 0
M  V30 3329 N 322.226 -1.5378 -0.344866 0
M  V30 3330 C 323.456 -1.74646 -1.10374 0
M  V30 3331 C 323.864 -0.48491 -1.8288 0
M  V30 3332 O 323.207 0.553062 -1.75177 0
M  V30 3333 C 323.269 -2.87145 -2.16306 0
M  V30 3334 C 322.933 -4.26795 -1.63386 0
M  V30 3335 C 323.93 -5.08412 -1.08688 0
M  V30 3336 C 321.615 -4.73276 -1.68272 0
M  V30 3337 C 323.609 -6.34609 -0.595792 0
M  V30 3338 C 321.296 -5.99446 -1.18776 0
M  V30 3339 C 322.294 -6.79946 -0.645215 0
M  V30 3340 O 321.982 -8.03745 -0.157626 0
M  V30 3341 H 321.714 -0.587112 -0.335075 0
M  V30 3342 H 324.268 -2.01403 -0.403252 0
M  V30 3343 H 322.498 -2.55909 -2.89909 0
M  V30 3344 H 324.187 -2.95992 -2.77747 0
M  V30 3345 H 324.953 -4.73666 -1.04236 0
M  V30 3346 H 320.832 -4.10677 -2.09442 0
M  V30 3347 H 324.376 -6.97389 -0.171654 0
M  V30 3348 H 320.273 -6.33687 -1.22928 0
M  V30 3349 H 321.041 -8.18038 -0.275037 0
M  V30 3350 N 323.704 0.605807 -1.45491 0
M  V30 3351 C 324.952 1.36207 -1.49305 0
M  V30 3352 C 325.273 1.94519 -0.136863 0
M  V30 3353 O 324.543 1.77261 0.833983 0
M  V30 3354 H 323.123 0.50565 -0.549843 0
M  V30 3355 H 325.785 0.711239 -1.81459 0
M  V30 3356 H 324.881 2.18058 -2.23287 0
M  V30 3357 N 325.182 1.32811 0.848464 0
M  V30 3358 C 326.43 1.23479 1.59991 0
M  V30 3359 C 326.751 -0.201853 1.93952 0
M  V30 3360 O 326.021 -1.12818 1.60153 0
M  V30 3361 H 324.601 0.454034 0.593179 0
M  V30 3362 H 327.263 1.66412 1.01455 0
M  V30 3363 H 326.359 1.82178 2.53412 0
M  V30 3364 N 326.66 -1.06551 1.16123 0
M  V30 3365 C 327.608 -2.16063 0.861371 0
M  V30 3366 C 328.602 -1.6856 -0.168517 0
M  V30 3367 O 329.808 -1.79986 -0.0227579 0
M  V30 3368 H 326.183 -0.705278 0.260934 0
M  V30 3369 H 328.154 -2.38567 1.79244 0
M  V30 3370 C 326.903 -3.45661 0.376018 0
M  V30 3371 H 326.226 -3.82604 1.15992 0
M  V30 3372 H 327.666 -4.23504 0.204951 0
M  V30 3373 C 326.125 -3.24546 -0.903954 0
M  V30 3374 O 326.655 -3.49865 -1.97377 0
M  V30 3375 N 324.861 -2.77992 -0.846679 0
M  V30 3376 H 324.408 -2.57589 0.0241017 0
M  V30 3377 H 324.366 -2.64244 -1.70359 0
M  V30 3378 N 328.138 -0.959301 -1.25041 0
M  V30 3379 C 329.415 -0.533805 -1.88175 0
M  V30 3380 C 329.795 0.988994 -1.865 0
M  V30 3381 O 329.143 1.85677 -1.33177 0
M  V30 3382 C 329.353 -1.11575 -3.30684 0
M  V30 3383 C 330.701 -1.19548 -4.07423 0
M  V30 3384 O 331.725 -1.06765 -3.39823 0
M  V30 3385 O 330.584 -1.39656 -5.28354 0
M  V30 3386 H 327.678 -0.176772 -0.807887 0
M  V30 3387 H 330.224 -1.05303 -1.33076 0
M  V30 3388 H 328.996 -2.15884 -3.26358 0
M  V30 3389 H 328.619 -0.580059 -3.93346 0
M  V30 3390 N 329.616 1.39756 -0.72842 0
M  V30 3391 C 330.563 2.30647 -0.0841519 0
M  V30 3392 C 331.533 1.48869 0.7367 0
M  V30 3393 O 332.718 1.77574 0.698015 0
M  V30 3394 C 329.858 3.35165 0.822091 0
M  V30 3395 C 328.971 4.31999 -0.0106663 0
M  V30 3396 C 328.106 5.23585 0.896241 0
M  V30 3397 C 327.145 6.12072 0.0583381 0
M  V30 3398 N 326.282 6.96035 0.920818 0
M  V30 3399 H 331.122 2.85173 -0.864891 0
M  V30 3400 H 328.659 1.40422 -0.438179 0
M  V30 3401 H 330.617 3.94345 1.36189 0
M  V30 3402 H 329.247 2.8211 1.56888 0
M  V30 3403 H 328.299 3.74492 -0.66781 0
M  V30 3404 H 329.611 4.9443 -0.658825 0
M  V30 3405 H 328.765 5.87759 1.50412 0
M  V30 3406 H 327.504 4.61459 1.57819 0
M  V30 3407 H 326.509 5.46916 -0.562389 0
M  V30 3408 H 327.734 6.76261 -0.6203 0
M  V30 3409 H 325.68 6.36485 1.58818 0
M  V30 3410 H 325.597 7.55284 0.32899 0
M  V30 3411 H 326.865 7.64646 1.51447 0
M  V30 3412 N 331.094 0.475555 1.50254 0
M  V30 3413 C 332.343 -0.0795996 2.01543 0
M  V30 3414 C 332.656 -1.4038 1.36209 0
M  V30 3415 O 333.862 -2.04415 1.7868 0
M  V30 3416 C 332.318 -0.192363 3.59386 0
M  V30 3417 C 331.926 1.12367 4.33679 0
M  V30 3418 C 333.67 -0.699238 4.18701 0
M  V30 3419 C 331.577 0.974453 5.83317 0
M  V30 3420 H 330.507 -0.0335228 0.753254 0
M  V30 3421 H 333.158 0.611128 1.73025 0
M  V30 3422 H 331.54 -0.946974 3.84511 0
M  V30 3423 H 332.714 1.88958 4.20276 0
M  V30 3424 H 331.029 1.562 3.85993 0
M  V30 3425 H 333.626 -0.827978 5.28251 0
M  V30 3426 H 333.969 -1.69171 3.80377 0
M  V30 3427 H 334.502 -0.00188807 3.978 0
M  V30 3428 H 331.241 1.94042 6.26121 0
M  V30 3429 H 330.761 0.248998 5.99283 0
M  V30 3430 H 332.44 0.642867 6.43798 0
M  V30 3431 N 332.573 -1.56217 0.208337 0
M  V30 3432 C 333.536 -2.18455 -0.693557 0
M  V30 3433 C 334.536 -1.14268 -1.13135 0
M  V30 3434 O 335.726 -1.39577 -1.0423 0
M  V30 3435 C 332.858 -2.79727 -1.94848 0
M  V30 3436 H 334.051 -2.99519 -0.15114 0
M  V30 3437 H 331.604 -1.56245 -0.041287 0
M  V30 3438 H 332.339 -2.02497 -2.53309 0
M  V30 3439 H 332.124 -3.56009 -1.64316 0
M  V30 3440 H 333.614 -3.27475 -2.59133 0
M  V30 3441 N 334.051 0.0651679 -1.57465 0
M  V30 3442 C 335.297 0.764193 -1.87851 0
M  V30 3443 C 335.63 1.76889 -0.801495 0
M  V30 3444 O 334.905 1.93594 0.187528 0
M  V30 3445 C 335.188 1.46625 -3.28897 0
M  V30 3446 C 335.041 0.477515 -4.47258 0
M  V30 3447 C 336.36 2.4095 -3.68281 0
M  V30 3448 H 333.479 0.276351 -0.683227 0
M  V30 3449 H 336.121 0.0272868 -1.8998 0
M  V30 3450 H 334.271 2.09438 -3.27212 0
M  V30 3451 H 335.943 -0.145922 -4.61069 0
M  V30 3452 H 334.186 -0.206576 -4.33308 0
M  V30 3453 H 334.857 1.0065 -5.42746 0
M  V30 3454 H 337.333 1.88209 -3.71102 0
M  V30 3455 H 336.209 2.87072 -4.67847 0
M  V30 3456 H 336.47 3.26049 -2.98571 0
M  V30 3457 N 335.529 1.53961 0.336706 0
M  V30 3458 C 336.945 1.44378 0.680241 0
M  V30 3459 C 337.145 0.606034 1.9217 0
M  V30 3460 O 336.201 0.099688 2.52303 0
M  V30 3461 C 337.514 2.87945 0.8665 0
M  V30 3462 C 339.062 2.97763 0.964682 0
M  V30 3463 C 339.537 4.42453 1.18321 0
M  V30 3464 N 341.028 4.46008 1.25025 0
M  V30 3465 C 341.763 5.55102 1.43697 0
M  V30 3466 N 341.259 6.7419 1.59498 0
M  V30 3467 N 343.052 5.42727 1.463 0
M  V30 3468 H 335.203 2.06918 -0.479455 0
M  V30 3469 H 337.466 0.935634 -0.152619 0
M  V30 3470 H 337.172 3.51691 0.0256937 0
M  V30 3471 H 337.046 3.33293 1.76623 0
M  V30 3472 H 339.433 2.34153 1.796 0
M  V30 3473 H 339.514 2.55766 0.041708 0
M  V30 3474 H 339.158 5.06645 0.356788 0
M  V30 3475 H 339.088 4.82048 2.11985 0
M  V30 3476 H 341.579 3.60196 1.14312 0
M  V30 3477 H 341.892 7.53095 1.734 0
M  V30 3478 H 340.237 6.77123 1.56621 0
M  V30 3479 H 343.428 4.48647 1.33543 0
M  V30 3480 H 343.601 6.27806 1.6051 0
M  V30 3481 N 337.007 -0.598083 1.45811 0
M  V30 3482 C 338.235 -1.38322 1.53866 0
M  V30 3483 C 338.65 -1.87992 0.174479 0
M  V30 3484 O 338.007 -1.62756 -0.825627 0
M  V30 3485 C 338.058 -2.58125 2.53089 0
M  V30 3486 O 337.779 -2.10516 3.84206 0
M  V30 3487 C 339.28 -3.50869 2.70935 0
M  V30 3488 H 336.5 -0.423093 0.520801 0
M  V30 3489 H 339.044 -0.728527 1.91083 0
M  V30 3490 H 337.199 -3.19615 2.18917 0
M  V30 3491 H 337.613 -2.88425 4.38077 0
M  V30 3492 H 339.087 -4.31451 3.44317 0
M  V30 3493 H 339.564 -4.01822 1.77301 0
M  V30 3494 H 340.17 -2.95225 3.06141 0
M  V30 3495 N 338.485 -1.33259 -0.841409 0
M  V30 3496 C 339.395 -1.25332 -1.98316 0
M  V30 3497 C 340.411 -0.164364 -1.73222 0
M  V30 3498 O 341.587 -0.387486 -1.97637 0
M  V30 3499 C 338.652 -0.990078 -3.32262 0
M  V30 3500 C 337.713 -2.16879 -3.70489 0
M  V30 3501 C 336.946 -1.91801 -4.98044 0
M  V30 3502 O 337.169 -0.867075 -5.63771 0
M  V30 3503 O 336.103 -2.78267 -5.33714 0
M  V30 3504 H 339.929 -2.21344 -2.07944 0
M  V30 3505 H 337.514 -1.1328 -0.974058 0
M  V30 3506 H 339.396 -0.860321 -4.12524 0
M  V30 3507 H 338.071 -0.0602155 -3.23644 0
M  V30 3508 H 336.978 -2.35407 -2.90748 0
M  V30 3509 H 338.311 -3.0819 -3.8377 0
M  V30 3510 N 339.963 1.05934 -1.16686 0
M  V30 3511 C 341.24 1.75643 -0.860747 0
M  V30 3512 C 341.62 2.01144 0.640641 0
M  V30 3513 O 340.968 1.64147 1.58959 0
M  V30 3514 C 341.178 3.05493 -1.68745 0
M  V30 3515 C 342.526 3.79581 -1.90271 0
M  V30 3516 O 343.55 3.15344 -1.65641 0
M  V30 3517 O 342.409 4.9499 -2.31618 0
M  V30 3518 H 339.503 0.763426 -0.317977 0
M  V30 3519 H 342.049 1.1217 -1.27342 0
M  V30 3520 H 340.821 2.8264 -2.70611 0
M  V30 3521 H 340.444 3.76702 -1.27206 0
M  V30 3522 N 341.441 0.965919 1.2453 0
M  V30 3523 C 342.389 0.486506 2.27455 0
M  V30 3524 C 343.383 -0.449041 1.6334 0
M  V30 3525 O 344.589 -0.324527 1.7705 0
M  V30 3526 H 340.964 0.138857 0.739069 0
M  V30 3527 H 342.935 1.3666 2.65267 0
M  V30 3528 C 341.684 -0.209481 3.47068 0
M  V30 3529 H 341.007 0.50129 3.96645 0
M  V30 3530 H 342.447 -0.508775 4.20936 0
M  V30 3531 C 340.906 -1.43586 3.0477 0
M  V30 3532 O 341.436 -2.53299 3.11773 0
M  V30 3533 N 339.642 -1.30126 2.59838 0
M  V30 3534 H 339.189 -0.408583 2.54339 0
M  V30 3535 H 339.147 -2.12294 2.31902 0
M  V30 3536 N 342.919 -1.39368 0.735821 0
M  V30 3537 C 343.852 -2.28155 0.0451175 0
M  V30 3538 C 344.83 -1.44433 -0.746852 0
M  V30 3539 O 346.014 -1.73823 -0.729237 0
M  V30 3540 C 343.141 -3.253 -0.943266 0
M  V30 3541 C 342.187 -4.25826 -0.239685 0
M  V30 3542 S 343.02 -5.25166 1.04693 0
M  V30 3543 C 344.176 -6.2587 0.0611639 0
M  V30 3544 H 344.409 -2.86388 0.79807 0
M  V30 3545 H 341.942 -1.45104 0.527653 0
M  V30 3546 H 343.9 -3.81789 -1.50824 0
M  V30 3547 H 342.561 -2.66085 -1.66906 0
M  V30 3548 H 341.754 -4.94229 -0.987596 0
M  V30 3549 H 341.356 -3.73141 0.253274 0
M  V30 3550 H 343.648 -6.73007 -0.778941 0
M  V30 3551 H 344.591 -7.04508 0.712362 0
M  V30 3552 H 344.999 -5.63639 -0.311602 0
M  V30 3553 N 344.397 -0.483516 -1.5 0
M  V30 3554 C 345.645 0.067027 -2.01989 0
M  V30 3555 C 345.966 1.3909 -1.36671 0
M  V30 3556 O 345.236 1.88978 -0.516152 0
M  V30 3557 H 343.816 0.0277606 -0.746484 0
M  V30 3558 H 346.478 -0.636773 -1.84204 0
M  V30 3559 H 345.574 0.209484 -3.11396 0
M  V30 3560 N 345.875 1.56104 -0.216619 0
M  V30 3561 C 347.123 1.97781 0.415593 0
M  V30 3562 C 347.444 1.10536 1.60645 0
M  V30 3563 O 346.714 0.181303 1.95059 0
M  V30 3564 H 345.294 0.730415 0.156534 0
M  V30 3565 H 347.956 1.92445 -0.308366 0
M  V30 3566 H 347.052 3.03072 0.74525 0
M  V30 3567 N 347.353 -0.0568162 1.57498 0
M  V30 3568 C 348.593 -0.758273 1.89815 0
M  V30 3569 C 348.957 -1.73978 0.812132 0
M  V30 3570 O 350.158 -2.48744 1.01881 0
M  V30 3571 C 348.429 -1.43465 3.27342 0
M  V30 3572 S 349.988 -2.1691 3.81439 0
M  V30 3573 H 346.806 -0.251836 0.664906 0
M  V30 3574 H 349.408 -0.0137997 1.95495 0
M  V30 3575 H 348.112 -0.706693 4.0427 0
M  V30 3576 H 347.643 -2.21825 3.24896 0
M  V30 3577 H 349.658 -3.43658 3.5793 0
M  V30 3578 N 348.832 -1.54138 -0.328536 0
M  V30 3579 C 350.08 -1.71765 -1.06496 0
M  V30 3580 C 350.401 -0.49149 -1.88704 0
M  V30 3581 O 349.671 0.494539 -1.89555 0
M  V30 3582 H 348.251 -0.633295 -0.396164 0
M  V30 3583 H 350.913 -1.91429 -0.366176 0
M  V30 3584 H 350.009 -2.5951 -1.73381 0
M  V30 3585 N 350.31 0.590341 -1.46126 0
M  V30 3586 C 351.556 1.35082 -1.51264 0
M  V30 3587 C 351.889 1.93534 -0.160711 0
M  V30 3588 O 351.164 1.76045 0.826956 0
M  V30 3589 C 351.447 2.48588 -2.6053 0
M  V30 3590 C 351.3 1.95221 -4.05227 0
M  V30 3591 C 352.619 3.50662 -2.6594 0
M  V30 3592 H 349.738 0.489803 -0.550692 0
M  V30 3593 H 352.38 0.663887 -1.78024 0
M  V30 3594 H 350.53 3.07186 -2.37843 0
M  V30 3595 H 352.202 1.41139 -4.39178 0
M  V30 3596 H 350.445 1.26101 -4.15068 0
M  V30 3597 H 351.116 2.77121 -4.77397 0
M  V30 3598 H 353.592 3.01934 -2.86313 0
M  V30 3599 H 352.468 4.27551 -3.44226 0
M  V30 3600 H 352.729 4.07399 -1.71694 0
M  V30 3601 N 351.788 1.33704 0.83433 0
M  V30 3602 C 353.204 1.13137 1.12571 0
M  V30 3603 C 353.404 -0.0747261 2.01361 0
M  V30 3604 O 352.46 -0.753647 2.4099 0
M  V30 3605 C 353.773 2.42105 1.78342 0
M  V30 3606 C 355.321 2.48054 1.90888 0
M  V30 3607 C 355.796 3.76995 2.60075 0
M  V30 3608 N 357.287 3.78092 2.67584 0
M  V30 3609 C 358.022 4.74574 3.21818 0
M  V30 3610 N 357.518 5.81434 3.76705 0
M  V30 3611 N 359.311 4.62044 3.20112 0
M  V30 3612 H 351.462 2.11 0.243489 0
M  V30 3613 H 353.725 0.932532 0.17055 0
M  V30 3614 H 353.431 3.30391 1.20561 0
M  V30 3615 H 353.305 2.54594 2.7832 0
M  V30 3616 H 355.692 1.60215 2.47821 0
M  V30 3617 H 355.773 2.39502 0.898459 0
M  V30 3618 H 355.417 4.65219 2.03799 0
M  V30 3619 H 355.347 3.82825 3.61597 0
M  V30 3620 H 357.838 3.00865 2.28667 0
M  V30 3621 H 358.151 6.51084 4.16305 0
M  V30 3622 H 356.496 5.85163 3.7498 0
M  V30 3623 H 359.687 3.77716 2.76493 0
M  V30 3624 H 359.86 5.37406 3.62076 0
M  V30 3625 N 353.266 -1.05314 1.17247 0
M  V30 3626 C 354.494 -1.81971 0.984593 0
M  V30 3627 C 354.909 -1.82929 -0.467166 0
M  V30 3628 O 354.266 -1.25564 -1.32438 0
M  V30 3629 C 354.317 -3.28143 1.51672 0
M  V30 3630 O 354.038 -3.27347 2.91163 0
M  V30 3631 C 355.539 -4.21493 1.37326 0
M  V30 3632 H 352.759 -0.573455 0.348411 0
M  V30 3633 H 355.303 -1.32808 1.55506 0
M  V30 3634 H 353.458 -3.74582 0.988302 0
M  V30 3635 H 353.872 -4.18824 3.15732 0
M  V30 3636 H 355.346 -5.22043 1.79375 0
M  V30 3637 H 355.823 -4.38031 0.320169 0
M  V30 3638 H 356.429 -3.80909 1.89178 0
M  V30 3639 N 354.744 -0.972509 -1.24016 0
M  V30 3640 C 355.99 -0.647583 -1.92816 0
M  V30 3641 C 356.345 0.809015 -1.74564 0
M  V30 3642 O 355.638 1.57502 -1.09103 0
M  V30 3643 C 355.832 -0.963694 -3.44162 0
M  V30 3644 C 355.661 -2.44947 -3.77135 0
M  V30 3645 C 354.431 -3.11012 -3.98246 0
M  V30 3646 C 356.629 -3.42978 -3.83237 0
M  V30 3647 N 354.611 -4.49277 -4.18358 0
M  V30 3648 C 355.982 -4.66619 -4.08248 0
M  V30 3649 C 358.037 -3.37569 -3.65994 0
M  V30 3650 C 356.74 -5.85516 -4.17808 0
M  V30 3651 C 358.766 -4.55822 -3.76802 0
M  V30 3652 C 358.128 -5.78256 -4.02243 0
M  V30 3653 H 354.227 -0.287894 -0.727077 0
M  V30 3654 H 356.811 -1.24835 -1.49413 0
M  V30 3655 H 354.982 -0.391692 -3.8642 0
M  V30 3656 H 356.714 -0.596849 -4.00275 0
M  V30 3657 H 353.469 -2.61529 -3.94841 0
M  V30 3658 H 353.893 -5.20935 -4.32384 0
M  V30 3659 H 358.535 -2.43945 -3.45327 0
M  V30 3660 H 356.253 -6.79564 -4.37285 0
M  V30 3661 H 359.839 -4.53204 -3.64825 0
M  V30 3662 H 358.719 -6.68231 -4.10411 0
M  V30 3663 N 356.222 1.38976 -0.743202 0
M  V30 3664 C 357.47 1.99948 -0.29417 0
M  V30 3665 C 357.791 1.59279 1.12495 0
M  V30 3666 O 357.061 0.844808 1.76748 0
M  V30 3667 H 355.641 0.739473 -0.105774 0
M  V30 3668 H 358.303 1.699 -0.954986 0
M  V30 3669 H 357.399 3.10142 -0.349056 0
M  V30 3670 N 357.7 0.491464 1.49741 0
M  V30 3671 C 358.925 -0.0557177 2.07325 0
M  V30 3672 C 359.35 -1.30925 1.35056 0
M  V30 3673 O 358.708 -1.76733 0.404365 0
M  V30 3674 C 358.756 -0.302074 3.59333 0
M  V30 3675 O 357.86 -1.37868 3.88672 0
M  V30 3676 H 357.201 0.0219956 0.663636 0
M  V30 3677 H 359.731 0.688352 1.92673 0
M  V30 3678 H 359.741 -0.536464 4.04458 0
M  V30 3679 H 358.416 0.61383 4.11345 0
M  V30 3680 H 356.993 -1.12999 3.55367 0
M  V30 3681 N 359.178 -1.55987 0.224894 0
M  V30 3682 C 360.426 -1.97998 -0.405099 0
M  V30 3683 C 360.747 -1.11387 -1.60056 0
M  V30 3684 O 360.017 -0.191645 -1.9496 0
M  V30 3685 H 358.597 -0.731235 -0.152658 0
M  V30 3686 H 361.259 -1.92279 0.318567 0
M  V30 3687 H 360.355 -3.03463 -0.729167 0
M  V30 3688 N 360.656 0.0484629 -1.57525 0
M  V30 3689 C 361.603 1.05504 -2.05275 0
M  V30 3690 C 362.573 1.37084 -0.937927 0
M  V30 3691 O 363.758 1.47754 -1.2072 0
M  V30 3692 C 360.898 2.35676 -2.52093 0
M  V30 3693 C 360.011 2.10423 -3.77288 0
M  V30 3694 C 359.146 3.34327 -4.12794 0
M  V30 3695 C 358.185 3.04542 -5.30962 0
M  V30 3696 N 357.322 4.20841 -5.61994 0
M  V30 3697 H 362.162 0.640885 -2.91027 0
M  V30 3698 H 359.699 0.304854 -1.43906 0
M  V30 3699 H 361.657 3.11709 -2.77297 0
M  V30 3700 H 360.287 2.7485 -1.69285 0
M  V30 3701 H 359.339 1.24976 -3.59284 0
M  V30 3702 H 360.651 1.84438 -4.63448 0
M  V30 3703 H 359.805 4.1874 -4.39024 0
M  V30 3704 H 358.544 3.63408 -3.25247 0
M  V30 3705 H 357.549 2.18528 -5.04505 0
M  V30 3706 H 358.774 2.76758 -6.20146 0
M  V30 3707 H 356.72 4.4991 -4.77406 0
M  V30 3708 H 356.637 3.98212 -6.42622 0
M  V30 3709 H 357.905 5.06184 -5.92789 0
M  V30 3710 N 362.134 1.5431 0.320358 0
M  V30 3711 C 363.411 1.63322 1.07635 0
M  V30 3712 C 363.791 0.46912 2.05821 0
M  V30 3713 O 363.139 -0.536274 2.22118 0
M  V30 3714 C 363.349 3.00465 1.77544 0
M  V30 3715 C 364.697 3.56621 2.30449 0
M  V30 3716 O 365.721 3.02791 1.87606 0
M  V30 3717 O 364.58 4.5083 3.08892 0
M  V30 3718 H 361.674 0.661502 0.496331 0
M  V30 3719 H 364.22 1.66656 0.319992 0
M  V30 3720 H 362.992 3.76629 1.06143 0
M  V30 3721 H 362.615 3.00824 2.59982 0
M  V30 3722 N 363.613 -0.582584 1.46437 0
M  V30 3723 C 364.841 -1.36682 1.55324 0
M  V30 3724 C 365.256 -1.87796 0.194409 0
M  V30 3725 O 364.613 -1.63623 -0.808318 0
M  V30 3726 C 364.664 -2.55426 2.55812 0
M  V30 3727 O 364.385 -2.0643 3.86417 0
M  V30 3728 C 365.886 -3.47976 2.74641 0
M  V30 3729 H 363.106 -0.417545 0.525259 0
M  V30 3730 H 365.65 -0.708219 1.91845 0
M  V30 3731 H 363.805 -3.17275 2.22295 0
M  V30 3732 H 364.219 -2.83762 4.41111 0
M  V30 3733 H 365.693 -4.27775 3.48874 0
M  V30 3734 H 366.17 -3.99919 1.81553 0
M  V30 3735 H 366.776 -2.91962 3.09255 0
M  V30 3736 N 365.091 -1.34144 -0.827227 0
M  V30 3737 C 366.316 -1.29476 -1.62021 0
M  V30 3738 C 366.741 0.129292 -1.87655 0
M  V30 3739 O 366.099 1.08967 -1.449 0
M  V30 3740 C 366.147 -2.08702 -2.94068 0
M  V30 3741 O 365.251 -1.45359 -3.85933 0
M  V30 3742 H 364.592 -0.444881 -0.492927 0
M  V30 3743 H 367.122 -1.76882 -1.02829 0
M  V30 3744 H 367.132 -2.19898 -3.43669 0
M  V30 3745 H 365.807 -3.12241 -2.74734 0
M  V30 3746 H 364.384 -1.42879 -3.44442 0
M  V30 3747 N 366.569 1.04691 -1.17803 0
M  V30 3748 C 367.846 1.7472 -0.879328 0
M  V30 3749 C 368.226 2.01812 0.619271 0
M  V30 3750 O 367.574 1.65824 1.57209 0
M  V30 3751 C 367.784 3.03686 -1.71976 0
M  V30 3752 C 369.132 3.77542 -1.94286 0
M  V30 3753 O 370.156 3.13569 -1.68976 0
M  V30 3754 O 369.015 4.92506 -2.36855 0
M  V30 3755 H 366.109 0.760011 -0.326056 0
M  V30 3756 H 368.655 1.10813 -1.28525 0
M  V30 3757 H 367.427 2.79754 -2.73594 0
M  V30 3758 H 367.05 3.75332 -1.31194 0
M  V30 3759 N 368.047 0.979072 1.23499 0
M  V30 3760 C 369.293 0.648178 1.92163 0
M  V30 3761 C 369.626 -0.816049 1.76222 0
M  V30 3762 O 368.901 -1.58849 1.12237 0
M  V30 3763 C 369.184 1.03773 3.44824 0
M  V30 3764 C 369.037 2.55948 3.69879 0
M  V30 3765 C 370.356 0.580653 4.36253 0
M  V30 3766 H 367.475 0.236952 0.69787 0
M  V30 3767 H 370.117 1.22012 1.45647 0
M  V30 3768 H 368.267 0.551058 3.84572 0
M  V30 3769 H 369.939 3.12179 3.3962 0
M  V30 3770 H 368.182 2.98641 3.14636 0
M  V30 3771 H 368.853 2.78255 4.76737 0
M  V30 3772 H 371.329 0.998465 4.03943 0
M  V30 3773 H 370.205 0.881663 5.41773 0
M  V30 3774 H 370.466 -0.519052 4.39042 0
M  V30 3775 N 369.525 -1.3858 0.750561 0
M  V30 3776 C 370.435 -2.34278 0.122825 0
M  V30 3777 C 371.451 -1.59116 -0.704131 0
M  V30 3778 O 372.627 -1.91326 -0.628987 0
M  V30 3779 C 369.692 -3.38221 -0.762086 0
M  V30 3780 C 368.753 -4.29227 0.078896 0
M  V30 3781 C 367.986 -5.28205 -0.763874 0
M  V30 3782 O 368.209 -5.34112 -2.00201 0
M  V30 3783 O 367.143 -6.01618 -0.18428 0
M  V30 3784 H 370.969 -2.89649 0.913088 0
M  V30 3785 H 368.554 -1.40374 0.511417 0
M  V30 3786 H 370.436 -4.01872 -1.26793 0
M  V30 3787 H 369.111 -2.85211 -1.5309 0
M  V30 3788 H 368.018 -3.68747 0.630621 0
M  V30 3789 H 369.351 -4.85484 0.810289 0
M  V30 3790 N 371.003 -0.499398 -1.49478 0
M  V30 3791 C 372.414 -0.051215 -1.8663 0
M  V30 3792 C 372.765 1.36238 -1.41186 0
M  V30 3793 O 371.89 2.01502 -0.789051 0
M  V30 3794 C 372.485 -0.0861651 -3.3869 0
M  V30 3795 C 371.044 0.30667 -3.75149 0
M  V30 3796 C 370.191 -0.459397 -2.73468 0
M  V30 3797 H 373.142 -0.712264 -1.41818 0
M  V30 3798 H 373.163 0.709507 -3.73826 0
M  V30 3799 H 372.675 -1.11512 -3.71735 0
M  V30 3800 H 370.776 1.33892 -3.47712 0
M  V30 3801 H 370.889 -0.0116669 -4.79099 0
M  V30 3802 H 369.253 0.0905645 -2.54539 0
M  V30 3803 H 370.036 -1.4884 -3.09357 0
M  V30 3804 N 372.481 1.55866 -0.233164 0
M  V30 3805 C 373.709 2.02998 0.399905 0
M  V30 3806 C 374.124 1.11274 1.52524 0
M  V30 3807 O 373.481 0.124528 1.82075 0
M  V30 3808 C 373.532 3.4958 0.920639 0
M  V30 3809 O 373.253 4.37808 -0.159834 0
M  V30 3810 C 374.754 4.12411 1.62578 0
M  V30 3811 H 371.974 0.664006 0.0966281 0
M  V30 3812 H 374.518 2.0143 -0.353013 0
M  V30 3813 H 372.673 3.51727 1.62379 0
M  V30 3814 H 373.087 5.23981 0.23337 0
M  V30 3815 H 374.561 5.16711 1.94201 0
M  V30 3816 H 375.038 3.5809 2.54299 0
M  V30 3817 H 375.644 4.14148 0.967553 0
M  V30 3818 N 373.959 -0.0401083 1.57549 0
M  V30 3819 C 374.922 -1.02871 2.04817 0
M  V30 3820 C 375.922 -1.29708 0.950388 0
M  V30 3821 O 377.112 -1.24897 1.21435 0
M  V30 3822 C 374.244 -2.36443 2.45576 0
M  V30 3823 H 375.437 -0.620631 2.93408 0
M  V30 3824 H 372.99 -0.286667 1.53649 0
M  V30 3825 H 373.725 -2.82021 1.60108 0
M  V30 3826 H 373.51 -2.18296 3.25713 0
M  V30 3827 H 375 -3.07441 2.82612 0
M  V30 3828 N 375.437 -1.54477 -0.31217 0
M  V30 3829 C 376.848 -1.64344 -0.885891 0
M  V30 3830 C 377.199 -0.54485 -1.88483 0
M  V30 3831 O 376.324 0.320387 -2.14015 0
M  V30 3832 C 376.919 -2.97908 -1.61357 0
M  V30 3833 C 375.478 -3.09933 -2.13585 0
M  V30 3834 C 374.625 -2.59971 -0.964897 0
M  V30 3835 H 377.576 -1.58448 -0.0894528 0
M  V30 3836 H 377.597 -2.88706 -2.47848 0
M  V30 3837 H 377.109 -3.77845 -0.886277 0
M  V30 3838 H 375.21 -2.34694 -2.89395 0
M  V30 3839 H 375.323 -4.15916 -2.37804 0
M  V30 3840 H 373.687 -2.16147 -1.34731 0
M  V30 3841 H 374.47 -3.42376 -0.251742 0
M  V30 3842 N 376.915 0.57481 -1.46744 0
M  V30 3843 C 377.848 1.69827 -1.52427 0
M  V30 3844 C 378.826 1.58151 -0.377744 0
M  V30 3845 O 380.01 1.79257 -0.58303 0
M  V30 3846 C 377.137 3.07943 -1.41027 0
M  V30 3847 C 376.183 3.38116 -2.59961 0
M  V30 3848 S 377.016 3.29313 -4.22272 0
M  V30 3849 C 378.172 4.69953 -4.13394 0
M  V30 3850 H 378.405 1.64748 -2.47478 0
M  V30 3851 H 375.938 0.754203 -1.34726 0
M  V30 3852 H 377.896 3.87619 -1.35137 0
M  V30 3853 H 376.557 3.10504 -0.473909 0
M  V30 3854 H 375.75 4.38762 -2.47999 0
M  V30 3855 H 375.352 2.66024 -2.62882 0
M  V30 3856 H 377.644 5.60517 -3.80562 0
M  V30 3857 H 378.587 4.86972 -5.14066 0
M  V30 3858 H 378.995 4.47174 -3.44522 0
M  V30 3859 N 378.394 1.34581 0.820102 0
M  V30 3860 C 379.304 1.28471 1.96297 0
M  V30 3861 C 380.32 0.191902 1.72939 0
M  V30 3862 O 381.496 0.418879 1.96996 0
M  V30 3863 C 378.561 1.04281 3.30645 0
M  V30 3864 C 377.622 2.22745 3.66992 0
M  V30 3865 C 376.855 1.997 4.9493 0
M  V30 3866 O 377.078 0.956656 5.6232 0
M  V30 3867 O 376.012 2.86723 5.2922 0
M  V30 3868 H 379.838 2.24624 2.04396 0
M  V30 3869 H 377.423 1.14816 0.955913 0
M  V30 3870 H 379.305 0.925841 4.11104 0
M  V30 3871 H 377.98 0.111697 3.23507 0
M  V30 3872 H 376.887 2.40003 2.86966 0
M  V30 3873 H 378.22 3.14257 3.78819 0
M  V30 3874 N 379.872 -1.04064 1.18357 0
M  V30 3875 C 380.782 -2.15569 0.925596 0
M  V30 3876 C 381.798 -1.7365 -0.110295 0
M  V30 3877 O 382.974 -2.01273 0.0716218 0
M  V30 3878 C 380.039 -3.43704 0.454836 0
M  V30 3879 C 379.1 -4.00004 1.55869 0
M  V30 3880 C 378.333 -5.22023 1.1103 0
M  V30 3881 O 378.556 -5.70392 -0.0309756 0
M  V30 3882 O 377.49 -5.70856 1.90805 0
M  V30 3883 H 381.316 -2.40187 1.8586 0
M  V30 3884 H 378.901 -1.1402 0.965394 0
M  V30 3885 H 380.783 -4.20923 0.200382 0
M  V30 3886 H 379.458 -3.20559 -0.449876 0
M  V30 3887 H 378.365 -3.24172 1.86716 0
M  V30 3888 H 379.698 -4.2749 2.43953 0
M  V30 3889 N 381.35 -0.985608 -1.22978 0
M  V30 3890 C 382.761 -0.693593 -1.73338 0
M  V30 3891 C 383.112 0.789935 -1.79595 0
M  V30 3892 O 382.237 1.61771 -1.43733 0
M  V30 3893 C 382.832 -1.25235 -3.14804 0
M  V30 3894 C 381.391 -1.00987 -3.626 0
M  V30 3895 C 380.538 -1.37695 -2.40698 0
M  V30 3896 H 383.489 -1.15884 -1.08428 0
M  V30 3897 H 383.51 -0.627329 -3.75293 0
M  V30 3898 H 383.022 -2.33209 -3.10218 0
M  V30 3899 H 381.123 0.0535565 -3.72562 0
M  V30 3900 H 381.236 -1.66812 -4.49122 0
M  V30 3901 H 379.6 -0.795459 -2.4196 0
M  V30 3902 H 380.383 -2.46657 -2.38779 0
M  V30 3903 N 382.828 1.3818 -0.7579 0
M  V30 3904 C 384.056 2.04301 -0.326937 0
M  V30 3905 C 384.471 1.57163 1.0462 0
M  V30 3906 O 383.828 0.746626 1.66529 0
M  V30 3907 C 383.879 3.59846 -0.345363 0
M  V30 3908 O 383.6 4.05256 -1.66432 0
M  V30 3909 C 385.101 4.4319 0.098927 0
M  V30 3910 H 382.321 0.656443 -0.139012 0
M  V30 3911 H 384.865 1.76786 -1.02796 0
M  V30 3912 H 383.02 3.86182 0.306955 0
M  V30 3913 H 383.434 4.99709 -1.59345 0
M  V30 3914 H 384.908 5.51989 0.0348745 0
M  V30 3915 H 385.385 4.23947 1.14741 0
M  V30 3916 H 385.991 4.22051 -0.52468 0
M  V30 3917 N 384.306 0.507319 1.49211 0
M  V30 3918 C 385.552 -0.0350047 2.0277 0
M  V30 3919 C 385.885 -1.3606 1.38569 0
M  V30 3920 O 385.16 -1.87321 0.523542 0
M  V30 3921 C 385.443 -0.180916 3.59645 0
M  V30 3922 C 385.296 1.16825 4.34364 0
M  V30 3923 C 386.615 -0.918558 4.30407 0
M  V30 3924 H 383.734 -0.0112473 0.736914 0
M  V30 3925 H 386.376 0.659956 1.7817 0
M  V30 3926 H 384.526 -0.772826 3.80736 0
M  V30 3927 H 386.198 1.79952 4.24753 0
M  V30 3928 H 384.441 1.75594 3.96673 0
M  V30 3929 H 385.112 1.01939 5.42506 0
M  V30 3930 H 387.588 -0.41649 4.1401 0
M  V30 3931 H 386.464 -0.989505 5.39907 0
M  V30 3932 H 386.725 -1.96373 3.96093 0
M  V30 3933 N 385.784 -1.5574 0.241426 0
M  V30 3934 C 387.03 -1.99104 -0.385406 0
M  V30 3935 C 387.363 -1.1293 -1.57988 0
M  V30 3936 O 386.638 -0.191449 -1.93555 0
M  V30 3937 C 386.921 -3.51087 -0.800616 0
M  V30 3938 C 386.774 -4.48028 0.398874 0
M  V30 3939 C 388.093 -4.08015 -1.64959 0
M  V30 3940 H 385.212 -0.723848 -0.138614 0
M  V30 3941 H 387.854 -1.86903 0.341642 0
M  V30 3942 H 386.004 -3.61615 -1.4201 0
M  V30 3943 H 387.676 -4.49487 1.03726 0
M  V30 3944 H 385.919 -4.21077 1.04293 0
M  V30 3945 H 386.59 -5.51962 0.0651056 0
M  V30 3946 H 389.066 -4.00555 -1.12672 0
M  V30 3947 H 387.942 -5.14635 -1.90898 0
M  V30 3948 H 388.203 -3.56131 -2.61961 0
M  V30 3949 N 387.262 0.0317525 -1.57568 0
M  V30 3950 C 388.172 1.05021 -2.0978 0
M  V30 3951 C 389.188 1.39809 -1.03583 0
M  V30 3952 O 390.364 1.49182 -1.35302 0
M  V30 3953 C 387.429 2.33301 -2.56459 0
M  V30 3954 C 386.49 2.0512 -3.77127 0
M  V30 3955 C 385.723 3.27283 -4.2157 0
M  V30 3956 O 385.946 4.37861 -3.65559 0
M  V30 3957 O 384.88 3.13141 -5.14029 0
M  V30 3958 H 388.706 0.636505 -2.96955 0
M  V30 3959 H 386.291 0.248559 -1.47318 0
M  V30 3960 H 388.173 3.08722 -2.86825 0
M  V30 3961 H 386.848 2.73973 -1.72397 0
M  V30 3962 H 385.755 1.27276 -3.51784 0
M  V30 3963 H 387.088 1.69305 -4.62165 0
M  V30 3964 N 388.74 1.54641 0.303973 0
M  V30 3965 C 389.65 1.88439 1.39743 0
M  V30 3966 C 390.666 0.778239 1.55626 0
M  V30 3967 O 391.842 1.07442 1.70347 0
M  V30 3968 C 388.907 2.12212 2.74166 0
M  V30 3969 C 387.968 3.35936 2.67293 0
M  V30 3970 C 387.201 3.58566 3.95305 0
M  V30 3971 O 387.424 2.84263 4.9452 0
M  V30 3972 O 386.358 4.52078 3.97378 0
M  V30 3973 H 390.184 2.81458 1.14083 0
M  V30 3974 H 387.769 1.40793 0.499768 0
M  V30 3975 H 389.651 2.29067 3.53704 0
M  V30 3976 H 388.326 1.22379 2.99675 0
M  V30 3977 H 387.233 3.24448 1.86237 0
M  V30 3978 H 388.566 4.2589 2.46736 0
M  V30 3979 N 390.218 -0.567019 1.47046 0
M  V30 3980 C 391.443 -1.3551 1.57009 0
M  V30 3981 C 391.868 -1.86841 0.217259 0
M  V30 3982 O 391.226 -1.62435 -0.805268 0
M  V30 3983 C 391.274 -2.50777 2.5912 0
M  V30 3984 O 390.378 -3.52706 2.13711 0
M  V30 3985 H 389.719 -0.402919 0.52778 0
M  V30 3986 H 392.249 -0.686241 1.92748 0
M  V30 3987 H 392.259 -2.97481 2.79229 0
M  V30 3988 H 390.934 -2.12771 3.57353 0
M  V30 3989 H 389.511 -3.12374 2.03659 0
M  V30 3990 N 391.696 -1.35014 -0.812953 0
M  V30 3991 C 392.628 -1.23262 -1.93233 0
M  V30 3992 C 393.641 -0.157371 -1.62038 0
M  V30 3993 O 394.83 -0.410096 -1.73725 0
M  V30 3994 C 391.93 -0.87392 -3.27438 0
M  V30 3995 C 391.103 -2.04622 -3.86586 0
M  V30 3996 C 390.162 -1.66432 -4.99186 0
M  V30 3997 O 389.188 -2.38222 -5.16951 0
M  V30 3998 N 390.39 -0.584248 -5.77552 0
M  V30 3999 H 393.155 -2.19699 -2.03844 0
M  V30 4000 H 390.716 -1.281 -0.99005 0
M  V30 4001 H 392.708 -0.600039 -4.00227 0
M  V30 4002 H 391.278 0.00057392 -3.126 0
M  V30 4003 H 390.498 -2.48427 -3.06068 0
M  V30 4004 H 391.786 -2.82999 -4.22835 0
M  V30 4005 H 391.184 0.0123526 -5.65699 0
M  V30 4006 H 389.741 -0.37013 -6.50748 0
M  V30 4007 N 393.175 1.03435 -1.18907 0
M  V30 4008 C 394.423 1.76394 -0.986382 0
M  V30 4009 C 394.744 1.88883 0.484567 0
M  V30 4010 O 394.014 1.41843 1.3512 0
M  V30 4011 H 392.594 0.65344 -0.361975 0
M  V30 4012 H 395.256 1.248 -1.49703 0
M  V30 4013 H 394.352 2.77424 -1.42978 0
M  V30 4014 N 394.653 0.992116 1.22453 0
M  V30 4015 C 395.881 0.685944 1.95198 0
M  V30 4016 C 396.296 -0.749233 1.73297 0
M  V30 4017 O 395.653 -1.50549 1.03156 0
M  V30 4018 C 395.704 0.981395 3.47924 0
M  V30 4019 O 395.425 2.36018 3.6909 0
M  V30 4020 C 396.926 0.692815 4.37853 0
M  V30 4021 H 394.146 0.253821 0.621141 0
M  V30 4022 H 396.69 1.32668 1.55626 0
M  V30 4023 H 394.845 0.386481 3.85467 0
M  V30 4024 H 395.259 2.45884 4.63294 0
M  V30 4025 H 396.733 0.949818 5.43767 0
M  V30 4026 H 397.21 -0.373181 4.37612 0
M  V30 4027 H 397.816 1.26874 4.05935 0
M  V30 4028 N 396.131 -1.37776 0.765217 0
M  V30 4029 C 397.542 -1.82521 0.392819 0
M  V30 4030 C 397.893 -1.63789 -1.08017 0
M  V30 4031 O 397.018 -1.14542 -1.83601 0
M  V30 4032 C 397.613 -3.31358 0.706214 0
M  V30 4033 C 396.172 -3.74406 0.386952 0
M  V30 4034 C 395.319 -2.60394 0.953422 0
M  V30 4035 H 398.27 -1.2634 0.960412 0
M  V30 4036 H 398.291 -3.80498 -0.0114706 0
M  V30 4037 H 397.803 -3.44959 1.77833 0
M  V30 4038 H 395.904 -3.66377 -0.678112 0
M  V30 4039 H 396.017 -4.70749 0.890636 0
M  V30 4040 H 394.381 -2.51878 0.378064 0
M  V30 4041 H 395.164 -2.76791 2.03081 0
M  V30 4042 N 397.609 -0.515225 -1.4894 0
M  V30 4043 C 398.519 0.259774 -2.33157 0
M  V30 4044 C 399.535 0.953501 -1.45548 0
M  V30 4045 O 400.711 0.931735 -1.78552 0
M  V30 4046 C 397.776 1.30193 -3.21326 0
M  V30 4047 C 396.837 0.620129 -4.24797 0
M  V30 4048 C 396.07 1.61263 -5.08753 0
M  V30 4049 O 396.293 2.84389 -4.94448 0
M  V30 4050 O 395.227 1.16013 -5.90614 0
M  V30 4051 H 399.053 -0.429932 -3.00641 0
M  V30 4052 H 396.638 -0.276346 -1.46822 0
M  V30 4053 H 398.52 1.90455 -3.75905 0
M  V30 4054 H 397.195 1.97431 -2.56521 0
M  V30 4055 H 396.102 -0.0226019 -3.74093 0
M  V30 4056 H 397.435 -0.0100493 -4.92199 0
M  V30 4057 N 399.087 1.5561 -0.249682 0
M  V30 4058 C 399.997 2.25143 0.659375 0
M  V30 4059 C 401.013 1.2685 1.19101 0
M  V30 4060 O 402.189 1.59732 1.22669 0
M  V30 4061 C 399.254 2.93945 1.8384 0
M  V30 4062 C 398.315 4.07655 1.34596 0
M  V30 4063 C 397.548 4.73167 2.46878 0
M  V30 4064 O 397.771 4.37768 3.65671 0
M  V30 4065 O 396.705 5.61623 2.16478 0
M  V30 4066 H 400.531 3.03545 0.0968698 0
M  V30 4067 H 398.116 1.49389 -0.018074 0
M  V30 4068 H 399.998 3.37271 2.52638 0
M  V30 4069 H 398.673 2.18481 2.38847 0
M  V30 4070 H 397.58 3.68839 0.625174 0
M  V30 4071 H 398.913 4.84946 0.841941 0
M  V30 4072 N 400.565 -0.0233959 1.57583 0
M  V30 4073 C 401.475 -1.03907 2.10334 0
M  V30 4074 C 402.491 -1.39257 1.04323 0
M  V30 4075 O 403.667 -1.48462 1.36091 0
M  V30 4076 C 400.732 -2.31938 2.57693 0
M  V30 4077 C 399.793 -2.03117 3.78209 0
M  V30 4078 C 399.026 -3.25043 4.233 0
M  V30 4079 O 399.249 -4.35916 3.67876 0
M  V30 4080 O 398.183 -3.10411 5.15683 0
M  V30 4081 H 402.009 -0.620748 2.97288 0
M  V30 4082 H 399.594 -0.240743 1.47448 0
M  V30 4083 H 401.476 -3.07196 2.88458 0
M  V30 4084 H 400.151 -2.73055 1.73847 0
M  V30 4085 H 399.058 -1.25408 3.52454 0
M  V30 4086 H 400.391 -1.66852 4.63056 0
M  V30 4087 N 402.043 -1.548 -0.295768 0
M  V30 4088 C 403.268 -1.78653 -1.05346 0
M  V30 4089 C 403.693 -0.546894 -1.79974 0
M  V30 4090 O 403.051 0.502763 -1.7419 0
M  V30 4091 C 403.099 -2.99679 -2.00561 0
M  V30 4092 O 402.203 -2.7317 -3.08953 0
M  V30 4093 H 401.544 -0.59116 -0.302367 0
M  V30 4094 H 404.074 -2.01895 -0.331598 0
M  V30 4095 H 404.084 -3.27793 -2.42932 0
M  V30 4096 H 402.759 -3.89562 -1.4565 0
M  V30 4097 H 401.336 -2.56089 -2.71059 0
M  V30 4098 N 403.521 0.559213 -1.47345 0
M  V30 4099 C 404.932 1.14134 -1.47751 0
M  V30 4100 C 405.283 1.94834 -0.231103 0
M  V30 4101 O 404.408 2.05957 0.664137 0
M  V30 4102 C 405.003 2.07653 -2.67705 0
M  V30 4103 C 403.562 2.61141 -2.71076 0
M  V30 4104 C 402.709 1.3748 -2.40821 0
M  V30 4105 H 405.66 0.345917 -1.54884 0
M  V30 4106 H 405.681 2.91497 -2.44561 0
M  V30 4107 H 405.193 1.4889 -3.58404 0
M  V30 4108 H 403.294 3.23707 -1.84511 0
M  V30 4109 H 403.407 3.02272 -3.7171 0
M  V30 4110 H 401.771 1.68086 -1.91362 0
M  V30 4111 H 402.554 0.805135 -3.33725 0
M  V30 4112 N 404.999 1.35443 0.805782 0
M  V30 4113 C 405.962 1.28301 1.89925 0
M  V30 4114 C 406.962 0.194285 1.59622 0
M  V30 4115 O 408.152 0.448036 1.6834 0
M  V30 4116 C 405.284 0.984997 3.2636 0
M  V30 4117 H 406.477 2.2553 1.97677 0
M  V30 4118 H 404.03 1.19979 1.00173 0
M  V30 4119 H 404.765 0.016603 3.24296 0
M  V30 4120 H 404.55 1.77269 3.4974 0
M  V30 4121 H 406.04 0.960651 4.064 0
M  V30 4122 N 406.477 -1.02803 1.19454 0
M  V30 4123 C 407.424 -2.11099 0.933046 0
M  V30 4124 C 408.394 -1.65571 -0.132447 0
M  V30 4125 O 409.579 -1.90797 0.00987576 0
M  V30 4126 C 406.719 -3.41763 0.478747 0
M  V30 4127 C 405.832 -4.00833 1.6111 0
M  V30 4128 C 404.967 -5.19511 1.10825 0
M  V30 4129 C 404.006 -5.70639 2.21445 0
M  V30 4130 N 403.143 -6.80589 1.72461 0
M  V30 4131 H 407.983 -2.32804 1.86028 0
M  V30 4132 H 405.52 -1.14179 0.927441 0
M  V30 4133 H 407.478 -4.16736 0.196745 0
M  V30 4134 H 406.108 -3.20166 -0.411493 0
M  V30 4135 H 405.16 -3.23066 2.00829 0
M  V30 4136 H 406.472 -4.34794 2.4445 0
M  V30 4137 H 405.626 -6.01645 0.781533 0
M  V30 4138 H 404.365 -4.87086 0.244606 0
M  V30 4139 H 403.37 -4.87116 2.54947 0
M  V30 4140 H 404.595 -6.05102 3.08267 0
M  V30 4141 H 402.541 -6.50016 0.884056 0
M  V30 4142 H 402.458 -7.13681 2.49389 0
M  V30 4143 H 403.726 -7.66317 1.42755 0
M  V30 4144 N 407.956 -0.998596 -1.21925 0
M  V30 4145 C 409.202 -0.678667 -1.91107 0
M  V30 4146 C 409.535 0.78791 -1.77498 0
M  V30 4147 O 408.81 1.57043 -1.1475 0
M  V30 4148 C 409.093 -1.09245 -3.43129 0
M  V30 4149 C 408.946 -2.61801 -3.6576 0
M  V30 4150 C 410.265 -0.649984 -4.35274 0
M  V30 4151 H 407.384 -0.248025 -0.694012 0
M  V30 4152 H 410.026 -1.24314 -1.43688 0
M  V30 4153 H 408.176 -0.612171 -3.83647 0
M  V30 4154 H 409.848 -3.17543 -3.34611 0
M  V30 4155 H 408.091 -3.03609 -3.09845 0
M  V30 4156 H 408.762 -2.85804 -4.7225 0
M  V30 4157 H 411.238 -1.0626 -4.02303 0
M  V30 4158 H 410.114 -0.967743 -5.40302 0
M  V30 4159 H 410.375 0.449139 -4.39813 0
M  V30 4160 N 409.434 1.37368 -0.772513 0
M  V30 4161 C 410.845 1.8231 -0.402493 0
M  V30 4162 C 411.196 1.6436 1.07146 0
M  V30 4163 O 410.321 1.15514 1.82991 0
M  V30 4164 C 410.916 3.30979 -0.723776 0
M  V30 4165 C 409.475 3.74195 -0.406802 0
M  V30 4166 C 408.622 2.59885 -0.967218 0
M  V30 4167 H 411.573 1.25829 -0.967099 0
M  V30 4168 H 411.594 3.80499 -0.00870832 0
M  V30 4169 H 411.106 3.44011 -1.7966 0
M  V30 4170 H 409.207 3.66732 0.658673 0
M  V30 4171 H 409.32 4.7027 -0.915588 0
M  V30 4172 H 407.684 2.51674 -0.391416 0
M  V30 4173 H 408.467 2.7571 -2.04546 0
M  V30 4174 N 410.912 0.523116 1.48665 0
M  V30 4175 C 411.822 -0.247406 2.33292 0
M  V30 4176 C 412.838 -0.945769 1.46052 0
M  V30 4177 O 414.014 -0.922253 1.79043 0
M  V30 4178 C 411.079 -1.28487 3.22012 0
M  V30 4179 C 410.14 -0.597592 4.2512 0
M  V30 4180 C 409.373 -1.58563 5.09601 0
M  V30 4181 O 409.596 -2.81763 4.95949 0
M  V30 4182 O 408.53 -1.12879 5.91221 0
M  V30 4183 H 412.356 0.445869 3.00409 0
M  V30 4184 H 409.941 0.284128 1.46673 0
M  V30 4185 H 411.823 -1.88459 3.7691 0
M  V30 4186 H 410.498 -1.96068 2.57564 0
M  V30 4187 H 409.405 0.0424407 3.74076 0
M  V30 4188 H 410.738 0.0361517 4.92187 0
M  V30 4189 N 412.39 -1.55475 0.257931 0
M  V30 4190 C 413.32 -2.24815 -0.630912 0
M  V30 4191 C 414.301 -1.23224 -1.17259 0
M  V30 4192 O 415.486 -1.51904 -1.20991 0
M  V30 4193 C 412.616 -2.95609 -1.82298 0
M  V30 4194 C 411.57 -4.03982 -1.41359 0
M  V30 4195 C 410.896 -4.6226 -2.68738 0
M  V30 4196 C 412.196 -5.19109 -0.57648 0
M  V30 4197 H 413.89 -2.99354 -0.0526878 0
M  V30 4198 H 411.436 -1.4398 -0.023901 0
M  V30 4199 H 413.389 -3.42822 -2.45054 0
M  V30 4200 H 412.113 -2.18577 -2.42676 0
M  V30 4201 H 410.772 -3.57555 -0.809324 0
M  V30 4202 H 410.42 -3.81915 -3.27338 0
M  V30 4203 H 410.12 -5.35424 -2.42065 0
M  V30 4204 H 411.644 -5.12212 -3.32372 0
M  V30 4205 H 413.058 -5.62479 -1.10861 0
M  V30 4206 H 411.455 -5.98729 -0.405351 0
M  V30 4207 H 412.525 -4.83174 0.408776 0
M  V30 4208 N 413.868 0.0150385 -1.57593 0
M  V30 4209 C 414.778 1.02791 -2.10882 0
M  V30 4210 C 415.794 1.38702 -1.0506 0
M  V30 4211 O 416.97 1.47739 -1.36877 0
M  V30 4212 C 414.035 2.30568 -2.58919 0
M  V30 4213 C 413.096 2.01108 -3.79281 0
M  V30 4214 C 412.329 3.22794 -4.25018 0
M  V30 4215 O 412.552 4.33959 -3.70183 0
M  V30 4216 O 411.486 3.07672 -5.17322 0
M  V30 4217 H 415.312 0.604973 -2.97613 0
M  V30 4218 H 412.897 0.23292 -1.47573 0
M  V30 4219 H 414.779 3.05662 -2.90084 0
M  V30 4220 H 413.454 2.72129 -1.75293 0
M  V30 4221 H 412.361 1.23537 -3.53114 0
M  V30 4222 H 413.694 1.64394 -4.63935 0
M  V30 4223 N 415.346 1.54954 0.287554 0
M  V30 4224 C 416.592 1.75132 1.02257 0
M  V30 4225 C 416.925 0.542858 1.86458 0
M  V30 4226 O 416.2 -0.459856 1.88986 0
M  V30 4227 C 416.483 3.04812 1.91733 0
M  V30 4228 C 416.336 4.35985 1.10622 0
M  V30 4229 C 417.655 3.30438 2.90687 0
M  V30 4230 H 414.774 0.637194 0.370341 0
M  V30 4231 H 417.416 1.87678 0.296111 0
M  V30 4232 H 415.566 2.94247 2.53675 0
M  V30 4233 H 417.238 4.58487 0.508636 0
M  V30 4234 H 415.481 4.31865 0.409271 0
M  V30 4235 H 416.152 5.23017 1.76513 0
M  V30 4236 H 418.628 3.40701 2.38877 0
M  V30 4237 H 417.504 4.22467 3.50447 0
M  V30 4238 H 417.765 2.49377 3.65053 0
M  V30 4239 N 416.824 -0.551391 1.4764 0
M  V30 4240 C 417.734 -1.68525 1.63207 0
M  V30 4241 C 418.75 -1.6621 0.514815 0
M  V30 4242 O 419.926 -1.85551 0.783113 0
M  V30 4243 C 416.991 -3.05025 1.64805 0
M  V30 4244 C 416.052 -3.18362 2.88 0
M  V30 4245 C 415.285 -4.4835 2.89513 0
M  V30 4246 O 415.508 -5.34163 2.00065 0
M  V30 4247 O 414.442 -4.65602 3.81443 0
M  V30 4248 H 418.268 -1.58333 2.59161 0
M  V30 4249 H 415.853 -0.722063 1.30792 0
M  V30 4250 H 417.735 -3.86245 1.68502 0
M  V30 4251 H 416.41 -3.15587 0.720197 0
M  V30 4252 H 415.317 -2.36518 2.89845 0
M  V30 4253 H 416.65 -3.12707 3.80099 0
M  V30 4254 N 418.302 -1.35869 -0.798587 0
M  V30 4255 C 419.212 -1.31578 -1.94228 0
M  V30 4256 C 420.228 -0.21939 -1.72611 0
M  V30 4257 O 421.404 -0.450167 -1.96305 0
M  V30 4258 C 418.469 -1.09528 -3.28944 0
M  V30 4259 C 417.53 -2.28556 -3.63402 0
M  V30 4260 C 416.763 -2.07549 -4.9169 0
M  V30 4261 O 416.986 -1.046 -5.60727 0
M  V30 4262 O 415.92 -2.95106 -5.24591 0
M  V30 4263 H 419.746 -2.27847 -2.00796 0
M  V30 4264 H 417.331 -1.16322 -0.937526 0
M  V30 4265 H 419.213 -0.991127 -4.09579 0
M  V30 4266 H 417.888 -0.16315 -3.23289 0
M  V30 4267 H 416.795 -2.44538 -2.83112 0
M  V30 4268 H 418.128 -3.20244 -3.73771 0
M  V30 4269 N 419.78 1.02168 -1.19998 0
M  V30 4270 C 420.69 2.14069 -0.959774 0
M  V30 4271 C 421.706 1.73804 0.082655 0
M  V30 4272 O 422.882 2.01133 -0.103633 0
M  V30 4273 C 419.947 3.42936 -0.509459 0
M  V30 4274 C 419.008 3.97474 -1.62213 0
M  V30 4275 C 418.241 5.2019 -1.19321 0
M  V30 4276 O 418.464 5.70369 -0.0597726 0
M  V30 4277 O 417.398 5.67749 -1.99863 0
M  V30 4278 H 421.224 2.37199 -1.89658 0
M  V30 4279 H 418.809 1.12469 -0.983411 0
M  V30 4280 H 420.691 4.20551 -0.267322 0
M  V30 4281 H 419.366 3.21234 0.398821 0
M  V30 4282 H 418.273 3.21161 -1.9185 0
M  V30 4283 H 419.606 4.23555 -2.50723 0
M  V30 4284 N 421.258 1.00505 1.21394 0
M  V30 4285 C 422.486 0.706609 1.9446 0
M  V30 4286 C 422.901 -0.73081 1.74082 0
M  V30 4287 O 422.258 -1.49446 1.04747 0
M  V30 4288 C 422.309 1.01824 3.46863 0
M  V30 4289 O 422.03 2.39919 3.66566 0
M  V30 4290 C 423.531 0.739216 4.37093 0
M  V30 4291 H 420.751 0.260394 0.618414 0
M  V30 4292 H 423.295 1.34311 1.54211 0
M  V30 4293 H 421.45 0.427343 3.85036 0
M  V30 4294 H 421.864 2.50784 4.6066 0
M  V30 4295 H 423.338 1.00744 5.42729 0
M  V30 4296 H 423.815 -0.326746 4.37983 0
M  V30 4297 H 424.421 1.31173 4.04566 0
M  V30 4298 N 422.737 -1.36956 0.779787 0
M  V30 4299 C 423.669 -2.28833 0.129639 0
M  V30 4300 C 424.682 -1.4902 -0.655511 0
M  V30 4301 O 425.871 -1.71578 -0.492279 0
M  V30 4302 C 422.971 -3.2833 -0.839792 0
M  V30 4303 C 422.144 -4.3727 -0.10675 0
M  V30 4304 C 421.203 -5.16789 -0.990717 0
M  V30 4305 O 420.229 -5.67406 -0.451516 0
M  V30 4306 N 421.431 -5.32294 -2.3161 0
M  V30 4307 H 424.196 -2.85268 0.918803 0
M  V30 4308 H 421.757 -1.49019 0.632841 0
M  V30 4309 H 423.749 -3.78413 -1.43477 0
M  V30 4310 H 422.319 -2.72605 -1.52988 0
M  V30 4311 H 421.539 -3.88478 0.669216 0
M  V30 4312 H 422.827 -5.07229 0.399464 0
M  V30 4313 H 422.225 -4.92768 -2.77843 0
M  V30 4314 H 420.782 -5.85656 -2.86095 0
M  V30 4315 N 424.215 -0.530993 -1.48385 0
M  V30 4316 C 425.461 0.00274135 -2.028 0
M  V30 4317 C 425.794 1.33838 -1.40716 0
M  V30 4318 O 425.069 1.86465 -0.553277 0
M  V30 4319 C 425.352 0.123676 -3.59888 0
M  V30 4320 C 425.205 -1.2372 -4.3245 0
M  V30 4321 C 426.524 0.849967 -4.31814 0
M  V30 4322 H 423.643 -0.000477758 -0.737 0
M  V30 4323 H 426.285 -0.688217 -1.77098 0
M  V30 4324 H 424.435 0.712157 -3.81917 0
M  V30 4325 H 426.107 -1.86687 -4.21836 0
M  V30 4326 H 424.35 -1.81882 -3.93829 0
M  V30 4327 H 425.021 -1.10557 -5.40815 0
M  V30 4328 H 427.497 0.350572 -4.14621 0
M  V30 4329 H 426.373 0.903486 -5.41413 0
M  V30 4330 H 426.634 1.90047 -3.99167 0
M  V30 4331 N 425.693 1.55336 -0.266172 0
M  V30 4332 C 426.625 2.19544 0.658247 0
M  V30 4333 C 427.638 1.17746 1.12427 0
M  V30 4334 O 428.827 1.44517 1.04772 0
M  V30 4335 C 425.927 2.80032 1.9088 0
M  V30 4336 C 425.1 4.07436 1.59106 0
M  V30 4337 C 424.159 4.52056 2.69317 0
M  V30 4338 O 423.185 5.18023 2.35883 0
M  V30 4339 N 424.387 4.21448 3.99201 0
M  V30 4340 H 427.152 2.99503 0.108754 0
M  V30 4341 H 424.713 1.61667 -0.0869059 0
M  V30 4342 H 426.705 3.06831 2.63888 0
M  V30 4343 H 425.275 2.04119 2.36758 0
M  V30 4344 H 424.495 3.88021 0.695243 0
M  V30 4345 H 425.783 4.90462 1.35367 0
M  V30 4346 H 425.181 3.68528 4.29189 0
M  V30 4347 H 423.738 4.53039 4.68614 0
M  V30 4348 N 427.171 -0.0066808 1.57599 0
M  V30 4349 C 428.081 -1.01671 2.11424 0
M  V30 4350 C 429.097 -1.38143 1.05795 0
M  V30 4351 O 430.273 -1.47011 1.37658 0
M  V30 4352 C 427.338 -2.29192 2.60139 0
M  V30 4353 C 426.399 -1.99094 3.80342 0
M  V30 4354 C 425.632 -3.20535 4.26724 0
M  V30 4355 O 425.855 -4.3199 3.72479 0
M  V30 4356 O 424.789 -3.04924 5.18946 0
M  V30 4357 H 428.615 -0.589181 2.9793 0
M  V30 4358 H 426.2 -0.225091 1.47695 0
M  V30 4359 H 428.082 -3.0412 2.917 0
M  V30 4360 H 426.757 -2.71195 1.76733 0
M  V30 4361 H 425.664 -1.21663 3.53764 0
M  V30 4362 H 426.997 -1.61931 4.648 0
M  V30 4363 N 428.649 -1.55105 -0.279332 0
M  V30 4364 C 429.582 -1.82467 -1.37044 0
M  V30 4365 C 430.56 -0.677261 -1.47824 0
M  V30 4366 O 431.744 -0.919578 -1.64548 0
M  V30 4367 C 428.871 -1.98066 -2.7475 0
M  V30 4368 C 427.917 -3.20594 -2.81286 0
M  V30 4369 S 428.75 -4.78116 -2.41175 0
M  V30 4370 C 429.906 -4.9668 -3.80867 0
M  V30 4371 H 430.139 -2.74728 -1.1363 0
M  V30 4372 H 427.672 -1.46794 -0.478625 0
M  V30 4373 H 429.63 -2.07739 -3.54055 0
M  V30 4374 H 428.291 -1.06704 -2.9542 0
M  V30 4375 H 427.484 -3.28376 -3.82341 0
M  V30 4376 H 427.086 -3.09479 -2.09996 0
M  V30 4377 H 429.378 -4.82033 -4.76078 0
M  V30 4378 H 430.321 -5.98741 -3.78041 0
M  V30 4379 H 430.729 -4.24698 -3.71876 0
M  V30 4380 N 430.127 0.543554 -1.4793 0
M  V30 4381 C 431.355 1.32516 -1.58894 0
M  V30 4382 C 431.77 1.87215 -0.244131 0
M  V30 4383 O 431.127 1.65709 0.764652 0
M  V30 4384 C 431.178 2.48554 -2.62494 0
M  V30 4385 O 430.899 1.96112 -3.91755 0
M  V30 4386 C 432.4 3.40572 -2.8377 0
M  V30 4387 H 429.62 0.403472 -0.536145 0
M  V30 4388 H 432.164 0.657106 -1.93655 0
M  V30 4389 H 430.319 3.1127 -2.30629 0
M  V30 4390 H 430.733 2.71967 -4.4848 0
M  V30 4391 H 432.207 4.18375 -3.60093 0
M  V30 4392 H 432.684 3.94965 -1.92092 0
M  V30 4393 H 433.29 2.8366 -3.16887 0
M  V30 4394 N 431.605 1.3629 0.791371 0
M  V30 4395 C 432.535 1.33137 1.91825 0
M  V30 4396 C 433.516 0.203168 1.68882 0
M  V30 4397 O 434.701 0.400509 1.90025 0
M  V30 4398 C 431.831 1.11793 3.28816 0
M  V30 4399 C 430.785 2.21417 3.66277 0
M  V30 4400 C 430.111 1.85218 5.01596 0
M  V30 4401 C 431.411 3.63489 3.75064 0
M  V30 4402 H 433.105 2.2743 1.9472 0
M  V30 4403 H 430.651 1.09479 0.935437 0
M  V30 4404 H 432.604 1.08222 4.07266 0
M  V30 4405 H 431.328 0.139501 3.26302 0
M  V30 4406 H 429.987 2.2411 2.90121 0
M  V30 4407 H 429.635 0.859544 4.95602 0
M  V30 4408 H 429.335 2.58611 5.27631 0
M  V30 4409 H 430.859 1.832 5.82469 0
M  V30 4410 H 432.273 3.63034 4.43711 0
M  V30 4411 H 430.67 4.35771 4.12582 0
M  V30 4412 H 431.74 3.98536 2.76219 0
M  V30 4413 N 433.083 -1.0153 1.20538 0
M  V30 4414 C 434.36 -1.72327 0.925343 0
M  V30 4415 C 434.74 -2.03383 -0.565547 0
M  V30 4416 O 434.088 -1.69934 -1.52757 0
M  V30 4417 C 434.298 -2.9902 1.79967 0
M  V30 4418 C 435.646 -3.72258 2.04228 0
M  V30 4419 O 436.67 -3.08979 1.77231 0
M  V30 4420 O 435.529 -4.86053 2.4983 0
M  V30 4421 H 432.623 -0.751099 0.346092 0
M  V30 4422 H 435.169 -1.07366 1.31417 0
M  V30 4423 H 433.941 -2.72402 2.80915 0
M  V30 4424 H 433.564 -3.71721 1.41099 0
M  V30 4425 N 434.561 -1.01147 -1.20859 0
M  V30 4426 C 435.471 -0.58686 -2.27141 0
M  V30 4427 C 436.487 0.373198 -1.69951 0
M  V30 4428 O 437.663 0.235423 -2.00019 0
M  V30 4429 C 434.728 0.0733602 -3.46622 0
M  V30 4430 C 433.789 -0.931995 -4.19061 0
M  V30 4431 C 433.022 -0.303186 -5.32838 0
M  V30 4432 O 433.245 0.898395 -5.63281 0
M  V30 4433 O 432.179 -1.01735 -5.9324 0
M  V30 4434 H 436.005 -1.47155 -2.65667 0
M  V30 4435 H 433.59 -0.780689 -1.2738 0
M  V30 4436 H 435.472 0.442333 -4.19072 0
M  V30 4437 H 434.147 0.932329 -3.09983 0
M  V30 4438 H 433.054 -1.35224 -3.48805 0
M  V30 4439 H 434.387 -1.76076 -4.59628 0
M  V30 4440 N 436.039 1.36541 -0.78704 0
M  V30 4441 C 437.285 2.00044 -0.367938 0
M  V30 4442 C 437.64 1.61345 1.04812 0
M  V30 4443 O 436.933 0.856936 1.71368 0
M  V30 4444 C 437.127 3.54343 -0.466485 0
M  V30 4445 C 436.956 4.08029 -1.89058 0
M  V30 4446 C 435.726 4.38284 -2.51466 0
M  V30 4447 C 437.924 4.27954 -2.85236 0
M  V30 4448 N 435.906 4.77778 -3.85488 0
M  V30 4449 C 437.277 4.70227 -4.04088 0
M  V30 4450 C 439.332 4.10119 -2.82324 0
M  V30 4451 C 438.035 4.96532 -5.20432 0
M  V30 4452 C 440.061 4.37569 -3.97854 0
M  V30 4453 C 439.423 4.80095 -5.15449 0
M  V30 4454 H 435.522 0.760525 -0.182004 0
M  V30 4455 H 438.106 1.65589 -1.02413 0
M  V30 4456 H 436.277 3.88072 0.159606 0
M  V30 4457 H 438.009 4.04693 -0.0238577 0
M  V30 4458 H 434.764 4.27905 -2.02965 0
M  V30 4459 H 435.188 5.01813 -4.54437 0
M  V30 4460 H 439.83 3.76399 -1.92571 0
M  V30 4461 H 437.548 5.29134 -6.10773 0
M  V30 4462 H 441.134 4.25341 -3.96958 0
M  V30 4463 H 440.014 5.00925 -6.0336 0
M  V30 4464 N 437.518 0.538854 1.48102 0
M  V30 4465 C 438.465 -0.219042 2.29758 0
M  V30 4466 C 439.435 -0.925562 1.37922 0
M  V30 4467 O 440.62 -0.924855 1.66886 0
M  V30 4468 C 437.76 -1.25452 3.2149 0
M  V30 4469 C 436.873 -0.555943 4.28408 0
M  V30 4470 C 436.008 -1.57512 5.0731 0
M  V30 4471 C 435.047 -0.860498 6.06021 0
M  V30 4472 N 434.184 -1.82564 6.77949 0
M  V30 4473 H 439.024 0.483449 2.94052 0
M  V30 4474 H 436.561 0.250247 1.44956 0
M  V30 4475 H 438.519 -1.86727 3.7308 0
M  V30 4476 H 437.149 -1.92528 2.591 0
M  V30 4477 H 436.201 0.170938 3.80016 0
M  V30 4478 H 437.513 0.00474616 4.988 0
M  V30 4479 H 436.667 -2.26191 5.62959 0
M  V30 4480 H 435.406 -2.16972 4.36778 0
M  V30 4481 H 434.411 -0.159686 5.49568 0
M  V30 4482 H 435.636 -0.271897 6.78555 0
M  V30 4483 H 433.582 -2.40915 6.10161 0
M  V30 4484 H 433.499 -1.31662 7.44447 0
M  V30 4485 H 434.767 -2.50414 7.38182 0
M  V30 4486 N 438.996 -1.55193 0.274407 0
M  V30 4487 C 439.944 -2.23924 -0.629362 0
M  V30 4488 C 440.938 -1.23602 -1.1584 0
M  V30 4489 O 442.144 -1.41535 -1.11211 0
M  V30 4490 H 438.519 -0.718637 -0.221507 0
M  V30 4491 H 440.49 -2.98388 -0.0268322 0
M  V30 4492 C 439.239 -2.97329 -1.80252 0
M  V30 4493 H 438.562 -3.74313 -1.40462 0
M  V30 4494 H 440.002 -3.48743 -2.41152 0
M  V30 4495 C 438.461 -2.0276 -2.69054 0
M  V30 4496 O 438.991 -1.57836 -3.69392 0
M  V30 4497 N 437.197 -1.69275 -2.36208 0
M  V30 4498 H 436.744 -2.06004 -1.54661 0
M  V30 4499 H 436.702 -1.06271 -2.95895 0
M  V30 4500 N 440.474 -0.00167713 -1.576 0
M  V30 4501 C 441.404 0.988091 -2.11563 0
M  V30 4502 C 442.385 1.35736 -1.02517 0
M  V30 4503 O 443.57 1.44082 -1.30208 0
M  V30 4504 C 440.7 2.27941 -2.62031 0
M  V30 4505 C 439.654 2.0517 -3.75619 0
M  V30 4506 C 438.98 3.4033 -4.12407 0
M  V30 4507 C 440.28 1.41294 -5.02825 0
M  V30 4508 H 441.974 0.538771 -2.94513 0
M  V30 4509 H 439.52 0.257712 -1.41675 0
M  V30 4510 H 441.473 2.97539 -2.9841 0
M  V30 4511 H 440.197 2.74989 -1.76205 0
M  V30 4512 H 438.856 1.37998 -3.39635 0
M  V30 4513 H 438.504 3.85085 -3.23603 0
M  V30 4514 H 438.204 3.25909 -4.88935 0
M  V30 4515 H 439.728 4.1124 -4.51347 0
M  V30 4516 H 441.142 2.00851 -5.36965 0
M  V30 4517 H 439.539 1.37356 -5.84169 0
M  V30 4518 H 440.609 0.382362 -4.8339 0
M  V30 4519 N 441.952 1.55251 0.271103 0
M  V30 4520 C 442.884 1.84675 1.35749 0
M  V30 4521 C 443.897 0.731366 1.45447 0
M  V30 4522 O 445.086 1.00924 1.4723 0
M  V30 4523 C 442.186 1.99638 2.73857 0
M  V30 4524 C 441.359 3.30312 2.86727 0
M  V30 4525 C 440.418 3.35318 4.05522 0
M  V30 4526 O 439.444 4.08682 3.96191 0
M  V30 4527 N 440.646 2.62857 5.17577 0
M  V30 4528 H 443.411 2.78445 1.10853 0
M  V30 4529 H 440.972 1.55191 0.461218 0
M  V30 4530 H 442.964 2.00355 3.51625 0
M  V30 4531 H 441.534 1.12725 2.91568 0
M  V30 4532 H 440.754 3.42118 1.95829 0
M  V30 4533 H 442.042 4.16488 2.92258 0
M  V30 4534 H 441.44 2.02939 5.28046 0
M  V30 4535 H 439.997 2.69295 5.93568 0
M  V30 4536 N 443.43 -0.535701 1.48216 0
M  V30 4537 C 444.34 -1.66785 1.64985 0
M  V30 4538 C 445.356 -1.65654 0.532414 0
M  V30 4539 O 446.532 -1.8471 0.80275 0
M  V30 4540 C 443.597 -3.0326 1.68031 0
M  V30 4541 C 442.658 -3.1529 2.9136 0
M  V30 4542 C 441.891 -4.45255 2.94252 0
M  V30 4543 O 442.114 -5.32011 2.05719 0
M  V30 4544 O 441.048 -4.6153 3.86359 0
M  V30 4545 H 444.874 -1.55576 2.60825 0
M  V30 4546 H 442.459 -0.70815 1.31551 0
M  V30 4547 H 444.341 -3.84436 1.72589 0
M  V30 4548 H 443.016 -3.14805 0.753628 0
M  V30 4549 H 441.923 -2.3343 2.92337 0
M  V30 4550 H 443.256 -3.08658 3.83394 0
M  V30 4551 N 444.908 -1.36708 -0.784132 0
M  V30 4552 C 445.84 -1.27333 -1.90575 0
M  V30 4553 C 446.853 -0.191706 -1.61667 0
M  V30 4554 O 448.042 -0.446854 -1.72816 0
M  V30 4555 C 445.142 -0.943177 -3.25511 0
M  V30 4556 C 444.315 -2.12776 -3.82158 0
M  V30 4557 C 443.374 -1.76983 -4.95544 0
M  V30 4558 O 442.4 -2.49134 -5.11782 0
M  V30 4559 N 443.602 -0.706624 -5.76183 0
M  V30 4560 H 446.367 -2.23974 -1.99138 0
M  V30 4561 H 443.928 -1.30171 -0.962656 0
M  V30 4562 H 445.92 -0.684799 -3.98864 0
M  V30 4563 H 444.49 -0.0657333 -3.12531 0
M  V30 4564 H 443.71 -2.54863 -3.0073 0
M  V30 4565 H 444.998 -2.91904 -4.16737 0
M  V30 4566 H 444.396 -0.107643 -5.65598 0
M  V30 4567 H 442.953 -0.50808 -6.49817 0
M  V30 4568 N 446.386 1.0089 -1.21074 0
M  V30 4569 C 447.614 1.78191 -1.05145 0
M  V30 4570 C 448.029 1.84537 0.398952 0
M  V30 4571 O 447.386 1.30393 1.27687 0
M  V30 4572 C 447.437 3.22288 -1.63746 0
M  V30 4573 O 447.158 3.16315 -3.03111 0
M  V30 4574 C 448.659 4.16106 -1.52875 0
M  V30 4575 H 445.879 0.560129 -0.369454 0
M  V30 4576 H 448.423 1.26945 -1.60328 0
M  V30 4577 H 446.578 3.70655 -1.12664 0
M  V30 4578 H 446.992 4.06817 -3.31059 0
M  V30 4579 H 448.466 5.15026 -1.98626 0
M  V30 4580 H 448.943 4.36541 -0.482521 0
M  V30 4581 H 449.549 3.73625 -2.03185 0
M  V30 4582 N 447.864 1.01787 1.20321 0
M  V30 4583 C 449.28 0.732951 1.41774 0
M  V30 4584 C 449.48 -0.686883 1.89431 0
M  V30 4585 O 448.536 -1.45446 2.06402 0
M  V30 4586 C 449.849 1.75973 2.43832 0
M  V30 4587 C 451.397 1.77802 2.57596 0
M  V30 4588 C 451.872 2.7941 3.62897 0
M  V30 4589 N 453.363 2.78157 3.70382 0
M  V30 4590 C 454.098 3.53434 4.51521 0
M  V30 4591 N 453.594 4.38392 5.36455 0
M  V30 4592 N 455.387 3.42026 4.46066 0
M  V30 4593 H 447.538 1.93447 0.877035 0
M  V30 4594 H 449.801 0.835712 0.447536 0
M  V30 4595 H 449.507 2.77699 2.15815 0
M  V30 4596 H 449.381 1.57292 3.4284 0
M  V30 4597 H 451.768 0.767602 2.84942 0
M  V30 4598 H 451.849 2.00557 1.58779 0
M  V30 4599 H 451.493 3.80616 3.36295 0
M  V30 4600 H 451.423 2.53916 4.61339 0
M  V30 4601 H 453.914 2.16531 3.09714 0
M  V30 4602 H 454.227 4.92596 5.95457 0
M  V30 4603 H 452.572 4.4247 5.35953 0
M  V30 4604 H 455.763 2.75075 3.78749 0
M  V30 4605 H 455.936 4.00946 5.09064 0
M  V30 4606 N 449.342 -1.36122 0.79427 0
M  V30 4607 C 450.753 -1.81646 0.431446 0
M  V30 4608 C 451.104 -1.66043 -1.04518 0
M  V30 4609 O 450.229 -1.1841 -1.8113 0
M  V30 4610 C 450.824 -3.29785 0.776341 0
M  V30 4611 C 449.383 -3.73501 0.466282 0
M  V30 4612 C 448.53 -2.58313 1.00844 0
M  V30 4613 H 451.481 -1.24274 0.986995 0
M  V30 4614 H 451.502 -3.80437 0.0692413 0
M  V30 4615 H 451.014 -3.4111 1.8511 0
M  V30 4616 H 449.115 -3.67733 -0.600245 0
M  V30 4617 H 449.228 -4.68754 0.990288 0
M  V30 4618 H 447.592 -2.5102 0.431406 0
M  V30 4619 H 448.375 -2.72421 2.08906 0
M  V30 4620 N 450.82 -0.546701 -1.47814 0
M  V30 4621 C 451.767 0.206854 -2.29871 0
M  V30 4622 C 452.737 0.918235 -1.38411 0
M  V30 4623 O 453.922 0.915991 -1.67375 0
M  V30 4624 C 451.062 1.23746 -3.22151 0
M  V30 4625 C 450.175 0.533216 -4.28697 0
M  V30 4626 C 449.31 1.5482 -5.08138 0
M  V30 4627 C 448.349 0.828347 -6.06469 0
M  V30 4628 N 447.486 1.78966 -6.78908 0
M  V30 4629 H 452.326 -0.499037 -2.93792 0
M  V30 4630 H 449.863 -0.25793 -1.44821 0
M  V30 4631 H 451.821 1.84746 -3.74065 0
M  V30 4632 H 450.451 1.91151 -2.60117 0
M  V30 4633 H 449.503 -0.191089 -3.7992 0
M  V30 4634 H 450.815 -0.0311987 -4.9879 0
M  V30 4635 H 449.969 2.23202 -5.6415 0
M  V30 4636 H 448.708 2.14652 -4.37922 0
M  V30 4637 H 447.713 0.130539 -5.49645 0
M  V30 4638 H 448.938 0.235907 -6.7869 0
M  V30 4639 H 446.884 2.37675 -6.1143 0
M  V30 4640 H 446.801 1.27712 -7.45135 0
M  V30 4641 H 448.069 2.46496 -7.395 0
M  V30 4642 N 452.299 1.55045 -0.282633 0
M  V30 4643 C 453.71 1.85473 0.213655 0
M  V30 4644 C 454.061 1.20465 1.54863 0
M  V30 4645 O 453.186 0.495676 2.10647 0
M  V30 4646 C 453.781 3.36496 0.394445 0
M  V30 4647 C 452.34 3.67022 0.834961 0
M  V30 4648 C 451.487 2.77218 -0.0674081 0
M  V30 4649 H 454.438 1.50478 -0.504202 0
M  V30 4650 H 454.459 3.60007 1.23186 0
M  V30 4651 H 453.971 3.83782 -0.577326 0
M  V30 4652 H 452.072 3.25241 1.81794 0
M  V30 4653 H 452.185 4.74433 0.667075 0
M  V30 4654 H 450.549 2.5069 0.450196 0
M  V30 4655 H 451.332 3.2732 -1.0352 0
M  V30 4656 N 453.777 0.010035 1.57597 0
M  V30 4657 C 454.687 -0.994226 2.12491 0
M  V30 4658 C 455.703 -1.37013 1.07254 0
M  V30 4659 O 456.879 -1.45542 1.3921 0
M  V30 4660 C 453.944 -2.2642 2.62555 0
M  V30 4661 C 453.005 -1.95049 3.82432 0
M  V30 4662 C 452.238 -3.15991 4.30099 0
M  V30 4663 O 452.461 -4.28015 3.7704 0
M  V30 4664 O 451.395 -2.99403 5.22151 0
M  V30 4665 H 455.221 -0.557549 2.98538 0
M  V30 4666 H 452.806 -0.209413 1.47925 0
M  V30 4667 H 454.688 -3.01009 2.9491 0
M  V30 4668 H 453.363 -2.69306 1.796 0
M  V30 4669 H 452.27 -1.17904 3.55034 0
M  V30 4670 H 453.603 -1.56992 4.66491 0
M  V30 4671 N 455.255 -1.55392 -0.262866 0
M  V30 4672 C 456.502 -1.76476 -0.993109 0
M  V30 4673 C 456.83 -0.571479 -1.85915 0
M  V30 4674 O 456.085 0.445733 -1.90556 0
M  V30 4675 C 456.384 -3.02889 -1.89718 0
M  V30 4676 C 456.05 -4.34974 -1.18781 0
M  V30 4677 C 454.712 -4.7087 -0.991699 0
M  V30 4678 C 457.064 -5.16695 -0.683798 0
M  V30 4679 C 454.392 -5.86036 -0.279024 0
M  V30 4680 C 456.744 -6.32598 0.0153327 0
M  V30 4681 C 455.408 -6.67127 0.223062 0
M  V30 4682 H 454.678 -0.64577 -0.363404 0
M  V30 4683 H 457.325 -1.89664 -0.264525 0
M  V30 4684 H 455.63 -2.84644 -2.6923 0
M  V30 4685 H 457.327 -3.16399 -2.46359 0
M  V30 4686 H 453.917 -4.06765 -1.35058 0
M  V30 4687 H 458.101 -4.8943 -0.8229 0
M  V30 4688 H 453.357 -6.11306 -0.107456 0
M  V30 4689 H 457.531 -6.95171 0.413584 0
M  V30 4690 H 455.158 -7.56216 0.777265 0
M  V30 4691 N 456.733 0.527833 -1.48498 0
M  V30 4692 C 457.681 1.65313 -1.63628 0
M  V30 4693 C 458.675 1.6177 -0.502676 0
M  V30 4694 O 459.881 1.66601 -0.681469 0
M  V30 4695 H 456.256 0.547518 -0.515488 0
M  V30 4696 H 458.227 1.49696 -2.58135 0
M  V30 4697 C 456.976 3.03576 -1.6952 0
M  V30 4698 H 456.299 3.06997 -2.56111 0
M  V30 4699 H 457.739 3.81923 -1.84149 0
M  V30 4700 C 456.198 3.34089 -0.43432 0
M  V30 4701 O 456.728 3.99151 0.451852 0
M  V30 4702 N 454.934 2.88991 -0.305368 0
M  V30 4703 H 454.481 2.36222 -1.02747 0
M  V30 4704 H 454.439 3.09776 0.537249 0
M  V30 4705 N 458.211 1.37122 0.776871 0
M  V30 4706 C 459.46 1.31373 1.53049 0
M  V30 4707 C 459.773 -0.101016 1.95339 0
M  V30 4708 O 460.979 -0.280953 2.70042 0
M  V30 4709 C 459.435 2.30567 2.76346 0
M  V30 4710 C 459.043 3.77543 2.41175 0
M  V30 4711 C 460.787 2.33818 3.54301 0
M  V30 4712 C 458.694 4.68481 3.60943 0
M  V30 4713 H 457.624 0.488234 0.574581 0
M  V30 4714 H 460.275 1.62554 0.851372 0
M  V30 4715 H 458.657 1.92396 3.46121 0
M  V30 4716 H 459.831 4.24521 1.79216 0
M  V30 4717 H 458.146 3.77187 1.76405 0
M  V30 4718 H 460.743 2.98965 4.4331 0
M  V30 4719 H 461.086 1.3503 3.93793 0
M  V30 4720 H 461.619 2.7067 2.91518 0
M  V30 4721 H 458.358 5.68378 3.26537 0
M  V30 4722 H 457.878 4.2621 4.22025 0
M  V30 4723 H 459.557 4.85366 4.27819 0
M  V30 4724 N 459.689 -1.00246 1.21608 0
M  V30 4725 C 461.105 -1.26435 0.973975 0
M  V30 4726 C 461.305 -1.98642 -0.338143 0
M  V30 4727 O 460.361 -2.29026 -1.06317 0
M  V30 4728 C 461.674 -2.08551 2.16626 0
M  V30 4729 C 463.222 -2.21769 2.20879 0
M  V30 4730 C 463.697 -3.07267 3.39633 0
M  V30 4731 N 465.188 -3.14855 3.39736 0
M  V30 4732 C 465.923 -3.81274 4.28273 0
M  V30 4733 N 465.419 -4.497 5.27012 0
M  V30 4734 N 467.212 -3.7794 4.16074 0
M  V30 4735 H 459.363 -0.518089 2.05984 0
M  V30 4736 H 461.626 -0.291368 0.902113 0
M  V30 4737 H 461.332 -1.62847 3.11727 0
M  V30 4738 H 461.206 -3.09303 2.15897 0
M  V30 4739 H 463.593 -2.66691 1.26332 0
M  V30 4740 H 463.674 -1.20478 2.25652 0
M  V30 4741 H 463.318 -2.63047 4.34475 0
M  V30 4742 H 463.248 -4.08678 3.321 0
M  V30 4743 H 465.739 -2.66147 2.6828 0
M  V30 4744 H 466.052 -4.98092 5.90867 0
M  V30 4745 H 464.397 -4.48479 5.30935 0
M  V30 4746 H 467.588 -3.23638 3.38195 0
M  V30 4747 H 467.761 -4.29424 4.85282 0
M  V30 4748 N 461.167 -1.02423 -1.1978 0
M  V30 4749 C 462.114 -0.601023 -2.22837 0
M  V30 4750 C 463.084 0.382801 -1.61629 0
M  V30 4751 O 464.269 0.280514 -1.88727 0
M  V30 4752 C 461.409 0.0467755 -3.45068 0
M  V30 4753 C 460.522 -0.98253 -4.20678 0
M  V30 4754 C 459.657 -0.304982 -5.30324 0
M  V30 4755 C 458.696 -1.32052 -5.97686 0
M  V30 4756 N 457.833 -0.669105 -6.98904 0
M  V30 4757 H 462.673 -1.48444 -2.58396 0
M  V30 4758 H 460.21 -0.742936 -1.2696 0
M  V30 4759 H 462.168 0.439556 -4.14878 0
M  V30 4760 H 460.798 0.893796 -3.10179 0
M  V30 4761 H 459.85 -1.49341 -3.49859 0
M  V30 4762 H 461.162 -1.75455 -4.66923 0
M  V30 4763 H 460.316 0.142893 -6.06532 0
M  V30 4764 H 459.055 0.499283 -4.85138 0
M  V30 4765 H 458.06 -1.7787 -5.20233 0
M  V30 4766 H 459.285 -2.1262 -6.44957 0
M  V30 4767 H 457.231 0.115152 -6.55899 0
M  V30 4768 H 457.148 -1.37908 -7.43315 0
M  V30 4769 H 458.416 -0.245076 -7.79115 0
M  V30 4770 N 462.645 1.35699 -0.801477 0
M  V30 4771 C 464.056 1.81415 -0.441073 0
M  V30 4772 C 464.407 1.66595 1.03636 0
M  V30 4773 O 463.532 1.19369 1.80499 0
M  V30 4774 C 464.127 3.29369 -0.793819 0
M  V30 4775 C 462.686 3.73248 -0.486083 0
M  V30 4776 C 461.833 2.57775 -1.02213 0
M  V30 4777 H 464.784 1.23749 -0.993572 0
M  V30 4778 H 464.805 3.80395 -0.0894158 0
M  V30 4779 H 464.317 3.40123 -1.86917 0
M  V30 4780 H 462.418 3.68046 0.580735 0
M  V30 4781 H 462.531 4.68222 -1.01513 0
M  V30 4782 H 460.895 2.50788 -0.444712 0
M  V30 4783 H 461.678 2.71309 -2.10348 0
M  V30 4784 N 464.123 0.554532 1.47522 0
M  V30 4785 C 465.033 -0.197865 2.33764 0
M  V30 4786 C 466.049 -0.914576 1.48025 0
M  V30 4787 O 467.225 -0.884067 1.80959 0
M  V30 4788 C 464.29 -1.21628 3.24665 0
M  V30 4789 C 463.351 -0.507283 4.26292 0
M  V30 4790 C 462.584 -1.47718 5.1285 0
M  V30 4791 O 462.807 -2.7118 5.01814 0
M  V30 4792 O 461.741 -1.00313 5.93482 0
M  V30 4793 H 465.567 0.50949 2.99396 0
M  V30 4794 H 463.152 0.315176 1.46038 0
M  V30 4795 H 465.034 -1.80421 3.80823 0
M  V30 4796 H 463.709 -1.9056 2.61665 0
M  V30 4797 H 462.616 0.121778 3.73902 0
M  V30 4798 H 463.949 0.140544 4.91999 0
M  V30 4799 N 465.601 -1.54893 0.290851 0
M  V30 4800 C 466.826 -2.04804 -0.32712 0
M  V30 4801 C 467.251 -1.16721 -1.47506 0
M  V30 4802 O 466.609 -0.169107 -1.8051 0
M  V30 4803 C 466.657 -3.52268 -0.770689 0
M  V30 4804 O 465.761 -3.67236 -1.87647 0
M  V30 4805 H 465.102 -0.660789 -0.0652227 0
M  V30 4806 H 467.632 -2.00036 0.429739 0
M  V30 4807 H 467.642 -3.9393 -1.06223 0
M  V30 4808 H 466.317 -4.15843 0.069096 0
M  V30 4809 H 464.894 -3.37479 -1.58626 0
M  V30 4810 N 467.08 -0.0183926 -1.57589 0
M  V30 4811 C 468.308 0.673046 -1.95647 0
M  V30 4812 C 468.723 1.66275 -0.894312 0
M  V30 4813 O 468.08 1.82072 0.124975 0
M  V30 4814 C 468.131 1.38884 -3.33756 0
M  V30 4815 O 467.852 0.438806 -4.35897 0
M  V30 4816 C 469.353 2.1731 -3.86383 0
M  V30 4817 H 466.573 0.186292 -0.644621 0
M  V30 4818 H 469.117 -0.0749748 -2.04363 0
M  V30 4819 H 467.272 2.08835 -3.26293 0
M  V30 4820 H 467.686 0.945869 -5.15901 0
M  V30 4821 H 469.16 2.62863 -4.85394 0
M  V30 4822 H 469.637 3.00764 -3.20059 0
M  V30 4823 H 470.243 1.52339 -3.97081 0
M  V30 4824 N 468.558 1.5553 0.254621 0
M  V30 4825 C 469.804 1.77262 0.985193 0
M  V30 4826 C 470.137 0.582286 1.85265 0
M  V30 4827 O 469.412 -0.419666 1.89919 0
M  V30 4828 C 469.695 3.0881 1.85225 0
M  V30 4829 C 469.548 4.38233 1.0135 0
M  V30 4830 C 470.867 3.3653 2.83612 0
M  V30 4831 H 467.986 0.644906 0.356742 0
M  V30 4832 H 470.628 1.88264 0.256236 0
M  V30 4833 H 468.778 2.99562 2.47376 0
M  V30 4834 H 470.45 4.59463 0.411269 0
M  V30 4835 H 468.693 4.32636 0.317574 0
M  V30 4836 H 469.364 5.26644 1.65379 0
M  V30 4837 H 471.84 3.45691 2.31596 0
M  V30 4838 H 470.716 4.29805 3.41407 0
M  V30 4839 H 470.977 2.57064 3.59681 0
M  V30 4840 N 470.036 -0.519951 1.48776 0
M  V30 4841 C 471.447 -1.10177 1.50725 0
M  V30 4842 C 471.798 -1.94153 0.282678 0
M  V30 4843 O 470.923 -2.07645 -0.609298 0
M  V30 4844 C 471.518 -2.00482 2.73116 0
M  V30 4845 C 470.077 -2.53862 2.77905 0
M  V30 4846 C 469.224 -1.31047 2.44381 0
M  V30 4847 H 472.175 -0.30473 1.55747 0
M  V30 4848 H 472.196 -2.8491 2.52203 0
M  V30 4849 H 471.708 -1.39335 3.62225 0
M  V30 4850 H 469.809 -3.18702 1.93029 0
M  V30 4851 H 469.922 -2.9231 3.79594 0
M  V30 4852 H 468.286 -1.62953 1.95751 0
M  V30 4853 H 469.069 -0.71637 3.35743 0
M  V30 4854 N 471.514 -1.37532 -0.769588 0
M  V30 4855 C 472.739 -1.36231 -1.56384 0
M  V30 4856 C 473.164 0.0495849 -1.88035 0
M  V30 4857 O 472.522 1.02723 -1.49391 0
M  V30 4858 C 472.57 -2.20986 -2.84952 0
M  V30 4859 O 471.674 -1.61597 -3.79421 0
M  V30 4860 H 471.015 -0.465387 -0.473615 0
M  V30 4861 H 473.545 -1.81085 -0.952342 0
M  V30 4862 H 473.555 -2.34277 -3.34034 0
M  V30 4863 H 472.23 -3.23612 -2.61243 0
M  V30 4864 H 470.807 -1.57359 -3.38072 0
M  V30 4865 N 472.992 0.995999 -1.22138 0
M  V30 4866 C 473.939 2.08551 -0.988687 0
M  V30 4867 C 474.909 1.65864 0.0885021 0
M  V30 4868 O 476.094 1.90704 -0.0604589 0
M  V30 4869 C 473.234 3.40374 -0.569191 0
M  V30 4870 C 472.347 3.96421 -1.71681 0
M  V30 4871 C 471.482 5.1639 -1.2456 0
M  V30 4872 C 470.521 5.64567 -2.36497 0
M  V30 4873 N 469.658 6.75777 -1.90445 0
M  V30 4874 H 474.498 2.2779 -1.92135 0
M  V30 4875 H 472.035 1.1168 -0.957388 0
M  V30 4876 H 473.993 4.16068 -0.307166 0
M  V30 4877 H 472.623 3.21145 0.326462 0
M  V30 4878 H 471.675 3.17628 -2.09324 0
M  V30 4879 H 472.987 4.2816 -2.55891 0
M  V30 4880 H 472.141 5.99362 -0.940774 0
M  V30 4881 H 470.88 4.86266 -0.373662 0
M  V30 4882 H 469.885 4.80185 -2.67772 0
M  V30 4883 H 471.11 5.96716 -3.24202 0
M  V30 4884 H 469.056 6.47443 -1.05609 0
M  V30 4885 H 468.973 7.06818 -2.68223 0
M  V30 4886 H 470.241 7.62262 -1.63022 0
M  V30 4887 N 474.47 1.03057 1.19235 0
M  V30 4888 C 475.433 0.617418 2.20727 0
M  V30 4889 C 476.433 -0.319856 1.57587 0
M  V30 4890 O 477.623 -0.106633 1.73873 0
M  V30 4891 C 474.755 -0.096296 3.40764 0
M  V30 4892 H 475.948 1.51544 2.58794 0
M  V30 4893 H 473.501 0.821949 1.32942 0
M  V30 4894 H 474.236 -1.00859 3.08217 0
M  V30 4895 H 474.021 0.577217 3.87828 0
M  V30 4896 H 475.511 -0.372219 4.15938 0
M  V30 4897 N 475.948 -1.35272 0.808662 0
M  V30 4898 C 477.194 -1.99003 0.390581 0
M  V30 4899 C 477.527 -1.63999 -1.0401 0
M  V30 4900 O 476.802 -0.904368 -1.72196 0
M  V30 4901 C 477.085 -3.55454 0.576566 0
M  V30 4902 C 476.938 -4.00249 2.05233 0
M  V30 4903 C 478.257 -4.401 0.00354277 0
M  V30 4904 H 475.376 -0.722917 0.143388 0
M  V30 4905 H 478.018 -1.6039 1.01858 0
M  V30 4906 H 476.168 -3.88477 0.0419766 0
M  V30 4907 H 477.84 -3.77626 2.64946 0
M  V30 4908 H 476.083 -3.51082 2.54801 0
M  V30 4909 H 476.754 -5.0911 2.13333 0
M  V30 4910 H 479.23 -4.13548 0.460117 0
M  V30 4911 H 478.106 -5.48656 0.163575 0
M  V30 4912 H 478.367 -4.28444 -1.09032 0
M  V30 4913 N 477.426 -0.562348 -1.47226 0
M  V30 4914 C 478.672 -0.0402761 -2.0276 0
M  V30 4915 C 479.005 1.30823 -1.43523 0
M  V30 4916 O 478.28 1.85249 -0.592705 0
M  V30 4917 C 478.563 0.047311 -3.60069 0
M  V30 4918 C 478.416 -1.32865 -4.29729 0
M  V30 4919 C 479.735 0.758182 -4.3352 0
M  V30 4920 H 476.854 -0.0161105 -0.736824 0
M  V30 4921 H 479.496 -0.725628 -1.75598 0
M  V30 4922 H 477.646 0.630986 -3.83342 0
M  V30 4923 H 479.318 -1.95593 -4.17781 0
M  V30 4924 H 477.561 -1.90195 -3.89882 0
M  V30 4925 H 478.232 -1.22004 -5.38349 0
M  V30 4926 H 480.708 0.262546 -4.15271 0
M  V30 4927 H 479.584 0.78844 -5.43208 0
M  V30 4928 H 479.845 1.81537 -4.03109 0
M  V30 4929 N 478.904 1.54736 -0.299062 0
M  V30 4930 C 480.153 1.99279 0.311549 0
M  V30 4931 C 480.466 1.19107 1.55154 0
M  V30 4932 O 481.672 1.53908 2.23662 0
M  V30 4933 C 480.128 3.54768 0.605632 0
M  V30 4934 C 479.736 4.43746 -0.615914 0
M  V30 4935 C 481.48 4.07841 1.17754 0
M  V30 4936 C 479.387 5.90663 -0.29509 0
M  V30 4937 H 478.317 0.744359 0.120187 0
M  V30 4938 H 480.968 1.78919 -0.407464 0
M  V30 4939 H 479.35 3.71021 1.38419 0
M  V30 4940 H 480.524 4.39267 -1.39218 0
M  V30 4941 H 478.839 4.01434 -1.10633 0
M  V30 4942 H 481.436 5.15174 1.43179 0
M  V30 4943 H 481.779 3.58324 2.11918 0
M  V30 4944 H 482.312 3.95123 0.460739 0
M  V30 4945 H 479.051 6.44325 -1.20524 0
M  V30 4946 H 478.571 5.98155 0.44394 0
M  V30 4947 H 480.25 6.46916 0.104048 0
M  V30 4948 N 480.382 0.0267497 1.57577 0
M  V30 4949 C 481.332 -0.965003 2.06571 0
M  V30 4950 C 482.316 -1.28694 0.965746 0
M  V30 4951 O 483.508 -1.27345 1.22932 0
M  V30 4952 C 480.637 -2.24821 2.59443 0
M  V30 4953 C 479.723 -1.95474 3.76365 0
M  V30 4954 N 480.114 -1.36387 4.87065 0
M  V30 4955 C 478.412 -2.25478 3.84806 0
M  V30 4956 C 479.113 -1.24119 5.68304 0
M  V30 4957 N 478.089 -1.7359 5.15138 0
M  V30 4958 H 481.891 -0.503095 2.89562 0
M  V30 4959 H 479.405 -0.178322 1.61418 0
M  V30 4960 H 481.402 -2.9674 2.92833 0
M  V30 4961 H 480.062 -2.7164 1.77881 0
M  V30 4962 H 481.073 -1.03919 5.07367 0
M  V30 4963 H 477.75 -2.74987 3.14147 0
M  V30 4964 H 479.14 -0.784504 6.67304 0
M  V30 4965 N 481.861 -1.55662 -0.24637 0
M  V30 4966 C 482.808 -1.90361 -1.30504 0
M  V30 4967 C 483.778 -0.757905 -1.47801 0
M  V30 4968 O 484.963 -1.01161 -1.61775 0
M  V30 4969 C 482.103 -2.2042 -2.65535 0
M  V30 4970 C 481.216 -3.47799 -2.56242 0
M  V30 4971 C 480.351 -3.67426 -3.8363 0
M  V30 4972 C 479.39 -4.88403 -3.68956 0
M  V30 4973 N 478.527 -5.04548 -4.88237 0
M  V30 4974 H 483.367 -2.80645 -1.00213 0
M  V30 4975 H 480.904 -1.38924 -0.483577 0
M  V30 4976 H 482.862 -2.35853 -3.44135 0
M  V30 4977 H 481.492 -1.3334 -2.93973 0
M  V30 4978 H 480.544 -3.40694 -1.69208 0
M  V30 4979 H 481.856 -4.36544 -2.4131 0
M  V30 4980 H 481.01 -3.82821 -4.70673 0
M  V30 4981 H 479.749 -2.76914 -4.01459 0
M  V30 4982 H 478.754 -4.72984 -2.80296 0
M  V30 4983 H 479.979 -5.80375 -3.52621 0
M  V30 4984 H 477.925 -4.16974 -5.06427 0
M  V30 4985 H 477.842 -5.87384 -4.75937 0
M  V30 4986 H 479.11 -5.24355 -5.76777 0
M  V30 4987 N 483.339 0.512053 -1.4905 0
M  V30 4988 C 484.564 1.2959 -1.6193 0
M  V30 4989 C 484.989 1.85906 -0.286454 0
M  V30 4990 O 484.347 1.65312 0.744426 0
M  V30 4991 C 484.395 2.40987 -2.68249 0
M  V30 4992 O 483.499 3.44531 -2.26654 0
M  V30 4993 H 482.84 0.383053 -0.542371 0
M  V30 4994 H 485.37 0.614231 -1.95162 0
M  V30 4995 H 485.38 2.86913 -2.90078 0
M  V30 4996 H 484.055 1.99361 -3.65004 0
M  V30 4997 H 482.632 3.046 -2.15112 0
M  V30 4998 N 484.817 1.37938 0.762283 0
M  V30 4999 C 485.764 1.34467 1.87583 0
M  V30 5000 C 486.734 0.208633 1.64785 0
M  V30 5001 O 487.919 0.399494 1.86571 0
M  V30 5002 C 485.059 1.16692 3.24772 0
M  V30 5003 C 484.172 2.39608 3.59461 0
M  V30 5004 C 483.307 2.14631 4.85908 0
M  V30 5005 C 482.346 3.33364 5.13357 0
M  V30 5006 N 481.483 3.07877 6.30996 0
M  V30 5007 H 486.323 2.29669 1.89885 0
M  V30 5008 H 483.86 1.14116 0.928219 0
M  V30 5009 H 485.818 1.04405 4.03925 0
M  V30 5010 H 484.448 0.251333 3.2182 0
M  V30 5011 H 483.5 2.626 2.75219 0
M  V30 5012 H 484.812 3.28128 3.75678 0
M  V30 5013 H 483.966 1.99429 5.72986 0
M  V30 5014 H 482.705 1.23463 4.71814 0
M  V30 5015 H 481.71 3.49094 4.24751 0
M  V30 5016 H 482.935 4.25395 5.29354 0
M  V30 5017 H 480.881 2.19348 6.18241 0
M  V30 5018 H 480.798 3.89944 6.47673 0
M  V30 5019 H 482.066 2.96313 7.20985 0
M  V30 5020 N 486.295 -0.989507 1.22664 0
M  V30 5021 C 487.525 -1.7624 1.0781 0
M  V30 5022 C 487.933 -1.85466 -0.374036 0
M  V30 5023 O 487.276 -1.32645 -1.27087 0
M  V30 5024 C 487.338 -3.21007 1.61849 0
M  V30 5025 C 487.002 -3.35316 3.10503 0
M  V30 5026 C 487.999 -3.22362 4.07896 0
M  V30 5027 C 485.684 -3.60258 3.50028 0
M  V30 5028 C 487.678 -3.34139 5.42798 0
M  V30 5029 C 485.365 -3.71676 4.85078 0
M  V30 5030 C 486.363 -3.58625 5.81272 0
M  V30 5031 O 486.051 -3.69655 7.1387 0
M  V30 5032 H 485.783 -0.560209 0.378341 0
M  V30 5033 H 488.337 -1.25252 1.62792 0
M  V30 5034 H 486.567 -3.73202 1.01279 0
M  V30 5035 H 488.256 -3.80024 1.42606 0
M  V30 5036 H 489.022 -3.03 3.78703 0
M  V30 5037 H 484.901 -3.69492 2.75675 0
M  V30 5038 H 488.445 -3.23869 6.17863 0
M  V30 5039 H 484.342 -3.90545 5.1395 0
M  V30 5040 H 485.11 -3.86507 7.21495 0
M  V30 5041 N 487.773 -1.03688 -1.18687 0
M  V30 5042 C 489.189 -0.755413 -1.4059 0
M  V30 5043 C 489.389 0.656659 -1.905 0
M  V30 5044 O 488.445 1.42144 -2.08689 0
M  V30 5045 C 489.758 -1.7983 -2.41001 0
M  V30 5046 C 491.306 -1.81877 -2.54735 0
M  V30 5047 C 491.781 -2.85148 -3.58406 0
M  V30 5048 N 493.272 -2.84015 -3.6591 0
M  V30 5049 C 494.007 -3.60573 -4.45841 0
M  V30 5050 N 493.503 -4.46871 -5.29413 0
M  V30 5051 N 495.296 -3.49079 -4.40568 0
M  V30 5052 H 487.447 -1.94818 -0.846148 0
M  V30 5053 H 489.71 -0.842727 -0.434184 0
M  V30 5054 H 489.416 -2.81097 -2.1137 0
M  V30 5055 H 489.29 -1.62727 -3.40294 0
M  V30 5056 H 491.677 -0.812836 -2.83685 0
M  V30 5057 H 491.758 -2.03057 -1.55568 0
M  V30 5058 H 491.402 -3.85918 -3.30197 0
M  V30 5059 H 491.332 -2.61224 -4.57241 0
M  V30 5060 H 493.823 -2.21431 -3.0623 0
M  V30 5061 H 494.136 -5.02007 -5.87545 0
M  V30 5062 H 492.481 -4.5094 -5.28846 0
M  V30 5063 H 495.672 -2.81066 -3.74325 0
M  V30 5064 H 495.845 -4.08994 -5.02621 0
M  V30 5065 N 489.251 1.34841 -0.815825 0
M  V30 5066 C 490.528 1.92908 -0.323416 0
M  V30 5067 C 490.908 1.74479 1.18828 0
M  V30 5068 O 490.256 1.11928 1.99209 0
M  V30 5069 C 490.466 3.40957 -0.744952 0
M  V30 5070 C 491.814 4.18107 -0.739716 0
M  V30 5071 O 492.838 3.49511 -0.68708 0
M  V30 5072 O 491.697 5.40517 -0.806456 0
M  V30 5073 H 488.791 0.822436 -0.0867646 0
M  V30 5074 H 491.337 1.4386 -0.90014 0
M  V30 5075 H 490.109 3.4814 -1.78646 0
M  V30 5076 H 489.732 3.97341 -0.143535 0
M  V30 5077 N 490.729 0.570148 1.46925 0
M  V30 5078 C 492.006 -0.0153259 1.95594 0
M  V30 5079 C 492.386 -1.47232 1.51281 0
M  V30 5080 O 491.734 -2.15574 0.757624 0
M  V30 5081 C 491.944 0.143624 3.48704 0
M  V30 5082 C 493.292 0.00494484 4.246 0
M  V30 5083 O 494.316 0.0718214 3.56128 0
M  V30 5084 O 493.175 -0.141175 5.46318 0
M  V30 5085 H 490.269 -0.0568819 0.825041 0
M  V30 5086 H 492.815 0.637583 1.57267 0
M  V30 5087 H 491.587 1.15699 3.73804 0
M  V30 5088 H 491.21 -0.5463 3.93829 0
M  V30 5089 N 492.207 -1.54576 0.307264 0
M  V30 5090 C 493.14 -2.19946 -0.608195 0
M  V30 5091 C 494.118 -1.17096 -1.12815 0
M  V30 5092 O 495.302 -1.45766 -1.19518 0
M  V30 5093 C 492.429 -2.84826 -1.8328 0
M  V30 5094 C 491.475 -4.01256 -1.44554 0
M  V30 5095 S 492.308 -5.33197 -0.49612 0
M  V30 5096 C 493.464 -6.01563 -1.72838 0
M  V30 5097 H 493.697 -2.97253 -0.0528544 0
M  V30 5098 H 491.23 -1.54129 0.0913837 0
M  V30 5099 H 493.188 -3.22832 -2.53554 0
M  V30 5100 H 491.849 -2.07353 -2.35931 0
M  V30 5101 H 491.042 -4.45457 -2.35762 0
M  V30 5102 H 490.644 -3.6484 -0.822671 0
M  V30 5103 H 492.936 -6.22751 -2.6681 0
M  V30 5104 H 493.879 -6.9552 -1.32882 0
M  V30 5105 H 494.287 -5.31279 -1.90795 0
M  V30 5106 N 493.685 -0.035106 -1.57561 0
M  V30 5107 C 494.931 0.64318 -1.92331 0
M  V30 5108 C 495.264 1.71434 -0.912368 0
M  V30 5109 O 494.539 1.94395 0.0640303 0
M  V30 5110 C 494.822 1.25411 -3.37556 0
M  V30 5111 C 494.675 0.192109 -4.4939 0
M  V30 5112 C 495.994 2.17041 -3.82859 0
M  V30 5113 H 493.113 0.232341 -0.699419 0
M  V30 5114 H 495.755 -0.0935889 -1.89769 0
M  V30 5115 H 493.905 1.88205 -3.39869 0
M  V30 5116 H 495.577 -0.438849 -4.59208 0
M  V30 5117 H 493.82 -0.481725 -4.31117 0
M  V30 5118 H 494.491 0.659292 -5.48049 0
M  V30 5119 H 496.967 1.64228 -3.8232 0
M  V30 5120 H 495.843 2.56738 -4.85157 0
M  V30 5121 H 496.104 3.06401 -3.18702 0
M  V30 5122 N 495.163 1.55791 0.238111 0
M  V30 5123 C 496.11 1.9105 1.29493 0
M  V30 5124 C 497.08 0.765733 1.47397 0
M  V30 5125 O 498.265 1.02017 1.61236 0
M  V30 5126 C 495.405 2.21826 2.64362 0
M  V30 5127 C 494.518 3.49153 2.54394 0
M  V30 5128 C 493.653 3.69455 3.81676 0
M  V30 5129 C 492.692 4.90353 3.66361 0
M  V30 5130 N 491.829 5.07131 4.85554 0
M  V30 5131 H 496.669 2.81172 0.987233 0
M  V30 5132 H 494.206 1.39179 0.476203 0
M  V30 5133 H 496.164 2.37675 3.4288 0
M  V30 5134 H 494.794 1.34897 2.93262 0
M  V30 5135 H 493.846 3.41587 1.67399 0
M  V30 5136 H 495.158 4.37818 2.38991 0
M  V30 5137 H 494.312 3.85311 4.68636 0
M  V30 5138 H 493.051 2.7904 3.99985 0
M  V30 5139 H 492.056 4.74464 2.77784 0
M  V30 5140 H 493.281 5.82237 3.49538 0
M  V30 5141 H 491.227 4.19654 5.04209 0
M  V30 5142 H 491.144 5.89899 4.72816 0
M  V30 5143 H 492.412 5.27407 5.73988 0
M  V30 5144 N 496.642 -0.504142 1.49319 0
M  V30 5145 C 497.919 -1.26548 1.49147 0
M  V30 5146 C 498.299 -2.09977 0.21744 0
M  V30 5147 O 497.647 -2.14028 -0.800269 0
M  V30 5148 C 497.857 -2.12489 2.76857 0
M  V30 5149 C 499.205 -2.7178 3.26222 0
M  V30 5150 O 500.229 -2.22758 2.77952 0
M  V30 5151 O 499.088 -3.61015 4.10281 0
M  V30 5152 H 496.182 -0.572495 0.596806 0
M  V30 5153 H 498.728 -0.51867 1.61579 0
M  V30 5154 H 497.5 -1.50796 3.61077 0
M  V30 5155 H 497.123 -2.94368 2.6727 0
M  V30 5156 N 498.12 -1.38341 -0.754957 0
M  V30 5157 C 499.397 -1.24995 -1.50451 0
M  V30 5158 C 499.777 0.149244 -2.10572 0
M  V30 5159 O 499.125 1.15861 -1.96948 0
M  V30 5160 C 499.335 -2.35904 -2.57197 0
M  V30 5161 C 500.683 -2.74262 -3.24138 0
M  V30 5162 O 501.707 -2.35205 -2.67501 0
M  V30 5163 O 500.566 -3.4161 -4.26574 0
M  V30 5164 H 497.66 -0.48872 -0.667144 0
M  V30 5165 H 500.206 -1.50165 -0.790486 0
M  V30 5166 H 498.978 -3.2953 -2.11011 0
M  V30 5167 H 498.601 -2.12291 -3.36182 0
M  V30 5168 N 499.598 0.982988 -1.23187 0
M  V30 5169 C 500.828 1.75666 -1.08743 0
M  V30 5170 C 501.236 1.85662 0.364195 0
M  V30 5171 O 500.579 1.33317 1.26382 0
M  V30 5172 C 500.641 3.20144 -1.63549 0
M  V30 5173 C 500.305 3.33665 -3.12277 0
M  V30 5174 C 501.302 3.20194 -4.096 0
M  V30 5175 C 498.987 3.58397 -3.51933 0
M  V30 5176 C 500.981 3.31256 -5.44563 0
M  V30 5177 C 498.668 3.69098 -4.87042 0
M  V30 5178 C 499.666 3.55537 -5.83166 0
M  V30 5179 O 499.354 3.65864 -7.1582 0
M  V30 5180 H 499.086 0.558194 -0.381307 0
M  V30 5181 H 501.64 1.24387 -1.63454 0
M  V30 5182 H 499.87 3.72659 -1.03256 0
M  V30 5183 H 501.559 3.79262 -1.4462 0
M  V30 5184 H 502.325 3.00987 -3.80305 0
M  V30 5185 H 498.204 3.68025 -2.77631 0
M  V30 5186 H 501.748 3.20588 -6.19572 0
M  V30 5187 H 497.645 3.87814 -5.16014 0
M  V30 5188 H 498.413 3.82675 -7.23534 0
M  V30 5189 N 501.076 1.04316 1.18135 0
M  V30 5190 C 501.986 0.646876 2.25505 0
M  V30 5191 C 503.002 -0.328008 1.7088 0
M  V30 5192 O 504.178 -0.182309 2.00573 0
M  V30 5193 C 501.243 0.0185664 3.46695 0
M  V30 5194 C 500.304 1.04277 4.16443 0
M  V30 5195 C 499.537 0.444352 5.31847 0
M  V30 5196 O 499.76 -0.748735 5.65465 0
M  V30 5197 O 498.694 1.17428 5.90334 0
M  V30 5198 H 502.52 1.54147 2.61672 0
M  V30 5199 H 500.105 0.814188 1.25265 0
M  V30 5200 H 501.987 -0.331068 4.20097 0
M  V30 5201 H 500.662 -0.849814 3.12346 0
M  V30 5202 H 499.569 1.44425 3.45098 0
M  V30 5203 H 500.902 1.882 4.54798 0
M  V30 5204 N 502.554 -1.34406 0.822964 0
M  V30 5205 C 503.831 -1.92733 0.333641 0
M  V30 5206 C 504.211 -1.75107 -1.17901 0
M  V30 5207 O 503.559 -1.12983 -1.98613 0
M  V30 5208 C 503.769 -3.40557 0.763023 0
M  V30 5209 C 505.117 -4.17709 0.761879 0
M  V30 5210 O 506.141 -3.49141 0.705606 0
M  V30 5211 O 505 -5.40082 0.835109 0
M  V30 5212 H 502.094 -0.821964 0.0911249 0
M  V30 5213 H 504.64 -1.4338 0.907757 0
M  V30 5214 H 503.412 -3.47187 1.8049 0
M  V30 5215 H 503.035 -3.97259 0.164605 0
M  V30 5216 N 504.032 -0.577932 -1.46621 0
M  V30 5217 C 505.309 0.00495287 -1.95599 0
M  V30 5218 C 505.689 1.46428 -1.5206 0
M  V30 5219 O 505.037 2.1517 -0.769046 0
M  V30 5220 C 505.247 -0.162114 -3.48623 0
M  V30 5221 C 506.595 -0.0274623 -4.24591 0
M  V30 5222 O 507.619 -0.0907067 -3.56084 0
M  V30 5223 O 506.478 0.1122 -5.46385 0
M  V30 5224 H 503.572 0.0525057 -0.825332 0
M  V30 5225 H 506.118 -0.645914 -1.56927 0
M  V30 5226 H 504.89 -1.17679 -3.73185 0
M  V30 5227 H 504.513 0.525407 -3.94113 0
M  V30 5228 N 505.51 1.54411 -0.315457 0
M  V30 5229 C 506.735 2.05299 0.294496 0
M  V30 5230 C 507.16 1.19052 1.4563 0
M  V30 5231 O 506.518 0.197804 1.80218 0
M  V30 5232 C 506.566 3.5345 0.714549 0
M  V30 5233 O 505.67 3.70175 1.81781 0
M  V30 5234 H 505.011 0.661743 0.0547019 0
M  V30 5235 H 507.541 1.99327 -0.461508 0
M  V30 5236 H 507.551 3.9557 0.999426 0
M  V30 5237 H 506.226 4.1568 -0.135244 0
M  V30 5238 H 504.803 3.3996 1.53236 0
M  V30 5239 N 506.988 0.0434614 1.5754 0
M  V30 5240 C 507.938 -0.943039 2.07583 0
M  V30 5241 C 508.922 -1.27662 0.979342 0
M  V30 5242 O 510.114 -1.26034 1.24276 0
M  V30 5243 C 507.243 -2.22056 2.61813 0
M  V30 5244 C 506.329 -1.91471 3.78417 0
M  V30 5245 N 506.72 -1.31214 4.88484 0
M  V30 5246 C 505.018 -2.21384 3.87176 0
M  V30 5247 C 505.719 -1.18084 5.69588 0
M  V30 5248 N 504.695 -1.68116 5.16951 0
M  V30 5249 H 508.497 -0.472354 2.90079 0
M  V30 5250 H 506.011 -0.161191 1.61598 0
M  V30 5251 H 508.008 -2.93618 2.95963 0
M  V30 5252 H 506.668 -2.69738 1.80752 0
M  V30 5253 H 507.679 -0.985318 5.08441 0
M  V30 5254 H 504.356 -2.7164 3.17046 0
M  V30 5255 H 505.746 -0.713684 6.68099 0
M  V30 5256 N 508.466 -1.55915 -0.229846 0
M  V30 5257 C 509.712 -1.78807 -0.956868 0
M  V30 5258 C 510.045 -0.611687 -1.84315 0
M  V30 5259 O 509.32 0.389398 -1.90562 0
M  V30 5260 C 509.603 -3.11718 -1.80288 0
M  V30 5261 C 509.456 -4.3979 -0.943649 0
M  V30 5262 C 510.775 -3.40999 -2.78222 0
M  V30 5263 H 507.894 -0.6505 -0.346437 0
M  V30 5264 H 510.536 -1.88648 -0.226252 0
M  V30 5265 H 508.686 -3.03459 -2.42579 0
M  V30 5266 H 510.358 -4.60059 -0.338121 0
M  V30 5267 H 508.601 -4.33086 -0.248705 0
M  V30 5268 H 509.272 -5.29208 -1.5698 0
M  V30 5269 H 511.748 -3.49332 -2.26067 0
M  V30 5270 H 510.624 -4.35183 -3.34526 0
M  V30 5271 H 510.885 -2.62754 -3.55546 0
M  V30 5272 N 509.944 0.496216 -1.49584 0
M  V30 5273 C 511.191 1.25003 -1.59312 0
M  V30 5274 C 511.519 1.92445 -0.28198 0
M  V30 5275 O 510.774 1.81557 0.730452 0
M  V30 5276 C 511.073 2.3359 -2.705 0
M  V30 5277 C 510.739 1.83574 -4.11839 0
M  V30 5278 C 509.401 1.69653 -4.50302 0
M  V30 5279 C 511.753 1.46193 -5.00277 0
M  V30 5280 C 509.081 1.16736 -5.74969 0
M  V30 5281 C 511.433 0.947265 -6.25468 0
M  V30 5282 C 510.097 0.794485 -6.62755 0
M  V30 5283 H 509.367 0.45742 -0.582965 0
M  V30 5284 H 512.014 0.549996 -1.83432 0
M  V30 5285 H 510.319 3.09401 -2.40371 0
M  V30 5286 H 512.016 2.91627 -2.75235 0
M  V30 5287 H 508.606 1.9537 -3.81482 0
M  V30 5288 H 512.79 1.55793 -4.71214 0
M  V30 5289 H 508.046 1.03623 -6.02555 0
M  V30 5290 H 512.22 0.648846 -6.93371 0
M  V30 5291 H 509.847 0.382271 -7.59238 0
M  V30 5292 N 511.423 1.38739 0.74761 0
M  V30 5293 C 512.839 1.20067 1.05148 0
M  V30 5294 C 513.039 0.0534835 2.01429 0
M  V30 5295 O 512.095 -0.59886 2.45296 0
M  V30 5296 C 513.408 2.52957 1.62584 0
M  V30 5297 C 514.956 2.59692 1.74726 0
M  V30 5298 C 515.431 3.92772 2.35573 0
M  V30 5299 N 516.922 3.94343 2.42997 0
M  V30 5300 C 517.657 4.9408 2.90985 0
M  V30 5301 N 517.153 6.04214 3.38965 0
M  V30 5302 N 518.946 4.81466 2.9008 0
M  V30 5303 H 511.097 2.12121 0.108808 0
M  V30 5304 H 513.36 0.941491 0.110899 0
M  V30 5305 H 513.066 3.37389 0.993051 0
M  V30 5306 H 512.94 2.71779 2.61565 0
M  V30 5307 H 515.327 1.75651 2.3713 0
M  V30 5308 H 515.408 2.44731 0.744326 0
M  V30 5309 H 515.052 4.77238 1.738 0
M  V30 5310 H 514.982 4.05046 3.36519 0
M  V30 5311 H 517.473 3.14799 2.0907 0
M  V30 5312 H 517.786 6.76241 3.74056 0
M  V30 5313 H 516.131 6.07825 3.37007 0
M  V30 5314 H 519.322 3.94535 2.51912 0
M  V30 5315 H 519.495 5.59344 3.27166 0
M  V30 5316 N 512.901 -0.976442 1.23707 0
M  V30 5317 C 513.848 -2.06952 1.02174 0
M  V30 5318 C 514.818 -1.65984 -0.0621034 0
M  V30 5319 O 516.003 -1.90584 0.0907906 0
M  V30 5320 C 513.143 -3.39425 0.62327 0
M  V30 5321 C 512.256 -3.9364 1.77966 0
M  V30 5322 C 511.391 -5.14343 1.3276 0
M  V30 5323 C 510.43 -5.60733 2.45449 0
M  V30 5324 N 509.567 -6.72662 2.01172 0
M  V30 5325 H 514.407 -2.24704 1.95734 0
M  V30 5326 H 511.944 -1.10143 0.975034 0
M  V30 5327 H 513.902 -4.15526 0.37332 0
M  V30 5328 H 512.532 -3.21624 -0.275329 0
M  V30 5329 H 511.584 -3.14258 2.14351 0
M  V30 5330 H 512.896 -4.24035 2.62671 0
M  V30 5331 H 512.05 -5.97789 1.03601 0
M  V30 5332 H 510.789 -4.8561 0.450975 0
M  V30 5333 H 509.794 -4.75865 2.75378 0
M  V30 5334 H 511.019 -5.91483 3.33654 0
M  V30 5335 H 508.965 -6.45681 1.15895 0
M  V30 5336 H 508.882 -7.02462 2.79434 0
M  V30 5337 H 510.15 -7.59572 1.75129 0
M  V30 5338 N 514.379 -1.04941 -1.1758 0
M  V30 5339 C 515.79 -0.784501 -1.69418 0
M  V30 5340 C 516.141 0.693625 -1.8353 0
M  V30 5341 O 515.266 1.53925 -1.52106 0
M  V30 5342 C 515.861 -1.41746 -3.07723 0
M  V30 5343 C 514.42 -1.20066 -3.56737 0
M  V30 5344 C 513.567 -1.5026 -2.33061 0
M  V30 5345 H 516.518 -1.21469 -1.02133 0
M  V30 5346 H 516.539 -0.825381 -3.7144 0
M  V30 5347 H 516.051 -2.49325 -2.9742 0
M  V30 5348 H 514.152 -0.144006 -3.72322 0
M  V30 5349 H 514.265 -1.90384 -4.39648 0
M  V30 5350 H 512.629 -0.922598 -2.37403 0
M  V30 5351 H 513.412 -2.58967 -2.25368 0
M  V30 5352 N 515.857 1.33968 -0.830081 0
M  V30 5353 C 516.82 2.27694 -0.26235 0
M  V30 5354 C 517.82 1.50589 0.563876 0
M  V30 5355 O 519.01 1.70028 0.378941 0
M  V30 5356 C 516.142 3.35002 0.63138 0
M  V30 5357 H 517.335 2.79419 -1.08928 0
M  V30 5358 H 514.888 1.44221 -0.602486 0
M  V30 5359 H 515.623 2.88504 1.48109 0
M  V30 5360 H 515.408 3.92079 0.0403276 0
M  V30 5361 H 516.898 4.04897 1.02217 0
M  V30 5362 N 517.335 0.585699 1.46312 0
M  V30 5363 C 518.283 -0.158577 2.32059 0
M  V30 5364 C 519.277 -0.881427 1.44662 0
M  V30 5365 O 520.483 -0.799476 1.61271 0
M  V30 5366 H 516.858 -0.0700066 0.748734 0
M  V30 5367 H 518.829 0.583383 2.92642 0
M  V30 5368 C 517.578 -1.15701 3.27885 0
M  V30 5369 H 516.901 -0.610215 3.95116 0
M  V30 5370 H 518.341 -1.64812 3.90657 0
M  V30 5371 C 516.8 -2.21951 2.53455 0
M  V30 5372 O 517.33 -3.29352 2.29978 0
M  V30 5373 N 515.536 -1.9664 2.13965 0
M  V30 5374 H 515.083 -1.09309 2.33258 0
M  V30 5375 H 515.041 -2.6794 1.64485 0
M  V30 5376 N 518.813 -1.54241 0.323641 0
M  V30 5377 C 520.09 -1.92741 -0.333181 0
M  V30 5378 C 520.47 -1.25326 -1.69872 0
M  V30 5379 O 519.818 -0.396991 -2.25025 0
M  V30 5380 C 520.028 -3.46399 -0.425322 0
M  V30 5381 C 521.376 -4.19029 -0.68557 0
M  V30 5382 O 522.4 -3.52555 -0.50824 0
M  V30 5383 O 521.259 -5.36751 -1.02767 0
M  V30 5384 H 518.353 -0.804811 -0.190286 0
M  V30 5385 H 520.899 -1.65542 0.373361 0
M  V30 5386 H 519.671 -3.87643 0.533737 0
M  V30 5387 H 519.294 -3.79704 -1.17944 0
M  V30 5388 N 520.291 -0.0518155 -1.57515 0
M  V30 5389 C 521.54 0.621286 -1.91893 0
M  V30 5390 C 521.853 1.71966 -0.932052 0
M  V30 5391 O 523.059 2.45096 -1.16791 0
M  V30 5392 C 521.515 1.15641 -3.40816 0
M  V30 5393 C 521.123 0.0901146 -4.47909 0
M  V30 5394 C 522.867 1.80472 -3.84227 0
M  V30 5395 C 520.774 0.638154 -5.87947 0
M  V30 5396 H 519.704 0.235835 -0.716169 0
M  V30 5397 H 522.355 -0.120809 -1.83102 0
M  V30 5398 H 520.737 1.95084 -3.44613 0
M  V30 5399 H 521.911 -0.683525 -4.55702 0
M  V30 5400 H 520.226 -0.460774 -4.13843 0
M  V30 5401 H 522.823 2.22471 -4.86221 0
M  V30 5402 H 523.166 2.65669 -3.20508 0
M  V30 5403 H 523.699 1.07683 -3.82948 0
M  V30 5404 H 520.438 -0.176202 -6.55263 0
M  V30 5405 H 519.958 1.37976 -5.83714 0
M  V30 5406 H 521.637 1.12085 -6.37217 0
M  V30 5407 N 521.769 1.56035 0.221574 0
M  V30 5408 C 522.997 1.8313 0.962864 0
M  V30 5409 C 523.412 0.630934 1.77946 0
M  V30 5410 O 522.769 -0.400519 1.78051 0
M  V30 5411 C 522.82 3.08742 1.88045 0
M  V30 5412 O 522.541 4.24147 1.09686 0
M  V30 5413 C 524.042 3.48824 2.73563 0
M  V30 5414 H 521.262 0.608775 0.282194 0
M  V30 5415 H 523.806 2.03124 0.23681 0
M  V30 5416 H 521.961 2.90723 2.56045 0
M  V30 5417 H 522.375 4.95505 1.71974 0
M  V30 5418 H 523.849 4.39752 3.3365 0
M  V30 5419 H 524.326 2.70575 3.45956 0
M  V30 5420 H 524.932 3.69282 2.10976 0
M  V30 5421 N 523.247 -0.488276 1.49845 0
M  V30 5422 C 524.472 -1.26997 1.63971 0
M  V30 5423 C 524.897 -1.85427 0.315994 0
M  V30 5424 O 524.255 -1.66475 -0.718032 0
M  V30 5425 C 524.303 -2.36689 2.72049 0
M  V30 5426 O 523.407 -3.40882 2.32107 0
M  V30 5427 H 522.748 -0.374376 0.548396 0
M  V30 5428 H 525.278 -0.583104 1.96115 0
M  V30 5429 H 525.288 -2.82262 2.94605 0
M  V30 5430 H 523.963 -1.93529 3.68129 0
M  V30 5431 H 522.54 -3.01139 2.19931 0
M  V30 5432 N 524.725 -1.39134 -0.740242 0
M  V30 5433 C 525.657 -1.33332 -1.86428 0
M  V30 5434 C 526.67 -0.243042 -1.60976 0
M  V30 5435 O 527.859 -0.501608 -1.71307 0
M  V30 5436 C 524.959 -1.04626 -3.22346 0
M  V30 5437 C 524.132 -2.24826 -3.75196 0
M  V30 5438 C 523.191 -1.92659 -4.89662 0
M  V30 5439 O 522.217 -2.6529 -5.03597 0
M  V30 5440 N 523.419 -0.889575 -5.73643 0
M  V30 5441 H 526.184 -2.30196 -1.91911 0
M  V30 5442 H 523.745 -1.33168 -0.920756 0
M  V30 5443 H 525.737 -0.811347 -3.96484 0
M  V30 5444 H 524.307 -0.165129 -3.12164 0
M  V30 5445 H 523.527 -2.64301 -2.9247 0
M  V30 5446 H 524.815 -3.05015 -4.07239 0
M  V30 5447 H 524.213 -0.287529 -5.64969 0
M  V30 5448 H 522.77 -0.714557 -6.47871 0
M  V30 5449 N 526.204 0.969867 -1.24223 0
M  V30 5450 C 527.134 2.08191 -1.05729 0
M  V30 5451 C 528.115 1.70075 0.0290765 0
M  V30 5452 O 529.3 1.93712 -0.137583 0
M  V30 5453 C 526.43 3.40991 -0.658995 0
M  V30 5454 C 525.384 3.93054 -1.69389 0
M  V30 5455 C 524.71 5.22171 -1.15072 0
M  V30 5456 C 526.01 4.21137 -3.08935 0
M  V30 5457 H 527.704 2.23921 -1.98746 0
M  V30 5458 H 525.25 1.07602 -0.956967 0
M  V30 5459 H 527.203 4.18221 -0.51662 0
M  V30 5460 H 525.927 3.25155 0.30686 0
M  V30 5461 H 524.586 3.17977 -1.82444 0
M  V30 5462 H 524.234 5.02694 -0.175539 0
M  V30 5463 H 523.934 5.57973 -1.84229 0
M  V30 5464 H 525.458 6.02013 -1.02042 0
M  V30 5465 H 526.872 4.8908 -2.99121 0
M  V30 5466 H 525.269 4.68163 -3.75425 0
M  V30 5467 H 526.339 3.27996 -3.57137 0
M  V30 5468 N 527.682 1.05563 1.17022 0
M  V30 5469 C 528.592 0.670758 2.24807 0
M  V30 5470 C 529.608 -0.309865 1.71219 0
M  V30 5471 O 530.784 -0.161025 2.00755 0
M  V30 5472 C 527.849 0.055337 3.46656 0
M  V30 5473 C 526.91 1.08688 4.15314 0
M  V30 5474 C 526.143 0.500736 5.31346 0
M  V30 5475 O 526.366 -0.688718 5.66227 0
M  V30 5476 O 525.3 1.23683 5.89055 0
M  V30 5477 H 529.126 1.56914 2.60023 0
M  V30 5478 H 526.711 0.827428 1.24395 0
M  V30 5479 H 528.593 -0.286492 4.20425 0
M  V30 5480 H 527.268 -0.816638 3.13229 0
M  V30 5481 H 526.175 1.48077 3.43546 0
M  V30 5482 H 527.508 1.93014 4.52777 0
M  V30 5483 N 529.16 -1.33526 0.837174 0
M  V30 5484 C 530.409 -1.97098 0.428387 0
M  V30 5485 C 530.722 -1.67062 -1.01734 0
M  V30 5486 O 531.928 -2.24235 -1.53072 0
M  V30 5487 C 530.384 -3.52725 0.715075 0
M  V30 5488 C 529.992 -3.9164 2.17537 0
M  V30 5489 C 531.736 -4.22857 0.373154 0
M  V30 5490 C 529.643 -5.40237 2.40619 0
M  V30 5491 H 528.573 -0.737589 0.156455 0
M  V30 5492 H 531.224 -1.52169 1.02552 0
M  V30 5493 H 529.606 -3.95971 0.0475904 0
M  V30 5494 H 530.78 -3.59456 2.88319 0
M  V30 5495 H 529.095 -3.34485 2.4801 0
M  V30 5496 H 531.692 -5.32133 0.523264 0
M  V30 5497 H 532.035 -4.10647 -0.683708 0
M  V30 5498 H 532.568 -3.85135 0.995801 0
M  V30 5499 H 529.307 -5.57449 3.44864 0
M  V30 5500 H 528.827 -5.73887 1.74396 0
M  V30 5501 H 530.506 -6.07102 2.23688 0
M  V30 5502 N 530.638 -0.59345 -1.46 0
M  V30 5503 C 531.586 0.146268 -2.3214 0
M  V30 5504 C 532.58 0.873743 -1.45128 0
M  V30 5505 O 533.786 0.790912 -1.61693 0
M  V30 5506 H 530.161 0.0660349 -0.749095 0
M  V30 5507 H 532.132 -0.598895 -2.92328 0
M  V30 5508 C 530.881 1.1396 -3.28494 0
M  V30 5509 H 530.204 0.589252 -3.95434 0
M  V30 5510 H 531.644 1.62738 -3.91526 0
M  V30 5511 C 530.103 2.20604 -2.54628 0
M  V30 5512 O 530.633 3.28128 -2.31722 0
M  V30 5513 N 528.839 1.95502 -2.15005 0
M  V30 5514 H 528.386 1.0807 -2.33834 0
M  V30 5515 H 528.344 2.67064 -1.65904 0
M  V30 5516 N 532.116 1.54067 -0.331816 0
M  V30 5517 C 533.363 2.00715 0.268269 0
M  V30 5518 C 533.691 1.21986 1.51491 0
M  V30 5519 O 532.946 0.292309 1.93505 0
M  V30 5520 C 533.245 3.51634 0.639392 0
M  V30 5521 C 532.911 4.48018 -0.509019 0
M  V30 5522 C 531.573 4.74089 -0.824209 0
M  V30 5523 C 533.925 5.05237 -1.28003 0
M  V30 5524 C 531.253 5.54637 -1.91298 0
M  V30 5525 C 533.605 5.86972 -2.35895 0
M  V30 5526 C 532.269 6.11342 -2.67987 0
M  V30 5527 H 531.539 0.734469 0.0981667 0
M  V30 5528 H 534.186 1.8596 -0.457304 0
M  V30 5529 H 532.491 3.6416 1.44551 0
M  V30 5530 H 534.188 3.85175 1.11539 0
M  V30 5531 H 530.778 4.27851 -0.253287 0
M  V30 5532 H 534.962 4.8507 -1.04978 0
M  V30 5533 H 530.218 5.71747 -2.16599 0
M  V30 5534 H 534.392 6.30327 -2.96076 0
M  V30 5535 H 532.019 6.73544 -3.5248 0
M  V30 5536 N 533.594 0.0601682 1.57485 0
M  V30 5537 C 534.842 -0.610386 1.92662 0
M  V30 5538 C 535.163 -1.70849 0.939981 0
M  V30 5539 O 534.433 -1.95895 -0.0137455 0
M  V30 5540 H 533.013 -0.228457 0.711208 0
M  V30 5541 H 535.675 0.115288 1.94559 0
M  V30 5542 H 534.771 -1.0432 2.94149 0
M  V30 5543 N 535.072 -1.5615 -0.213296 0
M  V30 5544 C 536.02 -1.93953 -1.28394 0
M  V30 5545 C 537.014 -0.822592 -1.48087 0
M  V30 5546 O 538.22 -1.00748 -1.49164 0
M  V30 5547 H 534.595 -0.61648 -0.430646 0
M  V30 5548 H 536.566 -2.83275 -0.937977 0
M  V30 5549 C 535.315 -2.27969 -2.62537 0
M  V30 5550 H 534.638 -3.13432 -2.48194 0
M  V30 5551 H 536.078 -2.58297 -3.36242 0
M  V30 5552 C 534.537 -1.10775 -3.18167 0
M  V30 5553 O 535.067 -0.373201 -3.99963 0
M  V30 5554 N 533.273 -0.889377 -2.76656 0
M  V30 5555 H 532.82 -1.48843 -2.10246 0
M  V30 5556 H 532.778 -0.107 -3.14218 0
M  V30 5557 N 536.55 0.480323 -1.50102 0
M  V30 5558 C 537.48 1.58769 -1.71215 0
M  V30 5559 C 538.461 1.60583 -0.560997 0
M  V30 5560 O 539.646 1.76996 -0.799127 0
M  V30 5561 C 536.776 2.97148 -1.79778 0
M  V30 5562 C 535.73 3.10201 -2.94888 0
M  V30 5563 C 535.056 4.50137 -2.88584 0
M  V30 5564 C 536.356 2.88283 -4.35534 0
M  V30 5565 H 538.05 1.41354 -2.6393 0
M  V30 5566 H 535.596 0.678591 -1.27008 0
M  V30 5567 H 537.549 3.74536 -1.93133 0
M  V30 5568 H 536.273 3.15699 -0.836772 0
M  V30 5569 H 534.932 2.35244 -2.81169 0
M  V30 5570 H 534.58 4.65593 -1.90349 0
M  V30 5571 H 534.28 4.59808 -3.65856 0
M  V30 5572 H 535.804 5.29558 -3.03976 0
M  V30 5573 H 537.218 3.55427 -4.49827 0
M  V30 5574 H 535.615 3.09408 -5.14186 0
M  V30 5575 H 536.685 1.84219 -4.48544 0
M  V30 5576 N 538.028 1.39524 0.732853 0
M  V30 5577 C 539.439 1.32905 1.31122 0
M  V30 5578 C 539.79 -0.00558708 1.96199 0
M  V30 5579 O 538.915 -0.907706 1.96443 0
M  V30 5580 C 539.51 2.40704 2.38426 0
M  V30 5581 C 538.069 2.37599 2.91931 0
M  V30 5582 C 537.216 2.2248 1.65523 0
M  V30 5583 H 540.167 1.49581 0.530207 0
M  V30 5584 H 540.188 2.07616 3.18867 0
M  V30 5585 H 539.7 3.37829 1.91033 0
M  V30 5586 H 537.801 1.44119 3.43599 0
M  V30 5587 H 537.914 3.32538 3.44899 0
M  V30 5588 H 536.278 1.69691 1.8994 0
M  V30 5589 H 537.061 3.21577 1.20178 0
M  V30 5590 N 539.506 -0.963266 1.24736 0
M  V30 5591 C 540.922 -1.23273 1.01371 0
M  V30 5592 C 541.122 -1.99618 -0.274776 0
M  V30 5593 O 540.178 -2.32293 -0.989769 0
M  V30 5594 C 541.491 -2.01554 2.23152 0
M  V30 5595 C 543.039 -2.14629 2.27823 0
M  V30 5596 C 543.514 -2.96307 3.49237 0
M  V30 5597 N 545.005 -3.03887 3.49581 0
M  V30 5598 C 545.74 -3.67456 4.40186 0
M  V30 5599 N 545.236 -4.32706 5.41052 0
M  V30 5600 N 547.029 -3.64511 4.27888 0
M  V30 5601 H 539.18 -0.452294 2.07528 0
M  V30 5602 H 541.443 -0.262521 0.910926 0
M  V30 5603 H 541.149 -1.52847 3.1675 0
M  V30 5604 H 541.023 -3.02278 2.25628 0
M  V30 5605 H 543.41 -2.62537 1.34753 0
M  V30 5606 H 543.491 -1.13238 2.2937 0
M  V30 5607 H 543.135 -2.49091 4.42624 0
M  V30 5608 H 543.065 -3.97905 3.44933 0
M  V30 5609 H 545.556 -2.57477 2.76611 0
M  V30 5610 H 545.869 -4.79042 6.06415 0
M  V30 5611 H 544.214 -4.31361 5.44934 0
M  V30 5612 H 547.405 -3.12715 3.4832 0
M  V30 5613 H 547.578 -4.13768 4.98698 0
M  V30 5614 N 540.985 -1.06182 -1.16461 0
M  V30 5615 C 542.396 -0.802426 -1.68576 0
M  V30 5616 C 542.747 0.67412 -1.84255 0
M  V30 5617 O 541.872 1.52303 -1.5373 0
M  V30 5618 C 542.467 -1.45002 -3.06202 0
M  V30 5619 C 541.026 -1.23843 -3.55443 0
M  V30 5620 C 540.173 -1.52724 -2.31454 0
M  V30 5621 H 543.124 -1.22545 -1.00839 0
M  V30 5622 H 543.145 -0.864731 -3.70544 0
M  V30 5623 H 542.657 -2.52466 -2.94759 0
M  V30 5624 H 540.758 -0.183487 -3.72148 0
M  V30 5625 H 540.871 -1.95036 -4.37604 0
M  V30 5626 H 539.235 -0.947726 -2.36411 0
M  V30 5627 H 540.018 -2.61343 -2.22609 0
M  V30 5628 N 542.463 1.3308 -0.844243 0
M  V30 5629 C 543.711 1.97215 -0.441676 0
M  V30 5630 C 544.032 1.67185 1.0037 0
M  V30 5631 O 543.302 0.973588 1.69994 0
M  V30 5632 H 541.882 0.72959 -0.160335 0
M  V30 5633 H 544.544 1.62348 -1.07838 0
M  V30 5634 H 543.64 3.06698 -0.57815 0
M  V30 5635 N 543.941 0.601185 1.45683 0
M  V30 5636 C 545.357 0.264315 1.57396 0
M  V30 5637 C 545.557 -1.23324 1.59353 0
M  V30 5638 O 544.613 -2.01594 1.52039 0
M  V30 5639 C 545.926 0.929839 2.85962 0
M  V30 5640 C 547.474 0.905156 2.99626 0
M  V30 5641 C 547.949 1.55057 4.30954 0
M  V30 5642 N 549.44 1.51576 4.37697 0
M  V30 5643 C 550.175 1.98436 5.37969 0
M  V30 5644 N 549.671 2.53352 6.44813 0
M  V30 5645 N 551.464 1.89242 5.29286 0
M  V30 5646 H 543.615 1.57363 1.42656 0
M  V30 5647 H 545.878 0.658831 0.681649 0
M  V30 5648 H 545.584 1.98404 2.90394 0
M  V30 5649 H 545.458 0.449224 3.74515 0
M  V30 5650 H 547.845 -0.14048 2.94765 0
M  V30 5651 H 547.926 1.42397 2.12501 0
M  V30 5652 H 547.57 2.5955 4.36573 0
M  V30 5653 H 547.5 1.00682 5.16886 0
M  V30 5654 H 549.991 1.11452 3.61091 0
M  V30 5655 H 550.304 2.86918 7.17564 0
M  V30 5656 H 548.649 2.57388 6.45582 0
M  V30 5657 H 551.84 1.46083 4.44722 0
M  V30 5658 H 552.013 2.26075 6.07284 0
M  V30 5659 N 545.419 -1.53889 0.339982 0
M  V30 5660 C 546.667 -2.00458 -0.257112 0
M  V30 5661 C 546.988 -1.22953 -1.51353 0
M  V30 5662 O 546.258 -0.335734 -1.93002 0
M  V30 5663 H 544.838 -0.740544 -0.0979965 0
M  V30 5664 H 547.5 -1.89386 0.460317 0
M  V30 5665 H 546.596 -3.08035 -0.502057 0
M  V30 5666 N 546.897 -0.0685191 -1.57451 0
M  V30 5667 C 547.86 0.885173 -2.11417 0
M  V30 5668 C 548.86 1.22853 -1.03748 0
M  V30 5669 O 550.05 1.16235 -1.2975 0
M  V30 5670 C 547.182 2.18964 -2.61281 0
M  V30 5671 H 548.375 0.417034 -2.96986 0
M  V30 5672 H 545.928 0.18014 -1.55258 0
M  V30 5673 H 546.663 2.70321 -1.79156 0
M  V30 5674 H 546.448 1.9534 -3.39977 0
M  V30 5675 H 547.938 2.87242 -3.0312 0
M  V30 5676 N 548.375 1.56261 0.205012 0
M  V30 5677 C 549.791 1.49623 0.555433 0
M  V30 5678 C 549.991 0.766719 1.86343 0
M  V30 5679 O 549.047 0.313158 2.50551 0
M  V30 5680 C 550.36 2.94253 0.619347 0
M  V30 5681 C 551.908 3.04868 0.708855 0
M  V30 5682 C 552.383 4.50888 0.803969 0
M  V30 5683 N 553.874 4.54999 0.867758 0
M  V30 5684 C 554.609 5.65284 0.96135 0
M  V30 5685 N 554.105 6.85282 1.01786 0
M  V30 5686 N 555.898 5.53174 0.997771 0
M  V30 5687 H 548.049 2.0211 -0.653094 0
M  V30 5688 H 550.312 0.919333 -0.231366 0
M  V30 5689 H 550.018 3.50643 -0.272458 0
M  V30 5690 H 549.892 3.47063 1.47741 0
M  V30 5691 H 552.279 2.48532 1.5911 0
M  V30 5692 H 552.36 2.55199 -0.175205 0
M  V30 5693 H 552.004 5.07846 -0.0738798 0
M  V30 5694 H 551.934 4.98279 1.70369 0
M  V30 5695 H 554.425 3.68588 0.833735 0
M  V30 5696 H 554.738 7.65081 1.08951 0
M  V30 5697 H 553.083 6.8796 0.986706 0
M  V30 5698 H 556.274 4.5835 0.950392 0
M  V30 5699 H 556.447 6.39151 1.06725 0
M  V30 5700 N 549.853 -0.472356 1.50355 0
M  V30 5701 C 551.101 -1.22211 1.60962 0
M  V30 5702 C 551.422 -1.92497 0.311439 0
M  V30 5703 O 550.692 -1.8405 -0.671002 0
M  V30 5704 H 549.272 -0.454092 0.593135 0
M  V30 5705 H 551.934 -0.544977 1.87126 0
M  V30 5706 H 551.03 -1.9707 2.42012 0
M  V30 5707 N 551.331 -1.39911 -0.725443 0
M  V30 5708 C 552.579 -1.37382 -1.48224 0
M  V30 5709 C 552.9 0.0264107 -1.94982 0
M  V30 5710 O 552.17 0.979408 -1.6966 0
M  V30 5711 H 550.75 -0.505596 -0.549892 0
M  V30 5712 H 553.412 -1.7487 -0.860608 0
M  V30 5713 H 552.508 -2.04254 -2.3598 0
M  V30 5714 N 552.809 0.956637 -1.25245 0
M  V30 5715 C 554.037 1.73571 -1.12608 0
M  V30 5716 C 554.452 1.86063 0.320324 0
M  V30 5717 O 553.809 1.35691 1.22042 0
M  V30 5718 C 553.86 3.15053 -1.77268 0
M  V30 5719 O 553.581 3.03174 -3.16255 0
M  V30 5720 C 555.082 4.09248 -1.70386 0
M  V30 5721 H 552.302 0.543955 -0.392879 0
M  V30 5722 H 554.846 1.20031 -1.65568 0
M  V30 5723 H 553.001 3.65543 -1.28284 0
M  V30 5724 H 553.415 3.9241 -3.48015 0
M  V30 5725 H 554.889 5.06138 -2.20291 0
M  V30 5726 H 555.366 4.34102 -0.667239 0
M  V30 5727 H 555.972 3.64672 -2.18849 0
M  V30 5728 N 554.287 1.06798 1.15896 0
M  V30 5729 C 555.703 0.792423 1.38538 0
M  V30 5730 C 555.903 -0.60592 1.92174 0
M  V30 5731 O 554.959 -1.36561 2.12385 0
M  V30 5732 C 556.272 1.86157 2.36149 0
M  V30 5733 C 557.82 1.88567 2.49823 0
M  V30 5734 C 558.295 2.9455 3.5072 0
M  V30 5735 N 559.786 2.93616 3.58251 0
M  V30 5736 C 560.521 3.72267 4.36125 0
M  V30 5737 N 560.017 4.60751 5.17379 0
M  V30 5738 N 561.81 3.60637 4.31158 0
M  V30 5739 H 553.961 1.96993 0.794198 0
M  V30 5740 H 556.224 0.853942 0.411688 0
M  V30 5741 H 555.93 2.86603 2.03843 0
M  V30 5742 H 555.804 1.71692 3.3586 0
M  V30 5743 H 558.191 0.887765 2.8143 0
M  V30 5744 H 558.272 2.0711 1.5013 0
M  V30 5745 H 557.916 3.94537 3.19849 0
M  V30 5746 H 557.846 2.73255 4.50155 0
M  V30 5747 H 560.337 2.29472 3.00252 0
M  V30 5748 H 560.65 5.17408 5.74028 0
M  V30 5749 H 558.995 4.64803 5.16704 0
M  V30 5750 H 562.186 2.90892 3.66742 0
M  V30 5751 H 562.359 4.22176 4.91601 0
M  V30 5752 N 555.766 -1.3263 0.851289 0
M  V30 5753 C 557.014 -1.96978 0.452128 0
M  V30 5754 C 557.335 -1.67715 -0.99482 0
M  V30 5755 O 556.605 -0.98259 -1.69476 0
M  V30 5756 H 555.185 -0.72873 0.164202 0
M  V30 5757 H 557.847 -1.61774 1.08698 0
M  V30 5758 H 556.943 -3.06387 0.594407 0
M  V30 5759 N 557.244 -0.608902 -1.45362 0
M  V30 5760 C 558.492 -0.104401 -2.0183 0
M  V30 5761 C 558.813 1.27007 -1.47967 0
M  V30 5762 O 558.083 1.83924 -0.674455 0
M  V30 5763 H 556.663 -0.0356042 -0.746151 0
M  V30 5764 H 559.325 -0.790596 -1.78145 0
M  V30 5765 H 558.421 -0.0551793 -3.12051 0
M  V30 5766 N 558.722 1.53707 -0.348139 0
M  V30 5767 C 560.138 1.596 0.00361134 0
M  V30 5768 C 560.338 1.36394 1.4832 0
M  V30 5769 O 559.394 1.16046 2.24253 0
M  V30 5770 C 560.707 2.97512 -0.436682 0
M  V30 5771 C 562.255 3.10568 -0.389416 0
M  V30 5772 C 562.73 4.50866 -0.805249 0
M  V30 5773 N 564.221 4.56929 -0.759616 0
M  V30 5774 C 564.956 5.63643 -1.05327 0
M  V30 5775 N 564.452 6.78189 -1.41531 0
M  V30 5776 N 566.245 5.5354 -0.977207 0
M  V30 5777 H 558.396 1.67044 -1.31187 0
M  V30 5778 H 560.659 0.782559 -0.535075 0
M  V30 5779 H 560.365 3.19575 -1.46849 0
M  V30 5780 H 560.239 3.76742 0.185744 0
M  V30 5781 H 562.626 2.88226 0.633228 0
M  V30 5782 H 562.707 2.33387 -1.04711 0
M  V30 5783 H 562.351 4.73943 -1.82593 0
M  V30 5784 H 562.281 5.26452 -0.124989 0
M  V30 5785 H 564.772 3.74675 -0.49265 0
M  V30 5786 H 565.085 7.55541 -1.62411 0
M  V30 5787 H 563.43 6.79624 -1.45381 0
M  V30 5788 H 566.621 4.62932 -0.693675 0
M  V30 5789 H 566.794 6.36614 -1.2094 0
M  V30 5790 N 560.2 0.0768682 1.57412 0
M  V30 5791 C 561.448 -0.589918 1.93299 0
M  V30 5792 C 561.769 -1.69842 0.958049 0
M  V30 5793 O 561.039 -1.95899 0.00703261 0
M  V30 5794 H 559.619 -0.220901 0.713591 0
M  V30 5795 H 562.281 0.135917 1.94425 0
M  V30 5796 H 561.377 -1.01195 2.95239 0
M  V30 5797 N 561.678 -1.56367 -0.196722 0
M  V30 5798 C 563.094 -1.49916 -0.54749 0
M  V30 5799 C 563.294 -0.77659 -1.85934 0
M  V30 5800 O 562.35 -0.32644 -2.50381 0
M  V30 5801 C 563.663 -2.94577 -0.603734 0
M  V30 5802 C 565.211 -3.05239 -0.692677 0
M  V30 5803 C 565.686 -4.51308 -0.780046 0
M  V30 5804 N 567.177 -4.55453 -0.843616 0
M  V30 5805 C 567.912 -5.65786 -0.931358 0
M  V30 5806 N 567.408 -6.85812 -0.981503 0
M  V30 5807 N 569.201 -5.53695 -0.968421 0
M  V30 5808 H 561.352 -2.01761 0.663803 0
M  V30 5809 H 563.615 -0.918094 0.236238 0
M  V30 5810 H 563.321 -3.50494 0.29105 0
M  V30 5811 H 563.195 -3.47841 -1.45898 0
M  V30 5812 H 565.582 -2.49372 -1.57789 0
M  V30 5813 H 565.663 -2.55103 0.188736 0
M  V30 5814 H 565.307 -5.078 0.100811 0
M  V30 5815 H 565.237 -4.99176 -1.67724 0
M  V30 5816 H 567.728 -3.69025 -0.814176 0
M  V30 5817 H 568.041 -7.65648 -1.04892 0
M  V30 5818 H 566.386 -6.88474 -0.950208 0
M  V30 5819 H 569.577 -4.58848 -0.926072 0
M  V30 5820 H 569.75 -6.39708 -1.03334 0
M  V30 5821 N 563.156 0.464375 -1.50603 0
M  V30 5822 C 564.405 1.21277 -1.61167 0
M  V30 5823 C 564.718 1.92953 -0.320704 0
M  V30 5824 O 565.924 2.69778 -0.30534 0
M  V30 5825 C 564.38 2.20403 -2.84518 0
M  V30 5826 C 563.988 1.54499 -4.20516 0
M  V30 5827 C 565.732 2.95843 -3.0443 0
M  V30 5828 C 563.639 2.51951 -5.35047 0
M  V30 5829 H 562.569 0.456367 -0.600204 0
M  V30 5830 H 565.22 0.48254 -1.77042 0
M  V30 5831 H 563.602 2.96746 -2.62217 0
M  V30 5832 H 564.776 0.83899 -4.53098 0
M  V30 5833 H 563.091 0.913152 -4.06264 0
M  V30 5834 H 565.688 3.6879 -3.87167 0
M  V30 5835 H 566.031 3.55622 -2.16423 0
M  V30 5836 H 566.564 2.26611 -3.26944 0
M  V30 5837 H 563.303 1.96901 -6.25228 0
M  V30 5838 H 562.823 3.20683 -5.06875 0
M  V30 5839 H 564.502 3.13643 -5.65895 0
M  V30 5840 N 564.634 1.40294 0.718013 0
M  V30 5841 C 566.05 1.2227 1.02577 0
M  V30 5842 C 566.25 0.0961976 2.0127 0
M  V30 5843 O 565.306 -0.546695 2.46511 0
M  V30 5844 C 566.619 2.56348 1.57182 0
M  V30 5845 C 568.167 2.6334 1.69178 0
M  V30 5846 C 568.642 3.9768 2.27188 0
M  V30 5847 N 570.133 3.99409 2.34578 0
M  V30 5848 C 570.868 5.00141 2.8044 0
M  V30 5849 N 570.364 6.11268 3.26073 0
M  V30 5850 N 572.157 4.87511 2.79802 0
M  V30 5851 H 564.308 2.12304 0.0637899 0
M  V30 5852 H 566.571 0.943632 0.0909036 0
M  V30 5853 H 566.277 3.3942 0.921262 0
M  V30 5854 H 566.151 2.77266 2.55741 0
M  V30 5855 H 568.538 1.80641 2.33351 0
M  V30 5856 H 568.619 2.46255 0.692247 0
M  V30 5857 H 568.263 4.80817 1.63638 0
M  V30 5858 H 568.193 4.12093 3.27852 0
M  V30 5859 H 570.684 3.19162 2.02346 0
M  V30 5860 H 570.997 6.84023 3.59628 0
M  V30 5861 H 569.342 6.14837 3.24038 0
M  V30 5862 H 572.533 3.9979 2.43487 0
M  V30 5863 H 572.706 5.66158 3.15228 0
M  V30 5864 N 566.112 -0.949982 1.2575 0
M  V30 5865 C 567.528 -1.22191 1.02672 0
M  V30 5866 C 567.728 -1.99898 -0.253588 0
M  V30 5867 O 566.784 -2.33329 -0.965076 0
M  V30 5868 C 568.097 -1.99175 2.25277 0
M  V30 5869 C 569.645 -2.12201 2.30087 0
M  V30 5870 C 570.12 -2.92586 3.5236 0
M  V30 5871 N 571.611 -3.00163 3.52784 0
M  V30 5872 C 572.346 -3.62766 4.44059 0
M  V30 5873 N 571.842 -4.26943 5.45611 0
M  V30 5874 N 573.635 -3.59953 4.3173 0
M  V30 5875 H 565.786 -0.430258 2.07996 0
M  V30 5876 H 568.049 -0.252844 0.91366 0
M  V30 5877 H 567.755 -1.49479 3.18354 0
M  V30 5878 H 567.629 -2.99868 2.28821 0
M  V30 5879 H 570.016 -2.61093 1.3753 0
M  V30 5880 H 570.097 -1.10799 2.30559 0
M  V30 5881 H 569.741 -2.44383 4.45241 0
M  V30 5882 H 569.671 -3.94224 3.49134 0
M  V30 5883 H 572.162 -2.54529 2.79327 0
M  V30 5884 H 572.475 -4.72583 6.11461 0
M  V30 5885 H 570.82 -4.25557 5.49478 0
M  V30 5886 H 574.011 -3.09003 3.51617 0
M  V30 5887 H 574.184 -4.08455 5.03059 0
M  V30 5888 N 567.59 -1.07411 -1.15328 0
M  V30 5889 C 568.553 -0.698914 -2.18284 0
M  V30 5890 C 569.553 0.261149 -1.58665 0
M  V30 5891 O 570.743 0.0420277 -1.74149 0
M  V30 5892 C 567.875 -0.0302427 -3.40887 0
M  V30 5893 H 569.068 -1.61045 -2.52991 0
M  V30 5894 H 566.621 -0.870724 -1.298 0
M  V30 5895 H 567.356 0.893505 -3.11748 0
M  V30 5896 H 567.141 -0.720759 -3.85419 0
M  V30 5897 H 568.631 0.21759 -4.17033 0
M  V30 5898 N 569.068 1.32177 -0.85831 0
M  V30 5899 C 569.978 2.32561 -0.308606 0
M  V30 5900 C 570.994 1.64209 0.575462 0
M  V30 5901 O 572.17 1.95719 0.474961 0
M  V30 5902 C 569.235 3.43207 0.490909 0
M  V30 5903 C 568.296 4.27243 -0.419733 0
M  V30 5904 C 567.529 5.32605 0.341719 0
M  V30 5905 O 567.752 5.48332 1.57125 0
M  V30 5906 O 566.686 6.0118 -0.294379 0
M  V30 5907 H 570.512 2.81477 -1.14037 0
M  V30 5908 H 568.097 1.35866 -0.621349 0
M  V30 5909 H 569.979 4.10677 0.944574 0
M  V30 5910 H 568.654 2.96474 1.29941 0
M  V30 5911 H 567.561 3.62569 -0.921652 0
M  V30 5912 H 568.894 4.7751 -1.19352 0
M  V30 5913 N 570.547 0.616602 1.45037 0
M  V30 5914 C 571.495 -0.109318 2.32343 0
M  V30 5915 C 572.489 -0.850543 1.465 0
M  V30 5916 O 573.695 -0.765088 1.62931 0
M  V30 5917 H 570.07 -0.0541091 0.750051 0
M  V30 5918 H 572.041 0.645326 2.91338 0
M  V30 5919 C 570.79 -1.0872 3.30266 0
M  V30 5920 H 570.113 -0.526267 3.96321 0
M  V30 5921 H 571.553 -1.56489 3.94065 0
M  V30 5922 C 570.012 -2.16525 2.58105 0
M  V30 5923 O 570.542 -3.244 2.36913 0
M  V30 5924 N 568.748 -1.92057 2.18088 0
M  V30 5925 H 568.295 -1.04337 2.35524 0
M  V30 5926 H 568.253 -2.64391 1.70131 0
M  V30 5927 N 572.025 -1.5352 0.356285 0
M  V30 5928 C 573.255 -2.05236 -0.236983 0
M  V30 5929 C 573.663 -1.23016 -1.43749 0
M  V30 5930 O 573.006 -0.2615 -1.81829 0
M  V30 5931 C 573.068 -3.52549 -0.7035 0
M  V30 5932 C 572.732 -4.55425 0.379059 0
M  V30 5933 C 573.729 -5.0524 1.22592 0
M  V30 5934 C 571.414 -4.99425 0.536638 0
M  V30 5935 C 573.408 -5.97647 2.21578 0
M  V30 5936 C 571.095 -5.9164 1.52988 0
M  V30 5937 C 572.093 -6.4064 2.3679 0
M  V30 5938 O 571.781 -7.31039 3.34421 0
M  V30 5939 H 571.513 -0.674346 -0.047254 0
M  V30 5940 H 574.067 -1.98962 0.510238 0
M  V30 5941 H 572.297 -3.56331 -1.50217 0
M  V30 5942 H 573.986 -3.87171 -1.21873 0
M  V30 5943 H 574.752 -4.72002 1.11532 0
M  V30 5944 H 570.631 -4.60879 -0.105834 0
M  V30 5945 H 574.175 -6.35816 2.87025 0
M  V30 5946 H 570.072 -6.24293 1.64099 0
M  V30 5947 H 570.84 -7.49009 3.30041 0
M  V30 5948 N 573.503 -0.0852151 -1.57369 0
M  V30 5949 C 574.751 0.579658 -1.93609 0
M  V30 5950 C 575.072 1.69332 -0.967043 0
M  V30 5951 O 574.342 1.95892 -0.0174215 0
M  V30 5952 H 572.922 0.217113 -0.714752 0
M  V30 5953 H 575.584 -0.146226 -1.94351 0
M  V30 5954 H 574.68 0.996276 -2.95771 0
M  V30 5955 N 574.981 1.5647 0.188427 0
M  V30 5956 C 576.392 1.70864 0.752494 0
M  V30 5957 C 576.743 0.692905 1.83557 0
M  V30 5958 O 575.868 -0.149307 2.15884 0
M  V30 5959 C 576.463 3.09789 1.37173 0
M  V30 5960 C 575.022 3.25925 1.88281 0
M  V30 5961 C 574.169 2.66817 0.755259 0
M  V30 5962 H 577.12 1.58657 -0.0367408 0
M  V30 5963 H 577.141 3.07489 2.24122 0
M  V30 5964 H 576.653 3.83693 0.583219 0
M  V30 5965 H 574.754 2.56948 2.6983 0
M  V30 5966 H 574.867 4.33498 2.04001 0
M  V30 5967 H 573.231 2.2617 1.17128 0
M  V30 5968 H 574.014 3.43294 -0.0211237 0
M  V30 5969 N 576.459 -0.456382 1.50847 0
M  V30 5970 C 577.875 -0.791345 1.386 0
M  V30 5971 C 578.075 -1.9633 0.453498 0
M  V30 5972 O 577.131 -2.52308 -0.0984353 0
M  V30 5973 C 578.444 -1.08959 2.80265 0
M  V30 5974 C 579.992 -1.19517 2.89283 0
M  V30 5975 C 580.467 -1.52647 4.31814 0
M  V30 5976 N 581.958 -1.59609 4.34832 0
M  V30 5977 C 582.693 -1.86777 5.42127 0
M  V30 5978 N 582.189 -2.11866 6.59609 0
M  V30 5979 N 583.982 -1.88402 5.29586 0
M  V30 5980 H 576.133 0.315746 2.1004 0
M  V30 5981 H 578.396 0.0787916 0.94472 0
M  V30 5982 H 578.102 -0.301355 3.50407 0
M  V30 5983 H 577.976 -2.02211 3.18419 0
M  V30 5984 H 580.363 -1.97406 2.19351 0
M  V30 5985 H 580.444 -0.242111 2.54652 0
M  V30 5986 H 580.088 -0.752922 5.02288 0
M  V30 5987 H 580.018 -2.49127 4.63943 0
M  V30 5988 H 582.509 -1.42201 3.50125 0
M  V30 5989 H 582.822 -2.31912 7.37182 0
M  V30 5990 H 581.167 -2.09228 6.62758 0
M  V30 5991 H 584.358 -1.68307 4.36795 0
M  V30 5992 H 584.531 -2.09238 6.13289 0
M  V30 5993 N 577.937 -1.40673 -0.710563 0
M  V30 5994 C 578.9 -1.4108 -1.80635 0
M  V30 5995 C 579.9 -0.303783 -1.57904 0
M  V30 5996 O 581.09 -0.562937 -1.64853 0
M  V30 5997 C 578.222 -1.20748 -3.18799 0
M  V30 5998 H 579.415 -2.38612 -1.81671 0
M  V30 5999 H 576.968 -1.26595 -0.916704 0
M  V30 6000 H 577.703 -0.239964 -3.23411 0
M  V30 6001 H 577.488 -2.00941 -3.36698 0
M  V30 6002 H 578.978 -1.23833 -3.98817 0
M  V30 6003 N 579.415 0.9433 -1.26252 0
M  V30 6004 C 580.325 2.07532 -1.09397 0
M  V30 6005 C 581.341 1.73977 -0.0280449 0
M  V30 6006 O 582.517 2.00067 -0.231337 0
M  V30 6007 C 579.582 3.39002 -0.726523 0
M  V30 6008 C 578.643 3.86353 -1.87163 0
M  V30 6009 C 577.876 5.11549 -1.52162 0
M  V30 6010 O 578.099 5.68834 -0.422385 0
M  V30 6011 O 577.033 5.53889 -2.35565 0
M  V30 6012 H 580.859 2.24658 -2.04359 0
M  V30 6013 H 578.444 1.05988 -1.05295 0
M  V30 6014 H 580.326 4.18 -0.534236 0
M  V30 6015 H 579.001 3.2312 0.193721 0
M  V30 6016 H 577.908 3.0831 -2.11886 0
M  V30 6017 H 579.241 4.06752 -2.77152 0
M  V30 6018 N 580.893 1.08022 1.14757 0
M  V30 6019 C 582.139 0.808705 1.85978 0
M  V30 6020 C 582.472 -0.663764 1.82504 0
M  V30 6021 O 581.747 -1.48765 1.25296 0
M  V30 6022 C 582.03 1.32623 3.34788 0
M  V30 6023 C 581.883 2.86375 3.46856 0
M  V30 6024 C 583.202 0.948291 4.29762 0
M  V30 6025 H 580.321 0.295244 0.675278 0
M  V30 6026 H 582.963 1.33917 1.34783 0
M  V30 6027 H 581.113 0.875002 3.78518 0
M  V30 6028 H 582.785 3.39839 3.11941 0
M  V30 6029 H 581.028 3.24232 2.88194 0
M  V30 6030 H 581.699 3.17658 4.51439 0
M  V30 6031 H 584.175 1.33722 3.94028 0
M  V30 6032 H 583.051 1.33765 5.32352 0
M  V30 6033 H 583.312 -0.145094 4.41862 0
M  V30 6034 N 582.371 -1.3172 0.865308 0
M  V30 6035 C 583.617 -1.97168 0.474633 0
M  V30 6036 C 583.95 -1.68263 -0.969604 0
M  V30 6037 O 583.225 -0.976588 -1.68205 0
M  V30 6038 C 583.508 -3.52689 0.726808 0
M  V30 6039 C 583.361 -3.91185 2.22024 0
M  V30 6040 C 584.68 -4.39689 0.190201 0
M  V30 6041 H 581.799 -0.716185 0.17392 0
M  V30 6042 H 584.441 -1.55925 1.08569 0
M  V30 6043 H 582.591 -3.8795 0.206705 0
M  V30 6044 H 584.263 -3.66049 2.80724 0
M  V30 6045 H 582.506 -3.3996 2.69462 0
M  V30 6046 H 583.177 -4.99604 2.34735 0
M  V30 6047 H 585.653 -4.11225 0.635103 0
M  V30 6048 H 584.529 -5.47469 0.396132 0
M  V30 6049 H 584.79 -4.32683 -0.907625 0
M  V30 6050 N 583.85 -0.624285 -1.44708 0
M  V30 6051 C 584.783 0.133905 -2.27807 0
M  V30 6052 C 585.76 0.857794 -1.38133 0
M  V30 6053 O 586.945 0.863277 -1.6757 0
M  V30 6054 C 584.072 1.19541 -3.16903 0
M  V30 6055 C 583.118 0.572813 -4.22636 0
M  V30 6056 S 583.951 -0.631953 -5.31758 0
M  V30 6057 C 585.106 0.429733 -6.24423 0
M  V30 6058 H 585.34 -0.571072 -2.91764 0
M  V30 6059 H 582.873 -0.412261 -1.48794 0
M  V30 6060 H 584.831 1.80293 -3.68788 0
M  V30 6061 H 583.492 1.87255 -2.5218 0
M  V30 6062 H 582.685 1.37205 -4.84965 0
M  V30 6063 H 582.287 0.0400641 -3.73979 0
M  V30 6064 H 584.579 1.30421 -6.64828 0
M  V30 6065 H 585.522 -0.157804 -7.07924 0
M  V30 6066 H 585.93 0.75256 -5.59461 0
M  V30 6067 N 585.328 1.53329 -0.364422 0
M  V30 6068 C 586.26 2.23286 0.517293 0
M  V30 6069 C 587.273 1.24657 1.04711 0
M  V30 6070 O 588.462 1.50887 0.95369 0
M  V30 6071 C 585.562 2.91604 1.72685 0
M  V30 6072 C 584.735 4.1673 1.32873 0
M  V30 6073 C 583.794 4.68269 2.40022 0
M  V30 6074 O 582.82 5.31976 2.02461 0
M  V30 6075 N 584.022 4.45983 3.7159 0
M  V30 6076 H 586.787 2.99588 -0.0819391 0
M  V30 6077 H 584.348 1.60787 -0.189544 0
M  V30 6078 H 586.34 3.22992 2.4384 0
M  V30 6079 H 584.91 2.18763 2.23297 0
M  V30 6080 H 584.13 3.91657 0.447069 0
M  V30 6081 H 585.418 4.98078 1.03902 0
M  V30 6082 H 584.816 3.95077 4.04883 0
M  V30 6083 H 583.373 4.81924 4.38854 0
M  V30 6084 N 586.806 0.0935595 1.57322 0
M  V30 6085 C 588.083 -0.612692 1.85756 0
M  V30 6086 C 588.463 -1.86439 0.99013 0
M  V30 6087 O 587.811 -2.28416 0.0621362 0
M  V30 6088 C 588.021 -0.929547 3.36393 0
M  V30 6089 C 589.369 -1.29366 4.04413 0
M  V30 6090 O 590.393 -1.02061 3.41265 0
M  V30 6091 O 589.252 -1.80498 5.15832 0
M  V30 6092 H 586.346 -0.306444 0.768128 0
M  V30 6093 H 588.892 0.126141 1.69231 0
M  V30 6094 H 587.664 -0.0414766 3.91278 0
M  V30 6095 H 587.287 -1.72441 3.5826 0
M  V30 6096 N 588.284 -1.56567 -0.180126 0
M  V30 6097 C 589.53 -1.81761 -0.899497 0
M  V30 6098 C 589.863 -0.670015 -1.82276 0
M  V30 6099 O 589.138 0.328575 -1.91705 0
M  V30 6100 C 589.421 -3.17296 -1.7028 0
M  V30 6101 C 589.274 -4.4257 -0.803255 0
M  V30 6102 C 590.593 -3.49678 -2.67233 0
M  V30 6103 H 587.712 -0.661192 -0.325567 0
M  V30 6104 H 590.354 -1.89272 -0.16612 0
M  V30 6105 H 588.504 -3.11023 -2.32802 0
M  V30 6106 H 590.176 -4.60902 -0.191585 0
M  V30 6107 H 588.419 -4.33658 -0.110796 0
M  V30 6108 H 589.09 -5.33935 -1.40064 0
M  V30 6109 H 591.566 -3.56347 -2.14839 0
M  V30 6110 H 590.442 -4.45605 -3.20511 0
M  V30 6111 H 590.703 -2.73932 -3.47007 0
M  V30 6112 N 589.762 0.448376 -1.51087 0
M  V30 6113 C 590.725 1.52588 -1.71025 0
M  V30 6114 C 591.725 1.49958 -0.580442 0
M  V30 6115 O 592.915 1.52176 -0.847833 0
M  V30 6116 C 590.047 2.92163 -1.75652 0
M  V30 6117 H 591.24 1.36218 -2.67179 0
M  V30 6118 H 588.793 0.676313 -1.4091 0
M  V30 6119 H 589.528 3.13951 -0.812724 0
M  V30 6120 H 589.313 2.95478 -2.57751 0
M  V30 6121 H 590.803 3.70349 -1.92953 0
M  V30 6122 N 591.24 1.41047 0.703093 0
M  V30 6123 C 592.651 1.35657 1.28274 0
M  V30 6124 C 593.002 0.0360309 1.96167 0
M  V30 6125 O 592.127 -0.865833 1.98324 0
M  V30 6126 C 592.722 2.45707 2.33267 0
M  V30 6127 C 591.281 2.43738 2.86825 0
M  V30 6128 C 590.428 2.25941 1.60767 0
M  V30 6129 H 593.379 1.50672 0.49836 0
M  V30 6130 H 593.4 2.14333 3.14391 0
M  V30 6131 H 592.912 3.41805 1.83824 0
M  V30 6132 H 591.013 1.51375 3.40465 0
M  V30 6133 H 591.126 3.39779 3.37768 0
M  V30 6134 H 589.49 1.73681 1.86298 0
M  V30 6135 H 590.273 3.24054 1.1333 0
M  V30 6136 N 592.718 -0.936591 1.26751 0
M  V30 6137 C 593.666 -2.0573 1.08527 0
M  V30 6138 C 594.66 -1.69397 0.0108784 0
M  V30 6139 O 595.866 -1.79215 0.167915 0
M  V30 6140 H 592.241 -0.673691 0.334133 0
M  V30 6141 H 594.212 -2.1825 2.03493 0
M  V30 6142 C 592.961 -3.39738 0.739845 0
M  V30 6143 H 592.284 -3.68174 1.55845 0
M  V30 6144 H 593.724 -4.18955 0.652149 0
M  V30 6145 C 592.183 -3.32292 -0.555288 0
M  V30 6146 O 592.713 -3.68794 -1.59229 0
M  V30 6147 N 590.919 -2.85394 -0.54762 0
M  V30 6148 H 590.466 -2.55886 0.296667 0
M  V30 6149 H 590.424 -2.80795 -1.41427 0
M  V30 6150 N 594.196 -1.08629 -1.14182 0
M  V30 6151 C 595.607 -0.838003 -1.66836 0
M  V30 6152 C 595.958 0.634885 -1.85644 0
M  V30 6153 O 595.083 1.49008 -1.56926 0
M  V30 6154 C 595.678 -1.51465 -3.03058 0
M  V30 6155 C 594.237 -1.31355 -3.52736 0
M  V30 6156 C 593.384 -1.57599 -2.28162 0
M  V30 6157 H 596.335 -1.24656 -0.982165 0
M  V30 6158 H 596.356 -0.943134 -3.68626 0
M  V30 6159 H 595.868 -2.58661 -2.89337 0
M  V30 6160 H 593.969 -0.262384 -3.71675 0
M  V30 6161 H 594.082 -2.04275 -4.33369 0
M  V30 6162 H 592.446 -0.997659 -2.34348 0
M  V30 6163 H 593.229 -2.66006 -2.17015 0
M  V30 6164 N 595.674 1.31259 -0.872281 0
M  V30 6165 C 596.951 1.91362 -0.404943 0
M  V30 6166 C 597.331 1.79362 1.11321 0
M  V30 6167 O 596.679 1.20277 1.94283 0
M  V30 6168 C 596.889 3.3749 -0.888893 0
M  V30 6169 C 598.237 4.14593 -0.916384 0
M  V30 6170 O 599.261 3.46282 -0.834701 0
M  V30 6171 O 598.12 5.3661 -1.03498 0
M  V30 6172 H 595.214 0.818016 -0.121569 0
M  V30 6173 H 597.76 1.39912 -0.960346 0
M  V30 6174 H 596.532 3.40249 -1.93251 0
M  V30 6175 H 596.155 3.96375 -0.311932 0
M  V30 6176 N 597.152 0.631951 1.44375 0
M  V30 6177 C 598.429 0.067646 1.95483 0
M  V30 6178 C 598.809 -1.40683 1.57389 0
M  V30 6179 O 598.157 -2.12167 0.848375 0
M  V30 6180 C 598.367 0.291392 3.47781 0
M  V30 6181 C 599.715 0.185028 4.24197 0
M  V30 6182 O 600.739 0.222803 3.55503 0
M  V30 6183 O 599.598 0.0906642 5.46425 0
M  V30 6184 H 596.692 -0.0218379 0.826712 0
M  V30 6185 H 599.238 0.703711 1.54421 0
M  V30 6186 H 598.01 1.31449 3.68561 0
M  V30 6187 H 597.633 -0.378772 3.95792 0
M  V30 6188 N 598.631 -1.53133 0.372548 0
M  V30 6189 C 600.042 -1.86404 -0.105155 0
M  V30 6190 C 600.393 -1.29289 -1.47576 0
M  V30 6191 O 599.518 -0.617646 -2.07398 0
M  V30 6192 C 600.113 -3.38223 -0.197588 0
M  V30 6193 C 598.672 -3.71266 -0.619556 0
M  V30 6194 C 597.819 -2.76353 0.228919 0
M  V30 6195 H 600.77 -1.47282 0.591077 0
M  V30 6196 H 600.791 -3.66577 -1.01987 0
M  V30 6197 H 600.303 -3.79763 0.800099 0
M  V30 6198 H 598.404 -3.35287 -1.62522 0
M  V30 6199 H 598.517 -4.77515 -0.389332 0
M  V30 6200 H 596.881 -2.52888 -0.303271 0
M  V30 6201 H 597.664 -3.20728 1.22428 0
M  V30 6202 N 600.109 -0.101901 -1.5727 0
M  V30 6203 C 601.019 0.868647 -2.17926 0
M  V30 6204 C 602.035 1.30527 -1.1506 0
M  V30 6205 O 603.211 1.37178 -1.47459 0
M  V30 6206 C 600.276 2.10727 -2.75309 0
M  V30 6207 C 599.337 1.7242 -3.93154 0
M  V30 6208 C 598.57 2.90377 -4.47791 0
M  V30 6209 O 598.793 4.05305 -4.01353 0
M  V30 6210 O 597.727 2.6845 -5.38719 0
M  V30 6211 H 601.553 0.382544 -3.01281 0
M  V30 6212 H 599.138 0.122812 -1.48894 0
M  V30 6213 H 601.02 2.83303 -3.11958 0
M  V30 6214 H 599.695 2.58376 -1.94996 0
M  V30 6215 H 598.602 0.970039 -3.61305 0
M  V30 6216 H 599.935 1.29528 -4.74851 0
M  V30 6217 N 601.587 1.56661 0.17182 0
M  V30 6218 C 602.864 1.72838 0.915778 0
M  V30 6219 C 603.244 0.66316 2.00413 0
M  V30 6220 O 602.592 -0.322123 2.26218 0
M  V30 6221 C 602.802 3.16019 1.48097 0
M  V30 6222 C 604.15 3.76962 1.95408 0
M  V30 6223 O 605.174 3.19294 1.57892 0
M  V30 6224 O 604.033 4.78219 2.64516 0
M  V30 6225 H 601.127 0.705797 0.431021 0
M  V30 6226 H 603.673 1.68947 0.159689 0
M  V30 6227 H 602.445 3.85031 0.697618 0
M  V30 6228 H 602.068 3.24234 2.30126 0
M  V30 6229 N 603.065 -0.440357 1.51323 0
M  V30 6230 C 604.312 -1.19004 1.63842 0
M  V30 6231 C 604.64 -1.91266 0.35321 0
M  V30 6232 O 603.895 -1.84143 -0.662565 0
M  V30 6233 C 604.194 -2.2339 2.78984 0
M  V30 6234 C 603.86 -1.68162 4.18369 0
M  V30 6235 C 602.522 -1.52823 4.56288 0
M  V30 6236 C 604.874 -1.27524 5.05358 0
M  V30 6237 C 602.202 -0.953157 5.78906 0
M  V30 6238 C 604.554 -0.714474 6.28552 0
M  V30 6239 C 603.218 -0.547961 6.65247 0
M  V30 6240 H 602.488 -0.435468 0.59954 0
M  V30 6241 H 605.135 -0.481538 1.85347 0
M  V30 6242 H 603.44 -3.00267 2.51688 0
M  V30 6243 H 605.137 -2.81211 2.85869 0
M  V30 6244 H 601.727 -1.81077 3.8847 0
M  V30 6245 H 605.911 -1.38197 4.76671 0
M  V30 6246 H 601.167 -0.811882 6.05986 0
M  V30 6247 H 605.341 -0.391059 6.95301 0
M  V30 6248 H 602.968 -0.100222 7.60134 0
M  V30 6249 N 604.543 -1.41418 -0.695603 0
M  V30 6250 C 605.954 -1.36335 -1.27552 0
M  V30 6251 C 606.305 -0.0464336 -1.96145 0
M  V30 6252 O 605.43 0.855304 -1.9878 0
M  V30 6253 C 606.025 -2.46941 -2.3196 0
M  V30 6254 C 604.584 -2.45256 -2.85529 0
M  V30 6255 C 603.731 -2.2679 -1.59566 0
M  V30 6256 H 606.682 -1.50934 -0.490362 0
M  V30 6257 H 606.703 -2.15997 -3.1325 0
M  V30 6258 H 606.215 -3.42775 -1.82008 0
M  V30 6259 H 604.316 -1.53179 -3.39657 0
M  V30 6260 H 604.429 -3.41565 -3.35961 0
M  V30 6261 H 602.793 -1.74667 -1.85374 0
M  V30 6262 H 603.576 -3.24651 -1.1161 0
M  V30 6263 N 606.021 0.929856 -1.27246 0
M  V30 6264 C 606.984 2.01172 -1.09829 0
M  V30 6265 C 607.984 1.60743 -0.0429687 0
M  V30 6266 O 609.174 1.71813 -0.287373 0
M  V30 6267 C 606.306 3.34191 -0.673003 0
M  V30 6268 H 607.499 2.18054 -2.05895 0
M  V30 6269 H 605.052 1.11036 -1.10003 0
M  V30 6270 H 605.787 3.23009 0.289134 0
M  V30 6271 H 605.572 3.64892 -1.43515 0
M  V30 6272 H 607.062 4.13646 -0.573323 0
M  V30 6273 N 607.499 1.09233 1.13605 0
M  V30 6274 C 608.429 0.751738 2.21068 0
M  V30 6275 C 609.41 -0.269688 1.67948 0
M  V30 6276 O 610.595 -0.13819 1.93708 0
M  V30 6277 C 607.725 0.16935 3.46887 0
M  V30 6278 C 606.679 1.12007 4.13084 0
M  V30 6279 C 606.005 0.399483 5.33206 0
M  V30 6280 C 607.305 2.46168 4.6065 0
M  V30 6281 H 608.999 1.65024 2.49815 0
M  V30 6282 H 606.545 0.794905 1.20072 0
M  V30 6283 H 608.498 -0.0809824 4.21322 0
M  V30 6284 H 607.222 -0.764335 3.1753 0
M  V30 6285 H 605.881 1.35564 3.40614 0
M  V30 6286 H 605.529 -0.538277 5.00112 0
M  V30 6287 H 605.229 1.03337 5.78442 0
M  V30 6288 H 606.753 0.157403 6.10397 0
M  V30 6289 H 608.167 2.26829 5.26518 0
M  V30 6290 H 606.564 3.05326 5.1662 0
M  V30 6291 H 607.634 3.07076 3.75276 0
M  V30 6292 N 608.977 -1.30795 0.87923 0
M  V30 6293 C 610.202 -2.01063 0.508769 0
M  V30 6294 C 610.627 -1.65508 -0.893803 0
M  V30 6295 O 609.985 -0.868616 -1.59138 0
M  V30 6296 C 610.033 -3.54054 0.683991 0
M  V30 6297 O 609.137 -4.11498 -0.272654 0
M  V30 6298 H 608.478 -0.632786 0.201191 0
M  V30 6299 H 611.008 -1.66776 1.18519 0
M  V30 6300 H 611.018 -4.03845 0.580798 0
M  V30 6301 H 609.693 -3.79271 1.70665 0
M  V30 6302 H 608.27 -3.72695 -0.12364 0
M  V30 6303 O 610.494 -0.779418 -1.41447 0
M  V30 6304 H 611.185 -0.346083 -1.90583 0
M  V30 END ATOM
M  V30 BEGIN BOND
M  V30 END BOND
M  V30 END CTAB
M  END
$$$$
