drugbank_target|Q5KSL6 Diacylglycerol kinase kappa (DB14001)
 OpenBabel12092121233D

  0  0  0     0  0            999 V3000
M  V30 BEGIN CTAB
M  V30 COUNTS 19767 20015 0 0 0
M  V30 BEGIN ATOM
M  V30 1 H -0.908 1.98254 -0.117106 0
M  V30 2 N 0 1.576 0 0
M  V30 3 C 0.933 2.03868 1.02534 0
M  V30 4 C 1.911 0.928543 1.3348 0
M  V30 5 O 3.095 1.19667 1.45644 0
M  V30 6 C 0.222 2.43627 2.35294 0
M  V30 7 C -0.732 3.65373 2.2001 0
M  V30 8 S 0.101 5.13292 1.52614 0
M  V30 9 C 1.257 5.56322 2.86805 0
M  V30 10 H 1.49 2.90518 0.631377 0
M  V30 11 H -0.977 1.52953 0.210867 0
M  V30 12 H 0.981 2.67203 3.11629 0
M  V30 13 H -0.358 1.57376 2.7183 0
M  V30 14 H -1.165 3.90944 3.18086 0
M  V30 15 H -1.563 3.418 1.51819 0
M  V30 16 H 0.729 5.58782 3.83104 0
M  V30 17 H 1.672 6.56266 2.65933 0
M  V30 18 H 2.08 4.83886 2.90714 0
M  V30 19 N 1.4781 -0.272755 1.55222 0
M  V30 20 C 2.7551 -1.02562 1.66555 0
M  V30 21 C 3.1351 -2.04282 0.532189 0
M  V30 22 O 2.4831 -2.23662 -0.467717 0
M  V30 23 C 2.6931 -1.6822 3.05782 0
M  V30 24 C 4.0411 -2.19373 3.63539 0
M  V30 25 O 5.0651 -1.78206 3.08417 0
M  V30 26 O 3.9241 -2.94883 4.60115 0
M  V30 27 H 1.0181 -0.475755 0.676451 0
M  V30 28 H 3.5641 -0.268593 1.67561 0
M  V30 29 H 2.3361 -0.945112 3.79715 0
M  V30 30 H 1.9591 -2.50609 3.08676 0
M  V30 31 N 2.9562 -1.48159 -0.537278 0
M  V30 32 C 4.3722 -1.34118 -0.865129 0
M  V30 33 C 4.5722 -0.346678 -1.98495 0
M  V30 34 O 3.6282 0.234715 -2.51407 0
M  V30 35 C 4.9412 -2.73963 -1.23954 0
M  V30 36 C 6.4892 -2.82397 -1.34984 0
M  V30 37 C 6.9642 -4.22928 -1.75772 0
M  V30 38 N 8.4552 -4.25566 -1.82887 0
M  V30 39 C 9.1902 -5.31235 -2.15817 0
M  V30 40 N 8.6862 -6.47189 -2.47222 0
M  V30 41 N 10.4792 -5.18624 -2.16761 0
M  V30 42 H 2.6302 -2.1144 0.201715 0
M  V30 43 H 4.8932 -0.947598 0.0275949 0
M  V30 44 H 4.5992 -3.48264 -0.490381 0
M  V30 45 H 4.4732 -3.0702 -2.19132 0
M  V30 46 H 6.8602 -2.08356 -2.08978 0
M  V30 47 H 6.9412 -2.5297 -0.379448 0
M  V30 48 H 6.5852 -4.97482 -1.02341 0
M  V30 49 H 6.5152 -4.49794 -2.73848 0
M  V30 50 H 9.0062 -3.41924 -1.60924 0
M  V30 51 H 9.3192 -7.23564 -2.71433 0
M  V30 52 H 7.6642 -6.50476 -2.44757 0
M  V30 53 H 10.8552 -4.27056 -1.91679 0
M  V30 54 H 11.0282 -6.01078 -2.42093 0
M  V30 55 N 4.4343 0.785586 -1.36625 0
M  V30 56 C 5.6823 1.54057 -1.30808 0
M  V30 57 C 6.0033 1.94683 0.111157 0
M  V30 58 O 5.2733 1.65241 1.05224 0
M  V30 59 H 3.8533 0.571354 -0.481211 0
M  V30 60 H 6.5153 0.935821 -1.70963 0
M  V30 61 H 5.6113 2.44637 -1.93801 0
M  V30 62 N 5.9124 1.20967 1.01018 0
M  V30 63 C 6.8754 0.965918 2.07853 0
M  V30 64 C 7.8754 -0.0610545 1.60684 0
M  V30 65 O 9.0654 0.175681 1.73312 0
M  V30 66 C 6.1974 0.455513 3.37843 0
M  V30 67 H 7.3904 1.91365 2.3091 0
M  V30 68 H 4.9434 1.02594 1.17916 0
M  V30 69 H 5.6784 -0.497381 3.20463 0
M  V30 70 H 5.4634 1.19622 3.73407 0
M  V30 71 H 6.9534 0.304667 4.16487 0
M  V30 72 N 7.3905 -1.2043 1.01659 0
M  V30 73 C 8.3535 -2.21433 0.591616 0
M  V30 74 C 9.3535 -1.57203 -0.338226 0
M  V30 75 O 10.5435 -1.73737 -0.126918 0
M  V30 76 C 7.6755 -3.40628 -0.136058 0
M  V30 77 H 8.8685 -2.60545 1.48514 0
M  V30 78 H 6.4215 -1.33893 0.806379 0
M  V30 79 H 7.1565 -3.07019 -1.04449 0
M  V30 80 H 6.9415 -3.88475 0.531917 0
M  V30 81 H 8.4315 -4.15475 -0.420735 0
M  V30 82 N 8.8686 -0.792821 -1.36206 0
M  V30 83 C 9.8316 -0.199459 -2.2833 0
M  V30 84 C 10.8316 0.605189 -1.48977 0
M  V30 85 O 12.0216 0.425685 -1.68919 0
M  V30 86 C 9.1536 0.723523 -3.33134 0
M  V30 87 H 10.3466 -1.01181 -2.82316 0
M  V30 88 H 7.8996 -0.562485 -1.45828 0
M  V30 89 H 8.6346 1.56008 -2.84309 0
M  V30 90 H 8.4196 0.148436 -3.91819 0
M  V30 91 H 9.9096 1.13344 -4.01924 0
M  V30 92 N 10.3467 1.47872 -0.545128 0
M  V30 93 C 11.3097 2.28337 0.198717 0
M  V30 94 C 12.3097 1.36255 0.853888 0
M  V30 95 O 13.4997 1.59003 0.711606 0
M  V30 96 C 10.6317 3.15585 1.28915 0
M  V30 97 H 11.8247 2.95567 -0.507941 0
M  V30 98 H 9.3777 1.53362 -0.301616 0
M  V30 99 H 10.1127 2.53019 2.02859 0
M  V30 100 H 9.8977 3.83337 0.824309 0
M  V30 101 H 11.3877 3.76243 1.81194 0
M  V30 102 N 11.8248 0.280983 1.55075 0
M  V30 103 C 12.7568 -0.637268 2.20163 0
M  V30 104 C 13.7698 -1.11298 1.18813 0
M  V30 105 O 14.9588 -1.03388 1.4551 0
M  V30 106 C 12.0588 -1.88199 2.81841 0
M  V30 107 C 11.2318 -1.55211 4.08936 0
M  V30 108 C 10.2908 -2.64991 4.54606 0
M  V30 109 O 9.3168 -2.30929 5.2025 0
M  V30 110 N 10.5188 -3.95161 4.25238 0
M  V30 111 H 13.2838 -0.0801694 2.99593 0
M  V30 112 H 10.8448 0.102329 1.61576 0
M  V30 113 H 12.8368 -2.60948 3.09335 0
M  V30 114 H 11.4068 -2.34799 2.06369 0
M  V30 115 H 10.6268 -0.658185 3.88666 0
M  V30 116 H 11.9148 -1.30681 4.91732 0
M  V30 117 H 11.3128 -4.25653 3.72607 0
M  V30 118 H 9.8698 -4.6427 4.5749 0
M  V30 119 N 13.3029 -1.57598 0.00835791 0
M  V30 120 C 14.5509 -1.90551 -0.6734 0
M  V30 121 C 14.8719 -0.883301 -1.73847 0
M  V30 122 O 14.1419 0.0781442 -1.95744 0
M  V30 123 H 12.7219 -0.703312 -0.251717 0
M  V30 124 H 15.3839 -1.94833 0.0512592 0
M  V30 125 H 14.4799 -2.9056 -1.13935 0
M  V30 126 N 14.781 0.264519 -1.55364 0
M  V30 127 C 16.009 1.013 -1.80405 0
M  V30 128 C 16.424 1.79618 -0.581622 0
M  V30 129 O 15.781 1.76879 0.449468 0
M  V30 130 C 15.832 1.96487 -3.03439 0
M  V30 131 O 15.553 1.21341 -4.20961 0
M  V30 132 C 17.054 2.83079 -3.41147 0
M  V30 133 H 14.274 0.298875 -0.600762 0
M  V30 134 H 16.818 0.292736 -2.02394 0
M  V30 135 H 14.973 2.63965 -2.83551 0
M  V30 136 H 15.387 1.85573 -4.90574 0
M  V30 137 H 16.861 3.4565 -4.30384 0
M  V30 138 H 17.338 3.53286 -2.60932 0
M  V30 139 H 17.944 2.2108 -3.63323 0
M  V30 140 N 16.2591 1.48442 0.529413 0
M  V30 141 C 17.2221 1.62524 1.61612 0
M  V30 142 C 18.2221 0.498509 1.52877 0
M  V30 143 O 19.4121 0.76431 1.56537 0
M  V30 144 C 16.5441 1.59597 3.01233 0
M  V30 145 H 17.7371 2.59423 1.50465 0
M  V30 146 H 15.2901 1.37047 0.751514 0
M  V30 147 H 16.0251 0.641781 3.17886 0
M  V30 148 H 15.8101 2.41397 3.08982 0
M  V30 149 H 17.3001 1.72646 3.80241 0
M  V30 150 N 17.7372 -0.778329 1.37039 0
M  V30 151 C 19.1482 -1.35421 1.28523 0
M  V30 152 C 19.4992 -1.96075 -0.0700901 0
M  V30 153 O 18.6242 -1.93352 -0.971801 0
M  V30 154 C 19.2192 -2.46211 2.32735 0
M  V30 155 C 17.7782 -2.99585 2.27873 0
M  V30 156 C 16.9252 -1.72748 2.16918 0
M  V30 157 H 19.8762 -0.5791 1.47757 0
M  V30 158 H 19.8972 -3.2552 1.9702 0
M  V30 159 H 19.4092 -2.02036 3.31365 0
M  V30 160 H 17.5102 -3.48152 1.32745 0
M  V30 161 H 17.6232 -3.55646 3.21018 0
M  V30 162 H 15.9872 -1.95416 1.63354 0
M  V30 163 H 16.7702 -1.30686 3.17452 0
M  V30 164 N 19.2153 -1.21501 -1.00376 0
M  V30 165 C 20.6263 -1.03146 -1.55621 0
M  V30 166 C 20.9773 0.408375 -1.91903 0
M  V30 167 O 20.1023 1.29177 -1.73616 0
M  V30 168 C 20.6973 -1.86612 -2.82775 0
M  V30 169 C 19.2563 -1.72586 -3.34501 0
M  V30 170 C 18.4033 -1.83747 -2.07683 0
M  V30 171 H 21.3543 -1.35505 -0.826081 0
M  V30 172 H 21.3753 -1.3771 -3.54706 0
M  V30 173 H 20.8873 -2.91399 -2.56336 0
M  V30 174 H 18.9883 -0.704877 -3.65872 0
M  V30 175 H 19.1013 -2.54623 -4.05837 0
M  V30 176 H 17.4653 -1.27069 -2.20739 0
M  V30 177 H 18.2483 -2.90044 -1.83655 0
M  V30 178 N 20.6934 1.19889 -1.02296 0
M  V30 179 C 21.6254 2.22334 -0.556787 0
M  V30 180 C 22.6384 1.58674 0.364199 0
M  V30 181 O 23.8274 1.77768 0.161533 0
M  V30 182 C 20.9274 3.38257 0.208694 0
M  V30 183 C 20.1004 4.31504 -0.71577 0
M  V30 184 C 19.1594 5.262 0.00325597 0
M  V30 185 O 18.1854 5.65798 -0.621357 0
M  V30 186 N 19.3874 5.66303 1.27599 0
M  V30 187 H 22.1524 2.62957 -1.43784 0
M  V30 188 H 19.7134 1.34495 -0.901261 0
M  V30 189 H 21.7054 3.98616 0.699111 0
M  V30 190 H 20.2754 2.96472 0.991102 0
M  V30 191 H 19.4954 3.69016 -1.38638 0
M  V30 192 H 20.7834 4.9072 -1.34428 0
M  V30 193 H 20.1814 5.36155 1.80429 0
M  V30 194 H 18.7384 6.28942 1.71102 0
M  V30 195 N 22.1715 0.800033 1.35784 0
M  V30 196 C 23.4485 0.30088 1.93272 0
M  V30 197 C 23.8285 -1.20857 1.73081 0
M  V30 198 O 23.1765 -2.00502 1.09596 0
M  V30 199 C 23.3865 0.70511 3.41803 0
M  V30 200 C 24.7345 0.690871 4.18942 0
M  V30 201 O 25.7585 0.646244 3.50289 0
M  V30 202 O 24.6175 0.74332 5.41421 0
M  V30 203 H 21.7115 0.0771605 0.823393 0
M  V30 204 H 24.2575 0.88329 1.449 0
M  V30 205 H 23.0295 1.74571 3.50201 0
M  V30 206 H 22.6525 0.0971541 3.97481 0
M  V30 207 N 23.6496 -1.47581 0.552962 0
M  V30 208 C 24.8976 -2.02082 0.0272703 0
M  V30 209 C 25.2186 -1.4301 -1.32563 0
M  V30 210 O 24.4886 -0.603745 -1.86365 0
M  V30 211 H 23.0686 -0.746966 0.00709182 0
M  V30 212 H 25.7306 -1.81033 0.722008 0
M  V30 213 H 24.8266 -3.12034 -0.0639951 0
M  V30 214 N 25.1277 -0.289203 -1.54924 0
M  V30 215 C 26.0377 0.601863 -2.26748 0
M  V30 216 C 27.0537 1.15834 -1.2984 0
M  V30 217 O 28.2297 1.18564 -1.62802 0
M  V30 218 C 25.2947 1.76299 -2.98529 0
M  V30 219 C 24.3557 1.24178 -4.10948 0
M  V30 220 C 23.5887 2.34757 -4.79296 0
M  V30 221 O 23.8117 3.54411 -4.46933 0
M  V30 222 O 22.7457 2.02115 -5.66951 0
M  V30 223 H 26.5717 0.0195879 -3.03694 0
M  V30 224 H 24.1567 -0.0560868 -1.49295 0
M  V30 225 H 26.0387 2.43973 -3.43592 0
M  V30 226 H 24.7137 2.33209 -2.24488 0
M  V30 227 H 23.6207 0.531104 -3.70311 0
M  V30 228 H 24.9537 0.718252 -4.86931 0
M  V30 229 N 26.6058 1.57591 -0.0167156 0
M  V30 230 C 27.5378 2.06343 0.997753 0
M  V30 231 C 28.5508 0.984469 1.29661 0
M  V30 232 O 29.7398 1.26093 1.26344 0
M  V30 233 C 26.8398 2.46255 2.32834 0
M  V30 234 C 26.0128 3.77083 2.21646 0
M  V30 235 C 25.0718 4.0368 3.37534 0
M  V30 236 O 24.0978 4.7411 3.14973 0
M  V30 237 N 25.2998 3.52881 4.60929 0
M  V30 238 H 28.0648 2.93997 0.581875 0
M  V30 239 H 25.6258 1.61002 0.170316 0
M  V30 240 H 27.6178 2.61149 3.09166 0
M  V30 241 H 26.1878 1.64032 2.66106 0
M  V30 242 H 25.4078 3.72106 1.30119 0
M  V30 243 H 26.6958 4.62822 2.11361 0
M  V30 244 H 26.0938 2.95878 4.82154 0
M  V30 245 H 24.6508 3.73076 5.34469 0
M  V30 246 N 28.0839 -0.256276 1.55502 0
M  V30 247 C 29.4949 -0.826068 1.67431 0
M  V30 248 C 29.8459 -1.86396 0.612446 0
M  V30 249 O 28.9709 -2.15031 -0.243025 0
M  V30 250 C 29.5659 -1.50512 3.03532 0
M  V30 251 C 28.1249 -2.02273 3.17431 0
M  V30 252 C 27.2719 -0.870548 2.63281 0
M  V30 253 H 30.2229 -0.0322728 1.58667 0
M  V30 254 H 30.2439 -2.37279 2.97454 0
M  V30 255 H 29.7559 -0.749484 3.80794 0
M  V30 256 H 27.8569 -2.80746 2.44974 0
M  V30 257 H 27.9699 -2.22655 4.24219 0
M  V30 258 H 26.3339 -1.26851 2.20864 0
M  V30 259 H 27.1169 -0.128149 3.43061 0
M  V30 260 N 29.562 -1.4872 -0.521534 0
M  V30 261 C 30.525 -1.63379 -1.60748 0
M  V30 262 C 31.525 -0.50661 -1.52611 0
M  V30 263 O 32.715 -0.772601 -1.5613 0
M  V30 264 C 29.847 -1.61192 -3.00383 0
M  V30 265 H 31.04 -2.60217 -1.49087 0
M  V30 266 H 28.593 -1.37444 -0.744235 0
M  V30 267 H 29.328 -0.65863 -3.17541 0
M  V30 268 H 29.113 -2.43032 -3.07698 0
M  V30 269 H 30.603 -1.7466 -3.7932 0
M  V30 270 N 31.0401 0.771051 -1.3745 0
M  V30 271 C 31.9501 1.91538 -1.35464 0
M  V30 272 C 32.9661 1.72134 -0.254123 0
M  V30 273 O 34.1421 1.95358 -0.489626 0
M  V30 274 C 31.2071 3.26671 -1.16134 0
M  V30 275 C 30.2681 3.58723 -2.35831 0
M  V30 276 C 29.5011 4.87409 -2.17413 0
M  V30 277 O 29.7241 5.58506 -1.15876 0
M  V30 278 O 28.6581 5.18539 -3.05615 0
M  V30 279 H 32.4841 1.96165 -2.31847 0
M  V30 280 H 30.0691 0.9139 -1.18187 0
M  V30 281 H 31.9511 4.07499 -1.07345 0
M  V30 282 H 30.6261 3.22894 -0.228251 0
M  V30 283 H 29.5331 2.78127 -2.50192 0
M  V30 284 H 30.8661 3.67243 -3.27709 0
M  V30 285 N 32.5182 1.22032 0.997298 0
M  V30 286 C 33.7432 1.06921 1.77715 0
M  V30 287 C 34.1682 -0.376226 1.84299 0
M  V30 288 O 33.5262 -1.27165 1.29223 0
M  V30 289 C 33.5742 1.67996 3.19076 0
M  V30 290 O 32.6782 0.930653 4.01762 0
M  V30 291 H 32.0192 0.375814 0.547412 0
M  V30 292 H 34.5492 1.61737 1.25309 0
M  V30 293 H 34.5592 1.72538 3.69723 0
M  V30 294 H 33.2342 2.73182 3.13599 0
M  V30 295 H 31.8112 0.960917 3.60307 0
M  V30 296 N 33.9963 -1.19345 1.0293 0
M  V30 297 C 35.4073 -1.70725 0.755633 0
M  V30 298 C 35.7583 -1.82326 -0.724676 0
M  V30 299 O 34.8833 -1.49471 -1.56484 0
M  V30 300 C 35.4783 -3.10084 1.36503 0
M  V30 301 C 34.0373 -3.58723 1.13994 0
M  V30 302 C 33.1843 -2.35577 1.46283 0
M  V30 303 H 36.1353 -1.0418 1.19718 0
M  V30 304 H 36.1563 -3.72787 0.762217 0
M  V30 305 H 35.6683 -3.01609 2.44241 0
M  V30 306 H 33.7693 -3.72512 0.0807901 0
M  V30 307 H 33.8823 -4.42816 1.82894 0
M  V30 308 H 32.2463 -2.38935 0.88217 0
M  V30 309 H 33.0293 -2.29731 2.55105 0
M  V30 310 N 35.4744 -0.807222 -1.35358 0
M  V30 311 C 36.3844 -0.219594 -2.3357 0
M  V30 312 C 37.4004 0.637734 -1.61892 0
M  V30 313 O 38.5764 0.549336 -1.93763 0
M  V30 314 C 35.6414 0.62158 -3.41083 0
M  V30 315 C 34.7024 -0.256315 -4.28534 0
M  V30 316 C 33.9354 0.544807 -5.30912 0
M  V30 317 O 34.1584 1.77944 -5.41934 0
M  V30 318 O 33.0924 -0.0646478 -6.01865 0
M  V30 319 H 36.9184 -1.03208 -2.85625 0
M  V30 320 H 34.5034 -0.569025 -1.38139 0
M  V30 321 H 36.3854 1.10067 -4.06772 0
M  V30 322 H 35.0604 1.41165 -2.91297 0
M  V30 323 H 33.9674 -0.782559 -3.65823 0
M  V30 324 H 35.3004 -1.01034 -4.81719 0
M  V30 325 N 36.9525 1.47285 -0.560781 0
M  V30 326 C 38.3635 1.86258 -0.128343 0
M  V30 327 C 38.7145 1.46699 1.30284 0
M  V30 328 O 37.8395 0.871698 1.98067 0
M  V30 329 C 38.4345 3.38044 -0.22614 0
M  V30 330 C 36.9935 3.76096 0.151283 0
M  V30 331 C 36.1405 2.71335 -0.572084 0
M  V30 332 H 39.0915 1.38752 -0.770297 0
M  V30 333 H 39.1125 3.76441 0.554322 0
M  V30 334 H 38.6245 3.66806 -1.26788 0
M  V30 335 H 36.7255 3.52951 1.19399 0
M  V30 336 H 36.8385 4.78641 -0.209765 0
M  V30 337 H 35.2025 2.54696 -0.0147653 0
M  V30 338 H 35.9855 3.02938 -1.61504 0
M  V30 339 N 38.4306 0.297415 1.54768 0
M  V30 340 C 39.8416 -0.195947 1.85669 0
M  V30 341 C 40.1926 -1.53707 1.21937 0
M  V30 342 O 39.3176 -2.10164 0.515754 0
M  V30 343 C 39.9126 -0.362318 3.36857 0
M  V30 344 C 38.4716 -0.799901 3.67802 0
M  V30 345 C 37.6186 0.0938578 2.77141 0
M  V30 346 H 40.5696 0.518538 1.4999 0
M  V30 347 H 40.5906 -1.19745 3.61167 0
M  V30 348 H 40.1026 0.613921 3.83214 0
M  V30 349 H 38.2036 -1.78682 3.26961 0
M  V30 350 H 38.3166 -0.621773 4.75048 0
M  V30 351 H 36.6806 -0.426254 2.51108 0
M  V30 352 H 37.4636 1.06639 3.26318 0
M  V30 353 N 39.9087 -1.5758 0.0250728 0
M  V30 354 C 41.3197 -1.79476 -0.514323 0
M  V30 355 C 41.6707 -0.934956 -1.72491 0
M  V30 356 O 40.7957 -0.144245 -2.15919 0
M  V30 357 C 41.3907 -3.25503 -0.939842 0
M  V30 358 C 39.9497 -3.48408 -1.42438 0
M  V30 359 C 39.0967 -2.74583 -0.387201 0
M  V30 360 H 42.0477 -1.567 0.25113 0
M  V30 361 H 42.0687 -3.34992 -1.80445 0
M  V30 362 H 41.5807 -3.88056 -0.0585628 0
M  V30 363 H 39.6817 -2.91103 -2.32572 0
M  V30 364 H 39.7947 -4.57119 -1.43455 0
M  V30 365 H 38.1587 -2.39942 -0.854409 0
M  V30 366 H 38.9417 -3.39849 0.485543 0
M  V30 367 N 41.3868 0.248026 -1.55636 0
M  V30 368 C 42.7978 0.817177 -1.67866 0
M  V30 369 C 43.1488 1.86069 -0.622322 0
M  V30 370 O 42.2738 2.15157 0.231618 0
M  V30 371 C 42.8688 1.489 -3.04326 0
M  V30 372 C 41.4278 2.00587 -3.185 0
M  V30 373 C 40.5748 0.856573 -2.63739 0
M  V30 374 H 43.5258 0.0238579 -1.58682 0
M  V30 375 H 43.5468 2.35698 -2.98708 0
M  V30 376 H 43.0588 0.729279 -3.81186 0
M  V30 377 H 41.1598 2.79443 -2.4646 0
M  V30 378 H 41.2728 2.20402 -4.25393 0
M  V30 379 H 39.6368 1.25678 -2.21534 0
M  V30 380 H 40.4198 0.109953 -3.43124 0
M  V30 381 N 42.8649 1.48995 0.513639 0
M  V30 382 C 44.1109 1.59053 1.26783 0
M  V30 383 C 44.4659 0.268136 1.90522 0
M  V30 384 O 43.7589 -0.730534 1.77126 0
M  V30 385 C 43.9529 2.67756 2.36731 0
M  V30 386 C 43.7819 4.10437 1.83771 0
M  V30 387 C 42.5519 4.7738 1.65639 0
M  V30 388 C 44.7499 4.9608 1.35681 0
M  V30 389 N 42.7319 6.04419 1.07476 0
M  V30 390 C 44.1029 6.13496 0.895715 0
M  V30 391 C 46.1579 4.82177 1.24136 0
M  V30 392 C 44.8609 7.1854 0.3306 0
M  V30 393 C 46.8869 5.87358 0.690229 0
M  V30 394 C 46.2489 7.03993 0.239292 0
M  V30 395 H 42.3479 0.636463 0.454355 0
M  V30 396 H 44.9319 1.85948 0.577196 0
M  V30 397 H 43.1029 2.42655 3.03271 0
M  V30 398 H 44.8349 2.67406 3.0377 0
M  V30 399 H 41.5899 4.33974 1.8964 0
M  V30 400 H 42.0139 6.72214 0.803579 0
M  V30 401 H 46.6559 3.92329 1.57601 0
M  V30 402 H 44.3739 8.08098 -0.0163435 0
M  V30 403 H 47.9599 5.78658 0.603852 0
M  V30 404 H 46.8399 7.83992 -0.180526 0
M  V30 405 N 44.343 -0.763751 1.37857 0
M  V30 406 C 45.754 -1.3405 1.29952 0
M  V30 407 C 46.105 -1.96138 -0.0492898 0
M  V30 408 O 45.23 -1.94372 -0.951239 0
M  V30 409 C 45.825 -2.43729 2.35333 0
M  V30 410 C 44.384 -2.97151 2.31037 0
M  V30 411 C 43.531 -1.70438 2.18738 0
M  V30 412 H 46.482 -0.563396 1.48363 0
M  V30 413 H 46.503 -3.23412 2.00462 0
M  V30 414 H 46.015 -1.9851 3.33489 0
M  V30 415 H 44.116 -3.46724 1.3643 0
M  V30 416 H 44.229 -3.52221 3.24772 0
M  V30 417 H 42.593 -1.93673 1.65418 0
M  V30 418 H 43.376 -1.27312 3.18821 0
M  V30 419 N 45.8211 -1.22559 -0.990812 0
M  V30 420 C 47.2321 -1.04791 -1.54518 0
M  V30 421 C 47.5831 0.387998 -1.92325 0
M  V30 422 O 46.7081 1.27328 -1.74976 0
M  V30 423 C 47.3031 -1.896 -2.80779 0
M  V30 424 C 45.8621 -1.76124 -3.32652 0
M  V30 425 C 45.0091 -1.8594 -2.05722 0
M  V30 426 H 47.9601 -1.36374 -0.811662 0
M  V30 427 H 47.9811 -1.41464 -3.53225 0
M  V30 428 H 47.4931 -2.94101 -2.53231 0
M  V30 429 H 45.5941 -0.743643 -3.65104 0
M  V30 430 H 45.7071 -2.58913 -4.03114 0
M  V30 431 H 44.0711 -1.29403 -2.19379 0
M  V30 432 H 44.8541 -2.91976 -1.80568 0
M  V30 433 N 47.2992 1.18797 -1.03562 0
M  V30 434 C 48.7102 1.70322 -0.764676 0
M  V30 435 C 49.0612 1.82708 0.714996 0
M  V30 436 O 48.1862 1.50299 1.55689 0
M  V30 437 C 48.7812 3.09356 -1.38145 0
M  V30 438 C 47.3402 3.58114 -1.15895 0
M  V30 439 C 46.4872 2.34798 -1.4753 0
M  V30 440 H 49.4382 1.03543 -1.20268 0
M  V30 441 H 49.4592 3.72378 -0.781977 0
M  V30 442 H 48.9712 3.00309 -2.45837 0
M  V30 443 H 47.0722 3.72464 -0.100544 0
M  V30 444 H 47.1852 4.4184 -1.8524 0
M  V30 445 H 45.5492 2.38464 -0.894829 0
M  V30 446 H 46.3322 2.28375 -2.56319 0
M  V30 447 N 48.7773 0.814389 1.34928 0
M  V30 448 C 50.1883 0.458364 1.80986 0
M  V30 449 C 50.5393 -1.02042 1.67577 0
M  V30 450 O 49.6643 -1.79352 1.21086 0
M  V30 451 C 50.2593 0.825212 3.28597 0
M  V30 452 C 48.8183 0.521677 3.72767 0
M  V30 453 C 47.9653 1.04668 2.56788 0
M  V30 454 H 50.9163 1.00533 1.22795 0
M  V30 455 H 50.9373 0.12571 3.80292 0
M  V30 456 H 50.4493 1.90154 3.38324 0
M  V30 457 H 48.5503 -0.545589 3.68584 0
M  V30 458 H 48.6633 1.05977 4.67232 0
M  V30 459 H 47.0273 0.468622 2.50352 0
M  V30 460 H 47.8103 2.12927 2.6929 0
M  V30 461 N 50.2554 -1.46986 0.568584 0
M  V30 462 C 51.6664 -1.86188 0.138219 0
M  V30 463 C 52.0174 -1.47388 -1.29504 0
M  V30 464 O 51.1424 -0.88219 -1.97602 0
M  V30 465 C 51.7374 -3.3792 0.244065 0
M  V30 466 C 50.2964 -3.76171 -0.131335 0
M  V30 467 C 49.4434 -2.71027 0.586465 0
M  V30 468 H 52.3944 -1.38342 0.777645 0
M  V30 469 H 52.4154 -3.76729 -0.534351 0
M  V30 470 H 51.9274 -3.66128 1.28731 0
M  V30 471 H 50.0284 -3.5358 -1.17526 0
M  V30 472 H 50.1414 -4.78523 0.235146 0
M  V30 473 H 48.5054 -2.54684 0.0282722 0
M  V30 474 H 49.2884 -3.02077 1.63109 0
M  V30 475 N 51.7335 -0.305618 -1.54608 0
M  V30 476 C 53.1445 0.186098 -1.8577 0
M  V30 477 C 53.4955 1.53058 -1.22751 0
M  V30 478 O 52.6205 2.09888 -0.526893 0
M  V30 479 C 53.2155 0.344449 -3.37044 0
M  V30 480 C 51.7745 0.780384 -3.68221 0
M  V30 481 C 50.9215 -0.108554 -2.77087 0
M  V30 482 H 53.8725 -0.526485 -1.49712 0
M  V30 483 H 53.8935 1.17828 -3.61796 0
M  V30 484 H 53.4055 -0.634235 -3.82883 0
M  V30 485 H 51.5065 1.76945 -3.27904 0
M  V30 486 H 51.6195 0.596572 -4.75371 0
M  V30 487 H 49.9835 0.412931 -2.5133 0
M  V30 488 H 50.7665 -1.08368 -3.25747 0
M  V30 489 N 53.2116 1.57565 -0.0334293 0
M  V30 490 C 54.6226 1.79746 0.504798 0
M  V30 491 C 54.9736 0.944091 1.71992 0
M  V30 492 O 54.0986 0.155694 2.15839 0
M  V30 493 C 54.6936 3.25997 0.922567 0
M  V30 494 C 53.2526 3.49159 1.40588 0
M  V30 495 C 52.3996 2.74785 0.372633 0
M  V30 496 H 55.3506 1.56565 -0.259436 0
M  V30 497 H 55.3716 3.35945 1.78666 0
M  V30 498 H 54.8836 3.88081 0.0379825 0
M  V30 499 H 52.9846 2.92332 2.31025 0
M  V30 500 H 53.0976 4.57873 1.41028 0
M  V30 501 H 51.4616 2.40391 0.841672 0
M  V30 502 H 52.2446 3.39587 -0.503559 0
M  V30 503 N 54.6897 -0.239769 1.55765 0
M  V30 504 C 55.6527 -1.28038 1.90103 0
M  V30 505 C 56.6527 -1.40723 0.778055 0
M  V30 506 O 57.8427 -1.39301 1.04599 0
M  V30 507 C 54.9747 -2.65702 2.13577 0
M  V30 508 H 56.1677 -0.988048 2.83157 0
M  V30 509 H 53.7207 -0.479382 1.48767 0
M  V30 510 H 54.4557 -3.00063 1.23015 0
M  V30 511 H 54.2407 -2.57875 2.95369 0
M  V30 512 H 55.7307 -3.40828 2.41301 0
M  V30 513 N 56.1678 -1.49265 -0.50573 0
M  V30 514 C 57.5788 -1.51769 -1.08734 0
M  V30 515 C 57.9298 -0.301192 -1.93874 0
M  V30 516 O 57.0548 0.589456 -2.08217 0
M  V30 517 C 57.6498 -2.75017 -1.97867 0
M  V30 518 C 56.2088 -2.80314 -2.51199 0
M  V30 519 C 55.3558 -2.4562 -1.28709 0
M  V30 520 H 58.3068 -1.56031 -0.289855 0
M  V30 521 H 58.3278 -2.5491 -2.82491 0
M  V30 522 H 57.8398 -3.63539 -1.35873 0
M  V30 523 H 55.9408 -1.96061 -3.16845 0
M  V30 524 H 56.0538 -3.82366 -2.88675 0
M  V30 525 H 54.4178 -1.97297 -1.61078 0
M  V30 526 H 55.2008 -3.36411 -0.6843 0
M  V30 527 N 57.6459 0.756429 -1.3826 0
M  V30 528 C 59.0569 1.33359 -1.30661 0
M  V30 529 C 59.4079 1.96161 0.0388875 0
M  V30 530 O 58.5329 1.94874 0.940918 0
M  V30 531 C 59.1279 2.42477 -2.36622 0
M  V30 532 C 57.6869 2.95922 -2.3261 0
M  V30 533 C 56.8339 1.69275 -2.19639 0
M  V30 534 H 59.7849 0.55552 -1.4866 0
M  V30 535 H 59.8059 3.22345 -2.02174 0
M  V30 536 H 59.3179 1.96739 -3.34538 0
M  V30 537 H 57.4189 3.45996 -1.38267 0
M  V30 538 H 57.5319 3.50494 -3.26636 0
M  V30 539 H 55.8959 1.92793 -1.66442 0
M  V30 540 H 56.6789 1.25619 -3.19491 0
M  V30 541 N 59.124 1.23083 0.984299 0
M  V30 542 C 60.535 1.05609 1.5396 0
M  V30 543 C 60.886 -0.377793 1.92528 0
M  V30 544 O 60.011 -1.26398 1.75649 0
M  V30 545 C 60.606 1.91087 2.7977 0
M  V30 546 C 59.165 1.77885 3.31713 0
M  V30 547 C 58.312 1.87028 2.04733 0
M  V30 548 H 61.263 1.36802 0.804419 0
M  V30 549 H 61.284 1.43336 3.5247 0
M  V30 550 H 60.796 2.9544 2.51668 0
M  V30 551 H 58.897 0.762995 3.64704 0
M  V30 552 H 59.01 2.61047 4.01735 0
M  V30 553 H 57.374 1.30565 2.18689 0
M  V30 554 H 58.157 2.92929 1.79017 0
M  V30 555 N 60.6021 -1.18246 1.0419 0
M  V30 556 C 61.5651 -2.20128 0.638452 0
M  V30 557 C 62.5651 -1.57885 -0.304805 0
M  V30 558 O 63.7551 -1.73967 -0.0900369 0
M  V30 559 C 60.8871 -3.4084 -0.0637751 0
M  V30 560 H 62.0801 -2.57336 1.54007 0
M  V30 561 H 59.6331 -1.32152 0.834598 0
M  V30 562 H 60.3681 -3.09166 -0.979136 0
M  V30 563 H 60.1531 -3.8726 0.614198 0
M  V30 564 H 61.6431 -4.16274 -0.332512 0
M  V30 565 N 62.0802 -0.821533 -1.34494 0
M  V30 566 C 63.4912 -0.467956 -1.8074 0
M  V30 567 C 63.8422 1.01151 -1.68116 0
M  V30 568 O 62.9672 1.78707 -1.22036 0
M  V30 569 C 63.5622 -0.842627 -3.28154 0
M  V30 570 C 62.1212 -0.541439 -3.72485 0
M  V30 571 C 61.2682 -1.06028 -2.56229 0
M  V30 572 H 64.2192 -1.01183 -1.22261 0
M  V30 573 H 64.2402 -0.145876 -3.8022 0
M  V30 574 H 63.7522 -1.91945 -3.37311 0
M  V30 575 H 61.8532 0.526034 -3.68868 0
M  V30 576 H 61.9662 -1.08453 -4.66663 0
M  V30 577 H 60.3302 -0.481892 -2.501 0
M  V30 578 H 61.1132 -2.14352 -2.68157 0
M  V30 579 N 63.5583 1.46682 -0.576371 0
M  V30 580 C 64.9693 1.86112 -0.148091 0
M  V30 581 C 65.3203 1.48073 1.2872 0
M  V30 582 O 64.4453 0.892656 1.97131 0
M  V30 583 C 65.0403 3.37786 -0.261982 0
M  V30 584 C 63.5993 3.76235 0.111384 0
M  V30 585 C 62.7463 2.70713 -0.60083 0
M  V30 586 H 65.6973 1.37927 -0.78497 0
M  V30 587 H 65.7183 3.77007 0.514364 0
M  V30 588 H 65.2303 3.6544 -1.30671 0
M  V30 589 H 63.3313 3.54198 1.15649 0
M  V30 590 H 63.4443 4.78391 -0.26052 0
M  V30 591 H 61.8083 2.54666 -0.0417783 0
M  V30 592 H 62.5913 3.01208 -1.64708 0
M  V30 593 N 65.0364 0.313813 1.54444 0
M  V30 594 C 65.9664 -0.549454 2.26943 0
M  V30 595 C 66.9474 -1.12741 1.27372 0
M  V30 596 O 68.1324 -1.15436 1.56167 0
M  V30 597 C 65.2624 -1.71523 3.01989 0
M  V30 598 C 64.2164 -1.26703 4.08816 0
M  V30 599 C 63.5424 -2.51898 4.71647 0
M  V30 600 C 64.8424 -0.388962 5.2085 0
M  V30 601 H 66.5364 0.0552661 2.99349 0
M  V30 602 H 64.0824 0.0280207 1.43973 0
M  V30 603 H 66.0354 -2.32535 3.51433 0
M  V30 604 H 64.7594 -2.34639 2.27183 0
M  V30 605 H 63.4184 -0.679896 3.6024 0
M  V30 606 H 63.0664 -3.13356 3.93468 0
M  V30 607 H 62.7664 -2.22605 5.43802 0
M  V30 608 H 64.2904 -3.1369 5.23861 0
M  V30 609 H 65.7044 -0.905107 5.6611 0
M  V30 610 H 64.1014 -0.18924 5.99802 0
M  V30 611 H 65.1714 0.582699 4.81386 0
M  V30 612 N 66.5145 -1.57545 0.0417849 0
M  V30 613 C 67.4445 -2.14009 -0.933929 0
M  V30 614 C 68.4255 -1.05938 -1.33083 0
M  V30 615 O 69.6105 -1.33833 -1.40721 0
M  V30 616 C 66.7405 -2.67747 -2.21199 0
M  V30 617 C 65.6945 -3.80718 -1.95544 0
M  V30 618 C 65.0205 -4.20935 -3.29724 0
M  V30 619 C 66.3205 -5.06258 -1.28452 0
M  V30 620 H 68.0145 -2.95788 -0.463645 0
M  V30 621 H 65.5605 -1.42285 -0.221573 0
M  V30 622 H 67.5135 -3.05886 -2.89848 0
M  V30 623 H 66.2375 -1.83147 -2.70416 0
M  V30 624 H 64.8965 -3.43037 -1.2931 0
M  V30 625 H 64.5445 -3.33298 -3.76724 0
M  V30 626 H 64.2445 -4.9707 -3.13361 0
M  V30 627 H 65.7685 -4.61666 -3.9962 0
M  V30 628 H 67.1825 -5.41903 -1.8712 0
M  V30 629 H 65.5795 -5.87475 -1.22445 0
M  V30 630 H 66.6495 -4.84207 -0.259219 0
M  V30 631 N 67.9926 0.231505 -1.5589 0
M  V30 632 C 69.2176 0.978689 -1.82856 0
M  V30 633 C 69.6426 1.77559 -0.620846 0
M  V30 634 O 69.0006 1.76119 0.430305 0
M  V30 635 C 69.0486 1.87997 -3.07716 0
M  V30 636 O 68.1526 2.97393 -2.85712 0
M  V30 637 H 67.4936 0.277663 -0.603158 0
M  V30 638 H 70.0236 0.24783 -2.03093 0
M  V30 639 H 70.0336 2.2917 -3.37558 0
M  V30 640 H 68.7086 1.29417 -3.95252 0
M  V30 641 H 67.2856 2.60238 -2.67078 0
M  V30 642 N 69.4707 1.49531 0.497807 0
M  V30 643 C 70.3807 1.69176 1.62532 0
M  V30 644 C 71.3967 0.5744 1.64246 0
M  V30 645 O 72.5727 0.849497 1.82608 0
M  V30 646 C 69.6377 1.75695 2.98885 0
M  V30 647 C 68.6987 2.9929 3.07773 0
M  V30 648 C 67.9317 3.05488 4.37622 0
M  V30 649 O 68.1547 2.19192 5.26603 0
M  V30 650 O 67.0887 3.9798 4.51548 0
M  V30 651 H 70.9147 2.647 1.48887 0
M  V30 652 H 68.4997 1.3331 0.674441 0
M  V30 653 H 70.3817 1.82317 3.79919 0
M  V30 654 H 69.0567 0.8335 3.12785 0
M  V30 655 H 67.9637 2.98183 2.25915 0
M  V30 656 H 69.2967 3.91125 2.98801 0
M  V30 657 N 70.9488 -0.749086 1.3866 0
M  V30 658 C 71.9118 -1.84457 1.36045 0
M  V30 659 C 72.9118 -1.58682 0.260122 0
M  V30 660 O 74.1018 -1.66343 0.517261 0
M  V30 661 C 71.2338 -3.22008 1.11911 0
M  V30 662 H 72.4268 -1.88182 2.33512 0
M  V30 663 H 69.9798 -0.951266 1.24019 0
M  V30 664 H 70.7148 -3.2395 0.150686 0
M  V30 665 H 70.4998 -3.42111 1.91579 0
M  V30 666 H 71.9898 -4.0208 1.12788 0
M  V30 667 N 72.4269 -1.23603 -0.977757 0
M  V30 668 C 73.6519 -1.09735 -1.75991 0
M  V30 669 C 74.0769 0.346858 -1.84874 0
M  V30 670 O 73.4349 1.25093 -1.3123 0
M  V30 671 C 73.4829 -1.73051 -3.16363 0
M  V30 672 O 72.5869 -0.994452 -4.0023 0
M  V30 673 H 71.9279 -0.384476 -0.541364 0
M  V30 674 H 74.4579 -1.6371 -1.2272 0
M  V30 675 H 74.4679 -1.78398 -3.66931 0
M  V30 676 H 73.1429 -2.78137 -3.09213 0
M  V30 677 H 71.7199 -1.01812 -3.58732 0
M  V30 678 N 73.905 1.17692 -1.04816 0
M  V30 679 C 75.316 1.69501 -0.782698 0
M  V30 680 C 75.667 1.83456 0.695577 0
M  V30 681 O 74.792 1.51942 1.54086 0
M  V30 682 C 75.387 3.07874 -1.41419 0
M  V30 683 C 73.946 3.56864 -1.19686 0
M  V30 684 C 73.093 2.3322 -1.50012 0
M  V30 685 H 76.044 1.02262 -1.2136 0
M  V30 686 H 76.065 3.71528 -0.821428 0
M  V30 687 H 75.577 2.97685 -2.49009 0
M  V30 688 H 73.678 3.72337 -0.140043 0
M  V30 689 H 73.791 4.39851 -1.89916 0
M  V30 690 H 72.155 2.37501 -0.920071 0
M  V30 691 H 72.938 2.25644 -2.58727 0
M  V30 692 N 75.3831 0.828654 1.34056 0
M  V30 693 C 76.2931 0.256725 2.33191 0
M  V30 694 C 77.3091 -0.611898 1.62886 0
M  V30 695 O 78.4851 -0.51844 1.94613 0
M  V30 696 C 75.5501 -0.567238 3.42028 0
M  V30 697 C 74.6111 0.324458 4.28072 0
M  V30 698 C 73.8441 -0.460274 5.31712 0
M  V30 699 O 74.0671 -1.693 5.44696 0
M  V30 700 O 73.0011 0.160391 6.01686 0
M  V30 701 H 76.8271 1.07739 2.83947 0
M  V30 702 H 74.4121 0.59093 1.37217 0
M  V30 703 H 76.2941 -1.03582 4.08471 0
M  V30 704 H 74.9691 -1.36513 2.93506 0
M  V30 705 H 73.8761 0.840659 3.64532 0
M  V30 706 H 75.2091 1.08685 4.8005 0
M  V30 707 N 76.8612 -1.46375 0.584142 0
M  V30 708 C 78.2722 -1.86031 0.157959 0
M  V30 709 C 78.6232 -1.48753 -1.27933 0
M  V30 710 O 77.7482 -0.903098 -1.96655 0
M  V30 711 C 78.3432 -3.37642 0.279892 0
M  V30 712 C 76.9022 -3.76289 -0.09143 0
M  V30 713 C 76.0492 -2.7039 0.615178 0
M  V30 714 H 79.0002 -1.37509 0.792274 0
M  V30 715 H 79.0212 -3.77275 -0.494364 0
M  V30 716 H 78.5332 -3.64742 1.32607 0
M  V30 717 H 76.6342 -3.54806 -1.13769 0
M  V30 718 H 76.7472 -4.78246 0.285886 0
M  V30 719 H 75.1112 -2.5464 0.0552833 0
M  V30 720 H 75.8942 -3.0033 1.66303 0
M  V30 721 N 78.3393 -0.321999 -1.54275 0
M  V30 722 C 79.5883 0.281931 -1.9972 0
M  V30 723 C 79.9013 1.53369 -1.21397 0
M  V30 724 O 81.1073 2.21352 -1.57211 0
M  V30 725 C 79.5633 0.5529 -3.55628 0
M  V30 726 C 79.1713 -0.681721 -4.42783 0
M  V30 727 C 80.9153 1.11687 -4.09544 0
M  V30 728 C 78.8223 -0.382742 -5.9016 0
M  V30 729 H 77.7523 0.109124 -0.746062 0
M  V30 730 H 80.4033 -0.43398 -1.78294 0
M  V30 731 H 78.7853 1.32896 -3.73035 0
M  V30 732 H 79.9593 -1.45723 -4.37151 0
M  V30 733 H 78.2743 -1.1658 -3.99748 0
M  V30 734 H 80.8713 1.35515 -5.17242 0
M  V30 735 H 81.2143 2.06575 -3.61431 0
M  V30 736 H 81.7473 0.402032 -3.95763 0
M  V30 737 H 78.4863 -1.30076 -6.42464 0
M  V30 738 H 78.0063 0.355094 -5.98748 0
M  V30 739 H 79.6853 0.00800157 -6.47 0
M  V30 740 N 79.8174 1.5752 -0.0501392 0
M  V30 741 C 81.2284 1.80271 0.485705 0
M  V30 742 C 81.5794 0.96228 1.70981 0
M  V30 743 O 80.7044 0.178578 2.15662 0
M  V30 744 C 81.2994 3.26957 0.887938 0
M  V30 745 C 79.8584 3.5063 1.36877 0
M  V30 746 C 79.0054 2.75165 0.343468 0
M  V30 747 H 81.9564 1.56281 -0.276028 0
M  V30 748 H 81.9774 3.37821 1.75093 0
M  V30 749 H 81.4894 3.881 -0.0031809 0
M  V30 750 H 79.5904 2.94766 2.27911 0
M  V30 751 H 79.7034 4.59343 1.36164 0
M  V30 752 H 78.0674 2.4127 0.816128 0
M  V30 753 H 78.8504 3.39034 -0.539548 0
M  V30 754 N 81.2955 -0.223234 1.56011 0
M  V30 755 C 82.2055 -1.29766 1.95443 0
M  V30 756 C 83.2215 -1.51373 0.858028 0
M  V30 757 O 84.3975 -1.64536 1.16146 0
M  V30 758 C 81.4625 -2.62772 2.26167 0
M  V30 759 C 80.5235 -2.49482 3.49367 0
M  V30 760 C 79.7565 -3.76145 3.78616 0
M  V30 761 O 79.9795 -4.79087 3.09568 0
M  V30 762 O 78.9135 -3.73358 4.72109 0
M  V30 763 H 82.7395 -0.99309 2.87004 0
M  V30 764 H 80.3245 -0.425958 1.43199 0
M  V30 765 H 82.2065 -3.41327 2.47131 0
M  V30 766 H 80.8815 -2.92913 1.37781 0
M  V30 767 H 79.7885 -1.69133 3.33684 0
M  V30 768 H 81.1215 -2.2428 4.38131 0
M  V30 769 N 82.7736 -1.49793 -0.48987 0
M  V30 770 C 84.1846 -1.52914 -1.07118 0
M  V30 771 C 84.5356 -0.321738 -1.93544 0
M  V30 772 O 83.6606 0.567338 -2.08831 0
M  V30 773 C 84.2556 -2.771 -1.94938 0
M  V30 774 C 82.8146 -2.82963 -2.48212 0
M  V30 775 C 81.9616 -2.46972 -1.26096 0
M  V30 776 H 84.9126 -1.56329 -0.273289 0
M  V30 777 H 84.9336 -2.57892 -2.79771 0
M  V30 778 H 84.4456 -3.64959 -1.32009 0
M  V30 779 H 82.5466 -1.99411 -3.14748 0
M  V30 780 H 82.6596 -3.85406 -2.84603 0
M  V30 781 H 81.0236 -1.98994 -1.58976 0
M  V30 782 H 81.8066 -3.37118 -0.648581 0
M  V30 783 N 84.2517 0.741722 -1.39055 0
M  V30 784 C 85.4917 1.51385 -1.37338 0
M  V30 785 C 85.8557 1.91972 0.0330513 0
M  V30 786 O 87.0567 2.68229 0.175174 0
M  V30 787 C 85.3277 2.72481 -2.31276 0
M  V30 788 S 86.8867 3.62211 -2.47687 0
M  V30 789 H 83.7047 0.517906 -0.487129 0
M  V30 790 H 86.3067 0.86969 -1.7509 0
M  V30 791 H 85.0107 2.40793 -3.32336 0
M  V30 792 H 84.5417 3.41832 -1.94716 0
M  V30 793 H 86.5567 4.65812 -1.70978 0
M  V30 794 N 85.7298 1.2412 0.971189 0
M  V30 795 C 87.1408 1.07236 1.52831 0
M  V30 796 C 87.4918 -0.357352 1.92918 0
M  V30 797 O 86.6168 -1.24528 1.76979 0
M  V30 798 C 87.2118 1.94043 2.77728 0
M  V30 799 C 85.7708 1.81394 3.29808 0
M  V30 800 C 84.9178 1.89189 2.02738 0
M  V30 801 H 87.8688 1.37648 0.789864 0
M  V30 802 H 87.8898 1.47066 3.5093 0
M  V30 803 H 87.4018 2.98093 2.4852 0
M  V30 804 H 85.5028 0.801634 3.63874 0
M  V30 805 H 85.6158 2.65294 3.98944 0
M  V30 806 H 83.9798 1.32877 2.17292 0
M  V30 807 H 84.7628 2.94812 1.759 0
M  V30 808 N 87.2079 -1.17134 1.05439 0
M  V30 809 C 88.1179 -2.24878 0.668365 0
M  V30 810 C 89.1339 -1.71186 -0.311687 0
M  V30 811 O 90.3099 -2.00738 -0.163161 0
M  V30 812 C 87.3749 -3.46662 0.051648 0
M  V30 813 C 86.4359 -4.15429 1.08246 0
M  V30 814 C 85.6689 -5.31399 0.495082 0
M  V30 815 O 85.8919 -5.66153 -0.694743 0
M  V30 816 O 84.8259 -5.89187 1.23056 0
M  V30 817 H 88.6519 -2.60189 1.56637 0
M  V30 818 H 86.2369 -1.24482 0.826104 0
M  V30 819 H 88.1189 -4.20394 -0.290966 0
M  V30 820 H 86.7939 -3.13142 -0.819971 0
M  V30 821 H 85.7009 -3.43704 1.47711 0
M  V30 822 H 87.0339 -4.52982 1.92532 0
M  V30 823 N 88.686 -0.835752 -1.33615 0
M  V30 824 C 89.616 -0.281739 -2.31794 0
M  V30 825 C 90.597 0.608833 -1.58831 0
M  V30 826 O 91.782 0.533035 -1.86741 0
M  V30 827 C 88.912 0.546612 -3.42971 0
M  V30 828 C 87.866 -0.247904 -4.27281 0
M  V30 829 C 87.192 0.704001 -5.30045 0
M  V30 830 C 88.492 -1.46324 -5.01385 0
M  V30 831 H 90.186 -1.10206 -2.78379 0
M  V30 832 H 87.732 -0.531388 -1.33837 0
M  V30 833 H 89.685 0.944467 -4.1068 0
M  V30 834 H 88.409 1.40011 -2.95067 0
M  V30 835 H 87.068 -0.627281 -3.61194 0
M  V30 836 H 86.716 1.55381 -4.78399 0
M  V30 837 H 86.416 0.176524 -5.87335 0
M  V30 838 H 87.94 1.09944 -6.0062 0
M  V30 839 H 89.354 -1.13871 -5.61877 0
M  V30 840 H 87.751 -1.92728 -5.6831 0
M  V30 841 H 88.821 -2.23467 -4.30338 0
M  V30 842 N 90.1641 1.46063 -0.591896 0
M  V30 843 C 91.1271 2.28854 0.125973 0
M  V30 844 C 92.1271 1.38903 0.810107 0
M  V30 845 O 93.3171 1.61186 0.66066 0
M  V30 846 C 90.4491 3.19526 1.1881 0
M  V30 847 H 91.6421 2.93802 -0.601717 0
M  V30 848 H 89.1951 1.52325 -0.350254 0
M  V30 849 H 89.9301 2.59345 1.94707 0
M  V30 850 H 89.7151 3.85766 0.701936 0
M  V30 851 H 91.2051 3.81817 1.69132 0
M  V30 852 N 91.6422 0.330177 1.54103 0
M  V30 853 C 93.0532 -0.15652 1.86043 0
M  V30 854 C 93.4042 -1.51086 1.2517 0
M  V30 855 O 92.5292 -2.09023 0.560217 0
M  V30 856 C 93.1242 -0.290784 3.3755 0
M  V30 857 C 91.6832 -0.721705 3.69416 0
M  V30 858 C 90.8302 0.152622 2.7688 0
M  V30 859 H 93.7812 0.550237 1.48856 0
M  V30 860 H 93.8022 -1.12058 3.63625 0
M  V30 861 H 93.3142 0.695068 3.81825 0
M  V30 862 H 91.4152 -1.71706 3.30678 0
M  V30 863 H 91.5282 -0.520869 4.7626 0
M  V30 864 H 89.8922 -0.372894 2.51956 0
M  V30 865 H 90.6752 1.13536 3.23982 0
M  V30 866 N 93.1203 -1.57491 0.0584922 0
M  V30 867 C 94.3683 -1.92597 -0.612436 0
M  V30 868 C 94.6893 -0.938162 -1.70949 0
M  V30 869 O 93.9593 0.0158301 -1.95894 0
M  V30 870 H 92.5393 -0.710964 -0.229214 0
M  V30 871 H 95.2013 -1.94571 0.113218 0
M  V30 872 H 94.2973 -2.94038 -1.04633 0
M  V30 873 N 94.5984 0.214957 -1.56127 0
M  V30 874 C 96.0094 0.781386 -1.69562 0
M  V30 875 C 96.3604 1.84707 -0.66165 0
M  V30 876 O 95.4854 2.156 0.185927 0
M  V30 877 C 96.0804 1.42411 -3.07416 0
M  V30 878 C 94.6394 1.93786 -3.22683 0
M  V30 879 C 93.7864 0.800438 -2.65496 0
M  V30 880 H 96.7374 -0.00980633 -1.58697 0
M  V30 881 H 96.7584 2.29309 -3.0364 0
M  V30 882 H 96.2704 0.64826 -3.82648 0
M  V30 883 H 94.3714 2.74152 -2.52332 0
M  V30 884 H 94.4844 2.1133 -4.29973 0
M  V30 885 H 92.8484 1.2095 -2.2415 0
M  V30 886 H 93.6314 0.0371471 -3.4328 0
M  V30 887 N 96.0765 1.50051 0.48192 0
M  V30 888 C 97.3165 1.62128 1.24474 0
M  V30 889 C 97.6805 0.309742 1.89485 0
M  V30 890 O 98.8815 0.305854 2.67054 0
M  V30 891 C 97.1525 2.76151 2.26882 0
M  V30 892 S 98.7115 3.08297 3.12247 0
M  V30 893 H 95.5295 0.571661 0.422759 0
M  V30 894 H 98.1315 1.87791 0.54359 0
M  V30 895 H 96.8355 3.69942 1.77683 0
M  V30 896 H 96.3665 2.52541 3.0164 0
M  V30 897 H 98.3815 2.51287 4.27866 0
M  V30 898 N 97.5546 -0.734337 1.39446 0
M  V30 899 C 98.9656 -1.31264 1.32766 0
M  V30 900 C 99.3166 -1.96198 -0.00767497 0
M  V30 901 O 98.4416 -1.96346 -0.909796 0
M  V30 902 C 99.0366 -2.38682 2.4045 0
M  V30 903 C 97.5956 -2.92184 2.37288 0
M  V30 904 C 96.7426 -1.6576 2.22304 0
M  V30 905 H 99.6936 -0.531799 1.49525 0
M  V30 906 H 99.7146 -3.19087 2.07276 0
M  V30 907 H 99.2266 -1.91392 3.37625 0
M  V30 908 H 97.3276 -3.43752 1.43754 0
M  V30 909 H 97.4406 -3.45253 3.3217 0
M  V30 910 H 95.8046 -1.9012 1.69489 0
M  V30 911 H 96.5876 -1.20521 3.21449 0
M  V30 912 N 99.0327 -1.24633 -0.964593 0
M  V30 913 C 99.9427 -1.05859 -2.09359 0
M  V30 914 C 100.959 0.00148855 -1.74 0
M  V30 915 O 102.135 -0.197346 -2.00431 0
M  V30 916 C 99.1997 -0.668879 -3.40187 0
M  V30 917 C 98.2607 -1.80578 -3.89474 0
M  V30 918 C 97.4937 -1.43457 -5.14058 0
M  V30 919 O 97.7167 -0.325775 -5.69469 0
M  V30 920 O 96.6507 -2.2613 -5.57807 0
M  V30 921 H 100.477 -2.00516 -2.28094 0
M  V30 922 H 98.0617 -1.03481 -1.0776 0
M  V30 923 H 99.9437 -0.463211 -4.18846 0
M  V30 924 H 98.6187 0.248536 -3.22744 0
M  V30 925 H 97.5257 -2.06623 -3.11862 0
M  V30 926 H 98.8587 -2.70208 -4.11398 0
M  V30 927 N 100.511 1.16574 -1.06058 0
M  V30 928 C 101.474 2.19085 -0.673392 0
M  V30 929 C 102.474 1.5835 0.279648 0
M  V30 930 O 103.664 1.74088 0.0623488 0
M  V30 931 C 100.796 3.40899 0.00954234 0
M  V30 932 H 101.989 2.54853 -1.58081 0
M  V30 933 H 99.5418 1.30808 -0.855516 0
M  V30 934 H 100.277 3.10684 0.929826 0
M  V30 935 H 100.062 3.86233 -0.67573 0
M  V30 936 H 101.552 4.1675 0.266245 0
M  V30 937 N 101.989 0.842826 1.3317 0
M  V30 938 C 103.217 0.454055 2.01856 0
M  V30 939 C 103.632 -0.94587 1.63397 0
M  V30 940 O 102.989 -1.61534 0.849302 0
M  V30 941 C 103.04 0.569715 3.56982 0
M  V30 942 O 102.761 1.91448 3.94055 0
M  V30 943 C 104.262 0.178412 4.42941 0
M  V30 944 H 101.482 0.17979 0.646465 0
M  V30 945 H 104.026 1.1365 1.70012 0
M  V30 946 H 102.181 -0.0648587 3.87346 0
M  V30 947 H 102.595 1.90282 4.88767 0
M  V30 948 H 104.069 0.310376 5.51127 0
M  V30 949 H 104.546 -0.880056 4.30293 0
M  V30 950 H 105.152 0.787579 4.17944 0
M  V30 951 N 103.467 -1.45747 0.599634 0
M  V30 952 C 104.692 -2.07178 0.0960198 0
M  V30 953 C 105.117 -1.44268 -1.207 0
M  V30 954 O 104.475 -0.532503 -1.73303 0
M  V30 955 C 104.523 -3.60579 -0.0385348 0
M  V30 956 O 103.627 -3.97713 -1.0908 0
M  V30 957 H 102.968 -0.660251 0.0704593 0
M  V30 958 H 105.498 -1.87124 0.827385 0
M  V30 959 H 105.508 -4.07298 -0.239304 0
M  V30 960 H 104.183 -4.05756 0.912947 0
M  V30 961 H 102.76 -3.62678 -0.867135 0
M  V30 962 N 104.945 -0.338344 -1.53925 0
M  V30 963 C 105.855 0.529421 -2.28548 0
M  V30 964 C 106.871 1.11645 -1.3346 0
M  V30 965 O 108.047 1.13325 -1.66492 0
M  V30 966 C 105.112 1.66713 -3.03987 0
M  V30 967 C 104.173 1.11041 -4.14691 0
M  V30 968 C 103.406 2.19389 -4.86522 0
M  V30 969 O 103.629 3.40013 -4.57982 0
M  V30 970 O 102.563 1.83976 -5.73094 0
M  V30 971 H 106.389 -0.0770399 -3.03602 0
M  V30 972 H 103.974 -0.103555 -1.49041 0
M  V30 973 H 105.856 2.32918 -3.5118 0
M  V30 974 H 104.531 2.25949 -2.31794 0
M  V30 975 H 103.438 0.413024 -3.71813 0
M  V30 976 H 104.771 0.562975 -4.8897 0
M  V30 977 N 106.423 1.57458 -0.0668435 0
M  V30 978 C 107.648 1.9804 0.616027 0
M  V30 979 C 108.073 0.944771 1.62652 0
M  V30 980 O 107.431 -0.0902094 1.81075 0
M  V30 981 C 107.479 3.37665 1.26549 0
M  V30 982 O 106.583 3.36701 2.38131 0
M  V30 983 H 105.924 0.644719 0.158849 0
M  V30 984 H 108.454 2.04121 -0.139891 0
M  V30 985 H 108.464 3.7474 1.6135 0
M  V30 986 H 107.139 4.12573 0.525016 0
M  V30 987 H 105.716 3.1139 2.0516 0
M  V30 988 N 107.901 -0.206675 1.56239 0
M  V30 989 C 108.864 -1.23976 1.92776 0
M  V30 990 C 109.864 -1.39041 0.807729 0
M  V30 991 O 111.054 -1.37051 1.0753 0
M  V30 992 C 108.186 -2.61112 2.19165 0
M  V30 993 H 109.379 -0.927764 2.85189 0
M  V30 994 H 106.932 -0.447718 1.4975 0
M  V30 995 H 107.667 -2.97386 1.29352 0
M  V30 996 H 107.452 -2.51552 3.00772 0
M  V30 997 H 108.942 -3.35633 2.48476 0
M  V30 998 N 109.379 -1.50304 -0.473955 0
M  V30 999 C 110.607 -1.64902 -1.24959 0
M  V30 1000 C 111.022 -0.331198 -1.85872 0
M  V30 1001 O 110.379 0.68652 -1.69095 0
M  V30 1002 C 110.43 -2.73803 -2.36038 0
M  V30 1003 O 110.151 -4.00477 -1.77624 0
M  V30 1004 C 111.652 -2.99349 -3.26964 0
M  V30 1005 H 108.872 -0.554383 -0.378022 0
M  V30 1006 H 111.416 -1.9651 -0.566054 0
M  V30 1007 H 109.571 -2.44898 -3.00173 0
M  V30 1008 H 109.985 -4.60678 -2.5075 0
M  V30 1009 H 111.459 -3.79217 -4.01121 0
M  V30 1010 H 111.936 -2.10307 -3.85574 0
M  V30 1011 H 112.542 -3.29774 -2.68569 0
M  V30 1012 N 110.857 0.726932 -1.39834 0
M  V30 1013 C 111.767 1.87131 -1.41489 0
M  V30 1014 C 112.783 1.71239 -0.308757 0
M  V30 1015 O 113.959 1.93701 -0.551529 0
M  V30 1016 C 111.024 3.22811 -1.26468 0
M  V30 1017 C 110.085 3.51039 -2.47124 0
M  V30 1018 C 109.318 4.80245 -2.3281 0
M  V30 1019 O 109.541 5.54537 -1.33585 0
M  V30 1020 O 108.475 5.08554 -3.21957 0
M  V30 1021 H 112.301 1.8869 -2.3797 0
M  V30 1022 H 109.886 0.875837 -1.21035 0
M  V30 1023 H 111.768 4.03877 -1.20255 0
M  V30 1024 H 110.443 3.22005 -0.330862 0
M  V30 1025 H 109.35 2.70027 -2.58914 0
M  V30 1026 H 110.683 3.56632 -3.39227 0
M  V30 1027 N 112.336 1.25143 0.95797 0
M  V30 1028 C 113.266 1.07711 2.07173 0
M  V30 1029 C 114.247 -0.0128462 1.70095 0
M  V30 1030 O 115.432 0.156061 1.93572 0
M  V30 1031 C 112.562 0.691503 3.40346 0
M  V30 1032 C 111.516 1.73132 3.9142 0
M  V30 1033 C 110.842 1.20049 5.21049 0
M  V30 1034 C 112.142 3.1294 4.1817 0
M  V30 1035 H 113.836 2.00873 2.22014 0
M  V30 1036 H 111.382 0.967191 1.06684 0
M  V30 1037 H 113.335 0.556505 4.17709 0
M  V30 1038 H 112.059 -0.275819 3.25433 0
M  V30 1039 H 110.718 1.8547 3.16222 0
M  V30 1040 H 110.366 0.223499 5.02503 0
M  V30 1041 H 110.066 1.89545 5.56189 0
M  V30 1042 H 111.59 1.07782 6.01012 0
M  V30 1043 H 113.004 3.03775 4.86203 0
M  V30 1044 H 111.401 3.79875 4.64559 0
M  V30 1045 H 112.471 3.6025 3.24573 0
M  V30 1046 N 113.814 -1.1601 1.06675 0
M  V30 1047 C 115.044 -1.90251 0.805497 0
M  V30 1048 C 115.452 -1.77891 -0.64431 0
M  V30 1049 O 114.795 -1.12383 -1.45313 0
M  V30 1050 C 114.857 -3.41419 1.12576 0
M  V30 1051 C 114.521 -3.77564 2.57477 0
M  V30 1052 C 115.518 -3.79161 3.55715 0
M  V30 1053 C 113.203 -4.08079 2.92877 0
M  V30 1054 C 115.197 -4.10767 4.8739 0
M  V30 1055 C 112.884 -4.39351 4.24751 0
M  V30 1056 C 113.882 -4.40675 5.21818 0
M  V30 1057 O 113.57 -4.71202 6.51325 0
M  V30 1058 H 113.302 -0.610018 0.291297 0
M  V30 1059 H 115.856 -1.47958 1.4247 0
M  V30 1060 H 114.086 -3.84079 0.449503 0
M  V30 1061 H 115.775 -3.9694 0.84814 0
M  V30 1062 H 116.541 -3.55693 3.29708 0
M  V30 1063 H 112.42 -4.06211 2.17976 0
M  V30 1064 H 115.964 -4.11715 5.63148 0
M  V30 1065 H 111.861 -4.62285 4.50514 0
M  V30 1066 H 112.629 -4.88996 6.56373 0
M  V30 1067 N 115.292 -0.849877 -1.32721 0
M  V30 1068 C 116.52 -0.464754 -2.01613 0
M  V30 1069 C 116.935 0.937191 -1.63897 0
M  V30 1070 O 116.292 1.61081 -0.857856 0
M  V30 1071 C 116.343 -0.588638 -3.56675 0
M  V30 1072 O 116.064 -1.93535 -3.93034 0
M  V30 1073 C 117.565 -0.2019 -4.4284 0
M  V30 1074 H 114.785 -0.183215 -0.645502 0
M  V30 1075 H 117.329 -1.1455 -1.69407 0
M  V30 1076 H 115.484 0.0443159 -3.87375 0
M  V30 1077 H 115.898 -1.92871 -4.87751 0
M  V30 1078 H 117.372 -0.339599 -5.50954 0
M  V30 1079 H 117.849 0.857224 -4.30753 0
M  V30 1080 H 118.455 -0.809733 -4.17521 0
M  V30 1081 N 116.77 1.45427 -0.607355 0
M  V30 1082 C 117.68 2.34325 0.113463 0
M  V30 1083 C 118.696 1.51226 0.860617 0
M  V30 1084 O 119.872 1.84029 0.818255 0
M  V30 1085 C 116.937 3.28839 1.09844 0
M  V30 1086 C 115.998 4.27844 0.353271 0
M  V30 1087 C 115.231 5.17842 1.29133 0
M  V30 1088 O 115.454 5.11264 2.52913 0
M  V30 1089 O 114.388 5.96713 0.788523 0
M  V30 1090 H 118.214 2.97364 -0.617094 0
M  V30 1091 H 115.799 1.44807 -0.367619 0
M  V30 1092 H 117.681 3.8708 1.66575 0
M  V30 1093 H 116.356 2.68365 1.81003 0
M  V30 1094 H 115.263 3.7322 -0.256494 0
M  V30 1095 H 116.596 4.91173 -0.317822 0
M  V30 1096 N 118.248 0.346503 1.53744 0
M  V30 1097 C 119.659 -0.136779 1.86198 0
M  V30 1098 C 120.01 -1.49749 1.26766 0
M  V30 1099 O 119.135 -2.08417 0.582355 0
M  V30 1100 C 119.73 -0.254966 3.37839 0
M  V30 1101 C 118.289 -0.682482 3.70161 0
M  V30 1102 C 117.436 0.181981 2.76702 0
M  V30 1103 H 120.387 0.565994 1.48264 0
M  V30 1104 H 120.408 -1.08195 3.64793 0
M  V30 1105 H 119.92 0.735526 3.81066 0
M  V30 1106 H 118.021 -1.68189 3.3248 0
M  V30 1107 H 118.134 -0.470326 4.76786 0
M  V30 1108 H 116.498 -0.34615 2.52337 0
M  V30 1109 H 117.281 1.16966 3.2276 0
M  V30 1110 N 119.726 -1.57421 0.075193 0
M  V30 1111 C 120.954 -1.97946 -0.602076 0
M  V30 1112 C 121.369 -0.953674 -1.62943 0
M  V30 1113 O 120.726 0.0592551 -1.82404 0
M  V30 1114 C 120.777 -3.38546 -1.26762 0
M  V30 1115 O 120.498 -4.37195 -0.281376 0
M  V30 1116 C 121.999 -3.93966 -2.03239 0
M  V30 1117 H 119.219 -0.650918 -0.162931 0
M  V30 1118 H 121.763 -2.03959 0.148601 0
M  V30 1119 H 119.918 -3.33609 -1.96936 0
M  V30 1120 H 120.332 -5.18975 -0.759267 0
M  V30 1121 H 121.806 -4.94555 -2.45193 0
M  V30 1122 H 122.283 -3.30693 -2.8903 0
M  V30 1123 H 122.889 -4.02315 -1.37924 0
M  V30 1124 N 121.204 0.198386 -1.56346 0
M  V30 1125 C 122.615 0.763358 -1.70381 0
M  V30 1126 C 122.966 1.83995 -0.681203 0
M  V30 1127 O 122.091 2.15785 0.16305 0
M  V30 1128 C 122.686 1.39143 -3.08909 0
M  V30 1129 C 121.245 1.90352 -3.2472 0
M  V30 1130 C 120.392 0.772233 -2.6633 0
M  V30 1131 H 123.343 -0.0266377 -1.58678 0
M  V30 1132 H 123.364 2.26076 -3.06055 0
M  V30 1133 H 122.876 0.607638 -3.83314 0
M  V30 1134 H 120.977 2.71461 -2.55225 0
M  V30 1135 H 121.09 2.06757 -4.3219 0
M  V30 1136 H 119.454 1.18566 -2.2542 0
M  V30 1137 H 120.237 0.00073556 -3.433 0
M  V30 1138 N 122.682 1.50554 0.465978 0
M  V30 1139 C 123.592 1.72585 1.58907 0
M  V30 1140 C 124.608 0.60911 1.6299 0
M  V30 1141 O 125.784 0.88804 1.80765 0
M  V30 1142 C 122.849 1.81995 2.95091 0
M  V30 1143 C 121.91 3.05751 3.01355 0
M  V30 1144 C 121.143 3.14702 4.31043 0
M  V30 1145 O 121.366 2.30313 5.21835 0
M  V30 1146 O 120.3 4.07468 4.43005 0
M  V30 1147 H 124.126 2.67799 1.43239 0
M  V30 1148 H 121.711 1.34711 0.646013 0
M  V30 1149 H 123.593 1.90335 3.75966 0
M  V30 1150 H 122.268 0.899659 3.10947 0
M  V30 1151 H 121.175 3.02908 2.19539 0
M  V30 1152 H 122.508 3.97375 2.90437 0
M  V30 1153 N 124.16 -0.719506 1.40217 0
M  V30 1154 C 125.571 -1.29848 1.34151 0
M  V30 1155 C 125.922 -1.96196 0.0131349 0
M  V30 1156 O 125.047 -1.973 -0.88892 0
M  V30 1157 C 125.642 -2.36118 2.42968 0
M  V30 1158 C 124.201 -2.8965 2.40374 0
M  V30 1159 C 123.348 -1.63393 2.24049 0
M  V30 1160 H 126.299 -0.51591 1.5008 0
M  V30 1161 H 126.32 -3.16871 2.10649 0
M  V30 1162 H 125.832 -1.878 3.39636 0
M  V30 1163 H 123.933 -3.42208 1.47392 0
M  V30 1164 H 124.046 -3.4171 3.35814 0
M  V30 1165 H 122.41 -1.88312 1.71495 0
M  V30 1166 H 123.193 -1.17104 3.2271 0
M  V30 1167 N 125.638 -1.25649 -0.95132 0
M  V30 1168 C 126.601 -1.06399 -2.03007 0
M  V30 1169 C 127.601 -0.0156794 -1.60792 0
M  V30 1170 O 128.791 -0.25817 -1.72276 0
M  V30 1171 C 125.923 -0.616184 -3.35285 0
M  V30 1172 H 127.116 -2.02164 -2.21517 0
M  V30 1173 H 124.669 -1.08103 -1.12887 0
M  V30 1174 H 125.404 0.343917 -3.22471 0
M  V30 1175 H 125.189 -1.37301 -3.67275 0
M  V30 1176 H 126.679 -0.503032 -4.14559 0
M  V30 1177 N 127.117 1.15442 -1.07289 0
M  V30 1178 C 128.345 1.90096 -0.81676 0
M  V30 1179 C 128.76 1.7798 0.629966 0
M  V30 1180 O 128.117 1.1313 1.43206 0
M  V30 1181 C 128.168 3.40466 -1.21512 0
M  V30 1182 O 127.889 3.52232 -2.60508 0
M  V30 1183 C 129.39 4.32145 -0.988198 0
M  V30 1184 H 126.61 0.602495 -0.295366 0
M  V30 1185 H 129.154 1.4627 -1.42918 0
M  V30 1186 H 127.309 3.81958 -0.647039 0
M  V30 1187 H 127.723 4.45549 -2.76742 0
M  V30 1188 H 129.197 5.36072 -1.31645 0
M  V30 1189 H 129.674 4.39135 0.0755063 0
M  V30 1190 H 130.28 3.96395 -1.54115 0
M  V30 1191 N 128.595 0.856903 1.32268 0
M  V30 1192 C 129.505 0.306131 2.32594 0
M  V30 1193 C 130.521 -0.577209 1.64147 0
M  V30 1194 O 131.697 -0.477043 1.95669 0
M  V30 1195 C 128.762 -0.494561 3.43154 0
M  V30 1196 C 127.823 0.415186 4.27288 0
M  V30 1197 C 127.056 -0.347387 5.32568 0
M  V30 1198 O 127.279 -1.57708 5.48165 0
M  V30 1199 O 126.213 0.287982 6.01211 0
M  V30 1200 H 130.039 1.13737 2.81598 0
M  V30 1201 H 127.624 0.619902 1.35932 0
M  V30 1202 H 129.506 -0.948944 4.10576 0
M  V30 1203 H 128.181 -1.30257 2.96336 0
M  V30 1204 H 127.088 0.917793 3.62667 0
M  V30 1205 H 128.421 1.18844 4.77637 0
M  V30 1206 N 130.073 -1.45103 0.615059 0
M  V30 1207 C 131.484 -1.85654 0.197383 0
M  V30 1208 C 131.835 -1.51433 -1.24749 0
M  V30 1209 O 130.96 -0.944608 -1.94695 0
M  V30 1210 C 131.555 -3.36972 0.351448 0
M  V30 1211 C 130.114 -3.76398 -0.011593 0
M  V30 1212 C 129.261 -2.69024 0.672394 0
M  V30 1213 H 132.212 -1.35797 0.821263 0
M  V30 1214 H 132.233 -3.78239 -0.414227 0
M  V30 1215 H 131.745 -3.61847 1.40314 0
M  V30 1216 H 129.846 -3.5714 -1.06217 0
M  V30 1217 H 129.959 -4.77532 0.387265 0
M  V30 1218 H 128.323 -2.54465 0.109284 0
M  V30 1219 H 129.106 -2.96735 1.72636 0
M  V30 1220 N 131.551 -0.354651 -1.53558 0
M  V30 1221 C 132.514 0.484566 -2.24019 0
M  V30 1222 C 133.514 1.01861 -1.24422 0
M  V30 1223 O 134.704 0.906097 -1.4878 0
M  V30 1224 C 131.836 1.67615 -2.96847 0
M  V30 1225 H 133.029 -0.131843 -2.9961 0
M  V30 1226 H 130.582 -0.106165 -1.55939 0
M  V30 1227 H 131.317 2.33095 -2.25471 0
M  V30 1228 H 131.102 1.30029 -3.69912 0
M  V30 1229 H 132.592 2.27114 -3.50441 0
M  V30 1230 N 133.029 1.57378 -0.0835403 0
M  V30 1231 C 134.254 1.98682 0.594987 0
M  V30 1232 C 134.679 0.961969 1.61641 0
M  V30 1233 O 134.037 -0.0709989 1.81161 0
M  V30 1234 C 134.085 3.38988 1.2296 0
M  V30 1235 O 133.189 3.39208 2.34546 0
M  V30 1236 H 132.53 0.646368 0.152002 0
M  V30 1237 H 135.06 2.03961 -0.161533 0
M  V30 1238 H 135.07 3.76431 1.57366 0
M  V30 1239 H 133.745 4.13107 0.481228 0
M  V30 1240 H 132.322 3.13548 2.01846 0
M  V30 1241 N 134.507 -0.190092 1.56449 0
M  V30 1242 C 135.417 -1.25591 1.98152 0
M  V30 1243 C 136.433 -1.49519 0.889944 0
M  V30 1244 O 137.609 -1.62036 1.19609 0
M  V30 1245 C 134.674 -2.57916 2.3169 0
M  V30 1246 C 133.735 -2.42015 3.5458 0
M  V30 1247 C 132.968 -3.6803 3.8651 0
M  V30 1248 O 133.191 -4.72413 3.1966 0
M  V30 1249 O 132.125 -3.6326 4.79923 0
M  V30 1250 H 135.951 -0.931988 2.89046 0
M  V30 1251 H 133.536 -0.395488 1.4407 0
M  V30 1252 H 135.418 -3.36008 2.54316 0
M  V30 1253 H 134.093 -2.89925 1.43963 0
M  V30 1254 H 133 -1.62017 3.37196 0
M  V30 1255 H 134.333 -2.14937 4.4279 0
M  V30 1256 N 135.985 -1.50799 -0.457987 0
M  V30 1257 C 137.396 -1.55152 -1.0385 0
M  V30 1258 C 137.747 -0.362719 -1.92818 0
M  V30 1259 O 136.872 0.522915 -2.09987 0
M  V30 1260 C 137.467 -2.81173 -1.89017 0
M  V30 1261 C 136.026 -2.88164 -2.42154 0
M  V30 1262 C 135.173 -2.49591 -1.20829 0
M  V30 1263 H 138.124 -1.56874 -0.240068 0
M  V30 1264 H 138.145 -2.63769 -2.74238 0
M  V30 1265 H 137.657 -3.67677 -1.24238 0
M  V30 1266 H 135.758 -2.06042 -3.10447 0
M  V30 1267 H 135.871 -3.91356 -2.76364 0
M  V30 1268 H 134.235 -2.02322 -1.54719 0
M  V30 1269 H 135.018 -3.38418 -0.576927 0
M  V30 1270 N 137.463 0.71206 -1.40597 0
M  V30 1271 C 138.426 1.80785 -1.40888 0
M  V30 1272 C 139.426 1.57937 -0.302103 0
M  V30 1273 O 140.616 1.64913 -0.561182 0
M  V30 1274 C 137.748 3.18927 -1.20409 0
M  V30 1275 H 138.941 1.81924 -2.38419 0
M  V30 1276 H 136.494 0.91805 -1.26497 0
M  V30 1277 H 137.229 3.23436 -0.236522 0
M  V30 1278 H 137.014 3.36911 -2.00582 0
M  V30 1279 H 138.504 3.98949 -1.23408 0
M  V30 1280 N 138.941 1.26152 0.944643 0
M  V30 1281 C 140.352 1.10454 1.50522 0
M  V30 1282 C 140.703 -0.31635 1.93633 0
M  V30 1283 O 139.828 -1.20746 1.79581 0
M  V30 1284 C 140.423 1.99891 2.73549 0
M  V30 1285 C 138.982 1.88348 3.25886 0
M  V30 1286 C 138.129 1.93447 1.9868 0
M  V30 1287 H 141.08 1.39292 0.760489 0
M  V30 1288 H 141.101 1.54477 3.47732 0
M  V30 1289 H 140.613 3.03297 2.42141 0
M  V30 1290 H 138.714 0.878636 3.62092 0
M  V30 1291 H 138.827 2.73696 3.93227 0
M  V30 1292 H 137.191 1.37456 2.14425 0
M  V30 1293 H 137.974 2.98476 1.69607 0
M  V30 1294 N 140.419 -1.14872 1.07899 0
M  V30 1295 C 141.329 -2.2341 0.715915 0
M  V30 1296 C 142.345 -1.71808 -0.275306 0
M  V30 1297 O 143.521 -2.01039 -0.120545 0
M  V30 1298 C 140.586 -3.46474 0.125168 0
M  V30 1299 C 139.647 -4.13039 1.17034 0
M  V30 1300 C 138.88 -5.30229 0.607688 0
M  V30 1301 O 139.103 -5.675 -0.574497 0
M  V30 1302 O 138.037 -5.86444 1.35526 0
M  V30 1303 H 141.863 -2.56808 1.62121 0
M  V30 1304 H 139.448 -1.22702 0.852322 0
M  V30 1305 H 141.33 -4.20917 -0.201729 0
M  V30 1306 H 140.005 -3.14811 -0.753364 0
M  V30 1307 H 138.912 -3.40493 1.54968 0
M  V30 1308 H 140.245 -4.48796 2.02097 0
M  V30 1309 N 141.898 -0.863906 -1.31812 0
M  V30 1310 C 143.309 -0.52522 -1.7916 0
M  V30 1311 C 143.66 0.957518 -1.71248 0
M  V30 1312 O 142.785 1.74734 -1.27659 0
M  V30 1313 C 143.38 -0.9466 -3.25307 0
M  V30 1314 C 141.939 -0.659668 -3.70574 0
M  V30 1315 C 141.086 -1.14126 -2.52726 0
M  V30 1316 H 144.037 -1.05022 -1.1898 0
M  V30 1317 H 144.058 -0.266766 -3.79564 0
M  V30 1318 H 143.57 -2.02579 -3.31034 0
M  V30 1319 H 141.671 0.408416 -3.70355 0
M  V30 1320 H 141.784 -1.23245 -4.62977 0
M  V30 1321 H 140.148 -0.561216 -2.4844 0
M  V30 1322 H 140.931 -2.22775 -2.61201 0
M  V30 1323 N 143.376 1.44774 -0.622745 0
M  V30 1324 C 144.339 2.29069 0.0774015 0
M  V30 1325 C 145.339 1.4059 0.780461 0
M  V30 1326 O 146.529 1.62551 0.626322 0
M  V30 1327 C 143.661 3.21974 1.12006 0
M  V30 1328 H 144.854 2.92459 -0.663901 0
M  V30 1329 H 142.407 1.51548 -0.382486 0
M  V30 1330 H 143.142 2.63417 1.89162 0
M  V30 1331 H 142.927 3.87168 0.619951 0
M  V30 1332 H 144.417 3.85318 1.60995 0
M  V30 1333 N 144.854 0.36279 1.53368 0
M  V30 1334 C 146.082 -0.228613 2.05633 0
M  V30 1335 C 146.497 -1.42676 1.23649 0
M  V30 1336 O 145.854 -1.80394 0.27647 0
M  V30 1337 C 145.905 -0.624845 3.56059 0
M  V30 1338 O 145.626 0.525675 4.34935 0
M  V30 1339 C 147.127 -1.27493 4.24571 0
M  V30 1340 H 144.347 -0.0407183 0.669763 0
M  V30 1341 H 146.891 0.520352 1.97769 0
M  V30 1342 H 145.046 -1.32373 3.64083 0
M  V30 1343 H 145.46 0.205969 5.24095 0
M  V30 1344 H 146.934 -1.50277 5.31151 0
M  V30 1345 H 147.411 -2.23439 3.78116 0
M  V30 1346 H 148.017 -0.617558 4.20792 0
M  V30 1347 N 146.332 -1.57332 0.0918853 0
M  V30 1348 C 147.242 -2.17368 -0.882505 0
M  V30 1349 C 148.258 -1.14226 -1.31257 0
M  V30 1350 O 149.434 -1.46582 -1.38115 0
M  V30 1351 C 146.499 -2.73962 -2.12476 0
M  V30 1352 C 145.56 -3.92048 -1.7492 0
M  V30 1353 C 144.793 -4.45933 -2.93223 0
M  V30 1354 O 145.016 -3.98764 -4.07852 0
M  V30 1355 O 143.95 -5.36999 -2.71875 0
M  V30 1356 H 147.776 -3.01031 -0.40172 0
M  V30 1357 H 145.361 -1.48813 -0.132291 0
M  V30 1358 H 147.243 -3.10147 -2.85283 0
M  V30 1359 H 145.918 -1.93347 -2.59613 0
M  V30 1360 H 144.825 -3.6068 -0.993025 0
M  V30 1361 H 146.158 -4.74017 -1.32548 0
M  V30 1362 N 147.81 0.181792 -1.56548 0
M  V30 1363 C 149.221 0.745244 -1.71181 0
M  V30 1364 C 149.572 1.83262 -0.70068 0
M  V30 1365 O 148.697 2.15946 0.140154 0
M  V30 1366 C 149.292 1.35859 -3.10367 0
M  V30 1367 C 147.851 1.86898 -3.2672 0
M  V30 1368 C 146.998 0.743942 -2.67134 0
M  V30 1369 H 149.949 -0.0434661 -1.5864 0
M  V30 1370 H 149.97 2.22817 -3.08436 0
M  V30 1371 H 149.482 0.566948 -3.83937 0
M  V30 1372 H 147.583 2.68738 -2.5809 0
M  V30 1373 H 147.696 2.02162 -4.34359 0
M  V30 1374 H 146.06 1.16169 -2.26665 0
M  V30 1375 H 146.843 -0.035676 -3.43281 0
M  V30 1376 N 149.288 1.51039 0.449983 0
M  V30 1377 C 150.251 1.70863 1.5277 0
M  V30 1378 C 151.251 0.578846 1.5002 0
M  V30 1379 O 152.441 0.846213 1.52266 0
M  V30 1380 C 149.573 1.75341 2.9235 0
M  V30 1381 H 150.766 2.67034 1.36502 0
M  V30 1382 H 148.319 1.40838 0.677812 0
M  V30 1383 H 149.054 0.809383 3.14037 0
M  V30 1384 H 148.839 2.57436 2.95752 0
M  V30 1385 H 150.329 1.92559 3.70555 0
M  V30 1386 N 150.766 -0.704594 1.40972 0
M  V30 1387 C 152.177 -1.28418 1.3552 0
M  V30 1388 C 152.528 -1.96171 0.0339434 0
M  V30 1389 O 151.653 -1.98231 -0.867944 0
M  V30 1390 C 152.248 -2.33528 2.45459 0
M  V30 1391 C 150.807 -2.87085 2.43433 0
M  V30 1392 C 149.954 -1.61007 2.2577 0
M  V30 1393 H 152.905 -0.499963 1.50619 0
M  V30 1394 H 152.926 -3.14619 2.13998 0
M  V30 1395 H 152.438 -1.84187 3.41609 0
M  V30 1396 H 150.539 -3.40626 1.51013 0
M  V30 1397 H 150.652 -3.3813 3.39419 0
M  V30 1398 H 149.016 -1.86482 1.73483 0
M  V30 1399 H 149.799 -1.13675 3.23933 0
M  V30 1400 N 152.244 -1.26651 -0.937939 0
M  V30 1401 C 153.154 -1.10276 -2.07066 0
M  V30 1402 C 154.17 -0.0354197 -1.73964 0
M  V30 1403 O 155.346 -0.239816 -1.99967 0
M  V30 1404 C 152.411 -0.740887 -3.38691 0
M  V30 1405 C 151.472 -1.88799 -3.85556 0
M  V30 1406 C 150.705 -1.54329 -5.10899 0
M  V30 1407 O 150.928 -0.446494 -5.6865 0
M  V30 1408 O 149.862 -2.37911 -5.52885 0
M  V30 1409 H 153.688 -2.05309 -2.23789 0
M  V30 1410 H 151.273 -1.05743 -1.0554 0
M  V30 1411 H 153.155 -0.55195 -4.1777 0
M  V30 1412 H 151.83 0.180022 -3.23199 0
M  V30 1413 H 150.737 -2.13191 -3.07409 0
M  V30 1414 H 152.07 -2.78874 -4.05574 0
M  V30 1415 N 153.722 1.14298 -1.08507 0
M  V30 1416 C 155.133 1.66926 -0.836227 0
M  V30 1417 C 155.484 1.85576 0.63686 0
M  V30 1418 O 154.609 1.56767 1.49175 0
M  V30 1419 C 155.204 3.03219 -1.51142 0
M  V30 1420 C 153.763 3.52876 -1.30979 0
M  V30 1421 C 152.91 2.2833 -1.57356 0
M  V30 1422 H 155.861 0.983491 -1.24552 0
M  V30 1423 H 155.882 3.68726 -0.939211 0
M  V30 1424 H 155.394 2.89612 -2.58353 0
M  V30 1425 H 153.495 3.71703 -0.258429 0
M  V30 1426 H 153.608 4.33586 -2.03814 0
M  V30 1427 H 151.972 2.34454 -0.995164 0
M  V30 1428 H 152.755 2.17298 -2.65775 0
M  V30 1429 N 155.201 0.870884 1.31352 0
M  V30 1430 C 156.164 0.332243 2.26779 0
M  V30 1431 C 157.164 -0.517302 1.52252 0
M  V30 1432 O 158.354 -0.326477 1.71113 0
M  V30 1433 C 155.486 -0.528066 3.36785 0
M  V30 1434 H 156.679 1.17469 2.75937 0
M  V30 1435 H 154.232 0.64655 1.423 0
M  V30 1436 H 154.967 -1.39167 2.92922 0
M  V30 1437 H 154.752 0.0802582 3.92018 0
M  V30 1438 H 156.242 -0.897179 4.07849 0
M  V30 1439 N 156.679 -1.44442 0.630414 0
M  V30 1440 C 157.907 -2.06414 0.141671 0
M  V30 1441 C 158.322 -1.47105 -1.18345 0
M  V30 1442 O 157.679 -0.593662 -1.72574 0
M  V30 1443 C 157.73 -3.61494 0.0199784 0
M  V30 1444 O 157.451 -4.18594 1.29269 0
M  V30 1445 C 158.952 -4.40499 -0.497544 0
M  V30 1446 H 156.172 -0.666292 0.0793452 0
M  V30 1447 H 158.716 -1.85323 0.864614 0
M  V30 1448 H 156.871 -3.8185 -0.653402 0
M  V30 1449 H 157.285 -5.12026 1.13707 0
M  V30 1450 H 158.759 -5.49433 -0.531708 0
M  V30 1451 H 159.236 -4.11895 -1.52445 0
M  V30 1452 H 159.842 -4.25061 0.142562 0
M  V30 1453 N 158.157 -0.370918 -1.53173 0
M  V30 1454 C 159.067 0.480823 -2.2962 0
M  V30 1455 C 160.083 1.08789 -1.35798 0
M  V30 1456 O 161.259 1.09768 -1.68858 0
M  V30 1457 C 158.324 1.60227 -3.07454 0
M  V30 1458 C 157.385 1.0222 -4.16953 0
M  V30 1459 C 156.618 2.0902 -4.91066 0
M  V30 1460 O 156.841 3.30222 -4.65091 0
M  V30 1461 O 155.775 1.71778 -5.76867 0
M  V30 1462 H 159.601 -0.141421 -3.03371 0
M  V30 1463 H 157.186 -0.135146 -1.48787 0
M  V30 1464 H 159.068 2.25417 -3.56041 0
M  V30 1465 H 157.743 2.20982 -2.36535 0
M  V30 1466 H 156.65 0.334064 -3.72605 0
M  V30 1467 H 157.983 0.459131 -4.90054 0
M  V30 1468 N 159.635 1.57281 -0.100228 0
M  V30 1469 C 161.046 1.81725 0.428107 0
M  V30 1470 C 161.397 1.01619 1.67833 0
M  V30 1471 O 160.522 0.247098 2.14985 0
M  V30 1472 C 161.117 3.29617 0.78347 0
M  V30 1473 C 159.676 3.54808 1.25653 0
M  V30 1474 C 158.823 2.76118 0.255752 0
M  V30 1475 H 161.774 1.55324 -0.325608 0
M  V30 1476 H 161.795 3.4322 1.64256 0
M  V30 1477 H 161.307 3.87893 -0.12665 0
M  V30 1478 H 159.408 3.01868 2.18418 0
M  V30 1479 H 159.521 4.63443 1.21482 0
M  V30 1480 H 157.885 2.43745 0.738956 0
M  V30 1481 H 158.668 3.37145 -0.647136 0
M  V30 1482 N 161.113 -0.173488 1.56642 0
M  V30 1483 C 162.076 -1.19859 1.95362 0
M  V30 1484 C 163.076 -1.37296 0.83704 0
M  V30 1485 O 164.266 -1.34739 1.10413 0
M  V30 1486 C 161.398 -2.56405 2.24654 0
M  V30 1487 H 162.591 -0.867062 2.87092 0
M  V30 1488 H 160.144 -0.415853 1.50666 0
M  V30 1489 H 160.879 -2.94576 1.35631 0
M  V30 1490 H 160.664 -2.45115 3.06041 0
M  V30 1491 H 162.154 -3.30287 2.5554 0
M  V30 1492 N 162.591 -1.51276 -0.441967 0
M  V30 1493 C 164.002 -1.56244 -1.02199 0
M  V30 1494 C 164.353 -0.383149 -1.92422 0
M  V30 1495 O 163.478 0.500613 -2.1053 0
M  V30 1496 C 164.073 -2.83162 -1.86024 0
M  V30 1497 C 162.632 -2.90716 -2.39084 0
M  V30 1498 C 161.779 -2.50858 -1.18175 0
M  V30 1499 H 164.73 -1.5712 -0.223416 0
M  V30 1500 H 164.751 -2.66663 -2.71425 0
M  V30 1501 H 164.263 -3.68974 -1.20331 0
M  V30 1502 H 162.364 -2.09323 -3.08244 0
M  V30 1503 H 162.477 -3.94266 -2.72198 0
M  V30 1504 H 160.841 -2.03951 -1.52565 0
M  V30 1505 H 161.624 -3.3901 -0.541001 0
M  V30 1506 N 164.069 0.697108 -1.41344 0
M  V30 1507 C 164.979 1.84088 -1.45427 0
M  V30 1508 C 165.995 1.70545 -0.34501 0
M  V30 1509 O 167.171 1.92488 -0.592492 0
M  V30 1510 C 164.236 3.20056 -1.33286 0
M  V30 1511 C 163.297 3.45718 -2.54514 0
M  V30 1512 C 162.53 4.75199 -2.42944 0
M  V30 1513 O 162.753 5.51579 -1.45318 0
M  V30 1514 O 161.687 5.0161 -3.32672 0
M  V30 1515 H 165.513 1.836 -2.41919 0
M  V30 1516 H 163.098 0.849966 -1.22866 0
M  V30 1517 H 164.98 4.01236 -1.28794 0
M  V30 1518 H 163.655 3.2123 -0.39909 0
M  V30 1519 H 162.562 2.64474 -2.64583 0
M  V30 1520 H 163.895 3.49356 -3.46715 0
M  V30 1521 N 165.547 1.27147 0.931209 0
M  V30 1522 C 166.958 1.12044 1.49342 0
M  V30 1523 C 167.309 -0.295795 1.93957 0
M  V30 1524 O 166.434 -1.18835 1.80852 0
M  V30 1525 C 167.029 2.02781 2.71414 0
M  V30 1526 C 165.588 1.91794 3.2387 0
M  V30 1527 C 164.735 1.95543 1.96617 0
M  V30 1528 H 167.686 1.40091 0.745672 0
M  V30 1529 H 167.707 1.58156 3.46074 0
M  V30 1530 H 167.219 3.05848 2.38911 0
M  V30 1531 H 165.32 0.916992 3.6114 0
M  V30 1532 H 165.433 2.77852 3.90302 0
M  V30 1533 H 163.797 1.39722 2.12955 0
M  V30 1534 H 164.58 3.00259 1.66432 0
M  V30 1535 N 167.025 -1.13721 1.09112 0
M  V30 1536 C 167.988 -2.17222 0.731241 0
M  V30 1537 C 168.988 -1.59035 -0.237566 0
M  V30 1538 O 170.178 -1.74192 -0.0161704 0
M  V30 1539 C 167.31 -3.40804 0.0808443 0
M  V30 1540 H 168.503 -2.50573 1.64783 0
M  V30 1541 H 166.056 -1.28493 0.889897 0
M  V30 1542 H 166.791 -3.1304 -0.847127 0
M  V30 1543 H 166.576 -3.84306 0.777896 0
M  V30 1544 H 168.066 -4.1731 -0.155657 0
M  V30 1545 N 168.503 -0.877838 -1.30888 0
M  V30 1546 C 169.914 -0.544193 -1.78593 0
M  V30 1547 C 170.265 0.939301 -1.72254 0
M  V30 1548 O 169.39 1.7337 -1.29505 0
M  V30 1549 C 169.985 -0.98105 -3.24285 0
M  V30 1550 C 168.544 -0.698935 -3.69854 0
M  V30 1551 C 167.691 -1.168 -2.51502 0
M  V30 1552 H 170.642 -1.06278 -1.17859 0
M  V30 1553 H 170.663 -0.307009 -3.79259 0
M  V30 1554 H 170.175 -2.06079 -3.28866 0
M  V30 1555 H 168.276 0.369112 -3.70767 0
M  V30 1556 H 168.389 -1.28148 -4.61644 0
M  V30 1557 H 166.753 -0.587535 -2.47831 0
M  V30 1558 H 167.536 -2.25533 -2.58824 0
M  V30 1559 N 169.982 1.44106 -0.638065 0
M  V30 1560 C 170.892 2.34513 0.0637334 0
M  V30 1561 C 171.908 1.53018 0.828346 0
M  V30 1562 O 173.084 1.85723 0.779036 0
M  V30 1563 C 170.149 3.31095 1.02844 0
M  V30 1564 C 169.21 4.28497 0.26244 0
M  V30 1565 C 168.443 5.20465 1.1812 0
M  V30 1566 O 168.666 5.16514 2.42011 0
M  V30 1567 O 167.6 5.98251 0.661774 0
M  V30 1568 H 171.426 2.95989 -0.68003 0
M  V30 1569 H 169.011 1.43994 -0.398252 0
M  V30 1570 H 170.893 3.90526 1.58327 0
M  V30 1571 H 169.568 2.72144 1.7527 0
M  V30 1572 H 168.475 3.72592 -0.335602 0
M  V30 1573 H 169.808 4.90388 -0.421936 0
M  V30 1574 N 171.46 0.379036 1.52974 0
M  V30 1575 C 172.871 -0.0972525 1.86447 0
M  V30 1576 C 173.222 -1.47027 1.29914 0
M  V30 1577 O 172.347 -2.07135 0.626433 0
M  V30 1578 C 172.942 -0.183248 3.38304 0
M  V30 1579 C 171.501 -0.603812 3.71525 0
M  V30 1580 C 170.648 0.240632 2.76254 0
M  V30 1581 H 173.599 0.597316 1.4703 0
M  V30 1582 H 173.62 -1.00432 3.67006 0
M  V30 1583 H 173.132 0.816191 3.79421 0
M  V30 1584 H 171.233 -1.61099 3.35973 0
M  V30 1585 H 171.346 -0.369086 4.77676 0
M  V30 1586 H 169.71 -0.292548 2.53014 0
M  V30 1587 H 170.493 1.23786 3.20206 0
M  V30 1588 N 172.938 -1.57226 0.108567 0
M  V30 1589 C 173.901 -2.13602 -0.831082 0
M  V30 1590 C 174.901 -1.06841 -1.20173 0
M  V30 1591 O 176.091 -1.32666 -1.12895 0
M  V30 1592 C 173.223 -2.66769 -2.12243 0
M  V30 1593 H 174.416 -2.97951 -0.341317 0
M  V30 1594 H 171.969 -1.55667 -0.14057 0
M  V30 1595 H 172.704 -1.85977 -2.65675 0
M  V30 1596 H 172.489 -3.44839 -1.86625 0
M  V30 1597 H 173.979 -3.10332 -2.79435 0
M  V30 1598 N 174.416 0.165178 -1.56732 0
M  V30 1599 C 175.644 0.896218 -1.86482 0
M  V30 1600 C 176.059 1.75555 -0.694675 0
M  V30 1601 O 175.416 1.79379 0.33607 0
M  V30 1602 C 175.467 1.76792 -3.1532 0
M  V30 1603 O 175.188 0.943239 -4.27825 0
M  V30 1604 C 176.689 2.6081 -3.58459 0
M  V30 1605 H 173.909 0.260064 -0.618553 0
M  V30 1606 H 176.453 0.163428 -2.03846 0
M  V30 1607 H 174.608 2.45398 -2.99764 0
M  V30 1608 H 175.022 1.53998 -5.01383 0
M  V30 1609 H 176.496 3.17579 -4.51495 0
M  V30 1610 H 176.973 3.35977 -2.82872 0
M  V30 1611 H 177.579 1.97526 -3.76648 0
M  V30 1612 N 175.894 1.51508 0.433938 0
M  V30 1613 C 176.804 1.75917 1.5521 0
M  V30 1614 C 177.82 0.643545 1.61662 0
M  V30 1615 O 178.996 0.926183 1.7884 0
M  V30 1616 C 176.061 1.88213 2.91164 0
M  V30 1617 C 175.122 3.12074 2.94802 0
M  V30 1618 C 174.355 3.23774 4.24271 0
M  V30 1619 O 174.578 2.4133 5.16833 0
M  V30 1620 O 173.512 4.16774 4.34262 0
M  V30 1621 H 177.338 2.70777 1.37527 0
M  V30 1622 H 174.923 1.36051 0.617293 0
M  V30 1623 H 176.805 1.98267 3.71845 0
M  V30 1624 H 175.48 0.965413 3.08968 0
M  V30 1625 H 174.387 3.07497 2.13065 0
M  V30 1626 H 175.72 4.03446 2.81943 0
M  V30 1627 N 177.372 -0.689602 1.41712 0
M  V30 1628 C 178.597 -1.48329 1.44959 0
M  V30 1629 C 179.022 -1.8801 0.0581283 0
M  V30 1630 O 178.38 -1.55026 -0.940035 0
M  V30 1631 C 178.428 -2.71835 2.36935 0
M  V30 1632 O 177.532 -3.69549 1.8305 0
M  V30 1633 H 176.873 -0.446199 0.491734 0
M  V30 1634 H 179.403 -0.847127 1.86239 0
M  V30 1635 H 179.413 -3.20076 2.53013 0
M  V30 1636 H 178.088 -2.42291 3.38035 0
M  V30 1637 H 176.665 -3.2851 1.76452 0
M  V30 1638 N 178.85 -1.27639 -0.924453 0
M  V30 1639 C 179.813 -1.10681 -2.00705 0
M  V30 1640 C 180.813 -0.0497823 -1.60723 0
M  V30 1641 O 182.003 -0.294654 -1.7169 0
M  V30 1642 C 179.135 -0.687164 -3.33902 0
M  V30 1643 H 180.328 -2.06817 -2.17179 0
M  V30 1644 H 177.881 -1.10473 -1.10569 0
M  V30 1645 H 178.616 0.275439 -3.23128 0
M  V30 1646 H 178.401 -1.45061 -3.6428 0
M  V30 1647 H 179.891 -0.590853 -4.13399 0
M  V30 1648 N 180.328 1.1314 -1.09713 0
M  V30 1649 C 181.739 1.66029 -0.853885 0
M  V30 1650 C 182.09 1.86241 0.617142 0
M  V30 1651 O 181.215 1.5834 1.47503 0
M  V30 1652 C 181.81 3.01599 -1.5435 0
M  V30 1653 C 180.369 3.51467 -1.34714 0
M  V30 1654 C 179.516 2.26648 -1.59769 0
M  V30 1655 H 182.467 0.970226 -1.25588 0
M  V30 1656 H 182.488 3.67709 -0.978267 0
M  V30 1657 H 182 2.86856 -2.6141 0
M  V30 1658 H 180.101 3.71408 -0.297838 0
M  V30 1659 H 180.214 4.314 -2.08401 0
M  V30 1660 H 178.578 2.33385 -1.01998 0
M  V30 1661 H 179.361 2.14467 -2.68065 0
M  V30 1662 N 181.806 0.884767 1.30421 0
M  V30 1663 C 182.716 0.355398 2.31892 0
M  V30 1664 C 183.732 -0.542261 1.65335 0
M  V30 1665 O 184.908 -0.435432 1.96637 0
M  V30 1666 C 181.973 -0.421661 3.44126 0
M  V30 1667 C 181.034 0.505727 4.26311 0
M  V30 1668 C 180.267 -0.234343 5.33185 0
M  V30 1669 O 180.49 -1.46045 5.51386 0
M  V30 1670 O 179.424 0.415443 6.00465 0
M  V30 1671 H 183.25 1.19685 2.79122 0
M  V30 1672 H 180.835 0.648596 1.34587 0
M  V30 1673 H 182.717 -0.861641 4.12497 0
M  V30 1674 H 181.392 -1.23942 2.99032 0
M  V30 1675 H 180.299 0.994513 3.60639 0
M  V30 1676 H 181.632 1.28948 4.75009 0
M  V30 1677 N 183.284 -1.43765 0.645699 0
M  V30 1678 C 184.695 -1.85193 0.236719 0
M  V30 1679 C 185.046 -1.54045 -1.21509 0
M  V30 1680 O 184.171 -0.985694 -1.92647 0
M  V30 1681 C 184.766 -3.36151 0.422845 0
M  V30 1682 C 183.325 -3.76338 0.0682492 0
M  V30 1683 C 182.472 -2.67538 0.729306 0
M  V30 1684 H 185.423 -1.34025 0.849883 0
M  V30 1685 H 185.444 -3.79032 -0.333904 0
M  V30 1686 H 184.956 -3.5879 1.47958 0
M  V30 1687 H 183.057 -3.59312 -0.986179 0
M  V30 1688 H 183.17 -4.76603 0.488469 0
M  V30 1689 H 181.534 -2.54176 0.163235 0
M  V30 1690 H 182.317 -2.93006 1.78892 0
M  V30 1691 N 184.763 -0.387143 -1.52771 0
M  V30 1692 C 185.991 0.195869 -2.05971 0
M  V30 1693 C 186.406 1.40691 -1.25903 0
M  V30 1694 O 185.763 1.79931 -0.305134 0
M  V30 1695 C 185.814 0.56812 -3.57008 0
M  V30 1696 O 185.535 -0.594803 -4.34043 0
M  V30 1697 C 187.036 1.20723 -4.26545 0
M  V30 1698 H 184.256 0.0300578 -0.670326 0
M  V30 1699 H 186.8 -0.551749 -1.96916 0
M  V30 1700 H 184.955 1.26564 -3.66143 0
M  V30 1701 H 185.369 -0.289322 -5.23701 0
M  V30 1702 H 186.843 1.41807 -5.33474 0
M  V30 1703 H 187.32 2.17395 -3.81623 0
M  V30 1704 H 187.926 0.550535 -4.21722 0
M  V30 1705 N 186.241 1.57166 -0.116904 0
M  V30 1706 C 187.652 1.82169 0.408809 0
M  V30 1707 C 188.003 1.03393 1.66746 0
M  V30 1708 O 187.128 0.269886 2.1471 0
M  V30 1709 C 187.723 3.30429 0.748466 0
M  V30 1710 C 186.282 3.5612 1.21882 0
M  V30 1711 C 185.429 2.76374 0.226452 0
M  V30 1712 H 188.38 1.5497 -0.342063 0
M  V30 1713 H 188.401 3.44943 1.60607 0
M  V30 1714 H 187.913 3.87737 -0.167784 0
M  V30 1715 H 186.014 3.04168 2.15204 0
M  V30 1716 H 186.127 4.64705 1.16559 0
M  V30 1717 H 184.491 2.44515 0.713063 0
M  V30 1718 H 185.274 3.3644 -0.682859 0
M  V30 1719 N 187.719 -0.156864 1.56817 0
M  V30 1720 C 188.629 -1.2136 2.00771 0
M  V30 1721 C 189.645 -1.47598 0.921459 0
M  V30 1722 O 190.821 -1.59462 1.2302 0
M  V30 1723 C 187.886 -2.52943 2.37109 0
M  V30 1724 C 186.947 -2.34439 3.59634 0
M  V30 1725 C 186.18 -3.59748 3.94229 0
M  V30 1726 O 186.403 -4.65526 3.29609 0
M  V30 1727 O 185.337 -3.52998 4.8752 0
M  V30 1728 H 189.163 -0.870468 2.90958 0
M  V30 1729 H 186.748 -0.36484 1.44877 0
M  V30 1730 H 188.63 -3.30538 2.61386 0
M  V30 1731 H 187.305 -2.86806 1.5008 0
M  V30 1732 H 186.212 -1.54828 3.40557 0
M  V30 1733 H 187.545 -2.05496 4.4725 0
M  V30 1734 N 189.197 -1.51736 -0.425897 0
M  V30 1735 C 190.608 -1.5732 -1.00536 0
M  V30 1736 C 190.959 -0.403537 -1.92005 0
M  V30 1737 O 190.084 0.478256 -2.11049 0
M  V30 1738 C 190.679 -2.85119 -1.8301 0
M  V30 1739 C 189.238 -2.93236 -2.35987 0
M  V30 1740 C 188.385 -2.52098 -1.15508 0
M  V30 1741 H 191.336 -1.57348 -0.206739 0
M  V30 1742 H 191.357 -2.69526 -2.68581 0
M  V30 1743 H 190.869 -3.7023 -1.16411 0
M  V30 1744 H 188.97 -2.12581 -3.06007 0
M  V30 1745 H 189.083 -3.9713 -2.68001 0
M  V30 1746 H 187.447 -2.05558 -1.50393 0
M  V30 1747 H 188.23 -3.39565 -0.505014 0
M  V30 1748 N 190.675 0.682077 -1.42076 0
M  V30 1749 C 191.638 1.77756 -1.44691 0
M  V30 1750 C 192.638 1.5726 -0.335535 0
M  V30 1751 O 193.828 1.63686 -0.596037 0
M  V30 1752 C 190.96 3.16301 -1.27146 0
M  V30 1753 H 192.153 1.76826 -2.42224 0
M  V30 1754 H 189.706 0.891012 -1.28416 0
M  V30 1755 H 190.441 3.22862 -0.305075 0
M  V30 1756 H 190.226 3.32581 -2.07683 0
M  V30 1757 H 191.716 3.96241 -1.31843 0
M  V30 1758 N 192.153 1.28127 0.917671 0
M  V30 1759 C 193.083 1.14248 2.03641 0
M  V30 1760 C 194.064 0.0412748 1.7005 0
M  V30 1761 O 195.249 0.217566 1.92977 0
M  V30 1762 C 192.379 0.799431 3.37974 0
M  V30 1763 C 191.333 1.85497 3.85713 0
M  V30 1764 C 190.659 1.36565 5.16966 0
M  V30 1765 C 191.959 3.26085 4.08002 0
M  V30 1766 H 193.653 2.07835 2.15511 0
M  V30 1767 H 191.199 1.00064 1.03553 0
M  V30 1768 H 193.152 0.689114 4.15727 0
M  V30 1769 H 191.876 -0.172145 3.26146 0
M  V30 1770 H 190.535 1.95437 3.10161 0
M  V30 1771 H 190.183 0.383253 5.01538 0
M  V30 1772 H 189.883 2.07143 5.49878 0
M  V30 1773 H 191.407 1.26848 5.97279 0
M  V30 1774 H 192.821 3.19089 4.76293 0
M  V30 1775 H 191.218 3.94462 4.52238 0
M  V30 1776 H 192.288 3.70394 3.12948 0
M  V30 1777 N 193.631 -1.12557 1.10312 0
M  V30 1778 C 194.541 -2.21841 0.763142 0
M  V30 1779 C 195.557 -1.72354 -0.238801 0
M  V30 1780 O 196.733 -2.01249 -0.0778746 0
M  V30 1781 C 193.798 -3.46131 0.198632 0
M  V30 1782 C 192.859 -4.10464 1.25769 0
M  V30 1783 C 192.092 -5.28821 0.72002 0
M  V30 1784 O 192.315 -5.6859 -0.453993 0
M  V30 1785 O 191.249 -5.83437 1.47935 0
M  V30 1786 H 195.075 -2.53312 1.67532 0
M  V30 1787 H 192.66 -1.20867 0.878157 0
M  V30 1788 H 194.542 -4.2125 -0.112401 0
M  V30 1789 H 193.217 -3.16338 -0.686419 0
M  V30 1790 H 192.124 -3.3713 1.62156 0
M  V30 1791 H 193.457 -4.44408 2.11571 0
M  V30 1792 N 195.109 -0.891671 -1.2995 0
M  V30 1793 C 196.334 -0.527932 -2.00568 0
M  V30 1794 C 196.759 0.877969 -1.66353 0
M  V30 1795 O 196.117 1.58301 -0.883762 0
M  V30 1796 C 196.165 -0.717745 -3.53385 0
M  V30 1797 O 195.269 0.233376 -4.11739 0
M  V30 1798 H 194.61 -0.20722 -0.630837 0
M  V30 1799 H 197.14 -1.20105 -1.65638 0
M  V30 1800 H 197.15 -0.619307 -4.03272 0
M  V30 1801 H 195.825 -1.74276 -3.77625 0
M  V30 1802 H 194.402 0.0880706 -3.72796 0
M  V30 1803 N 196.587 1.43421 -0.653314 0
M  V30 1804 C 197.833 2.02111 -0.166992 0
M  V30 1805 C 198.166 1.51423 1.21592 0
M  V30 1806 O 197.441 0.707389 1.8118 0
M  V30 1807 C 197.724 3.5966 -0.177948 0
M  V30 1808 C 197.577 4.20579 -1.59478 0
M  V30 1809 C 198.896 4.37413 0.4856 0
M  V30 1810 H 196.015 0.734374 -0.0621557 0
M  V30 1811 H 198.657 1.70717 -0.834016 0
M  V30 1812 H 196.807 3.86537 0.390032 0
M  V30 1813 H 198.479 4.04732 -2.21336 0
M  V30 1814 H 196.722 3.77226 -2.14204 0
M  V30 1815 H 197.393 5.29665 -1.5543 0
M  V30 1816 H 199.869 4.161 0.00234528 0
M  V30 1817 H 198.745 5.47075 0.447207 0
M  V30 1818 H 199.006 4.13672 1.55974 0
M  V30 1819 N 198.065 0.39524 1.52563 0
M  V30 1820 C 199.476 -0.0774719 1.86539 0
M  V30 1821 C 199.827 -1.45641 1.31466 0
M  V30 1822 O 198.952 -2.06459 0.648367 0
M  V30 1823 C 199.547 -0.147356 3.38479 0
M  V30 1824 C 198.106 -0.564373 3.72145 0
M  V30 1825 C 197.253 0.269919 2.75983 0
M  V30 1826 H 200.204 0.612876 1.46388 0
M  V30 1827 H 200.225 -0.965343 3.68051 0
M  V30 1828 H 199.737 0.856387 3.78534 0
M  V30 1829 H 197.838 -1.57527 3.37663 0
M  V30 1830 H 197.951 -0.318402 4.78041 0
M  V30 1831 H 196.315 -0.265696 2.5331 0
M  V30 1832 H 197.098 1.27175 3.18875 0
M  V30 1833 N 199.544 -1.57102 0.125237 0
M  V30 1834 C 200.454 -2.19191 -0.8362 0
M  V30 1835 C 201.47 -1.16985 -1.28805 0
M  V30 1836 O 202.646 -1.49479 -1.34974 0
M  V30 1837 C 199.711 -2.78407 -2.06617 0
M  V30 1838 C 198.772 -3.9567 -1.66565 0
M  V30 1839 C 198.005 -4.52052 -2.83698 0
M  V30 1840 O 198.228 -4.07326 -3.99302 0
M  V30 1841 O 197.162 -5.42645 -2.60423 0
M  V30 1842 H 200.988 -3.01816 -0.337776 0
M  V30 1843 H 198.573 -1.4906 -0.100695 0
M  V30 1844 H 200.455 -3.16129 -2.7864 0
M  V30 1845 H 199.13 -1.9881 -2.55453 0
M  V30 1846 H 198.037 -3.62705 -0.916296 0
M  V30 1847 H 199.37 -4.76722 -1.22464 0
M  V30 1848 N 201.022 0.148545 -1.56898 0
M  V30 1849 C 202.433 0.708766 -1.72723 0
M  V30 1850 C 202.784 1.81734 -0.739395 0
M  V30 1851 O 201.909 2.16194 0.0943169 0
M  V30 1852 C 202.504 1.29245 -3.13179 0
M  V30 1853 C 201.063 1.79925 -3.30611 0
M  V30 1854 C 200.21 0.687111 -2.68652 0
M  V30 1855 H 203.161 -0.0771063 -1.58513 0
M  V30 1856 H 203.182 2.16224 -3.13093 0
M  V30 1857 H 202.694 0.485382 -3.85053 0
M  V30 1858 H 200.795 2.63203 -2.63732 0
M  V30 1859 H 200.908 1.92903 -4.38549 0
M  V30 1860 H 199.272 1.11335 -2.29078 0
M  V30 1861 H 200.055 -0.108483 -3.43129 0
M  V30 1862 N 202.5 1.5196 0.417844 0
M  V30 1863 C 203.463 1.74065 1.49111 0
M  V30 1864 C 204.463 0.610537 1.48758 0
M  V30 1865 O 205.653 0.87832 1.50437 0
M  V30 1866 C 202.785 1.81502 2.88565 0
M  V30 1867 H 203.978 2.69869 1.30807 0
M  V30 1868 H 201.531 1.42244 0.647785 0
M  V30 1869 H 202.266 0.875813 3.1225 0
M  V30 1870 H 202.051 2.63651 2.90225 0
M  V30 1871 H 203.541 2.00376 3.66387 0
M  V30 1872 N 203.978 -0.674533 1.42435 0
M  V30 1873 C 205.389 -1.25514 1.38214 0
M  V30 1874 C 205.74 -1.96055 0.0755464 0
M  V30 1875 O 204.865 -2.00028 -0.8257 0
M  V30 1876 C 205.46 -2.28269 2.50357 0
M  V30 1877 C 204.019 -2.81856 2.49467 0
M  V30 1878 C 203.166 -1.56182 2.29134 0
M  V30 1879 H 206.117 -0.467902 1.51646 0
M  V30 1880 H 206.138 -3.10009 2.20624 0
M  V30 1881 H 205.65 -1.769 3.45439 0
M  V30 1882 H 203.751 -3.37346 1.58204 0
M  V30 1883 H 203.864 -3.30854 3.46515 0
M  V30 1884 H 202.228 -1.82761 1.774 0
M  V30 1885 H 203.011 -1.06778 3.26272 0
M  V30 1886 N 205.456 -1.28612 -0.910864 0
M  V30 1887 C 206.366 -1.14643 -2.0468 0
M  V30 1888 C 207.382 -0.0723121 -1.7385 0
M  V30 1889 O 208.558 -0.282178 -1.99413 0
M  V30 1890 C 205.623 -0.812561 -3.37044 0
M  V30 1891 C 204.684 -1.96935 -3.81465 0
M  V30 1892 C 203.917 -1.65131 -5.07511 0
M  V30 1893 O 204.14 -0.567013 -5.67575 0
M  V30 1894 O 203.074 -2.49585 -5.47714 0
M  V30 1895 H 206.9 -2.1001 -2.19384 0
M  V30 1896 H 204.485 -1.07958 -1.03274 0
M  V30 1897 H 206.367 -0.640441 -4.16505 0
M  V30 1898 H 205.042 0.111426 -3.23508 0
M  V30 1899 H 203.949 -2.19664 -3.02818 0
M  V30 1900 H 205.282 -2.87414 -3.99567 0
M  V30 1901 N 206.934 1.1197 -1.10907 0
M  V30 1902 C 207.864 2.19928 -0.784473 0
M  V30 1903 C 208.845 1.6833 0.244726 0
M  V30 1904 O 210.03 1.93892 0.109418 0
M  V30 1905 C 207.16 3.46597 -0.220827 0
M  V30 1906 C 206.114 4.11376 -1.18127 0
M  V30 1907 C 205.44 5.32554 -0.478594 0
M  V30 1908 C 206.74 4.56945 -2.52979 0
M  V30 1909 H 208.434 2.47337 -1.68715 0
M  V30 1910 H 205.98 1.18879 -0.812642 0
M  V30 1911 H 207.933 4.21396 0.0184278 0
M  V30 1912 H 206.657 3.1863 0.717113 0
M  V30 1913 H 205.316 3.38564 -1.40606 0
M  V30 1914 H 204.964 5.00856 0.463976 0
M  V30 1915 H 204.664 5.76844 -1.11912 0
M  V30 1916 H 206.188 6.10096 -0.248 0
M  V30 1917 H 207.602 5.23093 -2.3462 0
M  V30 1918 H 205.999 5.1203 -3.12962 0
M  V30 1919 H 207.069 3.70676 -3.12614 0
M  V30 1920 N 208.412 0.89855 1.29475 0
M  V30 1921 C 209.64 0.539261 1.99749 0
M  V30 1922 C 210.055 -0.875716 1.67262 0
M  V30 1923 O 209.412 -1.57786 0.917049 0
M  V30 1924 C 209.463 0.72061 3.54245 0
M  V30 1925 O 209.184 2.07989 3.8558 0
M  V30 1926 C 210.685 0.366118 4.41786 0
M  V30 1927 H 207.905 0.207047 0.638258 0
M  V30 1928 H 210.449 1.20758 1.65039 0
M  V30 1929 H 208.604 0.0994862 3.87272 0
M  V30 1930 H 209.018 2.10841 4.80257 0
M  V30 1931 H 210.492 0.543848 5.49314 0
M  V30 1932 H 210.969 -0.696763 4.33638 0
M  V30 1933 H 211.575 0.964135 4.14228 0
M  V30 1934 N 209.89 -1.43072 0.660911 0
M  V30 1935 C 211.301 -1.84932 0.256348 0
M  V30 1936 C 211.652 -1.55325 -1.19868 0
M  V30 1937 O 210.777 -1.00607 -1.91591 0
M  V30 1938 C 211.372 -3.35684 0.458475 0
M  V30 1939 C 209.931 -3.76245 0.108161 0
M  V30 1940 C 209.078 -2.66749 0.757641 0
M  V30 1941 H 212.029 -1.33116 0.864051 0
M  V30 1942 H 212.05 -3.79365 -0.293683 0
M  V30 1943 H 211.562 -3.572 1.51755 0
M  V30 1944 H 209.663 -3.60338 -0.948014 0
M  V30 1945 H 209.776 -4.76058 0.538992 0
M  V30 1946 H 208.14 -2.53989 0.190185 0
M  V30 1947 H 208.923 -2.91092 1.81989 0
M  V30 1948 N 211.368 -0.403325 -1.52352 0
M  V30 1949 C 212.278 0.432009 -2.30588 0
M  V30 1950 C 213.294 1.05884 -1.38075 0
M  V30 1951 O 214.47 1.06161 -1.71148 0
M  V30 1952 C 211.535 1.53669 -3.10784 0
M  V30 1953 C 210.596 0.933525 -4.19027 0
M  V30 1954 C 209.829 1.98557 -4.9539 0
M  V30 1955 O 210.052 3.20283 -4.71991 0
M  V30 1956 O 208.986 1.59504 -5.80381 0
M  V30 1957 H 212.812 -0.205739 -3.03002 0
M  V30 1958 H 210.397 -0.166675 -1.48467 0
M  V30 1959 H 212.279 2.17814 -3.60742 0
M  V30 1960 H 210.954 2.15915 -2.41169 0
M  V30 1961 H 209.861 0.254954 -3.7323 0
M  V30 1962 H 211.194 0.35508 -4.90918 0
M  V30 1963 N 212.846 1.57033 -0.133567 0
M  V30 1964 C 214.092 1.95976 0.521649 0
M  V30 1965 C 214.425 1.01779 1.65393 0
M  V30 1966 O 213.7 0.0576581 1.94415 0
M  V30 1967 C 213.983 3.44738 1.04057 0
M  V30 1968 C 213.836 4.49711 -0.0892897 0
M  V30 1969 C 215.155 3.95682 1.92675 0
M  V30 1970 H 212.274 0.712579 0.188149 0
M  V30 1971 H 214.916 1.88813 -0.212076 0
M  V30 1972 H 213.066 3.50973 1.66583 0
M  V30 1973 H 214.738 4.55565 -0.725152 0
M  V30 1974 H 212.981 4.27261 -0.750378 0
M  V30 1975 H 213.652 5.51099 0.315284 0
M  V30 1976 H 216.128 3.91841 1.39998 0
M  V30 1977 H 215.004 5.00262 2.25897 0
M  V30 1978 H 215.265 3.37239 2.85872 0
M  V30 1979 N 214.325 -0.140222 1.56975 0
M  V30 1980 C 215.288 -1.15689 1.97861 0
M  V30 1981 C 216.288 -1.3549 0.865974 0
M  V30 1982 O 217.478 -1.32367 1.13246 0
M  V30 1983 C 214.61 -2.51582 2.30042 0
M  V30 1984 H 215.803 -0.805971 2.88867 0
M  V30 1985 H 213.356 -0.383801 1.51515 0
M  V30 1986 H 214.091 -2.91632 1.41849 0
M  V30 1987 H 213.876 -2.38569 3.11171 0
M  V30 1988 H 215.366 -3.24792 2.62488 0
M  V30 1989 N 215.803 -1.52179 -0.40978 0
M  V30 1990 C 217.214 -1.58377 -0.988615 0
M  V30 1991 C 217.565 -0.423879 -1.91566 0
M  V30 1992 O 216.69 0.455844 -2.11544 0
M  V30 1993 C 217.285 -2.87044 -1.79976 0
M  V30 1994 C 215.844 -2.95722 -2.32863 0
M  V30 1995 C 214.991 -2.53309 -1.12828 0
M  V30 1996 H 217.942 -1.57558 -0.190039 0
M  V30 1997 H 217.963 -2.7236 -2.65707 0
M  V30 1998 H 217.475 -3.71444 -1.12478 0
M  V30 1999 H 215.576 -2.15814 -3.03735 0
M  V30 2000 H 215.689 -3.99951 -2.63773 0
M  V30 2001 H 214.053 -2.07142 -1.48204 0
M  V30 2002 H 214.836 -3.40082 -0.46897 0
M  V30 2003 N 217.281 0.66697 -1.42791 0
M  V30 2004 C 218.191 1.80962 -1.49299 0
M  V30 2005 C 219.207 1.69775 -0.381108 0
M  V30 2006 O 220.383 1.91188 -0.633188 0
M  V30 2007 C 217.448 3.17156 -1.40045 0
M  V30 2008 C 216.509 3.40242 -2.6179 0
M  V30 2009 C 215.742 4.69939 -2.52969 0
M  V30 2010 O 215.965 5.48372 -1.56985 0
M  V30 2011 O 214.899 4.94441 -3.43237 0
M  V30 2012 H 218.725 1.78427 -2.45759 0
M  V30 2013 H 216.31 0.823713 -1.24641 0
M  V30 2014 H 218.192 3.98413 -1.37276 0
M  V30 2015 H 216.867 3.20312 -0.467138 0
M  V30 2016 H 215.774 2.58802 -2.70134 0
M  V30 2017 H 217.107 3.41923 -3.54047 0
M  V30 2018 N 218.759 1.29093 0.90403 0
M  V30 2019 C 219.689 1.16401 2.02418 0
M  V30 2020 C 220.67 0.0593085 1.69997 0
M  V30 2021 O 221.855 0.238021 1.92736 0
M  V30 2022 C 218.985 0.835233 3.37107 0
M  V30 2023 C 217.939 1.89578 3.83724 0
M  V30 2024 C 217.265 1.42041 5.15489 0
M  V30 2025 C 218.565 3.30394 4.04521 0
M  V30 2026 H 220.259 2.10109 2.13295 0
M  V30 2027 H 217.805 1.01157 1.02486 0
M  V30 2028 H 219.758 0.733169 4.14973 0
M  V30 2029 H 218.482 -0.137543 3.2631 0
M  V30 2030 H 217.141 1.98715 3.08071 0
M  V30 2031 H 216.789 0.436426 5.01103 0
M  V30 2032 H 216.489 2.12964 5.4765 0
M  V30 2033 H 218.013 1.33176 5.959 0
M  V30 2034 H 219.427 3.24123 4.72882 0
M  V30 2035 H 217.824 3.99237 4.48029 0
M  V30 2036 H 218.894 3.73692 3.09002 0
M  V30 2037 N 220.237 -1.11381 1.11499 0
M  V30 2038 C 221.2 -2.15622 0.777153 0
M  V30 2039 C 222.2 -1.59504 -0.203779 0
M  V30 2040 O 223.39 -1.74188 0.020782 0
M  V30 2041 C 220.522 -3.40556 0.153116 0
M  V30 2042 H 221.715 -2.47021 1.70061 0
M  V30 2043 H 219.268 -1.26577 0.916952 0
M  V30 2044 H 220.003 -3.14767 -0.780536 0
M  V30 2045 H 219.788 -3.8257 0.859238 0
M  V30 2046 H 221.278 -4.17546 -0.0671044 0
M  V30 2047 N 221.715 -0.905404 -1.28997 0
M  V30 2048 C 223.126 -0.581953 -1.77398 0
M  V30 2049 C 223.477 0.902552 -1.74208 0
M  V30 2050 O 222.602 1.70584 -1.33154 0
M  V30 2051 C 223.197 -1.04961 -3.22131 0
M  V30 2052 C 221.756 -0.777229 -3.68288 0
M  V30 2053 C 220.903 -1.22109 -2.48967 0
M  V30 2054 H 223.854 -1.08754 -1.15578 0
M  V30 2055 H 223.875 -0.387387 -3.78523 0
M  V30 2056 H 223.387 -2.13008 -3.24421 0
M  V30 2057 H 221.488 0.290383 -3.71467 0
M  V30 2058 H 221.601 -1.37911 -4.58822 0
M  V30 2059 H 219.965 -0.639971 -2.46529 0
M  V30 2060 H 220.748 -2.30972 -2.53982 0
M  V30 2061 N 223.193 1.4272 -0.668489 0
M  V30 2062 C 224.103 2.34596 0.0139753 0
M  V30 2063 C 225.119 1.5474 0.795703 0
M  V30 2064 O 226.295 1.87334 0.739466 0
M  V30 2065 C 223.36 3.33202 0.957982 0
M  V30 2066 C 222.421 4.28957 0.17149 0
M  V30 2067 C 221.654 5.22853 1.07053 0
M  V30 2068 O 221.877 5.21531 2.31001 0
M  V30 2069 O 220.811 5.9952 0.534727 0
M  V30 2070 H 224.637 2.9448 -0.742661 0
M  V30 2071 H 222.222 1.43117 -0.428705 0
M  V30 2072 H 224.104 3.93796 1.50008 0
M  V30 2073 H 222.779 2.758 1.69458 0
M  V30 2074 H 221.686 3.71796 -0.414558 0
M  V30 2075 H 223.019 4.89383 -0.52586 0
M  V30 2076 N 224.671 0.411399 1.52136 0
M  V30 2077 C 226.082 -0.0576826 1.86611 0
M  V30 2078 C 226.433 -1.44238 1.33003 0
M  V30 2079 O 225.558 -2.05759 0.670228 0
M  V30 2080 C 226.153 -0.111448 3.38617 0
M  V30 2081 C 224.712 -0.52487 3.72723 0
M  V30 2082 C 223.859 0.299176 2.75681 0
M  V30 2083 H 226.81 0.628368 1.4573 0
M  V30 2084 H 226.831 -0.926252 3.69054 0
M  V30 2085 H 226.343 0.896488 3.77604 0
M  V30 2086 H 224.444 -1.53936 3.39315 0
M  V30 2087 H 224.557 -0.267681 4.78352 0
M  V30 2088 H 222.921 -0.238814 2.53578 0
M  V30 2089 H 223.704 1.3055 3.17508 0
M  V30 2090 N 226.149 -1.5696 0.141893 0
M  V30 2091 C 227.377 -2.00322 -0.517579 0
M  V30 2092 C 227.792 -1.02193 -1.58752 0
M  V30 2093 O 227.149 -0.0181619 -1.82491 0
M  V30 2094 C 227.2 -3.43618 -1.12289 0
M  V30 2095 O 226.921 -4.37995 -0.0956929 0
M  V30 2096 C 228.422 -4.02231 -1.86347 0
M  V30 2097 H 225.642 -0.657243 -0.135177 0
M  V30 2098 H 228.186 -2.03146 0.234973 0
M  V30 2099 H 226.341 -3.41662 -1.82609 0
M  V30 2100 H 226.755 -5.21729 -0.538469 0
M  V30 2101 H 228.229 -5.04509 -2.23997 0
M  V30 2102 H 228.706 -3.42655 -2.74744 0
M  V30 2103 H 229.312 -4.07802 -1.20737 0
M  V30 2104 N 227.627 0.131896 -1.57047 0
M  V30 2105 C 229.038 0.690407 -1.73465 0
M  V30 2106 C 229.389 1.8094 -0.758629 0
M  V30 2107 O 228.514 2.16282 0.0713813 0
M  V30 2108 C 229.109 1.25916 -3.14532 0
M  V30 2109 C 227.668 1.76409 -3.32501 0
M  V30 2110 C 226.815 0.658579 -2.69366 0
M  V30 2111 H 229.766 -0.0939144 -1.58422 0
M  V30 2112 H 229.787 2.12892 -3.15369 0
M  V30 2113 H 229.299 0.444515 -3.85546 0
M  V30 2114 H 227.4 2.60391 -2.66509 0
M  V30 2115 H 227.513 1.88241 -4.4057 0
M  V30 2116 H 225.877 1.08899 -2.30246 0
M  V30 2117 H 226.66 -0.14487 -3.42994 0
M  V30 2118 N 229.106 1.52395 0.401703 0
M  V30 2119 C 230.016 1.7917 1.51444 0
M  V30 2120 C 231.032 0.677691 1.6026 0
M  V30 2121 O 232.208 0.963909 1.76835 0
M  V30 2122 C 229.273 1.94347 2.87107 0
M  V30 2123 C 228.334 3.18257 2.88116 0
M  V30 2124 C 227.567 3.32701 4.17308 0
M  V30 2125 O 227.79 2.52238 5.11598 0
M  V30 2126 O 226.724 4.25891 4.25324 0
M  V30 2127 H 230.55 2.73633 1.31752 0
M  V30 2128 H 228.135 1.3733 0.588296 0
M  V30 2129 H 230.017 2.06109 3.67555 0
M  V30 2130 H 228.692 1.03073 3.06851 0
M  V30 2131 H 227.599 3.11947 2.06494 0
M  V30 2132 H 228.932 4.09336 2.73322 0
M  V30 2133 N 230.584 -0.659388 1.43143 0
M  V30 2134 C 231.995 -1.24041 1.39537 0
M  V30 2135 C 232.346 -1.95963 0.0963364 0
M  V30 2136 O 231.471 -2.00892 -0.804438 0
M  V30 2137 C 232.066 -2.25601 2.52764 0
M  V30 2138 C 230.625 -2.79195 2.52443 0
M  V30 2139 C 229.772 -1.53743 2.30778 0
M  V30 2140 H 232.723 -0.451792 1.52133 0
M  V30 2141 H 232.744 -3.07651 2.23899 0
M  V30 2142 H 232.256 -1.73226 3.47296 0
M  V30 2143 H 230.357 -3.35649 1.61773 0
M  V30 2144 H 230.47 -3.2716 3.50004 0
M  V30 2145 H 228.834 -1.80869 1.79328 0
M  V30 2146 H 229.617 -1.03312 3.27386 0
M  V30 2147 N 232.062 -1.29571 -0.897171 0
M  V30 2148 C 233.308 -1.17863 -1.65034 0
M  V30 2149 C 233.641 0.268729 -1.92332 0
M  V30 2150 O 232.916 1.19378 -1.53555 0
M  V30 2151 C 233.199 -1.995 -2.99786 0
M  V30 2152 C 233.052 -3.5239 -2.79538 0
M  V30 2153 C 234.371 -1.82335 -4.00552 0
M  V30 2154 H 231.49 -0.429528 -0.598895 0
M  V30 2155 H 234.132 -1.59072 -1.03905 0
M  V30 2156 H 232.282 -1.64485 -3.51962 0
M  V30 2157 H 233.954 -3.97401 -2.34244 0
M  V30 2158 H 232.197 -3.77187 -2.14273 0
M  V30 2159 H 232.868 -4.04787 -3.75302 0
M  V30 2160 H 235.344 -2.12924 -3.57495 0
M  V30 2161 H 234.22 -2.41801 -4.92771 0
M  V30 2162 H 234.481 -0.779209 -4.35179 0
M  V30 2163 N 233.54 1.10788 -1.12088 0
M  V30 2164 C 234.768 1.86461 -0.896651 0
M  V30 2165 C 235.183 1.80492 0.553912 0
M  V30 2166 O 234.54 1.19102 1.38278 0
M  V30 2167 C 234.591 3.35006 -1.35843 0
M  V30 2168 O 234.312 3.40866 -2.75213 0
M  V30 2169 C 235.813 4.27565 -1.1706 0
M  V30 2170 H 233.033 0.589425 -0.320654 0
M  V30 2171 H 235.577 1.40076 -1.48993 0
M  V30 2172 H 233.732 3.7887 -0.808458 0
M  V30 2173 H 234.146 4.33411 -2.9539 0
M  V30 2174 H 235.62 5.30007 -1.54263 0
M  V30 2175 H 236.097 4.3906 -0.110814 0
M  V30 2176 H 236.703 3.89501 -1.70789 0
M  V30 2177 N 235.018 0.912232 1.28515 0
M  V30 2178 C 235.928 0.404506 2.31086 0
M  V30 2179 C 236.944 -0.50707 1.66448 0
M  V30 2180 O 238.12 -0.393624 1.97516 0
M  V30 2181 C 235.185 -0.348572 3.44943 0
M  V30 2182 C 234.246 0.59604 4.25142 0
M  V30 2183 C 233.479 -0.121194 5.33562 0
M  V30 2184 O 233.702 -1.34317 5.5436 0
M  V30 2185 O 232.636 0.542716 5.99448 0
M  V30 2186 H 236.462 1.25579 2.76521 0
M  V30 2187 H 234.047 0.676998 1.33181 0
M  V30 2188 H 235.929 -0.77395 4.14232 0
M  V30 2189 H 234.604 -1.17571 3.01594 0
M  V30 2190 H 233.511 1.07079 3.58448 0
M  V30 2191 H 234.844 1.38995 4.72167 0
M  V30 2192 N 236.496 -1.42363 0.676048 0
M  V30 2193 C 237.426 -2.33497 0.0124832 0
M  V30 2194 C 238.407 -1.50748 -0.787981 0
M  V30 2195 O 239.592 -1.79346 -0.744884 0
M  V30 2196 C 236.722 -3.34377 -0.938582 0
M  V30 2197 C 235.676 -4.27289 -0.246622 0
M  V30 2198 C 235.002 -5.18386 -1.31071 0
M  V30 2199 C 236.302 -5.14916 0.875125 0
M  V30 2200 H 237.996 -2.89233 0.773593 0
M  V30 2201 H 235.542 -1.39073 0.37346 0
M  V30 2202 H 237.495 -3.97044 -1.41188 0
M  V30 2203 H 236.219 -2.76947 -1.73113 0
M  V30 2204 H 234.878 -3.66018 0.206456 0
M  V30 2205 H 234.526 -4.57282 -2.09528 0
M  V30 2206 H 234.226 -5.81378 -0.852839 0
M  V30 2207 H 235.75 -5.83929 -1.78492 0
M  V30 2208 H 237.164 -5.71262 0.482983 0
M  V30 2209 H 235.561 -5.86747 1.25887 0
M  V30 2210 H 236.631 -4.53242 1.72335 0
M  V30 2211 N 237.974 -0.419461 -1.51915 0
M  V30 2212 C 238.937 0.389116 -2.25873 0
M  V30 2213 C 239.937 0.964924 -1.28631 0
M  V30 2214 O 241.127 0.842179 -1.52489 0
M  V30 2215 C 238.259 1.54874 -3.03689 0
M  V30 2216 H 239.452 -0.258799 -2.98781 0
M  V30 2217 H 237.005 -0.172209 -1.55348 0
M  V30 2218 H 237.74 2.23323 -2.35154 0
M  V30 2219 H 237.525 1.14223 -3.75094 0
M  V30 2220 H 239.015 2.12046 -3.59759 0
M  V30 2221 N 239.452 1.56882 -0.150215 0
M  V30 2222 C 240.863 1.82995 0.370076 0
M  V30 2223 C 241.214 1.06907 1.64515 0
M  V30 2224 O 240.339 0.315369 2.1409 0
M  V30 2225 C 240.934 3.31942 0.678208 0
M  V30 2226 C 239.493 3.58625 1.14301 0
M  V30 2227 C 238.64 2.76792 0.167778 0
M  V30 2228 H 241.591 1.54209 -0.374858 0
M  V30 2229 H 241.612 3.48272 1.53254 0
M  V30 2230 H 241.124 3.87294 -0.249991 0
M  V30 2231 H 239.225 3.08664 2.08704 0
M  V30 2232 H 239.338 4.67073 1.06676 0
M  V30 2233 H 237.702 2.45972 0.661037 0
M  V30 2234 H 238.485 3.34916 -0.754069 0
M  V30 2235 N 240.93 -0.123565 1.57115 0
M  V30 2236 C 241.84 -1.17074 2.033 0
M  V30 2237 C 242.856 -1.4561 0.952559 0
M  V30 2238 O 244.032 -1.56817 1.26374 0
M  V30 2239 C 241.097 -2.47857 2.42421 0
M  V30 2240 C 240.158 -2.26758 3.64526 0
M  V30 2241 C 239.391 -3.51305 4.01771 0
M  V30 2242 O 239.614 -4.5843 3.39409 0
M  V30 2243 O 238.548 -3.42578 4.94898 0
M  V30 2244 H 242.374 -0.808555 2.92739 0
M  V30 2245 H 239.959 -0.334027 1.45618 0
M  V30 2246 H 241.841 -3.2492 2.68338 0
M  V30 2247 H 240.516 -2.83558 1.5613 0
M  V30 2248 H 239.423 -1.47569 3.43765 0
M  V30 2249 H 240.756 -1.95963 4.51508 0
M  V30 2250 N 242.408 -1.52605 -0.393616 0
M  V30 2251 C 243.655 -1.67424 -1.1391 0
M  V30 2252 C 243.983 -0.411859 -1.90089 0
M  V30 2253 O 243.238 0.605626 -1.86093 0
M  V30 2254 C 243.537 -2.85721 -2.14705 0
M  V30 2255 C 243.203 -4.23342 -1.55218 0
M  V30 2256 C 241.865 -4.60771 -1.3872 0
M  V30 2257 C 244.217 -5.09041 -1.11924 0
M  V30 2258 C 241.545 -5.81563 -0.774689 0
M  V30 2259 C 243.897 -6.30452 -0.520853 0
M  V30 2260 C 242.561 -6.66617 -0.343134 0
M  V30 2261 H 241.831 -0.612648 -0.416826 0
M  V30 2262 H 244.478 -1.8674 -0.424315 0
M  V30 2263 H 242.783 -2.60803 -2.92385 0
M  V30 2264 H 244.48 -2.94382 -2.72288 0
M  V30 2265 H 241.07 -3.93855 -1.69045 0
M  V30 2266 H 245.254 -4.80695 -1.23473 0
M  V30 2267 H 240.51 -6.08196 -0.625154 0
M  V30 2268 H 244.684 -6.96175 -0.177065 0
M  V30 2269 H 242.311 -7.60083 0.133571 0
M  V30 2270 N 243.887 0.651787 -1.4349 0
M  V30 2271 C 245.127 1.42345 -1.46688 0
M  V30 2272 C 245.491 1.91793 -0.0891023 0
M  V30 2273 O 246.692 2.688 0.00423594 0
M  V30 2274 C 244.963 2.57221 -2.48137 0
M  V30 2275 S 246.522 3.45725 -2.70221 0
M  V30 2276 H 243.34 0.485878 -0.51908 0
M  V30 2277 H 245.942 0.756578 -1.80267 0
M  V30 2278 H 244.646 2.1917 -3.46976 0
M  V30 2279 H 244.177 3.28757 -2.16061 0
M  V30 2280 H 246.192 4.53996 -2.00255 0
M  V30 2281 N 245.365 1.30045 0.890287 0
M  V30 2282 C 246.776 1.16738 1.45702 0
M  V30 2283 C 247.127 -0.233939 1.948 0
M  V30 2284 O 246.252 -1.13021 1.84541 0
M  V30 2285 C 246.847 2.11313 2.64825 0
M  V30 2286 C 245.406 2.02001 3.17604 0
M  V30 2287 C 244.553 2.01699 1.90296 0
M  V30 2288 H 247.504 1.42392 0.700726 0
M  V30 2289 H 247.525 1.69086 3.40867 0
M  V30 2290 H 247.037 3.13294 2.2906 0
M  V30 2291 H 245.138 1.03142 3.5804 0
M  V30 2292 H 245.251 2.90128 3.81264 0
M  V30 2293 H 243.615 1.46427 2.08402 0
M  V30 2294 H 244.398 3.05402 1.56795 0
M  V30 2295 N 246.843 -1.10192 1.12674 0
M  V30 2296 C 247.753 -2.20172 0.810026 0
M  V30 2297 C 248.769 -1.72821 -0.202188 0
M  V30 2298 O 249.945 -2.01369 -0.0351691 0
M  V30 2299 C 247.01 -3.45631 0.272007 0
M  V30 2300 C 246.071 -4.07704 1.34447 0
M  V30 2301 C 245.304 -5.27175 0.832029 0
M  V30 2302 O 245.527 -5.69425 -0.333284 0
M  V30 2303 O 244.461 -5.80168 1.60277 0
M  V30 2304 H 248.287 -2.49701 1.72867 0
M  V30 2305 H 245.872 -1.18977 0.903597 0
M  V30 2306 H 247.754 -4.21394 -0.0230219 0
M  V30 2307 H 246.429 -3.17723 -0.619164 0
M  V30 2308 H 245.336 -3.33614 1.6927 0
M  V30 2309 H 246.669 -4.3982 2.2095 0
M  V30 2310 N 248.321 -0.919034 -1.28029 0
M  V30 2311 C 249.284 -0.416182 -2.2539 0
M  V30 2312 C 250.284 0.460438 -1.54067 0
M  V30 2313 O 251.474 0.262744 -1.72207 0
M  V30 2314 C 248.606 0.402707 -3.38513 0
M  V30 2315 H 249.799 -1.27629 -2.71387 0
M  V30 2316 H 247.352 -0.698919 -1.39803 0
M  V30 2317 H 248.087 1.282 -2.97885 0
M  V30 2318 H 247.872 -0.225698 -3.9145 0
M  V30 2319 H 249.362 0.745191 -4.10897 0
M  V30 2320 N 249.799 1.42003 -0.683588 0
M  V30 2321 C 250.762 2.29191 -0.0198243 0
M  V30 2322 C 251.762 1.43773 0.72013 0
M  V30 2323 O 252.952 1.65061 0.556815 0
M  V30 2324 C 250.084 3.26435 0.982487 0
M  V30 2325 H 251.277 2.8938 -0.787345 0
M  V30 2326 H 248.83 1.49789 -0.446418 0
M  V30 2327 H 249.565 2.71203 1.77819 0
M  V30 2328 H 249.35 3.89449 0.455182 0
M  V30 2329 H 250.84 3.918 1.44508 0
M  V30 2330 N 251.277 0.427512 1.51691 0
M  V30 2331 C 252.688 -0.0378867 1.86662 0
M  V30 2332 C 253.039 -1.42819 1.34525 0
M  V30 2333 O 252.164 -2.05037 0.692014 0
M  V30 2334 C 252.759 -0.0755266 3.38716 0
M  V30 2335 C 251.318 -0.485309 3.73258 0
M  V30 2336 C 250.465 0.328399 2.75349 0
M  V30 2337 H 253.416 0.64379 1.45055 0
M  V30 2338 H 253.437 -0.887056 3.70016 0
M  V30 2339 H 252.949 0.936487 3.76632 0
M  V30 2340 H 251.05 -1.50329 3.40928 0
M  V30 2341 H 251.163 -0.21693 4.78609 0
M  V30 2342 H 249.527 -0.211905 2.53817 0
M  V30 2343 H 250.31 1.3391 3.16106 0
M  V30 2344 N 252.755 -1.56801 0.158532 0
M  V30 2345 C 253.665 -2.20916 -0.789518 0
M  V30 2346 C 254.681 -1.1969 -1.26294 0
M  V30 2347 O 255.857 -1.52308 -1.31773 0
M  V30 2348 C 252.922 -2.82727 -2.00665 0
M  V30 2349 C 251.983 -3.99114 -1.58134 0
M  V30 2350 C 251.216 -4.57968 -2.74045 0
M  V30 2351 O 251.439 -4.15704 -3.90572 0
M  V30 2352 O 250.373 -5.48047 -2.48855 0
M  V30 2353 H 254.199 -3.02464 -0.273681 0
M  V30 2354 H 251.784 -1.4924 -0.0690548 0
M  V30 2355 H 253.666 -3.21968 -2.71872 0
M  V30 2356 H 252.341 -2.04184 -2.51179 0
M  V30 2357 H 251.248 -3.64567 -0.839155 0
M  V30 2358 H 252.581 -4.79212 -1.12325 0
M  V30 2359 N 254.233 0.115231 -1.57178 0
M  V30 2360 C 255.48 0.822351 -1.8505 0
M  V30 2361 C 255.808 1.79701 -0.744168 0
M  V30 2362 O 255.063 1.93909 0.26414 0
M  V30 2363 C 255.362 1.60324 -3.19423 0
M  V30 2364 C 255.028 0.772536 -4.44233 0
M  V30 2365 C 253.69 0.543468 -4.78121 0
M  V30 2366 C 256.042 0.193746 -5.2084 0
M  V30 2367 C 253.37 -0.274583 -5.86057 0
M  V30 2368 C 255.722 -0.611517 -6.29637 0
M  V30 2369 C 254.386 -0.850867 -6.62055 0
M  V30 2370 H 253.656 0.30092 -0.677147 0
M  V30 2371 H 256.303 0.0845802 -1.91313 0
M  V30 2372 H 254.608 2.41203 -3.08753 0
M  V30 2373 H 256.305 2.1544 -3.38211 0
M  V30 2374 H 252.895 0.96117 -4.17683 0
M  V30 2375 H 257.079 0.357926 -4.95008 0
M  V30 2376 H 252.335 -0.469206 -6.09597 0
M  V30 2377 H 256.509 -1.06697 -6.88178 0
M  V30 2378 H 254.136 -1.48657 -7.45523 0
M  V30 2379 N 255.711 1.52812 0.385517 0
M  V30 2380 C 257.127 1.4214 0.725829 0
M  V30 2381 C 257.327 0.544589 1.94001 0
M  V30 2382 O 256.383 0.0193693 2.52493 0
M  V30 2383 C 257.696 2.85042 0.957668 0
M  V30 2384 C 259.244 2.94543 1.05892 0
M  V30 2385 C 259.719 4.38464 1.32337 0
M  V30 2386 N 261.21 4.41804 1.39151 0
M  V30 2387 C 261.945 5.5025 1.61285 0
M  V30 2388 N 261.441 6.68775 1.80866 0
M  V30 2389 N 263.234 5.37798 1.63492 0
M  V30 2390 H 255.385 2.08338 -0.413383 0
M  V30 2391 H 257.648 0.940016 -0.122775 0
M  V30 2392 H 257.354 3.51431 0.137568 0
M  V30 2393 H 257.228 3.27505 1.87137 0
M  V30 2394 H 259.615 2.28321 1.86959 0
M  V30 2395 H 259.696 2.55504 0.123057 0
M  V30 2396 H 259.34 5.05254 0.517793 0
M  V30 2397 H 259.27 4.75059 2.27214 0
M  V30 2398 H 261.761 3.56377 1.25713 0
M  V30 2399 H 262.074 7.47197 1.97271 0
M  V30 2400 H 260.419 6.71797 1.78083 0
M  V30 2401 H 263.61 4.44171 1.47749 0
M  V30 2402 H 263.783 6.22382 1.80402 0
M  V30 2403 N 257.189 -0.644168 1.43834 0
M  V30 2404 C 258.6 -1.22554 1.40845 0
M  V30 2405 C 258.951 -1.9585 0.117115 0
M  V30 2406 O 258.076 -2.01734 -0.783086 0
M  V30 2407 C 258.671 -2.22907 2.55143 0
M  V30 2408 C 257.23 -2.76501 2.5539 0
M  V30 2409 C 256.377 -1.51287 2.32396 0
M  V30 2410 H 259.328 -0.43563 1.52604 0
M  V30 2411 H 259.349 -3.05259 2.2715 0
M  V30 2412 H 258.861 -1.69533 3.49114 0
M  V30 2413 H 256.962 -3.33914 1.65324 0
M  V30 2414 H 257.075 -3.23429 3.53455 0
M  V30 2415 H 255.439 -1.78957 1.81236 0
M  V30 2416 H 256.222 -0.998336 3.28463 0
M  V30 2417 N 258.668 -1.30515 -0.883378 0
M  V30 2418 C 259.893 -1.22487 -1.67367 0
M  V30 2419 C 260.318 0.208767 -1.86938 0
M  V30 2420 O 259.676 1.15015 -1.40148 0
M  V30 2421 C 259.724 -1.96041 -3.02655 0
M  V30 2422 O 258.828 -1.28859 -3.91751 0
M  V30 2423 H 258.169 -0.423573 -0.511353 0
M  V30 2424 H 260.699 -1.72362 -1.10239 0
M  V30 2425 H 260.709 -2.05124 -3.52687 0
M  V30 2426 H 259.384 -3.00307 -2.8773 0
M  V30 2427 H 257.961 -1.28141 -3.50192 0
M  V30 2428 N 260.146 1.09593 -1.13257 0
M  V30 2429 C 261.557 1.63229 -0.906274 0
M  V30 2430 C 261.908 1.8811 0.557578 0
M  V30 2431 O 261.033 1.62953 1.42391 0
M  V30 2432 C 261.628 2.96535 -1.63867 0
M  V30 2433 C 260.187 3.47003 -1.45828 0
M  V30 2434 C 259.334 2.2145 -1.66898 0
M  V30 2435 H 262.285 0.92978 -1.28611 0
M  V30 2436 H 262.306 3.64411 -1.09476 0
M  V30 2437 H 261.818 2.78394 -2.70404 0
M  V30 2438 H 259.919 3.70272 -0.415848 0
M  V30 2439 H 260.032 4.24551 -2.2202 0
M  V30 2440 H 258.396 2.30022 -1.09371 0
M  V30 2441 H 259.179 2.0583 -2.74752 0
M  V30 2442 N 261.624 0.925811 1.2754 0
M  V30 2443 C 262.587 0.428129 2.25166 0
M  V30 2444 C 263.587 -0.452261 1.54309 0
M  V30 2445 O 264.777 -0.253608 1.72344 0
M  V30 2446 C 261.909 -0.384749 3.38722 0
M  V30 2447 H 263.102 1.29066 2.70706 0
M  V30 2448 H 260.655 0.706323 1.3943 0
M  V30 2449 H 261.39 -1.26618 2.98561 0
M  V30 2450 H 261.175 0.246454 3.91325 0
M  V30 2451 H 262.665 -0.723389 4.11287 0
M  V30 2452 N 263.102 -1.41638 0.69111 0
M  V30 2453 C 264.513 -1.84346 0.295517 0
M  V30 2454 C 264.864 -1.57833 -1.16547 0
M  V30 2455 O 263.989 -1.04648 -1.89414 0
M  V30 2456 C 264.584 -3.34636 0.529575 0
M  V30 2457 C 263.143 -3.7593 0.187944 0
M  V30 2458 C 262.29 -2.65082 0.814052 0
M  V30 2459 H 265.241 -1.31253 0.892092 0
M  V30 2460 H 265.262 -3.79903 -0.213148 0
M  V30 2461 H 264.774 -3.53901 1.59297 0
M  V30 2462 H 262.875 -3.62268 -0.871367 0
M  V30 2463 H 262.988 -4.74808 0.63985 0
M  V30 2464 H 261.352 -2.53528 0.244017 0
M  V30 2465 H 262.135 -2.87167 1.88123 0
M  V30 2466 N 264.58 -0.43555 -1.51462 0
M  V30 2467 C 265.82 0.130708 -2.03982 0
M  V30 2468 C 266.184 1.40117 -1.31268 0
M  V30 2469 O 267.385 2.04755 -1.74152 0
M  V30 2470 C 265.656 0.346102 -3.5572 0
M  V30 2471 S 267.215 0.876022 -4.29967 0
M  V30 2472 H 264.033 0.0326881 -0.710248 0
M  V30 2473 H 266.635 -0.594544 -1.8624 0
M  V30 2474 H 265.339 -0.584911 -4.0621 0
M  V30 2475 H 264.87 1.09849 -3.77752 0
M  V30 2476 H 266.885 2.15379 -4.47019 0
M  V30 2477 N 266.058 1.56714 -0.166846 0
M  V30 2478 C 266.988 2.20754 0.760913 0
M  V30 2479 C 267.969 1.16178 1.24244 0
M  V30 2480 O 269.154 1.44592 1.29641 0
M  V30 2481 C 266.284 2.84478 1.99223 0
M  V30 2482 C 265.238 3.95053 1.64672 0
M  V30 2483 C 264.564 4.45805 2.95232 0
M  V30 2484 C 265.864 5.14865 0.878155 0
M  V30 2485 H 267.558 2.98537 0.22713 0
M  V30 2486 H 265.104 1.43596 0.107805 0
M  V30 2487 H 267.057 3.27951 2.64624 0
M  V30 2488 H 265.781 2.04056 2.55007 0
M  V30 2489 H 264.44 3.52228 1.01641 0
M  V30 2490 H 264.088 3.62181 3.49047 0
M  V30 2491 H 263.788 5.204 2.7287 0
M  V30 2492 H 265.312 4.91962 3.6167 0
M  V30 2493 H 266.726 5.55059 1.43466 0
M  V30 2494 H 265.123 5.95348 0.753738 0
M  V30 2495 H 266.193 4.84735 -0.126377 0
M  V30 2496 N 267.536 -0.106894 1.57237 0
M  V30 2497 C 268.466 -1.13148 2.04254 0
M  V30 2498 C 269.447 -1.42476 0.929224 0
M  V30 2499 O 270.632 -1.52709 1.19973 0
M  V30 2500 C 267.762 -2.4545 2.45706 0
M  V30 2501 C 266.716 -2.30558 3.60592 0
M  V30 2502 C 266.042 -3.67931 3.87983 0
M  V30 2503 C 267.342 -1.75597 4.91897 0
M  V30 2504 H 269.036 -0.740374 2.90101 0
M  V30 2505 H 266.582 -0.354696 1.39563 0
M  V30 2506 H 268.535 -3.17389 2.77205 0
M  V30 2507 H 267.259 -2.86475 1.56843 0
M  V30 2508 H 265.918 -1.61067 3.29322 0
M  V30 2509 H 265.566 -4.06462 2.96306 0
M  V30 2510 H 265.266 -3.58817 4.65322 0
M  V30 2511 H 266.79 -4.41356 4.21945 0
M  V30 2512 H 268.204 -2.37364 5.21854 0
M  V30 2513 H 266.601 -1.77272 5.73319 0
M  V30 2514 H 267.671 -0.714451 4.79608 0
M  V30 2515 N 269.014 -1.53014 -0.377408 0
M  V30 2516 C 269.946 -1.74884 -1.48149 0
M  V30 2517 C 270.959 -0.629433 -1.5014 0
M  V30 2518 O 272.148 -0.905416 -1.53833 0
M  V30 2519 C 269.248 -1.80299 -2.86959 0
M  V30 2520 C 268.421 -3.09776 -3.08801 0
M  V30 2521 C 267.48 -3.06586 -4.27658 0
M  V30 2522 O 266.506 -3.80419 -4.23403 0
M  V30 2523 N 267.708 -2.26578 -5.34455 0
M  V30 2524 H 270.473 -2.70147 -1.29771 0
M  V30 2525 H 268.034 -1.51646 -0.56703 0
M  V30 2526 H 270.026 -1.75657 -3.64591 0
M  V30 2527 H 268.596 -0.92372 -2.98641 0
M  V30 2528 H 267.816 -3.27815 -2.18931 0
M  V30 2529 H 269.104 -3.95366 -3.20255 0
M  V30 2530 H 268.502 -1.66081 -5.40771 0
M  V30 2531 H 267.059 -2.27766 -6.10709 0
M  V30 2532 N 270.492 0.636531 -1.44174 0
M  V30 2533 C 271.732 1.40781 -1.48189 0
M  V30 2534 C 272.096 1.91688 -0.10944 0
M  V30 2535 O 273.297 2.68789 -0.0242741 0
M  V30 2536 C 271.568 2.54575 -2.50851 0
M  V30 2537 S 273.127 3.4284 -2.73873 0
M  V30 2538 H 269.945 0.480345 -0.524204 0
M  V30 2539 H 272.547 0.737416 -1.81059 0
M  V30 2540 H 271.251 2.15478 -3.49281 0
M  V30 2541 H 270.782 3.26447 -2.19536 0
M  V30 2542 H 272.797 4.51846 -2.05059 0
M  V30 2543 N 271.97 1.30982 0.876444 0
M  V30 2544 C 273.381 1.18277 1.44456 0
M  V30 2545 C 273.732 -0.213265 1.95037 0
M  V30 2546 O 272.857 -1.11057 1.85729 0
M  V30 2547 C 273.452 2.1411 2.62569 0
M  V30 2548 C 272.011 2.05358 3.15444 0
M  V30 2549 C 271.158 2.03706 1.88146 0
M  V30 2550 H 274.109 1.43127 0.685584 0
M  V30 2551 H 274.13 1.72692 3.39054 0
M  V30 2552 H 273.642 3.15706 2.25724 0
M  V30 2553 H 271.743 1.06934 3.56926 0
M  V30 2554 H 271.856 2.94156 3.78166 0
M  V30 2555 H 270.22 1.48629 2.06837 0
M  V30 2556 H 271.003 3.07047 1.53547 0
M  V30 2557 N 273.449 -1.08991 1.13837 0
M  V30 2558 C 274.695 -1.81526 0.90422 0
M  V30 2559 C 275.028 -1.85706 -0.568066 0
M  V30 2560 O 274.303 -1.32855 -1.42056 0
M  V30 2561 C 274.586 -3.27447 1.49835 0
M  V30 2562 C 274.439 -3.31512 3.04006 0
M  V30 2563 C 275.758 -4.24256 1.17025 0
M  V30 2564 H 272.877 -0.659029 0.329923 0
M  V30 2565 H 275.519 -1.27644 1.40737 0
M  V30 2566 H 273.669 -3.73462 1.07044 0
M  V30 2567 H 275.341 -2.93867 3.55584 0
M  V30 2568 H 273.584 -2.70963 3.38765 0
M  V30 2569 H 274.255 -4.34329 3.40679 0
M  V30 2570 H 276.731 -3.86549 1.54009 0
M  V30 2571 H 275.607 -5.24684 1.61237 0
M  V30 2572 H 275.868 -4.42019 0.0846274 0
M  V30 2573 N 274.927 -0.932562 -1.27047 0
M  V30 2574 C 276.204 -0.49377 -1.89265 0
M  V30 2575 C 276.584 1.02833 -1.8436 0
M  V30 2576 O 275.932 1.88461 -1.29209 0
M  V30 2577 C 276.142 -1.04536 -3.32976 0
M  V30 2578 C 277.49 -1.10879 -4.09867 0
M  V30 2579 O 278.514 -0.995327 -3.42011 0
M  V30 2580 O 277.373 -1.28417 -5.31198 0
M  V30 2581 H 274.467 -0.159596 -0.811454 0
M  V30 2582 H 277.013 -1.02457 -1.3528 0
M  V30 2583 H 275.785 -2.08913 -3.30864 0
M  V30 2584 H 275.408 -0.496494 -3.94488 0
M  V30 2585 N 276.405 1.4127 -0.698611 0
M  V30 2586 C 277.633 2.05503 -0.239992 0
M  V30 2587 C 278.048 1.52584 1.11191 0
M  V30 2588 O 277.405 0.675323 1.69545 0
M  V30 2589 C 277.456 3.60987 -0.192429 0
M  V30 2590 O 277.177 4.1195 -1.49094 0
M  V30 2591 C 278.678 4.42371 0.28681 0
M  V30 2592 H 275.898 0.661748 -0.111045 0
M  V30 2593 H 278.442 1.80987 -0.95205 0
M  V30 2594 H 276.597 3.84533 0.470472 0
M  V30 2595 H 277.011 5.06018 -1.38007 0
M  V30 2596 H 278.485 5.51344 0.26896 0
M  V30 2597 H 278.962 4.18699 1.32619 0
M  V30 2598 H 279.568 4.23897 -0.345201 0
M  V30 2599 N 277.883 0.443576 1.51229 0
M  V30 2600 C 279.299 0.0962001 1.5931 0
M  V30 2601 C 279.499 -1.39501 1.45402 0
M  V30 2602 O 278.555 -2.16557 1.29843 0
M  V30 2603 C 279.868 0.621875 2.94199 0
M  V30 2604 C 281.416 0.582865 3.07525 0
M  V30 2605 C 281.891 1.08562 4.44948 0
M  V30 2606 N 283.382 1.04387 4.51284 0
M  V30 2607 C 284.117 1.40368 5.55954 0
M  V30 2608 N 283.613 1.83664 6.68011 0
M  V30 2609 N 285.406 1.32145 5.46346 0
M  V30 2610 H 277.557 1.41376 1.58514 0
M  V30 2611 H 279.82 0.582965 0.747567 0
M  V30 2612 H 279.526 1.66546 3.09767 0
M  V30 2613 H 279.4 0.0502125 3.77167 0
M  V30 2614 H 281.787 -0.451749 2.91622 0
M  V30 2615 H 281.868 1.191 2.26382 0
M  V30 2616 H 281.512 2.11873 4.61598 0
M  V30 2617 H 281.442 0.453956 5.2464 0
M  V30 2618 H 283.933 0.725986 3.70861 0
M  V30 2619 H 284.246 2.0934 7.43906 0
M  V30 2620 H 282.591 1.87596 6.69203 0
M  V30 2621 H 285.782 0.981808 4.57688 0
M  V30 2622 H 285.955 1.60514 6.27805 0
M  V30 2623 N 279.361 -1.56624 0.175154 0
M  V30 2624 C 280.271 -2.21741 -0.766042 0
M  V30 2625 C 281.287 -1.21023 -1.25018 0
M  V30 2626 O 282.463 -1.53697 -1.3015 0
M  V30 2627 C 279.528 -2.84839 -1.97655 0
M  V30 2628 C 278.589 -4.00769 -1.53892 0
M  V30 2629 C 277.822 -4.60849 -2.69173 0
M  V30 2630 O 278.045 -4.19823 -3.86141 0
M  V30 2631 O 276.979 -5.50655 -2.43028 0
M  V30 2632 H 280.805 -3.02738 -0.241585 0
M  V30 2633 H 278.39 -1.49305 -0.053222 0
M  V30 2634 H 280.272 -3.24834 -2.68442 0
M  V30 2635 H 278.947 -2.06836 -2.48999 0
M  V30 2636 H 277.854 -3.65436 -0.80044 0
M  V30 2637 H 279.187 -4.80376 -1.07236 0
M  V30 2638 N 280.839 0.0985539 -1.57292 0
M  V30 2639 C 282.255 0.45267 -1.53046 0
M  V30 2640 C 282.455 1.80713 -0.891342 0
M  V30 2641 O 281.511 2.4785 -0.482375 0
M  V30 2642 C 282.824 0.418341 -2.97776 0
M  V30 2643 C 284.372 0.500443 -3.08973 0
M  V30 2644 C 284.847 0.496297 -4.55303 0
M  V30 2645 N 286.338 0.557151 -4.59837 0
M  V30 2646 C 287.073 0.575726 -5.70502 0
M  V30 2647 N 286.569 0.550714 -6.90608 0
M  V30 2648 N 288.362 0.620277 -5.58667 0
M  V30 2649 H 280.513 -0.788673 -1.97215 0
M  V30 2650 H 282.776 -0.293188 -0.901524 0
M  V30 2651 H 282.482 -0.509659 -3.47988 0
M  V30 2652 H 282.356 1.2386 -3.56284 0
M  V30 2653 H 284.743 1.41886 -2.58751 0
M  V30 2654 H 284.824 -0.347894 -2.53423 0
M  V30 2655 H 284.468 -0.418162 -5.06176 0
M  V30 2656 H 284.398 1.3618 -5.08687 0
M  V30 2657 H 286.889 0.581816 -3.73394 0
M  V30 2658 H 287.202 0.568075 -7.70709 0
M  V30 2659 H 285.547 0.517816 -6.93068 0
M  V30 2660 H 288.738 0.637322 -4.63741 0
M  V30 2661 H 288.911 0.631283 -6.44918 0
M  V30 2662 N 282.317 1.53212 0.369288 0
M  V30 2663 C 283.565 1.68881 1.11012 0
M  V30 2664 C 283.886 0.441285 1.89941 0
M  V30 2665 O 283.156 -0.544623 1.88177 0
M  V30 2666 H 281.736 0.622569 0.412816 0
M  V30 2667 H 284.398 1.90391 0.416802 0
M  V30 2668 H 283.494 2.54822 1.80201 0
M  V30 2669 N 283.795 -0.628877 1.44509 0
M  V30 2670 C 284.725 -1.75187 1.54376 0
M  V30 2671 C 285.706 -1.65411 0.396618 0
M  V30 2672 O 286.891 -1.84137 0.617031 0
M  V30 2673 C 284.021 -3.13725 1.48976 0
M  V30 2674 C 282.975 -3.38291 2.62189 0
M  V30 2675 C 282.301 -4.76883 2.41841 0
M  V30 2676 C 283.601 -3.30632 4.04326 0
M  V30 2677 H 285.295 -1.67187 2.48373 0
M  V30 2678 H 282.841 -0.802909 1.19538 0
M  V30 2679 H 284.794 -3.92064 1.54478 0
M  V30 2680 H 283.518 -3.22515 0.514961 0
M  V30 2681 H 282.177 -2.62334 2.56079 0
M  V30 2682 H 281.825 -4.82378 1.42548 0
M  V30 2683 H 281.525 -4.94278 3.17747 0
M  V30 2684 H 283.049 -5.57449 2.49165 0
M  V30 2685 H 284.463 -3.98873 4.11793 0
M  V30 2686 H 282.86 -3.59561 4.80454 0
M  V30 2687 H 283.93 -2.28404 4.27738 0
M  V30 2688 N 285.273 -1.31445 -0.869486 0
M  V30 2689 C 286.22 -1.19135 -1.97675 0
M  V30 2690 C 287.19 -0.0770266 -1.65921 0
M  V30 2691 O 288.375 -0.249972 -1.89155 0
M  V30 2692 C 285.515 -0.905149 -3.33018 0
M  V30 2693 C 284.628 -2.10285 -3.77365 0
M  V30 2694 C 283.763 -1.75339 -5.01427 0
M  V30 2695 C 282.802 -2.91515 -5.38224 0
M  V30 2696 N 281.939 -2.56762 -6.53466 0
M  V30 2697 H 286.779 -2.13853 -2.07535 0
M  V30 2698 H 284.316 -1.06379 -1.01597 0
M  V30 2699 H 286.274 -0.719765 -4.10944 0
M  V30 2700 H 284.904 0.00519624 -3.228 0
M  V30 2701 H 283.956 -2.39899 -2.95216 0
M  V30 2702 H 285.268 -2.97237 -4.00564 0
M  V30 2703 H 284.422 -1.53266 -5.87022 0
M  V30 2704 H 283.161 -0.855801 -4.80133 0
M  V30 2705 H 282.166 -3.14237 -4.51149 0
M  V30 2706 H 283.391 -3.81985 -5.61484 0
M  V30 2707 H 281.337 -1.69526 -6.33717 0
M  V30 2708 H 281.254 -3.37243 -6.76612 0
M  V30 2709 H 282.522 -2.38083 -7.42251 0
M  V30 2710 N 286.751 1.08385 -1.14413 0
M  V30 2711 C 287.979 1.84517 -0.936001 0
M  V30 2712 C 288.394 1.81626 0.515503 0
M  V30 2713 O 287.751 1.22008 1.35721 0
M  V30 2714 C 287.802 3.32049 -1.42918 0
M  V30 2715 O 287.523 3.34951 -2.82381 0
M  V30 2716 C 289.024 4.24986 -1.26103 0
M  V30 2717 H 286.244 0.582491 -0.333084 0
M  V30 2718 H 288.788 1.36885 -1.5193 0
M  V30 2719 H 286.943 3.7707 -0.888641 0
M  V30 2720 H 287.357 4.27048 -3.04517 0
M  V30 2721 H 288.831 5.26615 -1.6547 0
M  V30 2722 H 289.308 4.38726 -0.20392 0
M  V30 2723 H 289.914 3.85791 -1.79012 0
M  V30 2724 N 288.23 0.939286 1.26551 0
M  V30 2725 C 289.455 0.602008 1.98471 0
M  V30 2726 C 289.88 -0.815624 1.69497 0
M  V30 2727 O 289.238 -1.54912 0.941905 0
M  V30 2728 C 289.286 0.848407 3.50477 0
M  V30 2729 O 288.39 -0.0804009 4.12322 0
M  V30 2730 H 287.731 0.23049 0.622712 0
M  V30 2731 H 290.261 1.2617 1.61066 0
M  V30 2732 H 290.271 0.768553 4.00696 0
M  V30 2733 H 288.946 1.88171 3.70897 0
M  V30 2734 H 287.523 0.0503508 3.72866 0
M  V30 2735 N 289.708 -1.40897 0.706093 0
M  V30 2736 C 291.119 -1.84023 0.315052 0
M  V30 2737 C 291.47 -1.5906 -1.14866 0
M  V30 2738 O 290.595 -1.06651 -1.88293 0
M  V30 2739 C 291.19 -3.34055 0.565038 0
M  V30 2740 C 289.749 -3.7571 0.227806 0
M  V30 2741 C 288.896 -2.64204 0.842122 0
M  V30 2742 H 291.847 -1.303 0.905963 0
M  V30 2743 H 291.868 -3.80107 -0.172843 0
M  V30 2744 H 291.38 -3.52192 1.63042 0
M  V30 2745 H 289.481 -3.63172 -0.832895 0
M  V30 2746 H 289.594 -4.74103 0.690174 0
M  V30 2747 H 287.958 -2.53255 0.270893 0
M  V30 2748 H 288.741 -2.85155 1.91158 0
M  V30 2749 N 291.186 -0.45159 -1.50991 0
M  V30 2750 C 292.411 0.110667 -2.07105 0
M  V30 2751 C 292.836 1.3446 -1.31538 0
M  V30 2752 O 292.194 1.77743 -0.357365 0
M  V30 2753 C 292.242 0.397238 -3.58405 0
M  V30 2754 O 291.346 1.48124 -3.84881 0
M  V30 2755 H 290.687 -0.00439271 -0.663985 0
M  V30 2756 H 293.217 -0.637026 -1.9443 0
M  V30 2757 H 293.227 0.64351 -4.02893 0
M  V30 2758 H 291.902 -0.504553 -4.12828 0
M  V30 2759 H 290.479 1.22381 -3.52246 0
M  V30 2760 N 292.664 1.56529 -0.183458 0
M  V30 2761 C 294.075 1.83739 0.331177 0
M  V30 2762 C 294.426 1.10373 1.62211 0
M  V30 2763 O 293.551 0.36071 2.13373 0
M  V30 2764 C 294.146 3.33306 0.607646 0
M  V30 2765 C 292.705 3.60969 1.06668 0
M  V30 2766 C 291.852 2.77086 0.109029 0
M  V30 2767 H 294.803 1.53379 -0.407484 0
M  V30 2768 H 294.824 3.51444 1.45832 0
M  V30 2769 H 294.336 3.86677 -0.332086 0
M  V30 2770 H 292.437 3.13021 2.0211 0
M  V30 2771 H 292.55 4.69231 0.967447 0
M  V30 2772 H 290.914 2.47319 0.608714 0
M  V30 2773 H 291.697 3.33241 -0.82494 0
M  V30 2774 N 294.142 -0.090211 1.57342 0
M  V30 2775 C 295.367 -0.810082 1.90925 0
M  V30 2776 C 295.792 -1.71248 0.778187 0
M  V30 2777 O 295.15 -1.79278 -0.269991 0
M  V30 2778 C 295.198 -1.59529 3.23393 0
M  V30 2779 O 294.302 -2.70461 3.11327 0
M  V30 2780 H 293.643 -0.222231 0.625707 0
M  V30 2781 H 296.173 -0.0639716 2.045 0
M  V30 2782 H 296.183 -1.97847 3.5682 0
M  V30 2783 H 294.858 -0.933055 4.05299 0
M  V30 2784 H 293.435 -2.35135 2.89423 0
M  V30 2785 N 295.62 -1.53406 -0.361157 0
M  V30 2786 C 297.031 -1.61442 -0.937728 0
M  V30 2787 C 297.382 -0.48461 -1.90121 0
M  V30 2788 O 296.507 0.388312 -2.12888 0
M  V30 2789 C 297.102 -2.92624 -1.70753 0
M  V30 2790 C 295.661 -3.02981 -2.23337 0
M  V30 2791 C 294.808 -2.5677 -1.04712 0
M  V30 2792 H 297.759 -1.58083 -0.139816 0
M  V30 2793 H 297.78 -2.80675 -2.56908 0
M  V30 2794 H 297.292 -3.74834 -1.00604 0
M  V30 2795 H 295.393 -2.25368 -2.96715 0
M  V30 2796 H 295.506 -4.0814 -2.50916 0
M  V30 2797 H 293.87 -2.11752 -1.41539 0
M  V30 2798 H 294.653 -3.41402 -0.360539 0
M  V30 2799 N 297.098 0.621204 -1.44841 0
M  V30 2800 C 298.323 1.41244 -1.51871 0
M  V30 2801 C 298.748 1.87519 -0.147764 0
M  V30 2802 O 298.106 1.59334 0.865 0
M  V30 2803 C 298.154 2.60221 -2.49634 0
M  V30 2804 O 297.258 3.60395 -2.00473 0
M  V30 2805 H 296.599 0.42223 -0.512463 0
M  V30 2806 H 299.129 0.757305 -1.90069 0
M  V30 2807 H 299.139 3.0764 -2.67996 0
M  V30 2808 H 297.814 2.25887 -3.4921 0
M  V30 2809 H 296.391 3.19717 -1.91925 0
M  V30 2810 N 298.576 1.31904 0.862503 0
M  V30 2811 C 299.987 1.19803 1.43193 0
M  V30 2812 C 300.338 -0.192567 1.95253 0
M  V30 2813 O 299.463 -1.09081 1.86896 0
M  V30 2814 C 300.058 2.16883 2.60283 0
M  V30 2815 C 298.617 2.08692 3.13248 0
M  V30 2816 C 297.764 2.05691 1.85975 0
M  V30 2817 H 300.715 1.43846 0.670365 0
M  V30 2818 H 300.736 1.76278 3.37204 0
M  V30 2819 H 300.248 3.18083 2.22363 0
M  V30 2820 H 298.349 1.10713 3.55771 0
M  V30 2821 H 298.462 2.9815 3.75025 0
M  V30 2822 H 296.826 1.50814 2.05249 0
M  V30 2823 H 297.609 3.08659 1.50282 0
M  V30 2824 N 300.054 -1.07777 1.14986 0
M  V30 2825 C 301.279 -1.84558 0.946213 0
M  V30 2826 C 301.704 -1.81323 -0.500362 0
M  V30 2827 O 301.062 -1.20301 -1.35637 0
M  V30 2828 C 301.11 -3.29736 1.45968 0
M  V30 2829 O 300.214 -4.07149 0.65601 0
M  V30 2830 H 299.555 -0.571641 0.33782 0
M  V30 2831 H 302.085 -1.35991 1.52865 0
M  V30 2832 H 302.095 -3.80574 1.47063 0
M  V30 2833 H 300.77 -3.31406 2.51283 0
M  V30 2834 H 299.347 -3.65994 0.714322 0
M  V30 2835 N 301.532 -0.945985 -1.26051 0
M  V30 2836 C 302.943 -0.638096 -1.75457 0
M  V30 2837 C 303.294 0.846672 -1.76991 0
M  V30 2838 O 302.419 1.66262 -1.38513 0
M  V30 2839 C 303.014 -1.15157 -3.18629 0
M  V30 2840 C 301.573 -0.894004 -3.65629 0
M  V30 2841 C 300.72 -1.29967 -2.44957 0
M  V30 2842 H 303.671 -1.12376 -1.1206 0
M  V30 2843 H 303.692 -0.507615 -3.77099 0
M  V30 2844 H 303.204 -2.23222 -3.1748 0
M  V30 2845 H 301.305 0.172057 -3.72203 0
M  V30 2846 H 301.418 -1.52439 -4.54202 0
M  V30 2847 H 299.782 -0.718078 -2.44368 0
M  V30 2848 H 300.565 -2.38935 -2.46505 0
M  V30 2849 N 303.011 1.40521 -0.713556 0
M  V30 2850 C 304.427 1.54839 -0.386907 0
M  V30 2851 C 304.627 1.68532 1.1045 0
M  V30 2852 O 303.683 1.67377 1.89053 0
M  V30 2853 C 304.996 2.77792 -1.15118 0
M  V30 2854 C 306.544 2.91607 -1.13729 0
M  V30 2855 C 307.019 4.1747 -1.88368 0
M  V30 2856 N 308.51 4.24466 -1.85427 0
M  V30 2857 C 309.245 5.20755 -2.40004 0
M  V30 2858 N 308.741 6.22965 -3.03129 0
M  V30 2859 N 310.534 5.1282 -2.30158 0
M  V30 2860 H 302.685 1.29879 -1.68063 0
M  V30 2861 H 304.948 0.627896 -0.710247 0
M  V30 2862 H 304.654 2.73944 -2.20561 0
M  V30 2863 H 304.528 3.6984 -0.741477 0
M  V30 2864 H 306.915 2.94959 -0.0910608 0
M  V30 2865 H 306.996 2.00682 -1.5862 0
M  V30 2866 H 306.64 4.1488 -2.9298 0
M  V30 2867 H 306.57 5.074 -1.40898 0
M  V30 2868 H 309.061 3.51241 -1.3942 0
M  V30 2869 H 309.374 6.92859 -3.42295 0
M  V30 2870 H 307.719 6.23415 -3.07212 0
M  V30 2871 H 310.91 4.31899 -1.80501 0
M  V30 2872 H 311.083 5.87689 -2.72993 0
M  V30 2873 N 304.489 0.459591 1.5075 0
M  V30 2874 C 305.717 -0.0973749 2.06671 0
M  V30 2875 C 306.132 -1.34524 1.32472 0
M  V30 2876 O 305.489 -1.7827 0.390634 0
M  V30 2877 C 305.54 -0.39714 3.59312 0
M  V30 2878 O 305.261 0.801214 4.30711 0
M  V30 2879 C 306.762 -1.00234 4.31819 0
M  V30 2880 H 303.982 0.00195854 0.670997 0
M  V30 2881 H 306.526 0.645072 1.94059 0
M  V30 2882 H 304.681 -1.08951 3.71764 0
M  V30 2883 H 305.095 0.538857 5.21725 0
M  V30 2884 H 306.569 -1.16193 5.39632 0
M  V30 2885 H 307.046 -1.98939 3.91561 0
M  V30 2886 H 307.652 -0.348699 4.23868 0
M  V30 2887 N 305.967 -1.56429 0.191757 0
M  V30 2888 C 307.378 -1.83912 -0.321428 0
M  V30 2889 C 307.729 -1.11231 -1.61623 0
M  V30 2890 O 306.854 -0.37202 -2.13178 0
M  V30 2891 C 307.449 -3.33624 -0.589961 0
M  V30 2892 C 306.008 -3.6153 -1.04753 0
M  V30 2893 C 305.155 -2.7714 -0.0943327 0
M  V30 2894 H 308.106 -1.53161 0.415612 0
M  V30 2895 H 308.127 -3.52213 -1.43966 0
M  V30 2896 H 307.639 -3.86495 0.352588 0
M  V30 2897 H 305.74 -3.14089 -2.00447 0
M  V30 2898 H 305.853 -4.69737 -0.942549 0
M  V30 2899 H 304.217 -2.47638 -0.595589 0
M  V30 2900 H 305 -3.32799 0.842601 0
M  V30 2901 N 307.445 0.0818655 -1.57387 0
M  V30 2902 C 308.378 1.12986 -1.98266 0
M  V30 2903 C 309.356 1.38123 -0.857954 0
M  V30 2904 O 310.54 1.51663 -1.1194 0
M  V30 2905 C 307.667 2.47632 -2.31076 0
M  V30 2906 C 306.713 2.38693 -3.53452 0
M  V30 2907 S 307.546 1.79071 -5.04672 0
M  V30 2908 C 308.702 3.15316 -5.40673 0
M  V30 2909 H 308.935 0.781435 -2.86846 0
M  V30 2910 H 306.468 0.290034 -1.51651 0
M  V30 2911 H 308.426 3.25089 -2.50654 0
M  V30 2912 H 307.087 2.79638 -1.43043 0
M  V30 2913 H 306.28 3.37964 -3.73893 0
M  V30 2914 H 305.882 1.69369 -3.33452 0
M  V30 2915 H 308.174 4.11613 -5.38127 0
M  V30 2916 H 309.117 2.99664 -6.41566 0
M  V30 2917 H 309.525 3.15457 -4.68132 0
M  V30 2918 N 308.923 1.53595 0.353017 0
M  V30 2919 C 310.148 1.7462 1.11904 0
M  V30 2920 C 310.573 0.479721 1.8188 0
M  V30 2921 O 309.931 -0.567066 1.72204 0
M  V30 2922 C 309.979 2.92029 2.11545 0
M  V30 2923 O 309.083 2.61516 3.18878 0
M  V30 2924 H 308.424 0.579531 0.324099 0
M  V30 2925 H 310.954 2.00525 0.406301 0
M  V30 2926 H 310.964 3.18551 2.5493 0
M  V30 2927 H 309.639 3.83888 1.60008 0
M  V30 2928 H 308.216 2.45852 2.80377 0
M  V30 2929 N 310.401 -0.613514 1.45168 0
M  V30 2930 C 311.647 -1.37279 1.50087 0
M  V30 2931 C 312.002 -1.91902 0.138294 0
M  V30 2932 O 311.295 -1.71764 -0.84899 0
M  V30 2933 C 311.489 -2.54347 2.51083 0
M  V30 2934 C 311.318 -2.11186 3.97027 0
M  V30 2935 C 310.088 -1.97636 4.65046 0
M  V30 2936 C 312.286 -1.69016 4.85735 0
M  V30 2937 N 310.268 -1.48224 5.95737 0
M  V30 2938 C 311.639 -1.30976 6.06008 0
M  V30 2939 C 313.694 -1.56555 4.72647 0
M  V30 2940 C 312.397 -0.817197 7.14643 0
M  V30 2941 C 314.423 -1.08702 5.81324 0
M  V30 2942 C 313.785 -0.716233 7.00749 0
M  V30 2943 H 309.884 -0.496478 0.60418 0
M  V30 2944 H 312.468 -0.701988 1.81605 0
M  V30 2945 H 310.639 -3.19031 2.21527 0
M  V30 2946 H 312.371 -3.21208 2.46187 0
M  V30 2947 H 309.126 -2.18638 4.20112 0
M  V30 2948 H 309.55 -1.25767 6.65216 0
M  V30 2949 H 314.192 -1.83849 3.80736 0
M  V30 2950 H 311.91 -0.531797 8.06348 0
M  V30 2951 H 315.496 -0.994943 5.7323 0
M  V30 2952 H 314.376 -0.351642 7.83411 0
M  V30 2953 N 311.879 -1.3236 -0.855495 0
M  V30 2954 C 313.104 -1.2601 -1.64731 0
M  V30 2955 C 313.529 0.169068 -1.87339 0
M  V30 2956 O 312.887 1.12016 -1.42556 0
M  V30 2957 C 312.935 -2.02417 -2.98429 0
M  V30 2958 O 312.039 -1.3714 -3.8893 0
M  V30 2959 H 311.38 -0.434325 -0.502253 0
M  V30 2960 H 313.91 -1.74661 -1.06558 0
M  V30 2961 H 313.92 -2.12559 -3.48257 0
M  V30 2962 H 312.595 -3.06343 -2.81295 0
M  V30 2963 H 311.172 -1.3554 -3.47395 0
M  V30 2964 N 313.357 1.07166 -1.15556 0
M  V30 2965 C 314.773 1.31899 -0.898603 0
M  V30 2966 C 314.973 1.96333 0.453383 0
M  V30 2967 O 314.029 2.22438 1.19489 0
M  V30 2968 C 315.342 2.20826 -2.04099 0
M  V30 2969 C 316.89 2.34269 -2.07574 0
M  V30 2970 C 317.365 3.26546 -3.21141 0
M  V30 2971 N 318.856 3.34127 -3.20801 0
M  V30 2972 C 319.591 4.05595 -4.05315 0
M  V30 2973 N 319.087 4.79661 -4.99897 0
M  V30 2974 N 320.88 4.01555 -3.93332 0
M  V30 2975 H 313.031 0.637302 -2.02613 0
M  V30 2976 H 315.294 0.343468 -0.883591 0
M  V30 2977 H 315 1.80744 -3.01703 0
M  V30 2978 H 314.874 3.21364 -1.97496 0
M  V30 2979 H 317.261 2.73603 -1.10568 0
M  V30 2980 H 317.342 1.33429 -2.18244 0
M  V30 2981 H 316.986 2.87931 -4.184 0
M  V30 2982 H 316.916 4.27345 -3.07708 0
M  V30 2983 H 319.407 2.81336 -2.52306 0
M  V30 2984 H 319.72 5.31694 -5.60822 0
M  V30 2985 H 318.065 4.78671 -5.03884 0
M  V30 2986 H 321.256 3.42806 -3.18751 0
M  V30 2987 H 321.429 4.56987 -4.5942 0
M  V30 2988 N 314.835 0.952656 1.25548 0
M  V30 2989 C 316.084 0.602053 1.92505 0
M  V30 2990 C 316.397 -0.864663 1.75451 0
M  V30 2991 O 317.603 -1.32514 2.36965 0
M  V30 2992 C 316.059 1.02607 3.44963 0
M  V30 2993 C 315.667 2.51519 3.70732 0
M  V30 2994 C 317.411 0.747905 4.1786 0
M  V30 2995 C 315.318 2.87732 5.16686 0
M  V30 2996 H 314.248 0.22146 0.720744 0
M  V30 2997 H 316.899 1.15684 1.42441 0
M  V30 2998 H 315.281 0.399712 3.93978 0
M  V30 2999 H 316.455 3.19157 3.32378 0
M  V30 3000 H 314.77 2.76786 3.11092 0
M  V30 3001 H 317.367 0.994647 5.25367 0
M  V30 3002 H 317.71 -0.315629 4.15102 0
M  V30 3003 H 318.243 1.33452 3.74747 0
M  V30 3004 H 314.982 3.93095 5.24554 0
M  V30 3005 H 314.502 2.24765 5.56094 0
M  V30 3006 H 316.181 2.76817 5.84792 0
M  V30 3007 N 316.313 -1.40141 0.720998 0
M  V30 3008 C 317.26 -2.30688 0.071919 0
M  V30 3009 C 318.23 -1.48476 -0.744584 0
M  V30 3010 O 319.415 -1.77201 -0.707423 0
M  V30 3011 C 316.555 -3.34724 -0.839855 0
M  V30 3012 C 315.668 -4.31998 -0.0122438 0
M  V30 3013 C 314.803 -5.23102 -0.923995 0
M  V30 3014 C 313.842 -6.12033 -0.0907969 0
M  V30 3015 N 312.979 -6.95537 -0.957718 0
M  V30 3016 H 317.819 -2.85628 0.849755 0
M  V30 3017 H 315.356 -1.40653 0.430726 0
M  V30 3018 H 317.314 -3.93618 -1.38279 0
M  V30 3019 H 315.944 -2.81274 -1.58381 0
M  V30 3020 H 314.996 -3.74841 0.64794 0
M  V30 3021 H 316.308 -4.94772 0.632595 0
M  V30 3022 H 315.462 -5.86953 -1.53527 0
M  V30 3023 H 314.201 -4.60615 -1.60264 0
M  V30 3024 H 313.206 -5.47207 0.533377 0
M  V30 3025 H 314.431 -6.76581 0.584428 0
M  V30 3026 H 312.377 -6.35633 -1.62192 0
M  V30 3027 H 312.294 -7.55099 -0.36904 0
M  V30 3028 H 313.562 -7.63832 -1.555 0
M  V30 3029 N 317.792 -0.46758 -1.50504 0
M  V30 3030 C 318.739 0.328413 -2.28452 0
M  V30 3031 C 319.709 0.990313 -1.33349 0
M  V30 3032 O 320.894 1.00343 -1.62284 0
M  V30 3033 C 318.034 1.40648 -3.15138 0
M  V30 3034 C 317.147 0.759709 -4.25267 0
M  V30 3035 C 316.282 1.81537 -4.99217 0
M  V30 3036 C 315.321 1.14866 -6.01226 0
M  V30 3037 N 314.458 2.14702 -6.68467 0
M  V30 3038 H 319.298 -0.342603 -2.96024 0
M  V30 3039 H 316.835 -0.180801 -1.45985 0
M  V30 3040 H 318.793 2.04315 -3.63746 0
M  V30 3041 H 317.423 2.04671 -2.49619 0
M  V30 3042 H 316.475 0.0105671 -3.80399 0
M  V30 3043 H 317.787 0.233243 -4.98254 0
M  V30 3044 H 316.941 2.52793 -5.51526 0
M  V30 3045 H 315.68 2.37564 -4.25928 0
M  V30 3046 H 314.685 0.42171 -5.4818 0
M  V30 3047 H 315.91 0.595334 -6.76485 0
M  V30 3048 H 313.856 2.69752 -5.97972 0
M  V30 3049 H 313.773 1.6703 -7.37317 0
M  V30 3050 H 315.041 2.85348 -7.25394 0
M  V30 3051 N 319.27 1.56325 -0.20005 0
M  V30 3052 C 320.519 1.96895 0.437652 0
M  V30 3053 C 320.832 1.08999 1.62415 0
M  V30 3054 O 322.038 1.39372 2.32997 0
M  V30 3055 C 320.494 3.50198 0.830025 0
M  V30 3056 C 320.102 4.46765 -0.332461 0
M  V30 3057 C 321.846 3.99526 1.43453 0
M  V30 3058 C 319.753 5.91344 0.0811468 0
M  V30 3059 H 318.683 0.735209 0.167282 0
M  V30 3060 H 321.334 1.81148 -0.292853 0
M  V30 3061 H 319.716 3.61467 1.61734 0
M  V30 3062 H 320.89 4.47231 -1.11 0
M  V30 3063 H 319.205 4.07657 -0.848789 0
M  V30 3064 H 321.802 5.05025 1.75652 0
M  V30 3065 H 322.145 3.44122 2.34277 0
M  V30 3066 H 322.678 3.91393 0.71109 0
M  V30 3067 H 319.417 6.50685 -0.793033 0
M  V30 3068 H 318.937 5.94121 0.823445 0
M  V30 3069 H 320.616 6.44945 0.515252 0
M  V30 3070 N 320.748 -0.0735177 1.57428 0
M  V30 3071 C 321.678 -1.0879 2.06608 0
M  V30 3072 C 322.659 -1.40473 0.959237 0
M  V30 3073 O 323.844 -1.5013 1.23185 0
M  V30 3074 C 320.974 -2.40183 2.50857 0
M  V30 3075 C 319.928 -2.22858 3.65402 0
M  V30 3076 C 319.254 -3.59619 3.957 0
M  V30 3077 C 320.554 -1.65123 4.95511 0
M  V30 3078 H 322.248 -0.678673 2.91607 0
M  V30 3079 H 319.794 -0.325013 1.40284 0
M  V30 3080 H 321.747 -3.11437 2.83874 0
M  V30 3081 H 320.471 -2.83083 1.62885 0
M  V30 3082 H 319.13 -1.54045 3.32664 0
M  V30 3083 H 318.778 -4.00086 3.04861 0
M  V30 3084 H 318.478 -3.48866 4.72828 0
M  V30 3085 H 320.002 -4.32306 4.31212 0
M  V30 3086 H 321.416 -2.26241 5.26771 0
M  V30 3087 H 319.813 -1.65071 5.7695 0
M  V30 3088 H 320.883 -0.612559 4.81015 0
M  V30 3089 N 322.226 -1.5378 -0.344866 0
M  V30 3090 C 323.173 -1.81676 -1.42346 0
M  V30 3091 C 324.143 -0.662376 -1.52321 0
M  V30 3092 O 325.328 -0.906675 -1.67881 0
M  V30 3093 C 322.468 -2.03087 -2.79015 0
M  V30 3094 C 321.581 -3.30799 -2.77842 0
M  V30 3095 C 320.716 -3.42285 -4.0622 0
M  V30 3096 C 319.755 -4.6395 -3.9927 0
M  V30 3097 N 318.892 -4.72477 -5.19336 0
M  V30 3098 H 323.732 -2.73703 -1.17858 0
M  V30 3099 H 321.269 -1.35568 -0.570949 0
M  V30 3100 H 323.227 -2.1349 -3.58438 0
M  V30 3101 H 321.857 -1.14375 -3.01858 0
M  V30 3102 H 320.909 -3.29244 -1.90533 0
M  V30 3103 H 322.221 -4.20314 -2.68584 0
M  V30 3104 H 321.375 -3.52113 -4.94066 0
M  V30 3105 H 320.114 -2.50823 -4.18258 0
M  V30 3106 H 319.119 -4.54201 -3.09809 0
M  V30 3107 H 320.344 -5.56775 -3.88817 0
M  V30 3108 H 318.29 -3.83924 -5.3192 0
M  V30 3109 H 318.207 -5.55927 -5.12329 0
M  V30 3110 H 319.475 -4.86613 -6.08957 0
M  V30 3111 N 323.704 0.605807 -1.45491 0
M  V30 3112 C 324.614 1.74466 -1.56839 0
M  V30 3113 C 325.63 1.68006 -0.452772 0
M  V30 3114 O 326.806 1.8833 -0.713708 0
M  V30 3115 C 323.871 3.10931 -1.53371 0
M  V30 3116 C 322.932 3.28832 -2.75986 0
M  V30 3117 C 322.165 4.58787 -2.72673 0
M  V30 3118 O 322.388 5.4122 -1.80102 0
M  V30 3119 O 321.322 4.79438 -3.63899 0
M  V30 3120 H 325.148 1.67843 -2.53106 0
M  V30 3121 H 322.733 0.770108 -1.28022 0
M  V30 3122 H 324.615 3.92233 -1.54051 0
M  V30 3123 H 323.29 3.18042 -0.602572 0
M  V30 3124 H 322.197 2.47112 -2.80867 0
M  V30 3125 H 323.53 3.26599 -3.68231 0
M  V30 3126 N 325.182 1.32811 0.848464 0
M  V30 3127 C 326.43 1.23479 1.59991 0
M  V30 3128 C 326.751 -0.201853 1.93952 0
M  V30 3129 O 326.021 -1.12818 1.60153 0
M  V30 3130 H 324.601 0.454034 0.593179 0
M  V30 3131 H 327.263 1.66412 1.01455 0
M  V30 3132 H 326.359 1.82178 2.53412 0
M  V30 3133 N 326.66 -1.06551 1.16123 0
M  V30 3134 C 328.071 -1.60768 0.949232 0
M  V30 3135 C 328.422 -1.89523 -0.507508 0
M  V30 3136 O 327.547 -1.66671 -1.38021 0
M  V30 3137 C 328.142 -2.92086 1.71671 0
M  V30 3138 C 326.701 -3.43015 1.54977 0
M  V30 3139 C 325.848 -2.16947 1.72711 0
M  V30 3140 H 328.799 -0.895354 1.31031 0
M  V30 3141 H 328.82 -3.6138 1.19099 0
M  V30 3142 H 328.332 -2.71127 2.7769 0
M  V30 3143 H 326.433 -3.69039 0.513873 0
M  V30 3144 H 326.546 -4.18516 2.33198 0
M  V30 3145 H 324.91 -2.27041 1.15431 0
M  V30 3146 H 325.693 -1.98473 2.80113 0
M  V30 3147 N 328.138 -0.959301 -1.25041 0
M  V30 3148 C 329.071 -0.427418 -2.24161 0
M  V30 3149 C 330.049 0.493837 -1.54919 0
M  V30 3150 O 331.233 0.427144 -1.83597 0
M  V30 3151 C 328.36 0.383893 -3.36517 0
M  V30 3152 C 327.406 -0.478431 -4.23808 0
M  V30 3153 S 328.239 -1.91353 -5.00144 0
M  V30 3154 C 329.395 -1.11077 -6.15965 0
M  V30 3155 H 329.628 -1.26743 -2.6893 0
M  V30 3156 H 327.161 -0.763714 -1.34189 0
M  V30 3157 H 329.119 0.846039 -4.01687 0
M  V30 3158 H 327.78 1.19878 -2.90324 0
M  V30 3159 H 326.973 0.14406 -5.03794 0
M  V30 3160 H 326.575 -0.87597 -3.63597 0
M  V30 3161 H 328.867 -0.361699 -6.76534 0
M  V30 3162 H 329.81 -1.88472 -6.82557 0
M  V30 3163 H 330.218 -0.638843 -5.60873 0
M  V30 3164 N 329.616 1.39756 -0.72842 0
M  V30 3165 C 330.546 2.33289 -0.0991354 0
M  V30 3166 C 331.527 1.53568 0.731489 0
M  V30 3167 O 332.712 1.81987 0.677807 0
M  V30 3168 C 329.842 3.3763 0.813834 0
M  V30 3169 C 328.796 4.2791 0.0878663 0
M  V30 3170 C 328.122 5.22894 1.11741 0
M  V30 3171 C 329.422 5.11314 -1.06563 0
M  V30 3172 H 331.116 2.86163 -0.880408 0
M  V30 3173 H 328.662 1.37591 -0.424819 0
M  V30 3174 H 330.615 4.0201 1.26355 0
M  V30 3175 H 329.339 2.83181 1.62715 0
M  V30 3176 H 327.998 3.65 -0.342159 0
M  V30 3177 H 327.646 4.64744 1.92412 0
M  V30 3178 H 327.346 5.84143 0.636477 0
M  V30 3179 H 328.87 5.90151 1.56697 0
M  V30 3180 H 330.284 5.69076 -0.694671 0
M  V30 3181 H 328.681 5.81671 -1.47577 0
M  V30 3182 H 329.751 4.46534 -1.89038 0
M  V30 3183 N 331.094 0.475555 1.50254 0
M  V30 3184 C 332.041 -0.316293 2.28622 0
M  V30 3185 C 333.011 -0.983227 1.33873 0
M  V30 3186 O 334.196 -0.994805 1.62814 0
M  V30 3187 C 331.336 -1.38975 3.1588 0
M  V30 3188 C 330.449 -0.737146 4.25664 0
M  V30 3189 C 329.584 -1.78887 5.00173 0
M  V30 3190 C 328.623 -1.11676 6.01826 0
M  V30 3191 N 327.76 -2.11154 6.69596 0
M  V30 3192 H 332.6 0.358297 2.95838 0
M  V30 3193 H 330.137 0.188541 1.45887 0
M  V30 3194 H 332.095 -2.02383 3.64825 0
M  V30 3195 H 330.725 -2.03344 2.50701 0
M  V30 3196 H 329.777 0.0096065 3.80399 0
M  V30 3197 H 331.089 -0.206816 4.98371 0
M  V30 3198 H 330.243 -2.49865 5.52859 0
M  V30 3199 H 328.982 -2.35302 4.27182 0
M  V30 3200 H 327.987 -0.392633 5.48396 0
M  V30 3201 H 329.212 -0.55945 6.76792 0
M  V30 3202 H 327.158 -2.66577 5.99394 0
M  V30 3203 H 327.075 -1.63118 7.38193 0
M  V30 3204 H 328.343 -2.81497 7.26897 0
M  V30 3205 N 332.573 -1.56217 0.208337 0
M  V30 3206 C 333.521 -2.21053 -0.723769 0
M  V30 3207 C 334.515 -1.18578 -1.20978 0
M  V30 3208 O 335.721 -1.36691 -1.17114 0
M  V30 3209 H 332.096 -0.708595 -0.251788 0
M  V30 3210 H 334.067 -2.98006 -0.153365 0
M  V30 3211 C 332.816 -2.89417 -1.927 0
M  V30 3212 H 332.139 -3.68019 -1.56212 0
M  V30 3213 H 333.579 -3.38201 -2.55727 0
M  V30 3214 C 332.038 -1.91166 -2.77411 0
M  V30 3215 O 332.568 -1.42026 -3.75754 0
M  V30 3216 N 330.774 -1.59105 -2.43175 0
M  V30 3217 H 330.321 -1.99259 -1.63259 0
M  V30 3218 H 330.279 -0.936255 -3.00136 0
M  V30 3219 N 334.051 0.0651679 -1.57465 0
M  V30 3220 C 335.291 0.768329 -1.8941 0
M  V30 3221 C 335.655 1.74406 -0.802894 0
M  V30 3222 O 336.856 2.49281 -1.0056 0
M  V30 3223 C 335.127 1.45199 -3.26576 0
M  V30 3224 S 336.686 2.1893 -3.80283 0
M  V30 3225 H 333.504 0.255359 -0.663561 0
M  V30 3226 H 336.106 0.024167 -1.95485 0
M  V30 3227 H 334.81 0.728123 -4.03889 0
M  V30 3228 H 334.341 2.23545 -3.23715 0
M  V30 3229 H 336.356 3.45551 -3.56102 0
M  V30 3230 N 335.529 1.53961 0.336706 0
M  V30 3231 C 336.477 1.83136 1.43401 0
M  V30 3232 C 337.471 0.702313 1.54156 0
M  V30 3233 O 338.677 0.885765 1.56698 0
M  V30 3234 H 335.052 0.580309 0.478273 0
M  V30 3235 H 337.023 2.74925 1.16012 0
M  V30 3236 C 335.772 2.06385 2.79822 0
M  V30 3237 H 335.095 2.92718 2.72316 0
M  V30 3238 H 336.535 2.30761 3.55704 0
M  V30 3239 C 334.994 0.851414 3.25964 0
M  V30 3240 O 335.524 0.0541904 4.01663 0
M  V30 3241 N 333.73 0.66672 2.82848 0
M  V30 3242 H 333.277 1.31665 2.21409 0
M  V30 3243 H 333.235 -0.143032 3.14074 0
M  V30 3244 N 337.007 -0.598083 1.45811 0
M  V30 3245 C 338.232 -1.3881 1.54099 0
M  V30 3246 C 338.657 -1.8726 0.177578 0
M  V30 3247 O 338.015 -1.6069 -0.839541 0
M  V30 3248 C 338.063 -2.56217 2.53743 0
M  V30 3249 O 337.167 -3.5716 2.06182 0
M  V30 3250 H 336.508 -0.414024 0.519115 0
M  V30 3251 H 339.038 -0.726971 1.91249 0
M  V30 3252 H 339.048 -3.03337 2.72856 0
M  V30 3253 H 337.723 -2.20303 3.5276 0
M  V30 3254 H 336.3 -3.16624 1.96987 0
M  V30 3255 N 338.485 -1.33259 -0.841409 0
M  V30 3256 C 339.732 -1.24572 -1.5965 0
M  V30 3257 C 340.06 0.189137 -1.93578 0
M  V30 3258 O 339.315 1.14566 -1.5866 0
M  V30 3259 C 339.614 -2.06381 -2.9179 0
M  V30 3260 C 339.28 -3.556 -2.77235 0
M  V30 3261 C 337.942 -3.96282 -2.72973 0
M  V30 3262 C 340.294 -4.50433 -2.62221 0
M  V30 3263 C 337.622 -5.30017 -2.51592 0
M  V30 3264 C 339.974 -5.84327 -2.42374 0
M  V30 3265 C 338.638 -6.24194 -2.36512 0
M  V30 3266 H 337.908 -0.455842 -0.5842 0
M  V30 3267 H 340.555 -1.6482 -0.975016 0
M  V30 3268 H 338.86 -1.58903 -3.5813 0
M  V30 3269 H 340.557 -1.97019 -3.49263 0
M  V30 3270 H 337.147 -3.23298 -2.81384 0
M  V30 3271 H 341.331 -4.19914 -2.64549 0
M  V30 3272 H 336.587 -5.59947 -2.45499 0
M  V30 3273 H 340.761 -6.57414 -2.29739 0
M  V30 3274 H 338.388 -7.27759 -2.19706 0
M  V30 3275 N 339.963 1.05934 -1.16686 0
M  V30 3276 C 340.91 2.13499 -0.876748 0
M  V30 3277 C 341.88 1.65162 0.176299 0
M  V30 3278 O 343.065 1.90757 0.0407143 0
M  V30 3279 C 340.205 3.42912 -0.387967 0
M  V30 3280 C 339.318 4.04964 -1.50426 0
M  V30 3281 C 338.453 5.22266 -0.970125 0
M  V30 3282 C 337.492 5.76309 -2.06238 0
M  V30 3283 N 336.629 6.84922 -1.54356 0
M  V30 3284 H 341.469 2.37654 -1.7979 0
M  V30 3285 H 339.006 1.16598 -0.896843 0
M  V30 3286 H 340.964 4.17111 -0.086186 0
M  V30 3287 H 339.594 3.18963 0.496235 0
M  V30 3288 H 338.646 3.28277 -1.92193 0
M  V30 3289 H 339.958 4.41122 -2.32836 0
M  V30 3290 H 339.112 6.03506 -0.621743 0
M  V30 3291 H 337.851 4.87564 -0.115377 0
M  V30 3292 H 336.856 4.93704 -2.41942 0
M  V30 3293 H 338.081 6.13062 -2.92115 0
M  V30 3294 H 336.027 6.52131 -0.711406 0
M  V30 3295 H 335.944 7.20043 -2.30379 0
M  V30 3296 H 337.212 7.69832 -1.22387 0
M  V30 3297 N 341.441 0.965919 1.2453 0
M  V30 3298 C 342.857 0.67216 1.44756 0
M  V30 3299 C 343.057 -0.766609 1.86347 0
M  V30 3300 O 342.113 -1.5407 2.00047 0
M  V30 3301 C 343.426 1.65473 2.51076 0
M  V30 3302 C 344.974 1.66716 2.64905 0
M  V30 3303 C 345.449 2.63766 3.74421 0
M  V30 3304 N 346.94 2.62198 3.81846 0
M  V30 3305 C 347.675 3.33966 4.66106 0
M  V30 3306 N 347.171 4.15245 5.54566 0
M  V30 3307 N 348.964 3.22799 4.60171 0
M  V30 3308 H 341.115 1.89553 0.958293 0
M  V30 3309 H 343.378 0.815979 0.482579 0
M  V30 3310 H 343.084 2.68296 2.27399 0
M  V30 3311 H 342.958 1.4261 3.49202 0
M  V30 3312 H 345.345 0.646057 2.87941 0
M  V30 3313 H 345.426 1.93642 1.67142 0
M  V30 3314 H 345.07 3.6601 3.52135 0
M  V30 3315 H 345 2.34121 4.71694 0
M  V30 3316 H 347.491 2.032 3.18619 0
M  V30 3317 H 347.804 4.66898 6.15814 0
M  V30 3318 H 346.149 4.1934 5.54237 0
M  V30 3319 H 349.34 2.58764 3.90075 0
M  V30 3320 H 349.513 3.78994 5.25612 0
M  V30 3321 N 342.919 -1.39368 0.735821 0
M  V30 3322 C 344.165 -2.01272 0.293439 0
M  V30 3323 C 344.52 -1.57344 -1.10728 0
M  V30 3324 O 343.813 -0.792744 -1.74431 0
M  V30 3325 C 344.007 -3.5583 0.334651 0
M  V30 3326 C 343.836 -4.14764 1.73784 0
M  V30 3327 C 342.606 -4.47315 2.35026 0
M  V30 3328 C 344.804 -4.38246 2.69157 0
M  V30 3329 N 342.786 -4.91756 3.6749 0
M  V30 3330 C 344.157 -4.849 3.86357 0
M  V30 3331 C 346.212 -4.20315 2.66908 0
M  V30 3332 C 344.915 -5.15505 5.01645 0
M  V30 3333 C 346.941 -4.52033 3.8134 0
M  V30 3334 C 346.303 -4.98895 4.97276 0
M  V30 3335 H 342.402 -0.766756 0.153652 0
M  V30 3336 H 344.986 -1.69276 0.961967 0
M  V30 3337 H 343.157 -3.87212 -0.303527 0
M  V30 3338 H 344.889 -4.04503 -0.126358 0
M  V30 3339 H 341.644 -4.35143 1.86943 0
M  V30 3340 H 342.068 -5.18333 4.35499 0
M  V30 3341 H 346.71 -3.83287 1.78468 0
M  V30 3342 H 344.428 -5.51437 5.90713 0
M  V30 3343 H 348.014 -4.39781 3.80899 0
M  V30 3344 H 346.894 -5.22973 5.84353 0
M  V30 3345 N 344.397 -0.483516 -1.5 0
M  V30 3346 C 345.344 0.304164 -2.28787 0
M  V30 3347 C 346.314 0.976114 -1.34392 0
M  V30 3348 O 347.499 0.986156 -1.63339 0
M  V30 3349 C 344.639 1.37298 -3.16612 0
M  V30 3350 C 343.752 0.714561 -4.26049 0
M  V30 3351 C 342.887 1.76232 -5.01114 0
M  V30 3352 C 341.926 1.08483 -6.0241 0
M  V30 3353 N 341.063 2.076 -6.70706 0
M  V30 3354 H 345.903 -0.373981 -2.95644 0
M  V30 3355 H 343.44 -0.196275 -1.45785 0
M  V30 3356 H 345.398 2.00445 -3.65893 0
M  V30 3357 H 344.028 2.02012 -2.51776 0
M  V30 3358 H 343.08 -0.0297798 -3.80388 0
M  V30 3359 H 344.392 0.180383 -4.98474 0
M  V30 3360 H 343.546 2.46929 -5.54176 0
M  V30 3361 H 342.285 2.33033 -4.28424 0
M  V30 3362 H 341.29 0.363545 -5.48597 0
M  V30 3363 H 342.515 0.523551 -6.77079 0
M  V30 3364 H 340.461 2.63394 -6.00799 0
M  V30 3365 H 340.378 1.59201 -7.39047 0
M  V30 3366 H 341.646 2.77639 -7.2838 0
M  V30 3367 N 345.875 1.56104 -0.216619 0
M  V30 3368 C 346.805 2.23063 0.690296 0
M  V30 3369 C 347.786 1.20072 1.20485 0
M  V30 3370 O 348.971 1.48643 1.24976 0
M  V30 3371 C 346.101 2.90672 1.90072 0
M  V30 3372 C 345.055 4.00092 1.5202 0
M  V30 3373 C 344.381 4.54972 2.80899 0
M  V30 3374 C 345.681 5.17398 0.71391 0
M  V30 3375 H 347.375 2.99109 0.132038 0
M  V30 3376 H 344.921 1.43866 0.0620664 0
M  V30 3377 H 346.874 3.36204 2.54057 0
M  V30 3378 H 345.598 2.12066 2.48386 0
M  V30 3379 H 344.257 3.55283 0.903839 0
M  V30 3380 H 343.905 3.73102 3.37348 0
M  V30 3381 H 343.605 5.28817 2.56176 0
M  V30 3382 H 345.129 5.0322 3.45836 0
M  V30 3383 H 346.543 5.59342 1.25735 0
M  V30 3384 H 344.94 5.97444 0.563951 0
M  V30 3385 H 346.01 4.84088 -0.280527 0
M  V30 3386 N 347.353 -0.0568162 1.57498 0
M  V30 3387 C 348.769 -0.411933 1.54192 0
M  V30 3388 C 348.969 -1.78287 0.938942 0
M  V30 3389 O 348.025 -2.46483 0.547919 0
M  V30 3390 C 349.338 -0.339244 2.9878 0
M  V30 3391 C 350.886 -0.418348 3.10192 0
M  V30 3392 C 351.361 -0.375407 4.56459 0
M  V30 3393 N 352.852 -0.435038 4.61153 0
M  V30 3394 C 353.587 -0.424265 5.71828 0
M  V30 3395 N 353.083 -0.367418 6.91825 0
M  V30 3396 N 354.876 -0.471938 5.60115 0
M  V30 3397 H 347.027 0.840684 1.95055 0
M  V30 3398 H 349.29 0.316987 0.893433 0
M  V30 3399 H 348.996 0.601742 3.46514 0
M  V30 3400 H 348.87 -1.14371 3.59443 0
M  V30 3401 H 351.257 -1.34976 2.62422 0
M  V30 3402 H 351.338 0.414962 2.52412 0
M  V30 3403 H 350.982 0.552219 5.04889 0
M  V30 3404 H 350.912 -1.22645 5.12119 0
M  V30 3405 H 353.403 -0.482612 3.74806 0
M  V30 3406 H 353.716 -0.363535 7.71944 0
M  V30 3407 H 352.061 -0.333879 6.94198 0
M  V30 3408 H 355.252 -0.514145 4.65268 0
M  V30 3409 H 355.425 -0.460073 6.46365 0
M  V30 3410 N 348.832 -1.54138 -0.328536 0
M  V30 3411 C 350.062 -1.75807 -1.08516 0
M  V30 3412 C 350.47 -0.50428 -1.82356 0
M  V30 3413 O 349.813 0.534451 -1.75754 0
M  V30 3414 C 349.875 -2.89423 -2.13248 0
M  V30 3415 C 349.539 -4.28504 -1.5885 0
M  V30 3416 C 350.536 -5.09536 -1.03289 0
M  V30 3417 C 348.221 -4.75034 -1.63243 0
M  V30 3418 C 350.215 -6.35206 -0.52845 0
M  V30 3419 C 347.902 -6.00672 -1.12411 0
M  V30 3420 C 348.9 -6.80592 -0.573062 0
M  V30 3421 O 348.588 -8.03867 -0.0723692 0
M  V30 3422 H 348.32 -0.590633 -0.328829 0
M  V30 3423 H 350.874 -2.01819 -0.381868 0
M  V30 3424 H 349.104 -2.5897 -2.87178 0
M  V30 3425 H 350.793 -2.98921 -2.74592 0
M  V30 3426 H 351.559 -4.74745 -0.99206 0
M  V30 3427 H 347.438 -4.12875 -2.05074 0
M  V30 3428 H 350.982 -6.97532 -0.0976774 0
M  V30 3429 H 346.879 -6.34955 -1.162 0
M  V30 3430 H 347.647 -8.18283 -0.188258 0
M  V30 3431 N 350.31 0.590341 -1.46126 0
M  V30 3432 C 351.557 1.34882 -1.5104 0
M  V30 3433 C 351.885 1.93849 -0.159021 0
M  V30 3434 O 351.14 1.76544 0.844436 0
M  V30 3435 C 351.439 2.5032 -2.55097 0
M  V30 3436 C 351.105 2.09394 -3.99331 0
M  V30 3437 C 349.767 1.97947 -4.38601 0
M  V30 3438 C 352.119 1.77712 -4.89967 0
M  V30 3439 C 349.447 1.53065 -5.66381 0
M  V30 3440 C 351.799 1.34312 -6.18177 0
M  V30 3441 C 350.463 1.21436 -6.56361 0
M  V30 3442 H 349.733 0.493568 -0.552695 0
M  V30 3443 H 352.38 0.665539 -1.79563 0
M  V30 3444 H 350.685 3.24062 -2.20207 0
M  V30 3445 H 352.382 3.08541 -2.56132 0
M  V30 3446 H 348.972 2.19235 -3.68285 0
M  V30 3447 H 353.156 1.85445 -4.60352 0
M  V30 3448 H 348.412 1.41733 -5.94745 0
M  V30 3449 H 352.586 1.08849 -6.87841 0
M  V30 3450 H 350.213 0.864345 -7.5527 0
M  V30 3451 N 351.788 1.33704 0.83433 0
M  V30 3452 C 352.718 1.26967 1.95963 0
M  V30 3453 C 353.699 0.149337 1.69443 0
M  V30 3454 O 354.884 0.339852 1.91203 0
M  V30 3455 C 352.014 1.01275 3.32206 0
M  V30 3456 C 350.968 2.09652 3.73136 0
M  V30 3457 C 350.294 1.69166 5.07235 0
M  V30 3458 C 351.594 3.51372 3.86439 0
M  V30 3459 H 353.288 2.2112 2.01857 0
M  V30 3460 H 350.834 1.06447 0.969793 0
M  V30 3461 H 352.787 0.952106 4.10503 0
M  V30 3462 H 351.511 0.0356203 3.26581 0
M  V30 3463 H 350.17 2.14766 2.97104 0
M  V30 3464 H 349.818 0.701437 4.98085 0
M  V30 3465 H 349.518 2.41694 5.35591 0
M  V30 3466 H 351.042 1.64576 5.88003 0
M  V30 3467 H 352.456 3.48734 4.55036 0
M  V30 3468 H 350.853 4.22425 4.26236 0
M  V30 3469 H 351.923 3.89546 2.88759 0
M  V30 3470 N 353.266 -1.05314 1.17247 0
M  V30 3471 C 354.512 -1.78557 0.961513 0
M  V30 3472 C 354.845 -1.87419 -0.508697 0
M  V30 3473 O 354.12 -1.37307 -1.37757 0
M  V30 3474 C 354.403 -3.22514 1.60176 0
M  V30 3475 C 354.256 -3.21673 3.14399 0
M  V30 3476 C 355.575 -4.20318 1.30463 0
M  V30 3477 H 352.694 -0.6482 0.350723 0
M  V30 3478 H 355.336 -1.23102 1.44727 0
M  V30 3479 H 353.486 -3.69867 1.18871 0
M  V30 3480 H 355.158 -2.82405 3.64753 0
M  V30 3481 H 353.401 -2.60048 3.47214 0
M  V30 3482 H 354.072 -4.23271 3.54324 0
M  V30 3483 H 356.548 -3.81454 1.66229 0
M  V30 3484 H 355.424 -5.19289 1.77848 0
M  V30 3485 H 355.685 -4.41526 0.22521 0
M  V30 3486 N 354.744 -0.972509 -1.24016 0
M  V30 3487 C 355.676 -0.464375 -2.24446 0
M  V30 3488 C 356.689 0.4295 -1.57032 0
M  V30 3489 O 357.878 0.234902 -1.76948 0
M  V30 3490 C 354.978 0.348385 -3.37105 0
M  V30 3491 C 354.151 -0.53673 -4.34094 0
M  V30 3492 C 353.21 0.220838 -5.25736 0
M  V30 3493 O 352.236 -0.386867 -5.67884 0
M  V30 3494 N 353.438 1.50907 -5.60542 0
M  V30 3495 H 356.203 -1.32788 -2.68677 0
M  V30 3496 H 353.764 -0.844877 -1.38107 0
M  V30 3497 H 355.756 0.863341 -3.95384 0
M  V30 3498 H 354.326 1.11285 -2.92121 0
M  V30 3499 H 353.546 -1.23261 -3.74433 0
M  V30 3500 H 354.834 -1.14022 -4.95859 0
M  V30 3501 H 354.232 2.02444 -5.28236 0
M  V30 3502 H 352.789 1.96962 -6.21329 0
M  V30 3503 N 356.222 1.38976 -0.743202 0
M  V30 3504 C 357.47 1.99948 -0.29417 0
M  V30 3505 C 357.791 1.59279 1.12495 0
M  V30 3506 O 357.061 0.844808 1.76748 0
M  V30 3507 H 355.641 0.739473 -0.105774 0
M  V30 3508 H 358.303 1.699 -0.954986 0
M  V30 3509 H 357.399 3.10142 -0.349056 0
M  V30 3510 N 357.7 0.491464 1.49741 0
M  V30 3511 C 358.632 -0.328609 2.26832 0
M  V30 3512 C 359.645 -0.939113 1.32983 0
M  V30 3513 O 360.834 -0.824067 1.58339 0
M  V30 3514 C 357.934 -1.47675 3.05033 0
M  V30 3515 C 357.107 -0.975305 4.26388 0
M  V30 3516 C 356.166 -1.99991 4.86714 0
M  V30 3517 O 355.192 -1.57229 5.47054 0
M  V30 3518 N 356.394 -3.32962 4.75517 0
M  V30 3519 H 359.159 0.332377 2.97851 0
M  V30 3520 H 356.72 0.323441 1.58636 0
M  V30 3521 H 358.712 -2.15954 3.42266 0
M  V30 3522 H 357.282 -2.04206 2.36683 0
M  V30 3523 H 356.502 -0.117723 3.94024 0
M  V30 3524 H 357.79 -0.618531 5.05026 0
M  V30 3525 H 357.188 -3.70399 4.27576 0
M  V30 3526 H 355.745 -3.96982 5.16961 0
M  V30 3527 N 359.178 -1.55987 0.224894 0
M  V30 3528 C 360.125 -2.20436 -0.68385 0
M  V30 3529 C 361.095 -1.16102 -1.18783 0
M  V30 3530 O 362.28 -1.4447 -1.24632 0
M  V30 3531 C 359.42 -2.89076 -1.88491 0
M  V30 3532 C 358.533 -4.08012 -1.41951 0
M  V30 3533 C 357.668 -4.64426 -2.5784 0
M  V30 3534 C 356.707 -5.75656 -2.08053 0
M  V30 3535 N 355.844 -6.26347 -3.17227 0
M  V30 3536 H 360.684 -2.97727 -0.12754 0
M  V30 3537 H 358.221 -1.47011 -0.0511978 0
M  V30 3538 H 360.179 -3.27059 -2.59014 0
M  V30 3539 H 358.809 -2.14298 -2.41405 0
M  V30 3540 H 357.861 -3.75492 -0.609095 0
M  V30 3541 H 359.173 -4.88375 -1.01447 0
M  V30 3542 H 358.327 -5.04869 -3.3644 0
M  V30 3543 H 357.066 -3.83233 -3.01635 0
M  V30 3544 H 356.071 -5.34712 -1.27916 0
M  V30 3545 H 357.296 -6.58686 -1.65255 0
M  V30 3546 H 355.242 -5.48067 -3.60497 0
M  V30 3547 H 355.159 -7.01843 -2.80986 0
M  V30 3548 H 356.427 -6.71447 -3.95953 0
M  V30 3549 N 360.656 0.0484629 -1.57525 0
M  V30 3550 C 361.586 1.0549 -2.08313 0
M  V30 3551 C 362.567 1.38929 -0.981463 0
M  V30 3552 O 363.752 1.48151 -1.25558 0
M  V30 3553 C 360.882 2.36162 -2.54646 0
M  V30 3554 C 359.836 2.17016 -3.68901 0
M  V30 3555 C 359.162 3.53278 -4.01371 0
M  V30 3556 C 360.462 1.57219 -4.98076 0
M  V30 3557 H 362.156 0.632195 -2.92649 0
M  V30 3558 H 359.702 0.302654 -1.40784 0
M  V30 3559 H 361.655 3.06882 -2.88793 0
M  V30 3560 H 360.379 2.80456 -1.67368 0
M  V30 3561 H 359.038 1.48733 -3.35073 0
M  V30 3562 H 358.686 3.95185 -3.11188 0
M  V30 3563 H 358.386 3.41299 -4.78318 0
M  V30 3564 H 359.91 4.25391 -4.38035 0
M  V30 3565 H 361.324 2.17832 -5.30304 0
M  V30 3566 H 359.721 1.55871 -5.79503 0
M  V30 3567 H 360.791 0.535956 -4.81929 0
M  V30 3568 N 362.134 1.5431 0.320358 0
M  V30 3569 C 363.364 1.7638 1.07582 0
M  V30 3570 C 363.772 0.513944 1.82086 0
M  V30 3571 O 363.115 -0.525123 1.76035 0
M  V30 3572 C 363.177 2.9055 2.1171 0
M  V30 3573 C 362.841 4.2934 1.56575 0
M  V30 3574 C 363.838 5.10077 1.00586 0
M  V30 3575 C 361.523 4.75893 1.60722 0
M  V30 3576 C 363.517 6.35477 0.494756 0
M  V30 3577 C 361.204 6.0126 1.09224 0
M  V30 3578 C 362.202 6.80886 0.53696 0
M  V30 3579 O 361.89 8.03894 0.0297371 0
M  V30 3580 H 361.622 0.592369 0.325692 0
M  V30 3581 H 364.176 2.02019 0.37116 0
M  V30 3582 H 362.406 2.60489 2.85801 0
M  V30 3583 H 364.095 3.00373 2.73003 0
M  V30 3584 H 364.861 4.75265 0.966869 0
M  V30 3585 H 360.74 4.13957 2.02882 0
M  V30 3586 H 364.284 6.97574 0.0606842 0
M  V30 3587 H 360.181 6.35562 1.12831 0
M  V30 3588 H 360.949 8.18372 0.14486 0
M  V30 3589 N 363.613 -0.582584 1.46437 0
M  V30 3590 C 364.86 -1.34079 1.51753 0
M  V30 3591 C 365.188 -1.93762 0.169299 0
M  V30 3592 O 364.443 -1.76989 -0.835062 0
M  V30 3593 C 364.742 -2.48964 2.56421 0
M  V30 3594 C 364.408 -2.07273 4.00436 0
M  V30 3595 C 363.07 -1.95618 4.39644 0
M  V30 3596 C 365.422 -1.75111 4.90903 0
M  V30 3597 C 362.75 -1.5006 5.67185 0
M  V30 3598 C 365.102 -1.31032 6.18881 0
M  V30 3599 C 363.766 -1.17954 6.56996 0
M  V30 3600 H 363.036 -0.49063 0.555304 0
M  V30 3601 H 365.683 -0.656007 1.79913 0
M  V30 3602 H 363.988 -3.22889 2.21923 0
M  V30 3603 H 365.685 -3.07178 2.57765 0
M  V30 3604 H 362.275 -2.17279 3.69443 0
M  V30 3605 H 366.459 -1.83001 4.61329 0
M  V30 3606 H 361.715 -1.38577 5.95488 0
M  V30 3607 H 365.889 -1.052 6.88408 0
M  V30 3608 H 363.516 -0.824279 7.55718 0
M  V30 3609 N 365.091 -1.34144 -0.827227 0
M  V30 3610 C 366.054 -1.25264 -1.91942 0
M  V30 3611 C 367.054 -0.168866 -1.59911 0
M  V30 3612 O 368.244 -0.421198 -1.69031 0
M  V30 3613 C 365.376 -0.932952 -3.27885 0
M  V30 3614 H 366.569 -2.22357 -2.0124 0
M  V30 3615 H 364.122 -1.1837 -1.0207 0
M  V30 3616 H 364.857 0.0349917 -3.24281 0
M  V30 3617 H 364.642 -1.71682 -3.52516 0
M  V30 3618 H 366.132 -0.895874 -4.07877 0
M  V30 3619 N 366.569 1.04691 -1.17803 0
M  V30 3620 C 367.519 2.10856 -0.867391 0
M  V30 3621 C 368.503 1.601 0.160206 0
M  V30 3622 O 369.695 1.76948 -0.042947 0
M  V30 3623 C 366.824 3.411 -0.388012 0
M  V30 3624 C 365.91 3.9864 -1.44732 0
M  V30 3625 N 366.301 4.30075 -2.66212 0
M  V30 3626 C 364.599 4.26439 -1.30637 0
M  V30 3627 C 365.3 4.76033 -3.34317 0
M  V30 3628 N 364.276 4.76462 -2.61696 0
M  V30 3629 H 368.078 2.33029 -1.79094 0
M  V30 3630 H 365.592 1.22386 -1.0675 0
M  V30 3631 H 367.589 4.16641 -0.146994 0
M  V30 3632 H 366.249 3.20357 0.529271 0
M  V30 3633 H 367.26 4.19917 -3.03134 0
M  V30 3634 H 363.937 4.15056 -0.451129 0
M  V30 3635 H 365.327 5.09427 -4.38103 0
M  V30 3636 N 368.047 0.979072 1.23499 0
M  V30 3637 C 368.997 0.489378 2.22686 0
M  V30 3638 C 369.981 -0.434871 1.54912 0
M  V30 3639 O 371.173 -0.263941 1.75021 0
M  V30 3640 C 368.302 -0.208178 3.42668 0
M  V30 3641 C 367.388 0.735563 4.17672 0
M  V30 3642 N 367.779 1.87763 4.69658 0
M  V30 3643 C 366.077 0.548625 4.42613 0
M  V30 3644 C 366.778 2.46886 5.26709 0
M  V30 3645 N 365.754 1.75287 5.14563 0
M  V30 3646 H 369.556 1.36062 2.60508 0
M  V30 3647 H 367.07 0.83958 1.39014 0
M  V30 3648 H 369.067 -0.576295 4.12898 0
M  V30 3649 H 367.727 -1.07572 3.06363 0
M  V30 3650 H 368.738 2.25885 4.66043 0
M  V30 3651 H 365.415 -0.274006 4.166 0
M  V30 3652 H 366.805 3.43326 5.77561 0
M  V30 3653 N 369.525 -1.3858 0.750561 0
M  V30 3654 C 370.936 -1.82927 0.373438 0
M  V30 3655 C 371.287 -1.62634 -1.09748 0
M  V30 3656 O 370.412 -1.12588 -1.84805 0
M  V30 3657 C 371.007 -3.32088 0.671029 0
M  V30 3658 C 369.566 -3.74795 0.34722 0
M  V30 3659 C 368.713 -2.61391 0.92575 0
M  V30 3660 H 371.664 -1.27351 0.946958 0
M  V30 3661 H 371.685 -3.80465 -0.0518269 0
M  V30 3662 H 371.197 -3.46826 1.74164 0
M  V30 3663 H 369.298 -3.65638 -0.716933 0
M  V30 3664 H 369.411 -4.71667 0.840656 0
M  V30 3665 H 367.775 -2.52265 0.351327 0
M  V30 3666 H 368.558 -2.78929 2.00133 0
M  V30 3667 N 371.003 -0.499398 -1.49478 0
M  V30 3668 C 371.966 0.268838 -2.27618 0
M  V30 3669 C 372.966 0.895383 -1.33565 0
M  V30 3670 O 374.156 0.760164 -1.56739 0
M  V30 3671 C 371.288 1.38559 -3.11471 0
M  V30 3672 H 372.481 -0.416812 -2.96989 0
M  V30 3673 H 370.034 -0.254313 -1.54217 0
M  V30 3674 H 370.769 2.10544 -2.46661 0
M  V30 3675 H 370.554 0.941797 -3.80621 0
M  V30 3676 H 372.044 1.92678 -3.70493 0
M  V30 3677 N 372.481 1.55866 -0.233164 0
M  V30 3678 C 373.728 1.98603 0.395374 0
M  V30 3679 C 374.056 1.12105 1.58942 0
M  V30 3680 O 373.311 0.168656 1.94972 0
M  V30 3681 C 373.61 3.46856 0.861724 0
M  V30 3682 C 373.276 4.50348 -0.223066 0
M  V30 3683 C 371.938 4.78371 -0.521038 0
M  V30 3684 C 374.29 5.12355 -0.956124 0
M  V30 3685 C 371.618 5.6568 -1.55638 0
M  V30 3686 C 373.97 6.00786 -1.98089 0
M  V30 3687 C 372.634 6.27148 -2.28565 0
M  V30 3688 H 371.904 0.726739 0.144677 0
M  V30 3689 H 374.551 1.88491 -0.338114 0
M  V30 3690 H 372.856 3.5423 1.67418 0
M  V30 3691 H 374.553 3.77302 1.35809 0
M  V30 3692 H 371.143 4.28596 0.0193234 0
M  V30 3693 H 375.327 4.90765 -0.739166 0
M  V30 3694 H 370.583 5.84365 -1.798 0
M  V30 3695 H 374.757 6.4788 -2.55391 0
M  V30 3696 H 372.384 6.94597 -3.08932 0
M  V30 3697 N 373.959 -0.0401083 1.57549 0
M  V30 3698 C 374.922 -1.02871 2.04817 0
M  V30 3699 C 375.922 -1.29708 0.950388 0
M  V30 3700 O 377.112 -1.24897 1.21435 0
M  V30 3701 C 374.244 -2.36443 2.45576 0
M  V30 3702 H 375.437 -0.620631 2.93408 0
M  V30 3703 H 372.99 -0.286667 1.53649 0
M  V30 3704 H 373.725 -2.82021 1.60108 0
M  V30 3705 H 373.51 -2.18296 3.25713 0
M  V30 3706 H 375 -3.07441 2.82612 0
M  V30 3707 N 375.437 -1.54477 -0.31217 0
M  V30 3708 C 376.387 -1.81037 -1.38598 0
M  V30 3709 C 377.371 -0.666941 -1.46426 0
M  V30 3710 O 378.563 -0.927269 -1.50767 0
M  V30 3711 C 375.692 -2.05127 -2.75277 0
M  V30 3712 C 374.778 -3.25624 -2.71716 0
M  V30 3713 N 375.169 -4.46428 -2.37773 0
M  V30 3714 C 373.467 -3.27427 -3.02833 0
M  V30 3715 C 374.168 -5.28406 -2.43232 0
M  V30 3716 N 373.144 -4.6586 -2.80135 0
M  V30 3717 H 376.946 -2.7201 -1.11301 0
M  V30 3718 H 374.46 -1.53826 -0.520705 0
M  V30 3719 H 376.457 -2.22299 -3.52688 0
M  V30 3720 H 375.117 -1.15416 -3.03495 0
M  V30 3721 H 376.128 -4.73227 -2.1042 0
M  V30 3722 H 372.805 -2.47786 -3.36018 0
M  V30 3723 H 374.195 -6.34903 -2.19882 0
M  V30 3724 N 376.915 0.57481 -1.46744 0
M  V30 3725 C 378.162 1.33272 -1.52462 0
M  V30 3726 C 378.49 1.93669 -0.179572 0
M  V30 3727 O 377.745 1.7743 0.825664 0
M  V30 3728 C 378.044 2.476 -2.57738 0
M  V30 3729 C 377.71 2.05146 -4.01529 0
M  V30 3730 C 376.372 1.93284 -4.40676 0
M  V30 3731 C 378.724 1.72506 -4.91824 0
M  V30 3732 C 376.052 1.47049 -5.67973 0
M  V30 3733 C 378.404 1.27748 -6.19567 0
M  V30 3734 C 377.068 1.14468 -6.57612 0
M  V30 3735 H 376.338 0.487678 -0.557899 0
M  V30 3736 H 378.985 0.646456 -1.80259 0
M  V30 3737 H 377.29 3.21708 -2.23632 0
M  V30 3738 H 378.987 3.05807 -2.5939 0
M  V30 3739 H 375.577 2.15316 -3.7059 0
M  V30 3740 H 379.761 1.80552 -4.62293 0
M  V30 3741 H 375.017 1.35417 -5.96215 0
M  V30 3742 H 379.191 1.01547 -6.88957 0
M  V30 3743 H 376.818 0.78419 -7.56145 0
M  V30 3744 N 378.394 1.34581 0.820102 0
M  V30 3745 C 379.304 1.28471 1.96297 0
M  V30 3746 C 380.32 0.191902 1.72939 0
M  V30 3747 O 381.496 0.418879 1.96996 0
M  V30 3748 C 378.561 1.04281 3.30645 0
M  V30 3749 C 377.622 2.22745 3.66992 0
M  V30 3750 C 376.855 1.997 4.9493 0
M  V30 3751 O 377.078 0.956656 5.6232 0
M  V30 3752 O 376.012 2.86723 5.2922 0
M  V30 3753 H 379.838 2.24624 2.04396 0
M  V30 3754 H 377.423 1.14816 0.955913 0
M  V30 3755 H 379.305 0.925841 4.11104 0
M  V30 3756 H 377.98 0.111697 3.23507 0
M  V30 3757 H 376.887 2.40003 2.86966 0
M  V30 3758 H 378.22 3.14257 3.78819 0
M  V30 3759 N 379.872 -1.04064 1.18357 0
M  V30 3760 C 381.1 -1.80916 1.00384 0
M  V30 3761 C 381.515 -1.83414 -0.447738 0
M  V30 3762 O 380.872 -1.26962 -1.31099 0
M  V30 3763 C 380.923 -3.26516 1.55144 0
M  V30 3764 O 380.644 -3.2424 2.94618 0
M  V30 3765 C 382.145 -4.20013 1.41789 0
M  V30 3766 H 379.365 -0.569728 0.354474 0
M  V30 3767 H 381.909 -1.31151 1.56906 0
M  V30 3768 H 380.064 -3.73512 1.02798 0
M  V30 3769 H 380.478 -4.15452 3.20156 0
M  V30 3770 H 381.952 -5.20111 1.84901 0
M  V30 3771 H 382.429 -4.37667 0.36661 0
M  V30 3772 H 383.035 -3.78881 1.93207 0
M  V30 3773 N 381.35 -0.985608 -1.22978 0
M  V30 3774 C 382.599 -0.652881 -1.90841 0
M  V30 3775 C 382.912 0.817842 -1.77681 0
M  V30 3776 O 384.118 1.26185 -2.40395 0
M  V30 3777 C 382.574 -1.11717 -3.42122 0
M  V30 3778 C 382.182 -2.6126 -3.63933 0
M  V30 3779 C 383.926 -0.85843 -4.1573 0
M  V30 3780 C 381.833 -3.0133 -5.08876 0
M  V30 3781 H 380.763 -0.240491 -0.714619 0
M  V30 3782 H 383.414 -1.1942 -1.39324 0
M  V30 3783 H 381.796 -0.504027 -3.92779 0
M  V30 3784 H 382.97 -3.27858 -3.23799 0
M  V30 3785 H 381.285 -2.84937 -3.03644 0
M  V30 3786 H 383.882 -1.13359 -5.22546 0
M  V30 3787 H 384.225 0.205461 -4.15793 0
M  V30 3788 H 384.758 -1.43341 -3.71077 0
M  V30 3789 H 381.497 -4.06864 -5.13947 0
M  V30 3790 H 381.017 -2.3943 -5.49939 0
M  V30 3791 H 382.696 -2.92224 -5.77247 0
M  V30 3792 N 382.828 1.3818 -0.7579 0
M  V30 3793 C 384.105 1.94106 -0.241306 0
M  V30 3794 C 384.485 1.69282 1.26122 0
M  V30 3795 O 383.833 1.03378 2.03777 0
M  V30 3796 C 384.043 3.43809 -0.59967 0
M  V30 3797 C 385.391 4.20868 -0.561717 0
M  V30 3798 O 386.415 3.5211 -0.538222 0
M  V30 3799 O 385.274 5.43451 -0.576478 0
M  V30 3800 H 382.368 0.825376 -0.0518042 0
M  V30 3801 H 384.914 1.47548 -0.838315 0
M  V30 3802 H 383.686 3.55403 -1.6372 0
M  V30 3803 H 383.309 3.97592 0.0251197 0
M  V30 3804 N 384.306 0.507319 1.49211 0
M  V30 3805 C 385.236 -0.256939 2.32082 0
M  V30 3806 C 386.217 -0.956609 1.40652 0
M  V30 3807 O 387.402 -0.946788 1.69557 0
M  V30 3808 C 384.532 -1.31802 3.21318 0
M  V30 3809 C 383.486 -0.737855 4.21592 0
M  V30 3810 C 382.812 -1.89992 4.99807 0
M  V30 3811 C 384.112 0.275325 5.21574 0
M  V30 3812 H 385.806 0.434798 2.96226 0
M  V30 3813 H 383.352 0.210546 1.42452 0
M  V30 3814 H 385.305 -1.86045 3.78107 0
M  V30 3815 H 384.029 -2.03903 2.5513 0
M  V30 3816 H 382.688 -0.217126 3.65956 0
M  V30 3817 H 382.336 -2.60877 4.30061 0
M  V30 3818 H 382.036 -1.51777 5.6766 0
M  V30 3819 H 383.56 -2.44657 5.59442 0
M  V30 3820 H 384.974 -0.179193 5.7302 0
M  V30 3821 H 383.371 0.573649 5.97352 0
M  V30 3822 H 384.441 1.18903 4.70096 0
M  V30 3823 N 385.784 -1.5574 0.241426 0
M  V30 3824 C 387.009 -2.0366 -0.392111 0
M  V30 3825 C 387.434 -1.11969 -1.51144 0
M  V30 3826 O 386.792 -0.111594 -1.80956 0
M  V30 3827 C 386.84 -3.49638 -0.882371 0
M  V30 3828 O 385.944 -3.6108 -1.99235 0
M  V30 3829 H 385.285 -0.658379 -0.0862122 0
M  V30 3830 H 387.815 -2.01302 0.365881 0
M  V30 3831 H 387.825 -3.90351 -1.18702 0
M  V30 3832 H 386.5 -4.15852 -0.0632361 0
M  V30 3833 H 385.077 -3.32262 -1.69282 0
M  V30 3834 N 387.262 0.0317525 -1.57568 0
M  V30 3835 C 388.194 1.06073 -2.03178 0
M  V30 3836 C 389.207 1.32627 -0.944132 0
M  V30 3837 O 390.396 1.30162 -1.22148 0
M  V30 3838 C 387.496 2.40297 -2.38978 0
M  V30 3839 C 386.669 2.33137 -3.70089 0
M  V30 3840 C 385.728 3.49787 -3.9311 0
M  V30 3841 O 384.754 3.29403 -4.64201 0
M  V30 3842 N 385.956 4.71562 -3.38541 0
M  V30 3843 H 388.721 0.672006 -2.92069 0
M  V30 3844 H 386.282 0.219745 -1.60402 0
M  V30 3845 H 388.274 3.1705 -2.51518 0
M  V30 3846 H 386.844 2.71024 -1.55771 0
M  V30 3847 H 386.064 1.415 -3.67928 0
M  V30 3848 H 387.352 2.25493 -4.56104 0
M  V30 3849 H 386.75 4.91024 -2.80912 0
M  V30 3850 H 385.307 5.45689 -3.56464 0
M  V30 3851 N 388.74 1.54641 0.303973 0
M  V30 3852 C 389.703 1.84646 1.35789 0
M  V30 3853 C 390.703 0.7192 1.4382 0
M  V30 3854 O 391.893 0.987491 1.43507 0
M  V30 3855 C 389.025 2.02407 2.74307 0
M  V30 3856 H 390.218 2.78829 1.10429 0
M  V30 3857 H 387.771 1.46658 0.540487 0
M  V30 3858 H 388.506 1.10502 3.04893 0
M  V30 3859 H 388.291 2.84453 2.69868 0
M  V30 3860 H 389.781 2.27002 3.50514 0
M  V30 3861 N 390.218 -0.567019 1.47046 0
M  V30 3862 C 391.446 -1.35027 1.56765 0
M  V30 3863 C 391.861 -1.8758 0.214316 0
M  V30 3864 O 391.218 -1.64471 -0.790919 0
M  V30 3865 C 391.269 -2.52698 2.58507 0
M  V30 3866 O 390.99 -2.0232 3.88585 0
M  V30 3867 C 392.491 -3.45043 2.78316 0
M  V30 3868 H 389.711 -0.41195 0.529658 0
M  V30 3869 H 392.255 -0.687832 1.92585 0
M  V30 3870 H 390.41 -3.149 2.25648 0
M  V30 3871 H 390.824 -2.79068 4.44096 0
M  V30 3872 H 392.298 -4.2405 3.53391 0
M  V30 3873 H 392.775 -3.97971 1.85784 0
M  V30 3874 H 393.381 -2.88665 3.12334 0
M  V30 3875 N 391.696 -1.35014 -0.812953 0
M  V30 3876 C 392.942 -1.2812 -1.57204 0
M  V30 3877 C 393.275 0.145869 -1.93651 0
M  V30 3878 O 392.55 1.0937 -1.60836 0
M  V30 3879 C 392.833 -2.18162 -2.86492 0
M  V30 3880 C 392.686 -3.69454 -2.56561 0
M  V30 3881 C 394.005 -2.07439 -3.88145 0
M  V30 3882 H 391.124 -0.466746 -0.570366 0
M  V30 3883 H 393.766 -1.65357 -0.935783 0
M  V30 3884 H 391.916 -1.86535 -3.40789 0
M  V30 3885 H 393.588 -4.11493 -2.08497 0
M  V30 3886 H 391.831 -3.9005 -1.89851 0
M  V30 3887 H 392.502 -4.27835 -3.48799 0
M  V30 3888 H 394.978 -2.35228 -3.4323 0
M  V30 3889 H 393.854 -2.7265 -4.76396 0
M  V30 3890 H 394.115 -1.05439 -4.29343 0
M  V30 3891 N 393.175 1.03435 -1.18907 0
M  V30 3892 C 394.138 2.09756 -0.923844 0
M  V30 3893 C 395.138 1.60528 0.093416 0
M  V30 3894 O 396.328 1.73631 -0.140727 0
M  V30 3895 C 393.46 3.38692 -0.387354 0
M  V30 3896 H 394.653 2.34719 -1.86674 0
M  V30 3897 H 392.206 1.19959 -1.00197 0
M  V30 3898 H 392.941 3.19396 0.561845 0
M  V30 3899 H 392.726 3.75742 -1.12074 0
M  V30 3900 H 394.216 4.17016 -0.220694 0
M  V30 3901 N 394.653 0.992116 1.22453 0
M  V30 3902 C 395.563 0.55065 2.28046 0
M  V30 3903 C 396.579 -0.400189 1.69335 0
M  V30 3904 O 397.755 -0.267215 1.99619 0
M  V30 3905 C 394.82 -0.128496 3.46462 0
M  V30 3906 C 393.881 0.865208 4.20491 0
M  V30 3907 C 393.114 0.218377 5.33253 0
M  V30 3908 O 393.337 -0.987894 5.6178 0
M  V30 3909 O 392.271 0.922845 5.94783 0
M  V30 3910 H 396.097 1.4291 2.67975 0
M  V30 3911 H 393.682 0.760326 1.28606 0
M  V30 3912 H 395.564 -0.508947 4.18315 0
M  V30 3913 H 394.239 -0.981526 3.0846 0
M  V30 3914 H 393.146 1.29658 3.50913 0
M  V30 3915 H 394.479 1.68741 4.62371 0
M  V30 3916 N 396.131 -1.37776 0.765217 0
M  V30 3917 C 397.356 -2.04651 0.336537 0
M  V30 3918 C 397.781 -1.57337 -1.03086 0
M  V30 3919 O 397.139 -0.730621 -1.65927 0
M  V30 3920 C 397.187 -3.58577 0.381468 0
M  V30 3921 O 396.291 -4.07706 -0.62042 0
M  V30 3922 H 395.632 -0.64756 0.146838 0
M  V30 3923 H 398.162 -1.76221 1.03959 0
M  V30 3924 H 398.172 -4.07314 0.236448 0
M  V30 3925 H 396.847 -3.9237 1.37907 0
M  V30 3926 H 395.424 -3.70306 -0.439056 0
M  V30 3927 N 397.609 -0.515225 -1.4894 0
M  V30 3928 C 398.834 0.022727 -2.07388 0
M  V30 3929 C 399.259 1.2876 -1.37122 0
M  V30 3930 O 398.617 1.76067 -0.432431 0
M  V30 3931 C 398.665 0.244869 -3.59768 0
M  V30 3932 O 397.769 1.31667 -3.90817 0
M  V30 3933 H 397.11 -0.0325506 -0.663202 0
M  V30 3934 H 399.64 -0.718918 -1.91553 0
M  V30 3935 H 399.65 0.47205 -4.0526 0
M  V30 3936 H 398.325 -0.679194 -4.10317 0
M  V30 3937 H 396.902 1.07331 -3.5712 0
M  V30 3938 N 399.087 1.5561 -0.249682 0
M  V30 3939 C 400.327 2.00916 0.37579 0
M  V30 3940 C 400.691 1.13409 1.54927 0
M  V30 3941 O 401.892 1.48183 2.24266 0
M  V30 3942 C 400.163 3.48949 0.772633 0
M  V30 3943 S 401.722 4.16261 1.38824 0
M  V30 3944 H 398.54 0.70112 0.118117 0
M  V30 3945 H 401.142 1.92052 -0.365567 0
M  V30 3946 H 399.846 4.103 -0.090683 0
M  V30 3947 H 399.377 3.61745 1.5461 0
M  V30 3948 H 401.392 4.17778 2.67724 0
M  V30 3949 N 400.565 -0.0233959 1.57583 0
M  V30 3950 C 401.981 -0.379134 1.55031 0
M  V30 3951 C 402.181 -1.76255 0.976548 0
M  V30 3952 O 401.237 -2.45266 0.600078 0
M  V30 3953 C 402.55 -0.275792 2.99433 0
M  V30 3954 C 404.098 -0.352458 3.11009 0
M  V30 3955 C 404.573 -0.278501 4.57152 0
M  V30 3956 N 406.064 -0.337123 4.61972 0
M  V30 3957 C 406.799 -0.302876 5.726 0
M  V30 3958 N 406.295 -0.220589 6.92449 0
M  V30 3959 N 408.088 -0.353023 5.6099 0
M  V30 3960 H 400.239 0.881869 1.93227 0
M  V30 3961 H 402.502 0.335867 0.886509 0
M  V30 3962 H 402.208 0.675108 3.4516 0
M  V30 3963 H 402.082 -1.06721 3.61788 0
M  V30 3964 H 404.469 -1.29379 2.65226 0
M  V30 3965 H 404.55 0.468409 2.51475 0
M  V30 3966 H 404.194 0.659189 5.03604 0
M  V30 3967 H 404.124 -1.11755 5.14605 0
M  V30 3968 H 406.615 -0.403002 3.75745 0
M  V30 3969 H 406.928 -0.199713 7.72542 0
M  V30 3970 H 405.273 -0.186555 6.9475 0
M  V30 3971 H 408.464 -0.415339 4.66254 0
M  V30 3972 H 408.637 -0.322866 6.47195 0
M  V30 3973 N 402.043 -1.548 -0.295768 0
M  V30 3974 C 402.991 -1.86874 -1.38495 0
M  V30 3975 C 403.985 -0.742938 -1.52239 0
M  V30 3976 O 405.191 -0.926999 -1.54294 0
M  V30 3977 H 401.566 -0.592786 -0.462719 0
M  V30 3978 H 403.537 -2.77904 -1.08682 0
M  V30 3979 C 402.286 -2.13732 -2.74252 0
M  V30 3980 H 401.609 -2.99835 -2.64459 0
M  V30 3981 H 403.049 -2.4011 -3.49461 0
M  V30 3982 C 401.508 -0.937539 -3.23592 0
M  V30 3983 O 402.038 -0.160665 -4.01379 0
M  V30 3984 N 400.244 -0.741478 -2.80981 0
M  V30 3985 H 399.791 -1.37489 -2.1784 0
M  V30 3986 H 399.749 0.0597103 -3.14343 0
M  V30 3987 N 403.521 0.559213 -1.47345 0
M  V30 3988 C 404.451 1.67622 -1.62558 0
M  V30 3989 C 405.432 1.63331 -0.475087 0
M  V30 3990 O 406.617 1.80983 -0.704182 0
M  V30 3991 C 403.747 3.0626 -1.63774 0
M  V30 3992 C 402.701 3.25397 -2.7803 0
M  V30 3993 C 402.027 4.64801 -2.64318 0
M  V30 3994 C 403.327 3.10965 -4.19641 0
M  V30 3995 H 405.021 1.55146 -2.56067 0
M  V30 3996 H 402.567 0.744961 -1.23233 0
M  V30 3997 H 404.52 3.84247 -1.73008 0
M  V30 3998 H 403.244 3.1969 -0.66825 0
M  V30 3999 H 401.903 2.49817 -2.68304 0
M  V30 4000 H 401.551 4.75028 -1.65401 0
M  V30 4001 H 401.251 4.78555 -3.40968 0
M  V30 4002 H 402.775 5.44926 -2.75478 0
M  V30 4003 H 404.189 3.78772 -4.30354 0
M  V30 4004 H 402.586 3.36229 -4.97062 0
M  V30 4005 H 403.656 2.07736 -4.38148 0
M  V30 4006 N 404.999 1.35443 0.805782 0
M  V30 4007 C 406.239 1.30127 1.57627 0
M  V30 4008 C 406.603 -0.122567 1.91608 0
M  V30 4009 O 407.804 -0.300107 2.67119 0
M  V30 4010 C 406.075 2.18314 2.82973 0
M  V30 4011 S 407.634 2.30521 3.7337 0
M  V30 4012 H 404.452 0.462439 0.540066 0
M  V30 4013 H 407.054 1.70843 0.95042 0
M  V30 4014 H 405.758 3.20741 2.56034 0
M  V30 4015 H 405.289 1.78558 3.50543 0
M  V30 4016 H 407.304 1.49062 4.73281 0
M  V30 4017 N 406.477 -1.02803 1.19454 0
M  V30 4018 C 407.427 -2.0945 0.900827 0
M  V30 4019 C 408.411 -1.60335 -0.134715 0
M  V30 4020 O 409.603 -1.76857 0.0710924 0
M  V30 4021 C 406.732 -3.4044 0.442229 0
M  V30 4022 C 405.818 -3.96286 1.51056 0
M  V30 4023 N 406.209 -4.25785 2.73021 0
M  V30 4024 C 404.507 -4.24307 1.37404 0
M  V30 4025 C 405.208 -4.70654 3.41848 0
M  V30 4026 N 404.184 -4.72238 2.69243 0
M  V30 4027 H 407.986 -2.3015 1.82779 0
M  V30 4028 H 405.5 -1.20672 1.08683 0
M  V30 4029 H 407.497 -4.16354 0.21326 0
M  V30 4030 H 406.157 -3.21159 -0.478238 0
M  V30 4031 H 407.168 -4.15041 3.09776 0
M  V30 4032 H 403.845 -4.14285 0.517103 0
M  V30 4033 H 405.235 -5.02392 4.46152 0
M  V30 4034 N 407.956 -0.998596 -1.21925 0
M  V30 4035 C 409.181 -0.696015 -1.95372 0
M  V30 4036 C 409.606 0.733826 -1.73195 0
M  V30 4037 O 408.964 1.50242 -1.01474 0
M  V30 4038 C 409.012 -1.01466 -3.4603 0
M  V30 4039 O 408.116 -0.116415 -4.12236 0
M  V30 4040 H 407.457 -0.259938 -0.611006 0
M  V30 4041 H 409.987 -1.33711 -1.54863 0
M  V30 4042 H 409.997 -0.958855 -3.96573 0
M  V30 4043 H 408.672 -2.05653 -3.61497 0
M  V30 4044 H 407.249 -0.228193 -3.72201 0
M  V30 4045 N 409.434 1.37368 -0.772513 0
M  V30 4046 C 410.681 1.99673 -0.337182 0
M  V30 4047 C 411.009 1.61324 1.0865 0
M  V30 4048 O 410.264 0.851377 1.7621 0
M  V30 4049 C 410.563 3.54817 -0.428876 0
M  V30 4050 C 410.229 4.12936 -1.81092 0
M  V30 4051 C 408.891 4.28523 -2.1891 0
M  V30 4052 C 411.243 4.44801 -2.71664 0
M  V30 4053 C 408.571 4.73277 -3.46735 0
M  V30 4054 C 410.923 4.90981 -3.98899 0
M  V30 4055 C 409.587 5.04773 -4.36761 0
M  V30 4056 H 408.857 0.730656 -0.123384 0
M  V30 4057 H 411.504 1.64124 -0.986686 0
M  V30 4058 H 409.809 3.90618 0.304167 0
M  V30 4059 H 411.506 4.00933 -0.0733334 0
M  V30 4060 H 408.096 4.01233 -1.50699 0
M  V30 4061 H 412.28 4.32344 -2.43706 0
M  V30 4062 H 407.536 4.82142 -3.75964 0
M  V30 4063 H 411.71 5.14603 -4.69208 0
M  V30 4064 H 409.337 5.39211 -5.35868 0
M  V30 4065 N 410.912 0.523116 1.48665 0
M  V30 4066 C 412.152 -0.0115588 2.04397 0
M  V30 4067 C 412.516 -1.32225 1.39214 0
M  V30 4068 O 413.717 -1.94253 1.85793 0
M  V30 4069 C 411.988 -0.138119 3.57133 0
M  V30 4070 S 413.547 -0.623849 4.34343 0
M  V30 4071 H 410.365 0.00877706 0.710946 0
M  V30 4072 H 412.967 0.702116 1.82457 0
M  V30 4073 H 411.671 0.820748 4.02109 0
M  V30 4074 H 411.202 -0.876377 3.83514 0
M  V30 4075 H 413.217 -1.8895 4.58816 0
M  V30 4076 N 412.39 -1.55475 0.257931 0
M  V30 4077 C 413.636 -1.99502 -0.364266 0
M  V30 4078 C 413.969 -1.146 -1.56782 0
M  V30 4079 O 413.244 -0.211968 -1.93342 0
M  V30 4080 C 413.527 -3.51917 -0.763333 0
M  V30 4081 C 413.38 -4.4758 0.446371 0
M  V30 4082 C 414.699 -4.09742 -1.60623 0
M  V30 4083 H 411.818 -0.725277 -0.130929 0
M  V30 4084 H 414.46 -1.8653 0.361446 0
M  V30 4085 H 412.61 -3.63101 -1.38166 0
M  V30 4086 H 414.282 -4.48362 1.08487 0
M  V30 4087 H 412.525 -4.19947 1.08753 0
M  V30 4088 H 413.196 -5.51862 0.123645 0
M  V30 4089 H 415.672 -4.01727 -1.08418 0
M  V30 4090 H 414.548 -5.16631 -1.85429 0
M  V30 4091 H 414.809 -3.58889 -2.58169 0
M  V30 4092 N 413.868 0.0150385 -1.57593 0
M  V30 4093 C 415.117 0.702115 -1.89085 0
M  V30 4094 C 415.43 1.75764 -0.858277 0
M  V30 4095 O 416.636 2.49829 -1.0629 0
M  V30 4096 C 415.092 1.29992 -3.35604 0
M  V30 4097 C 414.7 0.280007 -4.47124 0
M  V30 4098 C 416.444 1.96606 -3.76227 0
M  V30 4099 C 414.351 0.886949 -5.84711 0
M  V30 4100 H 413.281 0.265997 -0.705522 0
M  V30 4101 H 415.932 -0.0430408 -1.8345 0
M  V30 4102 H 414.314 2.09525 -3.36029 0
M  V30 4103 H 415.488 -0.489631 -4.58191 0
M  V30 4104 H 413.803 -0.284835 -4.15425 0
M  V30 4105 H 416.4 2.42893 -4.76347 0
M  V30 4106 H 416.743 2.79024 -3.08952 0
M  V30 4107 H 417.276 1.23828 -3.78036 0
M  V30 4108 H 414.015 0.101876 -6.55421 0
M  V30 4109 H 413.535 1.6261 -5.77337 0
M  V30 4110 H 415.214 1.39011 -6.3189 0
M  V30 4111 N 415.346 1.54954 0.287554 0
M  V30 4112 C 416.574 1.78881 1.03967 0
M  V30 4113 C 416.989 0.554894 1.80462 0
M  V30 4114 O 416.346 -0.475676 1.76192 0
M  V30 4115 C 416.397 3.00488 2.0097 0
M  V30 4116 O 416.118 4.19113 1.27577 0
M  V30 4117 C 417.619 3.36907 2.88112 0
M  V30 4118 H 414.839 0.596259 0.307761 0
M  V30 4119 H 417.383 2.01937 0.322749 0
M  V30 4120 H 415.538 2.79601 2.68145 0
M  V30 4121 H 415.952 4.87765 1.92835 0
M  V30 4122 H 417.426 4.25205 3.52001 0
M  V30 4123 H 417.903 2.55659 3.57121 0
M  V30 4124 H 418.509 3.60001 2.26449 0
M  V30 4125 N 416.824 -0.551391 1.4764 0
M  V30 4126 C 418.235 -1.13349 1.48354 0
M  V30 4127 C 418.586 -1.94709 0.241432 0
M  V30 4128 O 417.711 -2.06306 -0.653205 0
M  V30 4129 C 418.306 -2.0623 2.68802 0
M  V30 4130 C 416.865 -2.597 2.72457 0
M  V30 4131 C 416.012 -1.36201 2.41546 0
M  V30 4132 H 418.963 -0.337698 1.55065 0
M  V30 4133 H 418.984 -2.90196 2.46103 0
M  V30 4134 H 418.496 -1.46987 3.59188 0
M  V30 4135 H 416.597 -3.22724 1.86225 0
M  V30 4136 H 416.71 -3.00296 3.73308 0
M  V30 4137 H 415.074 -1.67068 1.9225 0
M  V30 4138 H 415.857 -0.787425 3.34147 0
M  V30 4139 N 418.302 -1.35869 -0.798587 0
M  V30 4140 C 419.234 -1.25305 -1.91915 0
M  V30 4141 C 420.247 -0.174548 -1.61862 0
M  V30 4142 O 421.436 -0.428499 -1.73281 0
M  V30 4143 C 418.536 -0.9086 -3.26493 0
M  V30 4144 C 417.709 -2.08711 -3.84394 0
M  V30 4145 C 416.768 -1.71717 -4.97393 0
M  V30 4146 O 415.794 -2.43692 -5.14396 0
M  V30 4147 N 416.996 -0.645473 -5.769 0
M  V30 4148 H 419.761 -2.21849 -2.01502 0
M  V30 4149 H 417.322 -1.29143 -0.976408 0
M  V30 4150 H 419.314 -0.642455 -3.99568 0
M  V30 4151 H 417.884 -0.0325815 -3.12583 0
M  V30 4152 H 417.104 -2.51659 -3.03416 0
M  V30 4153 H 418.392 -2.87468 -4.19809 0
M  V30 4154 H 417.79 -0.047648 -5.6568 0
M  V30 4155 H 416.347 -0.43913 -6.50319 0
M  V30 4156 N 419.78 1.02168 -1.19998 0
M  V30 4157 C 421.196 1.27969 -0.953737 0
M  V30 4158 C 421.396 1.98079 0.369703 0
M  V30 4159 O 420.452 2.27306 1.09947 0
M  V30 4160 C 421.765 2.11971 -2.13281 0
M  V30 4161 C 423.313 2.25255 -2.17323 0
M  V30 4162 C 423.788 3.12632 -3.34702 0
M  V30 4163 N 425.279 3.2022 -3.34684 0
M  V30 4164 C 426.014 3.88039 -4.22153 0
M  V30 4165 N 425.51 4.58027 -5.19791 0
M  V30 4166 N 427.303 3.84511 -4.10009 0
M  V30 4167 H 419.454 0.550794 -2.05134 0
M  V30 4168 H 421.717 0.305683 -0.897364 0
M  V30 4169 H 421.423 1.67785 -3.09097 0
M  V30 4170 H 421.297 3.12699 -2.10949 0
M  V30 4171 H 423.684 2.68667 -1.22073 0
M  V30 4172 H 423.765 1.24053 -2.23706 0
M  V30 4173 H 423.409 2.69926 -4.30235 0
M  V30 4174 H 423.339 4.13909 -3.25556 0
M  V30 4175 H 425.83 2.70382 -2.64012 0
M  V30 4176 H 426.143 5.07429 -5.82868 0
M  V30 4177 H 424.488 4.56869 -5.23733 0
M  V30 4178 H 427.679 3.28978 -3.33003 0
M  V30 4179 H 427.852 4.3709 -4.78389 0
M  V30 4180 N 421.258 1.00505 1.21394 0
M  V30 4181 C 422.205 0.565496 2.23765 0
M  V30 4182 C 423.175 -0.408466 1.60999 0
M  V30 4183 O 424.36 -0.310503 1.88257 0
M  V30 4184 C 421.5 -0.101667 3.4495 0
M  V30 4185 C 420.613 0.915479 4.22188 0
M  V30 4186 C 419.748 0.220574 5.30742 0
M  V30 4187 C 418.787 1.22527 5.99711 0
M  V30 4188 N 417.924 0.557831 6.9988 0
M  V30 4189 H 422.764 1.44314 2.60725 0
M  V30 4190 H 420.301 0.722643 1.28126 0
M  V30 4191 H 422.259 -0.505504 4.14126 0
M  V30 4192 H 420.889 -0.94303 3.08718 0
M  V30 4193 H 419.941 1.43756 3.52191 0
M  V30 4194 H 421.253 1.68005 4.69655 0
M  V30 4195 H 420.407 -0.239368 6.06228 0
M  V30 4196 H 419.146 -0.576401 4.84282 0
M  V30 4197 H 418.151 1.69571 5.22997 0
M  V30 4198 H 419.376 2.02332 6.48258 0
M  V30 4199 H 417.322 -0.219486 6.55633 0
M  V30 4200 H 417.239 1.26065 7.45415 0
M  V30 4201 H 418.507 0.121095 7.79406 0
M  V30 4202 N 422.737 -1.36956 0.779787 0
M  V30 4203 C 423.986 -1.98738 0.344405 0
M  V30 4204 C 424.299 -1.62596 -1.08728 0
M  V30 4205 O 425.505 -2.1754 -1.62445 0
M  V30 4206 C 423.961 -3.5544 0.564829 0
M  V30 4207 C 423.569 -4.00514 2.0073 0
M  V30 4208 C 425.313 -4.24059 0.193471 0
M  V30 4209 C 423.22 -5.49957 2.17489 0
M  V30 4210 H 422.15 -0.743561 0.12503 0
M  V30 4211 H 424.801 -1.56381 0.960057 0
M  V30 4212 H 423.183 -3.95817 -0.120397 0
M  V30 4213 H 424.357 -3.71362 2.72814 0
M  V30 4214 H 422.672 -3.44703 2.336 0
M  V30 4215 H 425.269 -5.33874 0.297097 0
M  V30 4216 H 425.612 -4.07378 -0.857263 0
M  V30 4217 H 426.145 -3.89012 0.831556 0
M  V30 4218 H 422.884 -5.71574 3.2091 0
M  V30 4219 H 422.404 -5.80767 1.49899 0
M  V30 4220 H 424.083 -6.16043 1.97738 0
M  V30 4221 N 424.215 -0.530993 -1.48385 0
M  V30 4222 C 425.443 -0.00134122 -2.069 0
M  V30 4223 C 425.858 1.2805 -1.3874 0
M  V30 4224 O 425.215 1.76204 -0.475244 0
M  V30 4225 C 425.266 0.225256 -3.60798 0
M  V30 4226 O 424.987 -1.0058 -4.26398 0
M  V30 4227 C 426.488 0.795172 -4.3611 0
M  V30 4228 H 423.708 -0.0339704 -0.67014 0
M  V30 4229 H 426.252 -0.736926 -1.90761 0
M  V30 4230 H 424.407 0.910891 -3.76539 0
M  V30 4231 H 424.821 -0.787165 -5.1856 0
M  V30 4232 H 426.295 0.903143 -5.44562 0
M  V30 4233 H 426.772 1.80031 -4.00606 0
M  V30 4234 H 427.378 0.146069 -4.25049 0
M  V30 4235 N 425.693 1.55336 -0.266172 0
M  V30 4236 C 426.623 2.25146 0.618981 0
M  V30 4237 C 427.604 1.23845 1.16604 0
M  V30 4238 O 428.789 1.52544 1.20183 0
M  V30 4239 C 425.919 2.96572 1.80728 0
M  V30 4240 C 424.873 4.04726 1.39215 0
M  V30 4241 C 424.199 4.63678 2.66283 0
M  V30 4242 C 425.499 5.19407 0.548942 0
M  V30 4243 H 427.193 2.99377 0.0368116 0
M  V30 4244 H 424.739 1.43991 0.0162651 0
M  V30 4245 H 426.692 3.44116 2.43232 0
M  V30 4246 H 425.416 2.19861 2.41514 0
M  V30 4247 H 424.075 3.57979 0.790351 0
M  V30 4248 H 423.723 3.83646 3.25308 0
M  V30 4249 H 423.423 5.367 2.39222 0
M  V30 4250 H 424.947 5.13967 3.29651 0
M  V30 4251 H 426.361 5.63059 1.07876 0
M  V30 4252 H 424.758 5.98936 0.373593 0
M  V30 4253 H 425.828 4.8295 -0.434394 0
M  V30 4254 N 427.171 -0.0066808 1.57599 0
M  V30 4255 C 428.134 -0.985035 2.06953 0
M  V30 4256 C 429.134 -1.27663 0.977687 0
M  V30 4257 O 430.324 -1.22293 1.24057 0
M  V30 4258 C 427.456 -2.3118 2.50536 0
M  V30 4259 H 428.649 -0.558255 2.94658 0
M  V30 4260 H 426.202 -0.254011 1.54222 0
M  V30 4261 H 426.937 -2.78561 1.66054 0
M  V30 4262 H 426.722 -2.11338 3.3027 0
M  V30 4263 H 428.212 -3.01377 2.8907 0
M  V30 4264 N 428.649 -1.55105 -0.279332 0
M  V30 4265 C 429.612 -1.86783 -1.32834 0
M  V30 4266 C 430.612 -0.74199 -1.42657 0
M  V30 4267 O 431.802 -1.0102 -1.41918 0
M  V30 4268 C 428.934 -2.06746 -2.71052 0
M  V30 4269 H 430.127 -2.8055 -1.05979 0
M  V30 4270 H 427.68 -1.47499 -0.517087 0
M  V30 4271 H 428.415 -1.15339 -3.03097 0
M  V30 4272 H 428.2 -2.88711 -2.65309 0
M  V30 4273 H 429.69 -2.32549 -3.46858 0
M  V30 4274 N 430.127 0.543554 -1.4793 0
M  V30 4275 C 431.538 1.12561 -1.48953 0
M  V30 4276 C 431.889 1.94578 -0.251754 0
M  V30 4277 O 431.014 2.0665 0.642255 0
M  V30 4278 C 431.609 2.04801 -2.69892 0
M  V30 4279 C 430.168 2.58251 -2.73831 0
M  V30 4280 C 429.315 1.34918 -2.42265 0
M  V30 4281 H 432.266 0.32947 -1.55242 0
M  V30 4282 H 432.287 2.88886 -2.47639 0
M  V30 4283 H 431.799 1.4508 -3.59963 0
M  V30 4284 H 429.9 3.21732 -1.87934 0
M  V30 4285 H 430.013 2.98312 -3.74895 0
M  V30 4286 H 428.377 1.66046 -1.93134 0
M  V30 4287 H 429.16 0.769693 -3.3456 0
M  V30 4288 N 431.605 1.3629 0.791371 0
M  V30 4289 C 432.553 1.30514 1.92533 0
M  V30 4290 C 433.547 0.197285 1.68247 0
M  V30 4291 O 434.753 0.364176 1.76278 0
M  V30 4292 H 431.128 0.406263 0.632815 0
M  V30 4293 H 433.099 2.26282 1.94523 0
M  V30 4294 C 431.848 1.10933 3.29529 0
M  V30 4295 H 431.171 1.95427 3.48781 0
M  V30 4296 H 432.611 1.10937 4.0923 0
M  V30 4297 C 431.07 -0.186123 3.36385 0
M  V30 4298 O 431.6 -1.17664 3.84081 0
M  V30 4299 N 429.806 -0.230128 2.89687 0
M  V30 4300 H 429.353 0.576545 2.51065 0
M  V30 4301 H 429.311 -1.09658 2.94657 0
M  V30 4302 N 433.083 -1.0153 1.20538 0
M  V30 4303 C 434.499 -1.27461 0.96051 0
M  V30 4304 C 434.699 -1.98273 -0.359193 0
M  V30 4305 O 433.755 -2.27886 -1.0874 0
M  V30 4306 C 435.068 -2.10837 2.14402 0
M  V30 4307 C 436.616 -2.24099 2.18515 0
M  V30 4308 C 437.091 -3.10852 3.36355 0
M  V30 4309 N 438.582 -3.18441 3.36377 0
M  V30 4310 C 439.317 -3.85795 4.24205 0
M  V30 4311 N 438.813 -4.55264 5.22213 0
M  V30 4312 N 440.606 -3.82331 4.12043 0
M  V30 4313 H 432.757 -0.539907 2.05423 0
M  V30 4314 H 435.02 -0.30092 0.898972 0
M  V30 4315 H 434.726 -1.66144 3.09983 0
M  V30 4316 H 434.6 -3.11576 2.12604 0
M  V30 4317 H 436.987 -2.68016 1.23497 0
M  V30 4318 H 437.068 -1.22865 2.24361 0
M  V30 4319 H 436.712 -2.6764 4.31661 0
M  V30 4320 H 436.642 -4.12177 3.27746 0
M  V30 4321 H 439.133 -2.68978 2.65442 0
M  V30 4322 H 439.446 -5.04331 5.85551 0
M  V30 4323 H 437.791 -4.54085 5.26148 0
M  V30 4324 H 440.982 -3.27207 3.34743 0
M  V30 4325 H 441.155 -4.34547 4.807 0
M  V30 4326 N 434.561 -1.01147 -1.20859 0
M  V30 4327 C 435.508 -0.577354 -2.23462 0
M  V30 4328 C 436.478 0.399922 -1.61214 0
M  V30 4329 O 437.663 0.300515 -1.88419 0
M  V30 4330 C 434.803 0.083372 -3.44999 0
M  V30 4331 C 433.916 -0.937856 -4.21697 0
M  V30 4332 C 433.051 -0.248717 -5.30617 0
M  V30 4333 C 432.09 -1.25705 -5.99053 0
M  V30 4334 N 431.227 -0.594939 -6.99575 0
M  V30 4335 H 436.067 -1.45695 -2.59956 0
M  V30 4336 H 433.604 -0.729428 -1.27741 0
M  V30 4337 H 435.562 0.483535 -4.14388 0
M  V30 4338 H 434.192 0.926645 -3.09214 0
M  V30 4339 H 433.244 -1.45622 -3.51423 0
M  V30 4340 H 434.556 -1.70493 -4.68757 0
M  V30 4341 H 433.71 0.207215 -6.06346 0
M  V30 4342 H 432.449 0.55071 -4.84581 0
M  V30 4343 H 431.454 -1.72343 -5.2209 0
M  V30 4344 H 432.679 -2.05767 -6.47176 0
M  V30 4345 H 430.625 0.184713 -6.5574 0
M  V30 4346 H 430.542 -1.30017 -7.44736 0
M  V30 4347 H 431.81 -0.162427 -7.79331 0
M  V30 4348 N 436.039 1.36541 -0.78704 0
M  V30 4349 C 437.316 1.9355 -0.282424 0
M  V30 4350 C 437.696 1.71919 1.22503 0
M  V30 4351 O 437.044 1.07677 2.01539 0
M  V30 4352 C 437.254 3.4246 -0.672462 0
M  V30 4353 C 438.602 4.19582 -0.650863 0
M  V30 4354 O 439.626 3.50889 -0.612789 0
M  V30 4355 O 438.485 5.42106 -0.691623 0
M  V30 4356 H 435.579 0.824091 -0.0693 0
M  V30 4357 H 438.125 1.45736 -0.869423 0
M  V30 4358 H 436.897 3.51851 -1.71221 0
M  V30 4359 H 436.52 3.97556 -0.0592211 0
M  V30 4360 N 437.518 0.538854 1.48102 0
M  V30 4361 C 438.451 -0.266495 2.26639 0
M  V30 4362 C 439.429 -0.93687 1.32897 0
M  V30 4363 O 440.613 -0.959507 1.62252 0
M  V30 4364 C 437.74 -1.37814 3.09394 0
M  V30 4365 C 436.786 -0.818247 4.18577 0
M  V30 4366 S 437.619 0.320848 5.34538 0
M  V30 4367 C 438.775 -0.793059 6.20855 0
M  V30 4368 H 439.008 0.399994 2.94597 0
M  V30 4369 H 436.541 0.324808 1.50945 0
M  V30 4370 H 438.499 -2.01488 3.57649 0
M  V30 4371 H 437.16 -2.01639 2.40833 0
M  V30 4372 H 436.353 -1.65247 4.7614 0
M  V30 4373 H 435.955 -0.258036 3.73109 0
M  V30 4374 H 438.247 -1.68961 6.56093 0
M  V30 4375 H 439.19 -0.255204 7.0764 0
M  V30 4376 H 439.598 -1.07746 5.54122 0
M  V30 4377 N 438.996 -1.55193 0.274407 0
M  V30 4378 C 439.906 -2.26164 -0.623473 0
M  V30 4379 C 440.922 -1.28729 -1.17068 0
M  V30 4380 O 442.098 -1.61663 -1.20112 0
M  V30 4381 C 439.163 -2.96833 -1.7914 0
M  V30 4382 C 438.224 -4.09745 -1.28093 0
M  V30 4383 C 437.457 -4.77034 -2.3932 0
M  V30 4384 O 437.68 -4.4353 -3.5866 0
M  V30 4385 O 436.614 -5.64996 -2.07516 0
M  V30 4386 H 440.44 -3.03661 -0.0485661 0
M  V30 4387 H 438.025 -1.49341 0.0418382 0
M  V30 4388 H 439.907 -3.41248 -2.4724 0
M  V30 4389 H 438.582 -2.22253 -2.35341 0
M  V30 4390 H 437.489 -3.69787 -0.566416 0
M  V30 4391 H 438.822 -4.86224 -0.764683 0
M  V30 4392 N 440.474 -0.00167713 -1.576 0
M  V30 4393 C 441.384 1.00548 -2.1196 0
M  V30 4394 C 442.4 1.3758 -1.06526 0
M  V30 4395 O 443.576 1.46278 -1.38436 0
M  V30 4396 C 440.641 2.27809 -2.6135 0
M  V30 4397 C 439.702 1.97074 -3.81393 0
M  V30 4398 C 438.935 3.18267 -4.28417 0
M  V30 4399 O 439.158 4.30009 -3.74765 0
M  V30 4400 O 438.092 3.02167 -5.20556 0
M  V30 4401 H 441.918 0.573373 -2.98238 0
M  V30 4402 H 439.503 0.217255 -1.47812 0
M  V30 4403 H 441.385 3.02568 -2.93309 0
M  V30 4404 H 440.06 2.70254 -1.78169 0
M  V30 4405 H 438.967 1.19785 -3.54404 0
M  V30 4406 H 440.3 1.59464 -4.65652 0
M  V30 4407 N 441.952 1.55251 0.271103 0
M  V30 4408 C 443.198 1.7713 0.999832 0
M  V30 4409 C 443.553 0.56659 1.83868 0
M  V30 4410 O 442.846 -0.44069 1.86463 0
M  V30 4411 C 443.04 3.01879 1.91321 0
M  V30 4412 C 442.869 4.34368 1.16426 0
M  V30 4413 C 441.639 4.97593 0.879169 0
M  V30 4414 C 443.837 5.1131 0.553749 0
M  V30 4415 N 441.819 6.13813 0.103618 0
M  V30 4416 C 443.19 6.19938 -0.0875442 0
M  V30 4417 C 445.245 4.95754 0.461782 0
M  V30 4418 C 443.948 7.14703 -0.811942 0
M  V30 4419 C 445.974 5.90875 -0.249027 0
M  V30 4420 C 445.336 6.98893 -0.879051 0
M  V30 4421 H 441.435 0.700407 0.347784 0
M  V30 4422 H 444.019 1.92744 0.275314 0
M  V30 4423 H 442.19 2.87637 2.60997 0
M  V30 4424 H 443.922 3.12154 2.57569 0
M  V30 4425 H 440.677 4.58538 1.18491 0
M  V30 4426 H 441.101 6.76455 -0.271543 0
M  V30 4427 H 445.743 4.12342 0.934552 0
M  V30 4428 H 443.461 7.97634 -1.29639 0
M  V30 4429 H 447.047 5.80916 -0.320529 0
M  V30 4430 H 445.927 7.71231 -1.42031 0
M  V30 4431 N 443.43 -0.535701 1.48216 0
M  V30 4432 C 444.679 -1.28828 1.55197 0
M  V30 4433 C 444.992 -1.94263 0.228278 0
M  V30 4434 O 446.198 -2.70927 0.176278 0
M  V30 4435 C 444.654 -2.33727 2.73678 0
M  V30 4436 C 444.262 -1.74386 4.12666 0
M  V30 4437 C 446.006 -3.1003 2.89968 0
M  V30 4438 C 443.913 -2.77192 5.22416 0
M  V30 4439 H 442.843 -0.484484 0.577747 0
M  V30 4440 H 445.494 -0.56646 1.74538 0
M  V30 4441 H 443.876 -3.08919 2.4776 0
M  V30 4442 H 445.05 -1.05421 4.48579 0
M  V30 4443 H 443.365 -1.10595 4.01445 0
M  V30 4444 H 445.962 -3.86842 3.6913 0
M  V30 4445 H 446.305 -3.65542 1.9921 0
M  V30 4446 H 446.838 -2.41952 3.15759 0
M  V30 4447 H 443.577 -2.26507 6.15122 0
M  V30 4448 H 443.097 -3.44502 4.90998 0
M  V30 4449 H 444.776 -3.40285 5.50286 0
M  V30 4450 N 444.908 -1.36708 -0.784132 0
M  V30 4451 C 445.856 -1.31533 -1.91838 0
M  V30 4452 C 446.85 -0.206205 -1.6814 0
M  V30 4453 O 448.056 -0.373519 -1.76082 0
M  V30 4454 H 444.431 -0.409613 -0.630651 0
M  V30 4455 H 446.402 -2.2731 -1.9332 0
M  V30 4456 C 445.151 -1.12679 -3.28936 0
M  V30 4457 H 444.474 -1.97274 -3.4774 0
M  V30 4458 H 445.914 -1.13106 -4.08636 0
M  V30 4459 C 444.373 0.168281 -3.36479 0
M  V30 4460 O 444.903 1.15625 -3.84699 0
M  V30 4461 N 443.109 0.214762 -2.89805 0
M  V30 4462 H 442.656 -0.589852 -2.50756 0
M  V30 4463 H 442.614 1.08094 -2.95234 0
M  V30 4464 N 446.386 1.0089 -1.21074 0
M  V30 4465 C 447.635 1.74019 -1.01981 0
M  V30 4466 C 447.948 1.90408 0.447665 0
M  V30 4467 O 449.154 2.60707 0.757906 0
M  V30 4468 C 447.61 3.13026 -1.77603 0
M  V30 4469 C 447.218 3.04623 -3.28495 0
M  V30 4470 C 448.962 3.90312 -1.66904 0
M  V30 4471 C 446.869 4.38685 -3.96623 0
M  V30 4472 H 445.799 0.652422 -0.377971 0
M  V30 4473 H 448.45 1.12755 -1.44771 0
M  V30 4474 H 446.832 3.74878 -1.27604 0
M  V30 4475 H 448.006 2.52032 -3.85767 0
M  V30 4476 H 446.321 2.40827 -3.39693 0
M  V30 4477 H 448.918 4.8951 -2.15138 0
M  V30 4478 H 449.261 4.11558 -0.62658 0
M  V30 4479 H 449.794 3.35104 -2.14359 0
M  V30 4480 H 446.533 4.22641 -5.01054 0
M  V30 4481 H 446.053 4.91252 -3.4414 0
M  V30 4482 H 447.732 5.075 -4.01314 0
M  V30 4483 N 447.864 1.01787 1.20321 0
M  V30 4484 C 449.113 0.703249 1.89043 0
M  V30 4485 C 449.426 -0.770445 1.79787 0
M  V30 4486 O 450.632 -1.19767 2.43656 0
M  V30 4487 C 449.088 1.20749 3.3904 0
M  V30 4488 C 448.696 2.70817 3.56878 0
M  V30 4489 C 450.44 0.968352 4.13308 0
M  V30 4490 C 448.347 3.14716 5.00708 0
M  V30 4491 H 447.277 0.259354 0.707991 0
M  V30 4492 H 449.928 1.23072 1.36108 0
M  V30 4493 H 448.31 0.607989 3.91305 0
M  V30 4494 H 449.484 3.36327 3.14993 0
M  V30 4495 H 447.799 2.92888 2.95983 0
M  V30 4496 H 450.396 1.27173 5.19356 0
M  V30 4497 H 450.739 -0.095149 4.16191 0
M  V30 4498 H 451.272 1.53129 3.67146 0
M  V30 4499 H 448.011 4.20347 5.02979 0
M  V30 4500 H 447.531 2.53927 5.43398 0
M  V30 4501 H 449.21 3.07426 5.69296 0
M  V30 4502 N 449.342 -1.36122 0.79427 0
M  V30 4503 C 450.289 -2.29982 0.194101 0
M  V30 4504 C 451.259 -1.52214 -0.664833 0
M  V30 4505 O 452.444 -1.80702 -0.612498 0
M  V30 4506 C 449.584 -3.38706 -0.661244 0
M  V30 4507 C 448.697 -4.31456 0.216766 0
M  V30 4508 C 447.832 -5.27265 -0.645411 0
M  V30 4509 C 446.871 -6.11653 0.233756 0
M  V30 4510 N 446.008 -6.99636 -0.587682 0
M  V30 4511 H 450.848 -2.80722 0.999965 0
M  V30 4512 H 448.385 -1.38172 0.504677 0
M  V30 4513 H 450.343 -4.00394 -1.17219 0
M  V30 4514 H 448.973 -2.89274 -1.43249 0
M  V30 4515 H 448.025 -3.7088 0.845724 0
M  V30 4516 H 449.337 -4.90724 0.893973 0
M  V30 4517 H 448.491 -5.94266 -1.22198 0
M  V30 4518 H 447.23 -4.68463 -1.35623 0
M  V30 4519 H 446.235 -5.4361 0.82269 0
M  V30 4520 H 447.46 -6.72531 0.942247 0
M  V30 4521 H 445.406 -6.43337 -1.2827 0
M  V30 4522 H 445.323 -7.55993 0.0317402 0
M  V30 4523 H 446.591 -7.71001 -1.14792 0
M  V30 4524 N 450.82 -0.546701 -1.47814 0
M  V30 4525 C 452.048 -0.0232857 -2.06887 0
M  V30 4526 C 452.463 1.26571 -1.4009 0
M  V30 4527 O 451.82 1.7569 -0.493906 0
M  V30 4528 C 451.871 0.186975 -3.61016 0
M  V30 4529 O 451.592 -1.05097 -4.25307 0
M  V30 4530 C 453.093 0.748872 -4.36929 0
M  V30 4531 H 450.313 -0.0410763 -0.669742 0
M  V30 4532 H 452.857 -0.757117 -1.89968 0
M  V30 4533 H 451.012 0.870903 -3.77484 0
M  V30 4534 H 451.426 -0.842121 -5.17695 0
M  V30 4535 H 452.9 0.845334 -5.45489 0
M  V30 4536 H 453.377 1.75772 -4.02493 0
M  V30 4537 H 453.983 0.100979 -4.2518 0
M  V30 4538 N 452.299 1.55045 -0.282633 0
M  V30 4539 C 453.548 1.98938 0.332667 0
M  V30 4540 C 453.861 1.17455 1.56409 0
M  V30 4541 O 455.067 1.51527 2.25282 0
M  V30 4542 C 453.523 3.54105 0.643226 0
M  V30 4543 C 453.131 4.44374 -0.568814 0
M  V30 4544 C 454.875 4.06569 1.22074 0
M  V30 4545 C 452.782 5.90943 -0.232426 0
M  V30 4546 H 451.712 0.743043 0.128075 0
M  V30 4547 H 454.363 1.79341 -0.388464 0
M  V30 4548 H 452.745 3.69532 1.42346 0
M  V30 4549 H 453.919 4.40718 -1.34551 0
M  V30 4550 H 452.234 4.02585 -1.06369 0
M  V30 4551 H 454.831 5.13626 1.48635 0
M  V30 4552 H 455.174 3.56057 2.15707 0
M  V30 4553 H 455.707 3.94612 0.502621 0
M  V30 4554 H 452.446 6.45567 -1.13683 0
M  V30 4555 H 451.966 5.9765 0.507357 0
M  V30 4556 H 453.645 6.4677 0.172657 0
M  V30 4557 N 453.777 0.010035 1.57597 0
M  V30 4558 C 454.709 -1.00649 2.05918 0
M  V30 4559 C 455.722 -1.30077 0.978964 0
M  V30 4560 O 456.911 -1.26878 1.25556 0
M  V30 4561 C 454.011 -2.33876 2.45265 0
M  V30 4562 C 453.184 -2.23242 3.7614 0
M  V30 4563 C 452.243 -3.39242 4.02245 0
M  V30 4564 O 451.269 -3.1698 4.72771 0
M  V30 4565 N 452.471 -4.6242 3.50924 0
M  V30 4566 H 455.236 -0.594333 2.93748 0
M  V30 4567 H 452.797 -0.17714 1.60928 0
M  V30 4568 H 454.789 -3.1027 2.59836 0
M  V30 4569 H 453.359 -2.66799 1.62902 0
M  V30 4570 H 452.579 -1.31696 3.71551 0
M  V30 4571 H 453.867 -2.13321 4.61922 0
M  V30 4572 H 453.265 -4.83404 2.93832 0
M  V30 4573 H 451.822 -5.36046 3.70807 0
M  V30 4574 N 455.255 -1.55392 -0.262866 0
M  V30 4575 C 456.187 -1.85392 -1.34768 0
M  V30 4576 C 457.2 -0.739069 -1.45057 0
M  V30 4577 O 458.389 -1.01703 -1.46693 0
M  V30 4578 C 455.489 -2.01088 -2.72795 0
M  V30 4579 C 454.662 -3.31828 -2.84972 0
M  V30 4580 C 453.721 -3.37464 -4.03738 0
M  V30 4581 O 452.747 -4.10778 -3.94018 0
M  V30 4582 N 453.949 -2.65599 -5.16176 0
M  V30 4583 H 456.714 -2.79029 -1.09375 0
M  V30 4584 H 454.275 -1.55434 -0.452981 0
M  V30 4585 H 456.267 -2.02217 -3.50557 0
M  V30 4586 H 454.837 -1.1427 -2.90966 0
M  V30 4587 H 454.057 -3.43152 -1.94012 0
M  V30 4588 H 455.345 -4.18032 -2.90045 0
M  V30 4589 H 454.743 -2.05736 -5.26962 0
M  V30 4590 H 453.3 -2.72439 -5.92132 0
M  V30 4591 N 456.733 0.527833 -1.48498 0
M  V30 4592 C 457.981 1.28101 -1.56316 0
M  V30 4593 C 458.302 1.9352 -0.239781 0
M  V30 4594 O 457.572 1.81433 0.738849 0
M  V30 4595 H 456.152 0.475793 -0.575873 0
M  V30 4596 H 458.814 0.614052 -1.84974 0
M  V30 4597 H 457.91 2.05916 -2.34532 0
M  V30 4598 N 458.211 1.37122 0.776871 0
M  V30 4599 C 459.121 1.34651 1.9211 0
M  V30 4600 C 460.137 0.246824 1.7224 0
M  V30 4601 O 461.313 0.48134 1.95563 0
M  V30 4602 C 458.378 1.14748 3.2716 0
M  V30 4603 C 457.439 2.34308 3.5972 0
M  V30 4604 C 456.672 2.15345 4.88326 0
M  V30 4605 O 456.895 1.13507 5.58992 0
M  V30 4606 O 455.829 3.03414 5.1983 0
M  V30 4607 H 459.655 2.31013 1.97146 0
M  V30 4608 H 457.24 1.17799 0.918901 0
M  V30 4609 H 459.122 1.05616 4.0795 0
M  V30 4610 H 457.797 0.214562 3.22988 0
M  V30 4611 H 456.704 2.49011 2.79185 0
M  V30 4612 H 458.037 3.26149 3.68629 0
M  V30 4613 N 459.689 -1.00246 1.21608 0
M  V30 4614 C 460.938 -1.73476 1.02902 0
M  V30 4615 C 461.251 -1.90643 -0.437561 0
M  V30 4616 O 462.457 -2.61105 -0.74407 0
M  V30 4617 C 460.913 -3.12079 1.79261 0
M  V30 4618 C 460.521 -3.02877 3.30106 0
M  V30 4619 C 462.265 -3.89421 1.68972 0
M  V30 4620 C 460.172 -4.36575 3.98944 0
M  V30 4621 H 459.102 -0.650408 0.381425 0
M  V30 4622 H 461.753 -1.11985 1.45367 0
M  V30 4623 H 460.135 -3.74196 1.2959 0
M  V30 4624 H 461.309 -2.49983 3.87098 0
M  V30 4625 H 459.624 -2.39022 3.40965 0
M  V30 4626 H 462.221 -4.88362 2.17731 0
M  V30 4627 H 462.564 -4.1122 0.648397 0
M  V30 4628 H 463.097 -3.33963 2.16133 0
M  V30 4629 H 459.836 -4.19978 5.03288 0
M  V30 4630 H 459.356 -4.8942 3.4674 0
M  V30 4631 H 461.035 -5.05364 4.04 0
M  V30 4632 N 461.167 -1.02423 -1.1978 0
M  V30 4633 C 462.397 -0.736387 -1.93031 0
M  V30 4634 C 462.805 0.708023 -1.75453 0
M  V30 4635 O 462.148 1.4927 -1.07071 0
M  V30 4636 C 462.21 -1.00194 -3.45255 0
M  V30 4637 C 461.874 -2.43698 -3.86601 0
M  V30 4638 C 462.871 -3.41814 -3.91738 0
M  V30 4639 C 460.556 -2.77975 -4.18372 0
M  V30 4640 C 462.55 -4.72265 -4.28071 0
M  V30 4641 C 460.237 -4.08636 -4.54378 0
M  V30 4642 C 461.235 -5.05592 -4.59201 0
M  V30 4643 O 460.923 -6.33914 -4.94376 0
M  V30 4644 H 460.655 -0.269116 -0.620123 0
M  V30 4645 H 463.209 -1.37043 -1.52998 0
M  V30 4646 H 461.439 -0.310747 -3.85449 0
M  V30 4647 H 463.128 -0.704488 -3.9974 0
M  V30 4648 H 463.894 -3.16671 -3.67348 0
M  V30 4649 H 459.773 -2.0319 -4.13805 0
M  V30 4650 H 463.317 -5.4794 -4.3175 0
M  V30 4651 H 459.214 -4.33556 -4.78226 0
M  V30 4652 H 459.982 -6.38317 -5.12341 0
M  V30 4653 N 462.645 1.35699 -0.801477 0
M  V30 4654 C 463.592 2.29876 -0.206294 0
M  V30 4655 C 464.562 1.52565 0.656752 0
M  V30 4656 O 465.747 1.81024 0.602906 0
M  V30 4657 C 462.887 3.39052 0.643272 0
M  V30 4658 C 462 4.31335 -0.239644 0
M  V30 4659 C 461.135 5.27599 0.61744 0
M  V30 4660 C 460.174 6.11521 -0.26619 0
M  V30 4661 N 459.311 6.99938 0.550571 0
M  V30 4662 H 464.151 2.80187 -1.01484 0
M  V30 4663 H 461.688 1.37902 -0.511997 0
M  V30 4664 H 463.646 4.0101 1.15094 0
M  V30 4665 H 462.276 2.9003 1.41713 0
M  V30 4666 H 461.328 3.70426 -0.865381 0
M  V30 4667 H 462.64 4.90243 -0.919985 0
M  V30 4668 H 461.794 5.94906 1.19045 0
M  V30 4669 H 460.533 4.69176 1.33137 0
M  V30 4670 H 459.538 5.43166 -0.851507 0
M  V30 4671 H 460.763 6.72022 -0.9779 0
M  V30 4672 H 458.709 6.44008 1.24856 0
M  V30 4673 H 458.626 7.55966 -0.071832 0
M  V30 4674 H 459.894 7.71599 1.10702 0
M  V30 4675 N 464.123 0.554532 1.47522 0
M  V30 4676 C 465.372 0.0273458 2.01681 0
M  V30 4677 C 465.685 -1.32962 1.43459 0
M  V30 4678 O 466.891 -1.94657 1.89265 0
M  V30 4679 C 465.347 -0.00159057 3.599 0
M  V30 4680 C 464.955 1.35197 4.27113 0
M  V30 4681 C 466.699 -0.476311 4.21819 0
M  V30 4682 C 464.606 1.28229 5.77331 0
M  V30 4683 H 463.536 0.00645269 0.753972 0
M  V30 4684 H 466.187 0.701985 1.69542 0
M  V30 4685 H 464.569 -0.741821 3.8899 0
M  V30 4686 H 465.743 2.1097 4.09668 0
M  V30 4687 H 464.058 1.76441 3.77171 0
M  V30 4688 H 466.655 -0.5468 5.31897 0
M  V30 4689 H 466.998 -1.4877 3.8881 0
M  V30 4690 H 467.531 0.20898 3.97251 0
M  V30 4691 H 464.27 2.26959 6.14955 0
M  V30 4692 H 463.79 0.566314 5.97121 0
M  V30 4693 H 465.469 0.983226 6.39485 0
M  V30 4694 N 465.601 -1.54893 0.290851 0
M  V30 4695 C 467.012 -1.85584 -0.203816 0
M  V30 4696 C 467.363 -1.21285 -1.54222 0
M  V30 4697 O 466.488 -0.506841 -2.10381 0
M  V30 4698 C 467.083 -3.367 -0.376595 0
M  V30 4699 C 465.642 -3.6746 -0.815485 0
M  V30 4700 C 464.789 -2.77178 0.0821087 0
M  V30 4701 H 467.74 -1.50208 0.512175 0
M  V30 4702 H 467.761 -3.60656 -1.21275 0
M  V30 4703 H 467.273 -3.8347 0.59767 0
M  V30 4704 H 465.374 -3.26201 -1.80066 0
M  V30 4705 H 465.487 -4.7478 -0.641905 0
M  V30 4706 H 463.851 -2.50925 -0.436895 0
M  V30 4707 H 464.634 -3.26767 1.05254 0
M  V30 4708 N 467.08 -0.0183926 -1.57589 0
M  V30 4709 C 468.043 0.951986 -2.08494 0
M  V30 4710 C 469.043 1.26092 -0.997874 0
M  V30 4711 O 470.233 1.20304 -1.25987 0
M  V30 4712 C 467.365 2.27165 -2.54182 0
M  V30 4713 H 468.558 0.511307 -2.95509 0
M  V30 4714 H 466.111 0.229444 -1.54607 0
M  V30 4715 H 466.846 2.75884 -1.70465 0
M  V30 4716 H 466.631 2.06057 -3.33591 0
M  V30 4717 H 468.121 2.9674 -2.93828 0
M  V30 4718 N 468.558 1.5553 0.254621 0
M  V30 4719 C 469.521 1.88872 1.29846 0
M  V30 4720 C 470.521 0.764591 1.41459 0
M  V30 4721 O 471.711 1.03265 1.40293 0
M  V30 4722 C 468.843 2.11032 2.67728 0
M  V30 4723 H 470.036 2.82201 1.01502 0
M  V30 4724 H 467.589 1.48303 0.493556 0
M  V30 4725 H 468.324 1.20146 3.01223 0
M  V30 4726 H 468.109 2.92895 2.60682 0
M  V30 4727 H 469.599 2.38038 3.43115 0
M  V30 4728 N 470.036 -0.519951 1.48776 0
M  V30 4729 C 470.946 -1.65025 1.66745 0
M  V30 4730 C 471.962 -1.6508 0.549954 0
M  V30 4731 O 473.138 -1.83848 0.822295 0
M  V30 4732 C 470.203 -3.0146 1.71238 0
M  V30 4733 C 469.264 -3.12182 2.94688 0
M  V30 4734 C 468.497 -4.42109 2.98958 0
M  V30 4735 O 468.72 -5.29799 2.1135 0
M  V30 4736 O 467.654 -4.57406 3.91233 0
M  V30 4737 H 471.48 -1.52801 2.62461 0
M  V30 4738 H 469.065 -0.694157 1.32294 0
M  V30 4739 H 470.947 -3.82584 1.76657 0
M  V30 4740 H 469.622 -3.13988 0.786975 0
M  V30 4741 H 468.529 -2.30316 2.94797 0
M  V30 4742 H 469.862 -3.04574 3.86646 0
M  V30 4743 N 471.514 -1.37532 -0.769588 0
M  V30 4744 C 472.462 -1.33561 -1.90432 0
M  V30 4745 C 473.456 -0.224027 -1.67912 0
M  V30 4746 O 474.662 -0.392174 -1.75676 0
M  V30 4747 H 471.037 -0.416279 -0.626271 0
M  V30 4748 H 473.008 -2.29348 -1.90899 0
M  V30 4749 C 471.757 -1.16162 -3.27722 0
M  V30 4750 H 471.08 -2.00951 -3.45628 0
M  V30 4751 H 472.52 -1.17434 -4.07413 0
M  V30 4752 C 470.979 0.132583 -3.36639 0
M  V30 4753 O 471.509 1.11539 -3.85904 0
M  V30 4754 N 469.715 0.184013 -2.90017 0
M  V30 4755 H 469.262 -0.616415 -2.50116 0
M  V30 4756 H 469.22 1.04956 -2.96364 0
M  V30 4757 N 472.992 0.995999 -1.22138 0
M  V30 4758 C 473.94 2.10673 -0.985876 0
M  V30 4759 C 474.934 1.69255 0.0699553 0
M  V30 4760 O 476.14 1.79812 -0.0822176 0
M  V30 4761 H 472.515 0.688865 -0.30161 0
M  V30 4762 H 474.486 2.27711 -1.92848 0
M  V30 4763 C 473.235 3.42881 -0.576909 0
M  V30 4764 H 472.558 3.75191 -1.38101 0
M  V30 4765 H 473.998 4.21589 -0.451518 0
M  V30 4766 C 472.457 3.29265 0.713196 0
M  V30 4767 O 472.987 3.60777 1.76643 0
M  V30 4768 N 471.193 2.82456 0.683162 0
M  V30 4769 H 470.74 2.5701 -0.174242 0
M  V30 4770 H 470.698 2.73727 1.54663 0
M  V30 4771 N 474.47 1.03057 1.19235 0
M  V30 4772 C 475.881 0.757449 1.70645 0
M  V30 4773 C 476.232 -0.722735 1.82403 0
M  V30 4774 O 475.357 -1.56325 1.49638 0
M  V30 4775 C 475.952 1.36833 3.09939 0
M  V30 4776 C 474.511 1.14375 3.58602 0
M  V30 4777 C 473.658 1.46533 2.35422 0
M  V30 4778 H 476.609 1.19828 1.04052 0
M  V30 4779 H 476.63 0.766184 3.72706 0
M  V30 4780 H 476.142 2.44562 3.01349 0
M  V30 4781 H 474.243 0.0847542 3.72504 0
M  V30 4782 H 474.356 1.83366 4.42622 0
M  V30 4783 H 472.72 0.884712 2.38841 0
M  V30 4784 H 473.503 2.55349 2.2946 0
M  V30 4785 N 475.948 -1.35272 0.808662 0
M  V30 4786 C 477.195 -1.98709 0.390003 0
M  V30 4787 C 477.523 -1.64148 -1.04335 0
M  V30 4788 O 476.778 -0.897797 -1.73891 0
M  V30 4789 C 477.077 -3.53556 0.522798 0
M  V30 4790 C 476.743 -4.0799 1.91977 0
M  V30 4791 C 475.405 -4.22568 2.30195 0
M  V30 4792 C 477.757 -4.37442 2.83361 0
M  V30 4793 C 475.085 -4.63918 3.59162 0
M  V30 4794 C 477.437 -4.80232 4.11776 0
M  V30 4795 C 476.101 -4.93016 4.49991 0
M  V30 4796 H 475.371 -0.727127 0.142712 0
M  V30 4797 H 478.018 -1.6145 1.02985 0
M  V30 4798 H 476.323 -3.91287 -0.200494 0
M  V30 4799 H 478.02 -4.00598 0.179608 0
M  V30 4800 H 474.61 -3.97096 1.61284 0
M  V30 4801 H 478.794 -4.25731 2.55083 0
M  V30 4802 H 474.05 -4.72005 3.88615 0
M  V30 4803 H 478.224 -5.01982 4.82687 0
M  V30 4804 H 475.851 -5.24814 5.49976 0
M  V30 4805 N 477.426 -0.562348 -1.47226 0
M  V30 4806 C 478.356 0.170627 -2.32876 0
M  V30 4807 C 479.337 0.903748 -1.44106 0
M  V30 4808 O 480.522 0.883206 -1.72954 0
M  V30 4809 C 477.652 1.19786 -3.25989 0
M  V30 4810 C 476.606 0.580875 -4.2404 0
M  V30 4811 C 475.932 1.71311 -5.06514 0
M  V30 4812 C 477.232 -0.468714 -5.20193 0
M  V30 4813 H 478.926 -0.544441 -2.94408 0
M  V30 4814 H 476.472 -0.263271 -1.41573 0
M  V30 4815 H 478.425 1.71884 -3.84752 0
M  V30 4816 H 477.149 1.94294 -2.62521 0
M  V30 4817 H 475.808 0.0811538 -3.6651 0
M  V30 4818 H 475.456 2.44736 -4.39447 0
M  V30 4819 H 475.156 1.30604 -5.72902 0
M  V30 4820 H 476.68 2.23725 -5.68137 0
M  V30 4821 H 478.094 -0.0336028 -5.7329 0
M  V30 4822 H 476.491 -0.794957 -5.94811 0
M  V30 4823 H 477.561 -1.36269 -4.65359 0
M  V30 4824 N 478.904 1.54736 -0.299062 0
M  V30 4825 C 480.15 2.00397 0.311244 0
M  V30 4826 C 480.483 1.18716 1.53688 0
M  V30 4827 O 479.758 0.263154 1.92712 0
M  V30 4828 C 480.041 3.53817 0.669761 0
M  V30 4829 C 479.894 4.46239 -0.564882 0
M  V30 4830 C 481.213 4.13856 1.49702 0
M  V30 4831 H 478.332 0.728493 0.111653 0
M  V30 4832 H 480.974 1.85506 -0.410774 0
M  V30 4833 H 479.124 3.66637 1.28491 0
M  V30 4834 H 480.796 4.45328 -1.20337 0
M  V30 4835 H 479.039 4.16916 -1.19849 0
M  V30 4836 H 479.71 5.5134 -0.269918 0
M  V30 4837 H 482.186 4.04461 0.977284 0
M  V30 4838 H 481.062 5.21365 1.71666 0
M  V30 4839 H 481.323 3.65608 2.48563 0
M  V30 4840 N 480.382 0.0267497 1.57577 0
M  V30 4841 C 481.63 -0.651116 1.91324 0
M  V30 4842 C 481.951 -1.72804 0.90353 0
M  V30 4843 O 481.221 -1.95822 -0.0552946 0
M  V30 4844 H 479.801 -0.243491 0.706202 0
M  V30 4845 H 482.463 0.0739935 1.94759 0
M  V30 4846 H 481.559 -1.10536 2.9187 0
M  V30 4847 N 481.861 -1.55662 -0.24637 0
M  V30 4848 C 482.794 -1.85332 -1.33143 0
M  V30 4849 C 483.772 -0.708464 -1.46354 0
M  V30 4850 O 484.956 -0.954274 -1.6256 0
M  V30 4851 C 482.083 -2.0385 -2.70487 0
M  V30 4852 C 481.129 -3.26488 -2.74423 0
M  V30 4853 S 481.962 -4.83124 -2.30979 0
M  V30 4854 C 483.118 -5.04647 -3.70246 0
M  V30 4855 H 483.351 -2.77077 -1.07777 0
M  V30 4856 H 480.884 -1.47776 -0.44738 0
M  V30 4857 H 482.842 -2.15202 -3.49569 0
M  V30 4858 H 481.503 -1.12947 -2.9309 0
M  V30 4859 H 480.696 -3.36413 -3.7529 0
M  V30 4860 H 480.298 -3.13864 -2.03385 0
M  V30 4861 H 482.59 -4.92023 -4.65746 0
M  V30 4862 H 483.533 -6.06625 -3.65255 0
M  V30 4863 H 483.941 -4.32491 -3.62784 0
M  V30 4864 N 483.339 0.512053 -1.4905 0
M  V30 4865 C 484.289 1.61142 -1.61298 0
M  V30 4866 C 485.273 1.53908 -0.46916 0
M  V30 4867 O 486.465 1.61625 -0.721547 0
M  V30 4868 C 483.594 2.998 -1.67256 0
M  V30 4869 C 482.68 3.12072 -2.87179 0
M  V30 4870 N 483.071 2.94263 -4.11391 0
M  V30 4871 C 481.369 3.43156 -2.84886 0
M  V30 4872 C 482.07 3.10426 -4.91946 0
M  V30 4873 N 481.046 3.38808 -4.251 0
M  V30 4874 H 484.848 1.46011 -2.55065 0
M  V30 4875 H 482.362 0.717934 -1.45669 0
M  V30 4876 H 484.359 3.78794 -1.74128 0
M  V30 4877 H 483.019 3.1601 -0.746195 0
M  V30 4878 H 484.03 2.70661 -4.41546 0
M  V30 4879 H 480.707 3.65611 -2.01581 0
M  V30 4880 H 482.097 3.01243 -6.00585 0
M  V30 4881 N 484.817 1.37938 0.762283 0
M  V30 4882 C 486.057 1.35076 1.53407 0
M  V30 4883 C 486.421 -0.061546 1.91901 0
M  V30 4884 O 487.622 -0.214973 2.67939 0
M  V30 4885 C 485.893 2.27206 2.75884 0
M  V30 4886 S 487.452 2.42283 3.65848 0
M  V30 4887 H 484.27 0.479387 0.52508 0
M  V30 4888 H 486.872 1.7378 0.895586 0
M  V30 4889 H 485.576 3.28724 2.457 0
M  V30 4890 H 485.107 1.8962 3.44685 0
M  V30 4891 H 487.122 1.64044 4.68299 0
M  V30 4892 N 486.295 -0.989507 1.22664 0
M  V30 4893 C 487.541 -1.73298 1.06487 0
M  V30 4894 C 487.896 -1.88292 -0.395438 0
M  V30 4895 O 487.189 -1.41748 -1.28911 0
M  V30 4896 C 487.383 -3.13649 1.71345 0
M  V30 4897 C 487.212 -3.12341 3.23532 0
M  V30 4898 C 485.982 -3.18044 3.92653 0
M  V30 4899 C 488.18 -2.96226 4.20422 0
M  V30 4900 N 486.162 -3.06526 5.31898 0
M  V30 4901 C 487.533 -2.92773 5.4652 0
M  V30 4902 C 489.588 -2.80642 4.11271 0
M  V30 4903 C 488.291 -2.75332 6.64519 0
M  V30 4904 C 490.317 -2.64563 5.28924 0
M  V30 4905 C 489.679 -2.618 6.53942 0
M  V30 4906 H 485.778 -0.643643 0.444126 0
M  V30 4907 H 488.362 -1.17489 1.55256 0
M  V30 4908 H 486.533 -3.67694 1.25122 0
M  V30 4909 H 488.265 -3.76577 1.48229 0
M  V30 4910 H 485.02 -3.25861 3.43673 0
M  V30 4911 H 485.444 -3.04067 6.04874 0
M  V30 4912 H 490.086 -2.81574 3.15398 0
M  V30 4913 H 487.804 -2.73145 7.60538 0
M  V30 4914 H 491.39 -2.53482 5.23677 0
M  V30 4915 H 490.27 -2.49511 7.43447 0
M  V30 4916 N 487.773 -1.03688 -1.18687 0
M  V30 4917 C 489.003 -0.756819 -1.92239 0
M  V30 4918 C 489.411 0.689374 -1.76194 0
M  V30 4919 O 488.754 1.48126 -1.08648 0
M  V30 4920 C 488.816 -1.03851 -3.44173 0
M  V30 4921 C 488.48 -2.47785 -3.83994 0
M  V30 4922 C 489.477 -3.4595 -3.88091 0
M  V30 4923 C 487.162 -2.82397 -4.154 0
M  V30 4924 C 489.156 -4.76779 -4.23038 0
M  V30 4925 C 486.843 -4.13433 -4.50018 0
M  V30 4926 C 487.841 -5.10434 -4.53813 0
M  V30 4927 O 487.529 -6.39122 -4.87625 0
M  V30 4928 H 487.261 -0.275678 -0.617234 0
M  V30 4929 H 489.815 -1.38658 -1.51536 0
M  V30 4930 H 488.045 -0.351612 -3.85098 0
M  V30 4931 H 489.734 -0.746846 -3.9897 0
M  V30 4932 H 490.5 -3.20549 -3.63969 0
M  V30 4933 H 486.379 -2.07568 -4.11627 0
M  V30 4934 H 489.923 -5.52488 -4.25914 0
M  V30 4935 H 485.82 -4.38604 -4.736 0
M  V30 4936 H 486.588 -6.43715 -5.05542 0
M  V30 4937 N 489.251 1.34841 -0.815825 0
M  V30 4938 C 490.476 2.03261 -0.41226 0
M  V30 4939 C 490.901 1.61055 0.971751 0
M  V30 4940 O 490.259 0.7917 1.63101 0
M  V30 4941 C 490.307 3.56914 -0.514289 0
M  V30 4942 O 489.411 4.09728 0.468675 0
M  V30 4943 H 488.752 0.641664 -0.170771 0
M  V30 4944 H 491.282 1.72241 -1.10427 0
M  V30 4945 H 491.292 4.06156 -0.387457 0
M  V30 4946 H 489.967 3.86982 -1.52375 0
M  V30 4947 H 488.544 3.71681 0.301316 0
M  V30 4948 N 490.729 0.570148 1.46925 0
M  V30 4949 C 491.954 0.0542592 2.07329 0
M  V30 4950 C 492.379 -1.23582 1.41806 0
M  V30 4951 O 491.737 -1.74341 0.497479 0
M  V30 4952 C 491.785 -0.111175 3.60429 0
M  V30 4953 O 490.889 -1.17071 3.95434 0
M  V30 4954 H 490.23 0.0571425 0.661537 0
M  V30 4955 H 492.76 0.789516 1.88753 0
M  V30 4956 H 492.77 -0.321315 4.06733 0
M  V30 4957 H 491.445 0.831012 4.07513 0
M  V30 4958 H 490.022 -0.940029 3.60857 0
M  V30 4959 N 492.207 -1.54576 0.307264 0
M  V30 4960 C 493.437 -2.04378 -0.302158 0
M  V30 4961 C 493.845 -1.18381 -1.47589 0
M  V30 4962 O 493.188 -0.20352 -1.82569 0
M  V30 4963 C 493.25 -3.50133 -0.815305 0
M  V30 4964 C 492.914 -4.56401 0.233977 0
M  V30 4965 C 493.911 -5.08884 1.06456 0
M  V30 4966 C 491.596 -5.0088 0.377478 0
M  V30 4967 C 493.59 -6.04394 2.02452 0
M  V30 4968 C 491.277 -5.96208 1.34088 0
M  V30 4969 C 492.275 -6.47849 2.16288 0
M  V30 4970 O 491.963 -7.41308 3.10994 0
M  V30 4971 H 491.695 -0.672502 -0.0686839 0
M  V30 4972 H 494.249 -2.00484 0.446682 0
M  V30 4973 H 492.479 -3.51371 -1.61478 0
M  V30 4974 H 494.168 -3.83098 -1.34129 0
M  V30 4975 H 494.934 -4.75311 0.964596 0
M  V30 4976 H 490.813 -4.60309 -0.252405 0
M  V30 4977 H 494.357 -6.44626 2.66652 0
M  V30 4978 H 490.254 -6.29198 1.44154 0
M  V30 4979 H 491.022 -7.5913 3.06045 0
M  V30 4980 N 493.685 -0.035106 -1.57561 0
M  V30 4981 C 494.91 0.655802 -1.96759 0
M  V30 4982 C 495.335 1.64523 -0.911809 0
M  V30 4983 O 494.693 1.80857 0.126673 0
M  V30 4984 C 494.741 1.33326 -3.35047 0
M  V30 4985 O 493.845 2.44866 -3.31835 0
M  V30 4986 H 493.186 0.171807 -0.641388 0
M  V30 4987 H 495.716 -0.0987369 -2.04362 0
M  V30 4988 H 495.726 1.68867 -3.71413 0
M  V30 4989 H 494.401 0.608033 -4.11431 0
M  V30 4990 H 492.978 2.11392 -3.07193 0
M  V30 4991 N 495.163 1.55791 0.238111 0
M  V30 4992 C 496.113 1.87444 1.29803 0
M  V30 4993 C 497.097 0.736043 1.43078 0
M  V30 4994 O 498.289 0.998146 1.46171 0
M  V30 4995 C 495.418 2.18028 2.65177 0
M  V30 4996 C 494.504 3.38217 2.55871 0
M  V30 4997 N 494.895 4.57264 2.16202 0
M  V30 4998 C 493.193 3.41502 2.86866 0
M  V30 4999 C 493.894 5.3941 2.17744 0
M  V30 5000 N 492.87 4.78695 2.57589 0
M  V30 5001 H 496.672 2.7701 0.981965 0
M  V30 5002 H 494.186 1.56135 0.44672 0
M  V30 5003 H 496.183 2.38873 3.4168 0
M  V30 5004 H 494.843 1.29765 2.97643 0
M  V30 5005 H 495.854 4.82727 1.87602 0
M  V30 5006 H 492.531 2.63536 3.23813 0
M  V30 5007 H 493.921 6.44671 1.89339 0
M  V30 5008 N 496.642 -0.504142 1.49319 0
M  V30 5009 C 498.058 -0.835039 1.36012 0
M  V30 5010 C 498.258 -1.97674 0.390808 0
M  V30 5011 O 497.314 -2.51867 -0.178655 0
M  V30 5012 C 498.627 -1.17821 2.76656 0
M  V30 5013 C 500.175 -1.2866 2.85334 0
M  V30 5014 C 500.65 -1.66307 4.26739 0
M  V30 5015 N 502.141 -1.73362 4.29534 0
M  V30 5016 C 502.876 -2.0393 5.35911 0
M  V30 5017 N 502.372 -2.32744 6.52535 0
M  V30 5018 N 504.165 -2.05155 5.23324 0
M  V30 5019 H 496.316 0.248764 2.10938 0
M  V30 5020 H 498.579 0.0486962 0.946748 0
M  V30 5021 H 498.285 -0.412682 3.4927 0
M  V30 5022 H 498.159 -2.12239 3.11825 0
M  V30 5023 H 500.546 -2.04285 2.1296 0
M  V30 5024 H 500.627 -0.323004 2.53752 0
M  V30 5025 H 500.271 -0.91234 4.99639 0
M  V30 5026 H 500.201 -2.63761 4.55782 0
M  V30 5027 H 502.692 -1.53268 3.45424 0
M  V30 5028 H 503.005 -2.55248 7.2943 0
M  V30 5029 H 501.35 -2.30207 6.55767 0
M  V30 5030 H 504.541 -1.82119 4.3122 0
M  V30 5031 H 504.714 -2.28644 6.06322 0
M  V30 5032 N 498.12 -1.38341 -0.754957 0
M  V30 5033 C 499.348 -1.37704 -1.54419 0
M  V30 5034 C 499.763 0.0335243 -1.8877 0
M  V30 5035 O 499.12 0.999773 -1.52679 0
M  V30 5036 C 499.171 -2.23136 -2.84416 0
M  V30 5037 O 498.892 -3.58697 -2.51531 0
M  V30 5038 C 500.393 -2.30664 -3.78562 0
M  V30 5039 H 497.613 -0.471061 -0.477852 0
M  V30 5040 H 500.157 -1.81902 -0.934446 0
M  V30 5041 H 498.312 -1.82403 -3.41772 0
M  V30 5042 H 498.726 -4.03665 -3.34896 0
M  V30 5043 H 500.2 -2.9473 -4.66732 0
M  V30 5044 H 500.677 -1.3199 -4.18898 0
M  V30 5045 H 501.283 -2.71781 -3.27131 0
M  V30 5046 N 499.598 0.982988 -1.23187 0
M  V30 5047 C 500.53 2.07729 -0.968572 0
M  V30 5048 C 501.543 1.62702 0.0564821 0
M  V30 5049 O 502.732 1.77603 -0.178733 0
M  V30 5050 C 499.832 3.36071 -0.436974 0
M  V30 5051 C 499.005 4.10081 -1.52159 0
M  V30 5052 C 498.064 5.16701 -0.99532 0
M  V30 5053 O 497.09 5.43727 -1.68373 0
M  V30 5054 N 498.292 5.80226 0.178192 0
M  V30 5055 H 501.057 2.30894 -1.9107 0
M  V30 5056 H 498.618 1.14949 -1.1401 0
M  V30 5057 H 500.61 4.04639 -0.0700051 0
M  V30 5058 H 499.18 3.09893 0.410509 0
M  V30 5059 H 498.4 3.36004 -2.06144 0
M  V30 5060 H 499.688 4.56295 -2.25105 0
M  V30 5061 H 499.086 5.60651 0.754096 0
M  V30 5062 H 497.643 6.49982 0.486449 0
M  V30 5063 N 501.076 1.04316 1.18135 0
M  V30 5064 C 502.026 0.606731 2.19779 0
M  V30 5065 C 503.01 -0.352144 1.56999 0
M  V30 5066 O 504.202 -0.170795 1.76174 0
M  V30 5067 C 501.331 -0.0262443 3.4329 0
M  V30 5068 C 500.417 0.955928 4.13186 0
M  V30 5069 N 500.808 2.12395 4.59045 0
M  V30 5070 C 499.106 0.782473 4.39082 0
M  V30 5071 C 499.807 2.74458 5.12882 0
M  V30 5072 N 498.783 2.02316 5.04548 0
M  V30 5073 H 502.585 1.49679 2.5293 0
M  V30 5074 H 500.099 0.912088 1.34368 0
M  V30 5075 H 502.096 -0.356617 4.15372 0
M  V30 5076 H 500.756 -0.911811 3.11635 0
M  V30 5077 H 501.767 2.50272 4.53414 0
M  V30 5078 H 498.444 -0.0527906 4.17467 0
M  V30 5079 H 499.834 3.73459 5.5855 0
M  V30 5080 N 502.554 -1.34406 0.822964 0
M  V30 5081 C 503.794 -2.00103 0.416915 0
M  V30 5082 C 504.158 -1.63826 -1.00125 0
M  V30 5083 O 505.359 -2.22367 -1.51018 0
M  V30 5084 C 503.63 -3.52101 0.613151 0
M  V30 5085 S 505.189 -4.37774 0.299956 0
M  V30 5086 H 502.007 -0.69333 0.157527 0
M  V30 5087 H 504.609 -1.63698 1.06879 0
M  V30 5088 H 503.313 -3.75991 1.64496 0
M  V30 5089 H 502.844 -3.93364 -0.0534554 0
M  V30 5090 H 504.859 -4.8822 -0.886336 0
M  V30 5091 N 504.032 -0.577932 -1.46621 0
M  V30 5092 C 504.98 0.170882 -2.31971 0
M  V30 5093 C 505.974 0.889086 -1.44193 0
M  V30 5094 O 507.18 0.808017 -1.60845 0
M  V30 5095 H 503.555 0.0739763 -0.748353 0
M  V30 5096 H 505.526 -0.567856 -2.92947 0
M  V30 5097 C 504.275 1.17438 -3.27267 0
M  V30 5098 H 503.598 0.63116 -3.94787 0
M  V30 5099 H 505.038 1.66882 -3.89778 0
M  V30 5100 C 503.497 2.23292 -2.52274 0
M  V30 5101 O 504.027 3.30567 -2.28229 0
M  V30 5102 N 502.233 1.97772 -2.12919 0
M  V30 5103 H 501.78 1.10545 -2.32675 0
M  V30 5104 H 501.738 2.68809 -1.63062 0
M  V30 5105 N 505.51 1.54411 -0.315457 0
M  V30 5106 C 506.756 2.00716 0.289972 0
M  V30 5107 C 507.089 1.2034 1.5242 0
M  V30 5108 O 506.364 0.283579 1.92422 0
M  V30 5109 C 506.647 3.54507 0.632196 0
M  V30 5110 C 506.5 4.45615 -0.61218 0
M  V30 5111 C 507.819 4.15421 1.45305 0
M  V30 5112 H 504.938 0.729637 0.10392 0
M  V30 5113 H 507.58 1.8506 -0.430427 0
M  V30 5114 H 505.73 3.67979 1.24595 0
M  V30 5115 H 507.402 4.44026 -1.25053 0
M  V30 5116 H 505.645 4.15621 -1.24264 0
M  V30 5117 H 506.316 5.51022 -0.328379 0
M  V30 5118 H 508.792 4.05474 0.934331 0
M  V30 5119 H 507.668 5.23157 1.66127 0
M  V30 5120 H 507.929 3.68223 2.44671 0
M  V30 5121 N 506.988 0.0434614 1.5754 0
M  V30 5122 C 508.228 -0.636023 1.94253 0
M  V30 5123 C 508.592 -1.68461 0.921132 0
M  V30 5124 O 509.793 -2.41762 1.17494 0
M  V30 5125 C 508.064 -1.22357 3.35803 0
M  V30 5126 S 509.623 -1.92213 3.94461 0
M  V30 5127 H 506.441 -0.209041 0.679575 0
M  V30 5128 H 509.043 0.110556 1.95187 0
M  V30 5129 H 507.747 -0.448162 4.07946 0
M  V30 5130 H 507.278 -2.00713 3.38346 0
M  V30 5131 H 509.293 -3.20199 3.79061 0
M  V30 5132 N 508.466 -1.55915 -0.229846 0
M  V30 5133 C 509.882 -1.48721 -0.579166 0
M  V30 5134 C 510.082 -0.736976 -1.87539 0
M  V30 5135 O 509.138 -0.273258 -2.51017 0
M  V30 5136 C 510.451 -2.9323 -0.666082 0
M  V30 5137 C 511.999 -3.03701 -0.757267 0
M  V30 5138 C 512.474 -4.49552 -0.8756 0
M  V30 5139 N 513.965 -4.53561 -0.940035 0
M  V30 5140 C 514.7 -5.63683 -1.05116 0
M  V30 5141 N 514.196 -6.83576 -1.12675 0
M  V30 5142 N 515.989 -5.51516 -1.08565 0
M  V30 5143 H 508.14 -2.03123 0.620857 0
M  V30 5144 H 510.403 -0.922898 0.21671 0
M  V30 5145 H 510.109 -3.51032 0.21664 0
M  V30 5146 H 509.983 -3.44668 -1.53243 0
M  V30 5147 H 512.37 -2.45969 -1.63043 0
M  V30 5148 H 512.451 -2.55446 0.134583 0
M  V30 5149 H 512.095 -5.079 -0.00692351 0
M  V30 5150 H 512.025 -4.95506 -1.78274 0
M  V30 5151 H 514.516 -3.67215 -0.892269 0
M  V30 5152 H 514.829 -7.63251 -1.21109 0
M  V30 5153 H 513.174 -6.86303 -1.09603 0
M  V30 5154 H 516.365 -4.5678 -1.02319 0
M  V30 5155 H 516.538 -6.37372 -1.1688 0
M  V30 5156 N 509.944 0.496216 -1.49584 0
M  V30 5157 C 510.854 1.62352 -1.69349 0
M  V30 5158 C 511.87 1.64184 -0.576147 0
M  V30 5159 O 513.046 1.82517 -0.85144 0
M  V30 5160 C 510.111 2.98698 -1.76013 0
M  V30 5161 C 509.172 3.07454 -2.99617 0
M  V30 5162 C 508.405 4.37296 -3.05953 0
M  V30 5163 O 508.628 5.2637 -2.19752 0
M  V30 5164 O 507.562 4.51124 -3.9846 0
M  V30 5165 H 511.388 1.48606 -2.64859 0
M  V30 5166 H 508.973 0.673022 -1.33382 0
M  V30 5167 H 510.855 3.79725 -1.82721 0
M  V30 5168 H 509.53 3.12696 -0.836828 0
M  V30 5169 H 508.437 2.25597 -2.98424 0
M  V30 5170 H 509.77 2.98385 -3.91443 0
M  V30 5171 N 511.423 1.38739 0.74761 0
M  V30 5172 C 512.648 1.38702 1.54197 0
M  V30 5173 C 513.073 -0.019664 1.8809 0
M  V30 5174 O 512.431 -1.00333 1.51006 0
M  V30 5175 C 512.479 2.25492 2.814 0
M  V30 5176 O 511.583 1.67613 3.76802 0
M  V30 5177 H 510.924 0.472863 0.466151 0
M  V30 5178 H 513.454 1.82577 0.923413 0
M  V30 5179 H 513.464 2.39561 3.30264 0
M  V30 5180 H 512.139 3.27727 2.56062 0
M  V30 5181 H 510.716 1.62718 3.35526 0
M  V30 5182 N 512.901 -0.976442 1.23707 0
M  V30 5183 C 514.15 -1.71254 1.06559 0
M  V30 5184 C 514.463 -1.91528 -0.397024 0
M  V30 5185 O 515.669 -2.62625 -0.688518 0
M  V30 5186 C 514.125 -3.08207 1.8584 0
M  V30 5187 C 513.733 -2.95806 3.36456 0
M  V30 5188 C 515.477 -3.85749 1.77194 0
M  V30 5189 C 513.384 -4.28015 4.08114 0
M  V30 5190 H 512.314 -0.642171 0.395136 0
M  V30 5191 H 514.965 -1.08877 1.4771 0
M  V30 5192 H 513.347 -3.71363 1.37498 0
M  V30 5193 H 514.521 -2.41716 3.92314 0
M  V30 5194 H 512.836 -2.31736 3.45959 0
M  V30 5195 H 515.433 -4.83633 2.28041 0
M  V30 5196 H 515.776 -4.09752 0.735477 0
M  V30 5197 H 516.309 -3.29303 2.23169 0
M  V30 5198 H 513.048 -4.09208 5.12083 0
M  V30 5199 H 512.568 -4.81955 3.57043 0
M  V30 5200 H 514.247 -4.96681 4.14629 0
M  V30 5201 N 514.379 -1.04941 -1.1758 0
M  V30 5202 C 515.79 -0.784501 -1.69418 0
M  V30 5203 C 516.141 0.693625 -1.8353 0
M  V30 5204 O 515.266 1.53925 -1.52106 0
M  V30 5205 C 515.861 -1.41746 -3.07723 0
M  V30 5206 C 514.42 -1.20066 -3.56737 0
M  V30 5207 C 513.567 -1.5026 -2.33061 0
M  V30 5208 H 516.518 -1.21469 -1.02133 0
M  V30 5209 H 516.539 -0.825381 -3.7144 0
M  V30 5210 H 516.051 -2.49325 -2.9742 0
M  V30 5211 H 514.152 -0.144006 -3.72322 0
M  V30 5212 H 514.265 -1.90384 -4.39648 0
M  V30 5213 H 512.629 -0.922598 -2.37403 0
M  V30 5214 H 513.412 -2.58967 -2.25368 0
M  V30 5215 N 515.857 1.33968 -0.830081 0
M  V30 5216 C 516.82 2.27694 -0.26235 0
M  V30 5217 C 517.82 1.50589 0.563876 0
M  V30 5218 O 519.01 1.70028 0.378941 0
M  V30 5219 C 516.142 3.35002 0.63138 0
M  V30 5220 H 517.335 2.79419 -1.08928 0
M  V30 5221 H 514.888 1.44221 -0.602486 0
M  V30 5222 H 515.623 2.88504 1.48109 0
M  V30 5223 H 515.408 3.92079 0.0403276 0
M  V30 5224 H 516.898 4.04897 1.02217 0
M  V30 5225 N 517.335 0.585699 1.46312 0
M  V30 5226 C 518.265 -0.133556 2.33118 0
M  V30 5227 C 519.246 -0.880707 1.45525 0
M  V30 5228 O 520.431 -0.855579 1.74337 0
M  V30 5229 C 517.561 -1.14585 3.27853 0
M  V30 5230 C 516.515 -0.513341 4.2491 0
M  V30 5231 C 515.841 -1.63231 5.09175 0
M  V30 5232 C 517.141 0.551413 5.19381 0
M  V30 5233 H 518.835 0.59121 2.93505 0
M  V30 5234 H 516.381 0.285761 1.41136 0
M  V30 5235 H 518.334 -1.65741 3.87438 0
M  V30 5236 H 517.058 -1.90093 2.65579 0
M  V30 5237 H 515.717 -0.0228349 3.66593 0
M  V30 5238 H 515.365 -2.37713 4.43285 0
M  V30 5239 H 515.065 -1.21473 5.74907 0
M  V30 5240 H 516.589 -2.14658 5.71624 0
M  V30 5241 H 518.003 0.124804 5.73164 0
M  V30 5242 H 516.4 0.889486 5.93471 0
M  V30 5243 H 517.47 1.43655 4.63132 0
M  V30 5244 N 518.813 -1.54241 0.323641 0
M  V30 5245 C 520.038 -2.05452 -0.283605 0
M  V30 5246 C 520.463 -1.19823 -1.44997 0
M  V30 5247 O 519.821 -0.207358 -1.8011 0
M  V30 5248 C 519.869 -3.53823 -0.695795 0
M  V30 5249 O 518.973 -3.71134 -1.79815 0
M  V30 5250 H 518.314 -0.662024 -0.0511917 0
M  V30 5251 H 520.844 -1.99079 0.472073 0
M  V30 5252 H 520.854 -3.96094 -0.978434 0
M  V30 5253 H 519.529 -4.15602 0.157287 0
M  V30 5254 H 518.106 -3.40768 -1.51431 0
M  V30 5255 N 520.291 -0.0518155 -1.57515 0
M  V30 5256 C 521.707 0.304735 -1.56664 0
M  V30 5257 C 521.907 1.71395 -1.05953 0
M  V30 5258 O 520.963 2.42123 -0.716414 0
M  V30 5259 C 522.276 0.132614 -3.00407 0
M  V30 5260 C 523.824 0.20367 -3.12337 0
M  V30 5261 C 524.299 0.0600706 -4.57961 0
M  V30 5262 N 525.79 0.116326 -4.63054 0
M  V30 5263 C 526.525 0.0293363 -5.73392 0
M  V30 5264 N 526.021 -0.110038 -6.92713 0
M  V30 5265 N 527.814 0.0849651 -5.62036 0
M  V30 5266 H 519.965 -0.973056 -1.888 0
M  V30 5267 H 522.228 -0.377781 -0.869474 0
M  V30 5268 H 521.934 -0.839019 -3.41546 0
M  V30 5269 H 521.808 0.893376 -3.66468 0
M  V30 5270 H 524.195 1.16578 -2.71097 0
M  V30 5271 H 524.276 -0.587857 -2.48954 0
M  V30 5272 H 523.92 -0.898715 -4.99886 0
M  V30 5273 H 523.85 0.87075 -5.19351 0
M  V30 5274 H 526.341 0.22327 -3.7724 0
M  V30 5275 H 526.654 -0.169104 -7.72615 0
M  V30 5276 H 524.999 -0.145132 -6.94848 0
M  V30 5277 H 528.19 0.192411 -4.67704 0
M  V30 5278 H 528.363 0.0137131 -6.47999 0
M  V30 5279 N 521.769 1.56035 0.221574 0
M  V30 5280 C 523.046 1.69837 0.970301 0
M  V30 5281 C 523.426 0.599065 2.02421 0
M  V30 5282 O 522.774 -0.393929 2.25079 0
M  V30 5283 C 522.984 3.11148 1.58076 0
M  V30 5284 C 524.332 3.70555 2.07302 0
M  V30 5285 O 525.356 3.14109 1.6797 0
M  V30 5286 O 524.215 4.69562 2.79596 0
M  V30 5287 H 521.309 0.691727 0.453257 0
M  V30 5288 H 523.855 1.68353 0.213358 0
M  V30 5289 H 522.627 3.82617 0.819759 0
M  V30 5290 H 522.25 3.16749 2.40324 0
M  V30 5291 N 523.247 -0.488276 1.49845 0
M  V30 5292 C 524.21 -1.57069 1.66919 0
M  V30 5293 C 525.21 -1.51445 0.540479 0
M  V30 5294 O 526.4 -1.5437 0.807188 0
M  V30 5295 C 523.532 -2.96718 1.67844 0
M  V30 5296 H 524.725 -1.43254 2.63474 0
M  V30 5297 H 522.278 -0.713435 1.39068 0
M  V30 5298 H 523.013 -3.15996 0.7292 0
M  V30 5299 H 522.798 -3.02208 2.49826 0
M  V30 5300 H 524.288 -3.75335 1.83066 0
M  V30 5301 N 524.725 -1.39134 -0.740242 0
M  V30 5302 C 525.974 -1.35384 -1.49512 0
M  V30 5303 C 526.287 0.04919 -1.95538 0
M  V30 5304 O 527.493 0.209257 -2.70692 0
M  V30 5305 C 525.949 -2.37812 -2.70136 0
M  V30 5306 C 525.557 -3.83804 -2.31081 0
M  V30 5307 C 527.301 -2.4313 -3.47977 0
M  V30 5308 C 525.208 -4.77886 -3.48395 0
M  V30 5309 H 524.138 -0.503297 -0.561434 0
M  V30 5310 H 526.789 -1.64754 -0.807974 0
M  V30 5311 H 525.171 -2.01505 -3.40899 0
M  V30 5312 H 526.345 -4.29123 -1.67898 0
M  V30 5313 H 524.66 -3.81732 -1.66343 0
M  V30 5314 H 527.257 -3.10614 -4.35228 0
M  V30 5315 H 527.6 -1.45423 -3.90074 0
M  V30 5316 H 528.133 -2.78304 -2.84239 0
M  V30 5317 H 524.872 -5.76836 -3.11353 0
M  V30 5318 H 524.392 -4.3725 -4.10576 0
M  V30 5319 H 526.071 -4.96538 -4.148 0
M  V30 5320 N 526.204 0.969867 -1.24223 0
M  V30 5321 C 527.453 1.70687 -1.07466 0
M  V30 5322 C 527.766 1.91736 0.386861 0
M  V30 5323 O 528.972 2.62986 0.674581 0
M  V30 5324 C 527.428 3.07217 -1.87472 0
M  V30 5325 C 527.036 2.94018 -3.3802 0
M  V30 5326 C 528.78 3.84804 -1.79237 0
M  V30 5327 C 526.687 4.25844 -4.10379 0
M  V30 5328 H 525.617 0.640067 -0.398536 0
M  V30 5329 H 528.268 1.08092 -1.48285 0
M  V30 5330 H 526.65 3.70628 -1.39466 0
M  V30 5331 H 527.824 2.39632 -3.9359 0
M  V30 5332 H 526.139 2.29898 -3.47183 0
M  V30 5333 H 528.736 4.82417 -2.30603 0
M  V30 5334 H 529.079 4.09356 -0.757197 0
M  V30 5335 H 529.612 3.28115 -2.24912 0
M  V30 5336 H 526.351 4.06486 -5.14246 0
M  V30 5337 H 525.871 4.80054 -3.59594 0
M  V30 5338 H 527.55 4.94475 -4.17257 0
M  V30 5339 N 527.682 1.05563 1.17022 0
M  V30 5340 C 528.922 0.777033 1.89054 0
M  V30 5341 C 529.286 -0.683617 1.79418 0
M  V30 5342 O 530.487 -1.07648 2.46303 0
M  V30 5343 C 528.758 1.24886 3.34871 0
M  V30 5344 S 530.317 1.0982 4.24835 0
M  V30 5345 H 527.135 0.282082 0.652649 0
M  V30 5346 H 529.737 1.35103 1.41306 0
M  V30 5347 H 528.441 2.30699 3.3942 0
M  V30 5348 H 527.972 0.669292 3.87665 0
M  V30 5349 H 529.987 0.02462 4.96194 0
M  V30 5350 N 529.16 -1.33526 0.837174 0
M  V30 5351 C 530.07 -2.33023 0.271568 0
M  V30 5352 C 531.086 -1.63272 -0.601514 0
M  V30 5353 O 532.262 -1.94939 -0.506038 0
M  V30 5354 C 529.327 -3.42382 -0.545448 0
M  V30 5355 C 528.388 -4.27857 0.351709 0
M  V30 5356 C 527.621 -5.31994 -0.426409 0
M  V30 5357 O 527.844 -5.45763 -1.65828 0
M  V30 5358 O 526.778 -6.01572 0.1987 0
M  V30 5359 H 530.604 -2.83256 1.09545 0
M  V30 5360 H 528.189 -1.36837 0.599655 0
M  V30 5361 H 530.071 -4.09122 -1.00979 0
M  V30 5362 H 528.746 -2.94369 -1.34641 0
M  V30 5363 H 527.653 -3.6399 0.863853 0
M  V30 5364 H 528.986 -4.79349 1.1174 0
M  V30 5365 N 530.638 -0.59345 -1.46 0
M  V30 5366 C 531.884 -0.0832754 -2.02629 0
M  V30 5367 C 532.217 1.27749 -1.46266 0
M  V30 5368 O 531.492 1.8395 -0.631866 0
M  V30 5369 C 531.775 -0.0290756 -3.60088 0
M  V30 5370 C 531.628 -1.41951 -4.26814 0
M  V30 5371 C 532.947 0.666055 -4.35031 0
M  V30 5372 H 530.066 -0.031736 -0.736316 0
M  V30 5373 H 532.708 -0.762711 -1.74019 0
M  V30 5374 H 530.858 0.549532 -3.84594 0
M  V30 5375 H 532.53 -2.04411 -4.13538 0
M  V30 5376 H 530.773 -1.98422 -3.8576 0
M  V30 5377 H 531.444 -1.33395 -5.3564 0
M  V30 5378 H 533.92 0.174401 -4.15734 0
M  V30 5379 H 532.796 0.673041 -5.44758 0
M  V30 5380 H 533.057 1.72946 -4.06869 0
M  V30 5381 N 532.116 1.54067 -0.331816 0
M  V30 5382 C 533.356 2.02625 0.26876 0
M  V30 5383 C 533.72 1.21462 1.48697 0
M  V30 5384 O 534.921 1.59863 2.16096 0
M  V30 5385 C 533.192 3.52554 0.586577 0
M  V30 5386 S 534.751 4.23035 1.16563 0
M  V30 5387 H 531.569 0.706395 0.0807862 0
M  V30 5388 H 534.171 1.89844 -0.466856 0
M  V30 5389 H 532.875 4.09242 -0.308046 0
M  V30 5390 H 532.406 3.69432 1.35217 0
M  V30 5391 H 534.421 4.31382 2.45203 0
M  V30 5392 N 533.594 0.0601682 1.57485 0
M  V30 5393 C 534.541 -0.91112 2.12055 0
M  V30 5394 C 535.511 -1.30298 1.03013 0
M  V30 5395 O 536.696 -1.39087 1.30612 0
M  V30 5396 C 533.836 -2.1775 2.67729 0
M  V30 5397 C 532.949 -1.83933 3.90887 0
M  V30 5398 C 532.084 -3.05096 4.34845 0
M  V30 5399 C 531.123 -2.67241 5.5068 0
M  V30 5400 N 530.26 -3.81127 5.8965 0
M  V30 5401 H 535.1 -0.43888 2.9475 0
M  V30 5402 H 532.637 -0.204995 1.45665 0
M  V30 5403 H 534.595 -2.91866 2.98111 0
M  V30 5404 H 533.225 -2.62535 1.87816 0
M  V30 5405 H 532.277 -0.999287 3.6704 0
M  V30 5406 H 533.589 -1.52074 4.75052 0
M  V30 5407 H 532.743 -3.87502 4.66827 0
M  V30 5408 H 531.482 -3.40139 3.49509 0
M  V30 5409 H 530.487 -1.83254 5.18361 0
M  V30 5410 H 531.712 -2.3338 6.37738 0
M  V30 5411 H 529.658 -4.15954 5.07266 0
M  V30 5412 H 529.575 -3.52997 6.68528 0
M  V30 5413 H 530.843 -4.64145 6.2625 0
M  V30 5414 N 535.072 -1.5615 -0.213296 0
M  V30 5415 C 536.318 -1.79812 -0.937849 0
M  V30 5416 C 536.651 -0.631201 -1.83656 0
M  V30 5417 O 535.926 0.369165 -1.90964 0
M  V30 5418 C 536.209 -3.13613 -1.76972 0
M  V30 5419 C 536.062 -4.40766 -0.89695 0
M  V30 5420 C 537.381 -3.43931 -2.7459 0
M  V30 5421 H 534.5 -0.654138 -0.339518 0
M  V30 5422 H 537.142 -1.88877 -0.20623 0
M  V30 5423 H 535.292 -3.06015 -2.39347 0
M  V30 5424 H 536.964 -4.60392 -0.289306 0
M  V30 5425 H 535.207 -4.33326 -0.202756 0
M  V30 5426 H 535.878 -5.30843 -1.51358 0
M  V30 5427 H 538.354 -3.5171 -2.22349 0
M  V30 5428 H 537.23 -4.38706 -3.29891 0
M  V30 5429 H 537.491 -2.6651 -3.52739 0
M  V30 5430 N 536.55 0.480323 -1.50102 0
M  V30 5431 C 537.497 1.57946 -1.6829 0
M  V30 5432 C 538.467 1.57611 -0.524223 0
M  V30 5433 O 539.652 1.75282 -0.753709 0
M  V30 5434 C 536.792 2.95978 -1.77457 0
M  V30 5435 C 535.905 3.06173 -3.04766 0
M  V30 5436 C 535.04 4.35063 -3.04784 0
M  V30 5437 C 534.079 4.38966 -4.26586 0
M  V30 5438 N 533.216 5.59314 -4.24396 0
M  V30 5439 H 538.056 1.41743 -2.62131 0
M  V30 5440 H 535.593 0.689304 -1.2995 0
M  V30 5441 H 537.551 3.76011 -1.80752 0
M  V30 5442 H 536.181 3.10837 -0.870637 0
M  V30 5443 H 535.233 2.19071 -3.10986 0
M  V30 5444 H 536.545 3.04916 -3.9475 0
M  V30 5445 H 535.699 5.23436 -3.06757 0
M  V30 5446 H 534.438 4.38915 -2.12614 0
M  V30 5447 H 533.443 3.48992 -4.24835 0
M  V30 5448 H 534.668 4.36813 -5.19972 0
M  V30 5449 H 532.614 5.63969 -3.35074 0
M  V30 5450 H 532.531 5.5976 -5.08138 0
M  V30 5451 H 533.799 6.49837 -4.30502 0
M  V30 5452 N 538.028 1.39524 0.732853 0
M  V30 5453 C 539.253 1.40329 1.52717 0
M  V30 5454 C 539.678 0.000286574 1.881 0
M  V30 5455 O 539.036 -0.987262 1.52062 0
M  V30 5456 C 539.084 2.28464 2.78992 0
M  V30 5457 O 538.188 1.716 3.75003 0
M  V30 5458 H 537.529 0.47778 0.461109 0
M  V30 5459 H 540.059 1.83546 0.903996 0
M  V30 5460 H 540.069 2.43051 3.27705 0
M  V30 5461 H 538.744 3.30425 2.52572 0
M  V30 5462 H 537.321 1.66267 3.33781 0
M  V30 5463 N 539.506 -0.963266 1.24736 0
M  V30 5464 C 540.456 -2.0438 1.01058 0
M  V30 5465 C 541.44 -1.60824 -0.0495354 0
M  V30 5466 O 542.632 -1.76232 0.164741 0
M  V30 5467 C 539.761 -3.37617 0.622067 0
M  V30 5468 C 538.847 -3.87722 1.7185 0
M  V30 5469 N 539.238 -4.10715 2.95207 0
M  V30 5470 C 537.536 -4.16426 1.59703 0
M  V30 5471 C 538.237 -4.51872 3.66315 0
M  V30 5472 N 537.213 -4.57302 2.93897 0
M  V30 5473 H 541.015 -2.20138 1.94721 0
M  V30 5474 H 538.529 -1.14741 1.14927 0
M  V30 5475 H 540.526 -4.14638 0.43366 0
M  V30 5476 H 539.186 -3.23242 -0.307327 0
M  V30 5477 H 540.197 -3.98037 3.31341 0
M  V30 5478 H 536.874 -4.10962 0.73598 0
M  V30 5479 H 538.264 -4.78037 4.72155 0
M  V30 5480 N 540.985 -1.06182 -1.16461 0
M  V30 5481 C 542.401 -0.785065 -1.38956 0
M  V30 5482 C 542.601 0.616103 -1.9185 0
M  V30 5483 O 541.657 1.37686 -2.11657 0
M  V30 5484 C 542.97 -1.84902 -2.37132 0
M  V30 5485 C 544.518 -1.8724 -2.50819 0
M  V30 5486 C 544.993 -2.92686 -3.52277 0
M  V30 5487 N 546.484 -2.91712 -3.59803 0
M  V30 5488 C 547.219 -3.69949 -4.38093 0
M  V30 5489 N 546.715 -4.58 -5.19815 0
M  V30 5490 N 548.508 -3.58346 -4.33064 0
M  V30 5491 H 540.659 -1.96569 -0.804634 0
M  V30 5492 H 542.922 -0.851747 -0.416211 0
M  V30 5493 H 542.628 -2.85518 -2.0536 0
M  V30 5494 H 542.502 -1.69908 -3.36766 0
M  V30 5495 H 544.889 -0.872827 -2.81897 0
M  V30 5496 H 544.97 -2.06311 -1.51226 0
M  V30 5497 H 544.614 -3.92835 -3.21937 0
M  V30 5498 H 544.544 -2.70864 -4.51598 0
M  V30 5499 H 547.035 -2.27876 -3.01464 0
M  V30 5500 H 547.348 -5.14357 -5.76764 0
M  V30 5501 H 545.693 -4.62056 -5.19162 0
M  V30 5502 H 548.884 -2.88943 -3.68279 0
M  V30 5503 H 549.057 -4.19563 -4.93833 0
M  V30 5504 N 542.463 1.3308 -0.844243 0
M  V30 5505 C 543.393 2.3161 -0.296493 0
M  V30 5506 C 544.374 1.59215 0.598707 0
M  V30 5507 O 545.559 1.87077 0.521134 0
M  V30 5508 C 542.689 3.43313 0.524762 0
M  V30 5509 C 541.643 4.27115 -0.275106 0
M  V30 5510 C 540.969 5.30483 0.670236 0
M  V30 5511 C 542.269 5.00443 -1.49514 0
M  V30 5512 H 543.963 2.77672 -1.11976 0
M  V30 5513 H 541.509 1.33496 -0.539899 0
M  V30 5514 H 543.462 4.11273 0.918298 0
M  V30 5515 H 542.186 2.95952 1.3813 0
M  V30 5516 H 540.845 3.60787 -0.650267 0
M  V30 5517 H 540.493 4.79379 1.52332 0
M  V30 5518 H 540.193 5.87435 0.139123 0
M  V30 5519 H 541.717 6.01308 1.06117 0
M  V30 5520 H 543.131 5.61141 -1.17447 0
M  V30 5521 H 541.528 5.67071 -1.96343 0
M  V30 5522 H 542.598 4.28906 -2.26202 0
M  V30 5523 N 543.941 0.601185 1.45683 0
M  V30 5524 C 545.181 0.0968037 2.04171 0
M  V30 5525 C 545.545 -1.2466 1.46027 0
M  V30 5526 O 546.746 -1.84132 1.95829 0
M  V30 5527 C 545.017 0.051384 3.57363 0
M  V30 5528 S 546.576 -0.392737 4.37039 0
M  V30 5529 H 543.394 0.0464504 0.709481 0
M  V30 5530 H 545.996 0.797846 1.78479 0
M  V30 5531 H 544.7 1.03274 3.97193 0
M  V30 5532 H 544.231 -0.671853 3.87621 0
M  V30 5533 H 546.246 -1.64364 4.68187 0
M  V30 5534 N 545.419 -1.53889 0.339982 0
M  V30 5535 C 546.382 -2.23547 -0.50592 0
M  V30 5536 C 547.382 -1.23445 -1.03044 0
M  V30 5537 O 548.572 -1.47909 -0.920253 0
M  V30 5538 C 545.704 -2.95234 -1.7044 0
M  V30 5539 H 546.897 -2.99722 0.103247 0
M  V30 5540 H 544.45 -1.56033 0.0912804 0
M  V30 5541 H 545.185 -2.23236 -2.35236 0
M  V30 5542 H 544.97 -3.68654 -1.33553 0
M  V30 5543 H 546.46 -3.48258 -2.30447 0
M  V30 5544 N 546.897 -0.0685191 -1.57451 0
M  V30 5545 C 547.827 0.89747 -2.15564 0
M  V30 5546 C 548.808 1.31266 -1.08181 0
M  V30 5547 O 549.993 1.38429 -1.36202 0
M  V30 5548 C 547.123 2.16623 -2.71463 0
M  V30 5549 C 546.077 1.89054 -3.83982 0
M  V30 5550 C 545.403 3.22532 -4.26471 0
M  V30 5551 C 546.703 1.1984 -5.08366 0
M  V30 5552 H 548.397 0.413373 -2.96533 0
M  V30 5553 H 545.943 0.197391 -1.42641 0
M  V30 5554 H 547.896 2.84614 -3.10761 0
M  V30 5555 H 546.62 2.67269 -1.8771 0
M  V30 5556 H 545.279 1.23469 -3.45183 0
M  V30 5557 H 544.927 3.71013 -3.39644 0
M  V30 5558 H 544.627 3.04879 -5.02317 0
M  V30 5559 H 546.151 3.91727 -4.68383 0
M  V30 5560 H 547.565 1.77896 -5.45001 0
M  V30 5561 H 545.962 1.12456 -5.89469 0
M  V30 5562 H 547.032 0.176996 -4.84577 0
M  V30 5563 N 548.375 1.56261 0.205012 0
M  V30 5564 C 549.791 1.49623 0.555433 0
M  V30 5565 C 549.991 0.766719 1.86343 0
M  V30 5566 O 549.047 0.313158 2.50551 0
M  V30 5567 C 550.36 2.94253 0.619347 0
M  V30 5568 C 551.908 3.04868 0.708855 0
M  V30 5569 C 552.383 4.50888 0.803969 0
M  V30 5570 N 553.874 4.54999 0.867758 0
M  V30 5571 C 554.609 5.65284 0.96135 0
M  V30 5572 N 554.105 6.85282 1.01786 0
M  V30 5573 N 555.898 5.53174 0.997771 0
M  V30 5574 H 548.049 2.0211 -0.653094 0
M  V30 5575 H 550.312 0.919333 -0.231366 0
M  V30 5576 H 550.018 3.50643 -0.272458 0
M  V30 5577 H 549.892 3.47063 1.47741 0
M  V30 5578 H 552.279 2.48532 1.5911 0
M  V30 5579 H 552.36 2.55199 -0.175205 0
M  V30 5580 H 552.004 5.07846 -0.0738798 0
M  V30 5581 H 551.934 4.98279 1.70369 0
M  V30 5582 H 554.425 3.68588 0.833735 0
M  V30 5583 H 554.738 7.65081 1.08951 0
M  V30 5584 H 553.083 6.8796 0.986706 0
M  V30 5585 H 556.274 4.5835 0.950392 0
M  V30 5586 H 556.447 6.39151 1.06725 0
M  V30 5587 N 549.853 -0.472356 1.50355 0
M  V30 5588 C 550.816 -1.5529 1.68576 0
M  V30 5589 C 551.816 -1.50863 0.556511 0
M  V30 5590 O 553.006 -1.53505 0.823516 0
M  V30 5591 C 550.138 -2.94921 1.70981 0
M  V30 5592 H 551.331 -1.40451 2.64978 0
M  V30 5593 H 548.884 -0.698645 1.39816 0
M  V30 5594 H 549.619 -3.15204 0.762675 0
M  V30 5595 H 549.404 -2.99541 2.53017 0
M  V30 5596 H 550.894 -3.73372 1.87037 0
M  V30 5597 N 551.331 -1.39911 -0.725443 0
M  V30 5598 C 552.556 -1.41137 -1.5197 0
M  V30 5599 C 552.981 -0.010262 -1.88097 0
M  V30 5600 O 552.339 0.979184 -1.52583 0
M  V30 5601 C 552.387 -2.2994 -2.77777 0
M  V30 5602 O 551.491 -1.73586 -3.74088 0
M  V30 5603 H 550.832 -0.480219 -0.458569 0
M  V30 5604 H 553.362 -1.84023 -0.894249 0
M  V30 5605 H 553.372 -2.44785 -3.26411 0
M  V30 5606 H 552.047 -3.31759 -2.50816 0
M  V30 5607 H 550.624 -1.68035 -3.32894 0
M  V30 5608 N 552.809 0.956637 -1.25245 0
M  V30 5609 C 553.756 2.053 -1.05454 0
M  V30 5610 C 554.726 1.66062 0.0356889 0
M  V30 5611 O 555.911 1.90415 -0.121099 0
M  V30 5612 C 553.051 3.38391 -0.677191 0
M  V30 5613 C 552.164 3.90758 -1.84206 0
M  V30 5614 C 551.299 5.12165 -1.40926 0
M  V30 5615 C 550.338 5.56757 -2.54338 0
M  V30 5616 N 549.475 6.69376 -2.11848 0
M  V30 5617 H 554.315 2.21562 -1.99284 0
M  V30 5618 H 551.852 1.08578 -0.992434 0
M  V30 5619 H 553.81 4.1488 -0.43938 0
M  V30 5620 H 552.44 3.22021 0.224127 0
M  V30 5621 H 551.492 3.10808 -2.19323 0
M  V30 5622 H 552.804 4.19802 -2.69383 0
M  V30 5623 H 551.958 5.96065 -1.13098 0
M  V30 5624 H 550.697 4.84832 -0.528175 0
M  V30 5625 H 549.702 4.71423 -2.82913 0
M  V30 5626 H 550.927 5.861 -3.43022 0
M  V30 5627 H 548.873 6.43756 -1.26153 0
M  V30 5628 H 548.79 6.97927 -2.90574 0
M  V30 5629 H 550.058 7.5669 -1.87191 0
M  V30 5630 N 554.287 1.06798 1.15896 0
M  V30 5631 C 555.564 0.701057 1.82605 0
M  V30 5632 C 555.944 -0.817066 1.94646 0
M  V30 5633 O 555.292 -1.72933 1.49353 0
M  V30 5634 C 555.502 1.40895 3.19296 0
M  V30 5635 C 556.85 1.55744 3.95005 0
M  V30 5636 O 557.874 1.36927 3.28831 0
M  V30 5637 O 556.733 1.86658 5.13635 0
M  V30 5638 H 553.827 0.248791 0.78869 0
M  V30 5639 H 556.373 1.16857 1.23055 0
M  V30 5640 H 555.145 2.4439 3.05596 0
M  V30 5641 H 554.768 0.931847 3.86526 0
M  V30 5642 N 555.766 -1.3263 0.851289 0
M  V30 5643 C 557.006 -1.99174 0.459266 0
M  V30 5644 C 557.37 -1.65913 -0.966273 0
M  V30 5645 O 558.571 -2.2552 -1.46267 0
M  V30 5646 C 556.842 -3.50721 0.687698 0
M  V30 5647 S 558.401 -4.37039 0.392746 0
M  V30 5648 H 555.219 -0.689832 0.172199 0
M  V30 5649 H 557.821 -1.61395 1.10327 0
M  V30 5650 H 556.525 -3.72417 1.72435 0
M  V30 5651 H 556.056 -3.93389 0.0299949 0
M  V30 5652 H 558.071 -4.8999 -0.782578 0
M  V30 5653 N 557.244 -0.608902 -1.45362 0
M  V30 5654 C 558.191 0.109172 -2.30542 0
M  V30 5655 C 559.161 0.858704 -1.42181 0
M  V30 5656 O 560.346 0.844178 -1.71109 0
M  V30 5657 C 557.486 1.09971 -3.27109 0
M  V30 5658 C 556.599 0.350911 -4.30572 0
M  V30 5659 C 555.734 1.33129 -5.14247 0
M  V30 5660 C 554.773 0.570377 -6.09437 0
M  V30 5661 N 553.91 1.5001 -6.85887 0
M  V30 5662 H 558.75 -0.623195 -2.91411 0
M  V30 5663 H 556.287 -0.319122 -1.43597 0
M  V30 5664 H 558.245 1.68714 -3.81564 0
M  V30 5665 H 556.875 1.79947 -2.67991 0
M  V30 5666 H 555.927 -0.352054 -3.78767 0
M  V30 5667 H 557.239 -0.242725 -4.98209 0
M  V30 5668 H 556.393 1.99074 -5.73109 0
M  V30 5669 H 555.132 1.95885 -4.46632 0
M  V30 5670 H 554.137 -0.102702 -5.49704 0
M  V30 5671 H 555.362 -0.0521607 -6.7908 0
M  V30 5672 H 553.308 2.11529 -6.2096 0
M  V30 5673 H 553.225 0.959934 -7.49881 0
M  V30 5674 H 554.493 2.14909 -7.49289 0
M  V30 5675 N 558.722 1.53707 -0.348139 0
M  V30 5676 C 559.968 2.01979 0.239986 0
M  V30 5677 C 560.323 1.23141 1.47831 0
M  V30 5678 O 559.616 0.311936 1.89044 0
M  V30 5679 C 559.81 3.52292 0.602061 0
M  V30 5680 C 559.639 4.45684 -0.599625 0
M  V30 5681 C 558.409 4.9304 -1.10635 0
M  V30 5682 C 560.607 4.93156 -1.4595 0
M  V30 5683 N 558.589 5.70394 -2.26988 0
M  V30 5684 C 559.96 5.6868 -2.46988 0
M  V30 5685 C 562.015 4.75257 -1.48441 0
M  V30 5686 C 560.718 6.28208 -3.50353 0
M  V30 5687 C 562.744 5.35639 -2.50689 0
M  V30 5688 C 562.106 6.11034 -3.50453 0
M  V30 5689 H 558.205 0.780335 0.0509992 0
M  V30 5690 H 560.789 1.88466 -0.488742 0
M  V30 5691 H 558.96 3.66002 1.29989 0
M  V30 5692 H 560.692 3.87304 1.17377 0
M  V30 5693 H 557.447 4.68784 -0.67371 0
M  V30 5694 H 557.871 6.13741 -2.85747 0
M  V30 5695 H 562.513 4.16508 -0.726707 0
M  V30 5696 H 560.231 6.86064 -4.27015 0
M  V30 5697 H 563.817 5.23693 -2.53449 0
M  V30 5698 H 562.697 6.56925 -4.28275 0
M  V30 5699 N 560.2 0.0768682 1.57412 0
M  V30 5700 C 561.148 -0.906229 2.1422 0
M  V30 5701 C 562.142 -1.30477 1.08037 0
M  V30 5702 O 563.348 -1.28143 1.2641 0
M  V30 5703 H 559.723 -0.310207 0.685037 0
M  V30 5704 H 561.694 -0.402228 2.95677 0
M  V30 5705 C 560.443 -2.16245 2.72274 0
M  V30 5706 H 559.766 -1.86463 3.53655 0
M  V30 5707 H 561.206 -2.83134 3.15613 0
M  V30 5708 C 559.665 -2.92437 1.67279 0
M  V30 5709 O 560.195 -3.86322 1.10081 0
M  V30 5710 N 558.401 -2.55637 1.38195 0
M  V30 5711 H 557.948 -1.79363 1.84897 0
M  V30 5712 H 557.906 -3.06919 0.681787 0
M  V30 5713 N 561.678 -1.56367 -0.196722 0
M  V30 5714 C 562.906 -1.84639 -0.933608 0
M  V30 5715 C 563.321 -0.659164 -1.76919 0
M  V30 5716 O 562.678 0.372142 -1.78665 0
M  V30 5717 C 562.729 -3.11694 -1.83109 0
M  V30 5718 O 562.45 -4.25838 -1.02924 0
M  V30 5719 C 563.951 -3.53132 -2.67979 0
M  V30 5720 H 561.171 -0.613188 -0.272473 0
M  V30 5721 H 563.715 -2.03475 -0.204465 0
M  V30 5722 H 561.87 -2.94759 -2.51387 0
M  V30 5723 H 562.284 -4.98178 -1.64069 0
M  V30 5724 H 563.758 -4.45005 -3.26611 0
M  V30 5725 H 564.235 -2.76045 -3.41608 0
M  V30 5726 H 564.841 -3.72592 -2.05074 0
M  V30 5727 N 563.156 0.464375 -1.50603 0
M  V30 5728 C 564.086 1.56944 -1.72889 0
M  V30 5729 C 565.067 1.59979 -0.577997 0
M  V30 5730 O 566.252 1.76138 -0.817855 0
M  V30 5731 C 563.382 2.95225 -1.8292 0
M  V30 5732 C 562.336 3.07056 -2.98162 0
M  V30 5733 C 561.662 4.47051 -2.93343 0
M  V30 5734 C 562.962 2.83648 -4.38567 0
M  V30 5735 H 564.656 1.38547 -2.65415 0
M  V30 5736 H 562.202 0.665082 -1.27721 0
M  V30 5737 H 564.155 3.72467 -1.97095 0
M  V30 5738 H 562.879 3.14793 -0.870209 0
M  V30 5739 H 561.538 2.32248 -2.83648 0
M  V30 5740 H 561.186 4.63547 -1.95276 0
M  V30 5741 H 560.886 4.55902 -3.70712 0
M  V30 5742 H 562.41 5.26304 -3.09575 0
M  V30 5743 H 563.824 3.50636 -4.53572 0
M  V30 5744 H 562.221 3.03937 -5.17438 0
M  V30 5745 H 563.291 1.79451 -4.50472 0
M  V30 5746 N 564.634 1.40294 0.718013 0
M  V30 5747 C 565.859 1.41941 1.5122 0
M  V30 5748 C 566.284 0.0202371 1.88089 0
M  V30 5749 O 565.642 -0.971078 1.53101 0
M  V30 5750 C 565.69 2.3141 2.76554 0
M  V30 5751 O 564.794 1.75567 3.73162 0
M  V30 5752 H 564.135 0.482644 0.456016 0
M  V30 5753 H 566.665 1.84494 0.884478 0
M  V30 5754 H 566.675 2.46513 3.25108 0
M  V30 5755 H 565.35 3.33085 2.49053 0
M  V30 5756 H 563.927 1.69798 3.31999 0
M  V30 5757 N 566.112 -0.949982 1.2575 0
M  V30 5758 C 567.361 -1.68956 1.10168 0
M  V30 5759 C 567.674 -1.92327 -0.356309 0
M  V30 5760 O 568.88 -2.64026 -0.632657 0
M  V30 5761 C 567.336 -3.04196 1.92336 0
M  V30 5762 C 566.944 -2.88603 3.42655 0
M  V30 5763 C 568.688 -3.81904 1.85336 0
M  V30 5764 C 566.595 -4.19262 4.17101 0
M  V30 5765 H 565.525 -0.633645 0.408668 0
M  V30 5766 H 568.176 -1.05719 1.49986 0
M  V30 5767 H 566.558 -3.68363 1.45344 0
M  V30 5768 H 567.732 -2.3334 3.97353 0
M  V30 5769 H 566.047 -2.24345 3.50796 0
M  V30 5770 H 568.644 -4.78688 2.38248 0
M  V30 5771 H 568.987 -4.08099 0.822226 0
M  V30 5772 H 569.52 -3.24495 2.30104 0
M  V30 5773 H 566.259 -3.98254 5.20648 0
M  V30 5774 H 565.779 -4.74273 3.67186 0
M  V30 5775 H 567.458 -4.87775 4.25071 0
M  V30 5776 N 567.59 -1.07411 -1.15328 0
M  V30 5777 C 568.818 -0.818782 -1.90009 0
M  V30 5778 C 569.233 0.628072 -1.78047 0
M  V30 5779 O 568.59 1.43085 -1.13282 0
M  V30 5780 C 568.641 -1.21874 -3.40337 0
M  V30 5781 O 568.362 -2.60883 -3.51954 0
M  V30 5782 C 569.863 -0.992796 -4.3204 0
M  V30 5783 H 567.083 -0.296007 -0.60218 0
M  V30 5784 H 569.627 -1.43073 -1.46117 0
M  V30 5785 H 567.782 -0.651103 -3.81889 0
M  V30 5786 H 568.196 -2.77216 -4.45255 0
M  V30 5787 H 569.67 -1.32215 -5.35932 0
M  V30 5788 H 570.147 0.0708331 -4.39143 0
M  V30 5789 H 570.753 -1.54537 -3.9623 0
M  V30 5790 N 569.068 1.32177 -0.85831 0
M  V30 5791 C 570.345 1.91781 -0.384624 0
M  V30 5792 C 570.725 1.78171 1.13217 0
M  V30 5793 O 570.073 1.18209 1.95548 0
M  V30 5794 C 570.283 3.38414 -0.853047 0
M  V30 5795 C 571.631 4.15542 -0.872359 0
M  V30 5796 O 572.655 3.47148 -0.797926 0
M  V30 5797 O 571.514 5.37678 -0.978009 0
M  V30 5798 H 568.608 0.819259 -0.112886 0
M  V30 5799 H 571.154 1.40923 -0.945453 0
M  V30 5800 H 569.926 3.4228 -1.89632 0
M  V30 5801 H 569.549 3.96683 -0.269874 0
M  V30 5802 N 570.547 0.616602 1.45037 0
M  V30 5803 C 571.824 0.0469086 1.95544 0
M  V30 5804 C 572.204 -1.42345 1.55888 0
M  V30 5805 O 571.552 -2.13055 0.825824 0
M  V30 5806 C 571.762 0.254489 3.48071 0
M  V30 5807 C 573.11 0.140025 4.24369 0
M  V30 5808 O 574.134 0.185084 3.55719 0
M  V30 5809 O 572.993 0.0327034 5.4649 0
M  V30 5810 H 570.087 -0.0306051 0.826433 0
M  V30 5811 H 572.633 0.687293 1.55159 0
M  V30 5812 H 571.405 1.27532 3.69934 0
M  V30 5813 H 571.028 -0.42073 3.95368 0
M  V30 5814 N 572.025 -1.5352 0.356285 0
M  V30 5815 C 572.955 -2.28372 -0.486661 0
M  V30 5816 C 573.936 -1.30432 -1.09185 0
M  V30 5817 O 575.121 -1.59291 -1.11085 0
M  V30 5818 C 572.251 -3.06604 -1.63129 0
M  V30 5819 C 571.205 -4.12154 -1.15381 0
M  V30 5820 C 570.531 -4.78415 -2.38796 0
M  V30 5821 C 571.831 -5.21724 -0.245179 0
M  V30 5822 H 573.525 -2.99083 0.137797 0
M  V30 5823 H 571.071 -1.43841 0.0677134 0
M  V30 5824 H 573.024 -3.57712 -2.22755 0
M  V30 5825 H 571.748 -2.33568 -2.28284 0
M  V30 5826 H 570.407 -3.61978 -0.580294 0
M  V30 5827 H 570.055 -4.01959 -3.02387 0
M  V30 5828 H 569.755 -5.49734 -2.07524 0
M  V30 5829 H 571.279 -5.32313 -2.99125 0
M  V30 5830 H 572.693 -5.68391 -0.748646 0
M  V30 5831 H 571.09 -6.00095 -0.0237608 0
M  V30 5832 H 572.16 -4.79596 0.715229 0
M  V30 5833 N 573.503 -0.0852151 -1.57369 0
M  V30 5834 C 574.433 0.874556 -2.16503 0
M  V30 5835 C 575.414 1.30111 -1.09568 0
M  V30 5836 O 576.599 1.36977 -1.37662 0
M  V30 5837 C 573.729 2.13731 -2.73745 0
M  V30 5838 C 572.683 1.84971 -3.85966 0
M  V30 5839 C 572.009 3.17991 -4.29867 0
M  V30 5840 C 573.309 1.14442 -5.09608 0
M  V30 5841 H 575.003 0.381899 -2.96954 0
M  V30 5842 H 572.549 0.18225 -1.42842 0
M  V30 5843 H 574.502 2.81302 -3.13763 0
M  V30 5844 H 573.226 2.65263 -1.90534 0
M  V30 5845 H 571.885 1.19801 -3.46473 0
M  V30 5846 H 571.533 3.6739 -3.4356 0
M  V30 5847 H 571.233 2.99534 -5.05523 0
M  V30 5848 H 572.757 3.86737 -4.72511 0
M  V30 5849 H 574.171 1.72105 -5.46857 0
M  V30 5850 H 572.568 1.06197 -5.90629 0
M  V30 5851 H 573.638 0.12559 -4.84737 0
M  V30 5852 N 574.981 1.5647 0.188427 0
M  V30 5853 C 575.911 1.98101 1.23606 0
M  V30 5854 C 576.892 0.853961 1.47111 0
M  V30 5855 O 578.077 1.11879 1.58735 0
M  V30 5856 C 575.207 2.32624 2.57882 0
M  V30 5857 C 574.161 3.48129 2.48978 0
M  V30 5858 C 573.487 3.68347 3.87588 0
M  V30 5859 C 574.787 4.82112 2.00911 0
M  V30 5860 H 576.481 2.85864 0.890068 0
M  V30 5861 H 574.027 1.37532 0.426714 0
M  V30 5862 H 575.98 2.60343 3.3136 0
M  V30 5863 H 574.704 1.41751 2.94235 0
M  V30 5864 H 573.363 3.20511 1.77956 0
M  V30 5865 H 573.011 2.74793 4.21305 0
M  V30 5866 H 572.711 4.46055 3.82503 0
M  V30 5867 H 574.235 3.98449 4.62678 0
M  V30 5868 H 575.649 5.08819 2.64151 0
M  V30 5869 H 574.046 5.63337 2.06814 0
M  V30 5870 H 575.116 4.75249 0.96262 0
M  V30 5871 N 576.459 -0.456382 1.50847 0
M  V30 5872 C 577.87 -1.03685 1.55262 0
M  V30 5873 C 578.221 -1.92779 0.364771 0
M  V30 5874 O 577.346 -2.10043 -0.52068 0
M  V30 5875 C 577.941 -1.88718 2.81374 0
M  V30 5876 C 576.5 -2.41847 2.88422 0
M  V30 5877 C 575.647 -1.20564 2.49719 0
M  V30 5878 H 578.598 -0.238399 1.56899 0
M  V30 5879 H 578.619 -2.73957 2.6406 0
M  V30 5880 H 578.131 -1.23847 3.67809 0
M  V30 5881 H 576.232 -3.10228 2.06372 0
M  V30 5882 H 576.345 -2.75947 3.9165 0
M  V30 5883 H 574.709 -1.54504 2.02486 0
M  V30 5884 H 575.492 -0.573326 3.38479 0
M  V30 5885 N 577.937 -1.40673 -0.710563 0
M  V30 5886 C 578.9 -1.4108 -1.80635 0
M  V30 5887 C 579.9 -0.303783 -1.57904 0
M  V30 5888 O 581.09 -0.562937 -1.64853 0
M  V30 5889 C 578.222 -1.20748 -3.18799 0
M  V30 5890 H 579.415 -2.38612 -1.81671 0
M  V30 5891 H 576.968 -1.26595 -0.916704 0
M  V30 5892 H 577.703 -0.239964 -3.23411 0
M  V30 5893 H 577.488 -2.00941 -3.36698 0
M  V30 5894 H 578.978 -1.23833 -3.98817 0
M  V30 5895 N 579.415 0.9433 -1.26252 0
M  V30 5896 C 580.692 1.66639 -1.02424 0
M  V30 5897 C 581.072 2.06335 0.446006 0
M  V30 5898 O 580.42 1.78551 1.42589 0
M  V30 5899 C 580.63 2.88019 -1.97094 0
M  V30 5900 C 581.978 3.59718 -2.25584 0
M  V30 5901 O 583.002 2.9812 -1.94943 0
M  V30 5902 O 581.861 4.7066 -2.77743 0
M  V30 5903 H 578.955 0.729643 -0.389294 0
M  V30 5904 H 581.501 0.995218 -1.37454 0
M  V30 5905 H 580.273 2.5556 -2.96319 0
M  V30 5906 H 579.896 3.62863 -1.62532 0
M  V30 5907 N 580.893 1.08022 1.14757 0
M  V30 5908 C 581.803 0.718292 2.23333 0
M  V30 5909 C 582.819 -0.273477 1.71837 0
M  V30 5910 O 583.995 -0.118406 2.01052 0
M  V30 5911 C 581.06 0.128855 3.4646 0
M  V30 5912 C 580.121 1.17473 4.12915 0
M  V30 5913 C 579.354 0.61333 5.30164 0
M  V30 5914 O 579.577 -0.568458 5.6756 0
M  V30 5915 O 578.511 1.3615 5.86299 0
M  V30 5916 H 582.337 1.62394 2.56636 0
M  V30 5917 H 579.922 0.853628 1.22611 0
M  V30 5918 H 581.804 -0.197249 4.20938 0
M  V30 5919 H 580.479 -0.750014 3.14891 0
M  V30 5920 H 579.386 1.5533 3.40328 0
M  V30 5921 H 580.719 2.02574 4.48581 0
M  V30 5922 N 582.371 -1.3172 0.865308 0
M  V30 5923 C 583.617 -1.97168 0.474633 0
M  V30 5924 C 583.95 -1.68263 -0.969604 0
M  V30 5925 O 583.225 -0.976588 -1.68205 0
M  V30 5926 C 583.508 -3.52689 0.726808 0
M  V30 5927 C 583.361 -3.91185 2.22024 0
M  V30 5928 C 584.68 -4.39689 0.190201 0
M  V30 5929 H 581.799 -0.716185 0.17392 0
M  V30 5930 H 584.441 -1.55925 1.08569 0
M  V30 5931 H 582.591 -3.8795 0.206705 0
M  V30 5932 H 584.263 -3.66049 2.80724 0
M  V30 5933 H 582.506 -3.3996 2.69462 0
M  V30 5934 H 583.177 -4.99604 2.34735 0
M  V30 5935 H 585.653 -4.11225 0.635103 0
M  V30 5936 H 584.529 -5.47469 0.396132 0
M  V30 5937 H 584.79 -4.32683 -0.907625 0
M  V30 5938 N 583.85 -0.624285 -1.44708 0
M  V30 5939 C 584.798 0.0969952 -2.32398 0
M  V30 5940 C 585.792 0.842762 -1.46949 0
M  V30 5941 O 586.998 0.756436 -1.63334 0
M  V30 5942 H 583.373 0.0501306 -0.750327 0
M  V30 5943 H 585.344 -0.660767 -2.90992 0
M  V30 5944 C 584.093 1.06967 -3.30837 0
M  V30 5945 H 583.416 0.505242 -3.96595 0
M  V30 5946 H 584.856 1.54397 -3.94889 0
M  V30 5947 C 583.315 2.15153 -2.5925 0
M  V30 5948 O 583.845 3.23139 -2.3863 0
M  V30 5949 N 582.051 1.90898 -2.19103 0
M  V30 5950 H 581.598 1.03086 -2.36074 0
M  V30 5951 H 581.556 2.63485 -1.71531 0
M  V30 5952 N 585.328 1.53329 -0.364422 0
M  V30 5953 C 586.261 2.22052 0.526145 0
M  V30 5954 C 587.239 1.21203 1.08391 0
M  V30 5955 O 588.423 1.50101 1.14026 0
M  V30 5956 C 585.55 2.91432 1.72583 0
M  V30 5957 C 584.596 4.06345 1.29562 0
M  V30 5958 S 585.429 5.34671 0.297885 0
M  V30 5959 C 586.585 6.07563 1.50392 0
M  V30 5960 H 586.818 2.97244 -0.0575055 0
M  V30 5961 H 584.351 1.53684 -0.148525 0
M  V30 5962 H 586.309 3.3202 2.41398 0
M  V30 5963 H 584.97 2.15966 2.28073 0
M  V30 5964 H 584.163 4.53901 2.19067 0
M  V30 5965 H 583.765 3.67642 0.686696 0
M  V30 5966 H 586.057 6.32224 2.43513 0
M  V30 5967 H 587 6.99973 1.06977 0
M  V30 5968 H 587.408 5.37994 1.70945 0
M  V30 5969 N 586.806 0.0935595 1.57322 0
M  V30 5970 C 588.217 -0.435807 1.81542 0
M  V30 5971 C 588.568 -1.68263 1.00907 0
M  V30 5972 O 587.693 -2.15087 0.237983 0
M  V30 5973 C 588.288 -0.797436 3.29282 0
M  V30 5974 C 586.847 -1.27155 3.54272 0
M  V30 5975 C 585.994 -0.267455 2.76007 0
M  V30 5976 H 588.945 0.31902 1.5546 0
M  V30 5977 H 588.966 -1.6571 3.42521 0
M  V30 5978 H 588.478 0.110206 3.87943 0
M  V30 5979 H 586.579 -2.19696 3.00939 0
M  V30 5980 H 586.692 -1.23445 4.62923 0
M  V30 5981 H 585.056 -0.749282 2.43429 0
M  V30 5982 H 585.839 0.632839 3.37417 0
M  V30 5983 N 588.284 -1.56567 -0.180126 0
M  V30 5984 C 589.234 -1.92132 -1.22756 0
M  V30 5985 C 590.218 -0.788639 -1.40247 0
M  V30 5986 O 591.41 -1.05171 -1.42366 0
M  V30 5987 C 588.539 -2.27719 -2.56902 0
M  V30 5988 C 587.625 -3.47481 -2.43142 0
M  V30 5989 N 588.016 -4.64973 -1.99082 0
M  V30 5990 C 586.314 -3.51914 -2.73994 0
M  V30 5991 C 587.015 -5.47119 -1.97574 0
M  V30 5992 N 585.991 -4.87925 -2.39645 0
M  V30 5993 H 589.793 -2.80464 -0.878478 0
M  V30 5994 H 587.307 -1.57686 -0.388463 0
M  V30 5995 H 589.304 -2.51389 -3.32579 0
M  V30 5996 H 587.964 -1.40722 -2.92621 0
M  V30 5997 H 588.975 -4.89358 -1.69557 0
M  V30 5998 H 585.652 -2.75372 -3.13809 0
M  V30 5999 H 587.042 -6.51254 -1.65282 0
M  V30 6000 N 589.762 0.448376 -1.51087 0
M  V30 6001 C 590.694 1.56146 -1.67783 0
M  V30 6002 C 591.707 1.52913 -0.55871 0
M  V30 6003 O 592.896 1.57889 -0.83267 0
M  V30 6004 C 589.996 2.95057 -1.66716 0
M  V30 6005 C 589.169 3.22915 -2.95033 0
M  V30 6006 C 588.228 4.41495 -2.86302 0
M  V30 6007 O 587.254 4.40688 -3.60254 0
M  V30 6008 N 588.456 5.44443 -2.014 0
M  V30 6009 H 591.221 1.42232 -2.638 0
M  V30 6010 H 588.782 0.637153 -1.48835 0
M  V30 6011 H 590.774 3.72388 -1.58458 0
M  V30 6012 H 589.344 3.02624 -0.783403 0
M  V30 6013 H 588.564 2.33985 -3.17245 0
M  V30 6014 H 589.852 3.38349 -3.79996 0
M  V30 6015 H 589.25 5.4793 -1.40674 0
M  V30 6016 H 587.807 6.2067 -1.99029 0
M  V30 6017 N 591.24 1.41047 0.703093 0
M  V30 6018 C 592.486 1.41209 1.46396 0
M  V30 6019 C 592.841 0.0180188 1.92392 0
M  V30 6020 O 592.134 -0.954739 1.66118 0
M  V30 6021 C 592.328 2.34686 2.6955 0
M  V30 6022 C 592.157 3.83044 2.35601 0
M  V30 6023 C 590.927 4.51777 2.26331 0
M  V30 6024 C 593.125 4.74215 1.9906 0
M  V30 6025 N 591.107 5.85302 1.85188 0
M  V30 6026 C 592.478 5.96631 1.68616 0
M  V30 6027 C 594.533 4.61932 1.85805 0
M  V30 6028 C 593.236 7.08134 1.26249 0
M  V30 6029 C 595.262 5.73389 1.44842 0
M  V30 6030 C 594.624 6.94899 1.15304 0
M  V30 6031 H 590.723 0.571951 0.533288 0
M  V30 6032 H 593.307 1.76859 0.814179 0
M  V30 6033 H 591.478 2.01143 3.32259 0
M  V30 6034 H 593.21 2.25618 3.35974 0
M  V30 6035 H 589.965 4.05618 2.44482 0
M  V30 6036 H 590.389 6.56049 1.67119 0
M  V30 6037 H 595.031 3.68494 2.07298 0
M  V30 6038 H 592.749 8.01445 1.035 0
M  V30 6039 H 596.335 5.65886 1.35146 0
M  V30 6040 H 595.215 7.79679 0.840854 0
M  V30 6041 N 592.718 -0.936591 1.26751 0
M  V30 6042 C 593.964 -1.6858 1.12733 0
M  V30 6043 C 594.297 -1.91414 -0.327745 0
M  V30 6044 O 593.572 -1.49812 -1.24043 0
M  V30 6045 C 593.855 -3.05779 1.90187 0
M  V30 6046 C 593.708 -2.90242 3.43627 0
M  V30 6047 C 595.027 -4.0597 1.69931 0
M  V30 6048 H 592.146 -0.61182 0.410908 0
M  V30 6049 H 594.788 -1.08747 1.55801 0
M  V30 6050 H 592.938 -3.56853 1.53584 0
M  V30 6051 H 594.61 -2.46354 3.9001 0
M  V30 6052 H 592.853 -2.2577 3.70419 0
M  V30 6053 H 593.524 -3.87572 3.93055 0
M  V30 6054 H 596 -3.63874 2.0183 0
M  V30 6055 H 594.876 -4.99974 2.26534 0
M  V30 6056 H 595.137 -4.37369 0.64502 0
M  V30 6057 N 594.196 -1.08629 -1.14182 0
M  V30 6058 C 595.106 -0.730126 -2.22949 0
M  V30 6059 C 596.122 0.26436 -1.7198 0
M  V30 6060 O 597.298 0.107742 -2.01112 0
M  V30 6061 C 594.363 -0.147227 -3.46387 0
M  V30 6062 C 593.424 -1.19662 -4.12286 0
M  V30 6063 C 592.657 -0.641437 -5.29831 0
M  V30 6064 O 592.88 0.538351 -5.67854 0
M  V30 6065 O 591.814 -1.39257 -5.85569 0
M  V30 6066 H 595.64 -1.63753 -2.55771 0
M  V30 6067 H 593.225 -0.860118 -1.22157 0
M  V30 6068 H 595.107 0.174923 -4.21037 0
M  V30 6069 H 593.782 0.733304 -3.15285 0
M  V30 6070 H 592.689 -1.57133 -3.395 0
M  V30 6071 H 594.022 -2.0495 -4.475 0
M  V30 6072 N 595.674 1.31259 -0.872281 0
M  V30 6073 C 596.922 1.96233 -0.483409 0
M  V30 6074 C 597.243 1.69276 0.968012 0
M  V30 6075 O 596.513 1.00943 1.67891 0
M  V30 6076 H 595.093 0.726025 -0.175774 0
M  V30 6077 H 597.755 1.60024 -1.11258 0
M  V30 6078 H 596.851 3.05403 -0.643075 0
M  V30 6079 N 597.152 0.631951 1.44375 0
M  V30 6080 C 598.1 -0.0846693 2.32446 0
M  V30 6081 C 599.094 -0.834957 1.47393 0
M  V30 6082 O 600.3 -0.747764 1.63733 0
M  V30 6083 H 596.675 -0.0461508 0.750583 0
M  V30 6084 H 598.646 0.67619 2.90638 0
M  V30 6085 C 597.395 -1.05211 3.314 0
M  V30 6086 H 596.718 -0.484203 3.96857 0
M  V30 6087 H 598.158 -1.523 3.95703 0
M  V30 6088 C 596.617 -2.13776 2.60387 0
M  V30 6089 O 597.147 -3.21869 2.4034 0
M  V30 6090 N 595.353 -1.89733 2.20113 0
M  V30 6091 H 594.9 -1.01833 2.36618 0
M  V30 6092 H 594.858 -2.62572 1.72926 0
M  V30 6093 N 598.631 -1.53133 0.372548 0
M  V30 6094 C 599.564 -2.22328 -0.514361 0
M  V30 6095 C 600.542 -1.21776 -1.07747 0
M  V30 6096 O 601.726 -1.50704 -1.13228 0
M  V30 6097 C 598.853 -2.92343 -1.71035 0
M  V30 6098 C 597.899 -4.07026 -1.27405 0
M  V30 6099 S 598.732 -5.34821 -0.269526 0
M  V30 6100 C 599.888 -6.08352 -1.47168 0
M  V30 6101 H 600.121 -2.9721 0.0732683 0
M  V30 6102 H 597.654 -1.53603 0.156673 0
M  V30 6103 H 599.612 -3.33296 -2.39634 0
M  V30 6104 H 598.273 -2.17173 -2.26925 0
M  V30 6105 H 597.466 -4.55056 -2.16656 0
M  V30 6106 H 597.068 -3.68001 -0.66719 0
M  V30 6107 H 599.36 -6.33507 -2.40157 0
M  V30 6108 H 600.303 -7.0053 -1.03263 0
M  V30 6109 H 600.711 -5.38893 -1.6809 0
M  V30 6110 N 600.109 -0.101901 -1.5727 0
M  V30 6111 C 601.52 0.426173 -1.81771 0
M  V30 6112 C 601.871 1.67725 -1.01797 0
M  V30 6113 O 600.996 2.14958 -0.249386 0
M  V30 6114 C 601.591 0.779962 -3.297 0
M  V30 6115 C 600.15 1.25275 -3.54941 0
M  V30 6116 C 599.297 0.252814 -2.76145 0
M  V30 6117 H 602.248 -0.32726 -1.55289 0
M  V30 6118 H 602.269 1.63891 -3.43395 0
M  V30 6119 H 601.781 -0.130778 -3.8788 0
M  V30 6120 H 599.882 2.18097 -3.021 0
M  V30 6121 H 599.995 1.20988 -4.63572 0
M  V30 6122 H 598.359 0.736362 -2.43823 0
M  V30 6123 H 599.142 -0.650724 -3.37076 0
M  V30 6124 N 601.587 1.56661 0.17182 0
M  V30 6125 C 602.833 1.82235 0.889845 0
M  V30 6126 C 603.166 0.679673 1.81918 0
M  V30 6127 O 602.441 -0.318404 1.91876 0
M  V30 6128 C 602.724 3.18195 1.68595 0
M  V30 6129 C 602.577 4.42989 0.779773 0
M  V30 6130 C 603.896 3.5109 2.65375 0
M  V30 6131 H 601.015 0.66291 0.322056 0
M  V30 6132 H 603.657 1.89358 0.15608 0
M  V30 6133 H 601.807 3.12253 2.3115 0
M  V30 6134 H 603.479 4.60997 0.16714 0
M  V30 6135 H 601.722 4.33711 0.0877964 0
M  V30 6136 H 602.393 5.3467 1.3723 0
M  V30 6137 H 604.869 3.57482 2.12946 0
M  V30 6138 H 603.745 4.47298 3.18144 0
M  V30 6139 H 604.006 2.75768 3.45549 0
M  V30 6140 N 603.065 -0.440357 1.51323 0
M  V30 6141 C 604.29 -1.21716 1.67928 0
M  V30 6142 C 604.715 -1.84328 0.374826 0
M  V30 6143 O 604.073 -1.68675 -0.664706 0
M  V30 6144 C 604.121 -2.27914 2.79442 0
M  V30 6145 O 603.225 -3.33325 2.42834 0
M  V30 6146 H 602.566 -0.35674 0.560029 0
M  V30 6147 H 605.096 -0.520417 1.97871 0
M  V30 6148 H 605.106 -2.72746 3.03436 0
M  V30 6149 H 603.781 -1.8172 3.741 0
M  V30 6150 H 602.358 -2.9399 2.294 0
M  V30 6151 N 604.543 -1.41418 -0.695603 0
M  V30 6152 C 605.768 -1.44329 -1.48942 0
M  V30 6153 C 606.193 -0.0501579 -1.88033 0
M  V30 6154 O 605.551 0.946598 -1.54626 0
M  V30 6155 C 605.599 -2.3578 -2.72837 0
M  V30 6156 O 604.703 -1.81482 -3.70322 0
M  V30 6157 H 604.044 -0.489838 -0.44828 0
M  V30 6158 H 606.574 -1.85878 -0.855014 0
M  V30 6159 H 606.584 -2.51654 -3.21145 0
M  V30 6160 H 605.259 -3.37005 -2.43722 0
M  V30 6161 H 603.836 -1.75058 -3.29255 0
M  V30 6162 N 606.021 0.929856 -1.27246 0
M  V30 6163 C 606.953 2.03434 -1.0558 0
M  V30 6164 C 607.966 1.62795 -0.0125762 0
M  V30 6165 O 609.155 1.76685 -0.2539 0
M  V30 6166 C 606.255 3.33915 -0.57912 0
M  V30 6167 C 605.428 4.03259 -1.69415 0
M  V30 6168 C 604.487 5.12014 -1.21357 0
M  V30 6169 O 603.513 5.36097 -1.91282 0
M  V30 6170 N 604.715 5.8046 -0.0680622 0
M  V30 6171 H 607.48 2.22583 -2.00691 0
M  V30 6172 H 605.041 1.1001 -1.18783 0
M  V30 6173 H 607.033 4.03978 -0.241563 0
M  V30 6174 H 605.603 3.11355 0.278703 0
M  V30 6175 H 604.823 3.26958 -2.20209 0
M  V30 6176 H 606.111 4.46337 -2.44255 0
M  V30 6177 H 605.509 5.63345 0.515626 0
M  V30 6178 H 604.066 6.51461 0.210332 0
M  V30 6179 N 607.499 1.09233 1.13605 0
M  V30 6180 C 608.739 0.836786 1.86487 0
M  V30 6181 C 609.103 -0.626191 1.81502 0
M  V30 6182 O 610.304 -0.99758 2.49603 0
M  V30 6183 C 608.575 1.35476 3.30728 0
M  V30 6184 S 610.134 1.2328 4.21126 0
M  V30 6185 H 606.952 0.302702 0.643345 0
M  V30 6186 H 609.554 1.3953 1.36936 0
M  V30 6187 H 608.258 2.41381 3.31909 0
M  V30 6188 H 607.789 0.792286 3.85339 0
M  V30 6189 H 609.804 0.182468 4.95864 0
M  V30 6190 N 608.977 -1.30795 0.87923 0
M  V30 6191 C 609.94 -2.26563 0.346676 0
M  V30 6192 C 610.94 -1.52578 -0.507597 0
M  V30 6193 O 612.13 -1.71318 -0.315575 0
M  V30 6194 C 609.262 -3.37115 -0.506611 0
M  V30 6195 H 610.455 -2.75183 1.19223 0
M  V30 6196 H 608.008 -1.41886 0.655598 0
M  V30 6197 H 608.743 -2.93802 -1.37299 0
M  V30 6198 H 608.528 -3.91959 0.105218 0
M  V30 6199 H 610.018 -4.08412 -0.871192 0
M  V30 6200 N 610.455 -0.639598 -1.44038 0
M  V30 6201 C 611.701 -0.147698 -2.02261 0
M  V30 6202 C 612.034 1.23031 -1.50256 0
M  V30 6203 O 611.309 1.81847 -0.690068 0
M  V30 6204 C 611.592 -0.14362 -3.59813 0
M  V30 6205 C 611.445 -1.55458 -4.22082 0
M  V30 6206 C 612.764 0.527317 -4.36929 0
M  V30 6207 H 609.883 -0.0551453 -0.734934 0
M  V30 6208 H 612.525 -0.817688 -1.71505 0
M  V30 6209 H 610.675 0.426898 -3.86147 0
M  V30 6210 H 612.347 -2.17464 -4.06826 0
M  V30 6211 H 610.59 -2.10594 -3.79253 0
M  V30 6212 H 611.261 -1.50369 -5.31124 0
M  V30 6213 H 613.737 0.0420504 -4.16079 0
M  V30 6214 H 612.613 0.499389 -5.46624 0
M  V30 6215 H 612.874 1.59914 -4.12165 0
M  V30 6216 N 611.933 1.52934 -0.380664 0
M  V30 6217 C 613.173 2.03378 0.204161 0
M  V30 6218 C 613.537 1.26132 1.44758 0
M  V30 6219 O 614.738 1.66657 2.109 0
M  V30 6220 C 613.009 3.54241 0.474118 0
M  V30 6221 S 614.568 4.26529 1.03046 0
M  V30 6222 H 611.386 0.708608 0.0582719 0
M  V30 6223 H 613.988 1.88263 -0.527017 0
M  V30 6224 H 612.692 4.08055 -0.438088 0
M  V30 6225 H 612.223 3.73547 1.23396 0
M  V30 6226 H 614.238 4.38964 2.31354 0
M  V30 6227 N 613.412 0.11024 1.57214 0
M  V30 6228 C 614.362 -0.854147 2.11396 0
M  V30 6229 C 615.346 -1.23394 1.03261 0
M  V30 6230 O 616.538 -1.20649 1.2951 0
M  V30 6231 C 613.667 -2.10752 2.70995 0
M  V30 6232 C 612.753 -1.75249 3.86198 0
M  V30 6233 N 613.144 -1.10377 4.9361 0
M  V30 6234 C 611.442 -2.04763 3.96217 0
M  V30 6235 C 612.143 -0.938199 5.74084 0
M  V30 6236 N 611.119 -1.46039 5.23616 0
M  V30 6237 H 614.921 -0.348897 2.91822 0
M  V30 6238 H 612.435 -0.0925071 1.62136 0
M  V30 6239 H 614.432 -2.80801 3.0815 0
M  V30 6240 H 613.092 -2.61829 1.9203 0
M  V30 6241 H 614.103 -0.768785 5.12162 0
M  V30 6242 H 610.78 -2.57948 3.28282 0
M  V30 6243 H 612.17 -0.429678 6.70525 0
M  V30 6244 N 614.89 -1.56749 -0.16351 0
M  V30 6245 C 615.8 -2.00255 -1.2221 0
M  V30 6246 C 616.816 -0.915194 -1.47987 0
M  V30 6247 O 617.992 -1.22342 -1.59982 0
M  V30 6248 C 615.057 -2.36035 -2.53946 0
M  V30 6249 C 614.118 -3.58637 -2.35962 0
M  V30 6250 C 613.351 -3.92701 -3.61416 0
M  V30 6251 O 613.574 -3.27632 -4.66919 0
M  V30 6252 O 612.508 -4.86019 -3.55062 0
M  V30 6253 H 616.334 -2.90586 -0.882794 0
M  V30 6254 H 613.919 -1.44721 -0.370978 0
M  V30 6255 H 615.801 -2.59982 -3.31643 0
M  V30 6256 H 614.476 -1.48863 -2.8744 0
M  V30 6257 H 613.383 -3.39898 -1.5627 0
M  V30 6258 H 614.716 -4.46374 -2.0739 0
M  V30 6259 N 616.368 0.432326 -1.51554 0
M  V30 6260 C 617.593 1.20824 -1.68571 0
M  V30 6261 C 618.018 1.84126 -0.384596 0
M  V30 6262 O 617.376 1.69025 0.655751 0
M  V30 6263 C 617.424 2.26429 -2.80646 0
M  V30 6264 O 616.528 3.32032 -2.44598 0
M  V30 6265 H 615.869 0.353765 -0.561913 0
M  V30 6266 H 618.399 0.509916 -1.98144 0
M  V30 6267 H 618.409 2.71133 -3.04878 0
M  V30 6268 H 617.084 1.79733 -3.75058 0
M  V30 6269 H 615.661 2.92769 -2.30956 0
M  V30 6270 N 617.846 1.41785 0.688094 0
M  V30 6271 C 619.086 1.43018 1.46032 0
M  V30 6272 C 619.45 0.0402632 1.91958 0
M  V30 6273 O 620.651 -0.0726425 2.68702 0
M  V30 6274 C 618.922 2.4151 2.63453 0
M  V30 6275 S 620.481 2.61335 3.5249 0
M  V30 6276 H 617.299 0.506546 0.498931 0
M  V30 6277 H 619.901 1.78283 0.80221 0
M  V30 6278 H 618.605 3.41286 2.27929 0
M  V30 6279 H 618.136 2.07624 3.34149 0
M  V30 6280 H 620.151 1.88637 4.58945 0
M  V30 6281 N 619.324 -0.923095 1.27737 0
M  V30 6282 C 620.572 -1.66797 1.14119 0
M  V30 6283 C 620.893 -1.92479 -0.312541 0
M  V30 6284 O 620.163 -1.53432 -1.218 0
M  V30 6285 H 618.743 -0.618196 0.419336 0
M  V30 6286 H 621.405 -1.10815 1.60331 0
M  V30 6287 H 620.501 -2.63424 1.67374 0
M  V30 6288 N 620.802 -1.09834 -1.13024 0
M  V30 6289 C 622.027 -0.85909 -1.88771 0
M  V30 6290 C 622.452 0.584402 -1.78791 0
M  V30 6291 O 621.81 1.41101 -1.13842 0
M  V30 6292 C 621.858 -1.30427 -3.36186 0
M  V30 6293 O 620.962 -0.465368 -4.09766 0
M  V30 6294 H 620.303 -0.310786 -0.586778 0
M  V30 6295 H 622.833 -1.46355 -1.42973 0
M  V30 6296 H 622.843 -1.2915 -3.8702 0
M  V30 6297 H 621.518 -2.3555 -3.42767 0
M  V30 6298 H 620.095 -0.542814 -3.68928 0
M  V30 6299 N 622.28 1.30327 -0.886154 0
M  V30 6300 C 623.51 1.99964 -0.519421 0
M  V30 6301 C 623.918 1.66593 0.89686 0
M  V30 6302 O 623.261 0.899886 1.60149 0
M  V30 6303 C 623.323 3.54187 -0.615795 0
M  V30 6304 C 622.987 4.11078 -1.9966 0
M  V30 6305 C 623.984 4.26985 -2.96614 0
M  V30 6306 C 621.669 4.46429 -2.30231 0
M  V30 6307 C 623.663 4.77456 -4.22273 0
M  V30 6308 C 621.35 4.966 -3.56135 0
M  V30 6309 C 622.348 5.12066 -4.5197 0
M  V30 6310 O 622.036 5.61154 -5.7564 0
M  V30 6311 H 621.768 0.645979 -0.199217 0
M  V30 6312 H 624.322 1.67154 -1.19368 0
M  V30 6313 H 622.552 3.86528 0.115448 0
M  V30 6314 H 624.241 4.05065 -0.26017 0
M  V30 6315 H 625.007 3.99975 -2.74308 0
M  V30 6316 H 620.886 4.33658 -1.56404 0
M  V30 6317 H 624.43 4.89444 -4.97082 0
M  V30 6318 H 620.327 5.23045 -3.78277 0
M  V30 6319 H 621.095 5.79494 -5.78039 0
M  V30 6320 N 623.758 0.647228 1.43697 0
M  V30 6321 C 624.69 -0.0866232 2.29036 0
M  V30 6322 C 625.703 -0.793051 1.42178 0
M  V30 6323 O 626.892 -0.651807 1.66174 0
M  V30 6324 C 623.992 -1.14552 3.18953 0
M  V30 6325 C 623.165 -0.518422 4.34317 0
M  V30 6326 C 622.224 -1.4734 5.05151 0
M  V30 6327 O 621.25 -0.984312 5.60625 0
M  V30 6328 N 622.452 -2.8075 5.08094 0
M  V30 6329 H 625.217 0.645834 2.92659 0
M  V30 6330 H 622.778 0.489567 1.54321 0
M  V30 6331 H 624.77 -1.78505 3.63205 0
M  V30 6332 H 623.34 -1.78001 2.56971 0
M  V30 6333 H 622.56 0.300079 3.93056 0
M  V30 6334 H 623.848 -0.080401 5.08736 0
M  V30 6335 H 623.246 -3.23052 4.64386 0
M  V30 6336 H 621.803 -3.40022 5.56083 0
M  V30 6337 N 625.236 -1.5273 0.388769 0
M  V30 6338 C 626.652 -1.59553 0.0387049 0
M  V30 6339 C 626.852 -1.40278 -1.44652 0
M  V30 6340 O 625.908 -1.21951 -2.21098 0
M  V30 6341 C 627.221 -2.9625 0.515409 0
M  V30 6342 C 628.769 -3.09426 0.471621 0
M  V30 6343 C 629.244 -4.48572 0.924505 0
M  V30 6344 N 630.735 -4.54754 0.880496 0
M  V30 6345 C 631.47 -5.60653 1.20234 0
M  V30 6346 N 630.966 -6.74198 1.59463 0
M  V30 6347 N 632.759 -5.50755 1.12363 0
M  V30 6348 H 624.91 -1.63508 1.35569 0
M  V30 6349 H 627.173 -0.768097 0.555636 0
M  V30 6350 H 626.879 -3.15569 1.5527 0
M  V30 6351 H 626.753 -3.77102 -0.085792 0
M  V30 6352 H 629.14 -2.89804 -0.556588 0
M  V30 6353 H 629.221 -2.30528 1.10862 0
M  V30 6354 H 628.865 -4.68936 1.95094 0
M  V30 6355 H 628.795 -5.25935 0.264524 0
M  V30 6356 H 631.286 -3.73237 0.591815 0
M  V30 6357 H 631.599 -7.5097 1.82385 0
M  V30 6358 H 629.944 -6.75531 1.63349 0
M  V30 6359 H 633.135 -4.6093 0.816169 0
M  V30 6360 H 633.308 -6.33184 1.37777 0
M  V30 6361 N 626.714 -0.118576 -1.57153 0
M  V30 6362 C 627.644 0.828436 -2.1831 0
M  V30 6363 C 628.625 1.27758 -1.12303 0
M  V30 6364 O 629.81 1.34026 -1.40537 0
M  V30 6365 C 626.94 2.07876 -2.78217 0
M  V30 6366 C 625.894 1.76742 -3.89803 0
M  V30 6367 C 625.22 3.08801 -4.36516 0
M  V30 6368 C 626.52 1.03606 -5.11921 0
M  V30 6369 H 628.214 0.318824 -2.97698 0
M  V30 6370 H 625.76 0.151911 -1.43196 0
M  V30 6371 H 627.713 2.74584 -3.19659 0
M  V30 6372 H 626.437 2.61161 -1.96118 0
M  V30 6373 H 625.096 1.12424 -3.48936 0
M  V30 6374 H 624.744 3.6002 -3.51276 0
M  V30 6375 H 624.444 2.88743 -5.11763 0
M  V30 6376 H 625.968 3.76627 -4.80608 0
M  V30 6377 H 627.382 1.60467 -5.50385 0
M  V30 6378 H 625.779 0.936454 -5.92748 0
M  V30 6379 H 626.849 0.0227421 -4.84895 0
M  V30 6380 N 628.193 1.56834 0.155195 0
M  V30 6381 C 629.125 1.94235 1.21677 0
M  V30 6382 C 630.138 0.83724 1.39621 0
M  V30 6383 O 631.327 1.11567 1.39338 0
M  V30 6384 C 628.427 2.19402 2.58294 0
M  V30 6385 C 627.6 3.50671 2.61436 0
M  V30 6386 C 626.659 3.64475 3.79532 0
M  V30 6387 O 625.685 4.36945 3.64784 0
M  V30 6388 N 626.887 3.00526 4.96653 0
M  V30 6389 H 629.652 2.85901 0.898932 0
M  V30 6390 H 627.213 1.58185 0.34483 0
M  V30 6391 H 629.205 2.25886 3.35794 0
M  V30 6392 H 627.775 1.34042 2.82403 0
M  V30 6393 H 626.995 3.55702 1.69912 0
M  V30 6394 H 628.283 4.3702 2.60559 0
M  V30 6395 H 627.681 2.41549 5.11538 0
M  V30 6396 H 626.238 3.12583 5.71958 0
M  V30 6397 N 629.671 -0.424282 1.51781 0
M  V30 6398 C 630.948 -1.18464 1.55646 0
M  V30 6399 C 631.328 -2.08529 0.328438 0
M  V30 6400 O 630.676 -2.17969 -0.685693 0
M  V30 6401 C 630.886 -1.97514 2.87731 0
M  V30 6402 C 632.234 -2.54106 3.40169 0
M  V30 6403 O 633.258 -2.07711 2.89369 0
M  V30 6404 O 632.117 -3.38759 4.28841 0
M  V30 6405 H 629.211 -0.540055 0.626314 0
M  V30 6406 H 631.757 -0.432291 1.64102 0
M  V30 6407 H 630.529 -1.31444 3.68562 0
M  V30 6408 H 630.152 -2.79787 2.82498 0
M  V30 6409 N 631.149 -1.42148 -0.680565 0
M  V30 6410 C 632.396 -1.4231 -1.44063 0
M  V30 6411 C 632.724 -0.037488 -1.94464 0
M  V30 6412 O 631.979 0.953184 -1.70918 0
M  V30 6413 C 632.278 -2.38945 -2.65782 0
M  V30 6414 C 631.944 -3.85455 -2.33956 0
M  V30 6415 C 630.606 -4.25364 -2.24987 0
M  V30 6416 C 632.958 -4.77895 -2.08004 0
M  V30 6417 C 630.286 -5.55701 -1.88184 0
M  V30 6418 C 632.638 -6.08568 -1.72706 0
M  V30 6419 C 631.302 -6.47482 -1.62244 0
M  V30 6420 H 630.572 -0.520748 -0.527164 0
M  V30 6421 H 633.219 -1.7505 -0.776524 0
M  V30 6422 H 631.524 -1.99511 -3.37198 0
M  V30 6423 H 633.221 -2.36336 -3.23954 0
M  V30 6424 H 629.811 -3.53855 -2.41836 0
M  V30 6425 H 633.995 -4.47854 -2.1387 0
M  V30 6426 H 629.251 -5.84718 -1.78648 0
M  V30 6427 H 633.425 -6.79688 -1.5165 0
M  V30 6428 H 631.052 -7.48387 -1.33496 0
M  V30 6429 N 632.627 0.916307 -1.28225 0
M  V30 6430 C 634.043 1.19425 -1.05876 0
M  V30 6431 C 634.243 2.005 0.2005 0
M  V30 6432 O 633.299 2.35806 0.902873 0
M  V30 6433 C 634.612 1.93133 -2.30478 0
M  V30 6434 C 636.16 2.06026 -2.35632 0
M  V30 6435 C 636.635 2.83141 -3.59994 0
M  V30 6436 N 638.126 2.90704 -3.60618 0
M  V30 6437 C 638.861 3.50865 -4.53521 0
M  V30 6438 N 638.357 4.12327 -5.56739 0
M  V30 6439 N 640.15 3.48379 -4.41122 0
M  V30 6440 H 632.301 0.37496 -2.09064 0
M  V30 6441 H 634.564 0.228531 -0.920042 0
M  V30 6442 H 634.27 1.40985 -3.22205 0
M  V30 6443 H 634.144 2.93696 -2.36691 0
M  V30 6444 H 636.531 2.57355 -1.44404 0
M  V30 6445 H 636.612 1.04647 -2.33415 0
M  V30 6446 H 636.256 2.32492 -4.51564 0
M  V30 6447 H 636.186 3.84829 -3.59464 0
M  V30 6448 H 638.677 2.47034 -2.85977 0
M  V30 6449 H 638.99 4.56205 -6.23776 0
M  V30 6450 H 637.335 4.10839 -5.60568 0
M  V30 6451 H 640.526 2.99572 -3.59686 0
M  V30 6452 H 640.699 3.94974 -5.13712 0
M  V30 6453 N 634.105 1.10431 1.1244 0
M  V30 6454 C 635.345 0.856518 1.85589 0
M  V30 6455 C 635.709 -0.606905 1.82156 0
M  V30 6456 O 636.91 -0.97105 2.50647 0
M  V30 6457 C 635.181 1.38977 3.29272 0
M  V30 6458 S 636.74 1.27739 4.19795 0
M  V30 6459 H 633.558 0.309509 0.640098 0
M  V30 6460 H 636.16 1.40975 1.35449 0
M  V30 6461 H 634.864 2.44887 3.2933 0
M  V30 6462 H 634.395 0.833112 3.84477 0
M  V30 6463 H 636.41 0.235051 4.95643 0
M  V30 6464 N 635.583 -1.29855 0.893053 0
M  V30 6465 C 636.513 -2.3035 0.382249 0
M  V30 6466 C 637.494 -1.61328 -0.539203 0
M  V30 6467 O 638.679 -1.88882 -0.451342 0
M  V30 6468 C 635.809 -3.45024 -0.396983 0
M  V30 6469 C 634.763 -4.258 0.433437 0
M  V30 6470 C 634.089 -5.32605 -0.472889 0
M  V30 6471 C 635.389 -4.94549 1.67984 0
M  V30 6472 H 637.083 -2.73325 1.22205 0
M  V30 6473 H 634.629 -1.314 0.589073 0
M  V30 6474 H 636.582 -4.14398 -0.765024 0
M  V30 6475 H 635.306 -3.00875 -1.2705 0
M  V30 6476 H 633.965 -3.58125 0.783723 0
M  V30 6477 H 633.613 -4.84702 -1.34435 0
M  V30 6478 H 633.313 -5.87547 0.0789958 0
M  V30 6479 H 634.837 -6.04832 -0.837269 0
M  V30 6480 H 636.251 -5.56395 1.38192 0
M  V30 6481 H 634.648 -5.59393 2.17254 0
M  V30 6482 H 635.718 -4.20215 2.41965 0
M  V30 6483 N 637.061 -0.65484 -1.43351 0
M  V30 6484 C 638.307 -0.177749 -2.02622 0
M  V30 6485 C 638.662 1.19553 -1.50748 0
M  V30 6486 O 637.955 1.78683 -0.691599 0
M  V30 6487 C 638.149 -0.130424 -3.57162 0
M  V30 6488 C 637.978 -1.49757 -4.24032 0
M  V30 6489 C 636.748 -2.09036 -4.60035 0
M  V30 6490 C 638.946 -2.4363 -4.52934 0
M  V30 6491 N 636.928 -3.3874 -5.11985 0
M  V30 6492 C 638.299 -3.57968 -5.0622 0
M  V30 6493 C 640.354 -2.42412 -4.34903 0
M  V30 6494 C 639.057 -4.71314 -5.43374 0
M  V30 6495 C 641.083 -3.5484 -4.7312 0
M  V30 6496 C 640.445 -4.67903 -5.26541 0
M  V30 6497 H 636.544 -0.10951 -0.774294 0
M  V30 6498 H 639.128 -0.863495 -1.74505 0
M  V30 6499 H 637.299 0.524671 -3.8484 0
M  V30 6500 H 639.031 0.35769 -4.03116 0
M  V30 6501 H 635.786 -1.61729 -4.4513 0
M  V30 6502 H 636.21 -4.05116 -5.42412 0
M  V30 6503 H 640.852 -1.56236 -3.92874 0
M  V30 6504 H 638.57 -5.5818 -5.84346 0
M  V30 6505 H 642.156 -3.55101 -4.60863 0
M  V30 6506 H 641.036 -5.5346 -5.55564 0
M  V30 6507 N 638.539 1.52521 -0.396863 0
M  V30 6508 C 639.779 2.03583 0.182578 0
M  V30 6509 C 640.143 1.2766 1.43412 0
M  V30 6510 O 641.344 1.68884 2.09121 0
M  V30 6511 C 639.615 3.54724 0.436519 0
M  V30 6512 S 641.174 4.27598 0.985163 0
M  V30 6513 H 637.992 0.709186 0.0507529 0
M  V30 6514 H 640.594 1.87693 -0.546955 0
M  V30 6515 H 639.298 4.07567 -0.481343 0
M  V30 6516 H 638.829 3.74834 1.19427 0
M  V30 6517 H 640.844 4.41393 2.26686 0
M  V30 6518 N 640.017 0.126909 1.57088 0
M  V30 6519 C 640.965 -0.837618 2.16995 0
M  V30 6520 C 641.959 -1.26974 1.12133 0
M  V30 6521 O 643.165 -1.24056 1.30423 0
M  V30 6522 H 639.54 -0.288256 0.694559 0
M  V30 6523 H 641.511 -0.307957 2.96807 0
M  V30 6524 C 640.26 -2.07474 2.79016 0
M  V30 6525 H 639.583 -1.75117 3.59408 0
M  V30 6526 H 641.023 -2.72949 3.24461 0
M  V30 6527 C 639.482 -2.86967 1.76498 0
M  V30 6528 O 640.012 -3.82625 1.22316 0
M  V30 6529 N 638.218 -2.51111 1.46258 0
M  V30 6530 H 637.765 -1.73389 1.90509 0
M  V30 6531 H 637.723 -3.04594 0.779085 0
M  V30 6532 N 641.495 -1.56914 -0.146875 0
M  V30 6533 C 642.72 -1.87881 -0.878386 0
M  V30 6534 C 643.145 -0.715945 -1.73942 0
M  V30 6535 O 642.503 0.334447 -1.78189 0
M  V30 6536 C 642.551 -3.17431 -1.71084 0
M  V30 6537 O 641.655 -3.01374 -2.81509 0
M  V30 6538 H 640.996 -0.617289 -0.244644 0
M  V30 6539 H 643.526 -2.04136 -0.137654 0
M  V30 6540 H 643.536 -3.49455 -2.10582 0
M  V30 6541 H 642.211 -4.01671 -1.07856 0
M  V30 6542 H 640.788 -2.80758 -2.45416 0
M  V30 6543 N 642.974 0.416227 -1.52004 0
M  V30 6544 C 644.202 1.18573 -1.69553 0
M  V30 6545 C 644.617 1.84472 -0.401919 0
M  V30 6546 O 643.974 1.71593 0.621463 0
M  V30 6547 C 644.025 2.25413 -2.82615 0
M  V30 6548 O 643.746 1.62205 -4.06966 0
M  V30 6549 C 645.247 3.15297 -3.11613 0
M  V30 6550 H 642.467 0.356582 -0.56841 0
M  V30 6551 H 645.011 0.490618 -1.98528 0
M  V30 6552 H 643.166 2.90604 -2.56179 0
M  V30 6553 H 643.58 2.3298 -4.69916 0
M  V30 6554 H 645.054 3.86351 -3.94255 0
M  V30 6555 H 645.531 3.77264 -2.24874 0
M  V30 6556 H 646.137 2.55783 -3.39787 0
M  V30 6557 N 644.452 1.42507 0.673017 0
M  V30 6558 C 645.698 1.43284 1.43519 0
M  V30 6559 C 646.031 0.049668 1.94136 0
M  V30 6560 O 645.306 -0.926369 1.71022 0
M  V30 6561 C 645.589 2.45874 2.63093 0
M  V30 6562 C 645.442 3.93388 2.18096 0
M  V30 6563 C 646.761 2.45431 3.6531 0
M  V30 6564 H 643.88 0.521752 0.520522 0
M  V30 6565 H 646.522 1.73932 0.764701 0
M  V30 6566 H 644.672 2.19869 3.20296 0
M  V30 6567 H 646.344 4.30379 1.66046 0
M  V30 6568 H 644.587 4.07169 1.49652 0
M  V30 6569 H 645.258 4.60752 3.03993 0
M  V30 6570 H 647.734 2.68561 3.17827 0
M  V30 6571 H 646.61 3.19189 4.46553 0
M  V30 6572 H 646.871 1.48092 4.16559 0
M  V30 6573 N 645.93 -0.909495 1.28709 0
M  V30 6574 C 646.88 -1.9991 1.09636 0
M  V30 6575 C 647.864 -1.60889 0.01872 0
M  V30 6576 O 649.056 -1.75374 0.239338 0
M  V30 6577 C 646.185 -3.34675 0.764702 0
M  V30 6578 C 645.271 -3.80085 1.8814 0
M  V30 6579 N 645.662 -3.97824 3.12361 0
M  V30 6580 C 643.96 -4.09278 1.77221 0
M  V30 6581 C 644.661 -4.35928 3.85151 0
M  V30 6582 N 643.637 -4.44426 3.13028 0
M  V30 6583 H 647.439 -2.11681 2.03883 0
M  V30 6584 H 644.953 -1.09763 1.1969 0
M  V30 6585 H 646.95 -4.12426 0.609132 0
M  V30 6586 H 645.61 -3.24255 -0.169952 0
M  V30 6587 H 646.621 -3.83626 3.47925 0
M  V30 6588 H 643.298 -4.0747 0.909621 0
M  V30 6589 H 644.688 -4.57581 4.92006 0
M  V30 6590 N 647.408 -1.11026 -1.11852 0
M  V30 6591 C 648.685 -0.768347 -1.79877 0
M  V30 6592 C 649.065 0.744261 -1.97545 0
M  V30 6593 O 648.413 1.67271 -1.55669 0
M  V30 6594 C 648.623 -1.52648 -3.13846 0
M  V30 6595 C 649.971 -1.70297 -3.88953 0
M  V30 6596 O 650.995 -1.49037 -3.23522 0
M  V30 6597 O 649.854 -2.05593 -5.06353 0
M  V30 6598 H 646.948 -0.277891 -0.778913 0
M  V30 6599 H 649.494 -1.21343 -1.18633 0
M  V30 6600 H 648.266 -2.55564 -2.96315 0
M  V30 6601 H 647.889 -1.07466 -3.82801 0
M  V30 6602 N 648.886 1.2938 -0.899927 0
M  V30 6603 C 650.163 1.9046 -0.445443 0
M  V30 6604 C 650.543 1.81683 1.07492 0
M  V30 6605 O 649.891 1.24371 1.91688 0
M  V30 6606 C 650.101 3.35529 -0.960279 0
M  V30 6607 C 651.449 4.12556 -1.00412 0
M  V30 6608 O 652.473 3.44434 -0.907965 0
M  V30 6609 O 651.332 5.34294 -1.14857 0
M  V30 6610 H 648.426 0.815253 -0.138893 0
M  V30 6611 H 650.972 1.37844 -0.989808 0
M  V30 6612 H 649.744 3.36074 -2.00425 0
M  V30 6613 H 649.367 3.95624 -0.395939 0
M  V30 6614 N 650.364 0.662433 1.43002 0
M  V30 6615 C 651.604 0.183312 2.03576 0
M  V30 6616 C 651.968 -1.18354 1.51183 0
M  V30 6617 O 653.169 -1.7566 2.03462 0
M  V30 6618 C 651.44 0.202908 3.56824 0
M  V30 6619 S 652.999 -0.20702 4.38311 0
M  V30 6620 H 649.817 0.0765001 0.706872 0
M  V30 6621 H 652.419 0.872827 1.74934 0
M  V30 6622 H 651.123 1.20028 3.92456 0
M  V30 6623 H 650.654 -0.506845 3.90121 0
M  V30 6624 H 652.669 -1.44358 4.74737 0
M  V30 6625 N 651.842 -1.52309 0.404946 0
M  V30 6626 C 653.258 -1.59503 0.0556255 0
M  V30 6627 C 653.458 -1.41805 -1.43156 0
M  V30 6628 O 652.514 -1.2429 -2.19792 0
M  V30 6629 C 653.827 -2.95687 0.546801 0
M  V30 6630 C 655.375 -3.08909 0.504413 0
M  V30 6631 C 655.85 -4.47566 0.97203 0
M  V30 6632 N 657.341 -4.53795 0.928679 0
M  V30 6633 C 658.076 -5.59346 1.26174 0
M  V30 6634 N 657.572 -6.72469 1.66604 0
M  V30 6635 N 659.365 -5.49532 1.18198 0
M  V30 6636 H 651.516 -1.6206 1.37296 0
M  V30 6637 H 653.779 -0.762161 0.563751 0
M  V30 6638 H 653.485 -3.13905 1.58609 0
M  V30 6639 H 653.359 -3.77172 -0.0457905 0
M  V30 6640 H 655.746 -2.90378 -0.525819 0
M  V30 6641 H 655.827 -2.2934 1.13301 0
M  V30 6642 H 655.471 -4.6684 2.00057 0
M  V30 6643 H 655.401 -5.25625 0.320292 0
M  V30 6644 H 657.892 -3.72588 0.631369 0
M  V30 6645 H 658.205 -7.48993 1.9034 0
M  V30 6646 H 656.55 -6.73761 1.70504 0
M  V30 6647 H 659.741 -4.60038 0.865011 0
M  V30 6648 H 659.914 -6.31687 1.44485 0
M  V30 6649 N 653.32 -0.135238 -1.57019 0
M  V30 6650 C 654.736 0.221262 -1.58059 0
M  V30 6651 C 654.936 1.65538 -1.14889 0
M  V30 6652 O 653.992 2.37985 -0.843751 0
M  V30 6653 C 655.305 -0.0268114 -3.00688 0
M  V30 6654 C 656.853 0.0378206 -3.12977 0
M  V30 6655 C 657.328 -0.182769 -4.57635 0
M  V30 6656 N 658.819 -0.129292 -4.6302 0
M  V30 6657 C 659.554 -0.274648 -5.72742 0
M  V30 6658 N 659.05 -0.477075 -6.91155 0
M  V30 6659 N 660.843 -0.213077 -5.61696 0
M  V30 6660 H 652.994 -1.07177 -1.83376 0
M  V30 6661 H 655.257 -0.423338 -0.848227 0
M  V30 6662 H 654.963 -1.01889 -3.36618 0
M  V30 6663 H 654.837 0.697863 -3.70688 0
M  V30 6664 H 657.224 1.02043 -2.76896 0
M  V30 6665 H 657.305 -0.718996 -2.45487 0
M  V30 6666 H 656.949 -1.16243 -4.94419 0
M  V30 6667 H 656.879 0.59423 -5.23237 0
M  V30 6668 H 659.37 0.0229896 -3.77893 0
M  V30 6669 H 659.683 -0.578413 -7.70632 0
M  V30 6670 H 658.028 -0.513252 -6.93102 0
M  V30 6671 H 661.219 -0.0557796 -4.68067 0
M  V30 6672 H 661.392 -0.329796 -6.4716 0
M  V30 6673 N 654.798 1.5699 0.138552 0
M  V30 6674 C 656.214 1.51844 0.491472 0
M  V30 6675 C 656.414 0.845063 1.82923 0
M  V30 6676 O 655.47 0.419143 2.48997 0
M  V30 6677 C 656.783 2.96615 0.493987 0
M  V30 6678 C 658.331 3.076 0.578913 0
M  V30 6679 C 658.806 4.53893 0.612009 0
M  V30 6680 N 660.297 4.5827 0.673997 0
M  V30 6681 C 661.032 5.68852 0.720729 0
M  V30 6682 N 660.528 6.88982 0.726292 0
M  V30 6683 N 662.321 5.56908 0.762253 0
M  V30 6684 H 654.472 1.99158 -0.738228 0
M  V30 6685 H 656.735 0.908693 -0.270149 0
M  V30 6686 H 656.441 3.49172 -0.420933 0
M  V30 6687 H 656.315 3.53017 1.32887 0
M  V30 6688 H 658.702 2.55057 1.48425 0
M  V30 6689 H 658.783 2.54227 -0.283286 0
M  V30 6690 H 658.427 5.07076 -0.289208 0
M  V30 6691 H 658.357 5.05057 1.49082 0
M  V30 6692 H 660.848 3.71793 0.676654 0
M  V30 6693 H 661.161 7.69014 0.764032 0
M  V30 6694 H 659.506 6.91526 0.69403 0
M  V30 6695 H 662.697 4.61969 0.755135 0
M  V30 6696 H 662.87 6.43102 0.795207 0
M  V30 6697 N 656.276 -0.40816 1.52223 0
M  V30 6698 C 657.523 -1.15502 1.66329 0
M  V30 6699 C 657.851 -1.90474 0.393701 0
M  V30 6700 O 657.106 -1.85507 -0.623356 0
M  V30 6701 C 657.405 -2.17422 2.83659 0
M  V30 6702 C 657.071 -1.5925 4.21841 0
M  V30 6703 C 655.733 -1.4311 4.59427 0
M  V30 6704 C 658.085 -1.16776 5.0795 0
M  V30 6705 C 655.413 -0.830148 5.80797 0
M  V30 6706 C 657.765 -0.580988 6.29926 0
M  V30 6707 C 656.429 -0.406729 6.6626 0
M  V30 6708 H 655.699 -0.422653 0.608642 0
M  V30 6709 H 658.346 -0.442114 1.86327 0
M  V30 6710 H 656.651 -2.94861 2.58001 0
M  V30 6711 H 658.348 -2.75084 2.9177 0
M  V30 6712 H 654.938 -1.72796 3.92224 0
M  V30 6713 H 659.122 -1.28055 4.79495 0
M  V30 6714 H 654.378 -0.68316 6.07571 0
M  V30 6715 H 658.552 -0.243488 6.95974 0
M  V30 6716 H 656.179 0.0610366 7.60175 0
M  V30 6717 N 657.755 -1.42862 -0.66545 0
M  V30 6718 C 658.98 -1.47456 -1.45848 0
M  V30 6719 C 659.405 -0.0900312 -1.87884 0
M  V30 6720 O 658.763 0.913587 -1.56599 0
M  V30 6721 C 658.811 -2.41514 -2.67774 0
M  V30 6722 O 657.915 -1.89296 -3.66389 0
M  V30 6723 H 657.256 -0.499236 -0.437789 0
M  V30 6724 H 659.786 -1.8765 -0.815394 0
M  V30 6725 H 659.796 -2.58409 -3.15735 0
M  V30 6726 H 658.471 -3.42099 -2.36519 0
M  V30 6727 H 657.048 -1.82003 -3.25468 0
M  V30 6728 N 659.233 0.902656 -1.29189 0
M  V30 6729 C 660.18 2.00643 -1.14066 0
M  V30 6730 C 661.15 1.66064 -0.0347756 0
M  V30 6731 O 662.335 1.8973 -0.201752 0
M  V30 6732 C 659.475 3.35214 -0.820104 0
M  V30 6733 C 658.588 3.82594 -2.00614 0
M  V30 6734 C 657.723 5.05727 -1.62522 0
M  V30 6735 C 656.762 5.45469 -2.77724 0
M  V30 6736 N 655.899 6.59789 -2.40048 0
M  V30 6737 H 660.739 2.1291 -2.08502 0
M  V30 6738 H 658.276 1.04271 -1.03759 0
M  V30 6739 H 660.234 4.12643 -0.614949 0
M  V30 6740 H 658.864 3.22682 0.0873452 0
M  V30 6741 H 657.916 3.01226 -2.32308 0
M  V30 6742 H 659.228 4.07999 -2.86946 0
M  V30 6743 H 658.382 5.90732 -1.38277 0
M  V30 6744 H 657.121 4.82155 -0.733333 0
M  V30 6745 H 656.126 4.59 -3.02653 0
M  V30 6746 H 657.351 5.71024 -3.67572 0
M  V30 6747 H 655.297 6.37826 -1.53343 0
M  V30 6748 H 655.214 6.84975 -3.19914 0
M  V30 6749 H 656.482 7.4807 -2.19116 0
M  V30 6750 N 660.711 1.11618 1.11262 0
M  V30 6751 C 661.621 0.78898 2.20935 0
M  V30 6752 C 662.637 -0.21867 1.7262 0
M  V30 6753 O 663.813 -0.0543826 2.01327 0
M  V30 6754 C 660.878 0.239014 3.45875 0
M  V30 6755 C 659.939 1.3055 4.08968 0
M  V30 6756 C 659.172 0.781687 5.27944 0
M  V30 6757 O 659.395 -0.387605 5.69082 0
M  V30 6758 O 658.329 1.54734 5.81671 0
M  V30 6759 H 662.155 1.70477 2.51339 0
M  V30 6760 H 659.74 0.892203 1.19834 0
M  V30 6761 H 661.622 -0.0632312 4.21353 0
M  V30 6762 H 660.297 -0.649454 3.17118 0
M  V30 6763 H 659.204 1.66079 3.35214 0
M  V30 6764 H 660.537 2.16743 4.41909 0
M  V30 6765 N 662.189 -1.289 0.906776 0
M  V30 6766 C 663.429 -1.97046 0.543329 0
M  V30 6767 C 663.793 -1.69862 -0.895034 0
M  V30 6768 O 664.994 -2.31521 -1.36571 0
M  V30 6769 C 663.265 -3.47489 0.835833 0
M  V30 6770 S 664.824 -4.3498 0.577756 0
M  V30 6771 H 661.642 -0.681908 0.201302 0
M  V30 6772 H 664.244 -1.5657 1.17073 0
M  V30 6773 H 662.948 -3.64768 1.88075 0
M  V30 6774 H 662.479 -3.92907 0.196817 0
M  V30 6775 H 664.494 -4.92868 -0.574052 0
M  V30 6776 N 663.667 -0.670007 -1.42649 0
M  V30 6777 C 664.907 -0.194106 -2.03476 0
M  V30 6778 C 665.271 1.1755 -1.51809 0
M  V30 6779 O 666.472 1.74579 -2.04391 0
M  V30 6780 C 664.743 -0.221828 -3.56711 0
M  V30 6781 S 666.302 0.183772 -4.38415 0
M  V30 6782 H 663.12 -0.0802478 -0.706457 0
M  V30 6783 H 665.722 -0.882092 -1.74469 0
M  V30 6784 H 664.426 -1.22107 -3.91814 0
M  V30 6785 H 663.957 0.486149 -3.90385 0
M  V30 6786 H 665.972 1.41839 -4.75496 0
M  V30 6787 N 665.145 1.52092 -0.413018 0
M  V30 6788 C 666.392 2.01855 0.161497 0
M  V30 6789 C 666.72 1.29845 1.44812 0
M  V30 6790 O 665.975 0.394471 1.91683 0
M  V30 6791 C 666.274 3.54529 0.4521 0
M  V30 6792 C 665.94 4.4469 -0.745788 0
M  V30 6793 C 664.602 4.69053 -1.07435 0
M  V30 6794 C 666.954 4.97742 -1.54604 0
M  V30 6795 C 664.282 5.43717 -2.20429 0
M  V30 6796 C 666.634 5.73642 -2.66678 0
M  V30 6797 C 665.298 5.96277 -3.00016 0
M  V30 6798 H 664.568 0.73864 0.0590961 0
M  V30 6799 H 667.215 1.83274 -0.555234 0
M  V30 6800 H 665.52 3.7131 1.25045 0
M  V30 6801 H 667.217 3.90546 0.909647 0
M  V30 6802 H 663.807 4.25907 -0.479725 0
M  V30 6803 H 667.991 4.78824 -1.30543 0
M  V30 6804 H 663.247 5.59462 -2.46602 0
M  V30 6805 H 667.421 6.13746 -3.29072 0
M  V30 6806 H 665.048 6.53913 -3.87688 0
M  V30 6807 N 666.623 0.143563 1.56945 0
M  V30 6808 C 668.039 -0.212877 1.58174 0
M  V30 6809 C 668.239 -1.64926 1.15766 0
M  V30 6810 O 667.295 -2.37535 0.856361 0
M  V30 6811 C 668.608 0.0427573 3.0067 0
M  V30 6812 C 670.156 -0.0212221 3.12993 0
M  V30 6813 C 670.631 0.207036 4.57532 0
M  V30 6814 N 672.122 0.153845 4.62944 0
M  V30 6815 C 672.857 0.305018 5.72588 0
M  V30 6816 N 672.353 0.513722 6.90893 0
M  V30 6817 N 674.146 0.242862 5.61575 0
M  V30 6818 H 666.297 1.08148 1.82805 0
M  V30 6819 H 668.56 0.427831 0.84597 0
M  V30 6820 H 668.266 1.03672 3.36073 0
M  V30 6821 H 668.14 -0.678195 3.71053 0
M  V30 6822 H 670.527 -1.00574 2.77433 0
M  V30 6823 H 670.608 0.732004 2.45103 0
M  V30 6824 H 670.252 1.18863 4.93795 0
M  V30 6825 H 670.182 -0.566473 5.23544 0
M  V30 6826 H 672.673 -0.00294866 3.779 0
M  V30 6827 H 672.986 0.619273 7.70315 0
M  V30 6828 H 671.331 0.550001 6.9282 0
M  V30 6829 H 674.522 0.0806015 4.68031 0
M  V30 6830 H 674.695 0.364112 6.46976 0
M  V30 6831 N 668.101 -1.57061 -0.130224 0
M  V30 6832 C 669.326 -1.88802 -0.858409 0
M  V30 6833 C 669.751 -0.734353 -1.73173 0
M  V30 6834 O 669.109 0.315529 -1.78533 0
M  V30 6835 C 669.157 -3.19228 -1.67708 0
M  V30 6836 O 668.261 -3.04343 -2.78297 0
M  V30 6837 H 667.602 -0.619849 -0.238083 0
M  V30 6838 H 670.132 -2.04271 -0.115995 0
M  V30 6839 H 670.142 -3.51669 -2.06864 0
M  V30 6840 H 668.817 -4.02793 -1.0359 0
M  V30 6841 H 667.394 -2.83346 -2.42425 0
M  V30 6842 N 669.579 0.400081 -1.52437 0
M  V30 6843 C 670.529 1.48734 -1.72807 0
M  V30 6844 C 671.513 1.50004 -0.582032 0
M  V30 6845 O 672.705 1.55828 -0.839449 0
M  V30 6846 C 669.834 2.86568 -1.89034 0
M  V30 6847 C 668.92 2.8991 -3.09537 0
M  V30 6848 N 669.311 2.62937 -4.32086 0
M  V30 6849 C 667.609 3.21078 -3.09556 0
M  V30 6850 C 668.31 2.73079 -5.13617 0
M  V30 6851 N 667.286 3.06342 -4.49061 0
M  V30 6852 H 671.088 1.26689 -2.65193 0
M  V30 6853 H 668.602 0.607902 -1.50593 0
M  V30 6854 H 670.599 3.64834 -2.01746 0
M  V30 6855 H 669.259 3.09604 -0.978547 0
M  V30 6856 H 670.27 2.37163 -4.60406 0
M  V30 6857 H 666.947 3.49651 -2.28146 0
M  V30 6858 H 668.337 2.55863 -6.21276 0
M  V30 6859 N 671.057 1.43213 0.657864 0
M  V30 6860 C 672.473 1.26511 0.972992 0
M  V30 6861 C 672.673 0.181477 2.00681 0
M  V30 6862 O 671.729 -0.441649 2.48608 0
M  V30 6863 C 673.042 2.62784 1.46168 0
M  V30 6864 C 674.59 2.70278 1.57857 0
M  V30 6865 C 675.065 4.06958 2.10117 0
M  V30 6866 N 676.556 4.08999 2.17426 0
M  V30 6867 C 677.291 5.11585 2.58975 0
M  V30 6868 N 676.787 6.24548 2.99853 0
M  V30 6869 N 678.58 4.9894 2.58873 0
M  V30 6870 H 670.731 2.12384 -0.0263129 0
M  V30 6871 H 672.994 0.946638 0.0507992 0
M  V30 6872 H 672.7 3.43022 0.776474 0
M  V30 6873 H 672.574 2.87863 2.43751 0
M  V30 6874 H 674.961 1.90376 2.25479 0
M  V30 6875 H 675.042 2.4897 0.587179 0
M  V30 6876 H 674.686 4.87325 1.43098 0
M  V30 6877 H 674.616 4.25628 3.10078 0
M  V30 6878 H 677.107 3.27457 1.88627 0
M  V30 6879 H 677.42 6.98661 3.30292 0
M  V30 6880 H 675.765 6.28027 2.97669 0
M  V30 6881 H 678.956 4.09757 2.26311 0
M  V30 6882 H 679.129 5.79019 2.90932 0
M  V30 6883 N 672.536 -0.895792 1.29666 0
M  V30 6884 C 673.761 -1.68528 1.20885 0
M  V30 6885 C 674.186 -1.8673 -0.226595 0
M  V30 6886 O 673.544 -1.39044 -1.16347 0
M  V30 6887 C 673.592 -3.04512 1.93144 0
M  V30 6888 O 672.696 -3.92963 1.25115 0
M  V30 6889 H 672.037 -0.515371 0.418675 0
M  V30 6890 H 674.567 -1.11878 1.71302 0
M  V30 6891 H 674.577 -3.54628 2.0175 0
M  V30 6892 H 673.252 -2.90582 2.97548 0
M  V30 6893 H 671.829 -3.51399 1.24794 0
M  V30 6894 N 674.014 -1.12206 -1.10668 0
M  V30 6895 C 675.239 -0.898938 -1.86906 0
M  V30 6896 C 675.664 0.546346 -1.79991 0
M  V30 6897 O 675.022 1.38655 -1.1681 0
M  V30 6898 C 675.07 -1.37529 -3.33344 0
M  V30 6899 O 674.174 -0.55218 -4.08687 0
M  V30 6900 H 673.515 -0.323163 -0.580053 0
M  V30 6901 H 676.045 -1.49355 -1.39837 0
M  V30 6902 H 676.055 -1.3733 -3.84193 0
M  V30 6903 H 674.73 -2.42767 -3.37693 0
M  V30 6904 H 673.307 -0.620947 -3.67694 0
M  V30 6905 N 675.492 1.28418 -0.913599 0
M  V30 6906 C 676.738 1.9527 -0.547484 0
M  V30 6907 C 677.071 1.71745 0.906486 0
M  V30 6908 O 676.346 1.03834 1.64465 0
M  V30 6909 C 676.629 3.49748 -0.857205 0
M  V30 6910 C 676.482 3.82675 -2.3639 0
M  V30 6911 C 677.801 4.3868 -0.353258 0
M  V30 6912 H 674.92 0.709236 -0.200381 0
M  V30 6913 H 677.562 1.51789 -1.14281 0
M  V30 6914 H 675.712 3.86915 -0.350548 0
M  V30 6915 H 677.384 3.55378 -2.94116 0
M  V30 6916 H 675.627 3.29724 -2.81894 0
M  V30 6917 H 676.298 4.90547 -2.53115 0
M  V30 6918 H 678.774 4.08584 -0.787288 0
M  V30 6919 H 677.65 5.45621 -0.599049 0
M  V30 6920 H 677.911 4.35753 0.746413 0
M  V30 6921 N 676.97 0.677563 1.42291 0
M  V30 6922 C 678.219 0.198173 2.00724 0
M  V30 6923 C 678.532 -1.20325 1.54211 0
M  V30 6924 O 679.738 -1.77916 2.05081 0
M  V30 6925 C 678.194 0.303432 3.58619 0
M  V30 6926 C 677.802 1.70909 4.14119 0
M  V30 6927 C 679.546 -0.117103 4.24338 0
M  V30 6928 C 677.453 1.76696 5.64387 0
M  V30 6929 H 676.383 0.070329 0.750713 0
M  V30 6930 H 679.034 0.843147 1.62982 0
M  V30 6931 H 677.416 -0.409482 3.93877 0
M  V30 6932 H 678.59 2.44931 3.90315 0
M  V30 6933 H 676.905 2.07771 3.6086 0
M  V30 6934 H 679.502 -0.0940471 5.34617 0
M  V30 6935 H 679.845 -1.15283 4.00019 0
M  V30 6936 H 680.378 0.5449 3.9405 0
M  V30 6937 H 677.117 2.7826 5.93508 0
M  V30 6938 H 676.637 1.07034 5.90173 0
M  V30 6939 H 678.316 1.52166 6.28852 0
M  V30 6940 N 678.448 -1.51871 0.421078 0
M  V30 6941 C 679.859 -1.86644 -0.0457991 0
M  V30 6942 C 680.21 -1.33919 -1.43388 0
M  V30 6943 O 679.335 -0.683316 -2.05328 0
M  V30 6944 C 679.93 -3.38681 -0.0898844 0
M  V30 6945 C 678.489 -3.73049 -0.501127 0
M  V30 6946 C 677.636 -2.75485 0.316723 0
M  V30 6947 H 680.587 -1.45327 0.637635 0
M  V30 6948 H 680.608 -3.69636 -0.902734 0
M  V30 6949 H 680.12 -3.77025 0.920513 0
M  V30 6950 H 678.221 -3.40288 -1.51773 0
M  V30 6951 H 678.334 -4.78512 -0.237217 0
M  V30 6952 H 676.698 -2.53725 -0.222663 0
M  V30 6953 H 677.481 -3.16671 1.32569 0
M  V30 6954 N 679.926 -0.151884 -1.56866 0
M  V30 6955 C 681.337 0.368128 -1.83035 0
M  V30 6956 C 681.688 1.64402 -1.07082 0
M  V30 6957 O 680.813 2.14056 -0.317647 0
M  V30 6958 C 681.408 0.674676 -3.32014 0
M  V30 6959 C 679.967 1.13919 -3.58747 0
M  V30 6960 C 679.114 0.164833 -2.7681 0
M  V30 6961 H 682.065 -0.376499 -1.54169 0
M  V30 6962 H 682.086 1.52883 -3.48435 0
M  V30 6963 H 681.598 -0.254113 -3.87267 0
M  V30 6964 H 679.699 2.08375 -3.08886 0
M  V30 6965 H 679.812 1.06179 -4.67186 0
M  V30 6966 H 678.176 0.658419 -2.46043 0
M  V30 6967 H 678.959 -0.757633 -3.34836 0
M  V30 6968 N 681.404 1.57128 0.121893 0
M  V30 6969 C 682.632 1.88883 0.844451 0
M  V30 6970 C 683.047 0.742824 1.73573 0
M  V30 6971 O 682.404 -0.286475 1.80238 0
M  V30 6972 C 682.455 3.20076 1.68029 0
M  V30 6973 O 682.176 4.30264 0.824898 0
M  V30 6974 C 683.677 3.65515 2.50826 0
M  V30 6975 H 680.897 0.62549 0.242907 0
M  V30 6976 H 683.441 2.04219 0.107151 0
M  V30 6977 H 681.596 3.06418 2.37038 0
M  V30 6978 H 682.01 5.05439 1.40113 0
M  V30 6979 H 683.484 4.60081 3.05008 0
M  V30 6980 H 683.961 2.92029 3.28048 0
M  V30 6981 H 684.567 3.81952 1.87064 0
M  V30 6982 N 682.882 -0.391992 1.52647 0
M  V30 6983 C 683.845 -1.46135 1.7657 0
M  V30 6984 C 684.845 -1.47701 0.635698 0
M  V30 6985 O 686.035 -1.48924 0.903728 0
M  V30 6986 C 683.167 -2.85443 1.86374 0
M  V30 6987 H 684.36 -1.26208 2.72051 0
M  V30 6988 H 681.913 -0.623549 1.43323 0
M  V30 6989 H 682.648 -3.10718 0.928685 0
M  V30 6990 H 682.433 -2.85708 2.68539 0
M  V30 6991 H 683.923 -3.62933 2.06566 0
M  V30 6992 N 684.36 -1.4356 -0.65026 0
M  V30 6993 C 685.29 -1.51758 -1.77459 0
M  V30 6994 C 686.271 -0.372019 -1.65982 0
M  V30 6995 O 687.456 -0.589627 -1.85033 0
M  V30 6996 C 684.586 -1.44302 -3.15902 0
M  V30 6997 C 683.54 -2.57138 -3.42146 0
M  V30 6998 C 682.866 -2.34735 -4.8042 0
M  V30 6999 C 684.166 -3.99373 -3.36598 0
M  V30 7000 H 685.86 -2.45863 -1.70855 0
M  V30 7001 H 683.406 -1.18333 -0.820566 0
M  V30 7002 H 685.359 -1.48641 -3.94314 0
M  V30 7003 H 684.083 -0.467026 -3.23244 0
M  V30 7004 H 682.742 -2.52157 -2.66106 0
M  V30 7005 H 682.39 -1.35372 -4.84441 0
M  V30 7006 H 682.09 -3.10375 -4.9894 0
M  V30 7007 H 683.614 -2.40862 -5.61086 0
M  V30 7008 H 685.028 -4.05826 -4.04942 0
M  V30 7009 H 683.425 -4.75063 -3.66654 0
M  V30 7010 H 684.495 -4.243 -2.34729 0
M  V30 7011 N 685.838 0.888903 -1.30139 0
M  V30 7012 C 687.063 1.67884 -1.21777 0
M  V30 7013 C 687.488 1.86848 0.216689 0
M  V30 7014 O 686.846 1.39659 1.15608 0
M  V30 7015 C 686.894 3.03483 -1.94757 0
M  V30 7016 O 685.998 3.92294 -1.27198 0
M  V30 7017 H 685.339 0.513144 -0.421402 0
M  V30 7018 H 687.869 1.10968 -1.71893 0
M  V30 7019 H 687.879 3.53553 -2.03627 0
M  V30 7020 H 686.554 2.89 -2.99085 0
M  V30 7021 H 685.131 3.50732 -1.26655 0
M  V30 7022 N 687.317 1.12792 1.10072 0
M  V30 7023 C 688.594 0.796867 1.78632 0
M  V30 7024 C 688.974 -0.712739 1.98704 0
M  V30 7025 O 688.322 -1.64773 1.5831 0
M  V30 7026 C 688.532 1.57622 3.11378 0
M  V30 7027 C 689.88 1.76463 3.86194 0
M  V30 7028 O 690.904 1.54165 3.2111 0
M  V30 7029 O 689.763 2.13623 5.03018 0
M  V30 7030 H 686.857 0.290248 0.774394 0
M  V30 7031 H 689.403 1.23215 1.16688 0
M  V30 7032 H 688.175 2.60246 2.92212 0
M  V30 7033 H 687.798 1.13543 3.81043 0
M  V30 7034 N 688.795 -1.27931 0.920396 0
M  V30 7035 C 690.206 -1.76707 0.602616 0
M  V30 7036 C 690.557 -1.75249 -0.882159 0
M  V30 7037 O 689.682 -1.35135 -1.69019 0
M  V30 7038 C 690.277 -3.20884 1.08714 0
M  V30 7039 C 688.836 -3.67356 0.820157 0
M  V30 7040 C 687.983 -2.47525 1.25006 0
M  V30 7041 H 690.934 -1.14301 1.10095 0
M  V30 7042 H 690.955 -3.78045 0.431535 0
M  V30 7043 H 690.467 -3.21913 2.1678 0
M  V30 7044 H 688.568 -3.7178 -0.247012 0
M  V30 7045 H 688.681 -4.57181 1.43257 0
M  V30 7046 H 687.045 -2.45765 0.668698 0
M  V30 7047 H 687.828 -2.51269 2.3392 0
M  V30 7048 N 690.273 -0.685099 -1.4193 0
M  V30 7049 C 691.22 -0.0131869 -2.30796 0
M  V30 7050 C 692.19 0.782129 -1.46533 0
M  V30 7051 O 693.375 0.75229 -1.75343 0
M  V30 7052 C 690.515 0.924768 -3.32479 0
M  V30 7053 C 689.628 0.122181 -4.31827 0
M  V30 7054 C 688.763 1.05682 -5.20581 0
M  V30 7055 C 687.802 0.246526 -6.11603 0
M  V30 7056 N 686.939 1.13442 -6.92875 0
M  V30 7057 H 691.779 -0.776789 -2.87698 0
M  V30 7058 H 689.316 -0.394791 -1.41703 0
M  V30 7059 H 691.274 1.48251 -3.89971 0
M  V30 7060 H 689.904 1.65488 -2.77152 0
M  V30 7061 H 688.956 -0.552335 -3.76369 0
M  V30 7062 H 690.268 -0.506473 -4.96222 0
M  V30 7063 H 689.422 1.68415 -5.82856 0
M  V30 7064 H 688.161 1.71935 -4.56388 0
M  V30 7065 H 687.166 -0.393944 -5.48387 0
M  V30 7066 H 688.391 -0.412053 -6.77849 0
M  V30 7067 H 686.337 1.78316 -6.313 0
M  V30 7068 H 686.254 0.561089 -7.53915 0
M  V30 7069 H 687.522 1.74889 -7.59628 0
M  V30 7070 N 691.751 1.51645 -0.429126 0
M  V30 7071 C 692.999 2.01616 0.139802 0
M  V30 7072 C 693.32 1.31568 1.43927 0
M  V30 7073 O 692.59 0.447688 1.90716 0
M  V30 7074 H 691.17 0.744998 0.054654 0
M  V30 7075 H 693.832 1.8638 -0.569952 0
M  V30 7076 H 692.928 3.10439 0.321609 0
M  V30 7077 N 693.229 0.160201 1.56784 0
M  V30 7078 C 694.506 -0.533355 1.88188 0
M  V30 7079 C 694.886 -1.82072 1.06831 0
M  V30 7080 O 694.234 -2.27946 0.158959 0
M  V30 7081 C 694.444 -0.786034 3.40033 0
M  V30 7082 C 695.792 -1.12097 4.09536 0
M  V30 7083 O 696.816 -0.874949 3.45287 0
M  V30 7084 O 695.675 -1.58457 5.23023 0
M  V30 7085 H 692.769 -0.273589 0.780434 0
M  V30 7086 H 695.315 0.197803 1.68543 0
M  V30 7087 H 694.087 0.124515 3.91102 0
M  V30 7088 H 693.71 -1.57091 3.65251 0
M  V30 7089 N 694.707 -1.5719 -0.113559 0
M  V30 7090 C 695.955 -1.84772 -0.818761 0
M  V30 7091 C 696.276 -0.746196 -1.80158 0
M  V30 7092 O 695.546 0.229305 -1.94553 0
M  V30 7093 H 694.126 -0.681737 -0.305359 0
M  V30 7094 H 696.788 -1.94645 -0.0995845 0
M  V30 7095 H 695.884 -2.80878 -1.36067 0
M  V30 7096 N 696.185 0.383891 -1.52853 0
M  V30 7097 C 697.117 1.48889 -1.74255 0
M  V30 7098 C 698.13 1.50405 -0.623063 0
M  V30 7099 O 699.319 1.54215 -0.898887 0
M  V30 7100 C 696.419 2.87721 -1.79081 0
M  V30 7101 C 695.592 3.10111 -3.08464 0
M  V30 7102 C 694.651 4.28954 -3.0477 0
M  V30 7103 O 693.677 4.25012 -3.78621 0
M  V30 7104 N 694.879 5.35411 -2.24311 0
M  V30 7105 H 697.644 1.30915 -2.69595 0
M  V30 7106 H 695.205 0.573454 -1.51404 0
M  V30 7107 H 697.197 3.65333 -1.7411 0
M  V30 7108 H 695.767 2.99029 -0.911052 0
M  V30 7109 H 694.987 2.20319 -3.26884 0
M  V30 7110 H 696.275 3.21928 -3.94005 0
M  V30 7111 H 695.673 5.41471 -1.63787 0
M  V30 7112 H 694.23 6.1167 -2.25175 0
M  V30 7113 N 697.663 1.43903 0.642637 0
M  V30 7114 C 698.593 1.52697 1.76652 0
M  V30 7115 C 699.574 0.380816 1.65782 0
M  V30 7116 O 700.759 0.599432 1.84717 0
M  V30 7117 C 697.889 1.45975 3.15133 0
M  V30 7118 C 696.843 2.58949 3.40778 0
M  V30 7119 C 696.169 2.37279 4.79169 0
M  V30 7120 C 697.469 4.01153 3.34475 0
M  V30 7121 H 699.163 2.46766 1.69549 0
M  V30 7122 H 696.709 1.18767 0.814279 0
M  V30 7123 H 698.662 1.5073 3.93521 0
M  V30 7124 H 697.386 0.484162 3.22991 0
M  V30 7125 H 696.045 2.53564 2.64765 0
M  V30 7126 H 695.693 1.37939 4.83717 0
M  V30 7127 H 695.393 3.13016 4.97287 0
M  V30 7128 H 696.917 2.43834 5.59801 0
M  V30 7129 H 698.331 4.07968 4.02784 0
M  V30 7130 H 696.728 4.77001 3.64129 0
M  V30 7131 H 697.798 4.25539 2.32475 0
M  V30 7132 N 699.141 -0.881989 1.30609 0
M  V30 7133 C 700.387 -1.63647 1.19781 0
M  V30 7134 C 700.72 -1.92632 -0.246265 0
M  V30 7135 O 699.995 -1.54938 -1.17577 0
M  V30 7136 C 700.278 -2.97437 2.02985 0
M  V30 7137 C 700.131 -2.75406 3.55628 0
M  V30 7138 C 701.45 -3.98397 1.86997 0
M  V30 7139 H 698.569 -0.593841 0.436488 0
M  V30 7140 H 701.211 -1.02041 1.60273 0
M  V30 7141 H 699.361 -3.50018 1.68581 0
M  V30 7142 H 701.033 -2.2959 4.00107 0
M  V30 7143 H 699.276 -2.09856 3.79662 0
M  V30 7144 H 699.947 -3.70552 4.09139 0
M  V30 7145 H 702.423 -3.54986 2.17081 0
M  V30 7146 H 701.299 -4.89916 2.47536 0
M  V30 7147 H 701.56 -4.3424 0.829943 0
M  V30 7148 N 700.619 -1.13374 -1.09472 0
M  V30 7149 C 701.865 -0.896516 -1.81908 0
M  V30 7150 C 702.198 0.575933 -1.85463 0
M  V30 7151 O 701.473 1.42618 -1.32251 0
M  V30 7152 C 701.756 -1.48445 -3.28079 0
M  V30 7153 C 701.609 -3.02598 -3.32798 0
M  V30 7154 C 702.928 -1.15226 -4.24748 0
M  V30 7155 H 700.047 -0.327127 -0.660422 0
M  V30 7156 H 702.689 -1.40195 -1.2824 0
M  V30 7157 H 700.839 -1.0546 -3.73912 0
M  V30 7158 H 702.511 -3.54335 -2.95372 0
M  V30 7159 H 700.754 -3.37613 -2.72397 0
M  V30 7160 H 701.425 -3.38835 -4.3577 0
M  V30 7161 H 703.901 -1.52369 -3.87199 0
M  V30 7162 H 702.777 -1.59012 -5.25363 0
M  V30 7163 H 703.038 -0.0658891 -4.42051 0
M  V30 7164 N 702.098 1.27442 -0.927168 0
M  V30 7165 C 703.323 1.99036 -0.583042 0
M  V30 7166 C 703.748 1.68711 0.83176 0
M  V30 7167 O 703.106 0.927081 1.55804 0
M  V30 7168 C 703.154 3.51271 -0.814925 0
M  V30 7169 O 702.258 4.12226 0.119742 0
M  V30 7170 H 701.599 0.624883 -0.224538 0
M  V30 7171 H 704.129 1.62263 -1.24628 0
M  V30 7172 H 704.139 4.01411 -0.730282 0
M  V30 7173 H 702.814 3.72676 -1.84623 0
M  V30 7174 H 701.391 3.72897 -0.0147688 0
M  V30 7175 N 703.576 0.692616 1.41565 0
M  V30 7176 C 704.801 0.229776 2.06123 0
M  V30 7177 C 705.226 -1.11119 1.5177 0
M  V30 7178 O 704.584 -1.69498 0.643444 0
M  V30 7179 C 704.632 0.19469 3.60074 0
M  V30 7180 O 703.736 -0.831366 4.03933 0
M  V30 7181 H 703.077 0.113002 0.654314 0
M  V30 7182 H 705.607 0.946645 1.81383 0
M  V30 7183 H 705.617 0.0245487 4.07993 0
M  V30 7184 H 704.292 1.17339 3.99004 0
M  V30 7185 H 702.869 -0.630819 3.67526 0
M  V30 7186 N 705.054 -1.51416 0.437162 0
M  V30 7187 C 706.331 -1.94682 -0.189292 0
M  V30 7188 C 706.711 -1.37581 -1.60108 0
M  V30 7189 O 706.059 -0.562815 -2.2146 0
M  V30 7190 C 706.269 -3.48599 -0.167201 0
M  V30 7191 C 707.617 -4.2296 -0.372856 0
M  V30 7192 O 708.641 -3.55354 -0.245323 0
M  V30 7193 O 707.5 -5.42895 -0.626693 0
M  V30 7194 H 704.594 -0.816708 -0.130063 0
M  V30 7195 H 707.14 -1.62316 0.495128 0
M  V30 7196 H 705.912 -3.82616 0.81981 0
M  V30 7197 H 705.535 -3.87406 -0.894537 0
M  V30 7198 N 706.532 -0.168513 -1.56696 0
M  V30 7199 C 707.779 0.477158 -1.96798 0
M  V30 7200 C 708.107 1.63442 -1.05437 0
M  V30 7201 O 707.362 1.95503 -0.0878903 0
M  V30 7202 C 707.661 1.00441 -3.42996 0
M  V30 7203 C 707.327 -0.0366556 -4.50885 0
M  V30 7204 C 705.989 -0.322785 -4.80116 0
M  V30 7205 C 708.341 -0.743447 -5.1587 0
M  V30 7206 C 705.669 -1.32114 -5.71632 0
M  V30 7207 C 708.021 -1.73077 -6.08463 0
M  V30 7208 C 706.685 -2.02437 -6.36062 0
M  V30 7209 H 705.955 0.174604 -0.720135 0
M  V30 7210 H 708.602 -0.259884 -1.89728 0
M  V30 7211 H 706.907 1.81922 -3.47004 0
M  V30 7212 H 708.604 1.51294 -3.71364 0
M  V30 7213 H 705.194 0.196532 -4.28149 0
M  V30 7214 H 709.378 -0.535602 -4.93401 0
M  V30 7215 H 704.634 -1.55482 -5.913 0
M  V30 7216 H 708.808 -2.28382 -6.57886 0
M  V30 7217 H 706.435 -2.79946 -7.06777 0
M  V30 7218 N 708.01 1.57248 0.105221 0
M  V30 7219 C 709.256 1.86719 0.806692 0
M  V30 7220 C 709.611 0.758061 1.76837 0
M  V30 7221 O 708.904 -0.240812 1.90081 0
M  V30 7222 C 709.098 3.20437 1.58287 0
M  V30 7223 C 708.927 4.44252 0.697864 0
M  V30 7224 C 707.697 5.04104 0.347444 0
M  V30 7225 C 709.895 5.14299 0.00933014 0
M  V30 7226 N 707.877 6.1146 -0.546786 0
M  V30 7227 C 709.248 6.15528 -0.74336 0
M  V30 7228 C 711.303 4.97857 -0.0656505 0
M  V30 7229 C 710.006 7.02091 -1.56401 0
M  V30 7230 C 712.032 5.84919 -0.873167 0
M  V30 7231 C 711.394 6.8566 -1.61401 0
M  V30 7232 H 707.493 0.73329 0.271679 0
M  V30 7233 H 710.077 1.94575 0.0697152 0
M  V30 7234 H 708.248 3.13651 2.29079 0
M  V30 7235 H 709.98 3.37668 2.23075 0
M  V30 7236 H 706.735 4.68505 0.692817 0
M  V30 7237 H 707.159 6.69779 -0.986157 0
M  V30 7238 H 711.801 4.19919 0.492768 0
M  V30 7239 H 709.519 7.79427 -2.13353 0
M  V30 7240 H 713.105 5.74259 -0.933724 0
M  V30 7241 H 711.985 7.5186 -2.2288 0
M  V30 7242 N 709.488 -0.375779 1.53054 0
M  V30 7243 C 710.436 -1.48015 1.79428 0
M  V30 7244 C 711.43 -1.55893 0.662854 0
M  V30 7245 O 712.636 -1.58901 0.845599 0
M  V30 7246 H 709.011 -0.492887 0.56795 0
M  V30 7247 H 710.982 -1.22971 2.71884 0
M  V30 7248 C 709.731 -2.84984 1.99197 0
M  V30 7249 H 709.054 -2.79677 2.85693 0
M  V30 7250 H 710.494 -3.61462 2.21633 0
M  V30 7251 C 708.953 -3.28025 0.768183 0
M  V30 7252 O 709.483 -4.01671 -0.0480482 0
M  V30 7253 N 707.689 -2.84454 0.594521 0
M  V30 7254 H 707.236 -2.24688 1.25988 0
M  V30 7255 H 707.194 -3.13609 -0.222916 0
M  V30 7256 N 710.966 -1.44241 -0.634997 0
M  V30 7257 C 711.896 -1.53632 -1.7584 0
M  V30 7258 C 712.877 -0.389603 -1.65578 0
M  V30 7259 O 714.062 -0.609219 -1.84397 0
M  V30 7260 C 711.192 -1.47644 -3.14354 0
M  V30 7261 C 710.146 -2.60752 -3.394 0
M  V30 7262 C 709.472 -2.39817 -4.77904 0
M  V30 7263 C 710.772 -4.02921 -3.32343 0
M  V30 7264 H 712.466 -2.47662 -1.68238 0
M  V30 7265 H 710.012 -1.19197 -0.807969 0
M  V30 7266 H 711.965 -1.52815 -3.92716 0
M  V30 7267 H 710.689 -0.501284 -3.2273 0
M  V30 7268 H 709.348 -2.54965 -2.63417 0
M  V30 7269 H 708.996 -1.40502 -4.82978 0
M  V30 7270 H 708.696 -3.15649 -4.9562 0
M  V30 7271 H 710.22 -2.46799 -5.585 0
M  V30 7272 H 711.634 -4.10098 -4.00615 0
M  V30 7273 H 710.031 -4.78925 -3.61595 0
M  V30 7274 H 711.101 -4.26766 -2.30215 0
M  V30 7275 N 712.444 0.87505 -1.31075 0
M  V30 7276 C 713.721 1.60976 -1.11113 0
M  V30 7277 C 714.101 2.08409 0.336006 0
M  V30 7278 O 713.449 1.85858 1.32924 0
M  V30 7279 C 713.659 2.77166 -2.12085 0
M  V30 7280 C 715.007 3.47254 -2.44335 0
M  V30 7281 O 716.031 2.87367 -2.10472 0
M  V30 7282 O 714.89 4.55276 -3.02301 0
M  V30 7283 H 711.984 0.707982 -0.427424 0
M  V30 7284 H 714.53 0.920957 -1.42536 0
M  V30 7285 H 713.302 2.39494 -3.09449 0
M  V30 7286 H 712.925 3.53737 -1.81538 0
M  V30 7287 N 713.922 1.13953 1.08869 0
M  V30 7288 C 715.168 0.916103 1.81602 0
M  V30 7289 C 715.523 -0.551633 1.84322 0
M  V30 7290 O 714.816 -1.40322 1.30462 0
M  V30 7291 C 715.01 1.44495 3.26888 0
M  V30 7292 C 714.839 2.96257 3.38322 0
M  V30 7293 C 713.609 3.64658 3.49789 0
M  V30 7294 C 715.807 3.94156 3.30372 0
M  V30 7295 N 713.789 5.04379 3.49965 0
M  V30 7296 C 715.16 5.20101 3.37484 0
M  V30 7297 C 717.215 3.86342 3.14077 0
M  V30 7298 C 715.918 6.39145 3.29979 0
M  V30 7299 C 717.944 5.04927 3.07901 0
M  V30 7300 C 717.306 6.29738 3.1561 0
M  V30 7301 H 713.405 0.388701 0.678554 0
M  V30 7302 H 715.989 1.44879 1.3007 0
M  V30 7303 H 714.16 0.939102 3.76876 0
M  V30 7304 H 715.892 1.16193 3.87661 0
M  V30 7305 H 712.647 3.15196 3.5348 0
M  V30 7306 H 713.071 5.77305 3.53622 0
M  V30 7307 H 717.713 2.90726 3.06982 0
M  V30 7308 H 715.431 7.3501 3.35836 0
M  V30 7309 H 719.017 5.00626 2.9642 0
M  V30 7310 H 717.897 7.19958 3.10854 0
M  V30 7311 N 715.4 -1.26948 0.933913 0
M  V30 7312 C 716.625 -1.98724 0.593589 0
M  V30 7313 C 717.05 -1.6915 -0.822801 0
M  V30 7314 O 716.408 -0.93533 -1.5531 0
M  V30 7315 C 716.456 -3.50834 0.833542 0
M  V30 7316 O 715.56 -4.12284 -0.0978788 0
M  V30 7317 H 714.901 -0.623683 0.227849 0
M  V30 7318 H 717.431 -1.61599 1.25486 0
M  V30 7319 H 717.441 -4.01018 0.75156 0
M  V30 7320 H 716.116 -3.71691 1.86597 0
M  V30 7321 H 714.693 -3.72884 0.0345443 0
M  V30 7322 N 716.879 -0.700114 -1.41195 0
M  V30 7323 C 718.104 -0.240704 -2.05998 0
M  V30 7324 C 718.529 1.10313 -1.52357 0
M  V30 7325 O 717.887 1.69154 -0.652424 0
M  V30 7326 C 717.935 -0.213783 -3.59966 0
M  V30 7327 O 717.039 0.809933 -4.04368 0
M  V30 7328 H 716.38 -0.116471 -0.653705 0
M  V30 7329 H 718.91 -0.956251 -1.80878 0
M  V30 7330 H 718.92 -0.0461852 -4.07974 0
M  V30 7331 H 717.595 -1.19454 -3.98376 0
M  V30 7332 H 716.172 0.611319 -3.67855 0
M  V30 7333 N 718.357 1.51182 -0.445186 0
M  V30 7334 C 719.32 2.26501 0.350722 0
M  V30 7335 C 720.32 1.3025 0.942952 0
M  V30 7336 O 721.51 1.53897 0.816175 0
M  V30 7337 C 718.642 3.06274 1.49697 0
M  V30 7338 H 719.835 2.98299 -0.309474 0
M  V30 7339 H 717.388 1.55034 -0.198551 0
M  V30 7340 H 718.123 2.38911 2.19299 0
M  V30 7341 H 717.908 3.76979 1.0784 0
M  V30 7342 H 719.398 3.63306 2.05909 0
M  V30 7343 N 719.835 0.176821 1.56605 0
M  V30 7344 C 721.075 -0.469104 1.98944 0
M  V30 7345 C 721.439 -1.60048 1.06059 0
M  V30 7346 O 722.64 -2.30934 1.3756 0
M  V30 7347 C 720.911 -0.934571 3.44965 0
M  V30 7348 S 722.47 -1.58091 4.09332 0
M  V30 7349 H 719.288 -0.150695 0.694847 0
M  V30 7350 H 721.89 0.27558 1.93548 0
M  V30 7351 H 720.594 -0.100814 4.10276 0
M  V30 7352 H 720.125 -1.71316 3.54139 0
M  V30 7353 H 722.14 -2.86922 4.04834 0
M  V30 7354 N 721.313 -1.57302 -0.09688 0
M  V30 7355 C 722.538 -1.9058 -0.818169 0
M  V30 7356 C 722.963 -0.770921 -1.71576 0
M  V30 7357 O 722.321 0.277588 -1.79162 0
M  V30 7358 C 722.369 -3.22714 -1.60898 0
M  V30 7359 O 721.473 -3.10178 -2.71779 0
M  V30 7360 H 720.814 -0.624759 -0.224882 0
M  V30 7361 H 723.344 -2.04471 -0.07264 0
M  V30 7362 H 723.354 -3.55978 -1.99358 0
M  V30 7363 H 722.029 -4.04899 -0.950227 0
M  V30 7364 H 720.606 -2.88424 -2.3636 0
M  V30 7365 N 722.791 0.367657 -1.53252 0
M  V30 7366 C 724.031 1.11923 -1.71034 0
M  V30 7367 C 724.395 1.86618 -0.45143 0
M  V30 7368 O 725.596 2.63996 -0.505915 0
M  V30 7369 C 723.867 2.05461 -2.92439 0
M  V30 7370 S 725.426 2.88167 -3.30916 0
M  V30 7371 H 722.244 0.378549 -0.601848 0
M  V30 7372 H 724.846 0.400757 -1.91348 0
M  V30 7373 H 723.55 1.49346 -3.82262 0
M  V30 7374 H 723.081 2.81784 -2.7452 0
M  V30 7375 H 725.096 4.07746 -2.82767 0
M  V30 7376 N 724.269 1.44576 0.627338 0
M  V30 7377 C 725.68 1.42266 1.20902 0
M  V30 7378 C 726.031 0.139964 1.957 0
M  V30 7379 O 725.156 -0.759489 2.02634 0
M  V30 7380 C 725.751 2.57727 2.19914 0
M  V30 7381 C 724.31 2.58599 2.73502 0
M  V30 7382 C 723.457 2.34145 1.48564 0
M  V30 7383 H 726.408 1.53102 0.417791 0
M  V30 7384 H 726.429 2.30697 3.02588 0
M  V30 7385 H 725.941 3.51068 1.65447 0
M  V30 7386 H 724.042 1.6921 3.31962 0
M  V30 7387 H 724.155 3.57205 3.19282 0
M  V30 7388 H 722.519 1.83313 1.76829 0
M  V30 7389 H 723.302 3.29606 0.959935 0
M  V30 7390 N 725.747 -0.868086 1.31537 0
M  V30 7391 C 726.677 -1.99131 1.21939 0
M  V30 7392 C 727.658 -1.69768 0.106166 0
M  V30 7393 O 728.843 -1.92006 0.291081 0
M  V30 7394 C 725.973 -3.34676 0.927879 0
M  V30 7395 C 724.927 -3.7835 2.00088 0
M  V30 7396 C 724.253 -5.11375 1.56203 0
M  V30 7397 C 725.553 -3.95256 3.41424 0
M  V30 7398 H 727.247 -2.07419 2.15911 0
M  V30 7399 H 724.793 -0.996569 1.03945 0
M  V30 7400 H 726.746 -4.12793 0.847327 0
M  V30 7401 H 725.47 -3.26565 -0.0475042 0
M  V30 7402 H 724.129 -3.02474 2.07135 0
M  V30 7403 H 723.777 -4.99709 0.57445 0
M  V30 7404 H 723.477 -5.41568 2.27985 0
M  V30 7405 H 725.001 -5.92001 1.49558 0
M  V30 7406 H 726.415 -4.63764 3.3704 0
M  V30 7407 H 724.812 -4.36849 4.1144 0
M  V30 7408 H 725.882 -2.98579 3.82072 0
M  V30 7409 N 727.225 -1.14528 -1.08264 0
M  V30 7410 C 728.155 -0.856356 -2.1723 0
M  V30 7411 C 729.136 0.189251 -1.69044 0
M  V30 7412 O 730.321 0.0456119 -1.94146 0
M  V30 7413 C 727.451 -0.334662 -3.45684 0
M  V30 7414 C 726.405 -1.31588 -4.0727 0
M  V30 7415 C 725.731 -0.653428 -5.30692 0
M  V30 7416 C 727.031 -2.67866 -4.48381 0
M  V30 7417 H 728.725 -1.76755 -2.41657 0
M  V30 7418 H 726.271 -0.851287 -1.16143 0
M  V30 7419 H 728.224 -0.120128 -4.21229 0
M  V30 7420 H 726.948 0.611967 -3.20815 0
M  V30 7421 H 725.607 -1.51661 -3.33758 0
M  V30 7422 H 725.255 0.299054 -5.0211 0
M  V30 7423 H 724.955 -1.30817 -5.72853 0
M  V30 7424 H 726.479 -0.448453 -6.08951 0
M  V30 7425 H 727.893 -2.51692 -5.15096 0
M  V30 7426 H 726.29 -3.29627 -5.01464 0
M  V30 7427 H 727.36 -3.24632 -3.60198 0
M  V30 7428 N 728.703 1.26451 -0.940633 0
M  V30 7429 C 729.952 1.93071 -0.583656 0
M  V30 7430 C 730.265 1.74618 0.881366 0
M  V30 7431 O 731.471 2.35689 1.34769 0
M  V30 7432 C 729.927 3.45927 -0.993106 0
M  V30 7433 C 729.535 3.73115 -2.4797 0
M  V30 7434 C 731.279 4.18554 -0.707998 0
M  V30 7435 C 729.186 5.19408 -2.82788 0
M  V30 7436 H 728.116 0.722824 -0.214572 0
M  V30 7437 H 730.767 1.43538 -1.1432 0
M  V30 7438 H 729.149 3.94341 -0.362099 0
M  V30 7439 H 730.323 3.35408 -3.15971 0
M  V30 7440 H 728.638 3.13719 -2.73805 0
M  V30 7441 H 731.235 5.26293 -0.94447 0
M  V30 7442 H 731.578 4.14782 0.355225 0
M  V30 7443 H 732.111 3.76003 -1.2987 0
M  V30 7444 H 728.85 5.28281 -3.88071 0
M  V30 7445 H 728.37 5.58214 -2.19449 0
M  V30 7446 H 730.049 5.87407 -2.71224 0
M  V30 7447 N 730.181 0.707592 1.40822 0
M  V30 7448 C 731.428 0.243671 2.01029 0
M  V30 7449 C 731.756 -1.16057 1.5608 0
M  V30 7450 O 731.011 -1.7999 0.768251 0
M  V30 7451 C 731.31 0.262892 3.56432 0
M  V30 7452 C 730.976 1.61632 4.20935 0
M  V30 7453 C 729.638 1.98682 4.38268 0
M  V30 7454 C 731.99 2.50619 4.5699 0
M  V30 7455 C 729.318 3.2428 4.88937 0
M  V30 7456 C 731.67 3.75562 5.09054 0
M  V30 7457 C 730.334 4.12739 5.24598 0
M  V30 7458 H 729.604 0.0891654 0.735616 0
M  V30 7459 H 732.251 0.909051 1.68548 0
M  V30 7460 H 730.556 -0.486052 3.88773 0
M  V30 7461 H 732.253 -0.113775 4.00839 0
M  V30 7462 H 728.843 1.31818 4.07826 0
M  V30 7463 H 733.027 2.23272 4.43242 0
M  V30 7464 H 728.283 3.53064 4.99155 0
M  V30 7465 H 732.457 4.44692 5.35931 0
M  V30 7466 H 730.084 5.10132 5.63622 0
M  V30 7467 N 731.66 -1.50943 0.453197 0
M  V30 7468 C 732.909 -2.01402 -0.10951 0
M  V30 7469 C 733.222 -1.3411 -1.42386 0
M  V30 7470 O 734.428 -1.75626 -2.07045 0
M  V30 7471 C 732.884 -3.5906 -0.245693 0
M  V30 7472 C 732.492 -4.353 1.05916 0
M  V30 7473 C 734.236 -4.17617 -0.761318 0
M  V30 7474 C 732.143 -5.84699 0.887752 0
M  V30 7475 H 731.073 -0.752674 -0.0447013 0
M  V30 7476 H 733.724 -1.73913 0.585375 0
M  V30 7477 H 732.106 -3.83062 -1.00395 0
M  V30 7478 H 733.28 -4.23034 1.82698 0
M  V30 7479 H 731.595 -3.88269 1.50452 0
M  V30 7480 H 734.192 -5.26963 -0.906306 0
M  V30 7481 H 734.535 -3.77824 -1.74799 0
M  V30 7482 H 735.068 -3.97753 -0.0609416 0
M  V30 7483 H 731.807 -6.28933 1.84726 0
M  V30 7484 H 731.327 -5.99587 0.160006 0
M  V30 7485 H 733.006 -6.44682 0.547223 0
M  V30 7486 N 733.138 -0.185124 -1.56509 0
M  V30 7487 C 734.086 0.756505 -2.19954 0
M  V30 7488 C 735.08 1.22725 -1.16769 0
M  V30 7489 O 736.286 1.1913 -1.34937 0
M  V30 7490 H 732.661 0.262279 -0.704779 0
M  V30 7491 H 734.632 0.197587 -2.97745 0
M  V30 7492 C 733.381 1.96975 -2.86524 0
M  V30 7493 H 732.704 1.61658 -3.65659 0
M  V30 7494 H 734.144 2.60719 -3.34367 0
M  V30 7495 C 732.603 2.80219 -1.87027 0
M  V30 7496 O 733.133 3.77821 -1.36433 0
M  V30 7497 N 731.339 2.4551 -1.55477 0
M  V30 7498 H 730.886 1.66199 -1.96813 0
M  V30 7499 H 730.844 3.01493 -0.891597 0
M  V30 7500 N 734.616 1.57351 0.0885366 0
M  V30 7501 C 735.841 1.91011 0.80805 0
M  V30 7502 C 736.266 0.780009 1.71165 0
M  V30 7503 O 735.624 -0.268083 1.79307 0
M  V30 7504 C 735.672 3.23562 1.59185 0
M  V30 7505 O 734.776 3.11615 2.7013 0
M  V30 7506 H 734.117 0.625943 0.221565 0
M  V30 7507 H 736.647 2.04507 0.0617954 0
M  V30 7508 H 736.657 3.5703 1.97468 0
M  V30 7509 H 735.332 4.05398 0.928741 0
M  V30 7510 H 733.909 2.89673 2.34827 0
M  V30 7511 N 736.094 -0.359525 1.53444 0
M  V30 7512 C 737.041 -1.44073 1.8031 0
M  V30 7513 C 738.011 -1.52946 0.647811 0
M  V30 7514 O 739.196 -1.68739 0.890614 0
M  V30 7515 C 736.336 -2.80941 2.00416 0
M  V30 7516 C 735.449 -2.80986 3.28132 0
M  V30 7517 C 734.584 -4.09468 3.38393 0
M  V30 7518 C 733.623 -4.03679 4.60119 0
M  V30 7519 N 732.76 -5.23821 4.675 0
M  V30 7520 H 737.6 -1.20464 2.72566 0
M  V30 7521 H 735.137 -0.583859 1.35017 0
M  V30 7522 H 737.095 -3.60459 2.1006 0
M  V30 7523 H 735.725 -3.02936 1.11489 0
M  V30 7524 H 734.777 -1.93666 3.27411 0
M  V30 7525 H 736.089 -2.72583 4.17732 0
M  V30 7526 H 735.243 -4.97404 3.47382 0
M  V30 7527 H 733.982 -4.20632 2.4682 0
M  V30 7528 H 732.987 -3.14129 4.51224 0
M  V30 7529 H 734.212 -3.94112 5.5304 0
M  V30 7530 H 732.158 -5.35559 3.7883 0
M  V30 7531 H 732.075 -5.17611 5.51013 0
M  V30 7532 H 733.343 -6.13572 4.8078 0
M  V30 7533 N 737.572 -1.44907 -0.619662 0
M  V30 7534 C 738.797 -1.52021 -1.41083 0
M  V30 7535 C 739.222 -0.14976 -1.87503 0
M  V30 7536 O 738.58 0.863303 -1.59426 0
M  V30 7537 C 738.628 -2.49911 -2.59955 0
M  V30 7538 O 737.732 -2.00857 -3.60181 0
M  V30 7539 H 737.073 -0.512912 -0.421684 0
M  V30 7540 H 739.603 -1.90149 -0.755282 0
M  V30 7541 H 739.613 -2.68323 -3.07354 0
M  V30 7542 H 738.288 -3.4945 -2.25516 0
M  V30 7543 H 736.865 -1.92265 -3.19513 0
M  V30 7544 N 739.05 0.861098 -1.31996 0
M  V30 7545 C 740.298 1.61162 -1.21947 0
M  V30 7546 C 740.619 1.93751 0.220351 0
M  V30 7547 O 739.889 1.59069 1.14341 0
M  V30 7548 H 738.469 0.597485 -0.448353 0
M  V30 7549 H 741.131 1.03039 -1.65436 0
M  V30 7550 H 740.227 2.55138 -1.79752 0
M  V30 7551 N 740.528 1.15101 1.07655 0
M  V30 7552 C 741.805 0.834578 1.76902 0
M  V30 7553 C 742.185 -0.670431 2.00171 0
M  V30 7554 O 741.533 -1.61378 1.6177 0
M  V30 7555 C 741.743 1.64191 3.07965 0
M  V30 7556 C 743.091 1.84615 3.82364 0
M  V30 7557 O 744.115 1.60941 3.17768 0
M  V30 7558 O 742.974 2.24244 4.98374 0
M  V30 7559 H 740.068 0.306608 0.768063 0
M  V30 7560 H 742.614 1.25663 1.14048 0
M  V30 7561 H 741.386 2.66386 2.86626 0
M  V30 7562 H 741.009 1.216 3.78549 0
M  V30 7563 N 742.006 -1.2595 0.947325 0
M  V30 7564 C 742.956 -2.23859 0.432547 0
M  V30 7565 C 743.94 -1.53755 -0.474154 0
M  V30 7566 O 745.132 -1.74293 -0.308397 0
M  V30 7567 C 742.261 -3.42027 -0.295318 0
M  V30 7568 C 741.347 -4.19409 0.62903 0
M  V30 7569 N 741.738 -4.74284 1.7575 0
M  V30 7570 C 740.036 -4.43866 0.435805 0
M  V30 7571 C 740.737 -5.32821 2.33401 0
M  V30 7572 N 739.713 -5.18858 1.62135 0
M  V30 7573 H 743.515 -2.63886 1.29388 0
M  V30 7574 H 741.029 -1.41105 0.80393 0
M  V30 7575 H 743.026 -4.11297 -0.681188 0
M  V30 7576 H 741.686 -3.03526 -1.15334 0
M  V30 7577 H 742.697 -4.71641 2.13952 0
M  V30 7578 H 739.374 -4.15768 -0.37994 0
M  V30 7579 H 740.764 -5.86111 3.28517 0
M  V30 7580 N 743.484 -0.715051 -1.40445 0
M  V30 7581 C 744.416 -0.0227516 -2.29189 0
M  V30 7582 C 745.429 0.724313 -1.458 0
M  V30 7583 O 746.618 0.571781 -1.69094 0
M  V30 7584 C 743.718 0.992038 -3.24055 0
M  V30 7585 C 742.891 0.310613 -4.36296 0
M  V30 7586 C 741.95 1.23071 -5.11605 0
M  V30 7587 O 740.976 0.71571 -5.64682 0
M  V30 7588 N 742.178 2.56188 -5.2091 0
M  V30 7589 H 744.943 -0.78473 -2.89244 0
M  V30 7590 H 742.504 -0.562637 -1.51809 0
M  V30 7591 H 744.496 1.60973 -3.71308 0
M  V30 7592 H 743.066 1.65538 -2.65171 0
M  V30 7593 H 742.286 -0.487269 -3.91177 0
M  V30 7594 H 743.574 -0.162415 -5.08541 0
M  V30 7595 H 742.972 3.00527 -4.7927 0
M  V30 7596 H 741.529 3.13103 -5.71673 0
M  V30 7597 N 744.962 1.50701 -0.461195 0
M  V30 7598 C 746.21 2.01867 0.0970051 0
M  V30 7599 C 746.531 1.34591 1.41104 0
M  V30 7600 O 745.801 0.488041 1.89723 0
M  V30 7601 H 744.381 0.74599 0.0388392 0
M  V30 7602 H 747.043 1.85129 -0.609357 0
M  V30 7603 H 746.139 3.11051 0.255688 0
M  V30 7604 N 746.441 0.193421 1.56409 0
M  V30 7605 C 747.69 -0.445995 1.96707 0
M  V30 7606 C 748.003 -1.62876 1.08309 0
M  V30 7607 O 749.209 -2.33586 1.38383 0
M  V30 7608 C 747.665 -0.844863 3.49843 0
M  V30 7609 C 747.273 0.31352 4.46902 0
M  V30 7610 C 749.017 -1.45146 3.98915 0
M  V30 7611 C 746.924 -0.106214 5.91305 0
M  V30 7612 H 745.854 -0.170398 0.734493 0
M  V30 7613 H 748.505 0.285172 1.81271 0
M  V30 7614 H 746.887 -1.63265 3.60778 0
M  V30 7615 H 748.061 1.09103 4.47698 0
M  V30 7616 H 746.376 0.8315 4.08014 0
M  V30 7617 H 748.973 -1.77792 5.04276 0
M  V30 7618 H 749.316 -2.35734 3.43126 0
M  V30 7619 H 749.849 -0.727675 3.91088 0
M  V30 7620 H 746.588 0.765442 6.51016 0
M  V30 7621 H 746.108 -0.848623 5.93766 0
M  V30 7622 H 747.787 -0.542588 6.44721 0
M  V30 7623 N 747.919 -1.57396 -0.0801906 0
M  V30 7624 C 749.165 -1.87113 -0.782083 0
M  V30 7625 C 749.498 -0.78458 -1.77646 0
M  V30 7626 O 748.773 0.205993 -1.93406 0
M  V30 7627 C 749.056 -3.27483 -1.49756 0
M  V30 7628 C 748.909 -4.46782 -0.520171 0
M  V30 7629 C 750.228 -3.65965 -2.44454 0
M  V30 7630 H 747.347 -0.680559 -0.282858 0
M  V30 7631 H 749.989 -1.89946 -0.0454139 0
M  V30 7632 H 748.139 -3.25199 -2.12551 0
M  V30 7633 H 749.811 -4.61187 0.101919 0
M  V30 7634 H 748.054 -4.33485 0.165219 0
M  V30 7635 H 748.725 -5.41761 -1.05824 0
M  V30 7636 H 751.201 -3.69289 -1.91742 0
M  V30 7637 H 750.077 -4.65086 -2.91524 0
M  V30 7638 H 750.338 -2.95446 -3.28883 0
M  V30 7639 N 749.397 0.351382 -1.53633 0
M  V30 7640 C 750.644 1.0925 -1.70502 0
M  V30 7641 C 750.972 1.88881 -0.464123 0
M  V30 7642 O 750.227 1.87693 0.554077 0
M  V30 7643 C 750.526 2.06744 -2.91533 0
M  V30 7644 C 750.192 1.43484 -4.27461 0
M  V30 7645 C 748.854 1.2596 -4.64422 0
M  V30 7646 C 751.206 0.978436 -5.11934 0
M  V30 7647 C 748.534 0.614017 -5.83478 0
M  V30 7648 C 750.886 0.346795 -6.31649 0
M  V30 7649 C 749.55 0.15917 -6.6731 0
M  V30 7650 H 748.82 0.399773 -0.623909 0
M  V30 7651 H 751.467 0.372656 -1.87839 0
M  V30 7652 H 749.772 2.85082 -2.68767 0
M  V30 7653 H 751.469 2.64066 -3.01778 0
M  V30 7654 H 748.059 1.5812 -3.98367 0
M  V30 7655 H 752.243 1.1017 -4.83918 0
M  V30 7656 H 747.499 0.457194 -6.09688 0
M  V30 7657 H 751.673 -0.0149864 -6.96398 0
M  V30 7658 H 749.3 -0.343129 -7.59425 0
M  V30 7659 N 750.875 1.45233 0.611969 0
M  V30 7660 C 751.805 1.5641 1.73373 0
M  V30 7661 C 752.786 0.415896 1.64937 0
M  V30 7662 O 753.971 0.638478 1.83404 0
M  V30 7663 C 751.101 1.52627 3.11965 0
M  V30 7664 C 750.055 2.66119 3.35208 0
M  V30 7665 C 749.381 2.4739 4.74028 0
M  V30 7666 C 750.681 4.08157 3.25891 0
M  V30 7667 H 752.375 2.50307 1.64277 0
M  V30 7668 H 749.921 1.20467 0.788904 0
M  V30 7669 H 751.874 1.59043 3.90235 0
M  V30 7670 H 750.598 0.552564 3.21892 0
M  V30 7671 H 749.257 2.59123 2.59327 0
M  V30 7672 H 748.905 1.48168 4.80682 0
M  V30 7673 H 748.605 3.23494 4.90536 0
M  V30 7674 H 750.129 2.55653 5.54503 0
M  V30 7675 H 751.543 4.1642 3.9404 0
M  V30 7676 H 749.94 4.84617 3.5393 0
M  V30 7677 H 751.01 4.30374 2.23397 0
M  V30 7678 N 752.353 -0.854086 1.3245 0
M  V30 7679 C 753.769 -1.14238 1.11453 0
M  V30 7680 C 753.969 -2.01228 -0.10461 0
M  V30 7681 O 753.025 -2.39845 -0.789339 0
M  V30 7682 C 754.338 -1.81916 2.39431 0
M  V30 7683 C 755.886 -1.94549 2.45193 0
M  V30 7684 C 756.361 -2.65642 3.73093 0
M  V30 7685 N 757.852 -2.73167 3.74078 0
M  V30 7686 C 758.587 -3.28828 4.69744 0
M  V30 7687 N 758.083 -3.85295 5.75778 0
M  V30 7688 N 759.876 -3.26936 4.57241 0
M  V30 7689 H 752.027 -0.274786 2.10615 0
M  V30 7690 H 754.29 -0.184375 0.929898 0
M  V30 7691 H 753.996 -1.25452 3.28565 0
M  V30 7692 H 753.87 -2.82068 2.50434 0
M  V30 7693 H 756.257 -2.50172 1.56518 0
M  V30 7694 H 756.338 -0.933914 2.38142 0
M  V30 7695 H 755.982 -2.10683 4.62142 0
M  V30 7696 H 755.912 -3.6724 3.77415 0
M  V30 7697 H 758.403 -2.33108 2.97438 0
M  V30 7698 H 758.716 -4.25925 6.44832 0
M  V30 7699 H 757.061 -3.83625 5.79531 0
M  V30 7700 H 760.252 -2.8207 3.7357 0
M  V30 7701 H 760.425 -3.70014 5.31971 0
M  V30 7702 N 753.831 -1.1567 -1.07043 0
M  V30 7703 C 754.778 -0.856336 -2.14326 0
M  V30 7704 C 755.748 0.192051 -1.64986 0
M  V30 7705 O 756.933 0.0589148 -1.90709 0
M  V30 7706 C 754.073 -0.355227 -3.43267 0
M  V30 7707 C 753.186 -1.46555 -4.06381 0
M  V30 7708 C 752.321 -0.920245 -5.23168 0
M  V30 7709 C 751.36 -2.00729 -5.78251 0
M  V30 7710 N 750.497 -1.47813 -6.86364 0
M  V30 7711 H 755.337 -1.77514 -2.39359 0
M  V30 7712 H 752.874 -0.885676 -1.17449 0
M  V30 7713 H 754.832 -0.0463804 -4.17174 0
M  V30 7714 H 753.462 0.526649 -3.18475 0
M  V30 7715 H 752.514 -1.89052 -3.30096 0
M  V30 7716 H 753.826 -2.28616 -4.43324 0
M  V30 7717 H 752.98 -0.564127 -6.04072 0
M  V30 7718 H 751.719 -0.0688477 -4.87651 0
M  V30 7719 H 750.724 -2.3722 -4.95991 0
M  V30 7720 H 751.949 -2.86252 -6.15822 0
M  V30 7721 H 749.895 -0.649145 -6.5278 0
M  V30 7722 H 749.812 -2.23498 -7.22208 0
M  V30 7723 H 751.08 -1.15036 -7.70965 0
M  V30 7724 N 755.309 1.25446 -0.953992 0
M  V30 7725 C 756.556 1.93143 -0.608429 0
M  V30 7726 C 756.884 1.74727 0.854451 0
M  V30 7727 O 756.139 1.0855 1.62836 0
M  V30 7728 C 756.438 3.45555 -0.912496 0
M  V30 7729 C 756.104 3.84126 -2.36131 0
M  V30 7730 C 754.766 3.94367 -2.75732 0
M  V30 7731 C 757.118 4.0324 -3.30223 0
M  V30 7732 C 754.446 4.21127 -4.08496 0
M  V30 7733 C 756.798 4.31493 -4.62598 0
M  V30 7734 C 755.462 4.3995 -5.01996 0
M  V30 7735 H 754.732 0.706762 -0.22264 0
M  V30 7736 H 757.379 1.49005 -1.20291 0
M  V30 7737 H 755.684 3.91091 -0.235618 0
M  V30 7738 H 757.381 3.9612 -0.623714 0
M  V30 7739 H 753.971 3.76711 -2.04418 0
M  V30 7740 H 758.155 3.94744 -3.00817 0
M  V30 7741 H 753.411 4.2589 -4.38665 0
M  V30 7742 H 757.585 4.45227 -5.35486 0
M  V30 7743 H 755.212 4.60439 -6.04896 0
M  V30 7744 N 756.787 0.722489 1.40064 0
M  V30 7745 C 757.734 0.0743738 2.3068 0
M  V30 7746 C 758.704 -0.743004 1.48555 0
M  V30 7747 O 759.889 -0.705536 1.77276 0
M  V30 7748 C 757.029 -0.836292 3.34814 0
M  V30 7749 C 756.142 -0.00764663 4.31999 0
M  V30 7750 C 755.277 -0.918428 5.232 0
M  V30 7751 C 754.316 -0.0842838 6.12042 0
M  V30 7752 N 753.453 -0.950316 6.95639 0
M  V30 7753 H 758.293 0.852794 2.85537 0
M  V30 7754 H 755.83 0.432222 1.40607 0
M  V30 7755 H 757.788 -1.3786 3.93765 0
M  V30 7756 H 756.418 -1.58082 2.81443 0
M  V30 7757 H 755.47 0.651928 3.74772 0
M  V30 7758 H 756.782 0.63786 4.94705 0
M  V30 7759 H 755.936 -1.52902 5.87116 0
M  V30 7760 H 754.675 -1.59774 4.60786 0
M  V30 7761 H 753.68 0.5392 5.4715 0
M  V30 7762 H 754.905 0.591628 6.76518 0
M  V30 7763 H 752.851 -1.61515 6.35806 0
M  V30 7764 H 752.768 -0.361004 7.55138 0
M  V30 7765 H 754.036 -1.54687 7.63997 0
M  V30 7766 N 758.265 -1.50454 0.469181 0
M  V30 7767 C 759.197 -2.26319 -0.362247 0
M  V30 7768 C 760.21 -1.31574 -0.958751 0
M  V30 7769 O 761.399 -1.57099 -0.847482 0
M  V30 7770 C 758.499 -3.02808 -1.52187 0
M  V30 7771 C 757.672 -4.24893 -1.03849 0
M  V30 7772 C 756.731 -4.83691 -2.07194 0
M  V30 7773 O 755.757 -5.44659 -1.65333 0
M  V30 7774 N 756.959 -4.70522 -3.39985 0
M  V30 7775 H 759.724 -2.98312 0.288124 0
M  V30 7776 H 757.285 -1.59099 0.299856 0
M  V30 7777 H 759.277 -3.39023 -2.21011 0
M  V30 7778 H 757.847 -2.33625 -2.07697 0
M  V30 7779 H 757.067 -3.93806 -0.176203 0
M  V30 7780 H 758.355 -5.04053 -0.693435 0
M  V30 7781 H 757.753 -4.2203 -3.76706 0
M  V30 7782 H 756.31 -5.11011 -4.04612 0
M  V30 7783 N 759.743 -0.201713 -1.56304 0
M  V30 7784 C 760.973 0.440084 -2.01858 0
M  V30 7785 C 761.381 1.55279 -1.08098 0
M  V30 7786 O 760.724 1.83529 -0.0792216 0
M  V30 7787 C 760.786 1.05091 -3.43797 0
M  V30 7788 C 760.45 0.0761208 -4.56937 0
M  V30 7789 C 761.447 -0.716951 -5.14933 0
M  V30 7790 C 759.132 -0.0368815 -5.02286 0
M  V30 7791 C 761.126 -1.60993 -6.16733 0
M  V30 7792 C 758.813 -0.933409 -6.03929 0
M  V30 7793 C 759.811 -1.71849 -6.61027 0
M  V30 7794 O 759.499 -2.59998 -7.60695 0
M  V30 7795 H 759.231 0.114139 -0.666294 0
M  V30 7796 H 761.785 -0.309672 -2.03052 0
M  V30 7797 H 760.015 1.84938 -3.3961 0
M  V30 7798 H 761.704 1.59804 -3.73118 0
M  V30 7799 H 762.47 -0.63999 -4.80759 0
M  V30 7800 H 758.349 0.564034 -4.57537 0
M  V30 7801 H 761.893 -2.22315 -6.61227 0
M  V30 7802 H 757.79 -1.01146 -6.37526 0
M  V30 7803 H 758.558 -2.53851 -7.7814 0
M  V30 7804 N 761.222 1.57436 0.0718424 0
M  V30 7805 C 762.152 2.06724 1.08571 0
M  V30 7806 C 763.133 0.960731 1.40371 0
M  V30 7807 O 764.318 1.23345 1.49999 0
M  V30 7808 C 761.448 2.51112 2.39916 0
M  V30 7809 C 760.402 3.65639 2.22469 0
M  V30 7810 C 759.728 3.96082 3.59198 0
M  V30 7811 C 761.028 4.95687 1.64596 0
M  V30 7812 H 762.722 2.91679 0.675569 0
M  V30 7813 H 760.268 1.40319 0.32352 0
M  V30 7814 H 762.221 2.84206 3.11135 0
M  V30 7815 H 760.945 1.63186 2.8291 0
M  V30 7816 H 759.604 3.32828 1.53691 0
M  V30 7817 H 759.252 3.05287 3.99761 0
M  V30 7818 H 758.952 4.73199 3.48362 0
M  V30 7819 H 760.476 4.31672 4.31847 0
M  V30 7820 H 761.89 5.27011 2.25681 0
M  V30 7821 H 760.287 5.77126 1.64457 0
M  V30 7822 H 761.357 4.8108 0.60744 0
M  V30 7823 N 762.7 -0.34323 1.53817 0
M  V30 7824 C 763.648 -1.44176 1.82527 0
M  V30 7825 C 764.642 -1.54452 0.695772 0
M  V30 7826 O 765.848 -1.57072 0.879114 0
M  V30 7827 H 762.223 -0.480729 0.578277 0
M  V30 7828 H 764.194 -1.17176 2.74431 0
M  V30 7829 C 762.943 -2.80695 2.05197 0
M  V30 7830 H 762.266 -2.73554 2.91561 0
M  V30 7831 H 763.706 -3.56679 2.29251 0
M  V30 7832 C 762.165 -3.26322 0.837589 0
M  V30 7833 O 762.695 -4.01683 0.0371631 0
M  V30 7834 N 760.901 -2.83128 0.654724 0
M  V30 7835 H 760.448 -2.21965 1.30725 0
M  V30 7836 H 760.406 -3.14011 -0.156345 0
M  V30 7837 N 764.178 -1.45556 -0.604258 0
M  V30 7838 C 765.589 -1.44171 -1.18624 0
M  V30 7839 C 765.94 -0.171081 -1.95453 0
M  V30 7840 O 765.065 0.727156 -2.03817 0
M  V30 7841 C 765.66 -2.61193 -2.15786 0
M  V30 7842 C 764.219 -2.62918 -2.69353 0
M  V30 7843 C 763.366 -2.36479 -1.4482 0
M  V30 7844 H 766.317 -1.53747 -0.393381 0
M  V30 7845 H 766.338 -2.35481 -2.98879 0
M  V30 7846 H 765.85 -3.53656 -1.59841 0
M  V30 7847 H 763.951 -1.7447 -3.29228 0
M  V30 7848 H 764.064 -3.6224 -3.13559 0
M  V30 7849 H 762.428 -1.86103 -1.73891 0
M  V30 7850 H 763.211 -3.31091 -0.907376 0
M  V30 7851 N 765.656 0.84705 -1.32902 0
M  V30 7852 C 766.881 1.63925 -1.27056 0
M  V30 7853 C 767.306 1.87443 0.157136 0
M  V30 7854 O 766.664 1.43266 1.11106 0
M  V30 7855 C 766.712 2.97134 -2.04313 0
M  V30 7856 O 765.816 3.88049 -1.39614 0
M  V30 7857 H 765.157 0.499477 -0.437514 0
M  V30 7858 H 767.687 1.05443 -1.75336 0
M  V30 7859 H 767.697 3.46896 -2.14772 0
M  V30 7860 H 766.372 2.79339 -3.08128 0
M  V30 7861 H 764.949 3.46525 -1.3775 0
M  V30 7862 N 767.134 1.16236 1.06428 0
M  V30 7863 C 768.066 0.825446 2.1382 0
M  V30 7864 C 769.079 -0.166707 1.61944 0
M  V30 7865 O 770.268 0.0578606 1.78406 0
M  V30 7866 C 767.368 0.208023 3.38261 0
M  V30 7867 C 766.541 1.23994 4.19457 0
M  V30 7868 C 765.6 0.642569 5.22262 0
M  V30 7869 O 764.626 1.31106 5.53895 0
M  V30 7870 N 765.828 -0.571327 5.77682 0
M  V30 7871 H 768.593 1.7497 2.43322 0
M  V30 7872 H 766.154 1.05951 1.22417 0
M  V30 7873 H 768.146 -0.204608 4.04182 0
M  V30 7874 H 766.716 -0.619752 3.06395 0
M  V30 7875 H 765.936 1.82879 3.49212 0
M  V30 7876 H 767.224 1.93638 4.70512 0
M  V30 7877 H 766.622 -1.13263 5.54245 0
M  V30 7878 H 765.179 -0.926187 6.45186 0
M  V30 7879 N 768.612 -1.24939 0.960631 0
M  V30 7880 C 769.858 -1.93104 0.61958 0
M  V30 7881 C 770.191 -1.74991 -0.84212 0
M  V30 7882 O 769.466 -1.09867 -1.60498 0
M  V30 7883 C 769.749 -3.46326 0.986422 0
M  V30 7884 C 769.602 -3.73638 2.50429 0
M  V30 7885 C 770.921 -4.37067 0.515827 0
M  V30 7886 H 768.04 -0.701311 0.226566 0
M  V30 7887 H 770.682 -1.47442 1.19836 0
M  V30 7888 H 768.832 -3.85348 0.493907 0
M  V30 7889 H 770.504 -3.44217 3.07103 0
M  V30 7890 H 768.747 -3.19035 2.93937 0
M  V30 7891 H 769.418 -4.80815 2.71147 0
M  V30 7892 H 771.894 -4.05381 0.938389 0
M  V30 7893 H 770.77 -5.43022 0.80114 0
M  V30 7894 H 771.031 -4.38224 -0.584171 0
M  V30 7895 N 770.09 -0.729906 -1.39679 0
M  V30 7896 C 771.337 -0.275622 -2.00615 0
M  V30 7897 C 771.665 1.13559 -1.57907 0
M  V30 7898 O 770.92 1.78745 -0.796789 0
M  V30 7899 C 771.219 -0.319564 -3.55968 0
M  V30 7900 C 770.885 -1.68308 -4.1831 0
M  V30 7901 C 769.547 -2.05629 -4.35052 0
M  V30 7902 C 771.899 -2.57857 -4.52945 0
M  V30 7903 C 769.227 -3.32018 -4.83716 0
M  V30 7904 C 771.579 -3.83613 -5.03015 0
M  V30 7905 C 770.243 -4.21033 -5.17965 0
M  V30 7906 H 769.513 -0.100857 -0.734104 0
M  V30 7907 H 772.16 -0.93575 -1.67081 0
M  V30 7908 H 770.465 0.42414 -3.89497 0
M  V30 7909 H 772.162 0.0499905 -4.00969 0
M  V30 7910 H 768.752 -1.3829 -4.05677 0
M  V30 7911 H 772.936 -2.30295 -4.39634 0
M  V30 7912 H 768.192 -3.6096 -4.93475 0
M  V30 7913 H 772.366 -4.53162 -5.28788 0
M  V30 7914 H 769.993 -5.19034 -5.55435 0
M  V30 7915 N 771.568 1.50203 -0.477153 0
M  V30 7916 C 772.845 1.95115 0.137609 0
M  V30 7917 C 773.225 1.41778 1.56404 0
M  V30 7918 O 772.573 0.621333 2.1989 0
M  V30 7919 C 772.783 3.4892 0.0747168 0
M  V30 7920 C 774.131 4.238 0.260585 0
M  V30 7921 O 775.155 3.5588 0.151021 0
M  V30 7922 O 774.014 5.44366 0.482534 0
M  V30 7923 H 771.108 0.81987 0.108364 0
M  V30 7924 H 773.654 1.60946 -0.537989 0
M  V30 7925 H 772.426 3.80308 -0.920966 0
M  V30 7926 H 772.049 3.89642 0.791509 0
M  V30 7927 N 773.046 0.209999 1.56195 0
M  V30 7928 C 773.976 -0.699746 2.22769 0
M  V30 7929 C 774.957 -1.20993 1.1956 0
M  V30 7930 O 776.142 -1.25605 1.48112 0
M  V30 7931 C 773.272 -1.91302 2.89863 0
M  V30 7932 C 772.226 -1.53715 3.99444 0
M  V30 7933 C 771.552 -2.82826 4.53777 0
M  V30 7934 C 772.852 -0.735836 5.17091 0
M  V30 7935 H 774.546 -0.144716 2.9905 0
M  V30 7936 H 772.092 -0.0681645 1.43839 0
M  V30 7937 H 774.045 -2.5548 3.35124 0
M  V30 7938 H 772.769 -2.49283 2.11011 0
M  V30 7939 H 771.428 -0.918892 3.54897 0
M  V30 7940 H 771.076 -3.38927 3.71669 0
M  V30 7941 H 770.776 -2.58415 5.27727 0
M  V30 7942 H 772.3 -3.47966 5.01749 0
M  V30 7943 H 773.714 -1.28105 5.58804 0
M  V30 7944 H 772.111 -0.589272 5.972 0
M  V30 7945 H 773.181 0.260004 4.84202 0
M  V30 7946 N 774.524 -1.57472 -0.0634922 0
M  V30 7947 C 775.454 -2.07297 -1.07473 0
M  V30 7948 C 776.435 -0.968162 -1.39859 0
M  V30 7949 O 777.62 -1.24139 -1.49343 0
M  V30 7950 C 774.75 -2.52381 -2.38581 0
M  V30 7951 C 773.704 -3.66813 -2.20526 0
M  V30 7952 C 773.03 -3.97982 -3.57092 0
M  V30 7953 C 774.33 -4.96553 -1.61965 0
M  V30 7954 H 776.024 -2.92033 -0.660092 0
M  V30 7955 H 773.57 -1.40488 -0.316074 0
M  V30 7956 H 775.523 -2.85852 -3.09624 0
M  V30 7957 H 774.247 -1.64684 -2.8204 0
M  V30 7958 H 772.906 -3.33639 -1.51924 0
M  V30 7959 H 772.554 -3.07403 -3.98136 0
M  V30 7960 H 772.254 -4.7504 -3.45848 0
M  V30 7961 H 773.778 -4.33956 -4.29552 0
M  V30 7962 H 775.192 -5.28201 -2.22883 0
M  V30 7963 H 773.589 -5.7799 -1.61394 0
M  V30 7964 H 774.659 -4.81396 -0.581918 0
M  V30 7965 N 776.003 0.335068 -1.53997 0
M  V30 7966 C 776.95 1.41187 -1.82579 0
M  V30 7967 C 777.92 1.51897 -0.672061 0
M  V30 7968 O 779.105 1.673 -0.917346 0
M  V30 7969 C 776.245 2.77717 -2.0486 0
M  V30 7970 C 775.358 2.7573 -3.32561 0
M  V30 7971 C 774.493 4.04032 -3.44864 0
M  V30 7972 C 773.532 3.96308 -4.66483 0
M  V30 7973 N 772.669 5.16317 -4.75774 0
M  V30 7974 H 777.509 1.16113 -2.74448 0
M  V30 7975 H 775.046 0.562305 -1.35928 0
M  V30 7976 H 777.004 3.57071 -2.15768 0
M  V30 7977 H 775.634 3.01124 -1.16294 0
M  V30 7978 H 774.686 1.88432 -3.3045 0
M  V30 7979 H 775.998 2.65902 -4.22016 0
M  V30 7980 H 775.152 4.91814 -3.55251 0
M  V30 7981 H 773.891 4.16652 -2.53481 0
M  V30 7982 H 772.896 3.06911 -4.56164 0
M  V30 7983 H 774.121 3.85263 -5.5924 0
M  V30 7984 H 772.067 5.29464 -3.87303 0
M  V30 7985 H 771.984 5.08779 -5.59178 0
M  V30 7986 H 773.252 6.05846 -4.9048 0
M  V30 7987 N 777.481 1.45874 0.596531 0
M  V30 7988 C 778.729 1.5017 1.35253 0
M  V30 7989 C 779.05 0.149246 1.94428 0
M  V30 7990 O 778.32 -0.82268 1.77789 0
M  V30 7991 H 776.9 0.553052 0.502138 0
M  V30 7992 H 779.562 1.81908 0.699671 0
M  V30 7993 H 778.658 2.24671 2.16632 0
M  V30 7994 N 778.959 -0.83999 1.33349 0
M  V30 7995 C 780.207 -1.59202 1.24496 0
M  V30 7996 C 780.528 -1.94077 -0.189499 0
M  V30 7997 O 779.798 -1.60868 -1.11796 0
M  V30 7998 H 778.378 -0.590276 0.457802 0
M  V30 7999 H 781.04 -1.00394 1.67054 0
M  V30 8000 H 780.136 -2.52247 1.83788 0
M  V30 8001 N 780.437 -1.16799 -1.0581 0
M  V30 8002 C 781.848 -0.95945 -1.60161 0
M  V30 8003 C 782.199 0.49543 -1.89842 0
M  V30 8004 O 781.324 1.36957 -1.67546 0
M  V30 8005 C 781.919 -1.73527 -2.90987 0
M  V30 8006 C 780.478 -1.57158 -3.42021 0
M  V30 8007 C 779.625 -1.74089 -2.15843 0
M  V30 8008 H 782.576 -1.31598 -0.886992 0
M  V30 8009 H 782.597 -1.21397 -3.60615 0
M  V30 8010 H 782.109 -2.79411 -2.69353 0
M  V30 8011 H 780.21 -0.537361 -3.68705 0
M  V30 8012 H 780.323 -2.35858 -4.17022 0
M  V30 8013 H 778.687 -1.16874 -2.26302 0
M  V30 8014 H 779.47 -2.81371 -1.96686 0
M  V30 8015 N 781.915 1.24427 -0.967243 0
M  V30 8016 C 782.825 2.29109 -0.504592 0
M  V30 8017 C 783.841 1.68495 0.434224 0
M  V30 8018 O 785.017 1.99041 0.307379 0
M  V30 8019 C 782.082 3.46133 0.198273 0
M  V30 8020 C 781.143 4.22149 -0.780313 0
M  V30 8021 C 780.376 5.33585 -0.110896 0
M  V30 8022 O 780.599 5.59676 1.10088 0
M  V30 8023 O 779.533 5.96522 -0.802823 0
M  V30 8024 H 783.359 2.708 -1.37482 0
M  V30 8025 H 780.944 1.30111 -0.73426 0
M  V30 8026 H 782.826 4.17205 0.593124 0
M  V30 8027 H 781.501 3.0642 1.04347 0
M  V30 8028 H 780.408 3.53454 -1.22561 0
M  V30 8029 H 781.741 4.65677 -1.59392 0
M  V30 8030 N 783.393 0.737304 1.3929 0
M  V30 8031 C 784.356 0.10731 2.28949 0
M  V30 8032 C 785.356 -0.664716 1.46418 0
M  V30 8033 O 786.546 -0.493392 1.67067 0
M  V30 8034 C 783.678 -0.857145 3.29948 0
M  V30 8035 H 784.871 0.89725 2.86163 0
M  V30 8036 H 782.424 0.503279 1.47976 0
M  V30 8037 H 783.159 -1.67336 2.77794 0
M  V30 8038 H 782.944 -0.306167 3.90903 0
M  V30 8039 H 784.434 -1.29444 3.97031 0
M  V30 8040 N 784.871 -1.49948 0.485112 0
M  V30 8041 C 786.119 -2.01996 -0.0648775 0
M  V30 8042 C 786.44 -1.36819 -1.38945 0
M  V30 8043 O 785.71 -0.518163 -1.88923 0
M  V30 8044 H 784.29 -0.746513 -0.0269662 0
M  V30 8045 H 786.952 -1.84136 0.638733 0
M  V30 8046 H 786.048 -3.11418 -0.20617 0
M  V30 8047 N 786.349 -0.21828 -1.56081 0
M  V30 8048 C 787.279 0.687922 -2.23136 0
M  V30 8049 C 788.26 1.20357 -1.202 0
M  V30 8050 O 789.445 1.24817 -1.48776 0
M  V30 8051 C 786.575 1.89762 -2.90874 0
M  V30 8052 C 785.529 1.51595 -4.00254 0
M  V30 8053 C 784.855 2.80415 -4.55271 0
M  V30 8054 C 786.155 0.708404 -5.17474 0
M  V30 8055 H 787.849 0.128854 -2.99123 0
M  V30 8056 H 785.395 0.0605354 -1.43873 0
M  V30 8057 H 787.348 2.53699 -3.36474 0
M  V30 8058 H 786.072 2.4816 -2.1233 0
M  V30 8059 H 784.731 0.900058 -3.55379 0
M  V30 8060 H 784.379 3.36951 -3.73461 0
M  V30 8061 H 784.079 2.55613 -5.2909 0
M  V30 8062 H 785.603 3.453 -5.03587 0
M  V30 8063 H 787.017 1.2514 -5.59476 0
M  V30 8064 H 785.414 0.557593 -5.97504 0
M  V30 8065 H 786.484 -0.285679 -4.84058 0
M  V30 8066 N 787.827 1.57504 0.0551401 0
M  V30 8067 C 789.052 1.92682 0.767352 0
M  V30 8068 C 789.477 0.81614 1.69472 0
M  V30 8069 O 788.835 -0.229989 1.79835 0
M  V30 8070 C 788.883 3.26866 1.52286 0
M  V30 8071 O 787.987 3.17274 2.63459 0
M  V30 8072 H 787.328 0.630502 0.208238 0
M  V30 8073 H 789.858 2.04592 0.0184026 0
M  V30 8074 H 789.868 3.61138 1.8985 0
M  V30 8075 H 788.543 4.07276 0.842541 0
M  V30 8076 H 787.12 2.94589 2.2863 0
M  V30 8077 N 789.305 -0.326896 1.54172 0
M  V30 8078 C 790.238 -1.42591 1.78166 0
M  V30 8079 C 791.216 -1.49837 0.631484 0
M  V30 8080 O 792.4 -1.67298 0.868544 0
M  V30 8081 C 789.527 -2.8071 1.89524 0
M  V30 8082 C 788.573 -2.91012 3.11792 0
M  V30 8083 S 789.406 -2.55763 4.70474 0
M  V30 8084 C 790.562 -3.9596 4.84733 0
M  V30 8085 H 790.795 -1.22024 2.71104 0
M  V30 8086 H 788.328 -0.523539 1.45253 0
M  V30 8087 H 790.286 -3.60276 1.96753 0
M  V30 8088 H 788.947 -2.98562 0.975696 0
M  V30 8089 H 788.14 -3.92258 3.16464 0
M  V30 8090 H 787.742 -2.19414 3.02876 0
M  V30 8091 H 790.034 -4.90676 4.67166 0
M  V30 8092 H 790.977 -3.96273 5.86833 0
M  V30 8093 H 791.385 -3.8476 4.13062 0
M  V30 8094 N 790.784 -1.46188 -0.588786 0
M  V30 8095 C 792.031 -1.51184 -1.34721 0
M  V30 8096 C 792.359 -0.161084 -1.93832 0
M  V30 8097 O 791.614 0.842557 -1.76634 0
M  V30 8098 C 791.913 -2.55364 -2.50048 0
M  V30 8099 C 791.579 -3.99553 -2.08969 0
M  V30 8100 C 790.241 -4.38811 -1.9748 0
M  V30 8101 C 792.593 -4.90156 -1.77191 0
M  V30 8102 C 789.921 -5.66544 -1.52463 0
M  V30 8103 C 792.273 -6.1832 -1.33654 0
M  V30 8104 C 790.937 -6.5649 -1.20738 0
M  V30 8105 H 790.207 -0.55322 -0.49298 0
M  V30 8106 H 792.854 -1.79634 -0.663627 0
M  V30 8107 H 791.159 -2.20552 -3.23827 0
M  V30 8108 H 792.856 -2.5646 -3.08268 0
M  V30 8109 H 789.446 -3.68518 -2.18843 0
M  V30 8110 H 793.63 -4.60549 -1.84955 0
M  V30 8111 H 788.886 -5.94895 -1.411 0
M  V30 8112 H 793.06 -6.87956 -1.08117 0
M  V30 8113 H 790.687 -7.55362 -0.856307 0
M  V30 8114 N 792.262 0.832906 -1.33792 0
M  V30 8115 C 793.209 1.94314 -1.24541 0
M  V30 8116 C 794.179 1.65646 -0.122753 0
M  V30 8117 O 795.364 1.88394 -0.30204 0
M  V30 8118 C 792.504 3.30395 -0.996641 0
M  V30 8119 C 791.617 3.71422 -2.20612 0
M  V30 8120 C 790.752 4.96401 -1.89101 0
M  V30 8121 C 789.791 5.2998 -3.06247 0
M  V30 8122 N 788.928 6.46137 -2.74685 0
M  V30 8123 H 793.768 2.01559 -2.19495 0
M  V30 8124 H 791.305 0.986243 -1.09141 0
M  V30 8125 H 793.263 4.08803 -0.832817 0
M  V30 8126 H 791.893 3.22691 -0.0838242 0
M  V30 8127 H 790.945 2.88488 -2.47949 0
M  V30 8128 H 792.257 3.92215 -3.0817 0
M  V30 8129 H 791.411 5.82572 -1.69396 0
M  V30 8130 H 790.15 4.7759 -0.987882 0
M  V30 8131 H 789.155 4.42312 -3.26559 0
M  V30 8132 H 790.38 5.50737 -3.97323 0
M  V30 8133 H 788.326 6.28801 -1.86938 0
M  V30 8134 H 788.243 6.67054 -3.55774 0
M  V30 8135 H 789.511 7.35403 -2.58461 0
M  V30 8136 N 793.74 1.17359 1.05189 0
M  V30 8137 C 794.688 0.886527 2.15043 0
M  V30 8138 C 795.682 -0.148834 1.68745 0
M  V30 8139 O 796.888 -0.00175123 1.8 0
M  V30 8140 H 793.263 0.269147 0.702185 0
M  V30 8141 H 795.234 1.82016 2.36459 0
M  V30 8142 C 793.983 0.416333 3.45198 0
M  V30 8143 H 793.306 1.20449 3.81225 0
M  V30 8144 H 794.746 0.254362 4.23236 0
M  V30 8145 C 793.205 -0.866016 3.25579 0
M  V30 8146 O 793.735 -1.9328 3.52144 0
M  V30 8147 N 791.941 -0.814179 2.78961 0
M  V30 8148 H 791.488 0.0541618 2.57543 0
M  V30 8149 H 791.446 -1.67264 2.66214 0
M  V30 8150 N 795.218 -1.23913 0.973828 0
M  V30 8151 C 796.465 -1.92151 0.639079 0
M  V30 8152 C 796.793 -1.76064 -0.826545 0
M  V30 8153 O 796.048 -1.11126 -1.61088 0
M  V30 8154 C 796.347 -3.4406 0.967356 0
M  V30 8155 C 796.013 -3.80321 2.42212 0
M  V30 8156 C 794.675 -3.8993 2.81971 0
M  V30 8157 C 797.027 -3.97935 3.36596 0
M  V30 8158 C 794.355 -4.14575 4.15144 0
M  V30 8159 C 796.707 -4.24079 4.69404 0
M  V30 8160 C 795.371 -4.31908 5.08932 0
M  V30 8161 H 794.641 -0.70313 0.233856 0
M  V30 8162 H 797.288 -1.47072 1.22646 0
M  V30 8163 H 795.593 -3.90667 0.297807 0
M  V30 8164 H 797.29 -3.95077 0.686654 0
M  V30 8165 H 793.88 -3.73411 2.10385 0
M  V30 8166 H 798.064 -3.89908 3.07059 0
M  V30 8167 H 793.32 -4.18858 4.45385 0
M  V30 8168 H 797.494 -4.36652 5.42502 0
M  V30 8169 H 795.121 -4.50758 6.12145 0
M  V30 8170 N 796.696 -0.74468 -1.38897 0
M  V30 8171 C 797.659 -0.11945 -2.28889 0
M  V30 8172 C 798.659 0.656942 -1.46768 0
M  V30 8173 O 799.849 0.484525 -1.67326 0
M  V30 8174 C 796.981 0.839635 -3.30398 0
M  V30 8175 H 798.174 -0.912414 -2.85683 0
M  V30 8176 H 795.727 -0.511119 -1.47707 0
M  V30 8177 H 796.462 1.6586 -2.78677 0
M  V30 8178 H 796.247 0.285432 -3.9106 0
M  V30 8179 H 797.737 1.27337 -3.97712 0
M  V30 8180 N 798.174 1.49689 -0.493057 0
M  V30 8181 C 799.59 1.58907 -0.148526 0
M  V30 8182 C 799.79 1.4991 1.34645 0
M  V30 8183 O 798.846 1.36893 2.12171 0
M  V30 8184 C 800.159 2.91996 -0.718265 0
M  V30 8185 C 801.707 3.05443 -0.683658 0
M  V30 8186 C 802.182 4.41138 -1.23132 0
M  V30 8187 N 803.673 4.47608 -1.19167 0
M  V30 8188 C 804.408 5.51038 -1.5857 0
M  V30 8189 N 803.904 6.61612 -2.05528 0
M  V30 8190 N 805.697 5.41706 -1.50036 0
M  V30 8191 H 797.848 1.5378 -1.46511 0
M  V30 8192 H 800.111 0.727996 -0.607228 0
M  V30 8193 H 799.817 3.04123 -1.7664 0
M  V30 8194 H 799.691 3.76798 -0.17419 0
M  V30 8195 H 802.078 2.92949 0.355626 0
M  V30 8196 H 802.159 2.22344 -1.26479 0
M  V30 8197 H 801.803 4.54382 -2.26935 0
M  V30 8198 H 801.733 5.22864 -0.626201 0
M  V30 8199 H 804.224 3.68274 -0.847524 0
M  V30 8200 H 804.537 7.36622 -2.33685 0
M  V30 8201 H 802.882 6.62674 -2.09497 0
M  V30 8202 H 806.073 4.54212 -1.13176 0
M  V30 8203 H 806.246 6.22188 -1.81068 0
M  V30 8204 N 799.652 0.226554 1.55963 0
M  V30 8205 C 800.899 -0.403789 1.98433 0
M  V30 8206 C 801.227 -1.59416 1.1143 0
M  V30 8207 O 800.482 -1.95042 0.160389 0
M  V30 8208 C 800.781 -0.87642 3.46488 0
M  V30 8209 C 800.447 0.203973 4.50438 0
M  V30 8210 C 799.109 0.500754 4.78587 0
M  V30 8211 C 801.461 0.934396 5.12756 0
M  V30 8212 C 798.789 1.53239 5.66334 0
M  V30 8213 C 801.141 1.9554 6.0162 0
M  V30 8214 C 799.805 2.25905 6.28111 0
M  V30 8215 H 799.075 -0.147757 0.726119 0
M  V30 8216 H 801.722 0.330121 1.88633 0
M  V30 8217 H 800.027 -1.68918 3.53517 0
M  V30 8218 H 801.724 -1.37407 3.76723 0
M  V30 8219 H 798.314 -0.0374917 4.28584 0
M  V30 8220 H 802.498 0.718355 4.91074 0
M  V30 8221 H 797.754 1.77321 5.85122 0
M  V30 8222 H 801.928 2.52642 6.48957 0
M  V30 8223 H 799.555 3.05985 6.959 0
M  V30 8224 N 801.13 -1.57531 -0.0467866 0
M  V30 8225 C 802.546 -1.54451 -0.402107 0
M  V30 8226 C 802.746 -0.950275 -1.77685 0
M  V30 8227 O 801.802 -0.563602 -2.4613 0
M  V30 8228 C 803.115 -2.9899 -0.320212 0
M  V30 8229 C 804.663 -3.10452 -0.398588 0
M  V30 8230 C 805.138 -4.56689 -0.346335 0
M  V30 8231 N 806.629 -4.6142 -0.405666 0
M  V30 8232 C 807.364 -5.72087 -0.387845 0
M  V30 8233 N 806.86 -6.92045 -0.32336 0
M  V30 8234 N 808.653 -5.60404 -0.436263 0
M  V30 8235 H 800.804 -1.94515 0.853087 0
M  V30 8236 H 803.067 -0.891397 0.322669 0
M  V30 8237 H 802.773 -3.46124 0.623794 0
M  V30 8238 H 802.647 -3.60164 -1.1208 0
M  V30 8239 H 805.034 -2.63276 -1.33302 0
M  V30 8240 H 805.115 -2.52142 0.431026 0
M  V30 8241 H 804.759 -5.04527 0.584356 0
M  V30 8242 H 804.689 -5.12889 -1.19382 0
M  V30 8243 H 807.18 -3.75105 -0.458737 0
M  V30 8244 H 807.493 -7.7216 -0.314375 0
M  V30 8245 H 805.838 -6.94396 -0.28967 0
M  V30 8246 H 809.029 -4.65586 -0.48451 0
M  V30 8247 H 809.202 -6.46645 -0.418907 0
M  V30 8248 N 802.608 0.318715 -1.54344 0
M  V30 8249 C 803.857 1.05363 -1.71993 0
M  V30 8250 C 804.17 1.89018 -0.503155 0
M  V30 8251 O 805.376 2.65639 -0.561085 0
M  V30 8252 C 803.832 1.92281 -3.0423 0
M  V30 8253 C 803.44 1.13715 -4.33328 0
M  V30 8254 C 805.184 2.65479 -3.31242 0
M  V30 8255 C 803.091 1.99806 -5.56625 0
M  V30 8256 H 802.021 0.397081 -0.64097 0
M  V30 8257 H 804.672 0.311598 -1.80835 0
M  V30 8258 H 803.054 2.70402 -2.89307 0
M  V30 8259 H 804.228 0.403305 -4.59032 0
M  V30 8260 H 802.543 0.521769 -4.13118 0
M  V30 8261 H 805.14 3.30209 -4.20555 0
M  V30 8262 H 805.483 3.33374 -2.49334 0
M  V30 8263 H 806.016 1.94417 -3.47054 0
M  V30 8264 H 802.755 1.36411 -6.41149 0
M  V30 8265 H 802.275 2.70911 -5.35133 0
M  V30 8266 H 803.954 2.58277 -5.93213 0
M  V30 8267 N 804.086 1.46499 0.581025 0
M  V30 8268 C 805.016 1.60052 1.70017 0
M  V30 8269 C 805.997 0.450788 1.64018 0
M  V30 8270 O 807.182 0.677237 1.82009 0
M  V30 8271 C 804.312 1.5921 3.08658 0
M  V30 8272 C 803.266 2.73169 3.29488 0
M  V30 8273 C 802.592 2.57389 4.68674 0
M  V30 8274 C 803.892 4.14978 3.1716 0
M  V30 8275 H 805.586 2.53735 1.5893 0
M  V30 8276 H 803.132 1.22113 0.763173 0
M  V30 8277 H 805.085 1.67285 3.86773 0
M  V30 8278 H 803.809 0.620718 3.20647 0
M  V30 8279 H 802.468 2.64566 2.53773 0
M  V30 8280 H 802.116 1.58331 4.77431 0
M  V30 8281 H 801.816 3.33826 4.83564 0
M  V30 8282 H 803.34 2.67358 5.48956 0
M  V30 8283 H 804.754 4.24684 3.85119 0
M  V30 8284 H 803.151 4.92016 3.4357 0
M  V30 8285 H 804.221 4.35016 2.14218 0
M  V30 8286 N 805.565 -0.825799 1.34232 0
M  V30 8287 C 806.811 -1.58419 1.26614 0
M  V30 8288 C 807.144 -1.93503 -0.164341 0
M  V30 8289 O 806.419 -1.59785 -1.109 0
M  V30 8290 C 806.702 -2.8856 2.15418 0
M  V30 8291 C 806.555 -2.60075 3.66989 0
M  V30 8292 C 807.874 -3.90107 2.03726 0
M  V30 8293 H 804.993 -0.574794 0.461282 0
M  V30 8294 H 807.635 -0.951519 1.64457 0
M  V30 8295 H 805.785 -3.42553 1.83275 0
M  V30 8296 H 807.457 -2.12414 4.09485 0
M  V30 8297 H 805.7 -1.93565 3.88221 0
M  V30 8298 H 806.371 -3.52866 4.24488 0
M  V30 8299 H 808.847 -3.45459 2.31942 0
M  V30 8300 H 807.723 -4.78976 2.68092 0
M  V30 8301 H 807.984 -4.30329 1.01337 0
M  V30 8302 N 807.043 -1.17915 -1.04565 0
M  V30 8303 C 808.283 -0.982331 -1.79247 0
M  V30 8304 C 808.647 0.47998 -1.85904 0
M  V30 8305 O 809.848 0.796078 -2.56741 0
M  V30 8306 C 808.119 -1.61329 -3.18916 0
M  V30 8307 S 809.678 -1.56355 -4.09998 0
M  V30 8308 H 806.496 -0.352869 -0.617256 0
M  V30 8309 H 809.098 -1.49971 -1.25415 0
M  V30 8310 H 807.802 -2.66993 -3.11678 0
M  V30 8311 H 807.333 -1.09599 -3.77825 0
M  V30 8312 H 809.348 -0.57593 -4.92846 0
M  V30 8313 N 808.521 1.23394 -0.980386 0
M  V30 8314 C 809.769 1.91431 -0.647978 0
M  V30 8315 C 810.09 1.76871 0.821066 0
M  V30 8316 O 809.36 1.14808 1.58732 0
M  V30 8317 H 807.94 0.708516 -0.236673 0
M  V30 8318 H 810.602 1.50019 -1.2442 0
M  V30 8319 H 809.698 2.98854 -0.899592 0
M  V30 8320 N 809.999 0.752036 1.385 0
M  V30 8321 C 811.247 0.306895 1.99756 0
M  V30 8322 C 811.568 -1.11478 1.59992 0
M  V30 8323 O 810.838 -1.76206 0.856045 0
M  V30 8324 H 809.418 0.11048 0.738785 0
M  V30 8325 H 812.08 0.965785 1.69289 0
M  V30 8326 H 811.176 0.368797 3.09913 0
M  V30 8327 N 811.477 -1.49425 0.500989 0
M  V30 8328 C 812.754 -1.9531 -0.106551 0
M  V30 8329 C 813.134 -1.44248 -1.54129 0
M  V30 8330 O 812.482 -0.656237 -2.18874 0
M  V30 8331 C 812.692 -3.48995 -0.0191972 0
M  V30 8332 C 814.04 -4.24161 -0.193129 0
M  V30 8333 O 815.064 -3.56075 -0.0943843 0
M  V30 8334 O 813.923 -5.45064 -0.395869 0
M  V30 8335 H 811.017 -0.82149 -0.0953068 0
M  V30 8336 H 813.563 -1.6007 0.563526 0
M  V30 8337 H 812.335 -3.78794 0.981353 0
M  V30 8338 H 811.958 -3.90852 -0.72942 0
M  V30 8339 N 812.955 -0.234822 -1.55841 0
M  V30 8340 C 814.203 0.392483 -1.98252 0
M  V30 8341 C 814.524 1.59344 -1.12404 0
M  V30 8342 O 813.794 1.94834 -0.204055 0
M  V30 8343 H 812.374 0.147999 -0.732192 0
M  V30 8344 H 815.036 -0.330804 -1.92072 0
M  V30 8345 H 814.132 0.709829 -3.03921 0
M  V30 8346 N 814.433 1.57553 0.0384317 0
M  V30 8347 C 815.658 1.93485 0.746872 0
M  V30 8348 C 816.083 0.834069 1.68597 0
M  V30 8349 O 815.441 -0.210902 1.80069 0
M  V30 8350 C 815.489 3.28463 1.4881 0
M  V30 8351 O 814.593 3.20051 2.60079 0
M  V30 8352 H 813.934 0.632675 0.201539 0
M  V30 8353 H 816.464 2.046 -0.00329815 0
M  V30 8354 H 816.474 3.63132 1.86009 0
M  V30 8355 H 815.149 4.08147 0.799297 0
M  V30 8356 H 813.726 2.96998 2.25492 0
M  V30 8357 N 815.911 -0.310526 1.54511 0
M  V30 8358 C 817.157 -1.04846 1.73595 0
M  V30 8359 C 817.49 -1.87244 0.515118 0
M  V30 8360 O 816.765 -1.88282 -0.48786 0
M  V30 8361 C 817.048 -1.96237 3.01932 0
M  V30 8362 C 816.901 -1.17082 4.34295 0
M  V30 8363 C 818.22 -2.9556 3.26086 0
M  V30 8364 H 815.339 -0.37976 0.631626 0
M  V30 8365 H 817.981 -0.32394 1.87218 0
M  V30 8366 H 816.131 -2.58015 2.90449 0
M  V30 8367 H 817.803 -0.576643 4.57682 0
M  V30 8368 H 816.046 -0.473336 4.3121 0
M  V30 8369 H 816.717 -1.84257 5.20339 0
M  V30 8370 H 819.193 -2.43908 3.37117 0
M  V30 8371 H 818.069 -3.5668 4.17218 0
M  V30 8372 H 818.33 -3.68715 2.4393 0
M  V30 8373 N 817.389 -1.46805 -0.573248 0
M  V30 8374 C 818.614 -1.56433 -1.36175 0
M  V30 8375 C 819.039 -0.209336 -1.86932 0
M  V30 8376 O 818.397 0.812146 -1.62092 0
M  V30 8377 C 818.445 -2.58055 -2.51873 0
M  V30 8378 O 817.549 -2.12214 -3.53609 0
M  V30 8379 H 816.89 -0.526068 -0.405153 0
M  V30 8380 H 819.42 -1.92456 -0.694405 0
M  V30 8381 H 819.43 -2.77966 -2.98662 0
M  V30 8382 H 818.105 -3.56448 -2.14284 0
M  V30 8383 H 816.682 -2.02333 -3.13234 0
M  V30 8384 N 818.867 0.818669 -1.34668 0
M  V30 8385 C 820.113 1.577 -1.28461 0
M  V30 8386 C 820.468 1.91867 0.143057 0
M  V30 8387 O 819.761 1.57545 1.09041 0
M  V30 8388 C 819.955 2.88245 -2.11304 0
M  V30 8389 C 819.784 2.66831 -3.61982 0
M  V30 8390 C 818.554 2.63346 -4.3125 0
M  V30 8391 C 820.752 2.38049 -4.55892 0
M  V30 8392 N 818.734 2.33522 -5.67751 0
M  V30 8393 C 820.105 2.17957 -5.80426 0
M  V30 8394 C 822.16 2.23812 -4.44761 0
M  V30 8395 C 820.863 1.8507 -6.95084 0
M  V30 8396 C 822.889 1.92321 -5.59255 0
M  V30 8397 C 822.251 1.73056 -6.82811 0
M  V30 8398 H 818.35 0.579284 -0.525314 0
M  V30 8399 H 820.934 0.959336 -1.69425 0
M  V30 8400 H 819.105 3.47927 -1.7263 0
M  V30 8401 H 820.837 3.53677 -1.96709 0
M  V30 8402 H 817.592 2.7757 -3.83734 0
M  V30 8403 H 818.016 2.21438 -6.39761 0
M  V30 8404 H 822.658 2.3741 -3.49852 0
M  V30 8405 H 820.376 1.7021 -7.89971 0
M  V30 8406 H 823.962 1.82031 -5.5259 0
M  V30 8407 H 822.842 1.49042 -7.69907 0
M  V30 8408 N 820.346 1.18468 1.03938 0
M  V30 8409 C 821.592 0.982286 1.77423 0
M  V30 8410 C 821.925 -0.48679 1.88 0
M  V30 8411 O 821.2 -1.36146 1.38905 0
M  V30 8412 C 821.483 1.63929 3.20623 0
M  V30 8413 C 821.336 3.18132 3.17982 0
M  V30 8414 C 822.655 1.3536 4.18767 0
M  V30 8415 H 819.774 0.358264 0.644062 0
M  V30 8416 H 822.416 1.46154 1.21405 0
M  V30 8417 H 820.566 1.2318 3.68455 0
M  V30 8418 H 822.238 3.68024 2.78129 0
M  V30 8419 H 820.481 3.50225 2.55978 0
M  V30 8420 H 821.152 3.5924 4.19107 0
M  V30 8421 H 823.628 1.70669 3.79488 0
M  V30 8422 H 822.504 1.83896 5.17178 0
M  V30 8423 H 822.765 0.276722 4.41233 0
M  V30 8424 N 821.824 -1.22873 0.986916 0
M  V30 8425 C 822.754 -2.2688 0.552064 0
M  V30 8426 C 823.735 -1.64883 -0.418048 0
M  V30 8427 O 824.92 -1.9171 -0.30999 0
M  V30 8428 C 822.05 -3.47018 -0.139959 0
M  V30 8429 C 821.004 -4.21411 0.748091 0
M  V30 8430 C 820.33 -5.34645 -0.0765132 0
M  V30 8431 C 821.63 -4.80726 2.04206 0
M  V30 8432 H 823.324 -2.63507 1.42143 0
M  V30 8433 H 820.87 -1.26668 0.68492 0
M  V30 8434 H 822.823 -4.18931 -0.455527 0
M  V30 8435 H 821.547 -3.0947 -1.04382 0
M  V30 8436 H 820.206 -3.51325 1.04721 0
M  V30 8437 H 819.854 -4.93339 -0.981109 0
M  V30 8438 H 819.554 -5.85342 0.514606 0
M  V30 8439 H 821.078 -6.09377 -0.386313 0
M  V30 8440 H 822.492 -5.44612 1.79083 0
M  V30 8441 H 820.889 -5.41737 2.5815 0
M  V30 8442 H 821.959 -4.01109 2.72469 0
M  V30 8443 N 823.302 -0.75937 -1.38099 0
M  V30 8444 C 824.527 -0.327859 -2.04792 0
M  V30 8445 C 824.952 1.03752 -1.56899 0
M  V30 8446 O 824.31 1.66235 -0.723581 0
M  V30 8447 C 824.358 -0.366264 -3.58735 0
M  V30 8448 O 823.462 0.637697 -4.0744 0
M  V30 8449 H 822.803 -0.144092 -0.648177 0
M  V30 8450 H 825.333 -1.03211 -1.7666 0
M  V30 8451 H 825.343 -0.219179 -4.07411 0
M  V30 8452 H 824.018 -1.36243 -3.92951 0
M  V30 8453 H 822.595 0.454749 -3.70117 0
M  V30 8454 N 824.78 1.49157 -0.508906 0
M  V30 8455 C 825.71 2.32109 0.254469 0
M  V30 8456 C 826.691 1.40754 0.955111 0
M  V30 8457 O 827.876 1.69658 0.944983 0
M  V30 8458 C 825.006 3.21458 1.3146 0
M  V30 8459 C 823.96 4.2167 0.733368 0
M  V30 8460 C 823.286 5.00009 1.8946 0
M  V30 8461 C 824.586 5.21544 -0.280875 0
M  V30 8462 H 826.28 2.9618 -0.43795 0
M  V30 8463 H 823.826 1.4243 -0.212062 0
M  V30 8464 H 825.779 3.78305 1.85643 0
M  V30 8465 H 824.503 2.55346 2.03632 0
M  V30 8466 H 823.162 3.65979 0.213231 0
M  V30 8467 H 822.81 4.30338 2.60419 0
M  V30 8468 H 822.51 5.67821 1.51173 0
M  V30 8469 H 824.034 5.59702 2.44061 0
M  V30 8470 H 825.448 5.73039 0.173095 0
M  V30 8471 H 823.845 5.97291 -0.580006 0
M  V30 8472 H 824.915 4.69969 -1.19404 0
M  V30 8473 N 826.258 0.243083 1.55714 0
M  V30 8474 C 827.507 -0.383188 1.98027 0
M  V30 8475 C 827.82 -1.59347 1.13436 0
M  V30 8476 O 829.026 -2.29065 1.45745 0
M  V30 8477 C 827.482 -0.733135 3.52354 0
M  V30 8478 C 827.09 0.455539 4.45678 0
M  V30 8479 C 828.834 -1.32381 4.03331 0
M  V30 8480 C 826.741 0.0819591 5.91343 0
M  V30 8481 H 825.671 -0.146944 0.739543 0
M  V30 8482 H 828.322 0.342697 1.80272 0
M  V30 8483 H 826.704 -1.51704 3.65789 0
M  V30 8484 H 827.878 1.23291 4.44 0
M  V30 8485 H 826.193 0.960886 4.05162 0
M  V30 8486 H 828.79 -1.61658 5.09677 0
M  V30 8487 H 829.133 -2.24698 3.50452 0
M  V30 8488 H 829.666 -0.602885 3.93205 0
M  V30 8489 H 826.405 0.972171 6.48251 0
M  V30 8490 H 825.925 -0.659291 5.96166 0
M  V30 8491 H 827.604 -0.3372 6.46121 0
M  V30 8492 N 827.736 -1.57571 -0.0300757 0
M  V30 8493 C 829.013 -1.80381 -0.756447 0
M  V30 8494 C 829.393 -0.840906 -1.93628 0
M  V30 8495 O 828.741 0.117143 -2.282 0
M  V30 8496 C 828.951 -3.2807 -1.19043 0
M  V30 8497 C 830.299 -3.93025 -1.60676 0
M  V30 8498 O 831.323 -3.32213 -1.28503 0
M  V30 8499 O 830.182 -5.00092 -2.20386 0
M  V30 8500 H 827.276 -0.741737 -0.365725 0
M  V30 8501 H 829.822 -1.69699 -0.00693177 0
M  V30 8502 H 828.594 -3.89748 -0.348128 0
M  V30 8503 H 828.217 -3.43637 -1.99999 0
M  V30 8504 N 829.214 0.302327 -1.54673 0
M  V30 8505 C 830.177 1.35592 -1.8479 0
M  V30 8506 C 831.177 1.43743 -0.72073 0
M  V30 8507 O 832.367 1.43402 -0.989017 0
M  V30 8508 C 829.499 2.74091 -2.02699 0
M  V30 8509 H 830.692 1.10132 -2.78946 0
M  V30 8510 H 828.245 0.538926 -1.46715 0
M  V30 8511 H 828.98 3.04775 -1.10826 0
M  V30 8512 H 828.765 2.69565 -2.8474 0
M  V30 8513 H 830.255 3.50272 -2.27374 0
M  V30 8514 N 830.692 1.47107 0.565454 0
M  V30 8515 C 831.939 1.53308 1.32299 0
M  V30 8516 C 832.267 0.1919 1.93551 0
M  V30 8517 O 831.522 -0.81435 1.77952 0
M  V30 8518 C 831.821 2.59309 2.45954 0
M  V30 8519 C 831.487 4.02827 2.02586 0
M  V30 8520 C 830.149 4.41897 1.90474 0
M  V30 8521 C 832.501 4.92913 1.6937 0
M  V30 8522 C 829.829 5.68898 1.4343 0
M  V30 8523 C 832.181 6.20368 1.238 0
M  V30 8524 C 830.845 6.58327 1.10278 0
M  V30 8525 H 830.115 0.560993 0.484116 0
M  V30 8526 H 832.762 1.80667 0.634965 0
M  V30 8527 H 831.067 2.25676 3.20277 0
M  V30 8528 H 832.764 2.61332 3.04149 0
M  V30 8529 H 829.354 3.71953 2.12952 0
M  V30 8530 H 833.538 4.63433 1.77605 0
M  V30 8531 H 828.794 5.97065 1.31618 0
M  V30 8532 H 832.968 6.89589 0.971586 0
M  V30 8533 H 830.595 7.56628 0.736027 0
M  V30 8534 N 832.17 -0.811516 1.35101 0
M  V30 8535 C 833.418 -1.56525 1.27845 0
M  V30 8536 C 833.739 -1.94435 -0.14829 0
M  V30 8537 O 833.009 -1.63203 -1.08359 0
M  V30 8538 H 831.589 -0.580433 0.47022 0
M  V30 8539 H 834.251 -0.968277 1.69146 0
M  V30 8540 H 833.347 -2.48291 1.89097 0
M  V30 8541 N 833.648 -1.19017 -1.03309 0
M  V30 8542 C 834.578 -0.94772 -2.13402 0
M  V30 8543 C 835.559 0.117383 -1.69694 0
M  V30 8544 O 836.744 -0.0367733 -1.94165 0
M  V30 8545 C 833.874 -0.480977 -3.43953 0
M  V30 8546 C 832.828 -1.48743 -4.01322 0
M  V30 8547 C 832.154 -0.877924 -5.27443 0
M  V30 8548 C 833.454 -2.86642 -4.36616 0
M  V30 8549 H 835.148 -1.86846 -2.33942 0
M  V30 8550 H 832.694 -0.899781 -1.12427 0
M  V30 8551 H 834.647 -0.298677 -4.2034 0
M  V30 8552 H 833.371 0.475348 -3.23122 0
M  V30 8553 H 832.03 -1.65681 -3.27025 0
M  V30 8554 H 831.678 0.0858232 -5.02927 0
M  V30 8555 H 831.378 -1.54996 -5.66789 0
M  V30 8556 H 832.902 -0.706326 -6.06501 0
M  V30 8557 H 834.316 -2.73312 -5.03958 0
M  V30 8558 H 832.713 -3.50599 -4.87032 0
M  V30 8559 H 833.783 -3.39617 -3.46105 0
M  V30 8560 N 835.127 1.22348 -0.993418 0
M  V30 8561 C 836.077 2.221 -0.515333 0
M  V30 8562 C 837.061 1.55409 0.416762 0
M  V30 8563 O 838.253 1.75317 0.243497 0
M  V30 8564 C 835.382 3.42888 0.168173 0
M  V30 8565 C 834.468 4.16786 -0.784257 0
M  V30 8566 N 834.859 4.67435 -1.93231 0
M  V30 8567 C 833.157 4.41942 -0.600243 0
M  V30 8568 C 833.858 5.23792 -2.53016 0
M  V30 8569 N 832.834 5.12483 -1.8128 0
M  V30 8570 H 836.636 2.58902 -1.39093 0
M  V30 8571 H 834.15 1.38024 -0.855747 0
M  V30 8572 H 836.147 4.13542 0.528069 0
M  V30 8573 H 834.807 3.07598 1.03989 0
M  V30 8574 H 835.818 4.63375 -2.31309 0
M  V30 8575 H 832.495 4.16891 0.225369 0
M  V30 8576 H 833.885 5.73515 -3.50043 0
M  V30 8577 N 836.605 0.766683 1.37694 0
M  V30 8578 C 837.515 0.150158 2.34119 0
M  V30 8579 C 838.531 -0.685513 1.59927 0
M  V30 8580 O 839.707 -0.606616 1.92047 0
M  V30 8581 C 836.772 -0.722562 3.39087 0
M  V30 8582 C 835.833 0.128983 4.29106 0
M  V30 8583 C 835.066 -0.702178 5.29061 0
M  V30 8584 O 835.289 -1.93954 5.36412 0
M  V30 8585 O 834.223 -0.114056 6.01792 0
M  V30 8586 H 838.049 0.946829 2.88563 0
M  V30 8587 H 835.634 0.527765 1.39768 0
M  V30 8588 H 837.516 -1.22095 4.03325 0
M  V30 8589 H 836.191 -1.49751 2.86978 0
M  V30 8590 H 835.098 0.673612 3.67985 0
M  V30 8591 H 836.431 0.866892 4.84506 0
M  V30 8592 N 838.083 -1.48885 0.516809 0
M  V30 8593 C 839.03 -2.29408 -0.253125 0
M  V30 8594 C 840 -1.36533 -0.945935 0
M  V30 8595 O 841.185 -1.65495 -0.949527 0
M  V30 8596 C 838.325 -3.19592 -1.30211 0
M  V30 8597 C 837.438 -4.27535 -0.61948 0
M  V30 8598 C 836.573 -5.04916 -1.65026 0
M  V30 8599 C 835.612 -6.04677 -0.950368 0
M  V30 8600 N 834.749 -6.75164 -1.92608 0
M  V30 8601 H 839.589 -2.94738 0.439744 0
M  V30 8602 H 837.126 -1.45311 0.2287 0
M  V30 8603 H 839.084 -3.70267 -1.92245 0
M  V30 8604 H 837.714 -2.56213 -1.96353 0
M  V30 8605 H 836.766 -3.80228 0.114505 0
M  V30 8606 H 838.078 -4.98752 -0.0693016 0
M  V30 8607 H 837.232 -5.59539 -2.34523 0
M  V30 8608 H 835.971 -4.33508 -2.23432 0
M  V30 8609 H 834.976 -5.4927 -0.241252 0
M  V30 8610 H 836.201 -6.78077 -0.372599 0
M  V30 8611 H 834.147 -6.06517 -2.49946 0
M  V30 8612 H 834.064 -7.4241 -1.42699 0
M  V30 8613 H 835.332 -7.34384 -2.61345 0
M  V30 8614 N 839.561 -0.251338 -1.55583 0
M  V30 8615 C 840.801 0.373651 -2.00956 0
M  V30 8616 C 841.165 1.54806 -1.13574 0
M  V30 8617 O 842.366 2.24108 -1.48422 0
M  V30 8618 C 840.637 0.768919 -3.49031 0
M  V30 8619 S 842.196 1.38381 -4.16409 0
M  V30 8620 H 839.014 0.117371 -0.701245 0
M  V30 8621 H 841.616 -0.367611 -1.92013 0
M  V30 8622 H 840.32 -0.0950492 -4.1029 0
M  V30 8623 H 839.851 1.54225 -3.61909 0
M  V30 8624 H 841.866 2.6728 -4.18062 0
M  V30 8625 N 841.039 1.57585 0.0217189 0
M  V30 8626 C 841.971 2.03849 1.04777 0
M  V30 8627 C 842.984 0.952558 1.32023 0
M  V30 8628 O 844.173 1.22974 1.29381 0
M  V30 8629 C 841.273 2.40504 2.3877 0
M  V30 8630 C 840.446 3.71566 2.30775 0
M  V30 8631 C 839.505 3.95329 3.47277 0
M  V30 8632 O 838.531 4.66289 3.26441 0
M  V30 8633 N 839.733 3.41536 4.69397 0
M  V30 8634 H 842.498 2.92491 0.653395 0
M  V30 8635 H 840.059 1.60538 0.209527 0
M  V30 8636 H 842.051 2.53532 3.15442 0
M  V30 8637 H 840.621 1.57494 2.70027 0
M  V30 8638 H 839.841 3.68822 1.39155 0
M  V30 8639 H 841.129 4.5753 2.22584 0
M  V30 8640 H 840.527 2.84033 4.89226 0
M  V30 8641 H 839.084 3.59932 5.43408 0
M  V30 8642 N 842.517 -0.29412 1.54831 0
M  V30 8643 C 843.447 -1.36757 1.89261 0
M  V30 8644 C 844.428 -1.52564 0.752214 0
M  V30 8645 O 845.613 -1.65958 1.00855 0
M  V30 8646 C 842.743 -2.73066 2.14597 0
M  V30 8647 C 841.697 -2.72017 3.3044 0
M  V30 8648 C 841.023 -4.11679 3.4121 0
M  V30 8649 C 842.323 -2.33149 4.67375 0
M  V30 8650 H 844.017 -1.08191 2.79169 0
M  V30 8651 H 841.563 -0.519014 1.34321 0
M  V30 8652 H 843.516 -3.48255 2.37269 0
M  V30 8653 H 842.24 -3.03172 1.21467 0
M  V30 8654 H 840.899 -1.99285 3.07703 0
M  V30 8655 H 840.547 -4.38973 2.45584 0
M  V30 8656 H 840.247 -4.11877 4.19084 0
M  V30 8657 H 841.771 -4.88637 3.6615 0
M  V30 8658 H 843.185 -2.98054 4.89731 0
M  V30 8659 H 841.582 -2.44546 5.48012 0
M  V30 8660 H 842.652 -1.28275 4.67626 0
M  V30 8661 N 843.995 -1.47404 -0.557645 0
M  V30 8662 C 844.958 -1.59411 -1.64684 0
M  V30 8663 C 845.958 -0.469244 -1.53801 0
M  V30 8664 O 847.148 -0.734298 -1.57967 0
M  V30 8665 C 844.28 -1.5382 -3.04224 0
M  V30 8666 H 845.473 -2.56504 -1.55389 0
M  V30 8667 H 843.026 -1.35588 -0.777531 0
M  V30 8668 H 843.761 -0.581 -3.19053 0
M  V30 8669 H 843.546 -2.35456 -3.13533 0
M  V30 8670 H 845.036 -1.65358 -3.83466 0
M  V30 8671 N 845.473 0.80434 -1.35529 0
M  V30 8672 C 846.719 1.56385 -1.29118 0
M  V30 8673 C 847.052 1.9374 0.133536 0
M  V30 8674 O 846.327 1.6153 1.08344 0
M  V30 8675 C 846.61 2.85097 -2.19981 0
M  V30 8676 C 846.463 2.54204 -3.7108 0
M  V30 8677 C 847.782 3.86817 -2.09907 0
M  V30 8678 H 844.901 0.567382 -0.470368 0
M  V30 8679 H 847.543 0.925235 -1.6595 0
M  V30 8680 H 845.693 3.39594 -1.88701 0
M  V30 8681 H 847.365 2.05872 -4.12813 0
M  V30 8682 H 845.608 1.87364 -3.91251 0
M  V30 8683 H 846.279 3.46068 -4.30048 0
M  V30 8684 H 848.755 3.41725 -2.37409 0
M  V30 8685 H 847.631 4.7465 -2.75678 0
M  V30 8686 H 847.892 4.28663 -1.08171 0
M  V30 8687 N 846.951 1.19563 1.02676 0
M  V30 8688 C 848.2 0.993864 1.75514 0
M  V30 8689 C 848.513 -0.475882 1.89723 0
M  V30 8690 O 849.719 -0.796525 2.59553 0
M  V30 8691 C 848.175 1.72937 3.15628 0
M  V30 8692 C 847.783 3.23937 3.09466 0
M  V30 8693 C 849.527 1.61092 3.92746 0
M  V30 8694 C 847.434 3.90067 4.44524 0
M  V30 8695 H 846.364 0.368244 0.657961 0
M  V30 8696 H 849.015 1.43081 1.14891 0
M  V30 8697 H 847.397 1.22025 3.76731 0
M  V30 8698 H 848.571 3.81983 2.57731 0
M  V30 8699 H 846.886 3.3608 2.45843 0
M  V30 8700 H 849.483 2.07848 4.92649 0
M  V30 8701 H 849.826 0.565415 4.12442 0
M  V30 8702 H 850.359 2.09361 3.3825 0
M  V30 8703 H 847.098 4.94725 4.30032 0
M  V30 8704 H 846.618 3.36809 4.96306 0
M  V30 8705 H 848.297 3.93736 5.13401 0
M  V30 8706 N 848.429 -1.21819 0.999893 0
M  V30 8707 C 849.84 -1.72517 0.713775 0
M  V30 8708 C 850.191 -1.80505 -0.768922 0
M  V30 8709 O 849.316 -1.45611 -1.60083 0
M  V30 8710 C 849.911 -3.13321 1.28901 0
M  V30 8711 C 848.47 -3.61396 1.05212 0
M  V30 8712 C 847.617 -2.39074 1.40494 0
M  V30 8713 H 850.568 -1.07068 1.17141 0
M  V30 8714 H 850.589 -3.74535 0.671084 0
M  V30 8715 H 850.101 -3.07475 2.36814 0
M  V30 8716 H 848.202 -3.72599 -0.0100732 0
M  V30 8717 H 848.315 -4.47145 1.72042 0
M  V30 8718 H 846.679 -2.41015 0.823642 0
M  V30 8719 H 847.462 -2.35884 2.49427 0
M  V30 8720 N 849.908 -0.773975 -1.37286 0
M  V30 8721 C 850.838 -0.175782 -2.32837 0
M  V30 8722 C 851.819 0.680603 -1.5589 0
M  V30 8723 O 853.004 0.617607 -1.84117 0
M  V30 8724 C 850.134 0.702388 -3.40123 0
M  V30 8725 C 849.088 -0.0528687 -4.27967 0
M  V30 8726 C 848.414 0.944891 -5.26285 0
M  V30 8727 C 849.714 -1.23316 -5.07534 0
M  V30 8728 H 851.408 -0.974016 -2.83114 0
M  V30 8729 H 848.954 -0.469826 -1.3612 0
M  V30 8730 H 850.907 1.13069 -4.05947 0
M  V30 8731 H 849.631 1.53316 -2.88378 0
M  V30 8732 H 848.29 -0.461978 -3.63678 0
M  V30 8733 H 847.938 1.77028 -4.70819 0
M  V30 8734 H 847.638 0.444079 -5.8592 0
M  V30 8735 H 849.162 1.37209 -5.94984 0
M  V30 8736 H 850.576 -0.881395 -5.66484 0
M  V30 8737 H 848.973 -1.66621 -5.76504 0
M  V30 8738 H 850.043 -2.03617 -4.40077 0
M  V30 8739 N 851.386 1.48609 -0.524698 0
M  V30 8740 C 852.634 2.02097 0.0112991 0
M  V30 8741 C 852.955 1.40455 1.35268 0
M  V30 8742 O 852.225 0.56807 1.87483 0
M  V30 8743 H 850.805 0.746966 0.00716426 0
M  V30 8744 H 853.467 1.82378 -0.687329 0
M  V30 8745 H 852.563 3.11855 0.123531 0
M  V30 8746 N 852.864 0.259585 1.55447 0
M  V30 8747 C 854.092 -0.365392 2.03648 0
M  V30 8748 C 854.507 -1.50613 1.13847 0
M  V30 8749 O 853.864 -1.81837 0.155414 0
M  V30 8750 C 853.915 -0.861172 3.51093 0
M  V30 8751 O 853.636 0.234121 4.37474 0
M  V30 8752 C 855.137 -1.55555 4.15111 0
M  V30 8753 H 852.357 -0.0853439 0.66555 0
M  V30 8754 H 854.901 0.387151 2.00802 0
M  V30 8755 H 853.056 -1.56385 3.54433 0
M  V30 8756 H 853.47 -0.1444 5.24301 0
M  V30 8757 H 854.944 -1.85403 5.19932 0
M  V30 8758 H 855.421 -2.48185 3.62355 0
M  V30 8759 H 856.027 -0.89712 4.15731 0
M  V30 8760 N 854.342 -1.57594 -0.0133615 0
M  V30 8761 C 855.59 -1.89605 -0.699596 0
M  V30 8762 C 855.911 -0.85926 -1.75048 0
M  V30 8763 O 855.181 0.105112 -1.95618 0
M  V30 8764 H 853.761 -0.699776 -0.261385 0
M  V30 8765 H 856.423 -1.94885 0.0244044 0
M  V30 8766 H 855.519 -2.88962 -1.17928 0
M  V30 8767 N 855.82 0.285905 -1.54985 0
M  V30 8768 C 856.768 1.37302 -1.87752 0
M  V30 8769 C 857.762 1.51763 -0.752616 0
M  V30 8770 O 858.968 1.53701 -0.936805 0
M  V30 8771 H 855.343 0.458935 -0.59572 0
M  V30 8772 H 857.314 1.0691 -2.78591 0
M  V30 8773 C 856.063 2.72885 -2.15474 0
M  V30 8774 H 855.386 2.62545 -3.01513 0
M  V30 8775 H 856.826 3.47925 -2.42331 0
M  V30 8776 C 855.285 3.22989 -0.958124 0
M  V30 8777 O 855.815 4.01268 -0.186219 0
M  V30 8778 N 854.021 2.80503 -0.759354 0
M  V30 8779 H 853.568 2.16961 -1.38874 0
M  V30 8780 H 853.526 3.14375 0.0396937 0
M  V30 8781 N 857.298 1.47698 0.54982 0
M  V30 8782 C 858.575 1.45185 1.31075 0
M  V30 8783 C 858.955 0.152768 2.10547 0
M  V30 8784 O 858.303 -0.865706 2.11466 0
M  V30 8785 C 858.513 2.70192 2.20902 0
M  V30 8786 C 859.861 3.1771 2.81683 0
M  V30 8787 O 860.885 2.70971 2.312 0
M  V30 8788 O 859.744 3.98986 3.7346 0
M  V30 8789 H 856.838 0.57892 0.590577 0
M  V30 8790 H 859.384 1.59908 0.568112 0
M  V30 8791 H 858.156 3.56269 1.61828 0
M  V30 8792 H 857.779 2.58091 3.02448 0
M  V30 8793 N 858.776 -0.797141 1.35954 0
M  V30 8794 C 859.706 -1.92387 1.32323 0
M  V30 8795 C 860.687 -1.68967 0.196007 0
M  V30 8796 O 861.872 -1.90193 0.39245 0
M  V30 8797 C 859.002 -3.29286 1.10398 0
M  V30 8798 C 857.956 -3.67212 2.19862 0
M  V30 8799 C 857.282 -5.02377 1.8309 0
M  V30 8800 C 858.582 -3.76602 3.61896 0
M  V30 8801 H 860.276 -1.95683 2.26602 0
M  V30 8802 H 857.822 -0.94007 1.09081 0
M  V30 8803 H 859.775 -4.07721 1.06495 0
M  V30 8804 H 858.499 -3.26358 0.125668 0
M  V30 8805 H 857.158 -2.91069 2.22878 0
M  V30 8806 H 856.806 -4.95961 0.838527 0
M  V30 8807 H 856.506 -5.28722 2.56372 0
M  V30 8808 H 858.03 -5.8324 1.80729 0
M  V30 8809 H 859.444 -4.45246 3.6115 0
M  V30 8810 H 857.841 -4.14425 4.34018 0
M  V30 8811 H 858.911 -2.77906 3.97361 0
M  V30 8812 N 860.254 -1.20106 -1.0204 0
M  V30 8813 C 861.217 -0.948261 -2.08664 0
M  V30 8814 C 862.217 0.0746753 -1.60627 0
M  V30 8815 O 863.407 -0.160981 -1.73455 0
M  V30 8816 C 860.539 -0.426854 -3.38217 0
M  V30 8817 H 861.732 -1.894 -2.32524 0
M  V30 8818 H 859.285 -1.0159 -1.18782 0
M  V30 8819 H 860.02 0.524532 -3.2003 0
M  V30 8820 H 859.805 -1.16451 -3.74408 0
M  V30 8821 H 861.295 -0.269346 -4.1673 0
M  V30 8822 N 861.732 1.21287 -1.00634 0
M  V30 8823 C 863.148 1.42467 -0.719389 0
M  V30 8824 C 863.348 1.88767 0.704927 0
M  V30 8825 O 862.404 2.05004 1.47409 0
M  V30 8826 C 863.717 2.455 -1.73639 0
M  V30 8827 C 865.265 2.59281 -1.75335 0
M  V30 8828 C 865.74 3.65547 -2.75934 0
M  V30 8829 N 867.231 3.73019 -2.74611 0
M  V30 8830 C 867.966 4.54873 -3.4911 0
M  V30 8831 N 867.462 5.40614 -4.33253 0
M  V30 8832 N 869.255 4.49309 -3.37754 0
M  V30 8833 H 861.406 0.895454 -1.92602 0
M  V30 8834 H 863.669 0.455491 -0.831404 0
M  V30 8835 H 863.375 2.18455 -2.75627 0
M  V30 8836 H 863.249 3.44325 -1.54014 0
M  V30 8837 H 865.636 2.85661 -0.740377 0
M  V30 8838 H 865.717 1.60685 -1.99032 0
M  V30 8839 H 865.361 3.39911 -3.77389 0
M  V30 8840 H 865.291 4.63741 -2.49503 0
M  V30 8841 H 867.782 3.11766 -2.13565 0
M  V30 8842 H 868.095 6.0013 -4.86892 0
M  V30 8843 H 866.44 5.40151 -4.37335 0
M  V30 8844 H 869.631 3.81357 -2.71449 0
M  V30 8845 H 869.804 5.12867 -3.9607 0
M  V30 8846 N 863.21 0.781244 1.36873 0
M  V30 8847 C 864.456 0.350407 1.9975 0
M  V30 8848 C 864.789 -1.07293 1.6187 0
M  V30 8849 O 864.064 -1.73983 0.869491 0
M  V30 8850 C 864.347 0.504834 3.56544 0
M  V30 8851 C 864.2 1.97127 4.04303 0
M  V30 8852 C 865.519 -0.0851272 4.40018 0
M  V30 8853 H 862.638 0.128794 0.725659 0
M  V30 8854 H 865.28 0.98606 1.6241 0
M  V30 8855 H 863.43 -0.0363006 3.88483 0
M  V30 8856 H 865.102 2.57284 3.82887 0
M  V30 8857 H 863.345 2.47676 3.56145 0
M  V30 8858 H 864.016 2.03033 5.13305 0
M  V30 8859 H 866.492 0.376704 4.14391 0
M  V30 8860 H 865.368 0.0530015 5.48874 0
M  V30 8861 H 865.629 -1.17642 4.2616 0
M  V30 8862 N 864.689 -1.48329 0.532571 0
M  V30 8863 C 865.619 -2.32485 -0.217511 0
M  V30 8864 C 866.6 -1.42255 -0.932598 0
M  V30 8865 O 867.785 -1.7114 -0.917873 0
M  V30 8866 C 864.915 -3.23509 -1.26329 0
M  V30 8867 C 863.869 -4.22784 -0.666191 0
M  V30 8868 C 863.195 -5.0296 -1.81482 0
M  V30 8869 C 864.495 -5.21031 0.363813 0
M  V30 8870 H 866.189 -2.95445 0.485014 0
M  V30 8871 H 863.735 -1.42075 0.234694 0
M  V30 8872 H 865.688 -3.81211 -1.79601 0
M  V30 8873 H 864.412 -2.58554 -1.99543 0
M  V30 8874 H 863.071 -3.66272 -0.15498 0
M  V30 8875 H 862.719 -4.34427 -2.5354 0
M  V30 8876 H 862.419 -5.70154 -1.4212 0
M  V30 8877 H 863.943 -5.63514 -2.35126 0
M  V30 8878 H 865.357 -5.73241 -0.0819079 0
M  V30 8879 H 863.754 -5.96292 0.674956 0
M  V30 8880 H 864.824 -4.6801 1.26865 0
M  V30 8881 N 866.167 -0.267825 -1.55308 0
M  V30 8882 C 867.415 0.350343 -1.9904 0
M  V30 8883 C 867.736 1.56924 -1.15758 0
M  V30 8884 O 867.006 1.94358 -0.245336 0
M  V30 8885 H 865.586 0.132435 -0.735167 0
M  V30 8886 H 868.248 -0.371471 -1.91327 0
M  V30 8887 H 867.344 0.645203 -3.05358 0
M  V30 8888 N 867.645 1.57599 0.00500368 0
M  V30 8889 C 868.891 1.91471 0.686313 0
M  V30 8890 C 869.246 0.868988 1.71658 0
M  V30 8891 O 868.539 -0.11944 1.91227 0
M  V30 8892 C 868.733 3.29855 1.37588 0
M  V30 8893 C 868.562 4.47791 0.413924 0
M  V30 8894 C 867.332 5.05293 0.0261488 0
M  V30 8895 C 869.53 5.13317 -0.317764 0
M  V30 8896 N 867.512 6.06745 -0.934545 0
M  V30 8897 C 868.883 6.09554 -1.13331 0
M  V30 8898 C 870.938 4.96431 -0.382136 0
M  V30 8899 C 869.641 6.90723 -2.00735 0
M  V30 8900 C 871.667 5.78182 -1.24339 0
M  V30 8901 C 871.029 6.74007 -2.04679 0
M  V30 8902 H 867.128 0.749083 0.224495 0
M  V30 8903 H 869.712 1.94625 -0.0541684 0
M  V30 8904 H 867.883 3.27585 2.08668 0
M  V30 8905 H 869.615 3.51171 2.01149 0
M  V30 8906 H 866.37 4.71963 0.393462 0
M  V30 8907 H 866.794 6.62152 -1.41012 0
M  V30 8908 H 871.436 4.22202 0.224718 0
M  V30 8909 H 869.154 7.64281 -2.6249 0
M  V30 8910 H 872.74 5.67158 -1.29704 0
M  V30 8911 H 871.62 7.36164 -2.70244 0
M  V30 8912 N 869.123 -0.277682 1.55134 0
M  V30 8913 C 870.371 -1.00791 1.75173 0
M  V30 8914 C 870.692 -1.86987 0.553266 0
M  V30 8915 O 869.962 -1.91079 -0.43195 0
M  V30 8916 H 868.542 -0.375129 0.645978 0
M  V30 8917 H 871.204 -0.303041 1.9253 0
M  V30 8918 H 870.3 -1.64756 2.6507 0
M  V30 8919 N 870.601 -1.47988 -0.541979 0
M  V30 8920 C 871.564 -1.61148 -1.62984 0
M  V30 8921 C 872.564 -0.48553 -1.53295 0
M  V30 8922 O 873.754 -0.751012 -1.5718 0
M  V30 8923 C 870.886 -1.57038 -3.02576 0
M  V30 8924 H 872.079 -2.58138 -1.52659 0
M  V30 8925 H 869.632 -1.36405 -0.763106 0
M  V30 8926 H 870.367 -0.614807 -3.18419 0
M  V30 8927 H 870.152 -2.38769 -3.11018 0
M  V30 8928 H 871.642 -1.69416 -3.81691 0
M  V30 8929 N 872.079 0.78992 -1.36375 0
M  V30 8930 C 873.326 1.54777 -1.30576 0
M  V30 8931 C 873.654 1.94159 0.115095 0
M  V30 8932 O 872.909 1.62918 1.08426 0
M  V30 8933 C 873.208 2.83698 -2.17371 0
M  V30 8934 C 872.874 2.63457 -3.65925 0
M  V30 8935 C 871.536 2.57645 -4.06415 0
M  V30 8936 C 873.888 2.44833 -4.60115 0
M  V30 8937 C 871.216 2.31174 -5.39236 0
M  V30 8938 C 873.568 2.19889 -5.93154 0
M  V30 8939 C 872.232 2.1251 -6.32768 0
M  V30 8940 H 871.502 0.566371 -0.477813 0
M  V30 8941 H 874.149 0.91138 -1.68422 0
M  V30 8942 H 872.454 3.51802 -1.72459 0
M  V30 8943 H 874.151 3.41487 -2.10209 0
M  V30 8944 H 870.741 2.68836 -3.33804 0
M  V30 8945 H 874.925 2.48325 -4.29707 0
M  V30 8946 H 870.181 2.23942 -5.68911 0
M  V30 8947 H 874.355 2.04473 -6.65705 0
M  V30 8948 H 871.982 1.91761 -7.35616 0
M  V30 8949 N 873.557 1.20646 1.01402 0
M  V30 8950 C 874.803 1.02974 1.75408 0
M  V30 8951 C 875.158 -0.433294 1.87458 0
M  V30 8952 O 874.451 -1.31741 1.39122 0
M  V30 8953 C 874.645 1.64991 3.17037 0
M  V30 8954 C 874.474 3.17174 3.18796 0
M  V30 8955 C 873.244 3.86165 3.2589 0
M  V30 8956 C 875.442 4.14369 3.04636 0
M  V30 8957 N 873.424 5.25614 3.1718 0
M  V30 8958 C 874.795 5.4051 3.03724 0
M  V30 8959 C 876.85 4.05534 2.88872 0
M  V30 8960 C 875.553 6.58836 2.88664 0
M  V30 8961 C 877.579 5.23486 2.75166 0
M  V30 8962 C 876.941 6.48535 2.74922 0
M  V30 8963 H 873.04 0.431068 0.65246 0
M  V30 8964 H 875.624 1.52858 1.20593 0
M  V30 8965 H 873.795 1.17688 3.70141 0
M  V30 8966 H 875.527 1.40612 3.79487 0
M  V30 8967 H 872.282 3.37038 3.32719 0
M  V30 8968 H 872.706 5.98625 3.16192 0
M  V30 8969 H 877.348 3.09661 2.87872 0
M  V30 8970 H 875.066 7.5488 2.88413 0
M  V30 8971 H 878.652 5.18464 2.63982 0
M  V30 8972 H 877.532 7.3827 2.64439 0
M  V30 8973 N 875.035 -1.20752 1.01276 0
M  V30 8974 C 875.983 -2.25432 0.572989 0
M  V30 8975 C 876.977 -1.64935 -0.386354 0
M  V30 8976 O 878.183 -1.7816 -0.256696 0
M  V30 8977 H 874.558 -0.733229 0.166972 0
M  V30 8978 H 876.529 -2.59856 1.46687 0
M  V30 8979 C 875.278 -3.47615 -0.0768249 0
M  V30 8980 H 874.601 -3.94442 0.652354 0
M  V30 8981 H 876.041 -4.22572 -0.3477 0
M  V30 8982 C 874.5 -3.1003 -1.31845 0
M  V30 8983 O 875.03 -3.21216 -2.41211 0
M  V30 8984 N 873.236 -2.64616 -1.20111 0
M  V30 8985 H 872.783 -2.55714 -0.311184 0
M  V30 8986 H 872.741 -2.39838 -2.03286 0
M  V30 8987 N 876.513 -0.788492 -1.36457 0
M  V30 8988 C 877.46 -0.18435 -2.30063 0
M  V30 8989 C 878.43 0.67128 -1.51931 0
M  V30 8990 O 879.615 0.620152 -1.8044 0
M  V30 8991 C 876.755 0.675596 -3.38422 0
M  V30 8992 C 875.868 -0.198475 -4.31544 0
M  V30 8993 C 875.003 0.667757 -5.26986 0
M  V30 8994 C 874.042 -0.207825 -6.11747 0
M  V30 8995 N 873.179 0.617335 -6.99381 0
M  V30 8996 H 878.019 -0.988056 -2.81143 0
M  V30 8997 H 875.556 -0.498815 -1.38384 0
M  V30 8998 H 877.514 1.18916 -3.99894 0
M  V30 8999 H 876.144 1.44474 -2.88664 0
M  V30 9000 H 875.196 -0.829995 -3.71235 0
M  V30 9001 H 876.508 -0.873163 -4.91098 0
M  V30 9002 H 875.662 1.24716 -5.93743 0
M  V30 9003 H 874.401 1.37607 -4.67884 0
M  V30 9004 H 873.406 -0.799638 -5.43954 0
M  V30 9005 H 874.631 -0.913729 -6.72925 0
M  V30 9006 H 872.577 1.30996 -6.42788 0
M  V30 9007 H 872.494 0.000307255 -7.56 0
M  V30 9008 H 873.762 1.1806 -7.70508 0
M  V30 9009 N 877.991 1.48044 -0.54043 0
M  V30 9010 C 879.216 2.07396 -0.0124765 0
M  V30 9011 C 879.641 1.39288 1.26414 0
M  V30 9012 O 878.999 0.462252 1.75308 0
M  V30 9013 C 879.047 3.60131 0.18377 0
M  V30 9014 O 878.151 3.92995 1.25014 0
M  V30 9015 H 877.492 0.662554 -0.0438026 0
M  V30 9016 H 880.022 1.90306 -0.751327 0
M  V30 9017 H 880.032 4.06003 0.403197 0
M  V30 9018 H 878.707 4.09105 -0.74874 0
M  V30 9019 H 877.284 3.5889 1.01254 0
M  V30 9020 N 879.47 0.276058 1.55163 0
M  V30 9021 C 880.417 -0.611006 2.22565 0
M  V30 9022 C 881.387 -1.14902 1.19945 0
M  V30 9023 O 882.572 -1.19815 1.48489 0
M  V30 9024 C 879.712 -1.78885 2.95117 0
M  V30 9025 C 878.825 -1.2846 4.12458 0
M  V30 9026 C 877.96 -2.42432 4.72652 0
M  V30 9027 C 876.999 -1.89015 5.82185 0
M  V30 9028 N 876.136 -2.96463 6.36439 0
M  V30 9029 H 880.976 -0.0295849 2.97985 0
M  V30 9030 H 878.513 -0.00283607 1.471 0
M  V30 9031 H 880.471 -2.48121 3.35398 0
M  V30 9032 H 879.101 -2.34229 2.22119 0
M  V30 9033 H 878.153 -0.485312 3.77292 0
M  V30 9034 H 879.465 -0.853358 4.91446 0
M  V30 9035 H 878.619 -3.19659 5.15658 0
M  V30 9036 H 877.358 -2.88872 3.92943 0
M  V30 9037 H 876.363 -1.10267 5.38629 0
M  V30 9038 H 877.588 -1.43509 6.63763 0
M  V30 9039 H 875.534 -3.42283 5.59623 0
M  V30 9040 H 875.451 -2.57759 7.10701 0
M  V30 9041 H 876.719 -3.73663 6.84103 0
M  V30 9042 N 880.948 -1.576 0.00335426 0
M  V30 9043 C 882.173 -1.95398 -0.695311 0
M  V30 9044 C 882.598 -0.878476 -1.66326 0
M  V30 9045 O 881.956 0.163086 -1.80565 0
M  V30 9046 C 882.004 -3.32293 -1.40049 0
M  V30 9047 O 881.108 -3.26834 -2.51502 0
M  V30 9048 H 880.449 -0.637796 -0.184694 0
M  V30 9049 H 882.979 -2.04519 0.057543 0
M  V30 9050 H 882.989 -3.67936 -1.76316 0
M  V30 9051 H 881.664 -4.10123 -0.690803 0
M  V30 9052 H 880.241 -3.02872 -2.17539 0
M  V30 9053 N 882.426 0.269451 -1.5528 0
M  V30 9054 C 883.837 0.840233 -1.66724 0
M  V30 9055 C 884.188 1.86909 -0.596621 0
M  V30 9056 O 883.313 2.14817 0.261246 0
M  V30 9057 C 883.908 1.5308 -3.02245 0
M  V30 9058 C 882.467 2.04957 -3.15705 0
M  V30 9059 C 881.614 0.892838 -2.62533 0
M  V30 9060 H 884.565 0.0457236 -1.58634 0
M  V30 9061 H 884.586 2.39792 -2.95432 0
M  V30 9062 H 884.098 0.781741 -3.80145 0
M  V30 9063 H 882.199 2.82813 -2.42585 0
M  V30 9064 H 882.312 2.26244 -4.22316 0
M  V30 9065 H 880.676 1.28719 -2.19781 0
M  V30 9066 H 881.459 0.157229 -3.4294 0
M  V30 9067 N 883.904 1.48273 0.534124 0
M  V30 9068 C 884.834 1.6538 1.64839 0
M  V30 9069 C 885.815 0.502741 1.62501 0
M  V30 9070 O 887 0.734799 1.79762 0
M  V30 9071 C 884.13 1.68949 3.03436 0
M  V30 9072 C 883.084 2.83513 3.20631 0
M  V30 9073 C 882.41 2.72169 4.60248 0
M  V30 9074 C 883.71 4.24858 3.03797 0
M  V30 9075 H 885.404 2.58663 1.50777 0
M  V30 9076 H 882.95 1.24479 0.723937 0
M  V30 9077 H 884.903 1.79505 3.81256 0
M  V30 9078 H 883.627 0.722415 3.1851 0
M  V30 9079 H 882.286 2.72505 2.45227 0
M  V30 9080 H 881.934 1.7344 4.72152 0
M  V30 9081 H 881.634 3.49042 4.72698 0
M  V30 9082 H 883.158 2.84687 5.40172 0
M  V30 9083 H 884.572 4.36721 3.71413 0
M  V30 9084 H 882.969 5.02697 3.27743 0
M  V30 9085 H 884.039 4.41611 2.0027 0
M  V30 9086 N 885.382 -0.782676 1.36792 0
M  V30 9087 C 886.659 -1.52939 1.21939 0
M  V30 9088 C 887.039 -2.10228 -0.191639 0
M  V30 9089 O 886.387 -1.94574 -1.19805 0
M  V30 9090 C 886.597 -2.61898 2.30674 0
M  V30 9091 C 887.945 -3.29598 2.67676 0
M  V30 9092 O 888.969 -2.72186 2.29768 0
M  V30 9093 O 887.828 -4.3337 3.32946 0
M  V30 9094 H 884.922 -0.676856 0.47518 0
M  V30 9095 H 887.468 -0.82058 1.48542 0
M  V30 9096 H 886.24 -2.17607 3.25212 0
M  V30 9097 H 885.863 -3.40391 2.05475 0
M  V30 9098 N 886.86 -1.21182 -1.00761 0
M  V30 9099 C 888.109 -1.02166 -1.73911 0
M  V30 9100 C 888.422 0.445638 -1.90456 0
M  V30 9101 O 889.628 0.755132 -2.60787 0
M  V30 9102 C 888.084 -1.77936 -3.12837 0
M  V30 9103 C 887.692 -3.28819 -3.04273 0
M  V30 9104 C 889.436 -1.67319 -3.90134 0
M  V30 9105 C 887.343 -3.97089 -4.38262 0
M  V30 9106 H 886.273 -0.378665 -0.652019 0
M  V30 9107 H 888.924 -1.44891 -1.12601 0
M  V30 9108 H 887.306 -1.28003 -3.74742 0
M  V30 9109 H 888.48 -3.86035 -2.51622 0
M  V30 9110 H 886.795 -3.39949 -2.40465 0
M  V30 9111 H 889.392 -2.15659 -4.8928 0
M  V30 9112 H 889.735 -0.630959 -4.11491 0
M  V30 9113 H 890.268 -2.14716 -3.34876 0
M  V30 9114 H 887.007 -5.01503 -4.22107 0
M  V30 9115 H 886.527 -3.44662 -4.90885 0
M  V30 9116 H 888.206 -4.01854 -5.07072 0
M  V30 9117 N 888.338 1.20213 -1.01915 0
M  V30 9118 C 889.268 2.25336 -0.612023 0
M  V30 9119 C 890.249 1.65933 0.374186 0
M  V30 9120 O 891.434 1.92464 0.259053 0
M  V30 9121 C 888.564 3.47267 0.047904 0
M  V30 9122 C 887.518 4.1928 -0.859557 0
M  V30 9123 C 886.844 5.3466 -0.0652655 0
M  V30 9124 C 888.144 4.75143 -2.1688 0
M  V30 9125 H 889.838 2.59645 -1.49079 0
M  V30 9126 H 887.384 1.24808 -0.718263 0
M  V30 9127 H 889.337 4.19991 0.344294 0
M  V30 9128 H 888.061 3.12129 0.961404 0
M  V30 9129 H 886.72 3.48425 -1.13999 0
M  V30 9130 H 886.368 4.95767 0.849964 0
M  V30 9131 H 886.068 5.83772 -0.669618 0
M  V30 9132 H 887.592 6.10187 0.224612 0
M  V30 9133 H 889.006 5.39672 -1.9346 0
M  V30 9134 H 887.403 5.34702 -2.72422 0
M  V30 9135 H 888.473 3.93744 -2.83008 0
M  V30 9136 N 889.816 0.795718 1.36037 0
M  V30 9137 C 890.764 0.18649 2.31851 0
M  V30 9138 C 891.758 -0.657704 1.56111 0
M  V30 9139 O 892.964 -0.552083 1.71324 0
M  V30 9140 H 889.339 0.0415363 0.750852 0
M  V30 9141 H 891.31 1.00992 2.8079 0
M  V30 9142 C 890.059 -0.65918 3.41394 0
M  V30 9143 H 889.382 -0.01894 3.99796 0
M  V30 9144 H 890.822 -1.05202 4.10741 0
M  V30 9145 C 889.281 -1.82011 2.83502 0
M  V30 9146 O 889.811 -2.91703 2.76174 0
M  V30 9147 N 888.017 -1.62821 2.40703 0
M  V30 9148 H 887.564 -0.735965 2.46863 0
M  V30 9149 H 887.522 -2.40657 2.02316 0
M  V30 9150 N 891.294 -1.47756 0.548274 0
M  V30 9151 C 892.71 -1.58247 0.207401 0
M  V30 9152 C 892.91 -1.54804 -1.28988 0
M  V30 9153 O 891.966 -1.44673 -2.06944 0
M  V30 9154 C 893.279 -2.89129 0.826142 0
M  V30 9155 C 894.827 -3.02695 0.79655 0
M  V30 9156 C 895.302 -4.36264 1.3942 0
M  V30 9157 N 896.793 -4.42877 1.35698 0
M  V30 9158 C 897.528 -5.44773 1.78913 0
M  V30 9159 N 897.024 -6.53528 2.29942 0
M  V30 9160 N 898.817 -5.35765 1.70038 0
M  V30 9161 H 890.968 -1.48236 1.52117 0
M  V30 9162 H 893.231 -0.704957 0.633829 0
M  V30 9163 H 892.937 -2.97358 1.87806 0
M  V30 9164 H 892.811 -3.75891 0.313916 0
M  V30 9165 H 895.198 -2.94067 -0.246655 0
M  V30 9166 H 895.279 -2.17496 1.34644 0
M  V30 9167 H 894.923 -4.45646 2.43642 0
M  V30 9168 H 894.853 -5.20179 0.819827 0
M  V30 9169 H 897.344 -3.64874 0.983623 0
M  V30 9170 H 897.657 -7.27441 2.60863 0
M  V30 9171 H 896.002 -6.54442 2.33947 0
M  V30 9172 H 899.193 -4.49699 1.29955 0
M  V30 9173 H 899.366 -6.1504 2.04035 0
M  V30 9174 N 892.772 -0.284283 -1.55015 0
M  V30 9175 C 894.018 0.330352 -2.00091 0
M  V30 9176 C 894.351 1.54814 -1.17244 0
M  V30 9177 O 893.626 1.92954 -0.244753 0
M  V30 9178 C 893.909 0.703492 -3.53161 0
M  V30 9179 C 893.762 -0.522275 -4.46758 0
M  V30 9180 C 895.081 1.53645 -4.12409 0
M  V30 9181 H 892.2 0.118599 -0.727395 0
M  V30 9182 H 894.842 -0.393054 -1.8589 0
M  V30 9183 H 892.992 1.31983 -3.65394 0
M  V30 9184 H 894.664 -1.16082 -4.46456 0
M  V30 9185 H 892.907 -1.15865 -4.1804 0
M  V30 9186 H 893.578 -0.217295 -5.51572 0
M  V30 9187 H 896.054 1.01583 -4.0351 0
M  V30 9188 H 894.93 1.76633 -5.19704 0
M  V30 9189 H 895.191 2.5204 -3.63219 0
M  V30 9190 N 894.251 1.57596 -0.0117121 0
M  V30 9191 C 895.161 2.12596 0.991964 0
M  V30 9192 C 896.177 1.07399 1.36899 0
M  V30 9193 O 897.353 1.39365 1.45394 0
M  V30 9194 C 894.418 2.62796 2.2614 0
M  V30 9195 C 893.479 3.8264 1.94642 0
M  V30 9196 C 892.712 4.30435 3.15533 0
M  V30 9197 O 892.935 3.77495 4.27614 0
M  V30 9198 O 891.869 5.22469 2.98847 0
M  V30 9199 H 895.695 2.98597 0.554371 0
M  V30 9200 H 893.28 1.47947 0.207839 0
M  V30 9201 H 895.162 2.9523 3.00695 0
M  V30 9202 H 893.837 1.79886 2.69114 0
M  V30 9203 H 892.744 3.5516 1.17526 0
M  V30 9204 H 894.077 4.66658 1.56496 0
M  V30 9205 N 895.729 -0.261212 1.5542 0
M  V30 9206 C 896.661 -1.34571 1.85535 0
M  V30 9207 C 897.674 -1.44979 0.740612 0
M  V30 9208 O 898.863 -1.46584 1.01859 0
M  V30 9209 C 895.963 -2.7258 2.01378 0
M  V30 9210 C 895.136 -2.84618 3.32131 0
M  V30 9211 C 894.195 -4.03379 3.37893 0
M  V30 9212 O 893.221 -3.93581 4.11197 0
M  V30 9213 N 894.423 -5.15893 2.66148 0
M  V30 9214 H 897.188 -1.09078 2.79145 0
M  V30 9215 H 894.749 -0.451327 1.55482 0
M  V30 9216 H 896.741 -3.50342 2.0259 0
M  V30 9217 H 895.311 -2.90844 1.14579 0
M  V30 9218 H 894.531 -1.93647 3.43358 0
M  V30 9219 H 895.819 -2.896 4.18341 0
M  V30 9220 H 895.217 -5.26743 2.06297 0
M  V30 9221 H 893.774 -5.91842 2.73069 0
M  V30 9222 N 897.207 -1.48554 -0.526253 0
M  V30 9223 C 898.17 -1.62868 -1.61266 0
M  V30 9224 C 899.17 -0.501762 -1.52771 0
M  V30 9225 O 900.36 -0.76764 -1.56374 0
M  V30 9226 C 897.492 -1.60238 -3.00893 0
M  V30 9227 H 898.685 -2.59742 -1.49913 0
M  V30 9228 H 896.238 -1.37207 -0.748595 0
M  V30 9229 H 896.973 -0.648545 -3.17749 0
M  V30 9230 H 896.758 -2.42054 -3.08468 0
M  V30 9231 H 898.248 -1.73455 -3.79872 0
M  V30 9232 N 898.685 0.775411 -1.37205 0
M  V30 9233 C 899.91 1.5696 -1.35567 0
M  V30 9234 C 900.335 1.88012 0.0575554 0
M  V30 9235 O 899.693 1.48954 1.03355 0
M  V30 9236 C 899.741 2.85886 -2.19776 0
M  V30 9237 O 898.845 3.80103 -1.59987 0
M  V30 9238 H 898.186 0.475583 -0.463375 0
M  V30 9239 H 900.716 0.96001 -1.80679 0
M  V30 9240 H 900.726 3.35024 -2.32859 0
M  V30 9241 H 899.401 2.62613 -3.22502 0
M  V30 9242 H 897.978 3.38736 -1.55924 0
M  V30 9243 N 900.163 1.21714 1.00117 0
M  V30 9244 C 901.409 1.03823 1.74208 0
M  V30 9245 C 901.742 -0.426733 1.89454 0
M  V30 9246 O 901.017 -1.31658 1.43166 0
M  V30 9247 C 901.3 1.74047 3.15246 0
M  V30 9248 C 901.153 3.28087 3.077 0
M  V30 9249 C 902.472 1.48614 4.14249 0
M  V30 9250 H 899.591 0.378573 0.632338 0
M  V30 9251 H 902.233 1.49942 1.16694 0
M  V30 9252 H 900.383 1.3484 3.64349 0
M  V30 9253 H 902.055 3.76686 2.6628 0
M  V30 9254 H 900.298 3.58191 2.44707 0
M  V30 9255 H 900.969 3.72392 4.07466 0
M  V30 9256 H 903.445 1.82656 3.73866 0
M  V30 9257 H 902.321 2.00257 5.11066 0
M  V30 9258 H 902.582 0.416957 4.40129 0
M  V30 9259 N 901.641 -1.19671 1.02551 0
M  V30 9260 C 903.057 -1.41305 0.741963 0
M  V30 9261 C 903.257 -1.89865 -0.674807 0
M  V30 9262 O 902.313 -2.07323 -1.44129 0
M  V30 9263 C 903.626 -2.42706 1.77522 0
M  V30 9264 C 905.174 -2.56458 1.79438 0
M  V30 9265 C 905.649 -3.61111 2.81715 0
M  V30 9266 N 907.14 -3.68603 2.8051 0
M  V30 9267 C 907.875 -4.49262 3.56302 0
M  V30 9268 N 907.371 -5.33653 4.41799 0
M  V30 9269 N 909.164 -4.43879 3.44859 0
M  V30 9270 H 901.315 -0.8647 1.94002 0
M  V30 9271 H 903.578 -0.442206 0.838545 0
M  V30 9272 H 903.284 -2.14042 2.79068 0
M  V30 9273 H 903.158 -3.41831 1.59472 0
M  V30 9274 H 905.545 -2.84447 0.78573 0
M  V30 9275 H 905.626 -1.57499 2.01563 0
M  V30 9276 H 905.27 -3.33864 3.82749 0
M  V30 9277 H 905.2 -4.59713 2.56849 0
M  V30 9278 H 907.691 -3.08329 2.18498 0
M  V30 9279 H 908.004 -5.92308 4.96378 0
M  V30 9280 H 906.349 -5.33125 4.45873 0
M  V30 9281 H 909.54 -3.7699 2.77482 0
M  V30 9282 H 909.713 -5.06501 4.04179 0
M  V30 9283 N 903.119 -0.802921 -1.35613 0
M  V30 9284 C 904.368 -0.378087 -1.98125 0
M  V30 9285 C 904.681 1.05953 -1.64418 0
M  V30 9286 O 905.887 1.58729 -2.20266 0
M  V30 9287 C 904.343 -0.625077 -3.5443 0
M  V30 9288 C 903.951 -2.07499 -3.97049 0
M  V30 9289 C 905.695 -0.265419 -4.23669 0
M  V30 9290 C 903.602 -2.26793 -5.46186 0
M  V30 9291 H 902.532 -0.137633 -0.741332 0
M  V30 9292 H 905.183 -0.986461 -1.54729 0
M  V30 9293 H 903.565 0.0531975 -3.95964 0
M  V30 9294 H 904.739 -2.79077 -3.66678 0
M  V30 9295 H 903.054 -2.39417 -3.40688 0
M  V30 9296 H 905.651 -0.387669 -5.33293 0
M  V30 9297 H 905.994 0.787994 -4.08774 0
M  V30 9298 H 906.527 -0.897464 -3.87544 0
M  V30 9299 H 903.266 -3.30566 -5.66045 0
M  V30 9300 H 902.786 -1.59735 -5.78139 0
M  V30 9301 H 904.465 -2.08165 -6.12598 0
M  V30 9302 N 904.597 1.47463 -0.556102 0
M  V30 9303 C 905.527 2.32801 0.180497 0
M  V30 9304 C 906.508 1.43721 0.909848 0
M  V30 9305 O 907.693 1.72578 0.89053 0
M  V30 9306 C 904.823 3.25478 1.21167 0
M  V30 9307 C 903.777 4.2379 0.598846 0
M  V30 9308 C 903.103 5.05783 1.73457 0
M  V30 9309 C 904.403 5.20387 -0.446659 0
M  V30 9310 H 906.097 2.94636 -0.531956 0
M  V30 9311 H 903.643 1.41683 -0.257267 0
M  V30 9312 H 905.596 3.8402 1.73513 0
M  V30 9313 H 904.32 2.61695 1.95405 0
M  V30 9314 H 902.979 3.66472 0.0966897 0
M  V30 9315 H 902.627 4.38405 2.46596 0
M  V30 9316 H 902.327 5.72343 1.33031 0
M  V30 9317 H 903.851 5.67183 2.26131 0
M  V30 9318 H 905.265 5.73299 -0.00930019 0
M  V30 9319 H 903.662 5.95143 -0.769735 0
M  V30 9320 H 904.732 4.65932 -1.34295 0
M  V30 9321 N 906.075 0.2925 1.54862 0
M  V30 9322 C 907.352 -0.371946 1.92031 0
M  V30 9323 C 907.732 -1.72363 1.21878 0
M  V30 9324 O 907.08 -2.25779 0.351573 0
M  V30 9325 C 907.29 -0.495027 3.45471 0
M  V30 9326 C 908.638 -0.769855 4.17562 0
M  V30 9327 O 909.662 -0.579168 3.5146 0
M  V30 9328 O 908.521 -1.13561 5.34571 0
M  V30 9329 H 905.615 -0.206463 0.800813 0
M  V30 9330 H 908.161 0.339933 1.6626 0
M  V30 9331 H 906.933 0.455528 3.88639 0
M  V30 9332 H 906.556 -1.2557 3.7725 0
M  V30 9333 N 907.553 -1.57587 0.0200696 0
M  V30 9334 C 908.969 -1.56018 -0.336237 0
M  V30 9335 C 909.169 -1.02478 -1.73495 0
M  V30 9336 O 908.225 -0.667487 -2.43518 0
M  V30 9337 C 909.538 -3.00079 -0.193112 0
M  V30 9338 C 911.086 -3.11863 -0.266557 0
M  V30 9339 C 911.561 -4.57747 -0.152326 0
M  V30 9340 N 913.052 -4.62726 -0.209596 0
M  V30 9341 C 913.787 -5.73217 -0.144855 0
M  V30 9342 N 913.283 -6.92794 -0.0295487 0
M  V30 9343 N 915.076 -5.61751 -0.198184 0
M  V30 9344 H 907.227 -1.90722 0.93482 0
M  V30 9345 H 909.49 -0.876909 0.360186 0
M  V30 9346 H 909.196 -3.43167 0.770036 0
M  V30 9347 H 909.07 -3.64593 -0.967029 0
M  V30 9348 H 911.457 -2.68693 -1.22016 0
M  V30 9349 H 911.538 -2.50087 0.53758 0
M  V30 9350 H 911.182 -5.01595 0.797817 0
M  V30 9351 H 911.112 -5.17491 -0.97521 0
M  V30 9352 H 913.603 -3.76713 -0.299229 0
M  V30 9353 H 913.916 -7.72799 0.0134071 0
M  V30 9354 H 912.261 -6.95 0.00510737 0
M  V30 9355 H 915.452 -4.67222 -0.286603 0
M  V30 9356 H 915.625 -6.47839 -0.144266 0
M  V30 9357 N 909.032 0.252966 -1.55557 0
M  V30 9358 C 910.278 0.979092 -1.78284 0
M  V30 9359 C 910.633 1.83194 -0.588009 0
M  V30 9360 O 909.926 1.86965 0.418899 0
M  V30 9361 C 910.12 1.87785 -3.04091 0
M  V30 9362 C 909.949 1.11349 -4.35697 0
M  V30 9363 C 908.719 0.821038 -4.98585 0
M  V30 9364 C 910.917 0.494039 -5.11922 0
M  V30 9365 N 908.899 0.0319767 -6.13892 0
M  V30 9366 C 910.27 -0.159888 -6.19794 0
M  V30 9367 C 912.325 0.403894 -4.96259 0
M  V30 9368 C 911.028 -0.895295 -7.13706 0
M  V30 9369 C 913.054 -0.317968 -5.90545 0
M  V30 9370 C 912.416 -0.960555 -6.9782 0
M  V30 9371 H 908.515 0.339586 -0.704419 0
M  V30 9372 H 911.099 0.252801 -1.93052 0
M  V30 9373 H 909.27 2.57623 -2.90663 0
M  V30 9374 H 911.002 2.53908 -3.15139 0
M  V30 9375 H 907.757 1.13132 -4.59889 0
M  V30 9376 H 908.181 -0.35047 -6.76092 0
M  V30 9377 H 912.823 0.886366 -4.13405 0
M  V30 9378 H 910.541 -1.38939 -7.96066 0
M  V30 9379 H 914.127 -0.388302 -5.80503 0
M  V30 9380 H 913.007 -1.51022 -7.69521 0
M  V30 9381 N 910.51 1.48831 0.518367 0
M  V30 9382 C 911.735 1.61379 1.30275 0
M  V30 9383 C 912.16 0.278571 1.86026 0
M  V30 9384 O 911.518 -0.751427 1.64995 0
M  V30 9385 C 911.566 2.67225 2.42122 0
M  V30 9386 O 910.67 2.25192 3.45489 0
M  V30 9387 H 910.011 0.540742 0.385349 0
M  V30 9388 H 912.541 1.949 0.622498 0
M  V30 9389 H 912.551 2.88859 2.8814 0
M  V30 9390 H 911.226 3.64155 2.00907 0
M  V30 9391 H 909.803 2.13819 3.05509 0
M  V30 9392 N 911.988 -0.768124 1.37614 0
M  V30 9393 C 913.234 -1.52907 1.33219 0
M  V30 9394 C 913.567 -1.94026 -0.0821218 0
M  V30 9395 O 912.842 -1.64345 -1.04023 0
M  V30 9396 C 913.125 -2.79164 2.27463 0
M  V30 9397 C 912.978 -2.44276 3.7769 0
M  V30 9398 C 914.297 -3.81115 2.20089 0
M  V30 9399 H 911.416 -0.554712 0.485246 0
M  V30 9400 H 914.058 -0.880911 1.68345 0
M  V30 9401 H 912.208 -3.34472 1.97639 0
M  V30 9402 H 913.88 -1.94855 4.18126 0
M  V30 9403 H 912.123 -1.76925 3.96081 0
M  V30 9404 H 912.794 -3.34544 4.39072 0
M  V30 9405 H 915.27 -3.35311 2.46386 0
M  V30 9406 H 914.146 -4.67174 2.88166 0
M  V30 9407 H 914.407 -4.25644 1.19498 0
M  V30 9408 N 913.466 -1.22244 -0.994698 0
M  V30 9409 C 914.399 -0.934168 -2.08203 0
M  V30 9410 C 915.377 0.122231 -1.6214 0
M  V30 9411 O 916.561 -0.00896598 -1.88498 0
M  V30 9412 C 913.688 -0.404646 -3.36274 0
M  V30 9413 C 912.734 -1.44544 -4.01259 0
M  V30 9414 S 913.567 -3.01816 -4.42343 0
M  V30 9415 C 914.723 -2.50497 -5.73587 0
M  V30 9416 H 914.956 -1.85493 -2.32335 0
M  V30 9417 H 912.489 -1.0533 -1.12893 0
M  V30 9418 H 914.447 -0.105719 -4.10364 0
M  V30 9419 H 913.108 0.494971 -3.10176 0
M  V30 9420 H 912.301 -1.02478 -4.93472 0
M  V30 9421 H 911.903 -1.69298 -3.33488 0
M  V30 9422 H 914.195 -1.91626 -6.49835 0
M  V30 9423 H 915.138 -3.41193 -6.20478 0
M  V30 9424 H 915.546 -1.91845 -5.30901 0
M  V30 9425 N 914.944 1.19125 -1.03184 0
M  V30 9426 C 916.193 1.8821 -0.725264 0
M  V30 9427 C 916.506 1.80674 0.749411 0
M  V30 9428 O 917.712 2.45037 1.16915 0
M  V30 9429 C 916.168 3.37607 -1.24697 0
M  V30 9430 C 915.776 3.53693 -2.74964 0
M  V30 9431 C 917.52 4.12149 -1.01652 0
M  V30 9432 C 915.427 4.97001 -3.20538 0
M  V30 9433 H 914.357 0.704916 -0.267599 0
M  V30 9434 H 917.008 1.34663 -1.24652 0
M  V30 9435 H 915.39 3.90569 -0.653614 0
M  V30 9436 H 916.564 3.11046 -3.39981 0
M  V30 9437 H 914.879 2.92544 -2.96322 0
M  V30 9438 H 917.476 5.17837 -1.33226 0
M  V30 9439 H 917.819 4.16274 0.0465712 0
M  V30 9440 H 918.352 3.65334 -1.57403 0
M  V30 9441 H 915.091 4.9804 -4.26189 0
M  V30 9442 H 914.611 5.40398 -2.60251 0
M  V30 9443 H 916.29 5.65669 -3.14049 0
M  V30 9444 N 916.422 0.810101 1.35185 0
M  V30 9445 C 917.838 0.494269 1.51754 0
M  V30 9446 C 918.038 -0.983907 1.75845 0
M  V30 9447 O 917.094 -1.76882 1.80191 0
M  V30 9448 C 918.407 1.34268 2.69059 0
M  V30 9449 C 919.955 1.33848 2.82938 0
M  V30 9450 C 920.43 2.17109 4.03271 0
M  V30 9451 N 921.921 2.14664 4.10456 0
M  V30 9452 C 922.656 2.75843 5.02691 0
M  V30 9453 N 922.152 3.45962 6.00235 0
M  V30 9454 N 923.945 2.65465 4.95464 0
M  V30 9455 H 916.096 1.76736 1.17805 0
M  V30 9456 H 918.359 0.752429 0.576676 0
M  V30 9457 H 918.065 2.39183 2.57845 0
M  V30 9458 H 917.939 0.998362 3.63748 0
M  V30 9459 H 920.326 0.29716 2.936 0
M  V30 9460 H 920.407 1.72269 1.89095 0
M  V30 9461 H 920.051 3.21283 3.93369 0
M  V30 9462 H 919.981 1.76046 4.96302 0
M  V30 9463 H 922.472 1.63648 3.40628 0
M  V30 9464 H 922.785 3.89922 6.67219 0
M  V30 9465 H 921.13 3.50067 6.00398 0
M  V30 9466 H 924.321 2.1027 4.18215 0
M  V30 9467 H 924.494 3.13433 5.67154 0
M  V30 9468 N 917.9 -1.47166 0.563914 0
M  V30 9469 C 918.81 -2.33885 -0.182977 0
M  V30 9470 C 919.826 -1.48605 -0.905132 0
M  V30 9471 O 921.002 -1.81518 -0.872527 0
M  V30 9472 C 918.067 -3.25433 -1.19558 0
M  V30 9473 C 917.128 -4.26607 -0.480129 0
M  V30 9474 C 916.361 -5.1378 -1.44449 0
M  V30 9475 O 916.584 -5.03531 -2.67979 0
M  V30 9476 O 915.518 -5.94109 -0.965321 0
M  V30 9477 H 919.344 -2.99065 0.528544 0
M  V30 9478 H 916.929 -1.45834 0.324468 0
M  V30 9479 H 918.811 -3.81964 -1.77993 0
M  V30 9480 H 917.486 -2.62873 -1.8889 0
M  V30 9481 H 916.393 -3.73817 0.145583 0
M  V30 9482 H 917.726 -4.919 0.171868 0
M  V30 9483 N 919.378 -0.300708 -1.54705 0
M  V30 9484 C 920.606 0.31127 -2.04545 0
M  V30 9485 C 921.021 1.47542 -1.178 0
M  V30 9486 O 920.378 1.81361 -0.203571 0
M  V30 9487 C 920.429 0.767783 -3.53253 0
M  V30 9488 O 920.15 -0.350027 -4.36699 0
M  V30 9489 C 921.651 1.44494 -4.1909 0
M  V30 9490 H 918.871 0.067668 -0.667579 0
M  V30 9491 H 921.415 -0.440254 -1.99705 0
M  V30 9492 H 919.57 1.46933 -3.58454 0
M  V30 9493 H 919.984 0.00534038 -5.245 0
M  V30 9494 H 921.458 1.71553 -5.24665 0
M  V30 9495 H 921.935 2.3849 -3.68808 0
M  V30 9496 H 922.541 0.786581 -4.17963 0
M  V30 9497 N 920.856 1.57574 -0.0284266 0
M  V30 9498 C 922.267 1.79585 0.510502 0
M  V30 9499 C 922.618 0.938625 1.72291 0
M  V30 9500 O 921.743 0.14884 2.15888 0
M  V30 9501 C 922.338 3.25703 0.932912 0
M  V30 9502 C 920.897 3.48711 1.41696 0
M  V30 9503 C 920.044 2.74665 0.381356 0
M  V30 9504 H 922.995 1.56647 -0.254464 0
M  V30 9505 H 923.016 3.35376 1.79731 0
M  V30 9506 H 922.528 3.88067 0.0503036 0
M  V30 9507 H 920.629 2.91597 2.31952 0
M  V30 9508 H 920.742 4.57423 1.42481 0
M  V30 9509 H 919.106 2.40123 0.8493 0
M  V30 9510 H 919.889 3.39745 -0.492775 0
M  V30 9511 N 922.334 -0.244713 1.55689 0
M  V30 9512 C 923.75 -0.593331 1.48161 0
M  V30 9513 C 923.95 -1.88234 0.719047 0
M  V30 9514 O 923.006 -2.51266 0.249292 0
M  V30 9515 C 924.319 -0.694032 2.92581 0
M  V30 9516 C 925.867 -0.786213 3.02965 0
M  V30 9517 C 926.342 -0.918457 4.48696 0
M  V30 9518 N 927.833 -0.983272 4.52643 0
M  V30 9519 C 928.568 -1.1049 5.62654 0
M  V30 9520 N 928.064 -1.19193 6.8247 0
M  V30 9521 N 929.857 -1.13823 5.50455 0
M  V30 9522 H 922.008 0.601446 2.03707 0
M  V30 9523 H 924.271 0.207894 0.924924 0
M  V30 9524 H 923.977 0.183133 3.51223 0
M  V30 9525 H 923.851 -1.56525 3.4319 0
M  V30 9526 H 926.238 -1.65383 2.44402 0
M  V30 9527 H 926.319 0.110202 2.55563 0
M  V30 9528 H 925.963 -0.0553881 5.0787 0
M  V30 9529 H 925.893 -1.82994 4.93782 0
M  V30 9530 H 928.384 -0.927269 3.66347 0
M  V30 9531 H 928.697 -1.28387 7.62061 0
M  V30 9532 H 927.042 -1.16147 6.85226 0
M  V30 9533 H 930.233 -1.06673 4.55783 0
M  V30 9534 H 930.406 -1.22957 6.36228 0
M  V30 9535 N 923.813 -1.49104 -0.510467 0
M  V30 9536 C 924.745 -1.61183 -1.6295 0
M  V30 9537 C 925.758 -0.495003 -1.55092 0
M  V30 9538 O 926.947 -0.766671 -1.61197 0
M  V30 9539 C 924.047 -1.54373 -3.01699 0
M  V30 9540 C 923.22 -2.81428 -3.34838 0
M  V30 9541 C 922.279 -2.67802 -4.52956 0
M  V30 9542 O 921.305 -3.41723 -4.55208 0
M  V30 9543 N 922.507 -1.78715 -5.52305 0
M  V30 9544 H 925.272 -2.57693 -1.53018 0
M  V30 9545 H 922.833 -1.46073 -0.698152 0
M  V30 9546 H 924.825 -1.42924 -3.78622 0
M  V30 9547 H 923.395 -0.657597 -3.05605 0
M  V30 9548 H 922.615 -3.07299 -2.46903 0
M  V30 9549 H 923.903 -3.6568 -3.53773 0
M  V30 9550 H 923.301 -1.17897 -5.53278 0
M  V30 9551 H 921.858 -1.73194 -6.28369 0
M  V30 9552 N 925.291 0.760815 -1.38019 0
M  V30 9553 C 926.519 1.55001 -1.37048 0
M  V30 9554 C 926.934 1.88754 0.0415261 0
M  V30 9555 O 926.291 1.52254 1.00624 0
M  V30 9556 C 926.342 2.8536 -2.21928 0
M  V30 9557 O 926.063 2.53049 -3.57628 0
M  V30 9558 C 927.564 3.79536 -2.29057 0
M  V30 9559 H 924.784 0.479844 -0.469032 0
M  V30 9560 H 927.328 0.942148 -1.81504 0
M  V30 9561 H 925.483 3.42542 -1.80953 0
M  V30 9562 H 925.897 3.36604 -4.02241 0
M  V30 9563 H 927.371 4.67977 -2.92749 0
M  V30 9564 H 927.848 4.19453 -1.30213 0
M  V30 9565 H 928.454 3.28281 -2.70392 0
M  V30 9566 N 926.769 1.22769 0.988202 0
M  V30 9567 C 928.18 1.0512 1.54294 0
M  V30 9568 C 928.531 -0.383904 1.92407 0
M  V30 9569 O 927.656 -1.26955 1.75246 0
M  V30 9570 C 928.251 1.90198 2.80375 0
M  V30 9571 C 926.81 1.76831 3.32276 0
M  V30 9572 C 925.957 1.86377 2.05326 0
M  V30 9573 H 928.908 1.36546 0.808758 0
M  V30 9574 H 928.929 1.42216 3.52923 0
M  V30 9575 H 928.441 2.9464 2.52605 0
M  V30 9576 H 926.542 0.751412 3.64945 0
M  V30 9577 H 926.655 2.59771 4.02562 0
M  V30 9578 H 925.019 1.2987 2.19103 0
M  V30 9579 H 925.802 2.9236 1.79946 0
M  V30 9580 N 928.247 -1.18576 1.03814 0
M  V30 9581 C 929.177 -2.24334 0.647795 0
M  V30 9582 C 930.158 -1.66508 -0.34774 0
M  V30 9583 O 931.343 -1.92852 -0.228401 0
M  V30 9584 C 928.473 -3.47299 0.00734922 0
M  V30 9585 C 927.427 -4.17859 0.926152 0
M  V30 9586 C 926.753 -5.34489 0.150317 0
M  V30 9587 C 928.053 -4.71632 2.24411 0
M  V30 9588 H 929.747 -2.57241 1.53191 0
M  V30 9589 H 927.293 -1.23649 0.738028 0
M  V30 9590 H 929.246 -4.20486 -0.277434 0
M  V30 9591 H 927.97 -3.13619 -0.911626 0
M  V30 9592 H 926.629 -3.46567 1.19528 0
M  V30 9593 H 926.277 -4.97056 -0.770985 0
M  V30 9594 H 925.977 -5.82633 0.762407 0
M  V30 9595 H 927.501 -6.10467 -0.127508 0
M  V30 9596 H 928.915 -5.36526 2.02021 0
M  V30 9597 H 927.312 -5.303 2.80894 0
M  V30 9598 H 928.382 -3.89192 2.89236 0
M  V30 9599 N 929.725 -0.817259 -1.34754 0
M  V30 9600 C 930.655 -0.249769 -2.3216 0
M  V30 9601 C 931.636 0.630663 -1.57977 0
M  V30 9602 O 932.821 0.558719 -1.85989 0
M  V30 9603 C 929.951 0.593825 -3.42186 0
M  V30 9604 C 928.905 -0.188997 -4.27583 0
M  V30 9605 C 928.231 0.776979 -5.29025 0
M  V30 9606 C 929.531 -1.39401 -5.03354 0
M  V30 9607 H 931.225 -1.06359 -2.79872 0
M  V30 9608 H 928.771 -0.512894 -1.34556 0
M  V30 9609 H 930.724 1.00097 -4.09339 0
M  V30 9610 H 929.448 1.44064 -2.93109 0
M  V30 9611 H 928.107 -0.577445 -3.62024 0
M  V30 9612 H 927.755 1.61959 -4.76212 0
M  V30 9613 H 927.455 0.257448 -5.87036 0
M  V30 9614 H 928.979 1.18211 -5.99048 0
M  V30 9615 H 930.393 -1.06117 -5.63393 0
M  V30 9616 H 928.79 -1.84878 -5.70912 0
M  V30 9617 H 929.86 -2.17515 -4.33377 0
M  V30 9618 N 931.203 1.46865 -0.571711 0
M  V30 9619 C 932.15 2.30189 0.167808 0
M  V30 9620 C 933.12 1.3995 0.89461 0
M  V30 9621 O 934.305 1.68905 0.887451 0
M  V30 9622 C 931.445 3.24205 1.1826 0
M  V30 9623 C 930.558 4.2954 0.460376 0
M  V30 9624 C 929.693 5.10693 1.46173 0
M  V30 9625 C 928.732 6.07788 0.725291 0
M  V30 9626 N 927.869 6.81847 1.67417 0
M  V30 9627 H 932.709 2.92902 -0.548831 0
M  V30 9628 H 930.246 1.44362 -0.282474 0
M  V30 9629 H 932.204 3.77147 1.7837 0
M  V30 9630 H 930.834 2.63324 1.86709 0
M  V30 9631 H 929.886 3.79541 -0.255546 0
M  V30 9632 H 931.198 4.98665 -0.115855 0
M  V30 9633 H 930.352 5.67857 2.13595 0
M  V30 9634 H 929.091 4.41502 2.07188 0
M  V30 9635 H 928.096 5.49787 0.037228 0
M  V30 9636 H 929.321 6.78993 0.120678 0
M  V30 9637 H 927.267 6.15376 2.27263 0
M  V30 9638 H 927.184 7.47195 1.15046 0
M  V30 9639 H 928.452 7.43577 2.33908 0
M  V30 9640 N 932.681 0.308908 1.54543 0
M  V30 9641 C 933.929 -0.297447 1.99899 0
M  V30 9642 C 934.25 -1.53799 1.19878 0
M  V30 9643 O 933.52 -1.93639 0.29678 0
M  V30 9644 H 932.1 -0.112897 0.738419 0
M  V30 9645 H 934.762 0.422067 1.90275 0
M  V30 9646 H 933.858 -0.564016 3.06961 0
M  V30 9647 N 934.159 -1.57557 0.0367827 0
M  V30 9648 C 935.091 -2.07597 -0.971395 0
M  V30 9649 C 936.104 -1.0009 -1.28397 0
M  V30 9650 O 937.293 -1.27692 -1.24728 0
M  V30 9651 C 934.393 -2.492 -2.2968 0
M  V30 9652 C 933.566 -3.79875 -2.16826 0
M  V30 9653 C 932.625 -4.07946 -3.32366 0
M  V30 9654 O 931.651 -4.78083 -3.0891 0
M  V30 9655 N 932.853 -3.58722 -4.56397 0
M  V30 9656 H 935.618 -2.94714 -0.544389 0
M  V30 9657 H 933.179 -1.61205 -0.1498 0
M  V30 9658 H 935.171 -2.65065 -3.05815 0
M  V30 9659 H 933.741 -1.67407 -2.63995 0
M  V30 9660 H 932.961 -3.73732 -1.2537 0
M  V30 9661 H 934.249 -4.65476 -2.0545 0
M  V30 9662 H 933.647 -3.01994 -4.78347 0
M  V30 9663 H 932.204 -3.79852 -5.29675 0
M  V30 9664 N 935.637 0.236453 -1.55816 0
M  V30 9665 C 936.883 0.964439 -1.784 0
M  V30 9666 C 937.216 1.84573 -0.603868 0
M  V30 9667 O 936.491 1.90395 0.397473 0
M  V30 9668 C 936.774 1.81608 -3.10951 0
M  V30 9669 C 936.627 0.962283 -4.39386 0
M  V30 9670 C 937.946 2.79665 -3.39817 0
M  V30 9671 H 935.065 0.349192 -0.649026 0
M  V30 9672 H 937.707 0.234247 -1.8855 0
M  V30 9673 H 935.857 2.43864 -3.02428 0
M  V30 9674 H 937.529 0.35762 -4.59912 0
M  V30 9675 H 935.772 0.267062 -4.32977 0
M  V30 9676 H 936.443 1.59222 -5.28538 0
M  V30 9677 H 938.919 2.27546 -3.4837 0
M  V30 9678 H 937.795 3.36367 -4.33761 0
M  V30 9679 H 938.056 3.56657 -2.61244 0
M  V30 9680 N 937.115 1.49373 0.502552 0
M  V30 9681 C 938.025 1.68659 1.63068 0
M  V30 9682 C 939.041 0.569182 1.64427 0
M  V30 9683 O 940.217 0.843695 1.82876 0
M  V30 9684 C 937.282 1.74745 2.99441 0
M  V30 9685 C 936.343 2.98311 3.08721 0
M  V30 9686 C 935.576 3.04097 4.38589 0
M  V30 9687 O 935.799 2.17519 5.27297 0
M  V30 9688 O 934.733 3.96544 4.52809 0
M  V30 9689 H 938.559 2.64226 1.49727 0
M  V30 9690 H 936.144 1.33096 0.67867 0
M  V30 9691 H 938.026 1.8111 3.80496 0
M  V30 9692 H 936.701 0.823565 3.13048 0
M  V30 9693 H 935.608 2.97465 2.2686 0
M  V30 9694 H 936.941 3.90174 3.00041 0
M  V30 9695 N 938.594 -0.753485 1.38421 0
M  V30 9696 C 939.527 -1.87525 1.30037 0
M  V30 9697 C 940.505 -1.6163 0.177379 0
M  V30 9698 O 941.689 -1.85132 0.354716 0
M  V30 9699 C 938.816 -3.23138 1.01485 0
M  V30 9700 C 937.862 -3.67921 2.15723 0
M  V30 9701 S 938.695 -3.79447 3.77863 0
M  V30 9702 C 939.851 -5.17879 3.51499 0
M  V30 9703 H 940.084 -1.94351 2.24978 0
M  V30 9704 H 937.617 -0.916475 1.24258 0
M  V30 9705 H 939.575 -4.01455 0.856959 0
M  V30 9706 H 938.236 -3.13991 0.0826199 0
M  V30 9707 H 937.429 -4.66287 1.91292 0
M  V30 9708 H 937.031 -2.96758 2.2762 0
M  V30 9709 H 939.323 -6.03636 3.0762 0
M  V30 9710 H 940.266 -5.47331 4.49259 0
M  V30 9711 H 940.674 -4.86681 2.8601 0
M  V30 9712 N 940.072 -1.23292 -0.981677 0
M  V30 9713 C 941.349 -0.972514 -1.6971 0
M  V30 9714 C 941.729 0.509244 -2.04866 0
M  V30 9715 O 941.077 1.48013 -1.74082 0
M  V30 9716 C 941.287 -1.88144 -2.93943 0
M  V30 9717 C 942.635 -2.14416 -3.66485 0
M  V30 9718 O 943.659 -1.85684 -3.03974 0
M  V30 9719 O 942.518 -2.63139 -4.78978 0
M  V30 9720 H 939.612 -0.366673 -0.741269 0
M  V30 9721 H 942.158 -1.34328 -1.03701 0
M  V30 9722 H 940.93 -2.8832 -2.64551 0
M  V30 9723 H 940.553 -1.51296 -3.67689 0
M  V30 9724 N 941.55 1.18024 -1.04442 0
M  V30 9725 C 942.796 1.88377 -0.751133 0
M  V30 9726 C 943.129 1.80377 0.719571 0
M  V30 9727 O 942.404 1.20662 1.52548 0
M  V30 9728 C 942.687 3.38708 -1.22265 0
M  V30 9729 C 942.54 3.55499 -2.75574 0
M  V30 9730 C 943.859 4.32475 -0.815688 0
M  V30 9731 H 940.978 0.684037 -0.27434 0
M  V30 9732 H 943.62 1.38837 -1.29709 0
M  V30 9733 H 941.77 3.8103 -0.758192 0
M  V30 9734 H 943.442 3.22244 -3.30086 0
M  V30 9735 H 941.685 2.98028 -3.15217 0
M  V30 9736 H 942.356 4.60994 -3.03625 0
M  V30 9737 H 944.832 3.97953 -1.21542 0
M  V30 9738 H 943.708 5.36213 -1.17331 0
M  V30 9739 H 943.969 4.41207 0.280901 0
M  V30 9740 N 943.028 0.824394 1.34319 0
M  V30 9741 C 944.439 0.471802 1.8064 0
M  V30 9742 C 944.79 -1.00793 1.6833 0
M  V30 9743 O 943.915 -1.78447 1.22416 0
M  V30 9744 C 944.51 0.849609 3.27974 0
M  V30 9745 C 943.069 0.549365 3.72369 0
M  V30 9746 C 942.216 1.06573 2.56003 0
M  V30 9747 H 945.167 1.01443 1.22045 0
M  V30 9748 H 945.188 0.153968 3.80188 0
M  V30 9749 H 944.7 1.92663 3.36902 0
M  V30 9750 H 942.801 -0.518182 3.68979 0
M  V30 9751 H 942.914 1.09446 4.66432 0
M  V30 9752 H 941.278 0.487214 2.49997 0
M  V30 9753 H 942.061 2.14923 2.677 0
M  V30 9754 N 944.506 -1.46559 0.579492 0
M  V30 9755 C 945.922 -1.57771 0.240921 0
M  V30 9756 C 946.122 -1.57505 -1.25676 0
M  V30 9757 O 945.178 -1.4903 -2.03829 0
M  V30 9758 C 946.491 -2.87311 0.887285 0
M  V30 9759 C 948.039 -3.00937 0.860576 0
M  V30 9760 C 948.514 -4.33208 1.48642 0
M  V30 9761 N 950.005 -4.39899 1.45062 0
M  V30 9762 C 950.74 -5.40856 1.90428 0
M  V30 9763 N 950.236 -6.48503 2.43752 0
M  V30 9764 N 952.029 -5.32037 1.81364 0
M  V30 9765 H 944.18 -1.44976 1.55228 0
M  V30 9766 H 946.443 -0.691354 0.648639 0
M  V30 9767 H 946.149 -2.93307 1.94071 0
M  V30 9768 H 946.023 -3.75141 0.393577 0
M  V30 9769 H 948.41 -2.94524 -0.184223 0
M  V30 9770 H 948.491 -2.14591 1.39227 0
M  V30 9771 H 948.135 -4.40378 2.5304 0
M  V30 9772 H 948.065 -5.18323 0.92998 0
M  V30 9773 H 950.556 -3.62706 1.0608 0
M  V30 9774 H 950.869 -7.21744 2.76234 0
M  V30 9775 H 949.214 -6.49332 2.47776 0
M  V30 9776 H 952.405 -4.46841 1.39465 0
M  V30 9777 H 952.578 -6.10573 2.17035 0
M  V30 9778 N 945.984 -0.3171 -1.54377 0
M  V30 9779 C 947.231 0.28741 -2.0045 0
M  V30 9780 C 947.559 1.52648 -1.20535 0
M  V30 9781 O 946.814 1.93775 -0.273831 0
M  V30 9782 C 947.113 0.672917 -3.51008 0
M  V30 9783 C 946.779 -0.466245 -4.48483 0
M  V30 9784 C 945.441 -0.778933 -4.74854 0
M  V30 9785 C 947.793 -1.23176 -5.06436 0
M  V30 9786 C 945.121 -1.85997 -5.56437 0
M  V30 9787 C 947.473 -2.30284 -5.89196 0
M  V30 9788 C 946.137 -2.62141 -6.13872 0
M  V30 9789 H 945.407 0.105171 -0.733499 0
M  V30 9790 H 948.054 -0.439538 -1.86388 0
M  V30 9791 H 946.359 1.48019 -3.62764 0
M  V30 9792 H 948.056 1.15209 -3.84094 0
M  V30 9793 H 944.646 -0.212449 -4.28073 0
M  V30 9794 H 948.83 -1.00344 -4.8605 0
M  V30 9795 H 944.086 -2.11134 -5.73788 0
M  V30 9796 H 948.26 -2.90048 -6.33123 0
M  V30 9797 H 945.887 -3.46037 -6.76877 0
M  V30 9798 N 947.462 1.57535 -0.0451378 0
M  V30 9799 C 948.372 2.14653 0.946646 0
M  V30 9800 C 949.388 1.10279 1.3459 0
M  V30 9801 O 950.564 1.42417 1.42405 0
M  V30 9802 C 947.629 2.67533 2.20515 0
M  V30 9803 C 946.69 3.86682 1.86481 0
M  V30 9804 C 945.923 4.37031 3.06332 0
M  V30 9805 O 946.146 3.86481 4.1951 0
M  V30 9806 O 945.08 5.28691 2.87697 0
M  V30 9807 H 948.906 2.99706 0.49091 0
M  V30 9808 H 946.491 1.48355 0.17641 0
M  V30 9809 H 948.373 3.01542 2.94365 0
M  V30 9810 H 947.048 1.85554 2.65238 0
M  V30 9811 H 945.955 3.57573 1.09966 0
M  V30 9812 H 947.288 4.69873 1.46562 0
M  V30 9813 N 948.94 -0.228186 1.55939 0
M  V30 9814 C 949.903 -1.26621 1.91049 0
M  V30 9815 C 950.903 -1.40141 0.788491 0
M  V30 9816 O 952.093 -1.3852 1.05631 0
M  V30 9817 C 949.225 -2.64108 2.15545 0
M  V30 9818 H 950.418 -0.966978 2.83883 0
M  V30 9819 H 947.971 -0.468313 1.49119 0
M  V30 9820 H 948.706 -2.99141 1.25241 0
M  V30 9821 H 948.491 -2.55673 2.97277 0
M  V30 9822 H 949.981 -3.39025 2.43827 0
M  V30 9823 N 950.418 -1.49637 -0.494624 0
M  V30 9824 C 951.381 -1.66252 -1.57775 0
M  V30 9825 C 952.381 -0.534054 -1.51672 0
M  V30 9826 O 953.571 -0.800637 -1.54711 0
M  V30 9827 C 950.703 -1.66584 -2.97426 0
M  V30 9828 H 951.896 -2.62864 -1.4437 0
M  V30 9829 H 949.449 -1.38764 -0.719323 0
M  V30 9830 H 950.184 -0.715798 -3.16302 0
M  V30 9831 H 949.969 -2.48543 -3.03264 0
M  V30 9832 H 951.459 -1.81474 -3.76108 0
M  V30 9833 N 951.896 0.746133 -1.38819 0
M  V30 9834 C 952.859 1.84167 -1.36437 0
M  V30 9835 C 953.859 1.58626 -0.263499 0
M  V30 9836 O 955.049 1.66233 -0.520801 0
M  V30 9837 C 952.181 3.21769 -1.12596 0
M  V30 9838 H 953.374 1.87684 -2.33912 0
M  V30 9839 H 950.927 0.948625 -1.24221 0
M  V30 9840 H 951.662 3.23917 -0.15758 0
M  V30 9841 H 951.447 3.41702 -1.92307 0
M  V30 9842 H 952.937 4.0184 -1.13643 0
M  V30 9843 N 953.375 1.23811 0.975125 0
M  V30 9844 C 954.624 1.06741 1.71141 0
M  V30 9845 C 954.937 -0.394986 1.9157 0
M  V30 9846 O 956.143 -0.685723 2.62698 0
M  V30 9847 C 954.599 1.86168 3.08009 0
M  V30 9848 C 954.207 3.36771 2.95448 0
M  V30 9849 C 955.951 1.77604 3.85561 0
M  V30 9850 C 953.858 4.0857 4.2758 0
M  V30 9851 H 952.788 0.395819 0.64175 0
M  V30 9852 H 955.439 1.47825 1.0872 0
M  V30 9853 H 953.821 1.37893 3.71216 0
M  V30 9854 H 954.995 3.92571 2.41298 0
M  V30 9855 H 953.31 3.46205 2.31368 0
M  V30 9856 H 955.907 2.28556 4.83391 0
M  V30 9857 H 956.25 0.739837 4.09673 0
M  V30 9858 H 956.783 2.23519 3.29065 0
M  V30 9859 H 953.522 5.12518 4.08663 0
M  V30 9860 H 953.042 3.57556 4.81574 0
M  V30 9861 H 954.721 4.15157 4.9624 0
M  V30 9862 N 954.853 -1.17469 1.05066 0
M  V30 9863 C 955.785 -2.20974 0.608526 0
M  V30 9864 C 956.798 -1.59481 -0.327066 0
M  V30 9865 O 957.987 -1.78096 -0.12 0
M  V30 9866 C 955.087 -3.38652 -0.12969 0
M  V30 9867 C 954.26 -4.29716 0.816285 0
M  V30 9868 C 953.319 -5.26064 0.119556 0
M  V30 9869 O 952.345 -5.64194 0.753241 0
M  V30 9870 N 953.547 -5.69126 -1.14347 0
M  V30 9871 H 956.312 -2.59529 1.49882 0
M  V30 9872 H 953.873 -1.32355 0.932406 0
M  V30 9873 H 955.865 -4.00139 -0.605886 0
M  V30 9874 H 954.435 -2.98705 -0.921638 0
M  V30 9875 H 953.655 -3.6568 1.47213 0
M  V30 9876 H 954.943 -4.87449 1.45845 0
M  V30 9877 H 954.341 -5.4022 -1.67866 0
M  V30 9878 H 952.898 -6.32764 -1.56376 0
M  V30 9879 N 956.331 -0.831506 -1.3388 0
M  V30 9880 C 957.281 -0.231656 -2.2682 0
M  V30 9881 C 958.265 0.609075 -1.48926 0
M  V30 9882 O 959.457 0.462249 -1.70857 0
M  V30 9883 C 956.586 0.59846 -3.38043 0
M  V30 9884 C 955.672 -0.253372 -4.23342 0
M  V30 9885 N 956.063 -1.32854 -4.8804 0
M  V30 9886 C 954.361 -0.0391537 -4.45983 0
M  V30 9887 C 955.062 -1.85069 -5.51475 0
M  V30 9888 N 954.038 -1.15327 -5.31226 0
M  V30 9889 H 957.84 -1.05396 -2.74352 0
M  V30 9890 H 955.354 -0.675195 -1.47699 0
M  V30 9891 H 957.351 1.04443 -4.03605 0
M  V30 9892 H 956.011 1.41882 -2.92061 0
M  V30 9893 H 957.022 -1.71139 -4.88806 0
M  V30 9894 H 953.699 0.748356 -4.10738 0
M  V30 9895 H 955.089 -2.75065 -6.13016 0
M  V30 9896 N 957.809 1.4625 -0.587256 0
M  V30 9897 C 958.739 2.33132 0.131076 0
M  V30 9898 C 959.72 1.45619 0.879158 0
M  V30 9899 O 960.905 1.74428 0.853723 0
M  V30 9900 C 958.035 3.27975 1.14236 0
M  V30 9901 C 956.989 4.24965 0.508819 0
M  V30 9902 C 956.315 5.09349 1.62689 0
M  V30 9903 C 957.615 5.19322 -0.55694 0
M  V30 9904 H 959.309 2.93442 -0.594333 0
M  V30 9905 H 956.855 1.41106 -0.287263 0
M  V30 9906 H 958.808 3.87614 1.65328 0
M  V30 9907 H 957.532 2.65781 1.8981 0
M  V30 9908 H 956.191 3.66595 0.0189337 0
M  V30 9909 H 955.839 4.43537 2.37242 0
M  V30 9910 H 955.539 5.75036 1.20861 0
M  V30 9911 H 957.063 5.71852 2.14049 0
M  V30 9912 H 958.477 5.73151 -0.130903 0
M  V30 9913 H 956.874 5.93376 -0.895801 0
M  V30 9914 H 957.944 4.62979 -1.44148 0
M  V30 9915 N 959.287 0.325282 1.54207 0
M  V30 9916 C 960.197 -0.548778 2.28091 0
M  V30 9917 C 961.213 -1.12772 1.32508 0
M  V30 9918 O 962.389 -1.14732 1.65525 0
M  V30 9919 C 959.454 -1.69284 3.02562 0
M  V30 9920 C 958.515 -1.14553 4.13734 0
M  V30 9921 C 957.748 -2.23506 4.84645 0
M  V30 9922 O 957.971 -3.43884 4.55082 0
M  V30 9923 O 956.905 -1.88828 5.71513 0
M  V30 9924 H 960.731 0.0512974 3.03657 0
M  V30 9925 H 958.316 0.0909159 1.49123 0
M  V30 9926 H 960.198 -2.35887 3.49192 0
M  V30 9927 H 958.873 -2.27906 2.2987 0
M  V30 9928 H 957.78 -0.444532 3.71449 0
M  V30 9929 H 959.113 -0.60441 4.88475 0
M  V30 9930 N 960.765 -1.57509 0.0534917 0
M  V30 9931 C 961.99 -1.97511 -0.632794 0
M  V30 9932 C 962.415 -0.930947 -1.63447 0
M  V30 9933 O 961.773 0.105558 -1.80992 0
M  V30 9934 C 961.821 -3.3658 -1.29407 0
M  V30 9935 O 960.925 -3.3467 -2.40977 0
M  V30 9936 H 960.266 -0.643349 -0.16431 0
M  V30 9937 H 962.796 -2.04232 0.12258 0
M  V30 9938 H 962.806 -3.73359 -1.64521 0
M  V30 9939 H 961.481 -4.12113 -0.559976 0
M  V30 9940 H 960.058 -3.09639 -2.07793 0
M  V30 9941 N 962.243 0.219913 -1.56058 0
M  V30 9942 C 963.206 1.25606 -1.91718 0
M  V30 9943 C 964.206 1.39721 -0.795912 0
M  V30 9944 O 965.396 1.37958 -1.06364 0
M  V30 9945 C 962.528 2.62961 -2.16943 0
M  V30 9946 H 963.721 0.951909 -2.84392 0
M  V30 9947 H 961.274 0.460398 -1.49365 0
M  V30 9948 H 962.009 2.98472 -1.26826 0
M  V30 9949 H 961.794 2.54093 -2.98629 0
M  V30 9950 H 963.284 3.37727 -2.45622 0
M  V30 9951 N 963.721 1.49897 0.486681 0
M  V30 9952 C 964.684 1.67086 1.56891 0
M  V30 9953 C 965.684 0.54209 1.51387 0
M  V30 9954 O 966.874 0.80883 1.54284 0
M  V30 9955 C 964.006 1.68159 2.96539 0
M  V30 9956 H 965.199 2.63626 1.42974 0
M  V30 9957 H 962.752 1.39143 0.711954 0
M  V30 9958 H 963.487 0.732562 3.15918 0
M  V30 9959 H 963.272 2.50147 3.01942 0
M  V30 9960 H 964.762 1.83466 3.7514 0
M  V30 9961 N 965.199 -0.738761 1.39212 0
M  V30 9962 C 966.427 -1.52801 1.39497 0
M  V30 9963 C 966.842 -1.88797 -0.0114917 0
M  V30 9964 O 966.199 -1.53835 -0.981887 0
M  V30 9965 C 966.25 -2.81793 2.2644 0
M  V30 9966 O 965.971 -2.47328 3.61608 0
M  V30 9967 C 967.472 -3.75844 2.35067 0
M  V30 9968 H 964.692 -0.472322 0.476606 0
M  V30 9969 H 967.236 -0.913153 1.8298 0
M  V30 9970 H 965.391 -3.3962 1.8638 0
M  V30 9971 H 965.805 -3.30162 4.07545 0
M  V30 9972 H 967.279 -4.6326 3.00157 0
M  V30 9973 H 967.756 -4.17329 1.3687 0
M  V30 9974 H 968.362 -3.23937 2.75581 0
M  V30 9975 N 966.677 -1.24326 -0.968545 0
M  V30 9976 C 967.587 -1.05194 -2.09694 0
M  V30 9977 C 968.603 0.00701291 -1.73999 0
M  V30 9978 O 969.779 -0.190981 -2.00492 0
M  V30 9979 C 966.844 -0.658075 -3.40397 0
M  V30 9980 C 965.905 -1.79341 -3.90045 0
M  V30 9981 C 965.138 -1.41824 -5.14511 0
M  V30 9982 O 965.361 -0.307693 -5.69569 0
M  V30 9983 O 964.295 -2.24358 -5.58522 0
M  V30 9984 H 968.121 -1.99791 -2.2873 0
M  V30 9985 H 965.706 -1.03138 -1.08088 0
M  V30 9986 H 967.588 -0.449911 -4.18991 0
M  V30 9987 H 966.263 0.258782 -3.22664 0
M  V30 9988 H 965.17 -2.05632 -3.12516 0
M  V30 9989 H 966.503 -2.68901 -4.12254 0
M  V30 9990 N 968.156 1.1691 -1.05688 0
M  V30 9991 C 969.086 2.23275 -0.683402 0
M  V30 9992 C 970.067 1.6704 0.321206 0
M  V30 9993 O 971.252 1.93191 0.197691 0
M  V30 9994 C 968.382 3.47244 -0.0626006 0
M  V30 9995 C 967.336 4.16333 -0.992513 0
M  V30 9996 C 966.662 5.34182 -0.23533 0
M  V30 9997 C 967.962 4.68002 -2.31886 0
M  V30 9998 H 969.656 2.54771 -1.57264 0
M  V30 9999 H 967.202 1.2246 -0.757606 0
M  V30 10000 H 969.155 4.20874 0.210503 0
M  V30 10001 H 967.879 3.1503 0.861616 0
M  V30 10002 H 966.538 3.44622 -1.25026 0
M  V30 10003 H 966.186 4.9822 0.69181 0
M  V30 10004 H 965.886 5.81346 -0.855002 0
M  V30 10005 H 967.41 6.10592 0.0303717 0
M  V30 10006 H 968.824 5.33244 -2.10531 0
M  V30 10007 H 967.221 5.25764 -2.89296 0
M  V30 10008 H 968.291 3.84541 -2.95391 0
M  V30 10009 N 969.634 0.838594 1.33437 0
M  V30 10010 C 970.582 0.260158 2.31141 0
M  V30 10011 C 971.576 -0.607706 1.58124 0
M  V30 10012 O 972.782 -0.497298 1.72994 0
M  V30 10013 H 969.157 0.0654031 0.74915 0
M  V30 10014 H 971.128 1.09874 2.77435 0
M  V30 10015 C 969.877 -0.550234 3.43319 0
M  V30 10016 H 969.2 0.108262 3.99653 0
M  V30 10017 H 970.64 -0.920815 4.1388 0
M  V30 10018 C 969.099 -1.729 2.89149 0
M  V30 10019 O 969.629 -2.82769 2.85315 0
M  V30 10020 N 967.835 -1.5508 2.45761 0
M  V30 10021 H 967.382 -0.657055 2.49079 0
M  V30 10022 H 967.34 -2.34099 2.0987 0
M  V30 10023 N 971.112 -1.45937 0.595003 0
M  V30 10024 C 972.059 -2.30427 -0.131165 0
M  V30 10025 C 973.029 -1.41355 -0.872232 0
M  V30 10026 O 974.214 -1.70296 -0.860467 0
M  V30 10027 C 971.354 -3.26045 -1.13087 0
M  V30 10028 C 970.467 -4.30218 -0.391982 0
M  V30 10029 C 969.602 -5.12953 -1.3803 0
M  V30 10030 C 968.641 -6.08865 -0.628505 0
M  V30 10031 N 967.778 -6.84425 -1.56548 0
M  V30 10032 H 972.618 -2.91992 0.595359 0
M  V30 10033 H 970.155 -1.43895 0.305405 0
M  V30 10034 H 972.113 -3.79937 -1.72348 0
M  V30 10035 H 970.743 -2.66261 -1.82496 0
M  V30 10036 H 969.795 -3.79086 0.315895 0
M  V30 10037 H 971.107 -4.98418 0.195173 0
M  V30 10038 H 970.261 -5.71184 -2.04534 0
M  V30 10039 H 969 -4.44743 -2.00138 0
M  V30 10040 H 968.005 -5.49777 0.0502431 0
M  V30 10041 H 969.23 -6.79099 -0.012641 0
M  V30 10042 H 967.176 -6.18913 -2.17444 0
M  V30 10043 H 967.093 -7.48931 -1.03145 0
M  V30 10044 H 968.361 -7.47204 -2.22049 0
M  V30 10045 N 972.59 -0.333456 -1.54032 0
M  V30 10046 C 973.839 0.267081 -1.99924 0
M  V30 10047 C 974.152 1.52463 -1.22534 0
M  V30 10048 O 975.358 2.20178 -1.58852 0
M  V30 10049 C 973.814 0.526456 -3.56029 0
M  V30 10050 C 973.422 -0.714607 -4.42264 0
M  V30 10051 C 975.166 1.0864 -4.10363 0
M  V30 10052 C 973.073 -0.42659 -5.89859 0
M  V30 10053 H 972.003 0.103577 -0.746852 0
M  V30 10054 H 974.654 -0.447218 -1.77967 0
M  V30 10055 H 973.036 1.3012 -3.74012 0
M  V30 10056 H 974.21 -1.48968 -4.36056 0
M  V30 10057 H 972.525 -1.19547 -3.9887 0
M  V30 10058 H 975.122 1.31668 -5.18235 0
M  V30 10059 H 975.465 2.03884 -3.62956 0
M  V30 10060 H 975.998 0.37261 -3.96051 0
M  V30 10061 H 972.737 -1.34847 -6.4148 0
M  V30 10062 H 972.257 0.310588 -5.98995 0
M  V30 10063 H 973.936 -0.0400807 -6.46988 0
M  V30 10064 N 974.068 1.57479 -0.061844 0
M  V30 10065 C 974.998 2.15181 0.9066 0
M  V30 10066 C 975.979 1.07624 1.31724 0
M  V30 10067 O 977.164 1.35614 1.39006 0
M  V30 10068 C 974.294 2.70542 2.17771 0
M  V30 10069 C 973.248 3.83178 1.9068 0
M  V30 10070 C 972.574 4.25099 3.24337 0
M  V30 10071 C 973.874 5.07853 1.21994 0
M  V30 10072 H 975.568 2.96355 0.42594 0
M  V30 10073 H 973.114 1.42556 0.203435 0
M  V30 10074 H 975.067 3.09552 2.85929 0
M  V30 10075 H 973.791 1.86575 2.68062 0
M  V30 10076 H 972.45 3.44656 1.24931 0
M  V30 10077 H 972.098 3.38069 3.72449 0
M  V30 10078 H 971.798 5.01021 3.07005 0
M  V30 10079 H 973.322 4.66718 3.93709 0
M  V30 10080 H 974.736 5.44242 1.80204 0
M  V30 10081 H 973.133 5.88987 1.14954 0
M  V30 10082 H 974.203 4.84497 0.197536 0
M  V30 10083 N 975.546 -0.211634 1.56173 0
M  V30 10084 C 976.493 -1.26231 1.93221 0
M  V30 10085 C 977.463 -1.46076 0.790641 0
M  V30 10086 O 978.648 -1.59482 1.04739 0
M  V30 10087 C 975.788 -2.60559 2.26281 0
M  V30 10088 C 974.901 -2.48431 3.5342 0
M  V30 10089 C 974.036 -3.7535 3.7588 0
M  V30 10090 C 973.075 -3.57985 4.96501 0
M  V30 10091 N 972.212 -4.76877 5.15299 0
M  V30 10092 H 977.052 -0.939367 2.82807 0
M  V30 10093 H 974.589 -0.452511 1.39967 0
M  V30 10094 H 976.547 -3.38796 2.43461 0
M  V30 10095 H 975.177 -2.9093 1.39855 0
M  V30 10096 H 974.229 -1.61577 3.44379 0
M  V30 10097 H 975.541 -2.31526 4.41811 0
M  V30 10098 H 974.695 -4.62029 3.9321 0
M  V30 10099 H 973.434 -3.95191 2.85788 0
M  V30 10100 H 972.439 -2.69691 4.79111 0
M  V30 10101 H 973.664 -3.39605 5.88086 0
M  V30 10102 H 971.61 -4.97013 4.28152 0
M  V30 10103 H 971.527 -4.62735 5.9784 0
M  V30 10104 H 972.795 -5.64954 5.37073 0
M  V30 10105 N 977.024 -1.50153 -0.478725 0
M  V30 10106 C 977.987 -1.67916 -1.56003 0
M  V30 10107 C 978.987 -0.550111 -1.51097 0
M  V30 10108 O 980.177 -0.817001 -1.53853 0
M  V30 10109 C 977.309 -1.6973 -2.95643 0
M  V30 10110 H 978.502 -2.6438 -1.41573 0
M  V30 10111 H 976.055 -1.39519 -0.704565 0
M  V30 10112 H 976.79 -0.749306 -3.15525 0
M  V30 10113 H 976.575 -2.51745 -3.00611 0
M  V30 10114 H 978.065 -1.85453 -3.74162 0
M  V30 10115 N 978.502 0.731368 -1.39602 0
M  V30 10116 C 979.449 1.84541 -1.38612 0
M  V30 10117 C 980.419 1.64279 -0.245287 0
M  V30 10118 O 981.604 1.85635 -0.440954 0
M  V30 10119 C 978.744 3.22092 -1.23897 0
M  V30 10120 C 977.857 3.54034 -2.47555 0
M  V30 10121 C 976.992 4.81007 -2.25402 0
M  V30 10122 C 976.031 5.05804 -3.44716 0
M  V30 10123 N 975.168 6.23981 -3.21857 0
M  V30 10124 H 980.008 1.84722 -2.33841 0
M  V30 10125 H 977.545 0.902569 -1.16156 0
M  V30 10126 H 979.503 4.01499 -1.13376 0
M  V30 10127 H 978.133 3.2118 -0.322958 0
M  V30 10128 H 977.185 2.69301 -2.68665 0
M  V30 10129 H 978.497 3.68275 -3.36415 0
M  V30 10130 H 977.651 5.68401 -2.12143 0
M  V30 10131 H 976.39 4.68946 -1.33943 0
M  V30 10132 H 975.395 4.1687 -3.58468 0
M  V30 10133 H 976.62 5.19747 -4.37081 0
M  V30 10134 H 974.566 6.13202 -2.33065 0
M  V30 10135 H 974.483 6.38826 -4.04274 0
M  V30 10136 H 975.751 7.14205 -3.123 0
M  V30 10137 N 979.98 1.24838 0.961938 0
M  V30 10138 C 981.21 1.11709 1.73795 0
M  V30 10139 C 981.618 -0.33263 1.86253 0
M  V30 10140 O 980.961 -1.24101 1.35443 0
M  V30 10141 C 981.023 1.68959 3.17322 0
M  V30 10142 C 980.687 3.17895 3.28316 0
M  V30 10143 C 981.684 4.14975 3.13196 0
M  V30 10144 C 979.369 3.57966 3.52372 0
M  V30 10145 C 981.363 5.50107 3.21965 0
M  V30 10146 C 979.05 4.93237 3.60778 0
M  V30 10147 C 980.048 5.89116 3.45588 0
M  V30 10148 O 979.736 7.21927 3.53662 0
M  V30 10149 H 979.468 0.390726 0.551642 0
M  V30 10150 H 982.022 1.65541 1.21594 0
M  V30 10151 H 980.252 1.09567 3.70853 0
M  V30 10152 H 981.941 1.51036 3.76753 0
M  V30 10153 H 982.707 3.85359 2.94489 0
M  V30 10154 H 978.586 2.83837 3.63259 0
M  V30 10155 H 982.13 6.24924 3.10025 0
M  V30 10156 H 978.027 5.22522 3.79 0
M  V30 10157 H 978.795 7.29925 3.7034 0
M  V30 10158 N 981.458 -1.16348 1.06306 0
M  V30 10159 C 982.869 -1.68491 0.80422 0
M  V30 10160 C 983.22 -1.84327 -0.672159 0
M  V30 10161 O 982.345 -1.53892 -1.52139 0
M  V30 10162 C 982.94 -3.06048 1.45328 0
M  V30 10163 C 981.499 -3.55311 1.24221 0
M  V30 10164 C 980.646 -2.31291 1.5297 0
M  V30 10165 H 983.597 -1.00708 1.22652 0
M  V30 10166 H 983.618 -3.70451 0.868674 0
M  V30 10167 H 983.13 -2.9449 2.52779 0
M  V30 10168 H 981.231 -3.72128 0.187447 0
M  V30 10169 H 981.344 -4.37397 1.95502 0
M  V30 10170 H 979.708 -2.3631 0.950241 0
M  V30 10171 H 980.491 -2.22331 2.6158 0
M  V30 10172 N 982.937 -0.845659 -1.3299 0
M  V30 10173 C 984.165 -0.45835 -2.01759 0
M  V30 10174 C 984.58 0.94239 -1.63598 0
M  V30 10175 O 983.937 1.61353 -0.852738 0
M  V30 10176 C 983.988 -0.577311 -3.5686 0
M  V30 10177 O 983.709 -1.92287 -3.93646 0
M  V30 10178 C 985.21 -0.187839 -4.42902 0
M  V30 10179 H 982.43 -0.181165 -0.646081 0
M  V30 10180 H 984.974 -1.14011 -1.6977 0
M  V30 10181 H 983.129 0.0566146 -3.87359 0
M  V30 10182 H 983.543 -1.91322 -4.88361 0
M  V30 10183 H 985.017 -0.322105 -5.51059 0
M  V30 10184 H 985.494 0.870896 -4.30479 0
M  V30 10185 H 986.1 -0.796473 -4.17776 0
M  V30 10186 N 984.415 1.45619 -0.602734 0
M  V30 10187 C 985.325 2.34288 0.120902 0
M  V30 10188 C 986.341 1.50952 0.865414 0
M  V30 10189 O 987.517 1.83768 0.824094 0
M  V30 10190 C 984.582 3.28489 1.10888 0
M  V30 10191 C 983.643 4.2773 0.366853 0
M  V30 10192 C 982.876 5.17429 1.30776 0
M  V30 10193 O 983.099 5.10459 2.54535 0
M  V30 10194 O 982.033 5.96459 0.807464 0
M  V30 10195 H 985.859 2.97559 -0.60765 0
M  V30 10196 H 983.444 1.44922 -0.363019 0
M  V30 10197 H 985.326 3.86549 1.67803 0
M  V30 10198 H 984.001 2.67789 1.81854 0
M  V30 10199 H 982.908 3.73299 -0.244643 0
M  V30 10200 H 984.241 4.91271 -0.302226 0
M  V30 10201 N 985.893 0.34162 1.53853 0
M  V30 10202 C 986.826 -0.559051 2.21246 0
M  V30 10203 C 987.804 -1.10179 1.1958 0
M  V30 10204 O 988.988 -1.16242 1.48392 0
M  V30 10205 C 986.115 -1.7689 2.88838 0
M  V30 10206 C 985.161 -1.3558 4.04377 0
M  V30 10207 S 985.994 -0.377225 5.3417 0
M  V30 10208 C 987.15 -1.59395 6.05264 0
M  V30 10209 H 987.383 0.013373 2.97297 0
M  V30 10210 H 984.916 0.125694 1.53888 0
M  V30 10211 H 986.874 -2.463 3.284 0
M  V30 10212 H 985.535 -2.31254 2.12557 0
M  V30 10213 H 984.728 -2.25781 4.50599 0
M  V30 10214 H 984.33 -0.741197 3.66582 0
M  V30 10215 H 986.622 -2.52872 6.2854 0
M  V30 10216 H 987.565 -1.17356 6.98307 0
M  V30 10217 H 987.973 -1.78913 5.35397 0
M  V30 10218 N 987.371 -1.57444 0.0701946 0
M  V30 10219 C 988.62 -1.92605 -0.598849 0
M  V30 10220 C 988.933 -0.952058 -1.70866 0
M  V30 10221 O 990.139 -1.19643 -2.43716 0
M  V30 10222 C 988.595 -3.42142 -1.11655 0
M  V30 10223 C 988.203 -4.47984 -0.0378355 0
M  V30 10224 C 989.947 -3.86307 -1.75975 0
M  V30 10225 C 987.854 -5.88652 -0.569495 0
M  V30 10226 H 986.784 -0.718873 -0.22746 0
M  V30 10227 H 989.435 -1.82948 0.14217 0
M  V30 10228 H 987.817 -3.46866 -1.91049 0
M  V30 10229 H 988.991 -4.54874 0.736661 0
M  V30 10230 H 987.306 -4.13277 0.50904 0
M  V30 10231 H 989.903 -4.88784 -2.16782 0
M  V30 10232 H 990.246 -3.23587 -2.61911 0
M  V30 10233 H 990.779 -3.84179 -1.03206 0
M  V30 10234 H 987.518 -6.55013 0.252662 0
M  V30 10235 H 987.038 -5.85285 -1.31155 0
M  V30 10236 H 988.717 -6.38482 -1.04641 0
M  V30 10237 N 988.849 0.203349 -1.56283 0
M  V30 10238 C 990.098 0.92315 -1.79334 0
M  V30 10239 C 990.411 1.84765 -0.641977 0
M  V30 10240 O 991.617 2.60745 -0.756584 0
M  V30 10241 C 990.073 1.69184 -3.17655 0
M  V30 10242 C 989.681 0.812581 -4.40569 0
M  V30 10243 C 991.425 2.40177 -3.50022 0
M  V30 10244 C 989.332 1.57967 -5.69913 0
M  V30 10245 H 988.262 0.348442 -0.668659 0
M  V30 10246 H 990.913 0.1766 -1.82648 0
M  V30 10247 H 989.295 2.48197 -3.08568 0
M  V30 10248 H 990.469 0.0616956 -4.60759 0
M  V30 10249 H 988.784 0.21389 -4.1585 0
M  V30 10250 H 991.381 2.98103 -4.4389 0
M  V30 10251 H 991.724 3.13961 -2.73376 0
M  V30 10252 H 992.257 1.68138 -3.6052 0
M  V30 10253 H 988.996 0.884767 -6.49501 0
M  V30 10254 H 988.516 2.3047 -5.53754 0
M  V30 10255 H 990.195 2.13562 -6.10737 0
M  V30 10256 N 990.327 1.50405 0.470755 0
M  V30 10257 C 991.29 1.68741 1.5511 0
M  V30 10258 C 992.29 0.558116 1.50804 0
M  V30 10259 O 993.48 0.825149 1.53418 0
M  V30 10260 C 990.612 1.71295 2.94739 0
M  V30 10261 H 991.805 2.65127 1.40169 0
M  V30 10262 H 989.358 1.39891 0.697156 0
M  V30 10263 H 990.093 0.766029 3.15123 0
M  V30 10264 H 989.878 2.53336 2.99271 0
M  V30 10265 H 991.368 1.87434 3.73173 0
M  V30 10266 N 991.805 -0.723954 1.39988 0
M  V30 10267 C 993.033 -1.51313 1.4111 0
M  V30 10268 C 993.448 -1.88798 0.00853333 0
M  V30 10269 O 992.805 -1.54868 -0.965516 0
M  V30 10270 C 992.856 -2.79375 2.29416 0
M  V30 10271 O 992.577 -2.43478 3.64211 0
M  V30 10272 C 994.078 -3.7333 2.3904 0
M  V30 10273 H 991.298 -0.46724 0.481589 0
M  V30 10274 H 993.842 -0.893694 1.83938 0
M  V30 10275 H 991.997 -3.37624 1.89971 0
M  V30 10276 H 992.411 -3.25821 4.11024 0
M  V30 10277 H 993.885 -4.60051 3.05053 0
M  V30 10278 H 994.362 -4.15854 1.41289 0
M  V30 10279 H 994.968 -3.20996 2.79001 0
M  V30 10280 N 993.283 -1.25346 -0.955304 0
M  V30 10281 C 994.699 -1.02154 -1.22625 0
M  V30 10282 C 994.899 0.26206 -1.99789 0
M  V30 10283 O 993.955 0.974958 -2.32918 0
M  V30 10284 C 995.268 -2.2443 -2.00129 0
M  V30 10285 C 996.816 -2.29185 -2.13174 0
M  V30 10286 C 997.291 -3.51117 -2.94077 0
M  V30 10287 N 998.782 -3.51509 -3.01655 0
M  V30 10288 C 999.517 -4.42517 -3.64645 0
M  V30 10289 N 999.013 -5.43796 -4.29252 0
M  V30 10290 N 1000.81 -4.302 -3.61779 0
M  V30 10291 H 992.957 -2.07812 -0.439071 0
M  V30 10292 H 995.22 -0.91258 -0.256715 0
M  V30 10293 H 994.926 -3.17717 -1.50827 0
M  V30 10294 H 994.8 -2.27548 -3.00835 0
M  V30 10295 H 997.187 -1.36422 -2.61674 0
M  V30 10296 H 997.268 -2.30087 -1.11775 0
M  V30 10297 H 996.912 -4.44201 -2.46268 0
M  V30 10298 H 996.842 -3.4746 -3.95701 0
M  V30 10299 H 999.333 -2.78245 -2.55711 0
M  V30 10300 H 999.646 -6.09453 -4.75171 0
M  V30 10301 H 997.991 -5.4767 -4.27882 0
M  V30 10302 H 1001.18 -3.50304 -3.10491 0
M  V30 10303 H 1001.36 -5.01323 -4.10584 0
M  V30 10304 N 994.761 1.15782 -1.06922 0
M  V30 10305 C 996.008 1.86465 -0.789752 0
M  V30 10306 C 996.336 1.82075 0.684022 0
M  V30 10307 O 995.591 1.23576 1.51748 0
M  V30 10308 C 995.89 3.35284 -1.2377 0
M  V30 10309 C 995.556 3.59871 -2.71668 0
M  V30 10310 C 994.218 3.6629 -3.12066 0
M  V30 10311 C 996.57 3.69929 -3.67154 0
M  V30 10312 C 993.898 3.80275 -4.46775 0
M  V30 10313 C 996.25 3.85436 -5.01619 0
M  V30 10314 C 994.914 3.901 -5.41644 0
M  V30 10315 H 994.184 0.682324 -0.288991 0
M  V30 10316 H 996.831 1.36861 -1.33945 0
M  V30 10317 H 995.136 3.87065 -0.607309 0
M  V30 10318 H 996.833 3.88371 -0.998431 0
M  V30 10319 H 993.423 3.55512 -2.39393 0
M  V30 10320 H 997.607 3.64274 -3.37073 0
M  V30 10321 H 992.863 3.8214 -4.77262 0
M  V30 10322 H 997.037 3.92161 -5.75485 0
M  V30 10323 H 994.664 4.00688 -6.46029 0
M  V30 10324 N 996.239 0.8527 1.3254 0
M  V30 10325 C 997.169 0.311234 2.31416 0
M  V30 10326 C 998.15 -0.588557 1.59593 0
M  V30 10327 O 999.335 -0.509211 1.87405 0
M  V30 10328 C 996.465 -0.502892 3.4364 0
M  V30 10329 C 995.419 0.302296 4.26931 0
M  V30 10330 C 994.745 -0.636445 5.30899 0
M  V30 10331 C 996.045 1.52697 4.99481 0
M  V30 10332 H 997.739 1.13742 2.76953 0
M  V30 10333 H 995.285 0.548389 1.33149 0
M  V30 10334 H 997.238 -0.892092 4.11849 0
M  V30 10335 H 995.962 -1.36242 2.96826 0
M  V30 10336 H 994.621 0.673226 3.60365 0
M  V30 10337 H 994.269 -1.49277 4.80339 0
M  V30 10338 H 993.969 -0.101716 5.87512 0
M  V30 10339 H 995.493 -1.02286 6.01972 0
M  V30 10340 H 996.907 1.21017 5.60382 0
M  V30 10341 H 995.304 1.9995 5.65809 0
M  V30 10342 H 996.374 2.28929 4.27457 0
M  V30 10343 N 997.718 -1.45297 0.610449 0
M  V30 10344 C 998.958 -2.04105 0.109802 0
M  V30 10345 C 999.322 -1.46818 -1.23727 0
M  V30 10346 O 1000.52 -1.96997 -1.82881 0
M  V30 10347 C 998.794 -3.57323 0.0741377 0
M  V30 10348 S 1000.35 -4.3728 -0.364901 0
M  V30 10349 H 997.171 -0.709171 0.050967 0
M  V30 10350 H 999.773 -1.77967 0.809194 0
M  V30 10351 H 998.477 -3.96528 1.05801 0
M  V30 10352 H 998.008 -3.8804 -0.647158 0
M  V30 10353 H 1000.02 -4.69224 -1.61379 0
M  V30 10354 N 999.196 -0.349774 -1.5367 0
M  V30 10355 C 1000.42 0.248692 -2.05904 0
M  V30 10356 C 1000.85 1.42942 -1.22267 0
M  V30 10357 O 1000.2 1.79732 -0.237899 0
M  V30 10358 C 1000.25 0.635639 -3.54953 0
M  V30 10359 O 999.356 1.7349 -3.74132 0
M  V30 10360 H 998.697 0.0399477 -0.662797 0
M  V30 10361 H 1001.23 -0.505795 -1.9825 0
M  V30 10362 H 1001.24 0.911064 -3.97698 0
M  V30 10363 H 999.912 -0.227805 -4.15276 0
M  V30 10364 H 998.489 1.45626 -3.43289 0
M  V30 10365 N 1000.67 1.57404 -0.0785433 0
M  V30 10366 C 1001.64 2.11977 0.871693 0
M  V30 10367 C 1002.64 1.04529 1.2219 0
M  V30 10368 O 1003.83 1.30488 1.15406 0
M  V30 10369 C 1000.96 2.6267 2.17296 0
M  V30 10370 H 1002.15 2.97246 0.398115 0
M  V30 10371 H 999.705 1.5537 0.170251 0
M  V30 10372 H 1000.44 1.80873 2.69175 0
M  V30 10373 H 1000.22 3.41214 1.93171 0
M  V30 10374 H 1001.71 3.04943 2.85306 0
M  V30 10375 N 1002.15 -0.195058 1.56388 0
M  V30 10376 C 1003.4 -0.9168 1.80894 0
M  V30 10377 C 1003.73 -1.82907 0.652592 0
M  V30 10378 O 1003.01 -1.91382 -0.346853 0
M  V30 10379 C 1003.29 -1.733 3.15657 0
M  V30 10380 C 1003.14 -0.845449 4.41783 0
M  V30 10381 C 1004.46 -2.70557 3.47112 0
M  V30 10382 H 1001.58 -0.331861 0.658056 0
M  V30 10383 H 1004.22 -0.184174 1.89105 0
M  V30 10384 H 1002.37 -2.3576 3.08787 0
M  V30 10385 H 1004.04 -0.235557 4.60698 0
M  V30 10386 H 1002.29 -0.152172 4.33533 0
M  V30 10387 H 1002.96 -1.45152 5.32574 0
M  V30 10388 H 1005.43 -2.1823 3.54281 0
M  V30 10389 H 1004.31 -3.24749 4.42526 0
M  V30 10390 H 1004.57 -3.49605 2.70608 0
M  V30 10391 N 1003.63 -1.50653 -0.462772 0
M  V30 10392 C 1004.54 -1.72923 -1.58539 0
M  V30 10393 C 1005.56 -0.612577 -1.6286 0
M  V30 10394 O 1006.73 -0.891885 -1.80575 0
M  V30 10395 C 1003.8 -1.82623 -2.94703 0
M  V30 10396 C 1002.86 -3.06392 -3.00704 0
M  V30 10397 C 1002.09 -3.15618 -4.30373 0
M  V30 10398 O 1002.31 -2.31423 -5.21344 0
M  V30 10399 O 1001.25 -4.0841 -4.42136 0
M  V30 10400 H 1005.07 -2.68103 -1.42669 0
M  V30 10401 H 1002.66 -1.34848 -0.643144 0
M  V30 10402 H 1004.54 -1.91134 -3.7556 0
M  V30 10403 H 1003.22 -0.906275 -3.10754 0
M  V30 10404 H 1002.12 -3.03375 -2.18894 0
M  V30 10405 H 1003.46 -3.97992 -2.89591 0
M  V30 10406 N 1005.11 0.71652 -1.4037 0
M  V30 10407 C 1006.39 1.46947 -1.29097 0
M  V30 10408 C 1006.77 2.10903 0.0911182 0
M  V30 10409 O 1006.11 2.00068 1.10385 0
M  V30 10410 C 1006.32 2.50594 -2.42907 0
M  V30 10411 C 1007.67 3.16451 -2.83097 0
M  V30 10412 O 1008.7 2.60913 -2.42493 0
M  V30 10413 O 1007.55 4.16991 -3.53244 0
M  V30 10414 H 1004.65 0.653413 -0.506932 0
M  V30 10415 H 1007.19 0.748774 -1.52287 0
M  V30 10416 H 1005.97 2.01843 -3.35224 0
M  V30 10417 H 1005.59 3.302 -2.21481 0
M  V30 10418 N 1006.59 1.25851 0.948643 0
M  V30 10419 C 1007.83 1.10954 1.69397 0
M  V30 10420 C 1008.16 -0.348443 1.91353 0
M  V30 10421 O 1007.42 -1.27285 1.48651 0
M  V30 10422 C 1007.72 1.81565 3.07846 0
M  V30 10423 C 1007.38 3.31477 3.0567 0
M  V30 10424 C 1006.04 3.72371 3.04784 0
M  V30 10425 C 1008.4 4.27225 2.98543 0
M  V30 10426 C 1005.72 5.07416 2.94527 0
M  V30 10427 C 1008.08 5.62301 2.89828 0
M  V30 10428 C 1006.74 6.02516 2.87281 0
M  V30 10429 H 1006.01 0.406011 0.619868 0
M  V30 10430 H 1008.66 1.562 1.10787 0
M  V30 10431 H 1006.96 1.28767 3.70035 0
M  V30 10432 H 1008.66 1.67486 3.64348 0
M  V30 10433 H 1005.25 2.98941 3.07135 0
M  V30 10434 H 1009.43 3.96618 2.98342 0
M  V30 10435 H 1004.69 5.37746 2.90928 0
M  V30 10436 H 1008.86 6.36182 2.83276 0
M  V30 10437 H 1006.49 7.07116 2.79089 0
M  V30 10438 N 1008.06 -1.15214 1.07534 0
M  V30 10439 C 1009.31 -1.86319 0.800814 0
M  V30 10440 C 1009.64 -1.82221 -0.671494 0
M  V30 10441 O 1008.92 -1.24664 -1.49295 0
M  V30 10442 C 1009.2 -3.35347 1.31203 0
M  V30 10443 C 1009.05 -3.48067 2.84902 0
M  V30 10444 C 1010.37 -4.3016 0.930064 0
M  V30 10445 H 1007.49 -0.676523 0.292379 0
M  V30 10446 H 1010.13 -1.35349 1.33344 0
M  V30 10447 H 1008.28 -3.78886 0.858949 0
M  V30 10448 H 1009.96 -3.13379 3.38514 0
M  V30 10449 H 1008.2 -2.89566 3.23008 0
M  V30 10450 H 1008.87 -4.52782 3.15741 0
M  V30 10451 H 1011.35 -3.94591 1.3205 0
M  V30 10452 H 1010.22 -5.32914 1.31507 0
M  V30 10453 H 1010.48 -4.41796 -0.163824 0
M  V30 10454 N 1009.54 -0.859717 -1.32086 0
M  V30 10455 C 1010.79 -0.466271 -1.97367 0
M  V30 10456 C 1011.12 0.976728 -1.6785 0
M  V30 10457 O 1010.4 1.68618 -0.969449 0
M  V30 10458 C 1010.68 -0.711851 -3.52994 0
M  V30 10459 C 1010.53 -2.20364 -3.92122 0
M  V30 10460 C 1011.85 -0.17156 -4.39765 0
M  V30 10461 H 1008.97 -0.170883 -0.716916 0
M  V30 10462 H 1011.61 -1.07907 -1.56384 0
M  V30 10463 H 1009.76 -0.190258 -3.88034 0
M  V30 10464 H 1011.43 -2.7917 -3.67236 0
M  V30 10465 H 1009.68 -2.68019 -3.41099 0
M  V30 10466 H 1010.35 -2.32615 -5.00594 0
M  V30 10467 H 1012.82 -0.617665 -4.1149 0
M  V30 10468 H 1011.7 -0.372921 -5.47632 0
M  V30 10469 H 1011.96 0.925959 -4.32294 0
M  V30 10470 N 1011.02 1.44971 -0.618145 0
M  V30 10471 C 1012.3 1.95539 -0.0489895 0
M  V30 10472 C 1012.68 1.5604 1.42179 0
M  V30 10473 O 1012.03 0.82809 2.12967 0
M  V30 10474 C 1012.24 3.48044 -0.258193 0
M  V30 10475 C 1013.58 4.24354 -0.144541 0
M  V30 10476 O 1014.61 3.55699 -0.18887 0
M  V30 10477 O 1013.47 5.46486 -0.038519 0
M  V30 10478 H 1010.56 0.826466 0.0297256 0
M  V30 10479 H 1013.11 1.55086 -0.688944 0
M  V30 10480 H 1011.88 3.69798 -1.27926 0
M  V30 10481 H 1011.5 3.95412 0.416522 0
M  V30 10482 N 1012.5 0.357919 1.53482 0
M  V30 10483 C 1013.75 -0.235241 2.00324 0
M  V30 10484 C 1014.06 -1.50494 1.24944 0
M  V30 10485 O 1015.27 -2.17623 1.62335 0
M  V30 10486 C 1013.72 -0.469748 3.56821 0
M  V30 10487 C 1013.33 0.784877 4.41071 0
M  V30 10488 C 1015.07 -1.02098 4.12039 0
M  V30 10489 C 1012.98 0.520377 5.89106 0
M  V30 10490 H 1011.91 -0.0916816 0.748405 0
M  V30 10491 H 1014.56 0.475474 1.77233 0
M  V30 10492 H 1012.94 -1.24153 3.76035 0
M  V30 10493 H 1014.12 1.55886 4.33631 0
M  V30 10494 H 1012.43 1.25878 3.96918 0
M  V30 10495 H 1015.03 -1.23406 5.20264 0
M  V30 10496 H 1015.37 -1.98084 3.66154 0
M  V30 10497 H 1015.91 -0.309554 3.96594 0
M  V30 10498 H 1012.65 1.45035 6.39254 0
M  V30 10499 H 1012.17 -0.215254 5.99414 0
M  V30 10500 H 1013.84 0.143006 6.46842 0
M  V30 10501 N 1013.98 -1.5736 0.0868897 0
M  V30 10502 C 1015.22 -1.94341 -0.579598 0
M  V30 10503 C 1015.56 -0.968238 -1.68341 0
M  V30 10504 O 1014.83 8.29649e-05 -1.945 0
M  V30 10505 C 1015.11 -3.41497 -1.14245 0
M  V30 10506 C 1014.97 -4.49778 -0.044255 0
M  V30 10507 C 1016.29 -3.89788 -2.04336 0
M  V30 10508 H 1013.4 -0.70668 -0.20922 0
M  V30 10509 H 1016.05 -1.89359 0.15593 0
M  V30 10510 H 1014.2 -3.45873 -1.76929 0
M  V30 10511 H 1015.87 -4.57517 0.58959 0
M  V30 10512 H 1014.11 -4.293 0.623207 0
M  V30 10513 H 1014.78 -5.4992 -0.478749 0
M  V30 10514 H 1017.26 -3.87513 -1.51569 0
M  V30 10515 H 1016.13 -4.93335 -2.40648 0
M  V30 10516 H 1016.4 -3.28603 -2.95757 0
M  V30 10517 N 1015.45 0.186762 -1.56489 0
M  V30 10518 C 1016.4 1.23141 -1.95205 0
M  V30 10519 C 1017.37 1.44799 -0.81378 0
M  V30 10520 O 1018.56 1.57795 -1.07263 0
M  V30 10521 C 1015.7 2.56926 -2.30397 0
M  V30 10522 C 1014.81 2.42777 -3.57328 0
M  V30 10523 C 1013.94 3.69323 -3.81804 0
M  V30 10524 C 1012.98 3.50041 -5.02133 0
M  V30 10525 N 1012.12 4.68619 -5.2282 0
M  V30 10526 H 1016.96 0.894256 -2.84266 0
M  V30 10527 H 1014.5 0.430187 -1.40669 0
M  V30 10528 H 1016.46 3.3488 -2.4882 0
M  V30 10529 H 1015.09 2.88668 -1.44466 0
M  V30 10530 H 1014.14 1.56078 -3.46906 0
M  V30 10531 H 1015.45 2.24468 -4.45439 0
M  V30 10532 H 1014.6 4.55715 -4.00511 0
M  V30 10533 H 1013.34 3.90595 -2.92039 0
M  V30 10534 H 1012.35 2.62034 -4.8334 0
M  V30 10535 H 1013.57 3.30206 -5.93414 0
M  V30 10536 H 1011.52 4.90139 -4.36005 0
M  V30 10537 H 1011.44 4.53165 -6.05126 0
M  V30 10538 H 1012.7 5.56338 -5.45993 0
M  V30 10539 N 1016.93 1.50896 0.454776 0
M  V30 10540 C 1017.9 1.70377 1.53312 0
M  V30 10541 C 1018.9 0.57408 1.50203 0
M  V30 10542 O 1020.09 0.841374 1.52534 0
M  V30 10543 C 1017.22 1.74411 2.92905 0
M  V30 10544 H 1018.41 2.66599 1.37349 0
M  V30 10545 H 1015.96 1.40622 0.68228 0
M  V30 10546 H 1016.7 0.799408 3.14293 0
M  V30 10547 H 1016.48 2.56496 2.96568 0
M  V30 10548 H 1017.97 1.91382 3.71164 0
M  V30 10549 N 1018.41 -0.709066 1.40748 0
M  V30 10550 C 1019.66 -1.46993 1.40587 0
M  V30 10551 C 1020.01 -1.92397 0.00986301 0
M  V30 10552 O 1019.3 -1.65712 -0.961772 0
M  V30 10553 C 1019.5 -2.70543 2.33541 0
M  V30 10554 C 1019.33 -2.37222 3.82041 0
M  V30 10555 C 1018.1 -2.28244 4.50813 0
M  V30 10556 C 1020.3 -2.01069 4.73367 0
M  V30 10557 N 1018.28 -1.87667 5.84512 0
M  V30 10558 C 1019.65 -1.71144 5.95911 0
M  V30 10559 C 1021.7 -1.87761 4.6114 0
M  V30 10560 C 1020.41 -1.2925 7.07592 0
M  V30 10561 C 1022.43 -1.47271 5.7277 0
M  V30 10562 C 1021.79 -1.18249 6.94404 0
M  V30 10563 H 1017.89 -0.535708 0.569685 0
M  V30 10564 H 1020.48 -0.821669 1.76513 0
M  V30 10565 H 1018.65 -3.33109 1.99733 0
M  V30 10566 H 1020.38 -3.36927 2.24192 0
M  V30 10567 H 1017.14 -2.46199 4.04578 0
M  V30 10568 H 1017.56 -1.69899 6.55335 0
M  V30 10569 H 1022.2 -2.08858 3.67611 0
M  V30 10570 H 1019.92 -1.06896 8.00999 0
M  V30 10571 H 1023.51 -1.37544 5.65308 0
M  V30 10572 H 1022.39 -0.873897 7.79316 0
M  V30 10573 N 1019.89 -1.26353 -0.941956 0
M  V30 10574 C 1021.14 -1.1163 -1.68473 0
M  V30 10575 C 1021.46 0.34108 -1.91994 0
M  V30 10576 O 1020.73 1.24065 -1.51607 0
M  V30 10577 H 1019.31 -0.410113 -0.624353 0
M  V30 10578 H 1021.97 -1.58669 -1.13182 0
M  V30 10579 H 1021.07 -1.63445 -2.6588 0
M  V30 10580 N 1021.37 1.14642 -1.08144 0
M  V30 10581 C 1022.3 2.19283 -0.6669 0
M  V30 10582 C 1023.31 1.60292 0.284668 0
M  V30 10583 O 1024.5 1.78352 0.0727383 0
M  V30 10584 C 1021.6 3.38877 0.0398572 0
M  V30 10585 C 1020.77 4.274 -0.929929 0
M  V30 10586 C 1019.83 5.25562 -0.258991 0
M  V30 10587 O 1018.86 5.61999 -0.902563 0
M  V30 10588 N 1020.06 5.71958 0.992177 0
M  V30 10589 H 1022.83 2.55464 -1.5671 0
M  V30 10590 H 1020.39 1.29836 -0.96717 0
M  V30 10591 H 1022.38 4.01605 0.499583 0
M  V30 10592 H 1020.95 3.01043 0.842118 0
M  V30 10593 H 1020.17 3.61649 -1.56857 0
M  V30 10594 H 1021.46 4.83411 -1.58717 0
M  V30 10595 H 1020.86 5.44481 1.53484 0
M  V30 10596 H 1019.41 6.36687 1.39544 0
M  V30 10597 N 1022.85 0.866709 1.31628 0
M  V30 10598 C 1024.09 0.472185 1.96095 0
M  V30 10599 C 1024.41 -0.979873 1.69286 0
M  V30 10600 O 1025.61 -1.48039 2.27589 0
M  V30 10601 C 1024.07 0.793468 3.51044 0
M  V30 10602 C 1023.68 2.26206 3.86697 0
M  V30 10603 C 1025.42 0.467255 4.21921 0
M  V30 10604 C 1023.33 2.52593 5.34743 0
M  V30 10605 H 1022.26 0.172846 0.733921 0
M  V30 10606 H 1024.91 1.05916 1.49847 0
M  V30 10607 H 1023.29 0.135783 3.95767 0
M  V30 10608 H 1024.47 2.96254 3.52945 0
M  V30 10609 H 1022.78 2.55399 3.28877 0
M  V30 10610 H 1025.38 0.641669 5.30836 0
M  V30 10611 H 1025.72 -0.592065 4.12068 0
M  V30 10612 H 1026.25 1.08134 3.82821 0
M  V30 10613 H 1022.99 3.57196 5.49628 0
M  V30 10614 H 1022.51 1.87136 5.6986 0
M  V30 10615 H 1024.19 2.37156 6.01968 0
M  V30 10616 N 1024.32 -1.44642 0.625825 0
M  V30 10617 C 1025.27 -2.30653 -0.082259 0
M  V30 10618 C 1026.24 -1.43174 -0.842052 0
M  V30 10619 O 1027.43 -1.72082 -0.824151 0
M  V30 10620 C 1024.57 -3.2837 -1.06146 0
M  V30 10621 C 1023.68 -4.30953 -0.300638 0
M  V30 10622 C 1022.81 -5.15766 -1.27118 0
M  V30 10623 C 1021.85 -6.10061 -0.499215 0
M  V30 10624 N 1020.99 -6.87591 -1.41995 0
M  V30 10625 H 1025.83 -2.90664 0.657161 0
M  V30 10626 H 1023.37 -1.43215 0.335859 0
M  V30 10627 H 1025.32 -3.83507 -1.6425 0
M  V30 10628 H 1023.95 -2.70072 -1.76807 0
M  V30 10629 H 1023.01 -3.78331 0.396234 0
M  V30 10630 H 1024.32 -4.97892 0.300851 0
M  V30 10631 H 1023.47 -5.75394 -1.92372 0
M  V30 10632 H 1022.21 -4.48888 -1.9066 0
M  V30 10633 H 1021.22 -5.49547 0.166848 0
M  V30 10634 H 1022.44 -6.78973 0.131409 0
M  V30 10635 H 1020.39 -6.23387 -2.04267 0
M  V30 10636 H 1020.3 -7.5095 -0.872354 0
M  V30 10637 H 1021.57 -7.51746 -2.0615 0
M  V30 10638 N 1025.8 -0.366053 -1.5329 0
M  V30 10639 C 1026.73 0.514916 -2.23341 0
M  V30 10640 C 1027.75 1.04579 -1.24768 0
M  V30 10641 O 1028.94 0.952084 -1.50989 0
M  V30 10642 C 1026.04 1.72374 -2.91788 0
M  V30 10643 C 1025.21 1.32429 -4.16871 0
M  V30 10644 C 1024.27 2.39524 -4.68524 0
M  V30 10645 O 1023.29 2.01895 -5.32191 0
M  V30 10646 N 1024.5 3.71116 -4.46378 0
M  V30 10647 H 1027.26 -0.0851272 -2.99579 0
M  V30 10648 H 1024.82 -0.191255 -1.60766 0
M  V30 10649 H 1026.81 2.43496 -3.23252 0
M  V30 10650 H 1025.38 2.23064 -2.19 0
M  V30 10651 H 1024.6 0.442901 -3.91704 0
M  V30 10652 H 1025.89 1.03372 -4.98188 0
M  V30 10653 H 1025.29 4.04463 -3.95508 0
M  V30 10654 H 1023.85 4.38341 -4.82391 0
M  V30 10655 N 1027.28 1.57312 -0.0952337 0
M  V30 10656 C 1028.23 2.15263 0.881167 0
M  V30 10657 C 1029.22 1.09552 1.29208 0
M  V30 10658 O 1030.43 1.27897 1.26659 0
M  V30 10659 H 1026.8 0.688611 0.302191 0
M  V30 10660 H 1028.77 2.96126 0.367694 0
M  V30 10661 C 1027.52 2.74779 2.13053 0
M  V30 10662 H 1026.85 3.55807 1.82323 0
M  V30 10663 H 1028.29 3.18895 2.79431 0
M  V30 10664 C 1026.74 1.7068 2.90465 0
M  V30 10665 O 1027.27 1.14582 3.85011 0
M  V30 10666 N 1025.48 1.41169 2.54007 0
M  V30 10667 H 1025.03 1.86977 1.77193 0
M  V30 10668 H 1024.99 0.717559 3.06102 0
M  V30 10669 N 1028.76 -0.17846 1.56586 0
M  V30 10670 C 1029.71 -1.24042 1.96765 0
M  V30 10671 C 1030.7 -1.46218 0.855375 0
M  V30 10672 O 1031.91 -1.46882 1.04046 0
M  V30 10673 H 1028.28 -0.416807 0.62592 0
M  V30 10674 H 1030.25 -0.874644 2.85294 0
M  V30 10675 C 1029 -2.57394 2.3376 0
M  V30 10676 H 1028.32 -2.41151 3.18883 0
M  V30 10677 H 1029.76 -3.30405 2.65723 0
M  V30 10678 C 1028.22 -3.15621 1.17835 0
M  V30 10679 O 1028.75 -3.99032 0.462202 0
M  V30 10680 N 1026.96 -2.74606 0.950783 0
M  V30 10681 H 1026.51 -2.06878 1.5349 0
M  V30 10682 H 1026.46 -3.13902 0.176967 0
M  V30 10683 N 1030.24 -1.51135 -0.446768 0
M  V30 10684 C 1031.46 -1.67129 -1.21965 0
M  V30 10685 C 1031.88 -0.36467 -1.85245 0
M  V30 10686 O 1031.24 0.655908 -1.70306 0
M  V30 10687 C 1031.29 -2.78016 -2.31061 0
M  V30 10688 O 1031.01 -4.03615 -1.70371 0
M  V30 10689 C 1032.51 -3.05197 -3.21511 0
M  V30 10690 H 1029.73 -0.561111 -0.367961 0
M  V30 10691 H 1032.27 -1.97499 -0.530517 0
M  V30 10692 H 1030.43 -2.50272 -2.95707 0
M  V30 10693 H 1030.84 -4.65126 -2.424 0
M  V30 10694 H 1032.32 -3.8639 -3.94216 0
M  V30 10695 H 1032.79 -2.17228 -3.81718 0
M  V30 10696 H 1033.4 -3.34565 -2.62577 0
M  V30 10697 N 1031.71 0.701592 -1.41122 0
M  V30 10698 C 1032.68 1.79733 -1.42227 0
M  V30 10699 C 1033.68 1.57708 -0.313831 0
M  V30 10700 O 1034.87 1.64492 -0.573423 0
M  V30 10701 C 1032 3.18024 -1.22775 0
M  V30 10702 H 1033.19 1.80148 -2.39764 0
M  V30 10703 H 1030.74 0.908624 -1.27176 0
M  V30 10704 H 1031.48 3.23252 -0.260552 0
M  V30 10705 H 1031.26 3.35411 -2.0308 0
M  V30 10706 H 1032.75 3.98021 -1.2637 0
M  V30 10707 N 1033.19 1.2685 0.935242 0
M  V30 10708 C 1034.44 1.12132 1.67658 0
M  V30 10709 C 1034.75 -0.333839 1.9273 0
M  V30 10710 O 1035.96 -0.601801 2.64746 0
M  V30 10711 C 1034.42 1.95873 3.0193 0
M  V30 10712 C 1034.02 3.46 2.84584 0
M  V30 10713 C 1035.77 1.89781 3.79715 0
M  V30 10714 C 1033.67 4.21966 4.14365 0
M  V30 10715 H 1032.6 0.416035 0.628833 0
M  V30 10716 H 1035.26 1.51209 1.03962 0
M  V30 10717 H 1033.64 1.49633 3.66641 0
M  V30 10718 H 1034.81 4.00049 2.28687 0
M  V30 10719 H 1033.13 3.53391 2.20236 0
M  V30 10720 H 1035.72 2.43819 4.75875 0
M  V30 10721 H 1036.07 0.869797 4.07112 0
M  V30 10722 H 1036.6 2.33875 3.21788 0
M  V30 10723 H 1033.34 5.2526 3.9215 0
M  V30 10724 H 1032.86 3.72696 4.69955 0
M  V30 10725 H 1034.54 4.30734 4.82781 0
M  V30 10726 N 1034.67 -1.14067 1.0875 0
M  V30 10727 C 1035.92 -1.85459 0.82053 0
M  V30 10728 C 1036.25 -1.82923 -0.65213 0
M  V30 10729 O 1035.52 -1.26241 -1.47965 0
M  V30 10730 C 1035.81 -3.33937 1.34752 0
M  V30 10731 C 1035.66 -3.45026 2.88578 0
M  V30 10732 C 1036.98 -4.2915 0.975636 0
M  V30 10733 H 1034.1 -0.673384 0.299538 0
M  V30 10734 H 1036.74 -1.33927 1.34772 0
M  V30 10735 H 1034.89 -3.77953 0.899086 0
M  V30 10736 H 1036.56 -3.09771 3.41818 0
M  V30 10737 H 1034.81 -2.86124 3.26061 0
M  V30 10738 H 1035.48 -4.49408 3.20526 0
M  V30 10739 H 1037.95 -3.93168 1.36228 0
M  V30 10740 H 1036.83 -5.31489 1.37152 0
M  V30 10741 H 1037.09 -4.41945 -0.116956 0
M  V30 10742 N 1036.15 -0.873678 -1.31166 0
M  V30 10743 C 1037.37 -0.500242 -2.01277 0
M  V30 10744 C 1037.8 0.900811 -1.65127 0
M  V30 10745 O 1037.16 1.59504 -0.861862 0
M  V30 10746 C 1037.2 -0.668976 -3.5434 0
M  V30 10747 O 1036.31 0.290096 -4.11378 0
M  V30 10748 H 1035.65 -0.198507 -0.633633 0
M  V30 10749 H 1038.18 -1.17811 -1.67277 0
M  V30 10750 H 1038.19 -0.563673 -4.04088 0
M  V30 10751 H 1036.86 -1.69055 -3.79991 0
M  V30 10752 H 1035.44 0.139437 -3.72639 0
M  V30 10753 N 1037.63 1.44308 -0.633487 0
M  V30 10754 C 1038.87 2.02322 -0.139123 0
M  V30 10755 C 1039.21 1.49733 1.23667 0
M  V30 10756 O 1038.48 0.682353 1.82138 0
M  V30 10757 C 1038.76 3.59871 -0.128366 0
M  V30 10758 C 1038.62 4.22737 -1.53667 0
M  V30 10759 C 1039.94 4.36702 0.545834 0
M  V30 10760 H 1037.05 0.735161 -0.0520293 0
M  V30 10761 H 1039.7 1.7185 -0.810411 0
M  V30 10762 H 1037.85 3.85963 0.443263 0
M  V30 10763 H 1039.52 4.07744 -2.15737 0
M  V30 10764 H 1037.76 3.80142 -2.08985 0
M  V30 10765 H 1038.43 5.31757 -1.48116 0
M  V30 10766 H 1040.91 4.16057 0.0596879 0
M  V30 10767 H 1039.78 5.46407 0.522557 0
M  V30 10768 H 1040.05 4.11483 1.6166 0
M  V30 10769 N 1039.1 0.374177 1.53094 0
M  V30 10770 C 1040.35 -0.213981 2.00562 0
M  V30 10771 C 1040.67 -1.4916 1.26533 0
M  V30 10772 O 1041.87 -2.15889 1.64634 0
M  V30 10773 C 1040.33 -0.431876 3.57299 0
M  V30 10774 C 1039.94 0.831615 4.40214 0
M  V30 10775 C 1041.68 -0.977222 4.13099 0
M  V30 10776 C 1039.59 0.582831 5.88521 0
M  V30 10777 H 1038.52 -0.0837386 0.749336 0
M  V30 10778 H 1041.17 0.494245 1.76719 0
M  V30 10779 H 1039.55 -1.20158 3.7733 0
M  V30 10780 H 1040.72 1.60477 4.31953 0
M  V30 10781 H 1039.04 1.30081 3.9556 0
M  V30 10782 H 1041.64 -1.17881 5.21544 0
M  V30 10783 H 1041.98 -1.94189 3.68234 0
M  V30 10784 H 1042.51 -0.267473 3.969 0
M  V30 10785 H 1039.25 1.51807 6.37679 0
M  V30 10786 H 1038.77 -0.151666 5.99608 0
M  V30 10787 H 1040.45 0.211604 6.46654 0
M  V30 10788 N 1040.58 -1.57259 0.103575 0
M  V30 10789 C 1041.51 -2.17509 -0.84923 0
M  V30 10790 C 1042.49 -1.11079 -1.28824 0
M  V30 10791 O 1043.68 -1.39252 -1.35361 0
M  V30 10792 C 1040.81 -2.76221 -2.10522 0
M  V30 10793 C 1039.76 -3.88098 -1.80454 0
M  V30 10794 C 1039.09 -4.33549 -3.12952 0
M  V30 10795 C 1040.39 -5.10909 -1.08486 0
M  V30 10796 H 1042.08 -2.9738 -0.347217 0
M  V30 10797 H 1039.63 -1.43045 -0.165568 0
M  V30 10798 H 1041.58 -3.17024 -2.77621 0
M  V30 10799 H 1040.31 -1.93617 -2.63021 0
M  V30 10800 H 1038.96 -3.47847 -1.15749 0
M  V30 10801 H 1038.61 -3.47825 -3.63355 0
M  V30 10802 H 1038.31 -5.08984 -2.93614 0
M  V30 10803 H 1039.84 -4.76992 -3.81196 0
M  V30 10804 H 1041.25 -5.48828 -1.65711 0
M  V30 10805 H 1039.65 -5.91828 -0.992973 0
M  V30 10806 H 1040.72 -4.84851 -0.0690108 0
M  V30 10807 N 1042.06 0.170153 -1.56679 0
M  V30 10808 C 1043.01 1.21064 -1.965 0
M  V30 10809 C 1043.98 1.43928 -0.829092 0
M  V30 10810 O 1045.16 1.56649 -1.08931 0
M  V30 10811 C 1042.3 2.54468 -2.33109 0
M  V30 10812 C 1041.42 2.38974 -3.59883 0
M  V30 10813 C 1040.55 3.65252 -3.857 0
M  V30 10814 C 1039.59 3.44696 -5.05817 0
M  V30 10815 N 1038.73 4.63047 -5.27761 0
M  V30 10816 H 1043.57 0.864055 -2.85198 0
M  V30 10817 H 1041.1 0.415243 -1.41117 0
M  V30 10818 H 1043.06 3.32222 -2.52358 0
M  V30 10819 H 1041.69 2.8712 -1.4752 0
M  V30 10820 H 1040.74 1.5239 -3.48542 0
M  V30 10821 H 1042.06 2.19731 -4.47794 0
M  V30 10822 H 1041.21 4.51441 -4.05322 0
M  V30 10823 H 1039.95 3.87475 -2.96166 0
M  V30 10824 H 1038.95 2.56893 -4.86092 0
M  V30 10825 H 1040.18 3.23894 -5.96883 0
M  V30 10826 H 1038.12 4.85487 -4.41179 0
M  V30 10827 H 1038.04 4.46722 -6.09898 0
M  V30 10828 H 1039.31 5.50516 -5.51863 0
M  V30 10829 N 1043.54 1.5137 0.438746 0
M  V30 10830 C 1044.76 1.68058 1.21537 0
M  V30 10831 C 1045.19 0.376787 1.84288 0
M  V30 10832 O 1044.55 -0.662911 1.68746 0
M  V30 10833 C 1044.59 2.79684 2.27616 0
M  V30 10834 O 1043.7 2.43189 3.33066 0
M  V30 10835 H 1043.04 0.560408 0.356144 0
M  V30 10836 H 1045.57 1.97926 0.518311 0
M  V30 10837 H 1045.58 3.03726 2.72423 0
M  V30 10838 H 1044.25 3.74293 1.81321 0
M  V30 10839 H 1042.83 2.29713 2.93746 0
M  V30 10840 N 1045.02 -0.694098 1.41492 0
M  V30 10841 C 1046.29 -1.44875 1.31418 0
M  V30 10842 C 1046.67 -2.11022 -0.0575538 0
M  V30 10843 O 1046.02 -2.01799 -1.07188 0
M  V30 10844 C 1046.23 -2.46698 2.46863 0
M  V30 10845 C 1047.58 -3.11907 2.88095 0
M  V30 10846 O 1048.6 -2.57022 2.46613 0
M  V30 10847 O 1047.46 -4.11318 3.59833 0
M  V30 10848 H 1044.56 -0.645266 0.517263 0
M  V30 10849 H 1047.1 -0.724452 1.53459 0
M  V30 10850 H 1045.87 -1.96485 3.38392 0
M  V30 10851 H 1045.5 -3.26634 2.26706 0
M  V30 10852 N 1046.49 -1.27344 -0.928501 0
M  V30 10853 C 1047.42 -1.12517 -2.04602 0
M  V30 10854 C 1048.41 -0.0268563 -1.70079 0
M  V30 10855 O 1049.59 -0.201197 -1.93155 0
M  V30 10856 C 1046.72 -0.770749 -3.3864 0
M  V30 10857 C 1045.67 -1.8222 -3.87272 0
M  V30 10858 C 1045 -1.32178 -5.18105 0
M  V30 10859 C 1046.3 -3.22614 -4.10752 0
M  V30 10860 H 1047.99 -2.06 -2.17265 0
M  V30 10861 H 1045.54 -0.991827 -1.04397 0
M  V30 10862 H 1047.49 -0.653843 -4.16297 0
M  V30 10863 H 1046.22 0.19979 -3.25988 0
M  V30 10864 H 1044.88 -1.928 -3.11807 0
M  V30 10865 H 1044.52 -0.340719 -5.01845 0
M  V30 10866 H 1044.22 -2.02474 -5.51614 0
M  V30 10867 H 1045.75 -1.2178 -5.98333 0
M  V30 10868 H 1047.16 -3.1504 -4.78981 0
M  V30 10869 H 1045.56 -3.90614 -4.55566 0
M  V30 10870 H 1046.63 -3.67727 -3.16077 0
M  V30 10871 N 1047.97 1.13488 -1.09353 0
M  V30 10872 C 1048.91 2.17951 -0.67622 0
M  V30 10873 C 1049.88 1.59482 0.316906 0
M  V30 10874 O 1051.07 1.8723 0.218459 0
M  V30 10875 C 1048.19 3.387 0.00391024 0
M  V30 10876 C 1047.24 4.15764 -0.950906 0
M  V30 10877 S 1048.07 4.75517 -2.46259 0
M  V30 10878 C 1049.23 5.99613 -1.79485 0
M  V30 10879 H 1049.46 2.53012 -1.56115 0
M  V30 10880 H 1047 1.24773 -0.909447 0
M  V30 10881 H 1048.95 4.08643 0.39002 0
M  V30 10882 H 1047.61 3.01941 0.86548 0
M  V30 10883 H 1046.81 5.02229 -0.422086 0
M  V30 10884 H 1046.41 3.51473 -1.27838 0
M  V30 10885 H 1048.7 6.68204 -1.11846 0
M  V30 10886 H 1049.64 6.57102 -2.63862 0
M  V30 10887 H 1050.05 5.50165 -1.26409 0
M  V30 10888 N 1049.45 0.880621 1.30701 0
M  V30 10889 C 1050.68 0.51094 2.00182 0
M  V30 10890 C 1051.09 -0.903914 1.66211 0
M  V30 10891 O 1050.43 -1.60529 0.893089 0
M  V30 10892 C 1050.49 0.600775 3.54445 0
M  V30 10893 C 1050.16 1.97915 4.1192 0
M  V30 10894 C 1051.16 2.94802 4.28238 0
M  V30 10895 C 1048.84 2.28336 4.47401 0
M  V30 10896 C 1050.83 4.20245 4.79242 0
M  V30 10897 C 1048.52 3.54026 4.98105 0
M  V30 10898 C 1049.52 4.49796 5.13978 0
M  V30 10899 O 1049.21 5.73256 5.63589 0
M  V30 10900 H 1048.94 0.196477 0.646818 0
M  V30 10901 H 1051.49 1.18659 1.67658 0
M  V30 10902 H 1049.72 -0.131832 3.86475 0
M  V30 10903 H 1051.41 0.242996 4.05172 0
M  V30 10904 H 1052.18 2.7261 4.01134 0
M  V30 10905 H 1048.06 1.54564 4.34317 0
M  V30 10906 H 1051.6 4.95003 4.91546 0
M  V30 10907 H 1047.5 3.76057 5.24644 0
M  V30 10908 H 1048.27 5.75577 5.81939 0
M  V30 10909 N 1050.93 -1.4397 0.641131 0
M  V30 10910 C 1052.21 -1.95436 0.0800918 0
M  V30 10911 C 1052.59 -1.58282 -1.39678 0
M  V30 10912 O 1051.93 -0.861867 -2.11623 0
M  V30 10913 C 1052.14 -3.47589 0.313531 0
M  V30 10914 C 1053.49 -4.2407 0.212034 0
M  V30 10915 O 1054.52 -3.55353 0.245434 0
M  V30 10916 O 1053.38 -5.46356 0.125455 0
M  V30 10917 H 1050.47 -0.826834 -0.0165735 0
M  V30 10918 H 1053.02 -1.5397 0.71353 0
M  V30 10919 H 1051.79 -3.67716 1.33793 0
M  V30 10920 H 1051.41 -3.96025 -0.353563 0
M  V30 10921 N 1052.41 -0.382291 -1.52893 0
M  V30 10922 C 1053.82 -0.031941 -1.59568 0
M  V30 10923 C 1054.02 1.45245 -1.39664 0
M  V30 10924 O 1053.08 2.21612 -1.21013 0
M  V30 10925 C 1054.39 -0.502846 -2.96466 0
M  V30 10926 C 1055.94 -0.4585 -3.09624 0
M  V30 10927 C 1056.42 -0.905481 -4.4896 0
M  V30 10928 N 1057.91 -0.861211 -4.55124 0
M  V30 10929 C 1058.64 -1.17856 -5.61157 0
M  V30 10930 N 1058.14 -1.56603 -6.74868 0
M  V30 10931 N 1059.93 -1.10027 -5.51226 0
M  V30 10932 H 1052.08 -1.34875 -1.64081 0
M  V30 10933 H 1054.34 -0.552375 -0.770446 0
M  V30 10934 H 1054.05 -1.53931 -3.16225 0
M  V30 10935 H 1053.92 0.101777 -3.77063 0
M  V30 10936 H 1056.31 0.568868 -2.89565 0
M  V30 10937 H 1056.39 -1.09884 -2.30996 0
M  V30 10938 H 1056.04 -1.93105 -4.69759 0
M  V30 10939 H 1055.97 -0.242227 -5.26043 0
M  V30 10940 H 1058.46 -0.575988 -3.73485 0
M  V30 10941 H 1058.77 -1.792 -7.51736 0
M  V30 10942 H 1057.12 -1.60484 -6.76217 0
M  V30 10943 H 1060.31 -0.796623 -4.61272 0
M  V30 10944 H 1060.48 -1.35091 -6.33762 0
M  V30 10945 N 1053.89 1.57202 -0.111913 0
M  V30 10946 C 1054.82 2.17957 0.837683 0
M  V30 10947 C 1055.8 1.1176 1.28233 0
M  V30 10948 O 1056.98 1.39967 1.34621 0
M  V30 10949 C 1054.11 2.77333 2.09054 0
M  V30 10950 C 1053.07 3.8905 1.78393 0
M  V30 10951 C 1052.39 4.35203 3.10649 0
M  V30 10952 C 1053.69 5.11477 1.05775 0
M  V30 10953 H 1055.39 2.9756 0.331441 0
M  V30 10954 H 1052.93 1.43131 0.157979 0
M  V30 10955 H 1054.88 3.18492 2.75936 0
M  V30 10956 H 1053.61 1.95009 2.6199 0
M  V30 10957 H 1052.27 3.48456 1.13903 0
M  V30 10958 H 1051.92 3.49747 3.61506 0
M  V30 10959 H 1051.62 5.10534 2.9091 0
M  V30 10960 H 1053.14 4.79007 3.78661 0
M  V30 10961 H 1054.55 5.497 1.62798 0
M  V30 10962 H 1052.95 5.92346 0.961573 0
M  V30 10963 H 1054.02 4.84881 0.043297 0
M  V30 10964 N 1055.36 -0.161842 1.56767 0
M  V30 10965 C 1056.59 -0.896274 1.87034 0
M  V30 10966 C 1057.01 -1.74617 0.699314 0
M  V30 10967 O 1056.37 -1.77861 -0.351435 0
M  V30 10968 C 1056.42 -1.74105 3.15784 0
M  V30 10969 O 1055.52 -2.84372 2.98674 0
M  V30 10970 H 1054.86 -0.250523 0.614926 0
M  V30 10971 H 1057.39 -0.157127 2.03996 0
M  V30 10972 H 1057.4 -2.13907 3.4743 0
M  V30 10973 H 1056.08 -1.11684 4.00624 0
M  V30 10974 H 1054.66 -2.48084 2.78404 0
M  V30 10975 N 1056.84 -1.516 -0.430713 0
M  V30 10976 C 1058.09 -1.6484 -1.18134 0
M  V30 10977 C 1058.42 -0.366725 -1.90706 0
M  V30 10978 O 1057.7 0.63398 -1.83878 0
M  V30 10979 C 1057.98 -2.85617 -2.19306 0
M  V30 10980 C 1057.83 -4.23778 -1.50773 0
M  V30 10981 C 1059.15 -3.01909 -3.20217 0
M  V30 10982 H 1056.27 -0.599907 -0.428113 0
M  V30 10983 H 1058.91 -1.84102 -0.46973 0
M  V30 10984 H 1057.06 -2.69325 -2.79993 0
M  V30 10985 H 1058.73 -4.51752 -0.93371 0
M  V30 10986 H 1056.98 -4.26171 -0.809966 0
M  V30 10987 H 1057.65 -5.04291 -2.24487 0
M  V30 10988 H 1060.12 -3.16956 -2.69589 0
M  V30 10989 H 1059 -3.87968 -3.88293 0
M  V30 10990 H 1059.26 -2.1427 -3.86705 0
M  V30 10991 N 1058.32 0.686584 -1.41858 0
M  V30 10992 C 1059.25 1.81264 -1.47193 0
M  V30 10993 C 1060.23 1.66875 -0.329657 0
M  V30 10994 O 1061.42 1.86473 -0.542347 0
M  V30 10995 C 1058.55 3.19472 -1.36216 0
M  V30 10996 C 1057.5 3.4858 -2.48347 0
M  V30 10997 C 1056.83 4.86239 -2.22432 0
M  V30 10998 C 1058.13 3.46653 -3.90678 0
M  V30 10999 H 1059.82 1.77057 -2.41436 0
M  V30 11000 H 1057.37 0.850415 -1.16206 0
M  V30 11001 H 1059.32 3.97969 -1.38558 0
M  V30 11002 H 1058.04 3.24327 -0.384611 0
M  V30 11003 H 1056.7 2.72437 -2.45303 0
M  V30 11004 H 1056.35 4.8773 -1.22999 0
M  V30 11005 H 1056.05 5.06677 -2.97577 0
M  V30 11006 H 1057.57 5.67034 -2.26505 0
M  V30 11007 H 1058.99 4.15139 -3.95389 0
M  V30 11008 H 1057.38 3.78625 -4.65578 0
M  V30 11009 H 1058.45 2.45451 -4.18189 0
M  V30 11010 N 1059.8 1.27835 0.921735 0
M  V30 11011 C 1061.05 1.13904 1.6646 0
M  V30 11012 C 1061.36 -0.313379 1.93073 0
M  V30 11013 O 1062.57 -0.573687 2.6537 0
M  V30 11014 C 1061.02 1.99064 2.99836 0
M  V30 11015 C 1060.63 3.48998 2.80899 0
M  V30 11016 C 1062.37 1.93797 3.77681 0
M  V30 11017 C 1060.28 4.26337 4.09867 0
M  V30 11018 H 1059.21 0.422681 0.624385 0
M  V30 11019 H 1061.86 1.52303 1.02352 0
M  V30 11020 H 1060.24 1.53514 3.65034 0
M  V30 11021 H 1061.42 4.02452 2.24431 0
M  V30 11022 H 1059.73 3.55707 2.16476 0
M  V30 11023 H 1062.33 2.48852 4.73262 0
M  V30 11024 H 1062.67 0.912928 4.06167 0
M  V30 11025 H 1063.21 2.37275 3.19289 0
M  V30 11026 H 1059.94 5.2939 3.86557 0
M  V30 11027 H 1059.46 3.77659 4.65976 0
M  V30 11028 H 1061.14 4.3583 4.78185 0
M  V30 11029 N 1061.28 -1.12907 1.09954 0
M  V30 11030 C 1062.55 -1.80602 0.751148 0
M  V30 11031 C 1062.93 -1.96826 -0.763077 0
M  V30 11032 O 1062.28 -1.54066 -1.68749 0
M  V30 11033 C 1062.49 -3.15289 1.49646 0
M  V30 11034 C 1063.84 -3.9056 1.66578 0
M  V30 11035 O 1064.86 -3.24929 1.45943 0
M  V30 11036 O 1063.72 -5.08292 2.00752 0
M  V30 11037 H 1060.82 -0.781529 0.270446 0
M  V30 11038 H 1063.36 -1.19786 1.20206 0
M  V30 11039 H 1062.13 -2.9874 2.52725 0
M  V30 11040 H 1061.76 -3.83809 1.03808 0
M  V30 11041 N 1062.75 -0.88754 -1.30232 0
M  V30 11042 C 1064 -0.508031 -1.96334 0
M  V30 11043 C 1064.33 0.940905 -1.69884 0
M  V30 11044 O 1063.61 1.66523 -1.005 0
M  V30 11045 C 1063.89 -0.786566 -3.51405 0
M  V30 11046 C 1063.74 -2.28632 -3.8736 0
M  V30 11047 C 1065.06 -0.264803 -4.39303 0
M  V30 11048 H 1062.18 -0.186051 -0.71313 0
M  V30 11049 H 1064.82 -1.112 -1.5406 0
M  V30 11050 H 1062.97 -0.272523 -3.87543 0
M  V30 11051 H 1064.65 -2.86896 -3.61231 0
M  V30 11052 H 1062.89 -2.75194 -3.35337 0
M  V30 11053 H 1063.56 -2.43181 -4.95547 0
M  V30 11054 H 1066.04 -0.704809 -4.10087 0
M  V30 11055 H 1064.91 -0.488998 -5.46717 0
M  V30 11056 H 1065.17 0.834055 -4.34161 0
M  V30 11057 N 1064.23 1.43628 -0.648757 0
M  V30 11058 C 1065.16 2.33478 0.0320785 0
M  V30 11059 C 1066.14 1.49217 0.816605 0
M  V30 11060 O 1067.33 1.77892 0.778974 0
M  V30 11061 C 1064.46 3.32525 1.00222 0
M  V30 11062 C 1063.41 4.2674 0.328119 0
M  V30 11063 C 1062.74 5.15791 1.4094 0
M  V30 11064 C 1064.04 5.16493 -0.776701 0
M  V30 11065 H 1065.73 2.90657 -0.718257 0
M  V30 11066 H 1063.28 1.3976 -0.346852 0
M  V30 11067 H 1065.23 3.94277 1.4874 0
M  V30 11068 H 1063.96 2.73593 1.78366 0
M  V30 11069 H 1062.61 3.66346 -0.136569 0
M  V30 11070 H 1062.26 4.53201 2.18216 0
M  V30 11071 H 1061.96 5.79645 0.963631 0
M  V30 11072 H 1063.49 5.80416 1.89603 0
M  V30 11073 H 1064.9 5.7208 -0.373878 0
M  V30 11074 H 1063.3 5.89043 -1.14667 0
M  V30 11075 H 1064.37 4.56448 -1.63654 0
M  V30 11076 N 1065.71 0.390394 1.52688 0
M  V30 11077 C 1066.67 -0.432149 2.25089 0
M  V30 11078 C 1067.67 -0.989296 1.26766 0
M  V30 11079 O 1068.86 -0.871126 1.50854 0
M  V30 11080 C 1066 -1.60642 3.00678 0
M  V30 11081 H 1067.19 0.201734 2.99221 0
M  V30 11082 H 1064.74 0.142531 1.55649 0
M  V30 11083 H 1065.48 -2.2777 2.3085 0
M  V30 11084 H 1065.26 -1.21361 3.72846 0
M  V30 11085 H 1066.75 -2.18873 3.55647 0
M  V30 11086 N 1067.19 -1.57141 0.120249 0
M  V30 11087 C 1068.1 -2.18925 -0.843155 0
M  V30 11088 C 1069.11 -1.16575 -1.29175 0
M  V30 11089 O 1070.29 -1.4905 -1.35448 0
M  V30 11090 C 1067.36 -2.7775 -2.075 0
M  V30 11091 C 1066.42 -3.95139 -1.6782 0
M  V30 11092 C 1065.65 -4.51149 -2.85132 0
M  V30 11093 O 1065.87 -4.06056 -4.00593 0
M  V30 11094 O 1064.81 -5.41815 -2.62145 0
M  V30 11095 H 1068.63 -3.01707 -0.347357 0
M  V30 11096 H 1066.22 -1.49028 -0.105427 0
M  V30 11097 H 1068.1 -3.15243 -2.79643 0
M  V30 11098 H 1066.77 -1.97998 -2.56083 0
M  V30 11099 H 1065.68 -3.62412 -0.927807 0
M  V30 11100 H 1067.01 -4.7633 -1.23977 0
M  V30 11101 N 1068.67 0.153526 -1.5685 0
M  V30 11102 C 1069.58 1.20932 -2.01029 0
M  V30 11103 C 1070.59 1.47401 -0.924598 0
M  V30 11104 O 1071.77 1.592 -1.23359 0
M  V30 11105 C 1068.83 2.52438 -2.37647 0
M  V30 11106 C 1067.89 2.33673 -3.60132 0
M  V30 11107 C 1067.13 3.58909 -3.94994 0
M  V30 11108 O 1067.35 4.64823 -3.30599 0
M  V30 11109 O 1066.28 3.5196 -4.8827 0
M  V30 11110 H 1070.11 0.864273 -2.91143 0
M  V30 11111 H 1067.7 0.361755 -1.44954 0
M  V30 11112 H 1069.58 3.29981 -2.62088 0
M  V30 11113 H 1068.25 2.86486 -1.5069 0
M  V30 11114 H 1067.16 1.54102 -3.40886 0
M  V30 11115 H 1068.49 2.04544 -4.47686 0
M  V30 11116 N 1070.14 1.51827 0.422667 0
M  V30 11117 C 1071.11 1.7359 1.49663 0
M  V30 11118 C 1072.11 0.605811 1.48952 0
M  V30 11119 O 1073.3 0.87354 1.50715 0
M  V30 11120 C 1070.43 1.80585 2.8914 0
M  V30 11121 H 1071.62 2.69453 1.31664 0
M  V30 11122 H 1069.18 1.42038 0.652298 0
M  V30 11123 H 1069.91 0.865895 3.12526 0
M  V30 11124 H 1069.7 2.62729 2.9106 0
M  V30 11125 H 1071.19 1.99212 3.67021 0
M  V30 11126 N 1071.62 -0.679052 1.4222 0
M  V30 11127 C 1072.59 -1.77448 1.45069 0
M  V30 11128 C 1073.59 -1.57189 0.338882 0
M  V30 11129 O 1074.78 -1.63559 0.599519 0
M  V30 11130 C 1071.91 -3.1603 1.27819 0
M  V30 11131 H 1073.1 -1.7631 2.426 0
M  V30 11132 H 1070.65 -0.888277 1.28605 0
M  V30 11133 H 1071.39 -3.22796 0.311946 0
M  V30 11134 H 1071.17 -3.32138 2.08391 0
M  V30 11135 H 1072.66 -3.9596 1.32686 0
M  V30 11136 N 1073.1 -1.28322 -0.914942 0
M  V30 11137 C 1074.06 -1.12169 -1.99877 0
M  V30 11138 C 1075.06 -0.0617252 -1.60681 0
M  V30 11139 O 1076.25 -0.307405 -1.71466 0
M  V30 11140 C 1073.39 -0.711959 -3.33383 0
M  V30 11141 H 1074.58 -2.08425 -2.15636 0
M  V30 11142 H 1072.13 -1.11291 -1.09745 0
M  V30 11143 H 1072.87 0.251418 -3.23324 0
M  V30 11144 H 1072.65 -1.47764 -3.63192 0
M  V30 11145 H 1074.14 -0.621558 -4.12948 0
M  V30 11146 N 1074.58 1.12322 -1.10551 0
M  V30 11147 C 1075.81 1.87679 -0.87087 0
M  V30 11148 C 1076.22 1.79711 0.578733 0
M  V30 11149 O 1075.58 1.17185 1.39907 0
M  V30 11150 C 1075.63 3.36846 -1.31213 0
M  V30 11151 O 1075.35 3.44626 -2.70489 0
M  V30 11152 C 1076.85 4.29138 -1.11156 0
M  V30 11153 H 1074.07 0.593788 -0.3125 0
M  V30 11154 H 1076.62 1.42116 -1.47048 0
M  V30 11155 H 1074.77 3.79948 -0.756169 0
M  V30 11156 H 1075.18 4.37441 -2.89389 0
M  V30 11157 H 1076.66 5.32082 -1.46944 0
M  V30 11158 H 1077.14 4.39171 -0.0502963 0
M  V30 11159 H 1077.74 3.91818 -1.65405 0
M  V30 11160 N 1076.06 0.894434 1.2976 0
M  V30 11161 C 1077.28 0.5322 2.00455 0
M  V30 11162 C 1077.71 -0.874427 1.66539 0
M  V30 11163 O 1077.06 -1.58113 0.887129 0
M  V30 11164 C 1077.11 0.725264 3.53231 0
M  V30 11165 O 1076.22 -0.224612 4.11788 0
M  V30 11166 H 1075.56 0.208562 0.630395 0
M  V30 11167 H 1078.09 1.20458 1.65382 0
M  V30 11168 H 1078.1 0.627889 4.0314 0
M  V30 11169 H 1076.77 1.75079 3.77253 0
M  V30 11170 H 1075.35 -0.0801361 3.72814 0
M  V30 11171 N 1077.53 -1.43282 0.656365 0
M  V30 11172 C 1078.5 -2.29188 -0.0239173 0
M  V30 11173 C 1079.5 -1.42373 -0.747436 0
M  V30 11174 O 1080.69 -1.63969 -0.588213 0
M  V30 11175 C 1077.82 -3.24501 -1.0446 0
M  V30 11176 H 1079.01 -2.9083 0.731978 0
M  V30 11177 H 1076.57 -1.50614 0.417752 0
M  V30 11178 H 1077.3 -2.6776 -1.82962 0
M  V30 11179 H 1077.09 -3.88509 -0.52942 0
M  V30 11180 H 1078.58 -3.88971 -1.51958 0
M  V30 11181 N 1079.01 -0.398486 -1.52479 0
M  V30 11182 C 1079.92 0.439328 -2.3045 0
M  V30 11183 C 1080.94 1.06322 -1.37738 0
M  V30 11184 O 1082.12 1.06704 -1.7081 0
M  V30 11185 C 1079.18 1.54655 -3.10294 0
M  V30 11186 C 1078.24 0.946824 -4.18729 0
M  V30 11187 C 1077.47 2.00129 -4.94757 0
M  V30 11188 O 1077.7 3.2178 -4.70971 0
M  V30 11189 O 1076.63 1.61345 -5.79872 0
M  V30 11190 H 1080.46 -0.196118 -3.03066 0
M  V30 11191 H 1078.04 -0.161961 -1.4852 0
M  V30 11192 H 1079.92 2.18958 -3.60049 0
M  V30 11193 H 1078.6 2.1668 -2.40482 0
M  V30 11194 H 1077.51 0.266802 -3.73147 0
M  V30 11195 H 1078.84 0.370664 -4.90802 0
M  V30 11196 N 1080.49 1.57075 -0.12858 0
M  V30 11197 C 1081.44 2.15816 0.818064 0
M  V30 11198 C 1082.41 1.08581 1.25696 0
M  V30 11199 O 1083.59 1.36535 1.33277 0
M  V30 11200 C 1080.73 2.76943 2.05905 0
M  V30 11201 C 1079.85 3.98514 1.66764 0
M  V30 11202 C 1078.98 4.47698 2.85902 0
M  V30 11203 C 1078.02 5.61778 2.43047 0
M  V30 11204 N 1077.16 6.05662 3.5513 0
M  V30 11205 H 1082 2.9638 0.310318 0
M  V30 11206 H 1079.53 1.46418 0.141472 0
M  V30 11207 H 1081.49 3.10519 2.78629 0
M  V30 11208 H 1080.12 1.99053 2.54122 0
M  V30 11209 H 1079.17 3.71038 0.838766 0
M  V30 11210 H 1080.49 4.81215 1.31277 0
M  V30 11211 H 1079.64 4.83233 3.66839 0
M  V30 11212 H 1078.38 3.63967 3.24622 0
M  V30 11213 H 1077.38 5.25838 1.60544 0
M  V30 11214 H 1078.61 6.47282 2.05433 0
M  V30 11215 H 1076.56 5.2487 3.93506 0
M  V30 11216 H 1076.47 6.83242 3.23598 0
M  V30 11217 H 1077.74 6.45838 4.36479 0
M  V30 11218 N 1081.97 -0.145205 1.5693 0
M  V30 11219 C 1083.19 -0.876386 1.87974 0
M  V30 11220 C 1083.62 -1.73866 0.717795 0
M  V30 11221 O 1082.98 -1.78224 -0.332551 0
M  V30 11222 C 1083.03 -1.70746 3.17613 0
M  V30 11223 O 1082.13 -2.81188 3.01674 0
M  V30 11224 H 1081.47 -0.243987 0.617549 0
M  V30 11225 H 1084 -0.135482 2.04151 0
M  V30 11226 H 1084.01 -2.1021 3.49679 0
M  V30 11227 H 1082.69 -1.07429 4.01786 0
M  V30 11228 H 1081.26 -2.45117 2.81019 0
M  V30 11229 N 1083.45 -1.52049 -0.414609 0
M  V30 11230 C 1084.41 -1.74382 -1.4874 0
M  V30 11231 C 1085.41 -0.613701 -1.48628 0
M  V30 11232 O 1086.6 -0.88152 -1.50249 0
M  V30 11233 C 1083.73 -1.82116 -2.88178 0
M  V30 11234 H 1084.93 -2.70147 -1.30233 0
M  V30 11235 H 1082.48 -1.42382 -0.644756 0
M  V30 11236 H 1083.21 -0.882457 -3.12063 0
M  V30 11237 H 1083 -2.64268 -2.89663 0
M  V30 11238 H 1084.49 -2.01155 -3.65959 0
M  V30 11239 N 1084.93 0.6715 -1.42579 0
M  V30 11240 C 1086.15 1.45972 -1.46628 0
M  V30 11241 C 1086.57 1.88636 -0.0785986 0
M  V30 11242 O 1085.93 1.58345 0.907372 0
M  V30 11243 C 1085.98 2.70668 -2.39627 0
M  V30 11244 O 1085.7 2.29793 -3.72997 0
M  V30 11245 C 1087.2 3.64201 -2.52731 0
M  V30 11246 H 1084.42 0.449044 -0.498598 0
M  V30 11247 H 1086.96 0.824811 -1.87129 0
M  V30 11248 H 1085.12 3.3034 -2.02371 0
M  V30 11249 H 1085.53 3.10341 -4.22834 0
M  V30 11250 H 1087.01 4.48412 -3.21918 0
M  V30 11251 H 1087.48 4.10323 -1.56626 0
M  V30 11252 H 1088.09 3.1042 -2.90722 0
M  V30 11253 N 1086.4 1.28806 0.908124 0
M  V30 11254 C 1087.31 1.15079 2.04436 0
M  V30 11255 C 1088.33 0.076012 1.73834 0
M  V30 11256 O 1089.51 0.286421 1.99353 0
M  V30 11257 C 1086.57 0.819733 3.3687 0
M  V30 11258 C 1085.63 1.97746 3.81045 0
M  V30 11259 C 1084.86 1.66211 5.07158 0
M  V30 11260 O 1085.09 0.579092 5.67453 0
M  V30 11261 O 1084.02 2.5075 5.47182 0
M  V30 11262 H 1087.85 2.10477 2.18937 0
M  V30 11263 H 1085.43 1.08177 1.03044 0
M  V30 11264 H 1087.31 0.649304 4.16368 0
M  V30 11265 H 1085.99 -0.10454 3.23531 0
M  V30 11266 H 1084.9 2.20308 3.02349 0
M  V30 11267 H 1086.23 2.88264 3.98955 0
M  V30 11268 N 1087.88 -1.11734 1.11145 0
M  V30 11269 C 1089.11 -1.86943 0.879534 0
M  V30 11270 C 1089.52 -1.80283 -0.574007 0
M  V30 11271 O 1088.86 -1.17998 -1.40791 0
M  V30 11272 C 1088.92 -3.36738 1.25887 0
M  V30 11273 C 1088.59 -3.67169 2.72095 0
M  V30 11274 C 1089.59 -3.6491 3.7032 0
M  V30 11275 C 1087.27 -3.96272 3.08665 0
M  V30 11276 C 1089.26 -3.91325 5.03134 0
M  V30 11277 C 1086.95 -4.22345 4.41665 0
M  V30 11278 C 1087.95 -4.19859 5.38709 0
M  V30 11279 O 1087.64 -4.4528 6.69314 0
M  V30 11280 H 1087.37 -0.598117 0.315011 0
M  V30 11281 H 1089.92 -1.42253 1.48166 0
M  V30 11282 H 1088.15 -3.82019 0.599873 0
M  V30 11283 H 1089.84 -3.93306 1.00325 0
M  V30 11284 H 1090.61 -3.42481 3.43412 0
M  V30 11285 H 1086.49 -3.97344 2.33749 0
M  V30 11286 H 1090.03 -3.893 5.78871 0
M  V30 11287 H 1085.93 -4.4425 4.68308 0
M  V30 11288 H 1086.7 -4.62863 6.75056 0
M  V30 11289 N 1089.36 -0.901303 -1.29284 0
M  V30 11290 C 1090.32 -0.385081 -2.25942 0
M  V30 11291 C 1091.32 0.481626 -1.53418 0
M  V30 11292 O 1092.51 0.286451 -1.71829 0
M  V30 11293 C 1089.64 0.449319 -3.37926 0
M  V30 11294 H 1090.84 -1.23877 -2.7312 0
M  V30 11295 H 1088.39 -0.679586 -1.40753 0
M  V30 11296 H 1089.13 1.32292 -2.9609 0
M  V30 11297 H 1088.91 -0.171731 -3.91724 0
M  V30 11298 H 1090.4 0.801746 -4.09831 0
M  V30 11299 N 1090.84 1.42931 -0.663954 0
M  V30 11300 C 1092.11 1.95284 -0.111174 0
M  V30 11301 C 1092.49 1.60484 1.37142 0
M  V30 11302 O 1091.84 0.895425 2.10225 0
M  V30 11303 C 1092.05 3.47046 -0.368789 0
M  V30 11304 C 1093.4 4.23679 -0.279473 0
M  V30 11305 O 1094.42 3.54918 -0.301937 0
M  V30 11306 O 1093.28 5.46087 -0.21236 0
M  V30 11307 H 1090.38 0.826993 0.00341718 0
M  V30 11308 H 1092.92 1.52816 -0.737935 0
M  V30 11309 H 1091.7 3.65541 -1.39626 0
M  V30 11310 H 1091.32 3.96537 0.290514 0
M  V30 11311 N 1092.32 0.406567 1.52266 0
M  V30 11312 C 1093.54 -0.172101 2.06685 0
M  V30 11313 C 1093.97 -1.38306 1.27488 0
M  V30 11314 O 1093.32 -1.78726 0.304441 0
M  V30 11315 C 1093.37 -0.503463 3.57068 0
M  V30 11316 O 1092.48 -1.59485 3.80314 0
M  V30 11317 H 1091.82 -0.0153209 0.663823 0
M  V30 11318 H 1094.35 0.579025 1.96236 0
M  V30 11319 H 1094.36 -0.762833 4.00805 0
M  V30 11320 H 1093.03 0.381775 4.14144 0
M  V30 11321 H 1091.61 -1.32784 3.48458 0
M  V30 11322 N 1093.79 -1.57004 0.136909 0
M  V30 11323 C 1095.02 -2.00587 -0.527209 0
M  V30 11324 C 1095.44 -1.01628 -1.58283 0
M  V30 11325 O 1094.8 0.00946934 -1.81298 0
M  V30 11326 C 1094.85 -3.42967 -1.11384 0
M  V30 11327 O 1093.95 -3.46973 -2.22898 0
M  V30 11328 H 1093.3 -0.651155 -0.129976 0
M  V30 11329 H 1095.83 -2.03296 0.230667 0
M  V30 11330 H 1095.84 -3.81555 -1.44499 0
M  V30 11331 H 1094.51 -4.14502 -0.340736 0
M  V30 11332 H 1093.09 -3.20219 -1.91087 0
M  V30 11333 N 1095.27 0.136881 -1.57004 0
M  V30 11334 C 1096.22 1.16869 -1.99023 0
M  V30 11335 C 1097.19 1.42137 -0.859435 0
M  V30 11336 O 1098.37 1.54303 -1.12229 0
M  V30 11337 C 1095.51 2.49466 -2.38455 0
M  V30 11338 C 1094.63 2.31286 -3.64871 0
M  V30 11339 C 1093.76 3.56989 -3.9336 0
M  V30 11340 C 1092.8 3.33889 -5.13015 0
M  V30 11341 N 1091.94 4.51748 -5.37464 0
M  V30 11342 H 1096.78 0.803366 -2.86967 0
M  V30 11343 H 1094.32 0.385216 -1.41967 0
M  V30 11344 H 1096.27 3.26794 -2.59348 0
M  V30 11345 H 1094.9 2.83926 -1.53577 0
M  V30 11346 H 1093.96 1.44962 -3.51696 0
M  V30 11347 H 1095.27 2.10183 -4.52355 0
M  V30 11348 H 1094.42 4.42742 -4.14806 0
M  V30 11349 H 1093.16 3.81106 -3.04318 0
M  V30 11350 H 1092.17 2.46525 -4.91432 0
M  V30 11351 H 1093.39 3.1116 -6.03619 0
M  V30 11352 H 1091.34 4.76019 -4.51377 0
M  V30 11353 H 1091.25 4.33684 -6.19237 0
M  V30 11354 H 1092.52 5.38686 -5.63416 0
M  V30 11355 N 1096.75 1.52266 0.40654 0
M  V30 11356 C 1097.71 1.75168 1.47814 0
M  V30 11357 C 1098.71 0.621575 1.48301 0
M  V30 11358 O 1099.9 0.889476 1.4978 0
M  V30 11359 C 1097.04 1.83642 2.87208 0
M  V30 11360 H 1098.23 2.70834 1.28798 0
M  V30 11361 H 1095.78 1.42722 0.637196 0
M  V30 11362 H 1096.52 0.898994 3.1159 0
M  V30 11363 H 1096.3 2.65801 2.88257 0
M  V30 11364 H 1097.79 2.03093 3.64888 0
M  V30 11365 N 1098.23 -0.663929 1.42933 0
M  V30 11366 C 1099.51 -1.42054 1.34462 0
M  V30 11367 C 1099.89 -2.11096 -0.0127801 0
M  V30 11368 O 1099.23 -2.04027 -1.02884 0
M  V30 11369 C 1099.44 -2.41406 2.5204 0
M  V30 11370 C 1100.79 -3.05726 2.94647 0
M  V30 11371 O 1101.82 -2.51733 2.52009 0
M  V30 11372 O 1100.67 -4.03593 3.68477 0
M  V30 11373 H 1097.77 -0.634149 0.530834 0
M  V30 11374 H 1100.31 -0.691738 1.54962 0
M  V30 11375 H 1099.09 -1.89263 3.42484 0
M  V30 11376 H 1098.71 -3.21752 2.33584 0
M  V30 11377 N 1099.71 -1.29285 -0.901281 0
M  V30 11378 C 1101.12 -1.07263 -1.18182 0
M  V30 11379 C 1101.32 0.177087 -2.0072 0
M  V30 11380 O 1100.38 0.875292 -2.36844 0
M  V30 11381 C 1101.69 -2.32717 -1.9043 0
M  V30 11382 C 1103.24 -2.3802 -2.03262 0
M  V30 11383 C 1103.71 -3.63273 -2.7892 0
M  V30 11384 N 1105.21 -3.63986 -2.86475 0
M  V30 11385 C 1105.94 -4.57585 -3.45549 0
M  V30 11386 N 1105.44 -5.61513 -4.05801 0
M  V30 11387 N 1107.23 -4.45157 -3.43208 0
M  V30 11388 H 1099.38 -2.09487 -0.350536 0
M  V30 11389 H 1101.64 -0.922647 -0.217778 0
M  V30 11390 H 1101.35 -3.23828 -1.37216 0
M  V30 11391 H 1101.22 -2.40102 -2.90913 0
M  V30 11392 H 1103.61 -1.47398 -2.55652 0
M  V30 11393 H 1103.69 -2.3462 -1.01916 0
M  V30 11394 H 1103.34 -4.54246 -2.27206 0
M  V30 11395 H 1103.27 -3.6393 -3.80608 0
M  V30 11396 H 1105.76 -2.8884 -2.43679 0
M  V30 11397 H 1106.07 -6.29058 -4.48894 0
M  V30 11398 H 1104.41 -5.65325 -4.04268 0
M  V30 11399 H 1107.61 -3.63158 -2.95354 0
M  V30 11400 H 1107.78 -5.18286 -3.88952 0
M  V30 11401 N 1101.18 1.11143 -1.11736 0
M  V30 11402 C 1102.13 2.17274 -0.778513 0
M  V30 11403 C 1103.1 1.64186 0.251405 0
M  V30 11404 O 1104.29 1.90373 0.127629 0
M  V30 11405 C 1101.43 3.44324 -0.231246 0
M  V30 11406 C 1100.54 4.114 -1.31809 0
M  V30 11407 C 1099.67 5.26146 -0.73104 0
M  V30 11408 C 1098.71 5.85112 -1.79752 0
M  V30 11409 N 1097.85 6.91247 -1.22973 0
M  V30 11410 H 1102.69 2.45603 -1.68769 0
M  V30 11411 H 1100.23 1.20565 -0.842759 0
M  V30 11412 H 1102.19 4.1707 0.104045 0
M  V30 11413 H 1100.82 3.16369 0.641119 0
M  V30 11414 H 1099.87 3.36697 -1.77029 0
M  V30 11415 H 1101.18 4.51278 -2.12485 0
M  V30 11416 H 1100.33 6.05713 -0.345987 0
M  V30 11417 H 1099.07 4.87583 0.107 0
M  V30 11418 H 1098.08 5.0422 -2.19185 0
M  V30 11419 H 1099.3 6.25741 -2.63865 0
M  V30 11420 H 1097.25 6.54696 -0.41339 0
M  V30 11421 H 1097.17 7.29796 -1.97316 0
M  V30 11422 H 1098.43 7.74611 -0.87167 0
M  V30 11423 N 1102.66 0.908147 1.28804 0
M  V30 11424 C 1104.07 0.585727 1.77274 0
M  V30 11425 C 1104.42 -0.898842 1.744 0
M  V30 11426 O 1103.55 -1.70301 1.33516 0
M  V30 11427 C 1104.14 1.05647 3.21907 0
M  V30 11428 C 1102.7 0.785066 3.68122 0
M  V30 11429 C 1101.85 1.22638 2.48707 0
M  V30 11430 H 1104.8 1.09 1.15346 0
M  V30 11431 H 1104.82 0.395442 3.7844 0
M  V30 11432 H 1104.33 2.13698 3.23967 0
M  V30 11433 H 1102.44 -0.282477 3.71528 0
M  V30 11434 H 1102.55 1.38888 4.58527 0
M  V30 11435 H 1100.91 0.645217 2.46392 0
M  V30 11436 H 1101.7 2.31512 2.5349 0
M  V30 11437 N 1104.14 -1.42577 0.671525 0
M  V30 11438 C 1105.39 -2.01584 0.192431 0
M  V30 11439 C 1105.72 -1.53076 -1.19992 0
M  V30 11440 O 1104.97 -0.722196 -1.81887 0
M  V30 11441 C 1105.27 -3.56985 0.172097 0
M  V30 11442 C 1104.94 -4.24912 1.50867 0
M  V30 11443 C 1103.6 -4.43182 1.87464 0
M  V30 11444 C 1105.95 -4.6322 2.38908 0
M  V30 11445 C 1103.28 -4.97031 3.11732 0
M  V30 11446 C 1105.63 -5.18447 3.62485 0
M  V30 11447 C 1104.29 -5.34932 3.99255 0
M  V30 11448 H 1103.56 -0.737647 0.0704155 0
M  V30 11449 H 1106.21 -1.70807 0.865862 0
M  V30 11450 H 1104.52 -3.87411 -0.584835 0
M  V30 11451 H 1106.21 -4.00419 -0.215749 0
M  V30 11452 H 1102.8 -4.11048 1.21397 0
M  V30 11453 H 1106.99 -4.4878 2.1192 0
M  V30 11454 H 1102.24 -5.07979 3.40246 0
M  V30 11455 H 1106.42 -5.47075 4.30909 0
M  V30 11456 H 1104.04 -5.76422 4.95623 0
M  V30 11457 N 1105.62 -0.414636 -1.52048 0
M  V30 11458 C 1106.87 0.16073 -2.01059 0
M  V30 11459 C 1107.18 1.45753 -1.30443 0
M  V30 11460 O 1108.39 2.11448 -1.703 0
M  V30 11461 C 1106.84 0.336993 -3.58319 0
M  V30 11462 C 1106.45 -0.948037 -4.37854 0
M  V30 11463 C 1108.19 0.867353 -4.15545 0
M  V30 11464 C 1106.1 -0.738662 -5.86769 0
M  V30 11465 H 1105.03 0.0638419 -0.751292 0
M  V30 11466 H 1107.68 -0.540925 -1.75346 0
M  V30 11467 H 1106.06 1.10111 -3.80383 0
M  V30 11468 H 1107.24 -1.71873 -4.27547 0
M  V30 11469 H 1105.55 -1.40522 -3.91972 0
M  V30 11470 H 1108.15 1.04012 -5.24486 0
M  V30 11471 H 1108.49 1.84358 -3.73253 0
M  V30 11472 H 1109.03 0.162148 -3.97469 0
M  V30 11473 H 1105.77 -1.6866 -6.3343 0
M  V30 11474 H 1105.29 -0.00736294 -5.998 0
M  V30 11475 H 1106.96 -0.382978 -6.45866 0
M  V30 11476 N 1107.1 1.56929 -0.145233 0
M  V30 11477 C 1108.51 1.82877 0.375884 0
M  V30 11478 C 1108.86 1.06384 1.64854 0
M  V30 11479 O 1107.98 0.30857 2.14189 0
M  V30 11480 C 1108.58 3.31725 0.688744 0
M  V30 11481 C 1107.14 3.58261 1.15439 0
M  V30 11482 C 1106.28 2.76737 0.176565 0
M  V30 11483 H 1109.24 1.54328 -0.36996 0
M  V30 11484 H 1109.26 3.47784 1.54359 0
M  V30 11485 H 1108.77 3.87371 -0.237694 0
M  V30 11486 H 1106.87 3.08 2.09683 0
M  V30 11487 H 1106.98 4.66732 1.08158 0
M  V30 11488 H 1105.35 2.45761 0.668843 0
M  V30 11489 H 1106.13 3.35154 -0.743432 0
M  V30 11490 N 1108.58 -0.128553 1.57075 0
M  V30 11491 C 1109.51 -1.18362 1.96273 0
M  V30 11492 C 1110.52 -1.3818 0.860818 0
M  V30 11493 O 1111.71 -1.37424 1.13916 0
M  V30 11494 C 1108.81 -2.54533 2.23755 0
M  V30 11495 C 1107.98 -2.55446 3.55058 0
M  V30 11496 C 1107.04 -3.73291 3.70864 0
M  V30 11497 O 1106.07 -3.57315 4.43074 0
M  V30 11498 N 1107.27 -4.91481 3.08912 0
M  V30 11499 H 1110.03 -0.850276 2.87385 0
M  V30 11500 H 1107.6 -0.317931 1.58748 0
M  V30 11501 H 1109.59 -3.31912 2.31553 0
M  V30 11502 H 1108.16 -2.80087 1.38816 0
M  V30 11503 H 1107.38 -1.6385 3.58534 0
M  V30 11504 H 1108.67 -2.53104 4.4138 0
M  V30 11505 H 1108.06 -5.07364 2.50196 0
M  V30 11506 H 1106.62 -5.6657 3.22245 0
M  V30 11507 N 1110.05 -1.5248 -0.398459 0
M  V30 11508 C 1111.3 -1.66287 -1.14155 0
M  V30 11509 C 1111.62 -0.40429 -1.91376 0
M  V30 11510 O 1112.82 -0.422341 -2.68195 0
M  V30 11511 C 1111.28 -2.93831 -2.07825 0
M  V30 11512 C 1110.89 -4.26836 -1.3607 0
M  V30 11513 C 1112.63 -3.17004 -2.82327 0
M  V30 11514 C 1110.54 -5.45495 -2.28451 0
M  V30 11515 H 1109.47 -0.619478 -0.42984 0
M  V30 11516 H 1112.12 -1.78972 -0.405112 0
M  V30 11517 H 1110.5 -2.7487 -2.85065 0
M  V30 11518 H 1111.67 -4.56317 -0.641205 0
M  V30 11519 H 1109.99 -4.0985 -0.735659 0
M  V30 11520 H 1112.59 -4.02834 -3.51609 0
M  V30 11521 H 1112.93 -2.3168 -3.45876 0
M  V30 11522 H 1113.46 -3.36487 -2.12183 0
M  V30 11523 H 1110.2 -6.33198 -1.69532 0
M  V30 11524 H 1109.72 -5.20338 -2.98343 0
M  V30 11525 H 1111.4 -5.78996 -2.88743 0
M  V30 11526 N 1111.53 0.65634 -1.43283 0
M  V30 11527 C 1112.81 1.41339 -1.35213 0
M  V30 11528 C 1113.19 2.111 0.00158494 0
M  V30 11529 O 1112.54 2.0457 1.018 0
M  V30 11530 C 1112.75 2.40066 -2.53317 0
M  V30 11531 C 1114.09 3.04159 -2.96264 0
M  V30 11532 O 1115.12 2.50393 -2.53341 0
M  V30 11533 O 1113.98 4.01633 -3.70612 0
M  V30 11534 H 1111.07 0.631325 -0.534189 0
M  V30 11535 H 1113.62 0.68351 -1.55326 0
M  V30 11536 H 1112.39 1.87444 -3.43483 0
M  V30 11537 H 1112.01 3.20509 -2.35287 0
M  V30 11538 N 1113.01 1.29761 0.894412 0
M  V30 11539 C 1113.96 1.11962 1.98617 0
M  V30 11540 C 1114.94 0.0374952 1.60856 0
M  V30 11541 O 1116.14 0.259789 1.75083 0
M  V30 11542 C 1113.26 0.803708 3.3376 0
M  V30 11543 C 1112.35 1.92563 3.77863 0
M  V30 11544 N 1112.74 3.16983 3.94152 0
M  V30 11545 C 1111.04 1.81986 4.07182 0
M  V30 11546 C 1111.74 3.90212 4.31404 0
M  V30 11547 N 1110.72 3.18194 4.40742 0
M  V30 11548 H 1114.52 2.06339 2.09287 0
M  V30 11549 H 1112.03 1.20963 1.08359 0
M  V30 11550 H 1114.03 0.657223 4.11687 0
M  V30 11551 H 1112.69 -0.132098 3.24431 0
M  V30 11552 H 1113.7 3.52378 3.79539 0
M  V30 11553 H 1110.38 0.957112 4.06381 0
M  V30 11554 H 1111.77 4.97312 4.51808 0
M  V30 11555 N 1114.49 -1.10549 1.12324 0
M  V30 11556 C 1115.74 -1.81851 0.872531 0
M  V30 11557 C 1116.05 -1.86058 -0.603468 0
M  V30 11558 O 1117.26 -2.53553 -0.970736 0
M  V30 11559 C 1115.71 -3.26631 1.51131 0
M  V30 11560 C 1115.32 -3.30725 3.02201 0
M  V30 11561 C 1117.06 -4.02768 1.34082 0
M  V30 11562 C 1114.97 -4.69957 3.59018 0
M  V30 11563 H 1113.9 -0.681422 0.322769 0
M  V30 11564 H 1116.55 -1.24332 1.34959 0
M  V30 11565 H 1114.93 -3.8414 0.961913 0
M  V30 11566 H 1116.11 -2.83046 3.63623 0
M  V30 11567 H 1114.42 -2.68072 3.18632 0
M  V30 11568 H 1117.02 -5.05612 1.73955 0
M  V30 11569 H 1117.36 -4.15328 0.284369 0
M  V30 11570 H 1117.9 -3.51671 1.85937 0
M  V30 11571 H 1114.63 -4.62597 4.64418 0
M  V30 11572 H 1114.15 -5.18008 3.02371 0
M  V30 11573 H 1115.83 -5.38925 3.58007 0
M  V30 11574 N 1115.97 -0.914965 -1.28321 0
M  V30 11575 C 1116.93 -0.409024 -2.25521 0
M  V30 11576 C 1117.93 0.465327 -1.5392 0
M  V30 11577 O 1119.12 0.26821 -1.72123 0
M  V30 11578 C 1116.25 0.413452 -3.38383 0
M  V30 11579 H 1117.44 -1.26767 -2.71791 0
M  V30 11580 H 1115 -0.694477 -1.40024 0
M  V30 11581 H 1115.73 1.29145 -2.97476 0
M  V30 11582 H 1115.52 -0.213268 -3.9152 0
M  V30 11583 H 1117.01 0.758232 -4.10659 0
M  V30 11584 N 1117.44 1.42219 -0.679077 0
M  V30 11585 C 1118.39 2.308 -0.00340316 0
M  V30 11586 C 1119.36 1.462 0.788334 0
M  V30 11587 O 1120.55 1.75023 0.759716 0
M  V30 11588 C 1117.69 3.32084 0.938854 0
M  V30 11589 C 1116.8 4.31772 0.140485 0
M  V30 11590 C 1115.93 5.20128 1.07888 0
M  V30 11591 C 1114.97 6.11493 0.27245 0
M  V30 11592 N 1114.11 6.92388 1.16378 0
M  V30 11593 H 1118.95 2.88024 -0.764587 0
M  V30 11594 H 1116.49 1.41869 -0.38878 0
M  V30 11595 H 1118.44 3.89339 1.49903 0
M  V30 11596 H 1117.07 2.76448 1.66662 0
M  V30 11597 H 1116.13 3.76599 -0.536376 0
M  V30 11598 H 1117.44 4.96432 -0.485433 0
M  V30 11599 H 1116.59 5.82137 1.70884 0
M  V30 11600 H 1115.33 4.55655 1.73868 0
M  V30 11601 H 1114.34 5.48549 -0.370693 0
M  V30 11602 H 1115.56 6.78017 -0.383315 0
M  V30 11603 H 1113.51 6.30538 1.8099 0
M  V30 11604 H 1113.42 7.5367 0.593043 0
M  V30 11605 H 1114.69 7.58879 1.78107 0
M  V30 11606 N 1118.92 0.422693 1.51826 0
M  V30 11607 C 1120.16 -0.147997 2.03864 0
M  V30 11608 C 1120.53 -1.41224 1.30076 0
M  V30 11609 O 1121.73 -2.06224 1.72409 0
M  V30 11610 C 1120 -0.376248 3.55414 0
M  V30 11611 S 1121.56 -0.912444 4.29208 0
M  V30 11612 H 1118.37 -0.0387084 0.709946 0
M  V30 11613 H 1120.98 0.578733 1.86738 0
M  V30 11614 H 1119.68 0.550451 4.06692 0
M  V30 11615 H 1119.21 -1.13047 3.76807 0
M  V30 11616 H 1121.23 -2.19161 4.45177 0
M  V30 11617 N 1120.4 -1.5685 0.153553 0
M  V30 11618 C 1121.35 -2.1709 -0.783626 0
M  V30 11619 C 1122.32 -1.10567 -1.23952 0
M  V30 11620 O 1123.5 -1.38638 -1.31088 0
M  V30 11621 C 1120.64 -2.80183 -2.01473 0
M  V30 11622 C 1119.75 -4.01117 -1.60403 0
M  V30 11623 C 1118.89 -4.5219 -2.78743 0
M  V30 11624 C 1117.93 -5.65574 -2.34079 0
M  V30 11625 N 1117.07 -6.11235 -3.4545 0
M  V30 11626 H 1121.91 -2.96836 -0.263127 0
M  V30 11627 H 1119.44 -1.46625 -0.11816 0
M  V30 11628 H 1121.4 -3.14912 -2.73654 0
M  V30 11629 H 1120.03 -2.03071 -2.50923 0
M  V30 11630 H 1119.08 -3.72325 -0.779631 0
M  V30 11631 H 1120.39 -4.83243 -1.23605 0
M  V30 11632 H 1119.55 -4.89008 -3.59105 0
M  V30 11633 H 1118.29 -3.69085 -3.18791 0
M  V30 11634 H 1117.29 -5.28326 -1.52158 0
M  V30 11635 H 1118.52 -6.50468 -1.95109 0
M  V30 11636 H 1116.46 -5.31064 -3.85106 0
M  V30 11637 H 1116.38 -6.88304 -3.12687 0
M  V30 11638 H 1117.65 -6.527 -4.26149 0
M  V30 11639 N 1121.88 0.120221 -1.57141 0
M  V30 11640 C 1122.81 1.14876 -2.03287 0
M  V30 11641 C 1123.79 1.43259 -0.917112 0
M  V30 11642 O 1124.97 1.53721 -1.18674 0
M  V30 11643 C 1122.1 2.47525 -2.43616 0
M  V30 11644 C 1121.06 2.33607 -3.58625 0
M  V30 11645 C 1120.38 3.71207 -3.84849 0
M  V30 11646 C 1121.68 1.79761 -4.90391 0
M  V30 11647 H 1123.38 0.764943 -2.89463 0
M  V30 11648 H 1120.92 0.366516 -1.39258 0
M  V30 11649 H 1122.88 3.19728 -2.74504 0
M  V30 11650 H 1121.6 2.87794 -1.54409 0
M  V30 11651 H 1120.26 1.63853 -3.27945 0
M  V30 11652 H 1119.91 4.0896 -2.9285 0
M  V30 11653 H 1119.61 3.62749 -4.62263 0
M  V30 11654 H 1121.13 4.44917 -4.18188 0
M  V30 11655 H 1122.55 2.4178 -5.19822 0
M  V30 11656 H 1120.94 1.82126 -5.71795 0
M  V30 11657 H 1122.01 0.755087 -4.78985 0
M  V30 11658 N 1123.36 1.52689 0.390367 0
M  V30 11659 C 1124.27 1.8029 1.50108 0
M  V30 11660 C 1125.28 0.689582 1.59752 0
M  V30 11661 O 1126.46 0.977024 1.76114 0
M  V30 11662 C 1123.52 1.96475 2.85654 0
M  V30 11663 C 1122.58 3.2039 2.85743 0
M  V30 11664 C 1121.82 3.35793 4.14824 0
M  V30 11665 O 1122.04 2.56033 5.09709 0
M  V30 11666 O 1120.97 4.2904 4.22147 0
M  V30 11667 H 1124.8 2.74605 1.29715 0
M  V30 11668 H 1122.39 1.37763 0.578074 0
M  V30 11669 H 1124.27 2.08835 3.66013 0
M  V30 11670 H 1122.94 1.05351 3.06077 0
M  V30 11671 H 1121.85 3.13473 2.0417 0
M  V30 11672 H 1123.18 4.11356 2.70272 0
M  V30 11673 N 1124.83 -0.648732 1.43629 0
M  V30 11674 C 1125.76 -1.77298 1.51947 0
M  V30 11675 C 1126.75 -1.65942 0.373785 0
M  V30 11676 O 1127.93 -1.8497 0.591596 0
M  V30 11677 C 1125.06 -3.15749 1.44638 0
M  V30 11678 C 1124.01 -3.41872 2.57502 0
M  V30 11679 C 1123.34 -4.8017 2.35246 0
M  V30 11680 C 1124.64 -3.36173 3.99731 0
M  V30 11681 H 1126.33 -1.70594 2.46045 0
M  V30 11682 H 1123.88 -0.819306 1.1842 0
M  V30 11683 H 1125.83 -3.94156 1.4906 0
M  V30 11684 H 1124.56 -3.23194 0.470466 0
M  V30 11685 H 1123.22 -2.65838 2.5244 0
M  V30 11686 H 1122.86 -4.84297 1.35887 0
M  V30 11687 H 1122.56 -4.9861 3.10906 0
M  V30 11688 H 1124.09 -5.6083 2.41459 0
M  V30 11689 H 1125.5 -4.0451 4.06257 0
M  V30 11690 H 1123.9 -3.66148 4.75453 0
M  V30 11691 H 1124.97 -2.34277 4.24549 0
M  V30 11692 N 1126.31 -1.30234 -0.887518 0
M  V30 11693 C 1127.28 -1.16384 -1.97452 0
M  V30 11694 C 1128.28 -0.0957942 -1.60514 0
M  V30 11695 O 1129.47 -0.343706 -1.70776 0
M  V30 11696 C 1126.6 -0.782514 -3.31797 0
M  V30 11697 H 1127.79 -2.12952 -2.11167 0
M  V30 11698 H 1125.34 -1.13594 -1.07359 0
M  V30 11699 H 1126.08 0.18278 -3.23785 0
M  V30 11700 H 1125.86 -1.55434 -3.59976 0
M  V30 11701 H 1127.35 -0.709011 -4.11537 0
M  V30 11702 N 1127.79 1.09952 -1.12909 0
M  V30 11703 C 1129.02 1.8579 -0.910483 0
M  V30 11704 C 1129.43 1.80898 0.540484 0
M  V30 11705 O 1128.79 1.20126 1.3739 0
M  V30 11706 C 1128.84 3.33987 -1.38329 0
M  V30 11707 O 1128.56 3.38811 -2.77739 0
M  V30 11708 C 1130.06 4.26683 -1.20234 0
M  V30 11709 H 1127.28 0.587026 -0.325025 0
M  V30 11710 H 1129.83 1.38965 -1.5003 0
M  V30 11711 H 1127.98 3.78259 -0.836592 0
M  V30 11712 H 1128.4 4.31204 -2.98603 0
M  V30 11713 H 1129.87 5.28846 -1.58197 0
M  V30 11714 H 1130.35 4.38966 -0.14344 0
M  V30 11715 H 1130.95 3.88221 -1.73679 0
M  V30 11716 N 1129.27 0.921757 1.27833 0
M  V30 11717 C 1130.22 0.414838 2.27041 0
M  V30 11718 C 1131.19 -0.515045 1.57913 0
M  V30 11719 O 1132.37 -0.435499 1.85763 0
M  V30 11720 C 1129.51 -0.331744 3.43502 0
M  V30 11721 C 1128.62 0.631565 4.27358 0
M  V30 11722 C 1127.76 -0.134265 5.3103 0
M  V30 11723 C 1126.8 0.822138 6.06554 0
M  V30 11724 N 1125.93 0.0893149 7.02043 0
M  V30 11725 H 1130.77 1.26585 2.69778 0
M  V30 11726 H 1128.31 0.635488 1.32665 0
M  V30 11727 H 1130.27 -0.780866 4.09827 0
M  V30 11728 H 1128.9 -1.14704 3.01733 0
M  V30 11729 H 1127.95 1.19922 3.61003 0
M  V30 11730 H 1129.26 1.36274 4.79824 0
M  V30 11731 H 1128.42 -0.643579 6.03277 0
M  V30 11732 H 1127.16 -0.898443 4.79353 0
M  V30 11733 H 1126.16 1.34275 5.33151 0
M  V30 11734 H 1127.39 1.586 6.6032 0
M  V30 11735 H 1125.33 -0.656725 6.52704 0
M  V30 11736 H 1125.25 0.760167 7.52169 0
M  V30 11737 H 1126.52 -0.399541 7.78475 0
M  V30 11738 N 1130.75 -1.41857 0.686609 0
M  V30 11739 C 1131.71 -2.29187 0.0247022 0
M  V30 11740 C 1132.71 -1.43926 -0.717069 0
M  V30 11741 O 1133.9 -1.65179 -0.5533 0
M  V30 11742 C 1131.03 -3.26644 -0.975537 0
M  V30 11743 H 1132.22 -2.89212 0.793503 0
M  V30 11744 H 1129.78 -1.49694 0.449605 0
M  V30 11745 H 1130.51 -2.7158 -1.77242 0
M  V30 11746 H 1130.3 -3.89545 -0.446892 0
M  V30 11747 H 1131.79 -3.92107 -1.43673 0
M  V30 11748 N 1132.22 -0.430739 -1.51599 0
M  V30 11749 C 1133.16 0.419726 -2.25324 0
M  V30 11750 C 1134.17 0.991925 -1.29092 0
M  V30 11751 O 1135.36 0.887188 -1.54891 0
M  V30 11752 C 1132.46 1.59844 -2.98836 0
M  V30 11753 C 1131.63 1.14629 -4.22112 0
M  V30 11754 C 1130.69 2.19437 -4.78261 0
M  V30 11755 O 1129.72 1.79141 -5.40275 0
M  V30 11756 N 1130.92 3.51849 -4.61717 0
M  V30 11757 H 1133.68 -0.212112 -2.98948 0
M  V30 11758 H 1131.24 -0.259269 -1.59811 0
M  V30 11759 H 1133.24 2.29567 -3.33288 0
M  V30 11760 H 1131.81 2.13575 -2.28264 0
M  V30 11761 H 1131.03 0.276367 -3.9323 0
M  V30 11762 H 1132.31 0.821488 -5.02124 0
M  V30 11763 H 1131.71 3.87324 -4.12306 0
M  V30 11764 H 1130.27 4.17486 -5.00548 0
M  V30 11765 N 1133.7 1.56767 -0.161869 0
M  V30 11766 C 1134.93 2.01401 0.49523 0
M  V30 11767 C 1135.35 1.04133 1.56646 0
M  V30 11768 O 1134.71 0.0193747 1.8129 0
M  V30 11769 C 1134.76 3.44695 1.05913 0
M  V30 11770 O 1133.86 3.50475 2.1735 0
M  V30 11771 H 1133.2 0.65314 0.1196 0
M  V30 11772 H 1135.73 2.02903 -0.26298 0
M  V30 11773 H 1135.74 3.83805 1.3841 0
M  V30 11774 H 1134.42 4.14991 0.274749 0
M  V30 11775 H 1133 3.23218 1.85969 0
M  V30 11776 N 1135.18 -0.111886 1.57202 0
M  V30 11777 C 1136.11 -1.13796 2.03894 0
M  V30 11778 C 1137.09 -1.4277 0.924696 0
M  V30 11779 O 1138.28 -1.53089 1.19488 0
M  V30 11780 C 1135.41 -2.46229 2.44925 0
M  V30 11781 C 1134.36 -2.31702 3.59859 0
M  V30 11782 C 1133.69 -3.69161 3.86813 0
M  V30 11783 C 1134.99 -1.77158 4.91337 0
M  V30 11784 H 1136.68 -0.749581 2.89865 0
M  V30 11785 H 1134.23 -0.359126 1.3945 0
M  V30 11786 H 1136.18 -3.18267 2.76195 0
M  V30 11787 H 1134.9 -2.86971 1.55933 0
M  V30 11788 H 1133.56 -1.62112 3.28809 0
M  V30 11789 H 1133.21 -4.07401 2.95015 0
M  V30 11790 H 1132.91 -3.60292 4.6418 0
M  V30 11791 H 1134.43 -4.42693 4.20542 0
M  V30 11792 H 1135.85 -2.3902 5.21097 0
M  V30 11793 H 1134.25 -1.79091 5.72753 0
M  V30 11794 H 1135.32 -0.729675 4.79379 0
M  V30 11795 N 1136.66 -1.52894 -0.382264 0
M  V30 11796 C 1137.59 -1.74413 -1.48703 0
M  V30 11797 C 1138.6 -0.624663 -1.50339 0
M  V30 11798 O 1139.79 -0.900527 -1.54119 0
M  V30 11799 C 1136.89 -1.79387 -2.8753 0
M  V30 11800 C 1136.07 -3.08794 -3.09783 0
M  V30 11801 C 1135.12 -3.05226 -4.2863 0
M  V30 11802 O 1134.15 -3.79073 -4.24609 0
M  V30 11803 N 1135.35 -2.2488 -5.35172 0
M  V30 11804 H 1138.12 -2.69734 -1.30628 0
M  V30 11805 H 1135.68 -1.51465 -0.571842 0
M  V30 11806 H 1137.67 -1.74498 -3.65147 0
M  V30 11807 H 1136.24 -0.914233 -2.98932 0
M  V30 11808 H 1135.46 -3.27118 -2.19971 0
M  V30 11809 H 1136.75 -3.94347 -3.21509 0
M  V30 11810 H 1136.15 -1.64363 -5.41296 0
M  V30 11811 H 1134.7 -2.25825 -6.1143 0
M  V30 11812 N 1138.14 0.641106 -1.43971 0
M  V30 11813 C 1139.08 1.75352 -1.50068 0
M  V30 11814 C 1140.05 1.62386 -0.349266 0
M  V30 11815 O 1141.24 1.82455 -0.558118 0
M  V30 11816 C 1138.38 3.13561 -1.4413 0
M  V30 11817 C 1137.49 3.37574 -2.6957 0
M  V30 11818 C 1136.63 4.65698 -2.55535 0
M  V30 11819 C 1135.67 4.82857 -3.76186 0
M  V30 11820 N 1134.8 6.02249 -3.60888 0
M  V30 11821 H 1139.64 1.69477 -2.45116 0
M  V30 11822 H 1137.18 0.826871 -1.2166 0
M  V30 11823 H 1139.14 3.93476 -1.38681 0
M  V30 11824 H 1137.77 3.18476 -0.526563 0
M  V30 11825 H 1136.82 2.5167 -2.85248 0
M  V30 11826 H 1138.13 3.46135 -3.59154 0
M  V30 11827 H 1137.29 5.53759 -2.47862 0
M  V30 11828 H 1136.03 4.59479 -1.63495 0
M  V30 11829 H 1135.03 3.93229 -3.84254 0
M  V30 11830 H 1136.26 4.90898 -4.6925 0
M  V30 11831 H 1134.2 5.97138 -2.71591 0
M  V30 11832 H 1134.12 6.11822 -4.44083 0
M  V30 11833 H 1135.39 6.92898 -3.57088 0
M  V30 11834 N 1139.62 1.30703 0.880598 0
M  V30 11835 C 1140.84 1.22843 1.67106 0
M  V30 11836 C 1141.27 -0.204788 1.86982 0
M  V30 11837 O 1140.62 -1.14716 1.40392 0
M  V30 11838 C 1140.67 1.96685 3.02237 0
M  V30 11839 O 1139.78 1.29693 3.91476 0
M  V30 11840 H 1139.12 0.424661 0.51045 0
M  V30 11841 H 1141.65 1.72596 1.09871 0
M  V30 11842 H 1141.66 2.05874 3.52249 0
M  V30 11843 H 1140.33 3.00919 2.8709 0
M  V30 11844 H 1138.91 1.28886 3.49918 0
M  V30 11845 N 1141.09 -1.09351 1.1349 0
M  V30 11846 C 1142.02 -2.18037 0.835588 0
M  V30 11847 C 1143 -1.68856 -0.205373 0
M  V30 11848 O 1144.19 -1.94094 -0.0641357 0
M  V30 11849 C 1141.32 -3.45987 0.301661 0
M  V30 11850 C 1140.27 -4.08507 1.27696 0
M  V30 11851 C 1139.6 -5.31292 0.602758 0
M  V30 11852 C 1140.9 -4.50916 2.63575 0
M  V30 11853 H 1142.59 -2.43332 1.74441 0
M  V30 11854 H 1140.14 -1.1695 0.840166 0
M  V30 11855 H 1142.09 -4.21324 0.079928 0
M  V30 11856 H 1140.82 -3.20217 -0.642552 0
M  V30 11857 H 1139.48 -3.3519 1.4847 0
M  V30 11858 H 1139.12 -5.01802 -0.346953 0
M  V30 11859 H 1138.82 -5.74075 1.25345 0
M  V30 11860 H 1140.35 -6.09351 0.390325 0
M  V30 11861 H 1141.76 -5.17474 2.46765 0
M  V30 11862 H 1140.16 -5.04586 3.24827 0
M  V30 11863 H 1141.23 -3.63279 3.2118 0
M  V30 11864 N 1142.57 -0.928524 -1.27343 0
M  V30 11865 C 1143.52 -0.426873 -2.26818 0
M  V30 11866 C 1144.49 0.506663 -1.58184 0
M  V30 11867 O 1145.67 0.425641 -1.85992 0
M  V30 11868 C 1142.81 0.313523 -3.43673 0
M  V30 11869 C 1141.93 -0.65422 -4.27018 0
M  V30 11870 C 1141.06 0.106102 -5.31094 0
M  V30 11871 C 1140.1 -0.854293 -6.06109 0
M  V30 11872 N 1139.24 -0.126545 -7.01986 0
M  V30 11873 H 1144.08 -1.28014 -2.69103 0
M  V30 11874 H 1141.61 -0.642515 -1.32326 0
M  V30 11875 H 1143.57 0.75912 -4.10236 0
M  V30 11876 H 1142.2 1.13102 -3.02337 0
M  V30 11877 H 1141.25 -1.21834 -3.60362 0
M  V30 11878 H 1142.57 -1.38817 -4.79094 0
M  V30 11879 H 1141.72 0.611577 -6.0361 0
M  V30 11880 H 1140.46 0.873009 -4.79823 0
M  V30 11881 H 1139.46 -1.37101 -5.32432 0
M  V30 11882 H 1140.69 -1.621 -6.5947 0
M  V30 11883 H 1138.64 0.622102 -6.53044 0
M  V30 11884 H 1138.55 -0.800046 -7.51755 0
M  V30 11885 H 1139.82 0.358251 -7.78676 0
M  V30 11886 N 1144.05 1.41491 -0.694123 0
M  V30 11887 C 1144.98 2.33462 -0.0422169 0
M  V30 11888 C 1145.96 1.51739 0.76872 0
M  V30 11889 O 1147.15 1.8028 0.721985 0
M  V30 11890 C 1144.28 3.35545 0.895925 0
M  V30 11891 C 1143.23 4.27568 0.192188 0
M  V30 11892 C 1142.56 5.20014 1.24459 0
M  V30 11893 C 1143.86 5.1376 -0.940626 0
M  V30 11894 H 1145.55 2.88225 -0.810363 0
M  V30 11895 H 1143.1 1.38586 -0.39114 0
M  V30 11896 H 1145.05 3.9881 1.36121 0
M  V30 11897 H 1143.77 2.79129 1.69572 0
M  V30 11898 H 1142.43 3.65726 -0.25305 0
M  V30 11899 H 1142.08 4.59913 2.03687 0
M  V30 11900 H 1141.78 5.82417 0.778734 0
M  V30 11901 H 1143.3 5.86155 1.71041 0
M  V30 11902 H 1144.72 5.70601 -0.555692 0
M  V30 11903 H 1143.11 5.85097 -1.33349 0
M  V30 11904 H 1144.18 4.51011 -1.78093 0
M  V30 11905 N 1145.53 0.438773 1.51369 0
M  V30 11906 C 1146.78 -0.128723 2.01289 0
M  V30 11907 C 1147.09 -1.43659 1.32745 0
M  V30 11908 O 1148.3 -2.08712 1.73642 0
M  V30 11909 C 1146.75 -0.279945 3.5881 0
M  V30 11910 C 1146.36 1.01758 4.3629 0
M  V30 11911 C 1148.1 -0.801133 4.16872 0
M  V30 11912 C 1146.01 0.831918 5.85519 0
M  V30 11913 H 1144.94 -0.0518814 0.752213 0
M  V30 11914 H 1147.59 0.568753 1.74463 0
M  V30 11915 H 1145.97 -1.04046 3.82087 0
M  V30 11916 H 1147.15 1.78653 4.24758 0
M  V30 11917 H 1145.46 1.46741 3.89687 0
M  V30 11918 H 1148.06 -0.956548 5.26074 0
M  V30 11919 H 1148.4 -1.78396 3.76139 0
M  V30 11920 H 1148.94 -0.0988934 3.97677 0
M  V30 11921 H 1145.67 1.78716 6.30667 0
M  V30 11922 H 1145.19 0.102785 5.99712 0
M  V30 11923 H 1146.87 0.485681 6.45174 0
M  V30 11924 N 1147.01 -1.56678 0.170181 0
M  V30 11925 C 1148.25 -1.96024 -0.475147 0
M  V30 11926 C 1148.57 -1.0588 -1.64465 0
M  V30 11927 O 1149.77 -1.34901 -2.35614 0
M  V30 11928 C 1148.23 -3.4855 -0.896704 0
M  V30 11929 C 1147.84 -4.47318 0.247142 0
M  V30 11930 C 1149.58 -3.96716 -1.51052 0
M  V30 11931 C 1147.49 -5.91082 -0.193982 0
M  V30 11932 H 1146.42 -0.731883 -0.181282 0
M  V30 11933 H 1149.07 -1.81674 0.25823 0
M  V30 11934 H 1147.45 -3.58314 -1.68603 0
M  V30 11935 H 1148.63 -4.49268 1.02445 0
M  V30 11936 H 1146.94 -4.09203 0.770839 0
M  V30 11937 H 1149.54 -5.01581 -1.85258 0
M  V30 11938 H 1149.88 -3.39588 -2.40802 0
M  V30 11939 H 1150.41 -3.89965 -0.785652 0
M  V30 11940 H 1147.15 -6.5208 0.668714 0
M  V30 11941 H 1146.67 -5.92441 -0.936675 0
M  V30 11942 H 1148.35 -6.43844 -0.638237 0
M  V30 11943 N 1148.48 0.103547 -1.57259 0
M  V30 11944 C 1149.73 0.808576 -1.85656 0
M  V30 11945 C 1150.06 1.79143 -0.757502 0
M  V30 11946 O 1149.31 1.941 0.249723 0
M  V30 11947 C 1149.61 1.57946 -3.20605 0
M  V30 11948 C 1149.28 0.739502 -4.44795 0
M  V30 11949 C 1147.94 0.507921 -4.78512 0
M  V30 11950 C 1150.29 0.155034 -5.20969 0
M  V30 11951 C 1147.62 -0.318129 -5.85837 0
M  V30 11952 C 1149.97 -0.658292 -6.29166 0
M  V30 11953 C 1148.64 -0.900044 -6.61404 0
M  V30 11954 H 1147.91 0.295879 -0.679365 0
M  V30 11955 H 1150.55 0.0703604 -1.91371 0
M  V30 11956 H 1148.86 2.38902 -3.10537 0
M  V30 11957 H 1150.56 2.12921 -3.39803 0
M  V30 11958 H 1147.15 0.930103 -4.18386 0
M  V30 11959 H 1151.33 0.32113 -4.9526 0
M  V30 11960 H 1146.59 -0.514495 -6.09231 0
M  V30 11961 H 1150.76 -1.11809 -6.87366 0
M  V30 11962 H 1148.39 -1.54194 -7.44398 0
M  V30 11963 N 1149.96 1.53094 0.37415 0
M  V30 11964 C 1150.89 1.75199 1.47776 0
M  V30 11965 C 1151.91 0.632627 1.50006 0
M  V30 11966 O 1153.1 0.908688 1.5364 0
M  V30 11967 C 1150.2 1.80909 2.86575 0
M  V30 11968 C 1149.37 3.10432 3.08141 0
M  V30 11969 C 1148.43 3.07495 4.27005 0
M  V30 11970 O 1147.45 3.81319 4.22592 0
M  V30 11971 N 1148.66 2.27715 5.33972 0
M  V30 11972 H 1151.42 2.70423 1.29196 0
M  V30 11973 H 1148.98 1.51766 0.563802 0
M  V30 11974 H 1150.97 1.76432 3.64217 0
M  V30 11975 H 1149.54 0.930074 2.98443 0
M  V30 11976 H 1148.76 3.2828 2.18233 0
M  V30 11977 H 1150.05 3.96047 3.19413 0
M  V30 11978 H 1149.45 1.67231 5.40417 0
M  V30 11979 H 1148.01 2.29065 6.10223 0
M  V30 11980 N 1151.44 -0.633461 1.44309 0
M  V30 11981 C 1152.69 -1.39513 1.47187 0
M  V30 11982 C 1153.02 -1.93926 0.103186 0
M  V30 11983 O 1152.29 -1.73512 -0.878853 0
M  V30 11984 C 1152.58 -2.56213 2.53036 0
M  V30 11985 C 1152.43 -2.07164 3.99253 0
M  V30 11986 C 1153.75 -3.58403 2.55412 0
M  V30 11987 H 1150.87 -0.505936 0.535908 0
M  V30 11988 H 1153.51 -0.716445 1.75975 0
M  V30 11989 H 1151.66 -3.14111 2.28619 0
M  V30 11990 H 1153.33 -1.54115 4.34795 0
M  V30 11991 H 1151.57 -1.38367 4.11141 0
M  V30 11992 H 1152.25 -2.91172 4.6896 0
M  V30 11993 H 1154.72 -3.103 2.77224 0
M  V30 11994 H 1153.6 -4.37581 3.31382 0
M  V30 11995 H 1153.86 -4.12316 1.59523 0
M  V30 11996 N 1152.92 -1.31168 -0.873655 0
M  V30 11997 C 1153.83 -1.20458 -2.01313 0
M  V30 11998 C 1154.84 -0.122074 -1.73571 0
M  V30 11999 O 1156.02 -0.339176 -1.98523 0
M  V30 12000 C 1153.09 -0.90876 -3.34578 0
M  V30 12001 C 1152.15 -2.07779 -3.75668 0
M  V30 12002 C 1151.38 -1.79599 -5.02573 0
M  V30 12003 O 1151.6 -0.729338 -5.65718 0
M  V30 12004 O 1150.54 -2.65169 -5.40341 0
M  V30 12005 H 1154.36 -2.16207 -2.13279 0
M  V30 12006 H 1151.95 -1.10871 -1.00139 0
M  V30 12007 H 1153.83 -0.759469 -4.145 0
M  V30 12008 H 1152.5 0.0187249 -3.23695 0
M  V30 12009 H 1151.41 -2.28247 -2.96402 0
M  V30 12010 H 1152.74 -2.9874 -3.91172 0
M  V30 12011 N 1154.4 1.08748 -1.14068 0
M  V30 12012 C 1155.33 2.1544 -0.782199 0
M  V30 12013 C 1156.34 1.61575 0.199301 0
M  V30 12014 O 1157.53 1.78487 -0.0219044 0
M  V30 12015 C 1154.63 3.38611 -0.13983 0
M  V30 12016 C 1153.8 4.2187 -1.15518 0
M  V30 12017 C 1152.86 5.23451 -0.537216 0
M  V30 12018 O 1151.89 5.56424 -1.1992 0
M  V30 12019 N 1153.09 5.76413 0.6876 0
M  V30 12020 H 1155.86 2.46798 -1.70032 0
M  V30 12021 H 1153.42 1.24527 -1.03463 0
M  V30 12022 H 1155.41 4.03688 0.285999 0
M  V30 12023 H 1153.98 3.05084 0.681357 0
M  V30 12024 H 1153.2 3.52825 -1.75806 0
M  V30 12025 H 1154.49 4.74318 -1.84119 0
M  V30 12026 H 1153.88 5.51851 1.24406 0
M  V30 12027 H 1152.44 6.43189 1.05599 0
M  V30 12028 N 1155.87 0.935264 1.26849 0
M  V30 12029 C 1156.84 0.44485 2.24842 0
M  V30 12030 C 1157.84 -0.440781 1.54641 0
M  V30 12031 O 1159.03 -0.240793 1.72528 0
M  V30 12032 C 1156.16 -0.359566 3.38998 0
M  V30 12033 H 1157.35 1.31074 2.6974 0
M  V30 12034 H 1154.91 0.716665 1.38901 0
M  V30 12035 H 1155.64 -1.24396 2.99493 0
M  V30 12036 H 1155.43 0.275529 3.91131 0
M  V30 12037 H 1156.92 -0.692804 4.11813 0
M  V30 12038 N 1157.35 -1.41121 0.701616 0
M  V30 12039 C 1158.28 -2.33436 0.0545974 0
M  V30 12040 C 1159.26 -1.52144 -0.760662 0
M  V30 12041 O 1160.45 -1.80661 -0.712414 0
M  V30 12042 C 1157.58 -3.36015 -0.878117 0
M  V30 12043 C 1156.53 -4.27664 -0.169511 0
M  V30 12044 C 1155.86 -5.20666 -1.21699 0
M  V30 12045 C 1157.16 -5.13254 0.967859 0
M  V30 12046 H 1158.85 -2.87791 0.825637 0
M  V30 12047 H 1156.4 -1.38377 0.398484 0
M  V30 12048 H 1158.35 -3.99526 -1.34004 0
M  V30 12049 H 1157.08 -2.80024 -1.68089 0
M  V30 12050 H 1155.73 -3.65586 0.272441 0
M  V30 12051 H 1155.38 -4.60987 -2.01246 0
M  V30 12052 H 1155.08 -5.82822 -0.747836 0
M  V30 12053 H 1156.61 -5.87053 -1.6793 0
M  V30 12054 H 1158.02 -5.70298 0.585944 0
M  V30 12055 H 1156.42 -5.84381 1.3645 0
M  V30 12056 H 1157.49 -4.5006 1.80483 0
M  V30 12057 N 1158.83 -0.446794 -1.51134 0
M  V30 12058 C 1160.11 0.176892 -1.94798 0
M  V30 12059 C 1160.49 1.59229 -1.38598 0
M  V30 12060 O 1159.84 2.21097 -0.576905 0
M  V30 12061 C 1160.05 0.145 -3.48699 0
M  V30 12062 C 1161.39 0.345917 -4.23189 0
M  V30 12063 O 1162.42 0.222691 -3.55503 0
M  V30 12064 O 1161.28 0.592112 -5.43283 0
M  V30 12065 H 1158.37 0.12486 -0.81752 0
M  V30 12066 H 1160.92 -0.505453 -1.61998 0
M  V30 12067 H 1159.69 -0.844156 -3.82086 0
M  V30 12068 H 1159.31 0.869851 -3.87968 0
M  V30 12069 N 1160.31 1.56586 -0.178487 0
M  V30 12070 C 1161.22 2.21903 0.761321 0
M  V30 12071 C 1162.23 1.21289 1.2476 0
M  V30 12072 O 1163.41 1.53974 1.29823 0
M  V30 12073 C 1160.48 2.85259 1.97048 0
M  V30 12074 C 1159.54 4.01095 1.53039 0
M  V30 12075 C 1158.77 4.61421 2.68191 0
M  V30 12076 O 1158.99 4.20644 3.85247 0
M  V30 12077 O 1157.93 5.51171 2.41855 0
M  V30 12078 H 1161.75 3.02788 0.235141 0
M  V30 12079 H 1159.34 1.49316 0.0500442 0
M  V30 12080 H 1161.22 3.25404 2.6775 0
M  V30 12081 H 1159.89 2.07366 2.48558 0
M  V30 12082 H 1158.8 3.65606 0.792661 0
M  V30 12083 H 1160.13 4.80603 1.06213 0
M  V30 12084 N 1161.79 -0.095206 1.57312 0
M  V30 12085 C 1162.7 -1.13388 2.05379 0
M  V30 12086 C 1163.71 -1.43868 0.978668 0
M  V30 12087 O 1164.89 -1.54512 1.29182 0
M  V30 12088 C 1161.95 -2.43444 2.46852 0
M  V30 12089 C 1161.01 -2.20146 3.68557 0
M  V30 12090 C 1160.25 -3.44001 4.08043 0
M  V30 12091 O 1160.47 -4.52233 3.47623 0
M  V30 12092 O 1159.4 -3.33596 5.00997 0
M  V30 12093 H 1163.23 -0.755622 2.9415 0
M  V30 12094 H 1160.82 -0.307707 1.46197 0
M  V30 12095 H 1162.7 -3.20027 2.74155 0
M  V30 12096 H 1161.37 -2.80696 1.61219 0
M  V30 12097 H 1160.28 -1.41345 3.46371 0
M  V30 12098 H 1161.61 -1.87787 4.54969 0
M  V30 12099 N 1163.26 -1.53291 -0.366026 0
M  V30 12100 C 1164.49 -1.73665 -1.13381 0
M  V30 12101 C 1164.91 -0.464284 -1.8228 0
M  V30 12102 O 1164.27 0.581645 -1.71717 0
M  V30 12103 C 1164.32 -2.90225 -2.14013 0
M  V30 12104 O 1163.42 -2.58803 -3.21084 0
M  V30 12105 H 1162.77 -0.576762 -0.329 0
M  V30 12106 H 1165.3 -2.00174 -0.423287 0
M  V30 12107 H 1165.31 -3.16378 -2.57622 0
M  V30 12108 H 1163.98 -3.82518 -1.63257 0
M  V30 12109 H 1162.56 -2.43466 -2.82451 0
M  V30 12110 N 1164.74 0.6258 -1.44643 0
M  V30 12111 C 1166.16 0.944569 -1.28647 0
M  V30 12112 C 1166.36 2.00227 -0.226134 0
M  V30 12113 O 1165.41 2.4953 0.386161 0
M  V30 12114 C 1166.73 1.40278 -2.65975 0
M  V30 12115 C 1168.28 1.51797 -2.73727 0
M  V30 12116 C 1168.75 2.01 -4.11537 0
M  V30 12117 N 1170.24 2.08262 -4.13741 0
M  V30 12118 C 1170.98 2.47515 -5.17227 0
M  V30 12119 N 1170.47 2.85867 -6.31072 0
M  V30 12120 N 1172.27 2.47695 -5.04583 0
M  V30 12121 H 1164.42 -0.0736157 -2.12272 0
M  V30 12122 H 1166.68 0.0296998 -0.947535 0
M  V30 12123 H 1166.39 0.699871 -3.44666 0
M  V30 12124 H 1166.26 2.37279 -2.93221 0
M  V30 12125 H 1168.65 2.21183 -1.95351 0
M  V30 12126 H 1168.73 0.531574 -2.50216 0
M  V30 12127 H 1168.37 1.32207 -4.90391 0
M  V30 12128 H 1168.3 3.0052 -4.32429 0
M  V30 12129 H 1170.79 1.81286 -3.31578 0
M  V30 12130 H 1171.11 3.14647 -7.05845 0
M  V30 12131 H 1169.45 2.83605 -6.34502 0
M  V30 12132 H 1172.64 2.17127 -4.14697 0
M  V30 12133 H 1172.81 2.77962 -5.85356 0
M  V30 12134 N 1166.22 1.31629 0.866686 0
M  V30 12135 C 1167.15 1.15377 1.98042 0
M  V30 12136 C 1168.17 0.0919633 1.6254 0
M  V30 12137 O 1169.35 0.339775 1.75236 0
M  V30 12138 C 1166.45 0.741295 3.30693 0
M  V30 12139 C 1165.63 1.88882 3.94516 0
M  V30 12140 C 1164.69 1.46186 5.05486 0
M  V30 12141 O 1163.71 2.17202 5.26129 0
M  V30 12142 N 1164.91 0.351096 5.79437 0
M  V30 12143 H 1167.68 2.11309 2.12529 0
M  V30 12144 H 1165.24 1.24007 1.04085 0
M  V30 12145 H 1167.23 0.438313 4.02319 0
M  V30 12146 H 1165.8 -0.12651 3.12344 0
M  V30 12147 H 1165.02 2.35894 3.15828 0
M  V30 12148 H 1166.31 2.65734 4.33892 0
M  V30 12149 H 1165.71 -0.240245 5.6519 0
M  V30 12150 H 1164.27 0.107663 6.51711 0
M  V30 12151 N 1167.7 -1.08142 1.14644 0
M  V30 12152 C 1168.93 -1.84318 0.939926 0
M  V30 12153 C 1169.34 -1.81735 -0.511636 0
M  V30 12154 O 1168.7 -1.22297 -1.35461 0
M  V30 12155 C 1168.75 -3.31744 1.43625 0
M  V30 12156 O 1168.47 -3.3435 2.83094 0
M  V30 12157 C 1169.97 -4.24717 1.27007 0
M  V30 12158 H 1167.19 -0.581781 0.334323 0
M  V30 12159 H 1169.74 -1.36561 1.52221 0
M  V30 12160 H 1167.89 -3.7688 0.896664 0
M  V30 12161 H 1168.31 -4.26399 3.05425 0
M  V30 12162 H 1169.78 -5.26262 1.66591 0
M  V30 12163 H 1170.26 -4.38682 0.213257 0
M  V30 12164 H 1170.86 -3.85409 1.79833 0
M  V30 12165 N 1169.18 -0.941978 -1.26351 0
M  V30 12166 C 1170.43 -0.585711 -1.93009 0
M  V30 12167 C 1170.74 0.879507 -1.74711 0
M  V30 12168 O 1171.95 1.34518 -2.35833 0
M  V30 12169 C 1170.4 -0.996787 -3.45821 0
M  V30 12170 C 1170.01 -2.48367 -3.72851 0
M  V30 12171 C 1171.75 -0.712452 -4.18479 0
M  V30 12172 C 1169.66 -2.83341 -5.19107 0
M  V30 12173 H 1168.59 -0.215342 -0.722595 0
M  V30 12174 H 1171.24 -1.14472 -1.43417 0
M  V30 12175 H 1169.62 -0.366295 -3.94302 0
M  V30 12176 H 1170.8 -3.16328 -3.35072 0
M  V30 12177 H 1169.11 -2.74139 -3.13427 0
M  V30 12178 H 1171.71 -0.95007 -5.26192 0
M  V30 12179 H 1172.05 0.350811 -4.14819 0
M  V30 12180 H 1172.59 -1.3027 -3.75865 0
M  V30 12181 H 1169.32 -3.88633 -5.27868 0
M  V30 12182 H 1168.84 -2.20043 -5.5798 0
M  V30 12183 H 1170.52 -2.71849 -5.87118 0
M  V30 12184 N 1170.66 1.40747 -0.709091 0
M  V30 12185 C 1171.88 2.05841 -0.253816 0
M  V30 12186 C 1172.31 1.53056 1.09341 0
M  V30 12187 O 1171.66 0.663181 1.68735 0
M  V30 12188 C 1171.71 3.59822 -0.236699 0
M  V30 12189 O 1170.82 4.04876 0.784168 0
M  V30 12190 H 1170.16 0.65295 -0.120631 0
M  V30 12191 H 1172.69 1.80266 -0.967749 0
M  V30 12192 H 1172.7 4.07936 -0.0721616 0
M  V30 12193 H 1171.37 3.97608 -1.21988 0
M  V30 12194 H 1169.95 3.68237 0.587884 0
M  V30 12195 N 1172.13 0.454803 1.50895 0
M  V30 12196 C 1173.38 -0.105927 2.02523 0
M  V30 12197 C 1173.71 -1.40825 1.33724 0
M  V30 12198 O 1172.99 -1.89038 0.457683 0
M  V30 12199 C 1173.27 -0.306635 3.58792 0
M  V30 12200 C 1173.12 1.01556 4.38185 0
M  V30 12201 C 1174.44 -1.06858 4.2693 0
M  V30 12202 H 1171.56 -0.0370232 0.736069 0
M  V30 12203 H 1174.2 0.597215 1.8037 0
M  V30 12204 H 1172.35 -0.905563 3.77799 0
M  V30 12205 H 1174.03 1.64981 4.30789 0
M  V30 12206 H 1172.27 1.61608 4.02574 0
M  V30 12207 H 1172.94 0.828959 5.4574 0
M  V30 12208 H 1175.42 -0.561086 4.123 0
M  V30 12209 H 1174.29 -1.1778 5.36115 0
M  V30 12210 H 1174.55 -2.10111 3.8898 0
M  V30 12211 N 1173.61 -1.56489 0.186789 0
M  V30 12212 C 1174.56 -2.18703 -0.737402 0
M  V30 12213 C 1175.53 -1.13171 -1.21579 0
M  V30 12214 O 1176.71 -1.41388 -1.28118 0
M  V30 12215 C 1173.85 -2.84394 -1.95484 0
M  V30 12216 C 1172.97 -4.04429 -1.51859 0
M  V30 12217 C 1172.1 -4.58001 -2.69089 0
M  V30 12218 C 1171.14 -5.70412 -2.22029 0
M  V30 12219 N 1170.28 -6.18425 -3.32407 0
M  V30 12220 H 1175.12 -2.97327 -0.200105 0
M  V30 12221 H 1172.65 -1.46842 -0.087032 0
M  V30 12222 H 1174.61 -3.20646 -2.66912 0
M  V30 12223 H 1173.24 -2.08347 -2.46559 0
M  V30 12224 H 1172.29 -3.73895 -0.70048 0
M  V30 12225 H 1173.61 -4.85756 -1.13327 0
M  V30 12226 H 1172.76 -4.96515 -3.48652 0
M  V30 12227 H 1171.5 -3.75764 -3.1089 0
M  V30 12228 H 1170.5 -5.31434 -1.40918 0
M  V30 12229 H 1171.73 -6.54461 -1.81268 0
M  V30 12230 H 1169.68 -5.39113 -3.73755 0
M  V30 12231 H 1169.59 -6.94782 -2.98017 0
M  V30 12232 H 1170.86 -6.61592 -4.12209 0
M  V30 12233 N 1175.09 0.086862 -1.5736 0
M  V30 12234 C 1176.04 1.12359 -2.03662 0
M  V30 12235 C 1177.03 1.40982 -0.939169 0
M  V30 12236 O 1178.24 1.40566 -1.12433 0
M  V30 12237 H 1174.61 0.379605 -0.649156 0
M  V30 12238 H 1176.58 0.706822 -2.89908 0
M  V30 12239 C 1175.33 2.43327 -2.48369 0
M  V30 12240 H 1174.66 2.22148 -3.324 0
M  V30 12241 H 1176.1 3.14351 -2.84534 0
M  V30 12242 C 1174.55 3.08214 -1.36036 0
M  V30 12243 O 1175.08 3.95659 -0.694063 0
M  V30 12244 N 1173.29 2.68596 -1.10927 0
M  V30 12245 H 1172.84 1.97578 -1.6529 0
M  V30 12246 H 1172.8 3.12336 -0.359679 0
M  V30 12247 N 1176.57 1.53483 0.357892 0
M  V30 12248 C 1177.81 1.70037 1.09971 0
M  V30 12249 C 1178.14 0.456112 1.89076 0
M  V30 12250 O 1177.4 -0.562029 1.87456 0
M  V30 12251 C 1177.7 2.90654 2.07978 0
M  V30 12252 C 1177.36 4.26849 1.45295 0
M  V30 12253 C 1176.02 4.63884 1.27928 0
M  V30 12254 C 1178.38 5.11514 1.00013 0
M  V30 12255 C 1175.7 5.83213 0.638745 0
M  V30 12256 C 1178.06 6.31496 0.373568 0
M  V30 12257 C 1176.72 6.67237 0.187457 0
M  V30 12258 H 1175.99 0.622209 0.402414 0
M  V30 12259 H 1178.64 1.87679 0.380615 0
M  V30 12260 H 1176.94 2.67556 2.86219 0
M  V30 12261 H 1178.64 3.00656 2.65343 0
M  V30 12262 H 1175.23 3.97693 1.59807 0
M  V30 12263 H 1179.41 4.83446 1.12221 0
M  V30 12264 H 1174.67 6.09489 0.483035 0
M  V30 12265 H 1178.84 6.96398 0.0145346 0
M  V30 12266 H 1176.47 7.59564 -0.310933 0
M  V30 12267 N 1178.05 -0.61812 1.44973 0
M  V30 12268 C 1179.27 -1.40921 1.52171 0
M  V30 12269 C 1179.7 -1.87487 0.151755 0
M  V30 12270 O 1179.05 -1.59518 -0.861606 0
M  V30 12271 C 1179.1 -2.59689 2.50188 0
M  V30 12272 O 1178.21 -3.59967 2.0124 0
M  V30 12273 H 1177.55 -0.421138 0.51336 0
M  V30 12274 H 1180.08 -0.753258 1.90229 0
M  V30 12275 H 1180.09 -3.07069 2.6865 0
M  V30 12276 H 1178.76 -2.25144 3.4969 0
M  V30 12277 H 1177.34 -3.19308 1.92605 0
M  V30 12278 N 1179.52 -1.32087 -0.859693 0
M  V30 12279 C 1180.75 -1.25486 -1.6513 0
M  V30 12280 C 1181.17 0.175015 -1.87284 0
M  V30 12281 O 1180.53 1.12468 -1.42199 0
M  V30 12282 C 1180.58 -2.01469 -2.9907 0
M  V30 12283 O 1179.68 -1.35904 -3.89363 0
M  V30 12284 H 1179.02 -0.432728 -0.503629 0
M  V30 12285 H 1181.55 -1.74322 -1.07112 0
M  V30 12286 H 1181.56 -2.11452 -3.4893 0
M  V30 12287 H 1180.24 -3.05448 -2.82266 0
M  V30 12288 H 1178.82 -1.34437 -3.47823 0
M  V30 12289 N 1181 1.07532 -1.15215 0
M  V30 12290 C 1182.23 1.83817 -0.949687 0
M  V30 12291 C 1182.64 1.82004 0.501991 0
M  V30 12292 O 1182 1.23014 1.34811 0
M  V30 12293 C 1182.05 3.30978 -1.45382 0
M  V30 12294 O 1181.77 3.32844 -2.84863 0
M  V30 12295 C 1183.27 4.24037 -1.29257 0
M  V30 12296 H 1180.49 0.58 -0.337404 0
M  V30 12297 H 1183.04 1.35752 -1.52944 0
M  V30 12298 H 1181.19 3.76399 -0.916638 0
M  V30 12299 H 1181.61 4.24773 -3.07682 0
M  V30 12300 H 1183.08 5.25371 -1.69379 0
M  V30 12301 H 1183.56 4.38563 -0.236519 0
M  V30 12302 H 1184.16 3.8445 -1.81874 0
M  V30 12303 N 1182.48 0.948665 1.2585 0
M  V30 12304 C 1183.73 0.600236 1.934 0
M  V30 12305 C 1184.06 -0.86185 1.74363 0
M  V30 12306 O 1183.31 -1.63294 1.07858 0
M  V30 12307 C 1183.61 0.89784 3.45939 0
M  V30 12308 C 1183.28 2.345 3.85124 0
M  V30 12309 C 1181.94 2.74058 3.95532 0
M  V30 12310 C 1184.29 3.2851 4.04636 0
M  V30 12311 C 1181.62 4.06707 4.22855 0
M  V30 12312 C 1183.97 4.60764 4.3345 0
M  V30 12313 C 1182.63 5.00127 4.42074 0
M  V30 12314 H 1181.9 0.219642 0.707699 0
M  V30 12315 H 1184.55 1.19658 1.49513 0
M  V30 12316 H 1182.86 0.219037 3.91187 0
M  V30 12317 H 1184.55 0.606916 3.96381 0
M  V30 12318 H 1181.14 2.02819 3.77574 0
M  V30 12319 H 1185.33 2.99141 3.96015 0
M  V30 12320 H 1180.58 4.36856 4.27746 0
M  V30 12321 H 1184.76 5.33594 4.47493 0
M  V30 12322 H 1182.38 6.02939 4.63 0
M  V30 12323 N 1183.96 -1.40369 0.716545 0
M  V30 12324 C 1185.21 -2.00869 0.256466 0
M  V30 12325 C 1185.53 -1.56816 -1.15061 0
M  V30 12326 O 1184.79 -0.779696 -1.79497 0
M  V30 12327 C 1185.09 -3.56257 0.285583 0
M  V30 12328 C 1184.75 -4.19897 1.64309 0
M  V30 12329 C 1183.42 -4.36994 2.01469 0
M  V30 12330 C 1185.77 -4.55385 2.53524 0
M  V30 12331 C 1183.1 -4.86862 3.27387 0
M  V30 12332 C 1185.45 -5.06653 3.78795 0
M  V30 12333 C 1184.11 -5.21959 4.16071 0
M  V30 12334 H 1183.38 -0.735033 0.0938475 0
M  V30 12335 H 1186.03 -1.67966 0.919765 0
M  V30 12336 H 1184.33 -3.89075 -0.461287 0
M  V30 12337 H 1186.03 -4.00903 -0.0882496 0
M  V30 12338 H 1182.62 -4.06978 1.34413 0
M  V30 12339 H 1186.8 -4.41811 2.2609 0
M  V30 12340 H 1182.06 -4.96897 3.56235 0
M  V30 12341 H 1186.23 -5.33089 4.48095 0
M  V30 12342 H 1183.86 -5.60362 5.1371 0
M  V30 12343 N 1185.44 -0.462799 -1.50652 0
M  V30 12344 C 1186.37 0.325724 -2.31217 0
M  V30 12345 C 1187.35 0.997942 -1.3775 0
M  V30 12346 O 1188.53 0.996707 -1.66671 0
M  V30 12347 C 1185.66 1.41283 -3.17264 0
M  V30 12348 C 1184.62 0.862687 -4.19216 0
M  V30 12349 C 1183.94 2.04746 -4.93946 0
M  V30 12350 C 1185.24 -0.120365 -5.22161 0
M  V30 12351 H 1186.94 -0.346666 -2.97386 0
M  V30 12352 H 1184.48 -0.168163 -1.43015 0
M  V30 12353 H 1186.44 1.97188 -3.72418 0
M  V30 12354 H 1185.16 2.11387 -2.48964 0
M  V30 12355 H 1183.82 0.325671 -3.65151 0
M  V30 12356 H 1183.47 2.73529 -4.22127 0
M  V30 12357 H 1183.17 1.68562 -5.62904 0
M  V30 12358 H 1184.69 2.61157 -5.51932 0
M  V30 12359 H 1186.1 0.349226 -5.72235 0
M  V30 12360 H 1184.5 -0.396061 -5.98792 0
M  V30 12361 H 1185.57 -1.04895 -4.73418 0
M  V30 12362 N 1186.91 1.56388 -0.195085 0
M  V30 12363 C 1187.82 2.22698 0.737743 0
M  V30 12364 C 1188.84 1.22605 1.23466 0
M  V30 12365 O 1190.02 1.55342 1.28183 0
M  V30 12366 C 1187.08 2.87333 1.94011 0
M  V30 12367 C 1186.14 4.02696 1.48776 0
M  V30 12368 C 1185.38 4.64239 2.63282 0
M  V30 12369 O 1185.6 4.24706 3.80763 0
M  V30 12370 O 1184.53 5.53705 2.35996 0
M  V30 12371 H 1188.36 3.03021 0.203013 0
M  V30 12372 H 1185.94 1.49361 0.0342044 0
M  V30 12373 H 1187.83 3.28226 2.64284 0
M  V30 12374 H 1186.5 2.0999 2.46345 0
M  V30 12375 H 1185.41 3.66426 0.753839 0
M  V30 12376 H 1186.74 4.81703 1.01109 0
M  V30 12377 N 1188.39 -0.0785156 1.57404 0
M  V30 12378 C 1189.67 -0.811557 1.77969 0
M  V30 12379 C 1190.05 -1.96123 0.780966 0
M  V30 12380 O 1189.4 -2.27731 -0.18726 0
M  V30 12381 C 1189.61 -1.29075 3.24254 0
M  V30 12382 C 1190.96 -1.72685 3.87898 0
M  V30 12383 O 1191.98 -1.38658 3.28104 0
M  V30 12384 O 1190.84 -2.3566 4.93079 0
M  V30 12385 H 1187.93 -0.388361 0.73014 0
M  V30 12386 H 1190.48 -0.0591118 1.69597 0
M  V30 12387 H 1189.25 -0.467813 3.88494 0
M  V30 12388 H 1188.87 -2.10472 3.37324 0
M  V30 12389 N 1189.87 -1.5367 -0.349747 0
M  V30 12390 C 1191.15 -1.61238 -1.10732 0
M  V30 12391 C 1191.53 -0.429756 -2.06679 0
M  V30 12392 O 1190.88 0.578564 -2.21054 0
M  V30 12393 C 1191.09 -2.97022 -1.83245 0
M  V30 12394 C 1192.43 -3.52158 -2.37212 0
M  V30 12395 O 1193.46 -2.99156 -1.9335 0
M  V30 12396 O 1192.32 -4.44853 -3.1744 0
M  V30 12397 H 1189.41 -0.65191 -0.508864 0
M  V30 12398 H 1191.96 -1.66015 -0.351738 0
M  V30 12399 H 1190.73 -3.74535 -1.13311 0
M  V30 12400 H 1190.35 -2.95808 -2.65675 0
M  V30 12401 N 1191.35 0.610423 -1.45298 0
M  V30 12402 C 1192.76 1.19234 -1.43667 0
M  V30 12403 C 1193.11 1.95523 -0.162794 0
M  V30 12404 O 1192.24 2.03507 0.735789 0
M  V30 12405 C 1192.83 2.16892 -2.60276 0
M  V30 12406 C 1191.39 2.70465 -2.61774 0
M  V30 12407 C 1190.54 1.45821 -2.35863 0
M  V30 12408 H 1193.49 0.399895 -1.53579 0
M  V30 12409 H 1193.51 2.99875 -2.34212 0
M  V30 12410 H 1193.02 1.61339 -3.52975 0
M  V30 12411 H 1191.12 3.29965 -1.73072 0
M  V30 12412 H 1191.23 3.15092 -3.60907 0
M  V30 12413 H 1189.6 1.74678 -1.85364 0
M  V30 12414 H 1190.38 0.921403 -3.30704 0
M  V30 12415 N 1192.83 1.32541 0.852676 0
M  V30 12416 C 1193.74 1.23646 1.99371 0
M  V30 12417 C 1194.75 0.149673 1.73355 0
M  V30 12418 O 1195.93 0.370716 1.97959 0
M  V30 12419 C 1192.99 0.961873 3.3309 0
M  V30 12420 C 1192.05 2.1373 3.72315 0
M  V30 12421 C 1191.29 1.87572 4.99652 0
M  V30 12422 O 1191.51 0.819247 5.64486 0
M  V30 12423 O 1190.44 2.73732 5.36054 0
M  V30 12424 H 1194.27 2.19573 2.09813 0
M  V30 12425 H 1191.86 1.12451 0.983627 0
M  V30 12426 H 1193.74 0.825316 4.13239 0
M  V30 12427 H 1192.41 0.0327745 3.23683 0
M  V30 12428 H 1191.32 2.32933 2.92733 0
M  V30 12429 H 1192.65 3.04925 3.86369 0
M  V30 12430 N 1194.3 -1.0692 1.15784 0
M  V30 12431 C 1195.58 -1.76367 0.845825 0
M  V30 12432 C 1195.96 -2.00594 -0.657672 0
M  V30 12433 O 1195.31 -1.62794 -1.60345 0
M  V30 12434 C 1195.52 -3.06913 1.66149 0
M  V30 12435 C 1196.87 -3.81181 1.87046 0
M  V30 12436 O 1197.89 -3.16737 1.62961 0
M  V30 12437 O 1196.75 -4.96936 2.27413 0
M  V30 12438 H 1193.84 -0.766095 0.311493 0
M  V30 12439 H 1196.39 -1.13246 1.26386 0
M  V30 12440 H 1195.16 -2.84924 2.68205 0
M  V30 12441 H 1194.79 -3.77767 1.24007 0
M  V30 12442 N 1195.78 -0.955326 -1.25345 0
M  V30 12443 C 1197.03 -0.606149 -1.92377 0
M  V30 12444 C 1197.34 0.860927 -1.75634 0
M  V30 12445 O 1198.55 1.3201 -2.37246 0
M  V30 12446 C 1197.01 -1.03341 -3.44744 0
M  V30 12447 C 1196.61 -2.52308 -3.70196 0
M  V30 12448 C 1198.36 -0.756797 -4.17699 0
M  V30 12449 C 1196.27 -2.88831 -5.16072 0
M  V30 12450 H 1195.2 -0.222994 -0.720271 0
M  V30 12451 H 1197.85 -1.15987 -1.42194 0
M  V30 12452 H 1196.23 -0.408096 -3.93892 0
M  V30 12453 H 1197.4 -3.19864 -3.31698 0
M  V30 12454 H 1195.72 -2.77448 -3.10502 0
M  V30 12455 H 1198.31 -1.00583 -5.25154 0
M  V30 12456 H 1198.66 0.306794 -4.15168 0
M  V30 12457 H 1199.19 -1.34249 -3.74462 0
M  V30 12458 H 1195.93 -3.9421 -5.23716 0
M  V30 12459 H 1195.45 -2.25948 -5.55614 0
M  V30 12460 H 1197.13 -2.78061 -5.84201 0
M  V30 12461 N 1197.26 1.39987 -0.723979 0
M  V30 12462 C 1198.21 2.32507 -0.0658033 0
M  V30 12463 C 1199.2 1.52484 0.737908 0
M  V30 12464 O 1200.41 1.68225 0.640332 0
M  V30 12465 H 1196.78 0.751996 -0.00247717 0
M  V30 12466 H 1198.76 2.85657 -0.862696 0
M  V30 12467 C 1197.5 3.37509 0.835628 0
M  V30 12468 H 1196.83 3.99157 0.226589 0
M  V30 12469 H 1198.27 4.04722 1.26396 0
M  V30 12470 C 1196.73 2.73665 1.96492 0
M  V30 12471 O 1197.26 2.60649 3.05655 0
M  V30 12472 N 1195.46 2.3192 1.75104 0
M  V30 12473 H 1195.01 2.42707 0.863204 0
M  V30 12474 H 1194.97 1.89542 2.50841 0
M  V30 12475 N 1198.74 0.470782 1.50404 0
M  V30 12476 C 1199.67 -0.359838 2.26358 0
M  V30 12477 C 1200.68 -0.95735 1.31676 0
M  V30 12478 O 1201.87 -0.84581 1.57189 0
M  V30 12479 C 1198.97 -1.51864 3.02969 0
M  V30 12480 C 1198.15 -1.03397 4.25003 0
M  V30 12481 C 1197.21 -2.06679 4.83911 0
M  V30 12482 O 1196.23 -1.64754 5.44835 0
M  V30 12483 N 1197.43 -3.39484 4.70883 0
M  V30 12484 H 1200.2 0.291299 2.98281 0
M  V30 12485 H 1197.76 0.301549 1.59067 0
M  V30 12486 H 1199.75 -2.2065 3.39258 0
M  V30 12487 H 1198.32 -2.07448 2.33846 0
M  V30 12488 H 1197.54 -0.172012 3.93825 0
M  V30 12489 H 1198.83 -0.68807 5.04126 0
M  V30 12490 H 1198.23 -3.76256 4.22431 0
M  V30 12491 H 1196.78 -4.04068 5.11441 0
M  V30 12492 N 1200.22 -1.56282 0.203376 0
M  V30 12493 C 1201.45 -2.02198 -0.438572 0
M  V30 12494 C 1201.86 -1.08343 -1.54619 0
M  V30 12495 O 1201.22 -0.0897594 -1.82279 0
M  V30 12496 C 1201.27 -3.4776 -0.987184 0
M  V30 12497 O 1200.99 -4.38034 0.0762552 0
M  V30 12498 C 1202.49 -4.09234 -1.70419 0
M  V30 12499 H 1199.71 -0.662041 -0.109282 0
M  V30 12500 H 1202.25 -2.02067 0.314509 0
M  V30 12501 H 1200.41 -3.48564 -1.69061 0
M  V30 12502 H 1200.82 -5.2344 -0.333322 0
M  V30 12503 H 1202.3 -5.1291 -2.04027 0
M  V30 12504 H 1202.77 -3.53172 -2.61087 0
M  V30 12505 H 1203.38 -4.12226 -1.04641 0
M  V30 12506 N 1201.7 0.070167 -1.57444 0
M  V30 12507 C 1202.92 0.785703 -1.91941 0
M  V30 12508 C 1203.35 1.70243 -0.799932 0
M  V30 12509 O 1202.7 1.79608 0.247139 0
M  V30 12510 C 1202.75 1.55398 -3.25398 0
M  V30 12511 O 1201.86 2.66475 -3.14746 0
M  V30 12512 H 1201.2 0.214245 -0.628486 0
M  V30 12513 H 1203.73 0.0379243 -2.04565 0
M  V30 12514 H 1203.74 1.93287 -3.5931 0
M  V30 12515 H 1202.41 0.881366 -4.06454 0
M  V30 12516 H 1200.99 2.3143 -2.92394 0
M  V30 12517 N 1203.17 1.53854 0.341593 0
M  V30 12518 C 1204.58 1.62623 0.917093 0
M  V30 12519 C 1204.94 0.508781 1.89488 0
M  V30 12520 O 1204.06 -0.361171 2.13365 0
M  V30 12521 C 1204.66 2.94775 1.67012 0
M  V30 12522 C 1203.21 3.058 2.19461 0
M  V30 12523 C 1202.36 2.58082 1.01433 0
M  V30 12524 H 1205.31 1.58248 0.119674 0
M  V30 12525 H 1205.33 2.83924 2.53313 0
M  V30 12526 H 1204.85 3.76085 0.958221 0
M  V30 12527 H 1202.95 2.29128 2.93821 0
M  V30 12528 H 1203.06 4.11302 2.45698 0
M  V30 12529 H 1201.42 2.13537 1.38831 0
M  V30 12530 H 1202.21 3.41833 0.317033 0
M  V30 12531 N 1204.65 -0.602709 1.4562 0
M  V30 12532 C 1206.07 -0.923983 1.30133 0
M  V30 12533 C 1206.27 -1.99842 0.25796 0
M  V30 12534 O 1205.32 -2.50112 -0.346414 0
M  V30 12535 C 1206.64 -1.36029 2.68173 0
M  V30 12536 C 1208.18 -1.47423 2.76108 0
M  V30 12537 C 1208.66 -1.94427 4.14683 0
M  V30 12538 N 1210.15 -2.01653 4.17002 0
M  V30 12539 C 1210.89 -2.39255 5.211 0
M  V30 12540 N 1210.38 -2.75791 6.3554 0
M  V30 12541 N 1212.17 -2.39636 5.08459 0
M  V30 12542 H 1204.33 0.107377 2.12128 0
M  V30 12543 H 1206.59 -0.0146216 0.947887 0
M  V30 12544 H 1206.29 -0.644949 3.45736 0
M  V30 12545 H 1206.17 -2.32584 2.96959 0
M  V30 12546 H 1208.56 -2.18047 1.98845 0
M  V30 12547 H 1208.64 -0.4917 2.5103 0
M  V30 12548 H 1208.28 -1.24389 4.92433 0
M  V30 12549 H 1208.21 -2.93603 4.37156 0
M  V30 12550 H 1210.7 -1.75988 3.3442 0
M  V30 12551 H 1211.01 -3.03378 7.10761 0
M  V30 12552 H 1209.36 -2.73475 6.38934 0
M  V30 12553 H 1212.55 -2.10502 4.18098 0
M  V30 12554 H 1212.72 -2.68614 5.89704 0
M  V30 12555 N 1206.13 -1.32992 -0.845635 0
M  V30 12556 C 1207.55 -1.12179 -1.13526 0
M  V30 12557 C 1207.75 0.091795 -2.01291 0
M  V30 12558 O 1206.8 0.774051 -2.40343 0
M  V30 12559 C 1208.11 -2.40584 -1.80388 0
M  V30 12560 C 1209.66 -2.46427 -1.92984 0
M  V30 12561 C 1210.14 -3.74776 -2.63261 0
M  V30 12562 N 1211.63 -3.75809 -2.7078 0
M  V30 12563 C 1212.36 -4.71829 -3.2583 0
M  V30 12564 N 1211.86 -5.78219 -3.81621 0
M  V30 12565 N 1213.65 -4.59313 -3.24018 0
M  V30 12566 H 1205.8 -2.10786 -0.261369 0
M  V30 12567 H 1208.07 -0.931053 -0.17845 0
M  V30 12568 H 1207.77 -3.29357 -1.23357 0
M  V30 12569 H 1207.65 -2.52225 -2.80468 0
M  V30 12570 H 1210.03 -1.58108 -2.4917 0
M  V30 12571 H 1210.11 -2.38732 -0.918732 0
M  V30 12572 H 1209.76 -4.63474 -2.07736 0
M  V30 12573 H 1209.69 -3.79746 -3.6483 0
M  V30 12574 H 1212.18 -2.98916 -2.31209 0
M  V30 12575 H 1212.49 -6.47531 -4.2181 0
M  V30 12576 H 1210.84 -5.81962 -3.79927 0
M  V30 12577 H 1214.03 -3.75358 -2.79685 0
M  V30 12578 H 1214.2 -5.34316 -3.6662 0
M  V30 12579 N 1207.61 1.06304 -1.1635 0
M  V30 12580 C 1209.02 1.31227 -0.90838 0
M  V30 12581 C 1209.22 1.96665 0.438779 0
M  V30 12582 O 1208.28 2.2332 1.17833 0
M  V30 12583 C 1209.59 2.19303 -2.05734 0
M  V30 12584 C 1211.14 2.3272 -2.09309 0
M  V30 12585 C 1211.62 3.24151 -3.23559 0
M  V30 12586 N 1213.11 3.31734 -3.23275 0
M  V30 12587 C 1213.84 4.02572 -4.08318 0
M  V30 12588 N 1213.34 4.75933 -5.03448 0
M  V30 12589 N 1215.13 3.98621 -3.96305 0
M  V30 12590 H 1207.28 0.622228 -2.03081 0
M  V30 12591 H 1209.54 0.336892 -0.886119 0
M  V30 12592 H 1209.25 1.78497 -3.03037 0
M  V30 12593 H 1209.12 3.19888 -1.99879 0
M  V30 12594 H 1211.51 2.72774 -1.12599 0
M  V30 12595 H 1211.59 1.31804 -2.19229 0
M  V30 12596 H 1211.24 2.84813 -4.20528 0
M  V30 12597 H 1211.17 4.25046 -3.10875 0
M  V30 12598 H 1213.66 2.79453 -2.5439 0
M  V30 12599 H 1213.97 5.27512 -5.64758 0
M  V30 12600 H 1212.32 4.74913 -5.07427 0
M  V30 12601 H 1215.51 3.40427 -3.21289 0
M  V30 12602 H 1215.68 4.5356 -4.62804 0
M  V30 12603 N 1209.09 0.96196 1.24836 0
M  V30 12604 C 1210.31 0.637709 1.97353 0
M  V30 12605 C 1210.74 -0.784919 1.7094 0
M  V30 12606 O 1210.09 -1.53188 0.969694 0
M  V30 12607 C 1210.14 0.911485 3.4889 0
M  V30 12608 O 1209.25 -0.00601668 4.124 0
M  V30 12609 H 1208.59 0.241685 0.618453 0
M  V30 12610 H 1211.12 1.29055 1.58764 0
M  V30 12611 H 1211.13 0.840702 3.99245 0
M  V30 12612 H 1209.8 1.9483 3.67442 0
M  V30 12613 H 1208.38 0.117597 3.72715 0
M  V30 12614 N 1210.56 -1.39601 0.731392 0
M  V30 12615 C 1211.98 -1.54334 0.406594 0
M  V30 12616 C 1212.18 -1.69925 -1.08295 0
M  V30 12617 O 1211.24 -1.69771 -1.86906 0
M  V30 12618 C 1212.55 -2.76303 1.18647 0
M  V30 12619 C 1214.1 -2.90135 1.17433 0
M  V30 12620 C 1214.57 -4.15038 1.93669 0
M  V30 12621 N 1216.06 -4.2207 1.90817 0
M  V30 12622 C 1216.8 -5.17656 2.46616 0
M  V30 12623 N 1216.29 -6.19054 3.11037 0
M  V30 12624 N 1218.09 -5.09847 2.3667 0
M  V30 12625 H 1210.24 -1.27728 1.69703 0
M  V30 12626 H 1212.5 -0.6188 0.718186 0
M  V30 12627 H 1212.21 -2.71113 2.24032 0
M  V30 12628 H 1212.08 -3.68866 0.788514 0
M  V30 12629 H 1214.47 -2.9482 0.128615 0
M  V30 12630 H 1214.55 -1.98646 1.61163 0
M  V30 12631 H 1214.19 -4.11115 2.9824 0
M  V30 12632 H 1214.12 -5.05565 1.47349 0
M  V30 12633 H 1216.61 -3.49437 1.43882 0
M  V30 12634 H 1216.93 -6.88444 3.51091 0
M  V30 12635 H 1215.27 -6.19452 3.15126 0
M  V30 12636 H 1218.46 -4.29566 1.85987 0
M  V30 12637 H 1218.64 -5.84165 2.80455 0
M  V30 12638 N 1212.04 -0.478751 -1.50152 0
M  V30 12639 C 1213.46 -0.133356 -1.59042 0
M  V30 12640 C 1213.66 1.36069 -1.48618 0
M  V30 12641 O 1212.71 2.13468 -1.34862 0
M  V30 12642 C 1214.03 -0.690369 -2.92668 0
M  V30 12643 C 1215.58 -0.654481 -3.06081 0
M  V30 12644 C 1216.05 -1.18917 -4.42293 0
M  V30 12645 N 1217.54 -1.14891 -4.48725 0
M  V30 12646 C 1218.28 -1.53305 -5.52526 0
M  V30 12647 N 1217.77 -1.99205 -6.63543 0
M  V30 12648 N 1219.57 -1.4486 -5.43113 0
M  V30 12649 H 1211.72 -1.45037 -1.55171 0
M  V30 12650 H 1213.98 -0.600254 -0.733757 0
M  V30 12651 H 1213.69 -1.7373 -3.05795 0
M  V30 12652 H 1213.56 -0.138227 -3.76947 0
M  V30 12653 H 1215.95 0.383564 -2.92597 0
M  V30 12654 H 1216.03 -1.24352 -2.2354 0
M  V30 12655 H 1215.67 -2.22588 -4.56527 0
M  V30 12656 H 1215.6 -0.57628 -5.23437 0
M  V30 12657 H 1218.09 -0.812344 -3.69066 0
M  V30 12658 H 1218.41 -2.26645 -7.38818 0
M  V30 12659 H 1216.75 -2.03164 -6.64642 0
M  V30 12660 H 1219.94 -1.08836 -4.55272 0
M  V30 12661 H 1220.11 -1.75123 -6.23888 0
M  V30 12662 N 1213.52 1.56172 -0.211661 0
M  V30 12663 C 1214.77 1.97648 0.421871 0
M  V30 12664 C 1215.09 1.10026 1.60995 0
M  V30 12665 O 1214.36 0.175109 1.95116 0
M  V30 12666 H 1212.94 0.729914 0.158852 0
M  V30 12667 H 1215.6 1.92542 -0.302254 0
M  V30 12668 H 1214.7 3.02834 0.754868 0
M  V30 12669 N 1215 -0.0618163 1.57479 0
M  V30 12670 C 1216.23 -0.771724 1.91969 0
M  V30 12671 C 1216.64 -1.7061 0.808549 0
M  V30 12672 O 1216 -1.812 -0.217455 0
M  V30 12673 C 1216.05 -1.55687 3.26257 0
M  V30 12674 O 1215.77 -0.660032 4.331 0
M  V30 12675 C 1217.27 -2.36688 3.74825 0
M  V30 12676 H 1214.49 -0.21885 0.634307 0
M  V30 12677 H 1217.04 -0.0291068 2.04479 0
M  V30 12678 H 1215.19 -2.25167 3.15244 0
M  V30 12679 H 1215.6 -1.20715 5.1042 0
M  V30 12680 H 1217.08 -2.8722 4.7139 0
M  V30 12681 H 1217.56 -3.1666 3.0434 0
M  V30 12682 H 1218.16 -1.72346 3.88815 0
M  V30 12683 N 1216.48 -1.54033 -0.333429 0
M  V30 12684 C 1217.41 -1.85719 -1.4153 0
M  V30 12685 C 1218.39 -0.713144 -1.54429 0
M  V30 12686 O 1219.57 -0.965984 -1.68471 0
M  V30 12687 C 1216.7 -2.07578 -2.78439 0
M  V30 12688 C 1215.66 -3.23411 -2.80338 0
M  V30 12689 C 1214.98 -3.30622 -4.2023 0
M  V30 12690 C 1216.28 -4.6129 -2.44968 0
M  V30 12691 H 1217.98 -2.76325 -1.15261 0
M  V30 12692 H 1215.52 -1.32957 -0.55303 0
M  V30 12693 H 1217.48 -2.28329 -3.5418 0
M  V30 12694 H 1216.2 -1.13713 -3.06165 0
M  V30 12695 H 1214.86 -3.02531 -2.07052 0
M  V30 12696 H 1214.51 -2.34333 -4.45081 0
M  V30 12697 H 1214.21 -4.08466 -4.22409 0
M  V30 12698 H 1215.73 -3.53596 -4.97798 0
M  V30 12699 H 1217.14 -4.81987 -3.10421 0
M  V30 12700 H 1215.54 -5.41611 -2.58414 0
M  V30 12701 H 1216.61 -4.6421 -1.40134 0
M  V30 12702 N 1217.95 0.594978 -1.45938 0
M  V30 12703 C 1219.18 1.38482 -1.54394 0
M  V30 12704 C 1219.6 1.87222 -0.181563 0
M  V30 12705 O 1218.96 1.60869 0.836119 0
M  V30 12706 C 1219.01 2.55676 -2.54287 0
M  V30 12707 O 1218.11 3.5672 -2.06941 0
M  V30 12708 H 1217.46 0.412918 -0.519995 0
M  V30 12709 H 1219.99 0.722899 -1.91404 0
M  V30 12710 H 1220 3.02756 -2.73501 0
M  V30 12711 H 1218.67 2.19552 -3.53228 0
M  V30 12712 H 1217.25 3.16204 -1.97661 0
M  V30 12713 N 1219.43 1.33438 0.838571 0
M  V30 12714 C 1220.66 1.28097 1.63113 0
M  V30 12715 C 1221.08 -0.145197 1.87539 0
M  V30 12716 O 1220.44 -1.10191 1.43971 0
M  V30 12717 C 1220.49 2.06201 2.95827 0
M  V30 12718 O 1219.59 1.42082 3.87152 0
M  V30 12719 H 1218.93 0.440685 0.496681 0
M  V30 12720 H 1221.46 1.76004 1.04325 0
M  V30 12721 H 1221.47 2.16977 3.45521 0
M  V30 12722 H 1220.15 3.099 2.77371 0
M  V30 12723 H 1218.73 1.39953 3.45641 0
M  V30 12724 N 1220.91 -1.05686 1.16912 0
M  V30 12725 C 1222.16 -1.77987 0.948875 0
M  V30 12726 C 1222.47 -1.8845 -0.524011 0
M  V30 12727 O 1223.68 -2.57442 -0.862322 0
M  V30 12728 C 1222.13 -3.19927 1.64848 0
M  V30 12729 C 1221.74 -3.1761 3.15956 0
M  V30 12730 C 1223.49 -3.96719 1.51044 0
M  V30 12731 C 1221.39 -4.54307 3.78628 0
M  V30 12732 H 1220.32 -0.667119 0.35138 0
M  V30 12733 H 1222.97 -1.18496 1.40111 0
M  V30 12734 H 1221.36 -3.79714 1.12397 0
M  V30 12735 H 1222.53 -2.67369 3.75301 0
M  V30 12736 H 1220.85 -2.54317 3.29715 0
M  V30 12737 H 1223.44 -4.97779 1.95243 0
M  V30 12738 H 1223.79 -4.13748 0.460268 0
M  V30 12739 H 1224.32 -3.43468 2.00685 0
M  V30 12740 H 1221.06 -4.42484 4.8362 0
M  V30 12741 H 1220.58 -5.04717 3.24069 0
M  V30 12742 H 1222.26 -5.23255 3.80543 0
M  V30 12743 N 1222.39 -0.968567 -1.24324 0
M  V30 12744 C 1223.61 -0.648166 -1.97012 0
M  V30 12745 C 1224.04 0.775842 -1.71354 0
M  V30 12746 O 1223.4 1.52672 -0.977804 0
M  V30 12747 C 1223.44 -0.929974 -3.48402 0
M  V30 12748 O 1222.55 -0.015854 -4.12397 0
M  V30 12749 H 1221.89 -0.244961 -0.617163 0
M  V30 12750 H 1224.42 -1.29895 -1.58077 0
M  V30 12751 H 1224.43 -0.861863 -3.98793 0
M  V30 12752 H 1223.1 -1.96776 -3.66404 0
M  V30 12753 H 1221.68 -0.137361 -3.72647 0
M  V30 12754 N 1223.87 1.39211 -0.738786 0
M  V30 12755 C 1225.09 2.05256 -0.297421 0
M  V30 12756 C 1225.52 1.55341 1.06069 0
M  V30 12757 O 1224.87 0.698823 1.67291 0
M  V30 12758 C 1224.92 3.59239 -0.312969 0
M  V30 12759 O 1224.03 4.06448 0.698112 0
M  V30 12760 H 1223.37 0.650245 -0.134454 0
M  V30 12761 H 1225.9 1.78173 -1.00577 0
M  V30 12762 H 1225.91 4.07691 -0.158675 0
M  V30 12763 H 1224.58 3.94931 -1.30394 0
M  V30 12764 H 1223.16 3.69401 0.509643 0
M  V30 12765 N 1225.34 0.486708 1.49896 0
M  V30 12766 C 1226.27 -0.288898 2.31706 0
M  V30 12767 C 1227.26 -0.975901 1.3932 0
M  V30 12768 O 1228.44 -0.970065 1.68236 0
M  V30 12769 C 1225.57 -1.36218 3.19471 0
M  V30 12770 C 1224.52 -0.795884 4.20535 0
M  V30 12771 C 1223.85 -1.96862 4.97141 0
M  V30 12772 C 1225.15 0.203421 5.21904 0
M  V30 12773 H 1226.84 0.393934 2.96797 0
M  V30 12774 H 1224.39 0.190894 1.42729 0
M  V30 12775 H 1226.34 -1.91238 3.75508 0
M  V30 12776 H 1225.07 -2.074 2.52295 0
M  V30 12777 H 1223.73 -0.267538 3.65622 0
M  V30 12778 H 1223.37 -2.66779 4.26425 0
M  V30 12779 H 1223.07 -1.59585 5.65514 0
M  V30 12780 H 1224.6 -2.52343 5.56017 0
M  V30 12781 H 1226.01 -0.258144 5.72719 0
M  V30 12782 H 1224.41 0.491273 5.98086 0
M  V30 12783 H 1225.48 1.12414 4.7169 0
M  V30 12784 N 1226.82 -1.56058 0.219941 0
M  V30 12785 C 1227.77 -2.20218 -0.690846 0
M  V30 12786 C 1228.74 -1.15725 -1.19151 0
M  V30 12787 O 1229.93 -1.44073 -1.2509 0
M  V30 12788 C 1227.07 -2.88477 -1.89408 0
M  V30 12789 C 1226.18 -4.07559 -1.43246 0
M  V30 12790 C 1225.31 -4.63605 -2.59314 0
M  V30 12791 C 1224.35 -5.74993 -2.0988 0
M  V30 12792 N 1223.49 -6.25337 -3.19214 0
M  V30 12793 H 1228.33 -2.97685 -0.136992 0
M  V30 12794 H 1225.87 -1.46994 -0.055865 0
M  V30 12795 H 1227.82 -3.26235 -2.60051 0
M  V30 12796 H 1226.45 -2.1353 -2.42084 0
M  V30 12797 H 1225.51 -3.75297 -0.621013 0
M  V30 12798 H 1226.82 -4.8805 -1.02997 0
M  V30 12799 H 1225.97 -5.03798 -3.38041 0
M  V30 12800 H 1224.71 -3.82274 -3.0285 0
M  V30 12801 H 1223.72 -5.34304 -1.29613 0
M  V30 12802 H 1224.94 -6.58158 -1.67345 0
M  V30 12803 H 1222.89 -5.4692 -3.62236 0
M  V30 12804 H 1222.8 -7.00947 -2.83213 0
M  V30 12805 H 1224.07 -6.70187 -3.98083 0
M  V30 12806 N 1228.3 0.053464 -1.57509 0
M  V30 12807 C 1229.53 0.765301 -1.92764 0
M  V30 12808 C 1229.95 1.69385 -0.817943 0
M  V30 12809 O 1229.31 1.7986 0.228075 0
M  V30 12810 C 1229.36 1.51938 -3.27028 0
M  V30 12811 O 1228.46 2.63121 -3.17555 0
M  V30 12812 H 1227.8 0.207567 -0.630723 0
M  V30 12813 H 1230.33 0.0162254 -2.04594 0
M  V30 12814 H 1230.34 1.89466 -3.6134 0
M  V30 12815 H 1229.02 0.838207 -4.07366 0
M  V30 12816 H 1227.59 2.28316 -2.94832 0
M  V30 12817 N 1229.78 1.54207 0.325255 0
M  V30 12818 C 1230.69 1.86495 1.42326 0
M  V30 12819 C 1231.71 0.756718 1.56684 0
M  V30 12820 O 1232.88 1.05084 1.71812 0
M  V30 12821 C 1229.95 2.08414 2.77064 0
M  V30 12822 C 1229.01 3.32221 2.71897 0
M  V30 12823 C 1228.24 3.53085 4.00209 0
M  V30 12824 O 1228.46 2.77421 4.98391 0
M  V30 12825 O 1227.4 4.46559 4.0357 0
M  V30 12826 H 1231.22 2.79859 1.17951 0
M  V30 12827 H 1228.81 1.40091 0.519124 0
M  V30 12828 H 1230.69 2.24171 3.56827 0
M  V30 12829 H 1229.37 1.18238 3.01333 0
M  V30 12830 H 1228.27 3.21851 1.90691 0
M  V30 12831 H 1229.61 4.22449 2.52582 0
M  V30 12832 N 1231.26 -0.58723 1.46251 0
M  V30 12833 C 1232.53 -1.34727 1.41802 0
M  V30 12834 C 1232.91 -2.10867 0.0991354 0
M  V30 12835 O 1232.26 -2.09194 -0.919242 0
M  V30 12836 C 1232.47 -2.27706 2.64482 0
M  V30 12837 C 1233.82 -2.89678 3.10438 0
M  V30 12838 O 1234.84 -2.38021 2.64999 0
M  V30 12839 O 1233.7 -3.83493 3.89352 0
M  V30 12840 H 1230.8 -0.605119 0.563702 0
M  V30 12841 H 1233.34 -0.608623 1.5841 0
M  V30 12842 H 1232.12 -1.70842 3.52035 0
M  V30 12843 H 1231.74 -3.08918 2.50311 0
M  V30 12844 N 1232.74 -1.33881 -0.831482 0
M  V30 12845 C 1233.67 -1.27384 -1.95693 0
M  V30 12846 C 1234.65 -0.152943 -1.69411 0
M  V30 12847 O 1235.83 -0.34392 -1.9113 0
M  V30 12848 C 1232.96 -1.01982 -3.31989 0
M  V30 12849 C 1231.92 -2.10445 -3.72689 0
M  V30 12850 C 1231.24 -1.70245 -5.06873 0
M  V30 12851 C 1232.54 -3.52194 -3.8569 0
M  V30 12852 H 1234.24 -2.21549 -2.01386 0
M  V30 12853 H 1231.78 -1.06653 -0.967526 0
M  V30 12854 H 1233.73 -0.960841 -4.103 0
M  V30 12855 H 1232.46 -0.0425709 -3.26572 0
M  V30 12856 H 1231.12 -2.15398 -2.96647 0
M  V30 12857 H 1230.77 -0.712036 -4.97935 0
M  V30 12858 H 1230.47 -2.42834 -5.35075 0
M  V30 12859 H 1231.99 -1.65827 -5.87651 0
M  V30 12860 H 1233.4 -3.49701 -4.54293 0
M  V30 12861 H 1231.8 -4.23331 -4.25336 0
M  V30 12862 H 1232.87 -3.9016 -2.87929 0
M  V30 12863 N 1234.21 1.05064 -1.1747 0
M  V30 12864 C 1235.49 1.74999 -0.873776 0
M  V30 12865 C 1235.87 2.01615 0.625676 0
M  V30 12866 O 1235.22 1.65324 1.57734 0
M  V30 12867 C 1235.43 3.04231 -1.7101 0
M  V30 12868 C 1236.78 3.78157 -1.93087 0
M  V30 12869 O 1237.8 3.14104 -1.6798 0
M  V30 12870 O 1236.66 4.93255 -2.3529 0
M  V30 12871 H 1233.75 0.761042 -0.323641 0
M  V30 12872 H 1236.3 1.1122 -1.28172 0
M  V30 12873 H 1235.07 2.80621 -2.72704 0
M  V30 12874 H 1234.69 3.75746 -1.30002 0
M  V30 12875 N 1235.69 0.975146 1.23809 0
M  V30 12876 C 1236.64 0.503396 2.27087 0
M  V30 12877 C 1237.63 -0.43689 1.63669 0
M  V30 12878 O 1238.84 -0.31136 1.77287 0
M  V30 12879 H 1235.21 0.144346 0.738017 0
M  V30 12880 H 1237.19 1.38627 2.64244 0
M  V30 12881 C 1235.93 -0.183682 3.47214 0
M  V30 12882 H 1235.26 0.530753 3.96261 0
M  V30 12883 H 1236.7 -0.477479 4.21303 0
M  V30 12884 C 1235.16 -1.41317 3.05829 0
M  V30 12885 O 1235.69 -2.50975 3.13647 0
M  V30 12886 N 1233.89 -1.28191 2.60798 0
M  V30 12887 H 1233.44 -0.38967 2.54636 0
M  V30 12888 H 1233.4 -2.10565 2.33473 0
M  V30 12889 N 1237.17 -1.38817 0.746158 0
M  V30 12890 C 1238.1 -2.33144 0.128836 0
M  V30 12891 C 1239.08 -1.54487 -0.711873 0
M  V30 12892 O 1240.27 -1.82836 -0.654577 0
M  V30 12893 C 1237.4 -3.38639 -0.770772 0
M  V30 12894 C 1236.35 -4.27987 -0.0333669 0
M  V30 12895 C 1235.68 -5.24274 -1.05073 0
M  V30 12896 C 1236.98 -5.09915 1.13066 0
M  V30 12897 H 1238.67 -2.85019 0.916778 0
M  V30 12898 H 1236.22 -1.37039 0.442306 0
M  V30 12899 H 1238.17 -4.03587 -1.21225 0
M  V30 12900 H 1236.89 -2.8523 -1.59095 0
M  V30 12901 H 1235.55 -3.64534 0.388612 0
M  V30 12902 H 1235.2 -4.67156 -1.86478 0
M  V30 12903 H 1234.9 -5.84906 -0.562037 0
M  V30 12904 H 1236.42 -5.92099 -1.49169 0
M  V30 12905 H 1237.84 -5.68145 0.767084 0
M  V30 12906 H 1236.23 -5.79744 1.54972 0
M  V30 12907 H 1237.3 -4.4409 1.94709 0
M  V30 12908 N 1238.65 -0.49465 -1.49636 0
M  V30 12909 C 1239.6 0.300929 -2.30645 0
M  V30 12910 C 1240.59 0.968687 -1.38971 0
M  V30 12911 O 1241.8 0.897101 -1.56052 0
M  V30 12912 H 1238.17 0.1159 -0.743015 0
M  V30 12913 H 1240.14 -0.402387 -2.95674 0
M  V30 12914 C 1238.89 1.35638 -3.20153 0
M  V30 12915 H 1238.21 0.851946 -3.90617 0
M  V30 12916 H 1239.65 1.88515 -3.79787 0
M  V30 12917 C 1238.11 2.37112 -2.39331 0
M  V30 12918 O 1238.64 3.42867 -2.09298 0
M  V30 12919 N 1236.85 2.09421 -2.01473 0
M  V30 12920 H 1236.4 1.23441 -2.26097 0
M  V30 12921 H 1236.35 2.77545 -1.47703 0
M  V30 12922 N 1240.13 1.55939 -0.228214 0
M  V30 12923 C 1241.06 2.2357 0.6737 0
M  V30 12924 C 1242.04 1.20964 1.1959 0
M  V30 12925 O 1243.22 1.49568 1.23867 0
M  V30 12926 C 1240.35 2.92076 1.87906 0
M  V30 12927 C 1239.31 4.01211 1.49043 0
M  V30 12928 C 1238.63 4.57047 2.77511 0
M  V30 12929 C 1239.93 5.17914 0.67544 0
M  V30 12930 H 1241.63 2.99199 0.109806 0
M  V30 12931 H 1239.17 1.43908 0.0513732 0
M  V30 12932 H 1241.12 3.38083 2.51551 0
M  V30 12933 H 1239.85 2.13906 2.46803 0
M  V30 12934 H 1238.51 3.55945 0.877411 0
M  V30 12935 H 1238.16 3.75599 3.34566 0
M  V30 12936 H 1237.86 5.30707 2.52239 0
M  V30 12937 H 1239.38 5.05776 3.42087 0
M  V30 12938 H 1240.79 5.60261 1.21575 0
M  V30 12939 H 1239.19 5.97847 0.519536 0
M  V30 12940 H 1240.26 4.83866 -0.316495 0
M  V30 12941 N 1241.6 -0.0451101 1.57535 0
M  V30 12942 C 1242.88 -0.773625 1.79651 0
M  V30 12943 C 1243.26 -1.94422 0.822391 0
M  V30 12944 O 1242.61 -2.28077 -0.138913 0
M  V30 12945 C 1242.82 -1.22168 3.26919 0
M  V30 12946 C 1244.17 -1.64419 3.91474 0
M  V30 12947 O 1245.19 -1.31668 3.30971 0
M  V30 12948 O 1244.05 -2.25148 4.97967 0
M  V30 12949 H 1241.14 -0.372786 0.738214 0
M  V30 12950 H 1243.69 -0.0231245 1.69684 0
M  V30 12951 H 1242.46 -0.385302 3.89398 0
M  V30 12952 H 1242.09 -2.03269 3.41713 0
M  V30 12953 N 1243.08 -1.54377 -0.317073 0
M  V30 12954 C 1244.03 -1.80597 -1.39172 0
M  V30 12955 C 1245.02 -0.662289 -1.46637 0
M  V30 12956 O 1246.21 -0.922477 -1.51061 0
M  V30 12957 C 1243.34 -2.04252 -2.75927 0
M  V30 12958 C 1242.42 -3.2476 -2.72749 0
M  V30 12959 N 1242.81 -4.45671 -2.39189 0
M  V30 12960 C 1241.11 -3.26464 -3.03871 0
M  V30 12961 C 1241.81 -5.27631 -2.44908 0
M  V30 12962 N 1240.79 -4.64968 -2.81613 0
M  V30 12963 H 1244.59 -2.71655 -1.12164 0
M  V30 12964 H 1242.11 -1.5366 -0.525586 0
M  V30 12965 H 1244.1 -2.21178 -3.53392 0
M  V30 12966 H 1242.76 -1.14452 -3.0386 0
M  V30 12967 H 1243.77 -4.72556 -2.11922 0
M  V30 12968 H 1240.45 -2.46718 -3.36803 0
M  V30 12969 H 1241.84 -6.34202 -2.21896 0
M  V30 12970 N 1244.56 0.579466 -1.4656 0
M  V30 12971 C 1245.49 1.69846 -1.60233 0
M  V30 12972 C 1246.47 1.6397 -0.452533 0
M  V30 12973 O 1247.66 1.81936 -0.679174 0
M  V30 12974 C 1244.79 3.08488 -1.59538 0
M  V30 12975 C 1243.74 3.29197 -2.7352 0
M  V30 12976 C 1243.07 4.684 -2.57887 0
M  V30 12977 C 1244.37 3.16718 -4.15315 0
M  V30 12978 H 1246.06 1.5866 -2.53904 0
M  V30 12979 H 1243.61 0.761873 -1.22194 0
M  V30 12980 H 1245.56 3.86595 -1.67696 0
M  V30 12981 H 1244.28 3.20581 -0.62413 0
M  V30 12982 H 1242.94 2.53491 -2.64836 0
M  V30 12983 H 1242.59 4.77262 -1.58839 0
M  V30 12984 H 1242.29 4.83208 -3.34341 0
M  V30 12985 H 1243.81 5.48671 -2.67942 0
M  V30 12986 H 1245.23 3.84666 -4.25094 0
M  V30 12987 H 1243.63 3.43047 -4.92381 0
M  V30 12988 H 1244.7 2.13755 -4.35244 0
M  V30 12989 N 1246.04 1.3432 0.824371 0
M  V30 12990 C 1246.99 1.22332 1.92403 0
M  V30 12991 C 1247.97 0.122709 1.60431 0
M  V30 12992 O 1249.16 0.352231 1.7346 0
M  V30 12993 C 1246.29 0.979497 3.2903 0
M  V30 12994 C 1245.38 2.12322 3.67124 0
M  V30 12995 N 1245.77 3.3743 3.76795 0
M  V30 12996 C 1244.07 2.03314 3.96963 0
M  V30 12997 C 1244.77 4.12532 4.10113 0
M  V30 12998 N 1243.75 3.41109 4.23256 0
M  V30 12999 H 1247.55 2.17143 1.98056 0
M  V30 13000 H 1245.06 1.26537 1.01795 0
M  V30 13001 H 1247.06 0.874525 4.07624 0
M  V30 13002 H 1245.72 0.0400611 3.24675 0
M  V30 13003 H 1246.73 3.72001 3.60327 0
M  V30 13004 H 1243.41 1.17118 4.00736 0
M  V30 13005 H 1244.8 5.20562 4.24811 0
M  V30 13006 N 1247.52 -1.0444 1.18026 0
M  V30 13007 C 1248.76 -1.77575 0.973314 0
M  V30 13008 C 1249.09 -1.88032 -0.4974 0
M  V30 13009 O 1248.35 -1.38214 -1.38548 0
M  V30 13010 C 1248.65 -3.21134 1.56869 0
M  V30 13011 C 1248.31 -3.30718 3.0649 0
M  V30 13012 C 1246.97 -3.33041 3.47328 0
M  V30 13013 C 1249.33 -3.3112 4.02503 0
M  V30 13014 C 1246.65 -3.33404 4.82762 0
M  V30 13015 C 1249.01 -3.33023 5.37846 0
M  V30 13016 C 1247.67 -3.33636 5.78138 0
M  V30 13017 H 1246.94 -0.649793 0.356161 0
M  V30 13018 H 1249.59 -1.22693 1.47033 0
M  V30 13019 H 1247.89 -3.78992 0.993584 0
M  V30 13020 H 1249.59 -3.76358 1.38404 0
M  V30 13021 H 1246.18 -3.29628 2.7394 0
M  V30 13022 H 1250.36 -3.2852 3.72006 0
M  V30 13023 H 1245.62 -3.32194 5.13281 0
M  V30 13024 H 1249.79 -3.32283 6.12014 0
M  V30 13025 H 1247.42 -3.33671 6.83058 0
M  V30 13026 N 1248.99 -0.981699 -1.2329 0
M  V30 13027 C 1250.22 -0.66937 -1.95773 0
M  V30 13028 C 1250.64 0.763898 -1.72656 0
M  V30 13029 O 1249.99 1.51418 -1.01876 0
M  V30 13030 C 1250.05 -0.951863 -3.48743 0
M  V30 13031 O 1249.77 -2.3288 -3.71078 0
M  V30 13032 C 1251.27 -0.655668 -4.38424 0
M  V30 13033 H 1248.49 -0.248545 -0.623271 0
M  V30 13034 H 1251.03 -1.31343 -1.56746 0
M  V30 13035 H 1249.19 -0.353787 -3.85781 0
M  V30 13036 H 1249.6 -2.41948 -4.65362 0
M  V30 13037 H 1251.07 -0.903683 -5.44553 0
M  V30 13038 H 1251.55 0.410269 -4.3728 0
M  V30 13039 H 1252.16 -1.23428 -4.06996 0
M  V30 13040 N 1250.47 1.3842 -0.753509 0
M  V30 13041 C 1251.88 1.82847 -0.377331 0
M  V30 13042 C 1252.23 1.62867 1.09401 0
M  V30 13043 O 1251.36 1.12981 1.84565 0
M  V30 13044 C 1251.95 3.31945 -0.678095 0
M  V30 13045 C 1250.51 3.7472 -0.355196 0
M  V30 13046 C 1249.66 2.61193 -0.931311 0
M  V30 13047 H 1252.61 1.2715 -0.949667 0
M  V30 13048 H 1252.63 3.80475 0.0437292 0
M  V30 13049 H 1252.14 3.46455 -1.74902 0
M  V30 13050 H 1250.25 3.65789 0.70915 0
M  V30 13051 H 1250.36 4.71487 -0.850693 0
M  V30 13052 H 1248.72 2.5219 -0.356695 0
M  V30 13053 H 1249.51 2.78503 -2.00727 0
M  V30 13054 N 1251.95 0.502579 1.49372 0
M  V30 13055 C 1252.86 -0.279532 2.32929 0
M  V30 13056 C 1253.88 -0.965806 1.44735 0
M  V30 13057 O 1255.05 -0.946839 1.77755 0
M  V30 13058 C 1252.12 -1.32913 3.20211 0
M  V30 13059 C 1251.18 -0.656121 4.24256 0
M  V30 13060 C 1250.41 -1.65571 5.07368 0
M  V30 13061 O 1250.63 -2.88571 4.92019 0
M  V30 13062 O 1249.57 -1.21016 5.89609 0
M  V30 13063 H 1253.39 0.404427 3.00995 0
M  V30 13064 H 1250.98 0.263888 1.47051 0
M  V30 13065 H 1252.86 -1.93635 3.74277 0
M  V30 13066 H 1251.54 -1.99598 2.54837 0
M  V30 13067 H 1250.44 -0.00911489 3.74099 0
M  V30 13068 H 1251.78 -0.0316802 4.9219 0
M  V30 13069 N 1253.43 -1.55816 0.23648 0
M  V30 13070 C 1254.65 -2.03534 -0.398575 0
M  V30 13071 C 1255.08 -1.11488 -1.51499 0
M  V30 13072 O 1254.44 -0.105848 -1.80991 0
M  V30 13073 C 1254.48 -3.49356 -0.893467 0
M  V30 13074 O 1253.59 -3.60446 -2.00381 0
M  V30 13075 H 1252.93 -0.658102 -0.0883021 0
M  V30 13076 H 1255.46 -2.01417 0.359488 0
M  V30 13077 H 1255.47 -3.89972 -1.19941 0
M  V30 13078 H 1254.14 -4.1583 -0.0764388 0
M  V30 13079 H 1252.72 -3.31723 -1.70336 0
M  V30 13080 N 1254.91 0.036755 -1.57557 0
M  V30 13081 C 1256.16 0.728107 -1.881 0
M  V30 13082 C 1256.47 1.7693 -0.833974 0
M  V30 13083 O 1257.67 2.5127 -1.02837 0
M  V30 13084 C 1256.13 1.34604 -3.33781 0
M  V30 13085 C 1255.74 0.341599 -4.46696 0
M  V30 13086 C 1257.48 2.01772 -3.73481 0
M  V30 13087 C 1255.39 0.967444 -5.83433 0
M  V30 13088 H 1254.32 0.275695 -0.701789 0
M  V30 13089 H 1256.97 -0.0177555 -1.83491 0
M  V30 13090 H 1255.35 2.14135 -3.3311 0
M  V30 13091 H 1256.53 -0.426441 -4.58823 0
M  V30 13092 H 1254.84 -0.227558 -4.15778 0
M  V30 13093 H 1257.44 2.49435 -4.72955 0
M  V30 13094 H 1257.78 2.83255 -3.05077 0
M  V30 13095 H 1258.31 1.29026 -3.76294 0
M  V30 13096 H 1255.05 0.19219 -6.55218 0
M  V30 13097 H 1254.57 1.70551 -5.75041 0
M  V30 13098 H 1256.25 1.47705 -6.29914 0
M  V30 13099 N 1256.39 1.54543 0.308881 0
M  V30 13100 C 1257.8 1.45581 0.654088 0
M  V30 13101 C 1258 0.640597 1.91046 0
M  V30 13102 O 1257.06 0.14518 2.52082 0
M  V30 13103 C 1258.37 2.89461 0.814422 0
M  V30 13104 C 1259.92 2.99455 0.910817 0
M  V30 13105 C 1260.39 4.44515 1.10321 0
M  V30 13106 N 1261.88 4.4819 1.1696 0
M  V30 13107 C 1262.62 5.57604 1.33661 0
M  V30 13108 N 1262.12 6.76957 1.47311 0
M  V30 13109 N 1263.91 5.45278 1.36487 0
M  V30 13110 H 1256.06 2.06019 -0.516699 0
M  V30 13111 H 1258.32 0.932729 -0.169471 0
M  V30 13112 H 1258.03 3.5168 -0.0377455 0
M  V30 13113 H 1257.9 3.36425 1.70582 0
M  V30 13114 H 1260.29 2.37355 1.75348 0
M  V30 13115 H 1260.37 2.558 -0.00443172 0
M  V30 13116 H 1260.01 5.07206 0.265346 0
M  V30 13117 H 1259.94 4.85793 2.03256 0
M  V30 13118 H 1262.44 3.62199 1.07796 0
M  V30 13119 H 1262.75 7.561 1.59788 0
M  V30 13120 H 1261.09 6.79837 1.44382 0
M  V30 13121 H 1264.28 4.50983 1.25429 0
M  V30 13122 H 1264.46 6.30599 1.4916 0
M  V30 13123 N 1257.86 -0.571685 1.46866 0
M  V30 13124 C 1259.11 -1.32948 1.52745 0
M  V30 13125 C 1259.44 -1.93631 0.183694 0
M  V30 13126 O 1258.69 -1.77605 -0.821886 0
M  V30 13127 C 1258.99 -2.47051 2.58264 0
M  V30 13128 C 1258.66 -2.04291 4.01965 0
M  V30 13129 C 1257.32 -1.92345 4.41086 0
M  V30 13130 C 1259.67 -1.71458 4.9219 0
M  V30 13131 C 1257 -1.4584 5.68285 0
M  V30 13132 C 1259.35 -1.26429 6.19837 0
M  V30 13133 C 1258.02 -1.13068 6.57854 0
M  V30 13134 H 1257.29 -0.48649 0.558935 0
M  V30 13135 H 1259.93 -0.642618 1.80396 0
M  V30 13136 H 1258.24 -3.21231 2.24316 0
M  V30 13137 H 1259.94 -3.05254 2.6004 0
M  V30 13138 H 1256.53 -2.14527 3.71047 0
M  V30 13139 H 1260.71 -1.79567 4.62676 0
M  V30 13140 H 1255.97 -1.34148 5.96502 0
M  V30 13141 H 1260.14 -1.00081 6.89171 0
M  V30 13142 H 1257.77 -0.768094 7.5631 0
M  V30 13143 N 1259.34 -1.34755 -0.817236 0
M  V30 13144 C 1260.29 -1.26801 -1.92848 0
M  V30 13145 C 1261.26 -0.142077 -1.65491 0
M  V30 13146 O 1262.44 -0.324006 -1.88029 0
M  V30 13147 C 1259.58 -1.03513 -3.2921 0
M  V30 13148 C 1258.7 -2.24932 -3.68822 0
M  V30 13149 C 1257.83 -1.94881 -4.94161 0
M  V30 13150 C 1256.87 -3.12411 -5.2637 0
M  V30 13151 N 1256.01 -2.82207 -6.42887 0
M  V30 13152 H 1260.85 -2.21832 -1.98983 0
M  V30 13153 H 1258.38 -1.10284 -0.973439 0
M  V30 13154 H 1260.34 -0.88047 -4.07803 0
M  V30 13155 H 1258.97 -0.121478 -3.22571 0
M  V30 13156 H 1258.02 -2.51299 -2.85575 0
M  V30 13157 H 1259.34 -3.12726 -3.88592 0
M  V30 13158 H 1258.49 -1.76184 -5.80555 0
M  V30 13159 H 1257.23 -1.04355 -4.76405 0
M  V30 13160 H 1256.23 -3.31698 -4.3847 0
M  V30 13161 H 1257.46 -4.03724 -5.46062 0
M  V30 13162 H 1255.41 -1.94263 -6.26576 0
M  V30 13163 H 1255.32 -3.63534 -6.62857 0
M  V30 13164 H 1256.59 -2.67026 -7.32337 0
M  V30 13165 N 1260.82 1.03812 -1.18578 0
M  V30 13166 C 1261.73 2.15371 -0.930182 0
M  V30 13167 C 1262.75 1.73673 0.106599 0
M  V30 13168 O 1263.92 2.01257 -0.0759054 0
M  V30 13169 C 1260.99 3.43606 -0.462151 0
M  V30 13170 C 1260.05 3.99671 -1.5672 0
M  V30 13171 C 1259.28 5.21785 -1.12141 0
M  V30 13172 O 1259.5 5.70397 0.0188357 0
M  V30 13173 O 1258.44 5.70449 -1.9202 0
M  V30 13174 H 1262.26 2.39791 -1.86371 0
M  V30 13175 H 1259.85 1.13814 -0.967819 0
M  V30 13176 H 1261.73 4.2088 -0.20934 0
M  V30 13177 H 1260.41 3.20654 0.443052 0
M  V30 13178 H 1259.31 3.23774 -1.87406 0
M  V30 13179 H 1260.65 4.2697 -2.44862 0
M  V30 13180 N 1262.3 0.988223 1.22768 0
M  V30 13181 C 1263.24 0.534605 2.24523 0
M  V30 13182 C 1264.21 -0.430615 1.60421 0
M  V30 13183 O 1265.4 -0.336417 1.87811 0
M  V30 13184 C 1262.54 -0.149195 3.44777 0
M  V30 13185 C 1261.65 0.85721 4.2341 0
M  V30 13186 C 1260.79 0.147411 5.30995 0
M  V30 13187 C 1259.83 1.1425 6.01343 0
M  V30 13188 N 1258.96 0.461327 7.00583 0
M  V30 13189 H 1263.8 1.40708 2.62689 0
M  V30 13190 H 1261.34 0.704918 1.2911 0
M  V30 13191 H 1263.3 -0.562527 4.1339 0
M  V30 13192 H 1261.93 -0.985485 3.07389 0
M  V30 13193 H 1260.98 1.38889 3.54138 0
M  V30 13194 H 1262.29 1.61517 4.71926 0
M  V30 13195 H 1261.45 -0.32289 6.0584 0
M  V30 13196 H 1260.19 -0.643085 4.83442 0
M  V30 13197 H 1259.19 1.62348 5.25284 0
M  V30 13198 H 1260.42 1.93379 6.50985 0
M  V30 13199 H 1258.36 -0.309818 6.55268 0
M  V30 13200 H 1258.28 1.15781 7.47082 0
M  V30 13201 H 1259.55 0.0136734 7.79499 0
M  V30 13202 N 1263.78 -1.38018 0.760839 0
M  V30 13203 C 1265.02 -2.01795 0.325264 0
M  V30 13204 C 1265.38 -1.59092 -1.07489 0
M  V30 13205 O 1266.58 -2.15251 -1.60998 0
M  V30 13206 C 1264.85 -3.5453 0.452007 0
M  V30 13207 S 1266.41 -4.38686 0.100084 0
M  V30 13208 H 1263.23 -0.69979 0.125758 0
M  V30 13209 H 1265.83 -1.684 0.993054 0
M  V30 13210 H 1264.53 -3.83099 1.47186 0
M  V30 13211 H 1264.07 -3.92711 -0.232716 0
M  V30 13212 H 1266.08 -4.83672 -1.10797 0
M  V30 13213 N 1265.25 -0.510493 -1.49103 0
M  V30 13214 C 1266.5 0.030689 -2.02777 0
M  V30 13215 C 1266.83 1.35765 -1.38858 0
M  V30 13216 O 1266.11 1.87209 -0.527528 0
M  V30 13217 C 1266.39 0.173261 -3.59683 0
M  V30 13218 C 1266.24 -1.17749 -4.34114 0
M  V30 13219 C 1267.56 0.909395 -4.30602 0
M  V30 13220 H 1264.68 0.0096789 -0.736936 0
M  V30 13221 H 1267.32 -0.663746 -1.78029 0
M  V30 13222 H 1265.47 0.764721 -3.80899 0
M  V30 13223 H 1267.15 -1.80856 -4.24369 0
M  V30 13224 H 1265.39 -1.76438 -3.96298 0
M  V30 13225 H 1266.06 -1.03094 -5.42287 0
M  V30 13226 H 1268.54 0.407677 -4.14098 0
M  V30 13227 H 1267.41 0.978012 -5.40117 0
M  V30 13228 H 1267.67 1.9553 -3.96511 0
M  V30 13229 N 1266.73 1.55688 -0.24474 0
M  V30 13230 C 1267.66 2.17317 0.696311 0
M  V30 13231 C 1268.64 1.12456 1.17441 0
M  V30 13232 O 1269.83 1.40832 1.25294 0
M  V30 13233 C 1266.95 2.77211 1.94606 0
M  V30 13234 C 1266 3.95107 1.60602 0
M  V30 13235 S 1266.83 5.30765 0.710525 0
M  V30 13236 C 1267.99 5.94111 1.96933 0
M  V30 13237 H 1268.22 2.96799 0.172566 0
M  V30 13238 H 1265.75 1.54372 -0.0292155 0
M  V30 13239 H 1267.71 3.12355 2.66354 0
M  V30 13240 H 1266.37 1.9768 2.44093 0
M  V30 13241 H 1265.57 4.35598 2.53517 0
M  V30 13242 H 1265.17 3.61229 0.968986 0
M  V30 13243 H 1267.46 6.11496 2.91682 0
M  V30 13244 H 1268.4 6.89602 1.60794 0
M  V30 13245 H 1268.81 5.23161 2.12043 0
M  V30 13246 N 1268.21 -0.0283989 1.57574 0
M  V30 13247 C 1269.16 -1.04723 2.07692 0
M  V30 13248 C 1270.15 -1.37399 0.990847 0
M  V30 13249 O 1271.36 -1.36297 1.17572 0
M  V30 13250 H 1267.73 -0.355251 0.662798 0
M  V30 13251 H 1269.7 -0.598737 2.92331 0
M  V30 13252 C 1268.45 -2.33941 2.57229 0
M  V30 13253 H 1267.78 -2.09659 3.40416 0
M  V30 13254 H 1269.22 -3.03574 2.96005 0
M  V30 13255 C 1267.67 -3.02953 1.47381 0
M  V30 13256 O 1268.2 -3.9281 0.840431 0
M  V30 13257 N 1266.41 -2.64294 1.20819 0
M  V30 13258 H 1265.96 -1.91307 1.72509 0
M  V30 13259 H 1265.92 -3.10786 0.475353 0
M  V30 13260 N 1269.69 -1.54705 -0.300681 0
M  V30 13261 C 1270.64 -1.86433 -1.39087 0
M  V30 13262 C 1271.63 -0.738101 -1.52474 0
M  V30 13263 O 1272.84 -0.922096 -1.54588 0
M  V30 13264 H 1269.21 -0.591314 -0.464599 0
M  V30 13265 H 1271.18 -2.77558 -1.09563 0
M  V30 13266 C 1269.93 -2.1286 -2.74929 0
M  V30 13267 H 1269.25 -2.98994 -2.6541 0
M  V30 13268 H 1270.69 -2.39 -3.50222 0
M  V30 13269 C 1269.15 -0.92726 -3.23888 0
M  V30 13270 O 1269.68 -0.147921 -4.01428 0
M  V30 13271 N 1267.89 -0.732553 -2.81215 0
M  V30 13272 H 1267.44 -1.36797 -2.18276 0
M  V30 13273 H 1267.39 0.0696902 -3.14323 0
M  V30 13274 N 1271.17 0.563888 -1.47167 0
M  V30 13275 C 1272.4 1.34498 -1.56825 0
M  V30 13276 C 1272.8 1.87974 -0.215011 0
M  V30 13277 O 1272.15 1.65323 0.80087 0
M  V30 13278 C 1272.21 2.55602 -2.528 0
M  V30 13279 C 1271.87 2.23459 -3.98642 0
M  V30 13280 C 1272.87 1.81155 -4.87318 0
M  V30 13281 C 1270.56 2.35024 -4.43925 0
M  V30 13282 C 1272.55 1.50835 -6.19296 0
M  V30 13283 C 1270.24 2.04317 -5.75932 0
M  V30 13284 C 1271.23 1.6229 -6.63439 0
M  V30 13285 O 1270.92 1.31969 -7.92994 0
M  V30 13286 H 1270.65 0.416551 -0.532411 0
M  V30 13287 H 1273.21 0.690611 -1.93442 0
M  V30 13288 H 1271.44 3.23907 -2.11237 0
M  V30 13289 H 1273.13 3.17677 -2.52659 0
M  V30 13290 H 1273.89 1.71719 -4.53583 0
M  V30 13291 H 1269.77 2.66696 -3.76024 0
M  V30 13292 H 1273.32 1.17958 -6.87555 0
M  V30 13293 H 1269.21 2.13383 -6.09211 0
M  V30 13294 H 1269.98 1.45656 -8.05436 0
M  V30 13295 N 1272.64 1.35187 0.810078 0
M  V30 13296 C 1273.89 1.28264 1.56699 0
M  V30 13297 C 1274.22 -0.143906 1.93967 0
M  V30 13298 O 1273.47 -1.10832 1.61291 0
M  V30 13299 C 1273.77 2.13135 2.86894 0
M  V30 13300 C 1273.44 3.61974 2.6886 0
M  V30 13301 C 1272.1 4.02545 2.63649 0
M  V30 13302 C 1274.45 4.5643 2.51636 0
M  V30 13303 C 1271.78 5.35745 2.39154 0
M  V30 13304 C 1274.13 5.89824 2.2867 0
M  V30 13305 C 1272.8 6.29544 2.2188 0
M  V30 13306 H 1272.07 0.469353 0.573401 0
M  V30 13307 H 1274.71 1.67051 0.936282 0
M  V30 13308 H 1273.02 1.67218 3.54324 0
M  V30 13309 H 1274.72 2.05117 3.44569 0
M  V30 13310 H 1271.31 3.29777 2.73761 0
M  V30 13311 H 1275.49 4.25974 2.54677 0
M  V30 13312 H 1270.75 5.65524 2.32363 0
M  V30 13313 H 1274.92 6.62597 2.14333 0
M  V30 13314 H 1272.55 7.32689 2.0266 0
M  V30 13315 N 1274.12 -1.03182 1.19127 0
M  V30 13316 C 1275.37 -1.76184 0.990134 0
M  V30 13317 C 1275.69 -1.88986 -0.480546 0
M  V30 13318 O 1274.96 -1.4213 -1.34817 0
M  V30 13319 H 1273.54 -0.652668 0.363364 0
M  V30 13320 H 1276.2 -1.24481 1.49968 0
M  V30 13321 H 1275.3 -2.77119 1.43568 0
M  V30 13322 N 1275.6 -0.99472 -1.22242 0
M  V30 13323 C 1276.85 -0.667045 -1.90351 0
M  V30 13324 C 1277.16 0.804615 -1.78284 0
M  V30 13325 O 1278.37 1.24395 -2.41326 0
M  V30 13326 C 1276.82 -1.14256 -3.41282 0
M  V30 13327 C 1276.43 -2.63958 -3.61981 0
M  V30 13328 C 1278.18 -0.889302 -4.1508 0
M  V30 13329 C 1276.08 -3.05103 -5.06622 0
M  V30 13330 H 1275.01 -0.245795 -0.712812 0
M  V30 13331 H 1277.66 -1.20452 -1.38432 0
M  V30 13332 H 1276.05 -0.533203 -3.92394 0
M  V30 13333 H 1277.22 -3.30255 -3.21354 0
M  V30 13334 H 1275.54 -2.87186 -3.01518 0
M  V30 13335 H 1278.13 -1.17239 -5.21689 0
M  V30 13336 H 1278.48 0.174556 -4.15934 0
M  V30 13337 H 1279.01 -1.46095 -3.70002 0
M  V30 13338 H 1275.75 -4.10672 -5.1091 0
M  V30 13339 H 1275.27 -2.4351 -5.48145 0
M  V30 13340 H 1276.95 -2.96506 -5.75059 0
M  V30 13341 N 1277.08 1.37613 -0.768148 0
M  V30 13342 C 1278.33 1.99384 -0.330187 0
M  V30 13343 C 1278.65 1.61283 1.09604 0
M  V30 13344 O 1277.92 0.876551 1.75195 0
M  V30 13345 H 1276.5 0.737445 -0.119095 0
M  V30 13346 H 1279.16 1.6815 -0.985476 0
M  V30 13347 H 1278.26 3.09462 -0.40494 0
M  V30 13348 N 1278.56 0.518393 1.4883 0
M  V30 13349 C 1279.49 -0.239685 2.32267 0
M  V30 13350 C 1280.47 -0.94613 1.41359 0
M  V30 13351 O 1281.65 -0.934162 1.70256 0
M  V30 13352 C 1278.78 -1.29411 3.22289 0
M  V30 13353 C 1277.74 -0.706504 4.22129 0
M  V30 13354 C 1277.06 -1.86273 5.01205 0
M  V30 13355 C 1278.36 0.314079 5.21355 0
M  V30 13356 H 1280.06 0.4568 2.95895 0
M  V30 13357 H 1277.6 0.221126 1.42292 0
M  V30 13358 H 1279.56 -1.8323 3.7948 0
M  V30 13359 H 1278.28 -2.02001 2.56638 0
M  V30 13360 H 1276.94 -0.189924 3.66108 0
M  V30 13361 H 1276.59 -2.57674 4.31988 0
M  V30 13362 H 1276.29 -1.47554 5.68772 0
M  V30 13363 H 1277.81 -2.40492 5.61245 0
M  V30 13364 H 1279.22 -0.136604 5.73137 0
M  V30 13365 H 1277.62 0.618026 5.96909 0
M  V30 13366 H 1278.69 1.22394 4.69199 0
M  V30 13367 N 1280.03 -1.55556 0.252993 0
M  V30 13368 C 1281.31 -1.91022 -0.420696 0
M  V30 13369 C 1281.69 -1.17452 -1.75409 0
M  V30 13370 O 1281.04 -0.294 -2.26601 0
M  V30 13371 C 1281.25 -3.441 -0.582787 0
M  V30 13372 C 1282.6 -4.15468 -0.875873 0
M  V30 13373 O 1283.62 -3.49872 -0.668425 0
M  V30 13374 O 1282.48 -5.31508 -1.27128 0
M  V30 13375 H 1279.57 -0.7953 -0.226776 0
M  V30 13376 H 1282.12 -1.67072 0.297511 0
M  V30 13377 H 1280.89 -3.89673 0.356474 0
M  V30 13378 H 1280.52 -3.73933 -1.3513 0
M  V30 13379 N 1281.51 0.0200419 -1.57587 0
M  V30 13380 C 1282.48 1.00255 -2.06111 0
M  V30 13381 C 1283.48 1.28488 -0.966829 0
M  V30 13382 O 1284.67 1.2334 -1.23015 0
M  V30 13383 C 1281.8 2.33296 -2.48567 0
M  V30 13384 H 1282.99 0.583216 -2.94174 0
M  V30 13385 H 1280.54 0.267077 -1.54001 0
M  V30 13386 H 1281.28 2.79959 -1.63687 0
M  V30 13387 H 1281.06 2.14131 -3.28467 0
M  V30 13388 H 1282.55 3.03817 -2.86505 0
M  V30 13389 N 1282.99 1.54862 0.292472 0
M  V30 13390 C 1283.94 1.86403 1.36098 0
M  V30 13391 C 1284.91 0.713694 1.49985 0
M  V30 13392 O 1286.09 0.963134 1.64707 0
M  V30 13393 C 1283.23 2.1244 2.71962 0
M  V30 13394 C 1282.35 3.40038 2.66454 0
M  V30 13395 C 1281.48 3.55875 3.94368 0
M  V30 13396 C 1280.52 4.77235 3.83293 0
M  V30 13397 N 1279.66 4.89832 5.03 0
M  V30 13398 H 1284.5 2.77546 1.085 0
M  V30 13399 H 1282.03 1.37427 0.524607 0
M  V30 13400 H 1283.99 2.25533 3.50985 0
M  V30 13401 H 1282.62 1.24554 2.97802 0
M  V30 13402 H 1281.67 3.35521 1.79248 0
M  V30 13403 H 1282.99 4.29188 2.54163 0
M  V30 13404 H 1282.14 3.68679 4.8183 0
M  V30 13405 H 1280.88 2.64874 4.09503 0
M  V30 13406 H 1279.88 4.64455 2.94214 0
M  V30 13407 H 1281.11 5.69651 3.69695 0
M  V30 13408 H 1279.05 4.01756 5.18582 0
M  V30 13409 H 1278.97 5.72996 4.93165 0
M  V30 13410 H 1280.24 5.07001 5.92089 0
M  V30 13411 N 1284.47 -0.556076 1.47464 0
M  V30 13412 C 1285.72 -1.30955 1.53407 0
M  V30 13413 C 1286.03 -1.94559 0.201485 0
M  V30 13414 O 1287.24 -2.71144 0.138925 0
M  V30 13415 C 1285.69 -2.37476 2.70431 0
M  V30 13416 C 1285.3 -1.80057 4.10224 0
M  V30 13417 C 1287.04 -3.13997 2.85668 0
M  V30 13418 C 1284.95 -2.84365 5.18547 0
M  V30 13419 H 1283.88 -0.4924 0.571015 0
M  V30 13420 H 1286.53 -0.590459 1.73741 0
M  V30 13421 H 1284.91 -3.12304 2.43479 0
M  V30 13422 H 1286.09 -1.11593 4.47083 0
M  V30 13423 H 1284.4 -1.16116 3.99882 0
M  V30 13424 H 1287 -3.91892 3.63764 0
M  V30 13425 H 1287.34 -3.68253 1.94153 0
M  V30 13426 H 1287.88 -2.46281 3.12395 0
M  V30 13427 H 1284.62 -2.34963 6.11942 0
M  V30 13428 H 1284.14 -3.51235 4.86203 0
M  V30 13429 H 1285.81 -3.47836 5.45545 0
M  V30 13430 N 1285.95 -1.35615 -0.802897 0
M  V30 13431 C 1287.17 -1.32377 -1.59659 0
M  V30 13432 C 1287.6 0.0954235 -1.87858 0
M  V30 13433 O 1286.96 1.06336 -1.46842 0
M  V30 13434 C 1287 -2.13972 -2.90256 0
M  V30 13435 O 1286.11 -1.52296 -3.83249 0
M  V30 13436 H 1285.45 -0.453699 -0.484823 0
M  V30 13437 H 1287.98 -1.78708 -0.996217 0
M  V30 13438 H 1287.99 -2.26061 -3.39647 0
M  V30 13439 H 1286.66 -3.17145 -2.69057 0
M  V30 13440 H 1285.24 -1.49068 -3.41809 0
M  V30 13441 N 1287.43 1.02549 -1.19673 0
M  V30 13442 C 1288.36 2.12794 -0.961289 0
M  V30 13443 C 1289.34 1.69766 0.106575 0
M  V30 13444 O 1290.52 1.94138 -0.0491358 0
M  V30 13445 C 1287.65 3.4364 -0.502868 0
M  V30 13446 C 1286.61 4.00367 -1.51296 0
M  V30 13447 C 1285.93 5.26874 -0.911491 0
M  V30 13448 C 1287.23 4.34782 -2.89416 0
M  V30 13449 H 1288.93 2.32748 -1.88331 0
M  V30 13450 H 1286.47 1.11852 -0.906922 0
M  V30 13451 H 1288.42 4.20141 -0.325436 0
M  V30 13452 H 1287.15 3.23418 0.454764 0
M  V30 13453 H 1285.81 3.25964 -1.67759 0
M  V30 13454 H 1285.46 5.02971 0.0537982 0
M  V30 13455 H 1285.16 5.65791 -1.58602 0
M  V30 13456 H 1286.68 6.06039 -0.74493 0
M  V30 13457 H 1288.09 5.02207 -2.76516 0
M  V30 13458 H 1286.49 4.8479 -3.53693 0
M  V30 13459 H 1287.56 3.43935 -3.41814 0
M  V30 13460 N 1288.9 1.00119 1.21713 0
M  V30 13461 C 1290.18 0.597366 1.86255 0
M  V30 13462 C 1290.56 -0.925124 1.89749 0
M  V30 13463 O 1289.91 -1.8105 1.39402 0
M  V30 13464 C 1290.12 1.22735 3.26707 0
M  V30 13465 C 1291.47 1.33307 4.03131 0
M  V30 13466 O 1292.49 1.18237 3.36003 0
M  V30 13467 O 1291.35 1.57509 5.2331 0
M  V30 13468 H 1288.44 0.204091 0.801421 0
M  V30 13469 H 1290.99 1.09759 1.29426 0
M  V30 13470 H 1289.76 2.26837 3.18843 0
M  V30 13471 H 1289.38 0.713232 3.91151 0
M  V30 13472 N 1290.38 -1.37203 0.775435 0
M  V30 13473 C 1291.63 -1.99601 0.341431 0
M  V30 13474 C 1291.96 -1.61555 -1.08306 0
M  V30 13475 O 1291.21 -0.855126 -1.76029 0
M  V30 13476 C 1291.51 -3.54725 0.436426 0
M  V30 13477 C 1291.18 -4.1255 1.8197 0
M  V30 13478 C 1289.84 -4.28056 2.19822 0
M  V30 13479 C 1292.19 -4.44222 2.7261 0
M  V30 13480 C 1289.52 -4.72538 3.47742 0
M  V30 13481 C 1291.87 -4.90131 3.99943 0
M  V30 13482 C 1290.53 -5.03842 4.37835 0
M  V30 13483 H 1289.8 -0.730391 0.124938 0
M  V30 13484 H 1292.45 -1.63914 0.990177 0
M  V30 13485 H 1290.76 -3.90681 -0.295852 0
M  V30 13486 H 1292.45 -4.00916 0.0818664 0
M  V30 13487 H 1289.04 -4.00911 1.51553 0
M  V30 13488 H 1293.23 -4.31824 2.44625 0
M  V30 13489 H 1288.48 -4.81341 3.76989 0
M  V30 13490 H 1292.66 -5.13604 4.70302 0
M  V30 13491 H 1290.28 -5.3807 5.37015 0
M  V30 13492 N 1291.86 -0.526279 -1.48553 0
M  V30 13493 C 1292.81 0.251938 -2.31232 0
M  V30 13494 C 1293.8 0.938991 -1.40994 0
M  V30 13495 O 1295.01 0.863798 -1.57919 0
M  V30 13496 H 1291.38 0.100114 -0.745306 0
M  V30 13497 H 1293.35 -0.465013 -2.94754 0
M  V30 13498 C 1292.1 1.28816 -3.22958 0
M  V30 13499 H 1291.43 0.768899 -3.92337 0
M  V30 13500 H 1292.87 1.80417 -3.837 0
M  V30 13501 C 1291.32 2.31982 -2.44307 0
M  V30 13502 O 1291.85 3.3835 -2.16523 0
M  V30 13503 N 1290.06 2.051 -2.05869 0
M  V30 13504 H 1289.61 1.18618 -2.28665 0
M  V30 13505 H 1289.57 2.74349 -1.53557 0
M  V30 13506 N 1293.34 1.5542 -0.261239 0
M  V30 13507 C 1294.57 2.03687 0.363225 0
M  V30 13508 C 1294.98 1.14007 1.50492 0
M  V30 13509 O 1294.34 0.157349 1.8182 0
M  V30 13510 C 1294.39 3.51184 0.857435 0
M  V30 13511 O 1294.11 4.37449 -0.238776 0
M  V30 13512 C 1295.61 4.15277 1.55113 0
M  V30 13513 H 1292.83 0.665641 0.0846356 0
M  V30 13514 H 1295.37 2.00761 -0.389288 0
M  V30 13515 H 1293.53 3.54599 1.56008 0
M  V30 13516 H 1293.94 5.24316 0.138821 0
M  V30 13517 H 1295.42 5.20129 1.8485 0
M  V30 13518 H 1295.89 3.62619 2.47799 0
M  V30 13519 H 1296.5 4.15826 0.892695 0
M  V30 13520 N 1294.82 -0.0116844 1.57596 0
M  V30 13521 C 1296.23 -0.367602 1.55309 0
M  V30 13522 C 1296.43 -1.75524 0.98962 0
M  V30 13523 O 1295.49 -2.44813 0.618289 0
M  V30 13524 C 1296.8 -0.253532 2.99629 0
M  V30 13525 C 1298.35 -0.329335 3.11263 0
M  V30 13526 C 1298.82 -0.24452 4.57347 0
M  V30 13527 N 1300.31 -0.302782 4.62209 0
M  V30 13528 C 1301.05 -0.260315 5.72809 0
M  V30 13529 N 1300.55 -0.169124 6.92594 0
M  V30 13530 N 1302.34 -0.311323 5.61237 0
M  V30 13531 H 1294.49 0.896204 1.92567 0
M  V30 13532 H 1296.75 0.342445 0.883988 0
M  V30 13533 H 1296.46 0.70074 3.44648 0
M  V30 13534 H 1296.33 -1.04029 3.62571 0
M  V30 13535 H 1298.72 -1.27405 2.66181 0
M  V30 13536 H 1298.8 0.487084 2.5112 0
M  V30 13537 H 1298.44 0.696597 5.031 0
M  V30 13538 H 1298.37 -1.07927 5.15421 0
M  V30 13539 H 1300.87 -0.375067 3.76034 0
M  V30 13540 H 1301.18 -0.142296 7.72669 0
M  V30 13541 H 1299.52 -0.134919 6.94869 0
M  V30 13542 H 1302.71 -0.380678 4.6655 0
M  V30 13543 H 1302.89 -0.274761 6.47417 0
M  V30 13544 N 1296.29 -1.55015 -0.284256 0
M  V30 13545 C 1297.71 -1.46603 -0.630845 0
M  V30 13546 C 1297.91 -0.67091 -1.90003 0
M  V30 13547 O 1296.97 -0.185266 -2.51819 0
M  V30 13548 C 1298.28 -2.9072 -0.768268 0
M  V30 13549 C 1299.83 -3.00866 -0.863061 0
M  V30 13550 C 1300.3 -4.46214 -1.03235 0
M  V30 13551 N 1301.79 -4.49994 -1.09815 0
M  V30 13552 C 1302.53 -5.5966 -1.24773 0
M  V30 13553 N 1302.02 -6.79215 -1.36523 0
M  V30 13554 N 1303.82 -5.4738 -1.27795 0
M  V30 13555 H 1295.97 -2.05171 0.549409 0
M  V30 13556 H 1298.23 -0.929915 0.184288 0
M  V30 13557 H 1297.94 -3.51575 0.0936899 0
M  V30 13558 H 1297.81 -3.39096 -1.65209 0
M  V30 13559 H 1300.2 -2.40114 -1.71549 0
M  V30 13560 H 1300.28 -2.5576 0.0451267 0
M  V30 13561 H 1299.92 -5.07564 -0.18462 0
M  V30 13562 H 1299.85 -4.88965 -1.95502 0
M  V30 13563 H 1302.34 -3.63869 -1.0202 0
M  V30 13564 H 1302.66 -7.58547 -1.47739 0
M  V30 13565 H 1301 -6.82048 -1.33548 0
M  V30 13566 H 1304.19 -4.52921 -1.18238 0
M  V30 13567 H 1304.37 -6.32892 -1.39109 0
M  V30 13568 N 1297.77 0.548248 -1.47757 0
M  V30 13569 C 1299.05 1.3092 -1.45325 0
M  V30 13570 C 1299.43 2.1053 -0.155008 0
M  V30 13571 O 1298.78 2.11558 0.863455 0
M  V30 13572 C 1298.99 2.20614 -2.70426 0
M  V30 13573 C 1300.33 2.81345 -3.18009 0
M  V30 13574 O 1301.36 2.30911 -2.71216 0
M  V30 13575 O 1300.22 3.73036 -3.99383 0
M  V30 13576 H 1297.31 0.58996 -0.579548 0
M  V30 13577 H 1299.86 0.56641 -1.59968 0
M  V30 13578 H 1298.63 1.61449 -3.56441 0
M  V30 13579 H 1298.25 3.02173 -2.58413 0
M  V30 13580 N 1299.25 1.36039 0.795694 0
M  V30 13581 C 1300.16 1.31991 1.93948 0
M  V30 13582 C 1301.18 0.223064 1.72564 0
M  V30 13583 O 1302.35 0.454344 1.96208 0
M  V30 13584 C 1299.42 1.10228 3.28711 0
M  V30 13585 C 1298.48 2.29328 3.62914 0
M  V30 13586 C 1297.71 2.08595 4.91247 0
M  V30 13587 O 1297.93 1.05793 5.60503 0
M  V30 13588 O 1296.87 2.96222 5.23962 0
M  V30 13589 H 1300.69 2.28274 2.00311 0
M  V30 13590 H 1298.28 1.16521 0.935048 0
M  V30 13591 H 1300.16 0.999842 4.09367 0
M  V30 13592 H 1298.84 0.17003 3.23253 0
M  V30 13593 H 1297.74 2.4514 2.8259 0
M  V30 13594 H 1299.08 3.21038 3.73089 0
M  V30 13595 N 1300.73 -1.01913 1.20215 0
M  V30 13596 C 1301.68 -2.08774 0.916367 0
M  V30 13597 C 1302.66 -1.60431 -0.122796 0
M  V30 13598 O 1303.85 -1.76799 0.0842336 0
M  V30 13599 C 1300.98 -3.40102 0.467517 0
M  V30 13600 C 1300.07 -3.95153 1.53997 0
M  V30 13601 N 1300.46 -4.23745 2.76178 0
M  V30 13602 C 1298.76 -4.23274 1.40554 0
M  V30 13603 C 1299.46 -4.681 3.45336 0
M  V30 13604 N 1298.44 -4.70224 2.72745 0
M  V30 13605 H 1302.24 -2.28786 1.84484 0
M  V30 13606 H 1299.75 -1.19861 1.09577 0
M  V30 13607 H 1301.75 -4.16184 0.244195 0
M  V30 13608 H 1300.41 -3.21505 -0.454358 0
M  V30 13609 H 1301.42 -4.12728 3.12852 0
M  V30 13610 H 1298.1 -4.1389 0.547877 0
M  V30 13611 H 1299.49 -4.99063 4.49873 0
M  V30 13612 N 1302.21 -1.00763 -1.2118 0
M  V30 13613 C 1303.62 -0.724746 -1.72059 0
M  V30 13614 C 1303.97 0.757413 -1.80991 0
M  V30 13615 O 1303.09 1.59152 -1.46627 0
M  V30 13616 C 1303.69 -1.30893 -3.12494 0
M  V30 13617 C 1302.25 -1.07511 -3.60719 0
M  V30 13618 C 1301.39 -1.42014 -2.38175 0
M  V30 13619 H 1304.35 -1.17821 -1.0632 0
M  V30 13620 H 1304.37 -0.694919 -3.741 0
M  V30 13621 H 1303.88 -2.38767 -3.05961 0
M  V30 13622 H 1301.98 -0.0136518 -3.72597 0
M  V30 13623 H 1302.09 -1.74885 -4.4604 0
M  V30 13624 H 1300.46 -0.838972 -2.40486 0
M  V30 13625 H 1301.24 -2.50924 -2.34291 0
M  V30 13626 N 1303.68 1.3679 -0.7827 0
M  V30 13627 C 1304.93 1.99023 -0.351316 0
M  V30 13628 C 1305.25 1.62436 1.07887 0
M  V30 13629 O 1304.52 0.895084 1.74256 0
M  V30 13630 H 1303.1 0.736141 -0.126909 0
M  V30 13631 H 1305.77 1.67095 -1.00325 0
M  V30 13632 H 1304.86 3.09015 -0.43774 0
M  V30 13633 N 1305.16 0.53415 1.48272 0
M  V30 13634 C 1306.09 -0.263508 2.2768 0
M  V30 13635 C 1307.11 -0.90064 1.35618 0
M  V30 13636 O 1308.3 -0.778379 1.60635 0
M  V30 13637 C 1305.4 -1.38878 3.09138 0
M  V30 13638 C 1304.57 -0.852784 4.29006 0
M  V30 13639 C 1303.63 -1.85969 4.92242 0
M  V30 13640 O 1302.65 -1.41497 5.51332 0
M  V30 13641 N 1303.86 -3.19207 4.84858 0
M  V30 13642 H 1306.62 0.417548 2.96777 0
M  V30 13643 H 1304.18 0.368743 1.57645 0
M  V30 13644 H 1306.17 -2.06062 3.48311 0
M  V30 13645 H 1304.74 -1.97343 2.42434 0
M  V30 13646 H 1303.96 -0.0048227 3.942 0
M  V30 13647 H 1305.25 -0.473634 5.06591 0
M  V30 13648 H 1304.65 -3.58001 4.38009 0
M  V30 13649 H 1303.21 -3.82013 5.28119 0
M  V30 13650 N 1306.64 -1.55279 0.269478 0
M  V30 13651 C 1307.87 -2.03581 -0.351907 0
M  V30 13652 C 1308.28 -1.14747 -1.50432 0
M  V30 13653 O 1307.62 -0.158939 -1.83011 0
M  V30 13654 C 1307.68 -3.48041 -0.900444 0
M  V30 13655 C 1307.35 -4.56835 0.122612 0
M  V30 13656 C 1308.34 -5.11329 0.940149 0
M  V30 13657 C 1306.03 -5.01651 0.255224 0
M  V30 13658 C 1308.02 -6.09151 1.87654 0
M  V30 13659 C 1305.71 -5.993 1.19509 0
M  V30 13660 C 1306.71 -6.52931 2.00426 0
M  V30 13661 O 1306.4 -7.48671 2.92825 0
M  V30 13662 H 1306.13 -0.670627 -0.0850629 0
M  V30 13663 H 1308.68 -2.01514 0.39766 0
M  V30 13664 H 1306.91 -3.47329 -1.69998 0
M  V30 13665 H 1308.6 -3.79713 -1.43431 0
M  V30 13666 H 1309.37 -4.77522 0.848402 0
M  V30 13667 H 1305.25 -4.59556 -0.364579 0
M  V30 13668 H 1308.79 -6.50937 2.50853 0
M  V30 13669 H 1304.69 -6.32526 1.28768 0
M  V30 13670 H 1305.46 -7.66368 2.87442 0
M  V30 13671 N 1308.12 0.00332656 -1.576 0
M  V30 13672 C 1309.07 1.01406 -2.09331 0
M  V30 13673 C 1310.06 1.35806 -1.01258 0
M  V30 13674 O 1311.27 1.34409 -1.19726 0
M  V30 13675 H 1307.64 0.344661 -0.668366 0
M  V30 13676 H 1309.61 0.552154 -2.93247 0
M  V30 13677 C 1308.36 2.29819 -2.60918 0
M  V30 13678 H 1307.68 2.04216 -3.43709 0
M  V30 13679 H 1309.12 2.98826 -3.00797 0
M  V30 13680 C 1307.58 3.0057 -1.52182 0
M  V30 13681 O 1308.11 3.91423 -0.902817 0
M  V30 13682 N 1306.32 2.62338 -1.25009 0
M  V30 13683 H 1305.87 1.88538 -1.75531 0
M  V30 13684 H 1305.82 3.0999 -0.524736 0
M  V30 13685 N 1309.6 1.55164 0.276031 0
M  V30 13686 C 1310.82 1.7998 1.03063 0
M  V30 13687 C 1311.25 0.569769 1.79263 0
M  V30 13688 O 1310.6 -0.48054 1.74816 0
M  V30 13689 C 1310.65 3.02209 1.96728 0
M  V30 13690 O 1309.76 2.77083 3.05449 0
M  V30 13691 H 1309.1 0.594963 0.294814 0
M  V30 13692 H 1311.63 2.02301 0.305861 0
M  V30 13693 H 1311.64 3.3086 2.38738 0
M  V30 13694 H 1310.31 3.91386 1.40677 0
M  V30 13695 H 1308.89 2.5952 2.67776 0
M  V30 13696 N 1311.07 -0.540404 1.48045 0
M  V30 13697 C 1312.49 -0.867958 1.33935 0
M  V30 13698 C 1312.69 -1.98568 0.342488 0
M  V30 13699 O 1311.75 -2.51357 -0.240022 0
M  V30 13700 C 1313.06 -1.24532 2.73701 0
M  V30 13701 C 1314.61 -1.3558 2.82112 0
M  V30 13702 C 1315.08 -1.76664 4.22556 0
M  V30 13703 N 1316.57 -1.83785 4.25179 0
M  V30 13704 C 1317.31 -2.16938 5.30778 0
M  V30 13705 N 1316.8 -2.48587 6.46666 0
M  V30 13706 N 1318.6 -2.17855 5.18166 0
M  V30 13707 H 1310.75 0.197251 2.11482 0
M  V30 13708 H 1313.01 0.0255947 0.947654 0
M  V30 13709 H 1312.72 -0.497731 3.4816 0
M  V30 13710 H 1312.59 -2.19779 3.06556 0
M  V30 13711 H 1314.98 -2.09417 2.07915 0
M  V30 13712 H 1315.06 -0.384787 2.52889 0
M  V30 13713 H 1314.7 -1.03391 4.97265 0
M  V30 13714 H 1314.63 -2.74797 4.49215 0
M  V30 13715 H 1317.12 -1.61645 3.41583 0
M  V30 13716 H 1317.44 -2.72959 7.22989 0
M  V30 13717 H 1315.78 -2.4613 6.49958 0
M  V30 13718 H 1318.97 -1.9258 4.2665 0
M  V30 13719 H 1319.15 -2.43361 6.00566 0
M  V30 13720 N 1312.55 -1.36459 -0.788468 0
M  V30 13721 C 1313.48 -1.33545 -1.91541 0
M  V30 13722 C 1314.46 -0.206762 -1.68839 0
M  V30 13723 O 1315.65 -0.404553 -1.89939 0
M  V30 13724 C 1312.78 -1.12492 -3.28577 0
M  V30 13725 C 1311.73 -2.22196 -3.65805 0
M  V30 13726 C 1311.06 -1.86285 -5.01201 0
M  V30 13727 C 1312.36 -3.64286 -3.7429 0
M  V30 13728 H 1314.05 -2.27844 -1.94236 0
M  V30 13729 H 1311.6 -1.09677 -0.933105 0
M  V30 13730 H 1313.55 -1.09089 -4.07035 0
M  V30 13731 H 1312.28 -0.146446 -3.26272 0
M  V30 13732 H 1310.93 -2.24727 -2.89644 0
M  V30 13733 H 1310.58 -0.87009 -4.95417 0
M  V30 13734 H 1310.28 -2.59734 -5.27079 0
M  V30 13735 H 1311.81 -1.84439 -5.82078 0
M  V30 13736 H 1313.22 -3.63977 -4.42937 0
M  V30 13737 H 1311.62 -4.36648 -4.11653 0
M  V30 13738 H 1312.69 -3.99123 -2.75371 0
M  V30 13739 N 1314.03 1.01274 -1.20754 0
M  V30 13740 C 1314.98 2.09894 -0.959852 0
M  V30 13741 C 1315.95 1.65726 0.111351 0
M  V30 13742 O 1317.13 1.90769 -0.0341721 0
M  V30 13743 C 1314.27 3.41126 -0.52223 0
M  V30 13744 C 1313.39 3.98749 -1.66202 0
M  V30 13745 C 1312.52 5.18057 -1.17432 0
M  V30 13746 C 1311.56 5.67772 -2.28694 0
M  V30 13747 N 1310.7 6.78338 -1.81114 0
M  V30 13748 H 1315.54 2.30416 -1.88977 0
M  V30 13749 H 1313.07 1.12989 -0.941906 0
M  V30 13750 H 1315.03 4.16451 -0.249799 0
M  V30 13751 H 1313.66 3.20665 0.370688 0
M  V30 13752 H 1312.71 3.20483 -2.04927 0
M  V30 13753 H 1314.03 4.31646 -2.49967 0
M  V30 13754 H 1313.18 6.00601 -0.858086 0
M  V30 13755 H 1311.92 4.86735 -0.306614 0
M  V30 13756 H 1310.92 4.8383 -2.61129 0
M  V30 13757 H 1312.15 6.01127 -3.15948 0
M  V30 13758 H 1310.09 6.48837 -0.966761 0
M  V30 13759 H 1310.01 7.10448 -2.58457 0
M  V30 13760 H 1311.28 7.64437 -1.52502 0
M  V30 13761 N 1315.51 1.01404 1.20644 0
M  V30 13762 C 1316.46 0.575388 2.25371 0
M  V30 13763 C 1317.45 -0.384598 1.64976 0
M  V30 13764 O 1318.66 -0.2548 1.78187 0
M  V30 13765 H 1315.03 0.167752 0.733051 0
M  V30 13766 H 1317 1.46964 2.597 0
M  V30 13767 C 1315.75 -0.0731257 3.47623 0
M  V30 13768 H 1315.08 0.656551 3.94372 0
M  V30 13769 H 1316.52 -0.343203 4.22609 0
M  V30 13770 C 1314.97 -1.31515 3.1017 0
M  V30 13771 O 1315.5 -2.40869 3.21473 0
M  V30 13772 N 1313.71 -1.19829 2.64744 0
M  V30 13773 H 1313.26 -0.308463 2.55746 0
M  V30 13774 H 1313.22 -2.0303 2.40054 0
M  V30 13775 N 1316.99 -1.36373 0.789944 0
M  V30 13776 C 1317.93 -2.30043 0.186798 0
M  V30 13777 C 1318.9 -1.52002 -0.669663 0
M  V30 13778 O 1320.09 -1.80506 -0.618232 0
M  V30 13779 C 1317.23 -3.38494 -0.671994 0
M  V30 13780 C 1316.34 -4.31522 0.203067 0
M  V30 13781 C 1315.48 -5.27057 -0.662148 0
M  V30 13782 C 1314.52 -6.11725 0.214335 0
M  V30 13783 N 1313.65 -6.99446 -0.609892 0
M  V30 13784 H 1318.49 -2.81038 0.991048 0
M  V30 13785 H 1316.03 -1.38331 0.500288 0
M  V30 13786 H 1317.99 -4.0002 -1.1849 0
M  V30 13787 H 1316.62 -2.88818 -1.44167 0
M  V30 13788 H 1315.67 -3.71146 0.833945 0
M  V30 13789 H 1316.98 -4.91005 0.878389 0
M  V30 13790 H 1316.14 -5.93875 -1.24084 0
M  V30 13791 H 1314.88 -4.6803 -1.37109 0
M  V30 13792 H 1313.88 -5.43868 0.805426 0
M  V30 13793 H 1315.11 -6.72827 0.92089 0
M  V30 13794 H 1313.05 -6.42927 -1.30312 0
M  V30 13795 H 1312.97 -7.56 0.00773786 0
M  V30 13796 H 1314.24 -7.70633 -1.1724 0
M  V30 13797 N 1318.47 -0.542005 -1.47987 0
M  V30 13798 C 1319.4 0.261671 -2.26695 0
M  V30 13799 C 1320.38 0.93404 -1.33096 0
M  V30 13800 O 1321.56 0.956051 -1.62456 0
M  V30 13801 C 1318.69 1.37155 -3.09687 0
M  V30 13802 C 1317.73 0.809337 -4.18751 0
M  V30 13803 S 1318.57 -0.332224 -5.34468 0
M  V30 13804 C 1319.72 0.779843 -6.21023 0
M  V30 13805 H 1319.96 -0.406263 -2.94511 0
M  V30 13806 H 1317.49 -0.32802 -1.50875 0
M  V30 13807 H 1319.45 2.00726 -3.58077 0
M  V30 13808 H 1318.11 2.01126 -2.41262 0
M  V30 13809 H 1317.3 1.64233 -4.76491 0
M  V30 13810 H 1316.9 0.250095 -3.73163 0
M  V30 13811 H 1319.19 1.67564 -6.56452 0
M  V30 13812 H 1320.14 0.240142 -7.07693 0
M  V30 13813 H 1320.55 1.06567 -5.5435 0
M  V30 13814 N 1319.94 1.55134 -0.277709 0
M  V30 13815 C 1321.19 2.00675 0.331809 0
M  V30 13816 C 1321.54 1.16274 1.53291 0
M  V30 13817 O 1320.84 0.225435 1.90269 0
M  V30 13818 C 1321.03 3.49182 0.762028 0
M  V30 13819 C 1320.86 4.47954 -0.395835 0
M  V30 13820 C 1319.63 4.9757 -0.880446 0
M  V30 13821 C 1321.83 4.99297 -1.23317 0
M  V30 13822 N 1319.81 5.80149 -2.0075 0
M  V30 13823 C 1321.18 5.79348 -2.20808 0
M  V30 13824 C 1323.24 4.8153 -1.26622 0
M  V30 13825 C 1321.94 6.43526 -3.21352 0
M  V30 13826 C 1323.97 5.4651 -2.26011 0
M  V30 13827 C 1323.33 6.26374 -3.22235 0
M  V30 13828 H 1319.43 0.777199 0.086518 0
M  V30 13829 H 1322.01 1.90498 -0.402322 0
M  V30 13830 H 1320.18 3.59696 1.46538 0
M  V30 13831 H 1321.91 3.81551 1.3491 0
M  V30 13832 H 1318.67 4.71367 -0.459314 0
M  V30 13833 H 1319.09 6.26128 -2.57473 0
M  V30 13834 H 1323.73 4.19388 -0.536085 0
M  V30 13835 H 1321.45 7.04816 -3.95297 0
M  V30 13836 H 1325.04 5.34703 -2.29313 0
M  V30 13837 H 1323.92 6.75765 -3.97884 0
M  V30 13838 N 1321.42 0.00503138 1.57599 0
M  V30 13839 C 1322.65 -0.688609 1.94786 0
M  V30 13840 C 1323.06 -1.67558 0.878698 0
M  V30 13841 O 1322.4 -1.83083 -0.150486 0
M  V30 13842 C 1322.46 -1.47183 3.2799 0
M  V30 13843 C 1322.13 -0.64589 4.52413 0
M  V30 13844 C 1323.13 0.0685859 5.19855 0
M  V30 13845 C 1320.81 -0.590379 4.98818 0
M  V30 13846 C 1322.8 0.827505 6.32006 0
M  V30 13847 C 1320.49 0.172262 6.10857 0
M  V30 13848 C 1321.49 0.879932 6.77308 0
M  V30 13849 O 1321.18 1.63012 7.87199 0
M  V30 13850 H 1320.91 -0.196416 0.646836 0
M  V30 13851 H 1323.46 0.0537933 2.0533 0
M  V30 13852 H 1321.69 -2.25883 3.13869 0
M  V30 13853 H 1323.38 -2.05129 3.50253 0
M  V30 13854 H 1324.15 0.0348834 4.84987 0
M  V30 13855 H 1320.03 -1.13074 4.46918 0
M  V30 13856 H 1323.57 1.3804 6.83806 0
M  V30 13857 H 1319.47 0.207767 6.45166 0
M  V30 13858 H 1320.24 1.54736 8.03741 0
M  V30 13859 N 1322.9 -1.55308 -0.267798 0
M  V30 13860 C 1324.15 -1.75811 -0.996734 0
M  V30 13861 C 1324.47 -0.565161 -1.8663 0
M  V30 13862 O 1323.74 0.419775 -1.9135 0
M  V30 13863 H 1322.32 -0.648353 -0.371008 0
M  V30 13864 H 1324.98 -1.92719 -0.290775 0
M  V30 13865 H 1324.08 -2.66113 -1.63064 0
M  V30 13866 N 1324.38 0.532545 -1.4833 0
M  V30 13867 C 1325.31 1.64662 -1.65555 0
M  V30 13868 C 1326.29 1.62447 -0.50447 0
M  V30 13869 O 1327.47 1.79684 -0.736712 0
M  V30 13870 C 1324.6 3.03256 -1.69272 0
M  V30 13871 C 1323.56 3.20329 -2.83854 0
M  V30 13872 C 1322.88 4.59958 -2.72659 0
M  V30 13873 C 1324.18 3.03345 -4.25181 0
M  V30 13874 H 1325.88 1.50502 -2.58823 0
M  V30 13875 H 1323.42 0.722612 -1.24556 0
M  V30 13876 H 1325.38 3.81064 -1.79911 0
M  V30 13877 H 1324.1 3.18433 -0.725805 0
M  V30 13878 H 1322.76 2.44937 -2.72766 0
M  V30 13879 H 1322.41 4.71967 -1.73942 0
M  V30 13880 H 1322.11 4.72327 -3.49544 0
M  V30 13881 H 1323.63 5.39869 -2.85262 0
M  V30 13882 H 1325.05 3.70948 -4.37116 0
M  V30 13883 H 1323.44 3.27208 -5.03045 0
M  V30 13884 H 1324.51 1.998 -4.41824 0
M  V30 13885 N 1325.86 1.36875 0.78122 0
M  V30 13886 C 1326.79 1.34559 1.9083 0
M  V30 13887 C 1327.77 0.215713 1.68727 0
M  V30 13888 O 1328.95 0.41462 1.89722 0
M  V30 13889 C 1326.08 1.14233 3.27976 0
M  V30 13890 C 1325.04 2.24132 3.64621 0
M  V30 13891 C 1324.36 1.8894 5.00206 0
M  V30 13892 C 1325.66 3.66266 3.72353 0
M  V30 13893 H 1327.36 2.28871 1.93025 0
M  V30 13894 H 1324.9 1.10171 0.927275 0
M  V30 13895 H 1326.85 1.11246 4.06451 0
M  V30 13896 H 1325.58 0.163747 3.26189 0
M  V30 13897 H 1324.24 2.26259 2.88448 0
M  V30 13898 H 1323.89 0.896351 4.94949 0
M  V30 13899 H 1323.59 2.62525 5.25694 0
M  V30 13900 H 1325.11 1.87523 5.81092 0
M  V30 13901 H 1326.52 3.66321 4.41001 0
M  V30 13902 H 1324.92 4.38825 4.09332 0
M  V30 13903 H 1325.99 4.00578 2.7325 0
M  V30 13904 N 1327.33 -1.00632 1.21289 0
M  V30 13905 C 1328.58 -1.74044 1.02728 0
M  V30 13906 C 1328.9 -1.89963 -0.440351 0
M  V30 13907 O 1328.17 -1.44958 -1.31772 0
M  V30 13908 H 1326.75 -0.644813 0.377127 0
M  V30 13909 H 1329.41 -1.21272 1.52575 0
M  V30 13910 H 1328.51 -2.74011 1.49413 0
M  V30 13911 N 1328.81 -1.02043 -1.20104 0
M  V30 13912 C 1330.04 -0.731315 -1.93544 0
M  V30 13913 C 1330.45 0.708582 -1.74999 0
M  V30 13914 O 1329.81 1.481 -1.06642 0
M  V30 13915 C 1329.86 -1.06233 -3.45538 0
M  V30 13916 O 1329.58 -2.44568 -3.63481 0
M  V30 13917 C 1331.08 -0.794818 -4.36116 0
M  V30 13918 H 1328.3 -0.268248 -0.615048 0
M  V30 13919 H 1330.85 -1.36264 -1.52488 0
M  V30 13920 H 1329 -0.476341 -3.8446 0
M  V30 13921 H 1329.42 -2.5663 -4.57429 0
M  V30 13922 H 1330.89 -1.07647 -5.41402 0
M  V30 13923 H 1331.37 0.270944 -4.38363 0
M  V30 13924 H 1331.97 -1.36314 -4.02863 0
M  V30 13925 N 1330.29 1.35952 -0.797165 0
M  V30 13926 C 1331.24 2.29941 -0.198995 0
M  V30 13927 C 1332.21 1.52355 0.661592 0
M  V30 13928 O 1333.39 1.80832 0.60865 0
M  V30 13929 C 1330.53 3.38846 0.654033 0
M  V30 13930 C 1329.65 4.31409 -0.225949 0
M  V30 13931 C 1328.78 5.27401 0.634188 0
M  V30 13932 C 1327.82 6.11602 -0.246773 0
M  V30 13933 N 1326.96 6.9976 0.57279 0
M  V30 13934 H 1331.8 2.80508 -1.00594 0
M  V30 13935 H 1329.33 1.38064 -0.507617 0
M  V30 13936 H 1331.29 4.00643 1.16367 0
M  V30 13937 H 1329.92 2.89578 1.42633 0
M  V30 13938 H 1328.97 3.70699 -0.853616 0
M  V30 13939 H 1330.29 4.90532 -0.904416 0
M  V30 13940 H 1329.44 5.94525 1.20933 0
M  V30 13941 H 1328.18 4.68751 1.34625 0
M  V30 13942 H 1327.18 5.43434 -0.834258 0
M  V30 13943 H 1328.41 6.72329 -0.956559 0
M  V30 13944 H 1326.35 6.43609 1.26901 0
M  V30 13945 H 1326.27 7.55985 -0.0478303 0
M  V30 13946 H 1327.54 7.71244 1.13151 0
M  V30 13947 N 1331.77 0.549846 1.47697 0
M  V30 13948 C 1332.68 -0.205286 2.337 0
M  V30 13949 C 1333.69 -0.919271 1.47734 0
M  V30 13950 O 1334.87 -0.889808 1.80678 0
M  V30 13951 C 1331.94 -1.22658 3.24278 0
M  V30 13952 C 1331 -0.520815 4.26129 0
M  V30 13953 C 1330.23 -1.49345 5.12378 0
M  V30 13954 O 1330.45 -2.72772 5.00951 0
M  V30 13955 O 1329.39 -1.02197 5.93161 0
M  V30 13956 H 1333.21 0.499982 2.99556 0
M  V30 13957 H 1330.8 0.310538 1.46137 0
M  V30 13958 H 1332.68 -1.8163 3.80248 0
M  V30 13959 H 1331.35 -1.9139 2.61059 0
M  V30 13960 H 1330.26 0.109906 3.73939 0
M  V30 13961 H 1331.59 0.124922 4.92041 0
M  V30 13962 N 1333.25 -1.54984 0.285932 0
M  V30 13963 C 1334.18 -2.25916 -0.590259 0
M  V30 13964 C 1335.16 -1.25319 -1.15018 0
M  V30 13965 O 1336.34 -1.54062 -1.18231 0
M  V30 13966 C 1333.47 -2.98849 -1.76936 0
M  V30 13967 C 1332.43 -4.06466 -1.3405 0
M  V30 13968 C 1331.75 -4.67032 -2.60356 0
M  V30 13969 C 1333.05 -5.20064 -0.482754 0
M  V30 13970 H 1334.75 -2.994 0.00131571 0
M  V30 13971 H 1332.29 -1.44 0.00207281 0
M  V30 13972 H 1334.25 -3.47186 -2.3883 0
M  V30 13973 H 1332.97 -2.22918 -2.38694 0
M  V30 13974 H 1331.63 -3.58957 -0.7447 0
M  V30 13975 H 1331.28 -3.87757 -3.20396 0
M  V30 13976 H 1330.98 -5.39703 -2.32368 0
M  V30 13977 H 1332.5 -5.18124 -3.23079 0
M  V30 13978 H 1333.91 -5.64387 -1.00697 0
M  V30 13979 H 1332.31 -5.99363 -0.297291 0
M  V30 13980 H 1333.38 -4.82358 0.495861 0
M  V30 13981 N 1334.72 -0.0133892 -1.57594 0
M  V30 13982 C 1335.65 0.972341 -2.12292 0
M  V30 13983 C 1336.64 1.34971 -1.03522 0
M  V30 13984 O 1337.82 1.4311 -1.31275 0
M  V30 13985 C 1334.95 2.25988 -2.63717 0
M  V30 13986 C 1333.9 2.02373 -3.77133 0
M  V30 13987 C 1333.23 3.37256 -4.14925 0
M  V30 13988 C 1334.53 1.37553 -5.03861 0
M  V30 13989 H 1336.22 0.516869 -2.94905 0
M  V30 13990 H 1333.77 0.247176 -1.41863 0
M  V30 13991 H 1335.72 2.95313 -3.00613 0
M  V30 13992 H 1334.45 2.73672 -1.78244 0
M  V30 13993 H 1333.11 1.3547 -3.40651 0
M  V30 13994 H 1332.75 3.82669 -3.26456 0
M  V30 13995 H 1332.45 3.22267 -4.91343 0
M  V30 13996 H 1333.98 4.07875 -4.5439 0
M  V30 13997 H 1335.39 1.96855 -5.38443 0
M  V30 13998 H 1333.79 1.33011 -5.85174 0
M  V30 13999 H 1334.86 0.346429 -4.83661 0
M  V30 14000 N 1336.2 1.55448 0.259558 0
M  V30 14001 C 1337.13 1.85678 1.34373 0
M  V30 14002 C 1338.15 0.742155 1.449 0
M  V30 14003 O 1339.34 1.02015 1.46476 0
M  V30 14004 C 1336.44 2.01668 2.72366 0
M  V30 14005 C 1335.61 3.32434 2.84265 0
M  V30 14006 C 1334.67 3.38322 4.03019 0
M  V30 14007 O 1333.69 4.11616 3.93143 0
M  V30 14008 N 1334.9 2.66697 5.1561 0
M  V30 14009 H 1337.66 2.79261 1.08781 0
M  V30 14010 H 1335.22 1.5553 0.449672 0
M  V30 14011 H 1337.21 2.02963 3.50126 0
M  V30 14012 H 1335.78 1.14889 2.90722 0
M  V30 14013 H 1335 3.43564 1.93281 0
M  V30 14014 H 1336.29 4.18649 2.89155 0
M  V30 14015 H 1335.69 2.06857 5.26523 0
M  V30 14016 H 1334.25 2.73699 5.91551 0
M  V30 14017 N 1337.68 -0.524672 1.4861 0
M  V30 14018 C 1339.1 -0.853703 1.34848 0
M  V30 14019 C 1339.3 -1.98194 0.363529 0
M  V30 14020 O 1338.35 -2.51597 -0.213348 0
M  V30 14021 C 1339.67 -1.21622 2.75006 0
M  V30 14022 C 1341.21 -1.3258 2.83534 0
M  V30 14023 C 1341.69 -1.72172 4.24406 0
M  V30 14024 N 1343.18 -1.79265 4.27105 0
M  V30 14025 C 1343.91 -2.11296 5.33049 0
M  V30 14026 N 1343.41 -2.41714 6.49266 0
M  V30 14027 N 1345.2 -2.12347 5.20447 0
M  V30 14028 H 1337.35 0.219671 2.11261 0
M  V30 14029 H 1339.62 0.0356444 0.94733 0
M  V30 14030 H 1339.32 -0.460776 3.48669 0
M  V30 14031 H 1339.2 -2.16516 3.0887 0
M  V30 14032 H 1341.58 -2.072 2.10124 0
M  V30 14033 H 1341.67 -0.357943 2.53283 0
M  V30 14034 H 1341.31 -0.981108 4.98334 0
M  V30 14035 H 1341.24 -2.70017 4.52104 0
M  V30 14036 H 1343.73 -1.58013 3.43279 0
M  V30 14037 H 1344.04 -2.65276 7.25843 0
M  V30 14038 H 1342.39 -2.39222 6.52532 0
M  V30 14039 H 1345.58 -1.88044 4.28669 0
M  V30 14040 H 1345.75 -2.36978 6.03113 0
M  V30 14041 N 1339.16 -1.37287 -0.77395 0
M  V30 14042 C 1340.38 -1.35734 -1.56815 0
M  V30 14043 C 1340.81 0.0555546 -1.88018 0
M  V30 14044 O 1340.17 1.03197 -1.49064 0
M  V30 14045 C 1340.21 -2.2008 -2.85652 0
M  V30 14046 O 1339.32 -1.60391 -3.79932 0
M  V30 14047 H 1338.66 -0.463881 -0.47509 0
M  V30 14048 H 1341.19 -1.80781 -0.958087 0
M  V30 14049 H 1341.2 -2.33215 -3.34776 0
M  V30 14050 H 1339.87 -3.22781 -2.6227 0
M  V30 14051 H 1338.45 -1.56285 -3.3857 0
M  V30 14052 N 1340.64 0.999871 -1.21821 0
M  V30 14053 C 1341.87 1.77148 -1.06312 0
M  V30 14054 C 1342.27 1.85142 0.389747 0
M  V30 14055 O 1341.62 1.31562 1.28207 0
M  V30 14056 C 1341.68 3.22367 -1.59122 0
M  V30 14057 C 1341.34 3.37937 -3.07649 0
M  V30 14058 C 1342.34 3.25808 -4.05148 0
M  V30 14059 C 1340.03 3.63213 -3.46961 0
M  V30 14060 C 1342.02 3.38729 -5.39946 0
M  V30 14061 C 1339.71 3.75775 -4.81909 0
M  V30 14062 C 1340.7 3.6354 -5.78211 0
M  V30 14063 O 1340.39 3.75694 -7.1071 0
M  V30 14064 H 1340.12 0.563396 -0.373578 0
M  V30 14065 H 1342.68 1.26627 -1.61724 0
M  V30 14066 H 1340.91 3.74047 -0.98111 0
M  V30 14067 H 1342.6 3.81219 -1.39379 0
M  V30 14068 H 1343.36 3.062 -3.76121 0
M  V30 14069 H 1339.24 3.71816 -2.72533 0
M  V30 14070 H 1342.79 3.29096 -6.15095 0
M  V30 14071 H 1338.68 3.94889 -5.1062 0
M  V30 14072 H 1339.45 3.9261 -7.18192 0
M  V30 14073 N 1342.11 1.02678 1.19562 0
M  V30 14074 C 1343.53 0.743467 1.41226 0
M  V30 14075 C 1343.73 -0.672786 1.89936 0
M  V30 14076 O 1342.79 -1.43908 2.07477 0
M  V30 14077 C 1344.1 1.77781 2.42517 0
M  V30 14078 C 1345.65 1.79711 2.56267 0
M  V30 14079 C 1346.12 2.82099 3.60811 0
M  V30 14080 N 1347.61 2.80902 3.68304 0
M  V30 14081 C 1348.35 3.5678 4.48882 0
M  V30 14082 N 1347.84 4.42367 5.33182 0
M  V30 14083 N 1349.64 3.45331 4.43512 0
M  V30 14084 H 1341.79 1.94094 0.862635 0
M  V30 14085 H 1344.05 0.839015 0.441313 0
M  V30 14086 H 1343.76 2.79295 2.13745 0
M  V30 14087 H 1343.63 1.59836 3.41661 0
M  V30 14088 H 1346.02 0.788756 2.84364 0
M  V30 14089 H 1346.1 2.01731 1.57284 0
M  V30 14090 H 1345.74 3.83104 3.33457 0
M  V30 14091 H 1345.67 2.57338 4.5944 0
M  V30 14092 H 1348.16 2.18826 3.08097 0
M  V30 14093 H 1348.48 4.97008 5.9178 0
M  V30 14094 H 1346.82 4.4644 5.3265 0
M  V30 14095 H 1350.01 2.77883 3.76695 0
M  V30 14096 H 1350.19 4.04718 5.06071 0
M  V30 14097 N 1343.59 -1.35528 0.804364 0
M  V30 14098 C 1344.54 -2.29832 0.211186 0
M  V30 14099 C 1345.51 -1.52704 -0.653503 0
M  V30 14100 O 1346.69 -1.81152 -0.599052 0
M  V30 14101 C 1343.83 -3.39188 -0.636054 0
M  V30 14102 C 1342.95 -4.31283 0.248824 0
M  V30 14103 C 1342.08 -5.2773 -0.60621 0
M  V30 14104 C 1341.12 -6.11463 0.279205 0
M  V30 14105 N 1340.26 -7.00054 -0.535672 0
M  V30 14106 H 1345.1 -2.79971 1.0208 0
M  V30 14107 H 1342.64 -1.37793 0.514931 0
M  V30 14108 H 1344.59 -4.01254 -1.14241 0
M  V30 14109 H 1343.22 -2.90331 -1.41095 0
M  V30 14110 H 1342.28 -3.70241 0.873263 0
M  V30 14111 H 1343.59 -4.90046 0.930417 0
M  V30 14112 H 1342.74 -5.95158 -1.17778 0
M  V30 14113 H 1341.48 -4.69458 -1.32138 0
M  V30 14114 H 1340.49 -5.42984 0.863066 0
M  V30 14115 H 1341.71 -6.71813 0.9922 0
M  V30 14116 H 1339.66 -6.44273 -1.23486 0
M  V30 14117 H 1339.57 -7.55949 0.0879213 0
M  V30 14118 H 1340.84 -7.71833 -1.09059 0
M  V30 14119 N 1345.07 -0.557671 -1.47404 0
M  V30 14120 C 1346 0.178019 -2.3282 0
M  V30 14121 C 1346.98 0.908318 -1.43818 0
M  V30 14122 O 1348.17 0.888693 -1.72673 0
M  V30 14123 C 1345.3 1.2082 -3.25607 0
M  V30 14124 C 1344.25 0.594335 -4.23853 0
M  V30 14125 C 1343.58 1.72919 -5.05968 0
M  V30 14126 C 1344.88 -0.452196 -5.20339 0
M  V30 14127 H 1346.57 -0.535091 -2.9458 0
M  V30 14128 H 1344.12 -0.258775 -1.41656 0
M  V30 14129 H 1346.07 1.73104 -3.84204 0
M  V30 14130 H 1344.79 1.95126 -2.61903 0
M  V30 14131 H 1343.45 0.0927898 -3.66483 0
M  V30 14132 H 1343.1 2.4613 -4.38668 0
M  V30 14133 H 1342.8 1.32422 -5.72484 0
M  V30 14134 H 1344.33 2.25527 -5.67424 0
M  V30 14135 H 1345.74 -0.0154011 -5.73298 0
M  V30 14136 H 1344.14 -0.776068 -5.95061 0
M  V30 14137 H 1345.21 -1.34791 -4.65789 0
M  V30 14138 N 1346.55 1.54831 -0.294147 0
M  V30 14139 C 1347.46 2.26939 0.594621 0
M  V30 14140 C 1348.48 1.30209 1.15419 0
M  V30 14141 O 1349.65 1.6318 1.18044 0
M  V30 14142 C 1346.72 2.9909 1.75345 0
M  V30 14143 C 1345.78 4.11342 1.22865 0
M  V30 14144 C 1345.01 4.80043 2.33225 0
M  V30 14145 O 1345.23 4.48062 3.52983 0
M  V30 14146 O 1344.17 5.67593 2.00304 0
M  V30 14147 H 1347.99 3.03698 0.00989235 0
M  V30 14148 H 1345.58 1.49276 -0.0608528 0
M  V30 14149 H 1347.46 3.44369 2.42875 0
M  V30 14150 H 1346.14 2.25232 2.32492 0
M  V30 14151 H 1345.04 3.70478 0.519279 0
M  V30 14152 H 1346.38 4.87158 0.702703 0
M  V30 14153 N 1348.03 0.0217466 1.57585 0
M  V30 14154 C 1348.94 -0.978407 2.13224 0
M  V30 14155 C 1349.95 -1.36212 1.08269 0
M  V30 14156 O 1351.13 -1.44504 1.40288 0
M  V30 14157 C 1348.19 -2.24462 2.6423 0
M  V30 14158 C 1347.26 -1.92201 3.83871 0
M  V30 14159 C 1346.49 -3.12786 4.32436 0
M  V30 14160 O 1346.71 -4.25201 3.8021 0
M  V30 14161 O 1345.65 -2.95514 5.24362 0
M  V30 14162 H 1349.47 -0.535347 2.98944 0
M  V30 14163 H 1347.06 -0.198414 1.48077 0
M  V30 14164 H 1348.94 -2.98809 2.97138 0
M  V30 14165 H 1347.61 -2.67964 1.81596 0
M  V30 14166 H 1346.52 -1.15262 3.55901 0
M  V30 14167 H 1347.85 -1.53521 4.67645 0
M  V30 14168 N 1349.51 -1.55583 -0.251311 0
M  V30 14169 C 1350.92 -1.47908 -0.599606 0
M  V30 14170 C 1351.12 -0.711061 -1.88537 0
M  V30 14171 O 1350.18 -0.238639 -2.5137 0
M  V30 14172 C 1351.49 -2.92284 -0.706429 0
M  V30 14173 C 1353.04 -3.02629 -0.799049 0
M  V30 14174 C 1353.51 -4.48303 -0.93747 0
M  V30 14175 N 1355 -4.52222 -1.00245 0
M  V30 14176 C 1355.74 -5.62181 -1.12874 0
M  V30 14177 N 1355.24 -6.81958 -1.22085 0
M  V30 14178 N 1357.03 -5.49968 -1.16155 0
M  V30 14179 H 1349.18 -2.0396 0.592806 0
M  V30 14180 H 1351.44 -0.925797 0.203971 0
M  V30 14181 H 1351.15 -3.51297 0.168243 0
M  V30 14182 H 1351.02 -3.42524 -1.57979 0
M  V30 14183 H 1353.41 -2.43699 -1.66418 0
M  V30 14184 H 1353.49 -2.55607 0.099367 0
M  V30 14185 H 1353.13 -5.07842 -0.0769166 0
M  V30 14186 H 1353.06 -4.93002 -1.85086 0
M  V30 14187 H 1355.56 -3.65951 -0.94279 0
M  V30 14188 H 1355.87 -7.6151 -1.31616 0
M  V30 14189 H 1354.21 -6.84728 -1.1905 0
M  V30 14190 H 1357.4 -4.55327 -1.08604 0
M  V30 14191 H 1357.58 -6.35701 -1.25653 0
M  V30 14192 N 1350.98 0.516783 -1.48886 0
M  V30 14193 C 1352.23 1.27375 -1.57808 0
M  V30 14194 C 1352.56 1.92492 -0.256963 0
M  V30 14195 O 1351.84 1.79947 0.738193 0
M  V30 14196 C 1352.12 2.35295 -2.72595 0
M  V30 14197 C 1351.97 1.74783 -4.14453 0
M  V30 14198 C 1353.29 3.36973 -2.83085 0
M  V30 14199 H 1350.41 0.46175 -0.574418 0
M  V30 14200 H 1353.05 0.57434 -1.81111 0
M  V30 14201 H 1351.2 2.94951 -2.52857 0
M  V30 14202 H 1352.88 1.19076 -4.45666 0
M  V30 14203 H 1351.12 1.05258 -4.20836 0
M  V30 14204 H 1351.79 2.52985 -4.90615 0
M  V30 14205 H 1354.27 2.87289 -3.01005 0
M  V30 14206 H 1353.14 4.09864 -3.65106 0
M  V30 14207 H 1353.4 3.98336 -1.91784 0
M  V30 14208 N 1352.46 1.37696 0.766659 0
M  V30 14209 C 1353.41 1.30383 1.87041 0
M  V30 14210 C 1354.4 0.190643 1.59767 0
M  V30 14211 O 1355.59 0.425485 1.7181 0
M  V30 14212 C 1352.72 1.11817 3.2458 0
M  V30 14213 C 1351.8 2.27701 3.57789 0
M  V30 14214 N 1352.19 3.53108 3.62144 0
M  V30 14215 C 1350.49 2.19967 3.87983 0
M  V30 14216 C 1351.19 4.29555 3.92247 0
M  V30 14217 N 1350.17 3.58754 4.08408 0
M  V30 14218 H 1353.97 2.25348 1.88668 0
M  V30 14219 H 1351.48 1.30741 0.963362 0
M  V30 14220 H 1353.48 1.04663 4.03548 0
M  V30 14221 H 1352.14 0.177731 3.24213 0
M  V30 14222 H 1353.15 3.86949 3.44225 0
M  V30 14223 H 1349.83 1.34009 3.95408 0
M  V30 14224 H 1351.22 5.38112 4.0235 0
M  V30 14225 N 1353.94 -0.993397 1.22349 0
M  V30 14226 C 1354.87 -2.10171 1.01737 0
M  V30 14227 C 1355.85 -1.69989 -0.0615276 0
M  V30 14228 O 1357.04 -1.93939 0.100591 0
M  V30 14229 C 1354.17 -3.42186 0.593801 0
M  V30 14230 C 1353.12 -3.96215 1.61858 0
M  V30 14231 C 1352.45 -5.24272 1.05086 0
M  V30 14232 C 1353.75 -4.26956 3.00842 0
M  V30 14233 H 1355.44 -2.27673 1.94436 0
M  V30 14234 H 1352.99 -1.09408 0.936258 0
M  V30 14235 H 1354.94 -4.19131 0.436715 0
M  V30 14236 H 1353.66 -3.2451 -0.368855 0
M  V30 14237 H 1352.32 -3.21401 1.76343 0
M  V30 14238 H 1351.97 -5.02937 0.0795747 0
M  V30 14239 H 1351.67 -5.61387 1.73547 0
M  V30 14240 H 1353.19 -6.03851 0.905349 0
M  V30 14241 H 1354.61 -4.94699 2.89734 0
M  V30 14242 H 1353 -4.75242 3.66422 0
M  V30 14243 H 1354.07 -3.34752 3.50812 0
M  V30 14244 N 1355.42 -1.03311 -1.19015 0
M  V30 14245 C 1356.33 -0.627735 -2.26046 0
M  V30 14246 C 1357.34 0.342483 -1.70596 0
M  V30 14247 O 1358.52 0.199307 -2.00411 0
M  V30 14248 C 1355.58 0.0108274 -3.46698 0
M  V30 14249 C 1354.65 -1.00743 -4.17312 0
M  V30 14250 C 1353.88 -0.399245 -5.32205 0
M  V30 14251 O 1354.1 0.796649 -5.64809 0
M  V30 14252 O 1353.04 -1.12419 -5.91308 0
M  V30 14253 H 1356.86 -1.51923 -2.6297 0
M  V30 14254 H 1354.45 -0.803538 -1.25951 0
M  V30 14255 H 1356.33 0.366672 -4.19802 0
M  V30 14256 H 1355 0.876265 -3.11614 0
M  V30 14257 H 1353.91 -1.41494 -3.4631 0
M  V30 14258 H 1355.24 -1.84338 -4.56377 0
M  V30 14259 N 1356.9 1.35099 -0.81154 0
M  V30 14260 C 1358.14 2.00449 -0.399935 0
M  V30 14261 C 1358.5 1.62971 1.0151 0
M  V30 14262 O 1359.7 2.21078 1.52898 0
M  V30 14263 C 1357.97 3.52608 -0.583277 0
M  V30 14264 S 1359.53 4.38012 -0.26283 0
M  V30 14265 H 1356.35 0.69464 -0.151644 0
M  V30 14266 H 1358.95 1.64599 -1.05487 0
M  V30 14267 H 1357.65 3.77372 -1.61303 0
M  V30 14268 H 1357.19 3.93304 0.0868032 0
M  V30 14269 H 1359.2 4.87451 0.927696 0
M  V30 14270 N 1358.37 0.56548 1.47106 0
M  V30 14271 C 1359.65 -0.0215358 1.95588 0
M  V30 14272 C 1360.03 -1.47712 1.50813 0
M  V30 14273 O 1359.38 -2.15814 0.750776 0
M  V30 14274 C 1359.59 0.132552 3.48748 0
M  V30 14275 C 1360.94 -0.00853591 4.24599 0
M  V30 14276 O 1361.96 0.0605142 3.56149 0
M  V30 14277 O 1360.82 -0.158519 5.4627 0
M  V30 14278 H 1357.91 -0.0595011 0.824857 0
M  V30 14279 H 1360.46 0.632586 1.57469 0
M  V30 14280 H 1359.23 1.14511 3.7417 0
M  V30 14281 H 1358.85 -0.558801 3.93654 0
M  V30 14282 N 1359.85 -1.54672 0.302354 0
M  V30 14283 C 1361.1 -1.99771 -0.305919 0
M  V30 14284 C 1361.42 -1.19225 -1.54306 0
M  V30 14285 O 1360.69 -0.288569 -1.93763 0
M  V30 14286 H 1359.27 -0.737934 -0.116026 0
M  V30 14287 H 1361.93 -1.90452 0.413997 0
M  V30 14288 H 1361.03 -3.06719 -0.577024 0
M  V30 14289 N 1361.33 -0.0301034 -1.57571 0
M  V30 14290 C 1362.24 0.967086 -2.1374 0
M  V30 14291 C 1363.26 1.35636 -1.0899 0
M  V30 14292 O 1364.43 1.43758 -1.41052 0
M  V30 14293 C 1361.5 2.23058 -2.65417 0
M  V30 14294 C 1360.56 1.90163 -3.84885 0
M  V30 14295 C 1359.79 3.10488 -4.34088 0
M  V30 14296 O 1360.01 4.23179 -3.8246 0
M  V30 14297 O 1358.95 2.92729 -5.25921 0
M  V30 14298 H 1362.77 0.519486 -2.99224 0
M  V30 14299 H 1360.36 0.190559 -1.4818 0
M  V30 14300 H 1362.24 2.97229 -2.98719 0
M  V30 14301 H 1360.92 2.66997 -1.83015 0
M  V30 14302 H 1359.82 1.13373 -3.56507 0
M  V30 14303 H 1361.16 1.51039 -4.68453 0
M  V30 14304 N 1362.81 1.55714 0.243056 0
M  V30 14305 C 1364.04 1.81786 0.98801 0
M  V30 14306 C 1364.45 0.606352 1.78798 0
M  V30 14307 O 1363.81 -0.425018 1.77482 0
M  V30 14308 C 1363.86 3.06121 1.92281 0
M  V30 14309 O 1363.58 4.22595 1.15521 0
M  V30 14310 C 1365.08 3.45021 2.78344 0
M  V30 14311 H 1362.3 0.604829 0.290557 0
M  V30 14312 H 1364.85 2.02779 0.26478 0
M  V30 14313 H 1363 2.87167 2.60027 0
M  V30 14314 H 1363.41 4.93088 1.78786 0
M  V30 14315 H 1364.89 4.35112 3.39678 0
M  V30 14316 H 1365.37 2.65782 3.49652 0
M  V30 14317 H 1365.97 3.66339 2.16045 0
M  V30 14318 N 1364.29 -0.50888 1.49158 0
M  V30 14319 C 1365.54 -1.26008 1.57496 0
M  V30 14320 C 1365.85 -1.9382 0.263281 0
M  V30 14321 O 1367.05 -2.70565 0.225117 0
M  V30 14322 C 1365.51 -2.28752 2.7785 0
M  V30 14323 C 1365.12 -1.66915 4.15744 0
M  V30 14324 C 1366.86 -3.0475 2.95513 0
M  V30 14325 C 1364.77 -2.67724 5.27331 0
M  V30 14326 H 1363.7 -0.473984 0.586392 0
M  V30 14327 H 1366.35 -0.534886 1.75531 0
M  V30 14328 H 1364.73 -3.044 2.53292 0
M  V30 14329 H 1365.91 -0.973131 4.50407 0
M  V30 14330 H 1364.22 -1.03336 4.03374 0
M  V30 14331 H 1366.82 -3.80121 3.76048 0
M  V30 14332 H 1367.16 -3.6189 2.05771 0
M  V30 14333 H 1367.69 -2.36217 3.20072 0
M  V30 14334 H 1364.43 -2.15375 6.19107 0
M  V30 14335 H 1363.95 -3.35589 4.97132 0
M  V30 14336 H 1365.63 -3.30304 5.56335 0
M  V30 14337 N 1365.76 -1.381 -0.759346 0
M  V30 14338 C 1366.99 -1.37389 -1.55367 0
M  V30 14339 C 1367.41 0.0356097 -1.88066 0
M  V30 14340 O 1366.77 1.0161 -1.5015 0
M  V30 14341 C 1366.82 -2.23098 -2.83302 0
M  V30 14342 O 1365.92 -1.64412 -3.7821 0
M  V30 14343 H 1365.27 -0.468894 -0.470143 0
M  V30 14344 H 1367.8 -1.81787 -0.938858 0
M  V30 14345 H 1367.81 -2.36753 -3.32283 0
M  V30 14346 H 1366.48 -3.25544 -2.58831 0
M  V30 14347 H 1365.06 -1.59867 -3.36893 0
M  V30 14348 N 1367.24 0.986894 -1.22875 0
M  V30 14349 C 1368.17 2.09628 -1.0285 0
M  V30 14350 C 1369.15 1.70019 0.0525118 0
M  V30 14351 O 1370.34 1.93883 -0.110874 0
M  V30 14352 C 1367.47 3.41866 -0.61194 0
M  V30 14353 C 1366.42 3.95351 -1.63956 0
M  V30 14354 C 1365.75 5.23707 -1.07865 0
M  V30 14355 C 1367.05 4.25354 -3.03102 0
M  V30 14356 H 1368.74 2.26639 -1.95641 0
M  V30 14357 H 1366.29 1.0891 -0.942048 0
M  V30 14358 H 1368.24 4.18893 -0.458936 0
M  V30 14359 H 1366.97 3.24701 0.35164 0
M  V30 14360 H 1365.62 3.20462 -1.78045 0
M  V30 14361 H 1365.27 5.02888 -0.106246 0
M  V30 14362 H 1364.97 5.60459 -1.76522 0
M  V30 14363 H 1366.5 6.03362 -0.937359 0
M  V30 14364 H 1367.91 4.93156 -2.92353 0
M  V30 14365 H 1366.31 4.73292 -3.68938 0
M  V30 14366 H 1367.38 3.32887 -3.52583 0
M  V30 14367 N 1368.72 1.0394 1.18466 0
M  V30 14368 C 1370.13 0.77011 1.70077 0
M  V30 14369 C 1370.48 -0.70916 1.82935 0
M  V30 14370 O 1369.61 -1.55209 1.50795 0
M  V30 14371 C 1370.2 1.39132 3.08914 0
M  V30 14372 C 1368.76 1.17037 3.57742 0
M  V30 14373 C 1367.91 1.48279 2.34326 0
M  V30 14374 H 1370.86 1.20598 1.03159 0
M  V30 14375 H 1370.88 0.793861 3.72126 0
M  V30 14376 H 1370.39 2.46795 2.99523 0
M  V30 14377 H 1368.49 0.112435 3.7243 0
M  V30 14378 H 1368.61 1.8665 4.41247 0
M  V30 14379 H 1366.97 0.902438 2.38177 0
M  V30 14380 H 1367.75 2.57047 2.27556 0
M  V30 14381 N 1370.2 -1.34667 0.818693 0
M  V30 14382 C 1371.15 -2.31501 0.225816 0
M  V30 14383 C 1372.14 -1.57205 -0.631112 0
M  V30 14384 O 1373.35 -1.72237 -0.522924 0
M  V30 14385 H 1369.72 -0.750039 0.0542747 0
M  V30 14386 H 1371.69 -2.79036 1.05743 0
M  V30 14387 C 1370.44 -3.42464 -0.60114 0
M  V30 14388 H 1369.76 -3.9977 0.0489207 0
M  V30 14389 H 1371.2 -4.12468 -0.982154 0
M  V30 14390 C 1369.66 -2.86551 -1.77173 0
M  V30 14391 O 1370.19 -2.81085 -2.86974 0
M  V30 14392 N 1368.4 -2.43432 -1.58712 0
M  V30 14393 H 1367.95 -2.48077 -0.693958 0
M  V30 14394 H 1367.9 -2.06371 -2.37188 0
M  V30 14395 N 1371.68 -0.573274 -1.46804 0
M  V30 14396 C 1372.61 0.153316 -2.32996 0
M  V30 14397 C 1373.59 0.893013 -1.44773 0
M  V30 14398 O 1374.77 0.870329 -1.73606 0
M  V30 14399 C 1371.9 1.1736 -3.2687 0
M  V30 14400 C 1370.86 0.549347 -4.2446 0
M  V30 14401 C 1370.18 1.67542 -5.07773 0
M  V30 14402 C 1371.48 -0.50736 -5.1983 0
M  V30 14403 H 1373.18 -0.566305 -2.93995 0
M  V30 14404 H 1370.72 -0.273785 -1.41373 0
M  V30 14405 H 1372.68 1.6902 -3.86019 0
M  V30 14406 H 1371.4 1.92337 -2.63958 0
M  V30 14407 H 1370.06 0.0539142 -3.6656 0
M  V30 14408 H 1369.71 2.41463 -4.41253 0
M  V30 14409 H 1369.41 1.26343 -5.73856 0
M  V30 14410 H 1370.93 2.19496 -5.69784 0
M  V30 14411 H 1372.34 -0.0762061 -5.73249 0
M  V30 14412 H 1370.74 -0.839139 -5.94204 0
M  V30 14413 H 1371.81 -1.39723 -4.64333 0
M  V30 14414 N 1373.15 1.5451 -0.310553 0
M  V30 14415 C 1374.09 2.2134 0.595098 0
M  V30 14416 C 1375.1 1.20917 1.09009 0
M  V30 14417 O 1376.29 1.47458 1.0059 0
M  V30 14418 C 1373.39 2.85384 1.82782 0
M  V30 14419 C 1372.56 4.11826 1.47372 0
M  V30 14420 C 1371.62 4.59584 2.56259 0
M  V30 14421 O 1370.65 5.24567 2.20949 0
M  V30 14422 N 1371.85 4.32709 3.86967 0
M  V30 14423 H 1374.61 2.99691 0.0229291 0
M  V30 14424 H 1372.17 1.61351 -0.133173 0
M  V30 14425 H 1374.17 3.14263 2.54992 0
M  V30 14426 H 1372.74 2.10816 2.30815 0
M  V30 14427 H 1371.96 3.89853 0.583826 0
M  V30 14428 H 1373.24 4.94138 1.21265 0
M  V30 14429 H 1372.64 3.80669 4.18458 0
M  V30 14430 H 1371.2 4.66275 4.55446 0
M  V30 14431 N 1374.63 0.0384594 1.57553 0
M  V30 14432 C 1375.88 -0.636879 1.91803 0
M  V30 14433 C 1376.2 -1.72128 0.916347 0
M  V30 14434 O 1375.47 -1.95858 -0.0407405 0
M  V30 14435 H 1374.05 -0.238237 0.707992 0
M  V30 14436 H 1376.71 0.0884651 1.94699 0
M  V30 14437 H 1375.81 -1.08364 2.92683 0
M  V30 14438 N 1376.11 -1.55841 -0.234795 0
M  V30 14439 C 1377.36 -1.77438 -0.959094 0
M  V30 14440 C 1377.67 -0.604621 -1.86021 0
M  V30 14441 O 1378.88 -0.703897 -2.62217 0
M  V30 14442 C 1377.34 -3.14182 -1.7555 0
M  V30 14443 C 1376.94 -4.38843 -0.90118 0
M  V30 14444 C 1378.69 -3.45112 -2.47181 0
M  V30 14445 C 1376.59 -5.66614 -1.69417 0
M  V30 14446 H 1375.52 -0.661503 -0.361843 0
M  V30 14447 H 1378.18 -1.82255 -0.213364 0
M  V30 14448 H 1376.56 -3.03505 -2.54364 0
M  V30 14449 H 1377.73 -4.60541 -0.154515 0
M  V30 14450 H 1376.05 -4.15335 -0.297631 0
M  V30 14451 H 1378.64 -4.37794 -3.06986 0
M  V30 14452 H 1378.99 -2.66995 -3.19405 0
M  V30 14453 H 1379.52 -3.57059 -1.75368 0
M  V30 14454 H 1376.26 -6.47587 -1.01545 0
M  V30 14455 H 1375.78 -5.48998 -2.4158 0
M  V30 14456 H 1377.46 -6.06311 -2.25824 0
M  V30 14457 N 1377.59 0.500963 -1.49426 0
M  V30 14458 C 1378.84 1.25694 -1.5915 0
M  V30 14459 C 1379.17 1.92209 -0.277365 0
M  V30 14460 O 1378.44 1.8072 0.719065 0
M  V30 14461 C 1378.73 2.32391 -2.75076 0
M  V30 14462 C 1378.58 1.70377 -4.16283 0
M  V30 14463 C 1379.9 3.33952 -2.86643 0
M  V30 14464 H 1377.02 0.455631 -0.579283 0
M  V30 14465 H 1379.66 0.555099 -1.8171 0
M  V30 14466 H 1377.81 2.92252 -2.55971 0
M  V30 14467 H 1379.48 1.14343 -4.46904 0
M  V30 14468 H 1377.72 1.00789 -4.21929 0
M  V30 14469 H 1378.4 2.47767 -4.9327 0
M  V30 14470 H 1380.87 2.84081 -3.04035 0
M  V30 14471 H 1379.75 4.05969 -3.69433 0
M  V30 14472 H 1380.01 3.96279 -1.95998 0
M  V30 14473 N 1379.07 1.38501 0.752011 0
M  V30 14474 C 1380.31 1.34995 1.51341 0
M  V30 14475 C 1380.65 -0.0594724 1.94109 0
M  V30 14476 O 1379.92 -1.02098 1.65548 0
M  V30 14477 C 1380.2 2.30705 2.76491 0
M  V30 14478 C 1380.06 3.80515 2.39851 0
M  V30 14479 C 1381.38 2.24521 3.78521 0
M  V30 14480 H 1378.5 0.491687 0.549011 0
M  V30 14481 H 1381.14 1.69361 0.861205 0
M  V30 14482 H 1379.29 2.01529 3.32142 0
M  V30 14483 H 1380.96 4.20371 1.89962 0
M  V30 14484 H 1379.2 3.98119 1.7229 0
M  V30 14485 H 1379.87 4.42946 3.29397 0
M  V30 14486 H 1382.35 2.50282 3.32413 0
M  V30 14487 H 1381.23 2.93598 4.63779 0
M  V30 14488 H 1381.49 1.24457 4.2422 0
M  V30 14489 N 1380.55 -0.980364 1.23396 0
M  V30 14490 C 1381.48 -2.0908 1.0396 0
M  V30 14491 C 1382.46 -1.70044 -0.0434946 0
M  V30 14492 O 1383.64 -1.93822 0.121155 0
M  V30 14493 C 1380.77 -3.41537 0.630061 0
M  V30 14494 C 1379.73 -3.94476 1.66051 0
M  V30 14495 C 1379.05 -5.23128 1.10641 0
M  V30 14496 C 1380.35 -4.23741 3.05354 0
M  V30 14497 H 1382.05 -2.25598 1.9684 0
M  V30 14498 H 1379.59 -1.08409 0.94781 0
M  V30 14499 H 1381.54 -4.18644 0.481145 0
M  V30 14500 H 1380.27 -3.24883 -0.334416 0
M  V30 14501 H 1378.93 -3.19513 1.79742 0
M  V30 14502 H 1378.58 -5.02824 0.132913 0
M  V30 14503 H 1378.28 -5.59515 1.79492 0
M  V30 14504 H 1379.8 -6.02857 0.969344 0
M  V30 14505 H 1381.21 -4.91598 2.94964 0
M  V30 14506 H 1379.61 -4.71329 3.71442 0
M  V30 14507 H 1380.68 -3.31012 3.54343 0
M  V30 14508 N 1382.02 -1.04567 -1.17913 0
M  V30 14509 C 1382.97 -0.634939 -2.23766 0
M  V30 14510 C 1383.97 0.340723 -1.65938 0
M  V30 14511 O 1385.17 0.207467 -1.788 0
M  V30 14512 H 1381.55 -0.187129 -0.728345 0
M  V30 14513 H 1383.52 -1.53798 -2.55712 0
M  V30 14514 C 1382.27 -0.0190662 -3.47695 0
M  V30 14515 H 1381.59 -0.760881 -3.92493 0
M  V30 14516 H 1383.03 0.231035 -4.2337 0
M  V30 14517 C 1381.49 1.23246 -3.13548 0
M  V30 14518 O 1382.02 2.32262 -3.27746 0
M  V30 14519 N 1380.22 1.12768 -2.67828 0
M  V30 14520 H 1379.77 0.240547 -2.56474 0
M  V30 14521 H 1379.73 1.96594 -2.45353 0
M  V30 14522 N 1383.5 1.34231 -0.825823 0
M  V30 14523 C 1384.75 1.97454 -0.411661 0
M  V30 14524 C 1385.06 1.66193 1.03147 0
M  V30 14525 O 1386.27 2.22929 1.54968 0
M  V30 14526 C 1384.73 3.53318 -0.685145 0
M  V30 14527 C 1384.33 3.9347 -2.14208 0
M  V30 14528 C 1386.08 4.23158 -0.337291 0
M  V30 14529 C 1383.98 5.42258 -2.3603 0
M  V30 14530 H 1382.91 0.738889 -0.150196 0
M  V30 14531 H 1385.57 1.53033 -1.01258 0
M  V30 14532 H 1383.95 3.95998 -0.0140178 0
M  V30 14533 H 1385.12 3.61888 -2.85261 0
M  V30 14534 H 1383.44 3.36575 -2.45165 0
M  V30 14535 H 1386.03 5.32558 -0.47813 0
M  V30 14536 H 1386.38 4.10053 0.718499 0
M  V30 14537 H 1386.91 3.85965 -0.963113 0
M  V30 14538 H 1383.65 5.60352 -3.40126 0
M  V30 14539 H 1383.17 5.75345 -1.69524 0
M  V30 14540 H 1384.85 6.08976 -2.18533 0
M  V30 14541 N 1384.98 0.581051 1.46498 0
M  V30 14542 C 1386.21 0.0715652 2.06776 0
M  V30 14543 C 1386.62 -1.23267 1.43006 0
M  V30 14544 O 1385.98 -1.74489 0.534776 0
M  V30 14545 C 1386.03 -0.102666 3.61354 0
M  V30 14546 O 1385.75 1.14995 4.22739 0
M  V30 14547 C 1387.25 -0.646692 4.38558 0
M  V30 14548 H 1384.47 0.0566964 0.6686 0
M  V30 14549 H 1387.02 0.801248 1.8815 0
M  V30 14550 H 1385.17 -0.782564 3.79414 0
M  V30 14551 H 1385.59 0.962718 5.15589 0
M  V30 14552 H 1387.06 -0.717791 5.47313 0
M  V30 14553 H 1387.54 -1.6633 4.06486 0
M  V30 14554 H 1388.14 -0.00171739 4.253 0
M  V30 14555 N 1386.46 -1.54343 0.318742 0
M  V30 14556 C 1387.68 -2.05361 -0.290126 0
M  V30 14557 C 1388.11 -1.19362 -1.45376 0
M  V30 14558 O 1387.47 -0.201639 -1.80175 0
M  V30 14559 C 1387.51 -3.53601 -0.707025 0
M  V30 14560 O 1386.62 -3.70561 -1.80992 0
M  V30 14561 H 1385.96 -0.661858 -0.0532933 0
M  V30 14562 H 1388.49 -1.99228 0.46575 0
M  V30 14563 H 1388.5 -3.95782 -0.991005 0
M  V30 14564 H 1387.17 -4.1565 0.144091 0
M  V30 14565 H 1385.75 -3.40286 -1.52513 0
M  V30 14566 N 1387.94 -0.0468143 -1.5753 0
M  V30 14567 C 1389.17 0.636723 -1.96544 0
M  V30 14568 C 1389.57 1.65169 -0.922814 0
M  V30 14569 O 1388.92 1.83417 0.101892 0
M  V30 14570 C 1388.98 1.38435 -3.31777 0
M  V30 14571 C 1388.64 0.525714 -4.53966 0
M  V30 14572 C 1389.64 -0.206392 -5.1949 0
M  V30 14573 C 1387.32 0.457919 -5.00208 0
M  V30 14574 C 1389.32 -0.994779 -6.29589 0
M  V30 14575 C 1387.01 -0.334159 -6.10186 0
M  V30 14576 C 1388 -1.0592 -6.74737 0
M  V30 14577 O 1387.69 -1.83826 -7.826 0
M  V30 14578 H 1387.42 0.179197 -0.651816 0
M  V30 14579 H 1389.98 -0.108214 -2.05115 0
M  V30 14580 H 1388.21 2.17482 -3.19748 0
M  V30 14581 H 1389.9 1.9577 -3.55568 0
M  V30 14582 H 1390.66 -0.163457 -4.84724 0
M  V30 14583 H 1386.54 1.01185 -4.49758 0
M  V30 14584 H 1390.09 -1.56121 -6.79906 0
M  V30 14585 H 1385.98 -0.378748 -6.44388 0
M  V30 14586 H 1386.75 -1.75991 -7.99356 0
M  V30 14587 N 1389.41 1.55964 0.226527 0
M  V30 14588 C 1390.38 1.91184 1.26418 0
M  V30 14589 C 1391.38 0.789982 1.40057 0
M  V30 14590 O 1392.57 1.05778 1.38407 0
M  V30 14591 C 1389.7 2.15826 2.63878 0
M  V30 14592 H 1390.89 2.83986 0.963956 0
M  V30 14593 H 1388.45 1.49169 0.466726 0
M  V30 14594 H 1389.18 1.2556 2.99007 0
M  V30 14595 H 1388.97 2.97549 2.55356 0
M  V30 14596 H 1390.46 2.44188 3.38765 0
M  V30 14597 N 1390.89 -0.493031 1.4969 0
M  V30 14598 C 1392.14 -1.24418 1.59263 0
M  V30 14599 C 1392.46 -1.92908 0.284882 0
M  V30 14600 O 1391.73 -1.83108 -0.696302 0
M  V30 14601 H 1390.31 -0.462223 0.586821 0
M  V30 14602 H 1392.97 -0.570713 1.86357 0
M  V30 14603 H 1392.07 -2.00386 2.39274 0
M  V30 14604 N 1392.37 -1.38898 -0.744656 0
M  V30 14605 C 1393.62 -1.35327 -1.50104 0
M  V30 14606 C 1393.94 0.0532788 -1.94927 0
M  V30 14607 O 1393.21 1.0027 -1.68294 0
M  V30 14608 H 1391.79 -0.49797 -0.556808 0
M  V30 14609 H 1394.45 -1.73667 -0.884625 0
M  V30 14610 H 1393.55 -2.00983 -2.38773 0
M  V30 14611 N 1393.85 0.973806 -1.23914 0
M  V30 14612 C 1395.1 1.71027 -1.06923 0
M  V30 14613 C 1395.41 1.91612 0.392947 0
M  V30 14614 O 1396.62 2.62771 0.682927 0
M  V30 14615 C 1395.07 3.07811 -1.86496 0
M  V30 14616 C 1394.68 2.9509 -3.37085 0
M  V30 14617 C 1396.42 3.85371 -1.78015 0
M  V30 14618 C 1394.33 4.27145 -4.09024 0
M  V30 14619 H 1393.26 0.641329 -0.396501 0
M  V30 14620 H 1395.91 1.08562 -1.47941 0
M  V30 14621 H 1394.29 3.71069 -1.38288 0
M  V30 14622 H 1395.47 2.4088 -3.92827 0
M  V30 14623 H 1393.78 2.30999 -3.46451 0
M  V30 14624 H 1396.38 4.83147 -2.2907 0
M  V30 14625 H 1396.72 4.09594 -0.744196 0
M  V30 14626 H 1397.26 3.28827 -2.23869 0
M  V30 14627 H 1394 4.08117 -5.12953 0
M  V30 14628 H 1393.52 4.81194 -3.58068 0
M  V30 14629 H 1395.19 4.95798 -4.15685 0
M  V30 14630 N 1395.33 1.05191 1.17357 0
M  V30 14631 C 1396.27 0.646796 2.23426 0
M  V30 14632 C 1397.27 -0.331918 1.66116 0
M  V30 14633 O 1398.47 -0.197982 1.78908 0
M  V30 14634 H 1394.85 0.190988 0.727343 0
M  V30 14635 H 1396.82 1.55152 2.54893 0
M  V30 14636 C 1395.57 0.037505 3.4768 0
M  V30 14637 H 1394.89 0.781686 3.92084 0
M  V30 14638 H 1396.33 -0.20858 4.23487 0
M  V30 14639 C 1394.79 -1.21581 3.14197 0
M  V30 14640 O 1395.32 -2.3052 3.28973 0
M  V30 14641 N 1393.53 -1.11346 2.68422 0
M  V30 14642 H 1393.07 -0.226943 2.56598 0
M  V30 14643 H 1393.03 -1.95291 2.46392 0
M  V30 14644 N 1396.8 -1.33791 0.83293 0
M  V30 14645 C 1398.05 -1.97973 0.425781 0
M  V30 14646 C 1398.38 -1.66003 -1.01357 0
M  V30 14647 O 1397.63 -0.929016 -1.72243 0
M  V30 14648 C 1397.93 -3.52555 0.586485 0
M  V30 14649 C 1397.6 -4.04461 1.99304 0
M  V30 14650 C 1396.26 -4.18347 2.37779 0
M  V30 14651 C 1398.61 -4.3226 2.91206 0
M  V30 14652 C 1395.94 -4.57364 3.67471 0
M  V30 14653 C 1398.29 -4.72727 4.20371 0
M  V30 14654 C 1396.96 -4.84819 4.5881 0
M  V30 14655 H 1396.23 -0.724435 0.155804 0
M  V30 14656 H 1398.87 -1.59567 1.05881 0
M  V30 14657 H 1397.18 -3.91585 -0.129885 0
M  V30 14658 H 1398.88 -4.00208 0.251835 0
M  V30 14659 H 1395.47 -3.94122 1.68421 0
M  V30 14660 H 1399.65 -4.2106 2.6272 0
M  V30 14661 H 1394.91 -4.64918 3.97065 0
M  V30 14662 H 1399.08 -4.93194 4.91663 0
M  V30 14663 H 1396.71 -5.14809 5.59353 0
M  V30 14664 N 1398.28 -0.588812 -1.46187 0
M  V30 14665 C 1399.53 -0.0851986 -2.03221 0
M  V30 14666 C 1399.88 1.26301 -1.45141 0
M  V30 14667 O 1399.18 1.8165 -0.609427 0
M  V30 14668 C 1399.37 0.0325249 -3.57385 0
M  V30 14669 C 1399.2 -1.30272 -4.30418 0
M  V30 14670 C 1397.97 -1.87848 -4.69085 0
M  V30 14671 C 1400.17 -2.2273 -4.63569 0
M  V30 14672 N 1398.15 -3.15048 -5.26894 0
M  V30 14673 C 1399.52 -3.34519 -5.22012 0
M  V30 14674 C 1401.58 -2.22334 -4.45502 0
M  V30 14675 C 1400.28 -4.46054 -5.64294 0
M  V30 14676 C 1402.3 -3.32904 -4.88804 0
M  V30 14677 C 1401.67 -4.43414 -5.47324 0
M  V30 14678 H 1397.77 -0.0741 -0.778481 0
M  V30 14679 H 1400.35 -0.783049 -1.78259 0
M  V30 14680 H 1398.52 0.699556 -3.82048 0
M  V30 14681 H 1400.25 0.54108 -4.01067 0
M  V30 14682 H 1397.01 -1.4127 -4.5204 0
M  V30 14683 H 1397.43 -3.79969 -5.60315 0
M  V30 14684 H 1402.07 -1.38165 -3.99588 0
M  V30 14685 H 1399.79 -5.30963 -6.09183 0
M  V30 14686 H 1403.38 -3.33723 -4.76571 0
M  V30 14687 H 1402.26 -5.27559 -5.80216 0
M  V30 14688 N 1399.76 1.54172 -0.326923 0
M  V30 14689 C 1401.01 2.00233 0.274098 0
M  V30 14690 C 1401.33 1.21665 1.5239 0
M  V30 14691 O 1400.6 0.319359 1.93279 0
M  V30 14692 H 1399.18 0.739687 0.104271 0
M  V30 14693 H 1401.84 1.8977 -0.444244 0
M  V30 14694 H 1400.94 3.07599 0.528154 0
M  V30 14695 N 1401.24 0.0551678 1.57503 0
M  V30 14696 C 1402.46 -0.630692 1.97578 0
M  V30 14697 C 1402.89 -1.63348 0.932686 0
M  V30 14698 O 1402.25 -1.81004 -0.103632 0
M  V30 14699 C 1402.29 -1.29049 3.36718 0
M  V30 14700 O 1401.4 -2.40621 3.34926 0
M  V30 14701 H 1400.74 -0.163625 0.643524 0
M  V30 14702 H 1403.27 0.124753 2.04219 0
M  V30 14703 H 1403.28 -1.64124 3.73534 0
M  V30 14704 H 1401.95 -0.55559 4.12172 0
M  V30 14705 H 1400.53 -2.07463 3.0986 0
M  V30 14706 N 1402.72 -1.56081 -0.218252 0
M  V30 14707 C 1403.66 -1.93544 -1.2901 0
M  V30 14708 C 1404.66 -0.817886 -1.48348 0
M  V30 14709 O 1405.86 -1.00274 -1.49483 0
M  V30 14710 H 1402.24 -0.61511 -0.432601 0
M  V30 14711 H 1404.21 -2.82975 -0.946966 0
M  V30 14712 C 1402.96 -2.27134 -2.63259 0
M  V30 14713 H 1402.28 -3.12643 -2.49188 0
M  V30 14714 H 1403.72 -2.57228 -3.3706 0
M  V30 14715 C 1402.18 -1.09764 -3.18518 0
M  V30 14716 O 1402.71 -0.360501 -4.00079 0
M  V30 14717 N 1400.92 -0.880589 -2.76937 0
M  V30 14718 H 1400.46 -1.48175 -2.10718 0
M  V30 14719 H 1400.42 -0.0970234 -3.1425 0
M  V30 14720 N 1404.2 0.485086 -1.49949 0
M  V30 14721 C 1405.42 1.26179 -1.63971 0
M  V30 14722 C 1405.84 1.86113 -0.317408 0
M  V30 14723 O 1405.2 1.68581 0.699038 0
M  V30 14724 C 1405.25 2.38062 -2.72046 0
M  V30 14725 O 1404.97 1.80588 -3.99149 0
M  V30 14726 C 1406.47 3.29174 -2.96916 0
M  V30 14727 H 1403.69 0.382122 -0.551565 0
M  V30 14728 H 1406.23 0.580607 -1.96085 0
M  V30 14729 H 1404.39 3.0198 -2.42666 0
M  V30 14730 H 1404.8 2.54159 -4.58807 0
M  V30 14731 H 1406.28 4.03922 -3.76233 0
M  V30 14732 H 1406.75 3.87123 -2.07443 0
M  V30 14733 H 1407.36 2.71006 -3.27774 0
M  V30 14734 N 1405.67 1.39291 0.737279 0
M  V30 14735 C 1406.64 1.37607 1.83294 0
M  V30 14736 C 1407.64 0.273594 1.58455 0
M  V30 14737 O 1408.83 0.531375 1.65898 0
M  V30 14738 C 1405.96 1.14642 3.21045 0
M  V30 14739 H 1407.15 2.35102 1.86191 0
M  V30 14740 H 1404.7 1.24822 0.940696 0
M  V30 14741 H 1405.44 0.178202 3.2381 0
M  V30 14742 H 1405.22 1.94479 3.40471 0
M  V30 14743 H 1406.71 1.162 4.01108 0
M  V30 14744 N 1407.15 -0.967221 1.24429 0
M  V30 14745 C 1408.38 -1.7452 1.11133 0
M  V30 14746 C 1408.79 -1.85785 -0.336087 0
M  V30 14747 O 1408.15 -1.34652 -1.23188 0
M  V30 14748 C 1408.2 -3.16544 1.74591 0
M  V30 14749 O 1407.92 -3.05845 3.13673 0
M  V30 14750 C 1409.42 -4.10677 1.6691 0
M  V30 14751 H 1406.64 -0.547267 0.388253 0
M  V30 14752 H 1409.19 -1.2143 1.64545 0
M  V30 14753 H 1407.34 -3.66618 1.2518 0
M  V30 14754 H 1407.76 -3.95346 3.44676 0
M  V30 14755 H 1409.23 -5.07987 2.15992 0
M  V30 14756 H 1409.71 -4.34652 0.630411 0
M  V30 14757 H 1410.31 -3.66514 2.15749 0
M  V30 14758 N 1408.63 -1.05812 -1.16797 0
M  V30 14759 C 1409.86 -0.792519 -1.9112 0
M  V30 14760 C 1410.27 0.652549 -1.77164 0
M  V30 14761 O 1409.63 1.44633 -1.113 0
M  V30 14762 C 1409.68 -1.17172 -3.41984 0
M  V30 14763 O 1409.4 -2.56008 -3.55516 0
M  V30 14764 C 1410.9 -0.933162 -4.33367 0
M  V30 14765 H 1408.12 -0.28768 -0.606202 0
M  V30 14766 H 1410.67 -1.41046 -1.48075 0
M  V30 14767 H 1408.82 -0.598413 -3.8275 0
M  V30 14768 H 1409.24 -2.71053 -4.49033 0
M  V30 14769 H 1410.71 -1.24817 -5.37703 0
M  V30 14770 H 1411.19 0.131345 -4.39004 0
M  V30 14771 H 1411.79 -1.49062 -3.98322 0
M  V30 14772 N 1410.11 1.33347 -0.840014 0
M  V30 14773 C 1411.02 2.32965 -0.276527 0
M  V30 14774 C 1412.03 1.634 0.598037 0
M  V30 14775 O 1413.21 1.95046 0.501888 0
M  V30 14776 C 1410.27 3.42498 0.53816 0
M  V30 14777 C 1409.34 4.27781 -0.360814 0
M  V30 14778 C 1408.57 5.32083 0.415085 0
M  V30 14779 O 1408.79 5.46115 1.64666 0
M  V30 14780 O 1407.73 6.01528 -0.211503 0
M  V30 14781 H 1411.55 2.83022 -1.10147 0
M  V30 14782 H 1409.14 1.3671 -0.602566 0
M  V30 14783 H 1411.02 4.09336 1.00108 0
M  V30 14784 H 1409.69 2.94655 1.34015 0
M  V30 14785 H 1408.6 3.63805 -0.871598 0
M  V30 14786 H 1409.93 4.7911 -1.1276 0
M  V30 14787 N 1411.59 0.596556 1.45873 0
M  V30 14788 C 1412.82 0.093357 2.06389 0
M  V30 14789 C 1413.22 -1.2229 1.44367 0
M  V30 14790 O 1412.57 -1.75332 0.548131 0
M  V30 14791 C 1412.63 -0.132256 3.59257 0
M  V30 14792 C 1412.29 1.10051 4.43551 0
M  V30 14793 C 1413.29 2.01598 4.79223 0
M  V30 14794 C 1410.97 1.32625 4.84475 0
M  V30 14795 C 1412.97 3.14054 5.54661 0
M  V30 14796 C 1410.66 2.45384 5.5967 0
M  V30 14797 C 1411.65 3.35927 5.94678 0
M  V30 14798 O 1411.34 4.46726 6.6835 0
M  V30 14799 H 1411.07 0.0608944 0.673252 0
M  V30 14800 H 1413.63 0.821009 1.88278 0
M  V30 14801 H 1411.86 -0.914678 3.75727 0
M  V30 14802 H 1413.55 -0.585681 4.01652 0
M  V30 14803 H 1414.31 1.85379 4.48174 0
M  V30 14804 H 1410.19 0.630522 4.56668 0
M  V30 14805 H 1413.74 3.8475 5.81904 0
M  V30 14806 H 1409.63 2.6156 5.90133 0
M  V30 14807 H 1410.4 4.45268 6.86789 0
M  V30 14808 N 1413.06 -1.53996 0.335095 0
M  V30 14809 C 1413.97 -2.28436 -0.534244 0
M  V30 14810 C 1414.99 -1.33224 -1.11926 0
M  V30 14811 O 1416.17 -1.66252 -1.13676 0
M  V30 14812 C 1413.23 -3.03634 -1.67354 0
M  V30 14813 C 1412.29 -4.14455 -1.11916 0
M  V30 14814 C 1411.52 -4.86058 -2.20416 0
M  V30 14815 O 1411.75 -4.57263 -3.40979 0
M  V30 14816 O 1410.68 -5.72704 -1.85185 0
M  V30 14817 H 1414.51 -3.03618 0.0706314 0
M  V30 14818 H 1412.09 -1.49062 0.100409 0
M  V30 14819 H 1413.97 -3.50687 -2.33659 0
M  V30 14820 H 1412.65 -2.31317 -2.26438 0
M  V30 14821 H 1411.56 -3.71725 -0.420871 0
M  V30 14822 H 1412.89 -4.8885 -0.573295 0
M  V30 14823 N 1414.54 -0.0635198 -1.57472 0
M  V30 14824 C 1415.5 0.891881 -2.11135 0
M  V30 14825 C 1416.5 1.23182 -1.03358 0
M  V30 14826 O 1417.69 1.16646 -1.2938 0
M  V30 14827 C 1414.83 2.19792 -2.60584 0
M  V30 14828 H 1416.02 0.426461 -2.96852 0
M  V30 14829 H 1413.57 0.185069 -1.552 0
M  V30 14830 H 1414.31 2.70889 -1.78297 0
M  V30 14831 H 1414.09 1.96419 -3.39355 0
M  V30 14832 H 1415.58 2.88203 -3.02206 0
M  V30 14833 N 1416.02 1.56195 0.209972 0
M  V30 14834 C 1417.43 1.69811 0.775969 0
M  V30 14835 C 1417.78 0.667543 1.84495 0
M  V30 14836 O 1416.91 -0.179043 2.15658 0
M  V30 14837 C 1417.5 3.07869 1.41429 0
M  V30 14838 C 1416.06 3.233 1.92755 0
M  V30 14839 C 1415.21 2.6575 0.791958 0
M  V30 14840 H 1418.16 1.58693 -0.0148727 0
M  V30 14841 H 1418.18 3.04371 2.28339 0
M  V30 14842 H 1417.69 3.82853 0.63604 0
M  V30 14843 H 1415.79 2.53206 2.73345 0
M  V30 14844 H 1415.91 4.30645 2.09956 0
M  V30 14845 H 1414.27 2.24535 1.20234 0
M  V30 14846 H 1415.05 3.4329 0.0261877 0
M  V30 14847 N 1417.5 -0.477127 1.50204 0
M  V30 14848 C 1418.46 -1.55824 1.68082 0
M  V30 14849 C 1419.46 -1.51039 0.551719 0
M  V30 14850 O 1420.65 -1.53766 0.818638 0
M  V30 14851 C 1417.78 -2.95462 1.70044 0
M  V30 14852 H 1418.98 -1.41292 2.64531 0
M  V30 14853 H 1416.53 -0.70308 1.39594 0
M  V30 14854 H 1417.26 -3.15445 0.752663 0
M  V30 14855 H 1417.05 -3.00343 2.52065 0
M  V30 14856 H 1418.54 -3.73964 1.85851 0
M  V30 14857 N 1418.98 -1.3968 -0.729882 0
M  V30 14858 C 1420.23 -1.36492 -1.48502 0
M  V30 14859 C 1420.54 0.0346572 -1.95569 0
M  V30 14860 O 1421.74 0.189135 -2.7084 0
M  V30 14861 C 1420.2 -2.39813 -2.68361 0
M  V30 14862 C 1419.81 -3.85511 -2.28222 0
M  V30 14863 C 1421.55 -2.45709 -3.46161 0
M  V30 14864 C 1419.46 -4.80462 -3.44834 0
M  V30 14865 H 1418.39 -0.507455 -0.557679 0
M  V30 14866 H 1421.04 -1.6535 -0.795708 0
M  V30 14867 H 1419.42 -2.04033 -3.39392 0
M  V30 14868 H 1420.6 -4.30359 -1.64704 0
M  V30 14869 H 1418.91 -3.82957 -1.63501 0
M  V30 14870 H 1421.51 -3.1384 -4.32907 0
M  V30 14871 H 1421.85 -1.48318 -3.88983 0
M  V30 14872 H 1422.38 -2.80409 -2.82163 0
M  V30 14873 H 1419.12 -5.79134 -3.07057 0
M  V30 14874 H 1418.64 -4.40289 -4.07315 0
M  V30 14875 H 1420.32 -4.99607 -4.11098 0
M  V30 14876 N 1420.45 0.960609 -1.2494 0
M  V30 14877 C 1421.73 1.68035 -1.00118 0
M  V30 14878 C 1422.11 2.057 0.474399 0
M  V30 14879 O 1421.46 1.76569 1.45036 0
M  V30 14880 C 1421.67 2.90708 -1.93106 0
M  V30 14881 C 1423.02 3.62792 -2.20606 0
M  V30 14882 O 1424.04 3.00778 -1.90816 0
M  V30 14883 O 1422.9 4.74443 -2.71231 0
M  V30 14884 H 1419.99 0.734939 -0.379202 0
M  V30 14885 H 1422.54 1.01407 -1.36069 0
M  V30 14886 H 1421.31 2.59619 -2.92769 0
M  V30 14887 H 1420.94 3.65068 -1.57515 0
M  V30 14888 N 1421.93 1.0643 1.16234 0
M  V30 14889 C 1423.21 0.695256 1.82827 0
M  V30 14890 C 1423.59 -0.823242 1.94386 0
M  V30 14891 O 1422.94 -1.73406 1.48804 0
M  V30 14892 C 1423.15 1.3988 3.19741 0
M  V30 14893 C 1424.5 1.54489 3.95498 0
M  V30 14894 O 1425.52 1.35882 3.29264 0
M  V30 14895 O 1424.38 1.85027 5.14225 0
M  V30 14896 H 1421.47 0.246285 0.789476 0
M  V30 14897 H 1424.02 1.16466 1.23426 0
M  V30 14898 H 1422.79 2.43419 3.06371 0
M  V30 14899 H 1422.41 0.91957 3.8682 0
M  V30 14900 N 1423.41 -1.329 0.847073 0
M  V30 14901 C 1424.66 -1.9712 0.445872 0
M  V30 14902 C 1424.98 -1.67398 -1.00014 0
M  V30 14903 O 1424.25 -0.977204 -1.69787 0
M  V30 14904 H 1422.83 -0.729247 0.161887 0
M  V30 14905 H 1425.49 -1.62118 1.08184 0
M  V30 14906 H 1424.59 -3.06575 0.584676 0
M  V30 14907 N 1424.89 -0.604284 -1.45555 0
M  V30 14908 C 1425.84 0.116491 -2.30506 0
M  V30 14909 C 1426.81 0.863214 -1.41908 0
M  V30 14910 O 1427.99 0.849606 -1.7084 0
M  V30 14911 C 1425.13 1.11009 -3.26758 0
M  V30 14912 C 1424.24 0.36458 -4.30459 0
M  V30 14913 C 1423.38 1.34761 -5.13822 0
M  V30 14914 C 1422.42 0.589724 -6.09253 0
M  V30 14915 N 1421.55 1.52187 -6.85408 0
M  V30 14916 H 1426.39 -0.61394 -2.91607 0
M  V30 14917 H 1423.93 -0.314561 -1.43697 0
M  V30 14918 H 1425.89 1.69925 -3.81027 0
M  V30 14919 H 1424.52 1.80797 -2.67418 0
M  V30 14920 H 1423.57 -0.340026 -3.78877 0
M  V30 14921 H 1424.88 -0.226906 -4.98284 0
M  V30 14922 H 1424.04 2.00893 -5.72474 0
M  V30 14923 H 1422.78 1.97302 -4.46008 0
M  V30 14924 H 1421.78 -0.0852486 -5.49734 0
M  V30 14925 H 1423.01 -0.0306001 -6.79093 0
M  V30 14926 H 1420.95 2.13499 -6.20286 0
M  V30 14927 H 1420.87 0.983737 -7.49572 0
M  V30 14928 H 1422.14 2.17287 -7.48603 0
M  V30 14929 N 1426.37 1.53816 -0.343257 0
M  V30 14930 C 1427.3 2.27951 0.506005 0
M  V30 14931 C 1428.28 1.29502 1.10287 0
M  V30 14932 O 1429.46 1.58344 1.12432 0
M  V30 14933 C 1426.59 3.0521 1.65723 0
M  V30 14934 C 1425.55 4.11161 1.18871 0
M  V30 14935 C 1424.87 4.76373 2.42843 0
M  V30 14936 C 1426.17 5.21498 0.289403 0
M  V30 14937 H 1427.87 2.99189 -0.112435 0
M  V30 14938 H 1425.41 1.43893 -0.055516 0
M  V30 14939 H 1427.37 3.55811 2.2578 0
M  V30 14940 H 1426.09 2.31624 2.30256 0
M  V30 14941 H 1424.75 3.61473 0.610962 0
M  V30 14942 H 1424.4 3.99381 3.05784 0
M  V30 14943 H 1424.1 5.47955 2.12177 0
M  V30 14944 H 1425.62 5.29758 3.03627 0
M  V30 14945 H 1427.03 5.67736 0.796808 0
M  V30 14946 H 1425.43 6.00054 0.0746366 0
M  V30 14947 H 1426.5 4.80185 -0.674543 0
M  V30 14948 N 1427.84 0.0718701 1.57436 0
M  V30 14949 C 1428.75 -0.910077 2.16229 0
M  V30 14950 C 1429.77 -1.32699 1.12548 0
M  V30 14951 O 1430.95 -1.39967 1.44814 0
M  V30 14952 C 1428.01 -2.15942 2.71238 0
M  V30 14953 C 1427.07 -1.79891 3.89792 0
M  V30 14954 C 1426.31 -2.9887 4.42168 0
M  V30 14955 O 1426.53 -4.1289 3.93545 0
M  V30 14956 O 1425.46 -2.78682 5.33498 0
M  V30 14957 H 1429.29 -0.439969 3.00496 0
M  V30 14958 H 1426.87 -0.151204 1.48633 0
M  V30 14959 H 1428.76 -2.89204 3.06494 0
M  V30 14960 H 1427.43 -2.62051 1.90029 0
M  V30 14961 H 1426.34 -1.03881 3.59388 0
M  V30 14962 H 1427.67 -1.38566 4.72293 0
M  V30 14963 N 1429.32 -1.56304 -0.201686 0
M  V30 14964 C 1430.57 -1.80504 -0.92446 0
M  V30 14965 C 1430.9 -0.644832 -1.83182 0
M  V30 14966 O 1430.18 0.354963 -1.91234 0
M  V30 14967 C 1430.46 -3.14919 -1.74636 0
M  V30 14968 C 1430.31 -4.41421 -0.864169 0
M  V30 14969 C 1431.63 -3.45962 -2.72026 0
M  V30 14970 H 1428.75 -0.656643 -0.334648 0
M  V30 14971 H 1431.39 -1.89025 -0.192188 0
M  V30 14972 H 1429.54 -3.07785 -2.37066 0
M  V30 14973 H 1431.21 -4.60594 -0.255084 0
M  V30 14974 H 1429.46 -4.33465 -0.170548 0
M  V30 14975 H 1430.13 -5.31954 -1.47409 0
M  V30 14976 H 1432.6 -3.53353 -2.1973 0
M  V30 14977 H 1431.48 -4.41146 -3.26622 0
M  V30 14978 H 1431.74 -2.69124 -3.50749 0
M  V30 14979 N 1430.8 0.469154 -1.50455 0
M  V30 14980 C 1432.05 1.2229 -1.6178 0
M  V30 14981 C 1432.38 1.91577 -0.318073 0
M  V30 14982 O 1431.65 1.82205 0.68057 0
M  V30 14983 C 1431.94 2.26504 -2.79943 0
M  V30 14984 C 1431.79 1.61509 -4.19804 0
M  V30 14985 C 1433.11 3.27796 -2.93662 0
M  V30 14986 H 1430.23 0.443241 -0.588817 0
M  V30 14987 H 1432.87 0.516431 -1.82847 0
M  V30 14988 H 1431.02 2.86757 -2.62112 0
M  V30 14989 H 1432.69 1.04838 -4.49229 0
M  V30 14990 H 1430.94 0.918162 -4.23972 0
M  V30 14991 H 1431.61 2.37248 -4.98415 0
M  V30 14992 H 1434.08 2.77568 -3.09992 0
M  V30 14993 H 1432.96 3.98041 -3.77961 0
M  V30 14994 H 1433.22 3.92033 -2.04359 0
M  V30 14995 N 1432.28 1.40065 0.722464 0
M  V30 14996 C 1433.24 1.39544 1.81825 0
M  V30 14997 C 1434.24 0.290385 1.58156 0
M  V30 14998 O 1435.43 0.54894 1.65325 0
M  V30 14999 C 1432.56 1.18041 3.19811 0
M  V30 15000 H 1433.76 2.37063 1.83687 0
M  V30 15001 H 1431.31 1.25813 0.927404 0
M  V30 15002 H 1432.04 0.212536 3.23603 0
M  V30 15003 H 1431.83 1.98079 3.38389 0
M  V30 15004 H 1433.32 1.20447 3.99853 0
M  V30 15005 N 1433.76 -0.95397 1.25448 0
M  V30 15006 C 1435.01 -1.69305 1.09631 0
M  V30 15007 C 1435.32 -1.92213 -0.362413 0
M  V30 15008 O 1436.53 -2.63824 -0.641036 0
M  V30 15009 C 1434.98 -3.04805 1.91369 0
M  V30 15010 C 1434.59 -2.8969 3.41737 0
M  V30 15011 C 1436.33 -3.82491 1.84123 0
M  V30 15012 C 1434.24 -4.20584 4.15768 0
M  V30 15013 H 1433.17 -0.63494 0.406654 0
M  V30 15014 H 1435.82 -1.06195 1.49649 0
M  V30 15015 H 1434.2 -3.68822 1.44174 0
M  V30 15016 H 1435.38 -2.346 3.9661 0
M  V30 15017 H 1433.69 -2.25458 3.50082 0
M  V30 15018 H 1436.29 -4.79442 2.36727 0
M  V30 15019 H 1436.63 -4.08358 0.809265 0
M  V30 15020 H 1437.17 -3.25224 2.29072 0
M  V30 15021 H 1433.9 -3.99905 5.19381 0
M  V30 15022 H 1433.42 -4.75436 3.65678 0
M  V30 15023 H 1435.1 -4.89122 4.2352 0
M  V30 15024 N 1435.24 -1.07045 -1.15668 0
M  V30 15025 C 1436.48 -0.791735 -1.86381 0
M  V30 15026 C 1436.81 0.682084 -1.82148 0
M  V30 15027 O 1436.07 1.51617 -1.23737 0
M  V30 15028 C 1436.36 -1.24127 -3.35153 0
M  V30 15029 C 1436.03 -2.72051 -3.59582 0
M  V30 15030 C 1434.69 -3.12455 -3.65958 0
M  V30 15031 C 1437.04 -3.67547 -3.69538 0
M  V30 15032 C 1434.37 -4.4718 -3.79799 0
M  V30 15033 C 1436.72 -5.02029 -3.84902 0
M  V30 15034 C 1435.39 -5.42059 -3.89523 0
M  V30 15035 H 1434.66 -0.289717 -0.682016 0
M  V30 15036 H 1437.31 -1.34091 -1.36718 0
M  V30 15037 H 1435.61 -0.611428 -3.87 0
M  V30 15038 H 1437.31 -1.00256 -3.88265 0
M  V30 15039 H 1433.9 -2.39771 -3.55257 0
M  V30 15040 H 1438.08 -3.3746 -3.63915 0
M  V30 15041 H 1433.34 -4.77668 -3.81632 0
M  V30 15042 H 1437.51 -5.75902 -3.91548 0
M  V30 15043 H 1435.14 -6.46455 -4 0
M  V30 15044 N 1436.71 1.32449 -0.85411 0
M  V30 15045 C 1437.96 1.96881 -0.45632 0
M  V30 15046 C 1438.28 1.67926 0.991248 0
M  V30 15047 O 1437.55 0.986195 1.69266 0
M  V30 15048 H 1436.13 0.728378 -0.165752 0
M  V30 15049 H 1438.79 1.61542 -1.09042 0
M  V30 15050 H 1437.89 3.0626 -0.600927 0
M  V30 15051 N 1438.19 0.611994 1.45232 0
M  V30 15052 C 1439.42 0.113618 2.07089 0
M  V30 15053 C 1439.84 -1.1947 1.45288 0
M  V30 15054 O 1439.2 -1.72845 0.547207 0
M  V30 15055 C 1439.25 -0.00789978 3.60599 0
M  V30 15056 O 1438.35 -1.05697 3.98625 0
M  V30 15057 H 1437.69 0.076066 0.659629 0
M  V30 15058 H 1440.22 0.843253 1.86415 0
M  V30 15059 H 1440.23 -0.204692 4.07486 0
M  V30 15060 H 1438.91 0.947386 4.04966 0
M  V30 15061 H 1437.48 -0.836291 3.63401 0
M  V30 15062 N 1439.67 -1.53632 0.351409 0
M  V30 15063 C 1440.92 -2.01338 -0.243047 0
M  V30 15064 C 1441.25 -1.23864 -1.4957 0
M  V30 15065 O 1440.52 -0.328412 -1.91707 0
M  V30 15066 C 1440.81 -3.55886 -0.549284 0
M  V30 15067 C 1440.66 -4.44064 0.716016 0
M  V30 15068 C 1441.98 -4.18699 -1.35569 0
M  V30 15069 H 1439.1 -0.731863 -0.0868627 0
M  V30 15070 H 1441.74 -1.84005 0.473501 0
M  V30 15071 H 1439.89 -3.70787 -1.15972 0
M  V30 15072 H 1441.56 -4.40987 1.35383 0
M  V30 15073 H 1439.8 -4.12608 1.3393 0
M  V30 15074 H 1440.48 -5.50106 0.456895 0
M  V30 15075 H 1442.95 -4.07545 -0.839441 0
M  V30 15076 H 1441.83 -5.26892 -1.53871 0
M  V30 15077 H 1442.09 -3.73834 -2.3601 0
M  V30 15078 N 1441.15 -0.0802183 -1.57396 0
M  V30 15079 C 1442.08 0.913777 -2.10197 0
M  V30 15080 C 1443.09 1.25588 -1.03593 0
M  V30 15081 O 1444.28 1.21159 -1.31083 0
M  V30 15082 C 1441.38 2.2272 -2.55439 0
M  V30 15083 C 1440.55 2.06268 -3.8571 0
M  V30 15084 C 1439.61 3.20989 -4.16956 0
M  V30 15085 O 1438.64 2.95608 -4.8642 0
M  V30 15086 N 1439.84 4.46331 -3.71172 0
M  V30 15087 H 1442.61 0.462908 -2.96103 0
M  V30 15088 H 1440.17 0.105287 -1.61557 0
M  V30 15089 H 1442.16 2.98389 -2.73397 0
M  V30 15090 H 1440.73 2.59278 -1.74624 0
M  V30 15091 H 1439.95 1.15016 -3.77048 0
M  V30 15092 H 1441.24 1.92535 -4.70965 0
M  V30 15093 H 1440.64 4.69837 -3.15071 0
M  V30 15094 H 1439.19 5.18999 -3.94314 0
M  V30 15095 N 1442.63 1.56409 0.193394 0
M  V30 15096 C 1443.56 1.89745 1.26776 0
M  V30 15097 C 1444.54 0.75773 1.43865 0
M  V30 15098 O 1445.72 1.0089 1.59228 0
M  V30 15099 C 1442.85 2.12913 2.63412 0
M  V30 15100 C 1441.89 3.35614 2.63183 0
M  V30 15101 S 1442.73 4.90686 2.14448 0
M  V30 15102 C 1443.88 5.16923 3.52904 0
M  V30 15103 H 1444.12 2.80575 0.983105 0
M  V30 15104 H 1441.65 1.4921 0.396965 0
M  V30 15105 H 1443.61 2.26943 3.42063 0
M  V30 15106 H 1442.27 1.2283 2.89088 0
M  V30 15107 H 1441.46 3.48957 3.63655 0
M  V30 15108 H 1441.06 3.20586 1.92615 0
M  V30 15109 H 1443.35 5.07548 4.48778 0
M  V30 15110 H 1444.3 6.18673 3.44455 0
M  V30 15111 H 1444.71 4.44555 3.47895 0
M  V30 15112 N 1444.1 -0.461169 1.50702 0
M  V30 15113 C 1445.07 -1.54032 1.69725 0
M  V30 15114 C 1446.07 -1.50445 0.567707 0
M  V30 15115 O 1447.26 -1.52889 0.834901 0
M  V30 15116 C 1444.39 -2.93642 1.73168 0
M  V30 15117 H 1445.58 -1.38478 2.66015 0
M  V30 15118 H 1443.13 -0.688235 1.40332 0
M  V30 15119 H 1443.87 -3.14629 0.786078 0
M  V30 15120 H 1443.65 -2.97652 2.55236 0
M  V30 15121 H 1445.14 -3.71972 1.89807 0
M  V30 15122 N 1445.58 -1.40446 -0.715026 0
M  V30 15123 C 1446.51 -1.35159 -1.83868 0
M  V30 15124 C 1447.49 -0.221884 -1.61079 0
M  V30 15125 O 1448.68 -0.405635 -1.84084 0
M  V30 15126 C 1445.8 -1.10358 -3.20217 0
M  V30 15127 C 1444.85 -2.25787 -3.61832 0
M  V30 15128 S 1445.68 -3.88183 -3.68882 0
M  V30 15129 C 1446.84 -3.65647 -5.07989 0
M  V30 15130 H 1447.07 -2.30252 -1.88073 0
M  V30 15131 H 1444.6 -1.26738 -0.881859 0
M  V30 15132 H 1446.56 -0.967343 -3.9894 0
M  V30 15133 H 1445.22 -0.169178 -3.13644 0
M  V30 15134 H 1444.42 -2.04078 -4.60834 0
M  V30 15135 H 1444.02 -2.35717 -2.90368 0
M  V30 15136 H 1446.31 -3.24149 -5.94923 0
M  V30 15137 H 1447.25 -4.64182 -5.34734 0
M  V30 15138 H 1447.66 -2.99322 -4.78609 0
M  V30 15139 N 1447.06 0.947303 -1.25952 0
M  V30 15140 C 1448.28 1.73261 -1.13997 0
M  V30 15141 C 1448.71 1.85666 0.301639 0
M  V30 15142 O 1448.07 1.34244 1.21854 0
M  V30 15143 C 1448.12 3.12046 -1.8072 0
M  V30 15144 O 1447.22 3.97684 -1.09182 0
M  V30 15145 H 1446.56 0.53182 -0.397572 0
M  V30 15146 H 1449.09 1.18689 -1.66656 0
M  V30 15147 H 1449.1 3.62468 -1.87299 0
M  V30 15148 H 1447.78 3.02334 -2.856 0
M  V30 15149 H 1446.35 3.56141 -1.10536 0
M  V30 15150 N 1448.54 1.07657 1.15099 0
M  V30 15151 C 1449.95 0.802696 1.37945 0
M  V30 15152 C 1450.15 -0.591622 1.92619 0
M  V30 15153 O 1449.21 -1.34979 2.13394 0
M  V30 15154 C 1450.52 1.87907 2.34759 0
M  V30 15155 C 1452.07 1.90418 2.48415 0
M  V30 15156 C 1452.55 2.97148 3.48521 0
M  V30 15157 N 1454.04 2.96271 3.56059 0
M  V30 15158 C 1454.77 3.75498 4.33346 0
M  V30 15159 N 1454.27 4.64583 5.1394 0
M  V30 15160 N 1456.06 3.63831 4.28466 0
M  V30 15161 H 1448.21 1.97578 0.779537 0
M  V30 15162 H 1450.48 0.856978 0.405331 0
M  V30 15163 H 1450.18 2.8811 2.01707 0
M  V30 15164 H 1450.06 1.74183 3.34575 0
M  V30 15165 H 1452.44 0.908655 2.80762 0
M  V30 15166 H 1452.52 2.0822 1.48586 0
M  V30 15167 H 1452.17 3.96903 3.16908 0
M  V30 15168 H 1452.1 2.76593 4.48112 0
M  V30 15169 H 1454.59 2.31697 2.98538 0
M  V30 15170 H 1454.9 5.2166 5.70167 0
M  V30 15171 H 1453.25 4.6863 5.13236 0
M  V30 15172 H 1456.44 2.93609 3.6457 0
M  V30 15173 H 1456.61 4.25818 4.8845 0
M  V30 15174 N 1450.02 -1.31994 0.861122 0
M  V30 15175 C 1451.27 -1.96294 0.463868 0
M  V30 15176 C 1451.58 -1.68869 -0.98704 0
M  V30 15177 O 1452.78 -2.26959 -1.49003 0
M  V30 15178 C 1451.24 -3.51377 0.77858 0
M  V30 15179 C 1450.85 -3.87653 2.24565 0
M  V30 15180 C 1452.59 -4.22115 0.449365 0
M  V30 15181 C 1450.5 -5.35809 2.50324 0
M  V30 15182 H 1449.43 -0.734647 0.169733 0
M  V30 15183 H 1452.08 -1.50294 1.0528 0
M  V30 15184 H 1450.46 -3.95821 0.119005 0
M  V30 15185 H 1451.64 -3.54197 2.94755 0
M  V30 15186 H 1449.95 -3.29957 2.54003 0
M  V30 15187 H 1452.55 -5.31103 0.61916 0
M  V30 15188 H 1452.89 -4.11814 -0.609528 0
M  V30 15189 H 1453.42 -3.83276 1.06511 0
M  V30 15190 H 1450.16 -5.51138 3.54863 0
M  V30 15191 H 1449.68 -5.70648 1.84719 0
M  V30 15192 H 1451.36 -6.02968 2.34602 0
M  V30 15193 N 1451.49 -0.619688 -1.44906 0
M  V30 15194 C 1452.74 -0.117147 -2.0136 0
M  V30 15195 C 1453.06 1.2644 -1.49239 0
M  V30 15196 O 1454.26 1.86034 -1.97747 0
M  V30 15197 C 1452.72 -0.15871 -3.5955 0
M  V30 15198 C 1452.33 -1.54086 -4.20668 0
M  V30 15199 C 1454.07 0.287961 -4.23522 0
M  V30 15200 C 1451.98 -1.53816 -5.71047 0
M  V30 15201 H 1450.91 -0.040028 -0.752937 0
M  V30 15202 H 1453.56 -0.776802 -1.66247 0
M  V30 15203 H 1451.94 0.56783 -3.91908 0
M  V30 15204 H 1453.11 -2.29007 -3.99865 0
M  V30 15205 H 1451.43 -1.93065 -3.68938 0
M  V30 15206 H 1454.03 0.309351 -5.33804 0
M  V30 15207 H 1454.37 1.31305 -3.9505 0
M  V30 15208 H 1454.9 -0.385707 -3.95926 0
M  V30 15209 H 1451.64 -2.54124 -6.04236 0
M  V30 15210 H 1451.16 -0.831708 -5.94006 0
M  V30 15211 H 1452.84 -1.26708 -6.34472 0
M  V30 15212 N 1452.97 1.53444 -0.359552 0
M  V30 15213 C 1453.92 2.27053 0.504949 0
M  V30 15214 C 1454.91 1.29801 1.08849 0
M  V30 15215 O 1456.12 1.47451 1.03239 0
M  V30 15216 H 1452.5 0.729756 0.181549 0
M  V30 15217 H 1454.47 2.98082 -0.137719 0
M  V30 15218 C 1453.22 3.06815 1.63585 0
M  V30 15219 H 1452.54 3.81488 1.19611 0
M  V30 15220 H 1453.98 3.61508 2.21558 0
M  V30 15221 C 1452.44 2.17286 2.57466 0
M  V30 15222 O 1452.97 1.77961 3.60129 0
M  V30 15223 N 1451.17 1.82041 2.26516 0
M  V30 15224 H 1450.72 2.14218 1.43068 0
M  V30 15225 H 1450.68 1.22423 2.89586 0
M  V30 15226 N 1454.45 0.0885642 1.57351 0
M  V30 15227 C 1455.38 -0.869946 2.16689 0
M  V30 15228 C 1456.36 -1.29878 1.09844 0
M  V30 15229 O 1457.55 -1.36684 1.37954 0
M  V30 15230 C 1454.68 -2.13148 2.74199 0
M  V30 15231 C 1453.63 -1.84149 3.86359 0
M  V30 15232 C 1452.96 -3.17075 4.30543 0
M  V30 15233 C 1454.26 -1.13357 5.09851 0
M  V30 15234 H 1455.95 -0.375578 2.97035 0
M  V30 15235 H 1453.5 -0.17921 1.42881 0
M  V30 15236 H 1455.45 -2.80634 3.14361 0
M  V30 15237 H 1454.17 -2.64856 1.91098 0
M  V30 15238 H 1452.83 -1.19063 3.46727 0
M  V30 15239 H 1452.48 -3.66658 3.44342 0
M  V30 15240 H 1452.18 -2.98457 5.06159 0
M  V30 15241 H 1453.7 -3.85731 4.73333 0
M  V30 15242 H 1455.12 -1.70941 5.47222 0
M  V30 15243 H 1453.52 -1.0494 5.90853 0
M  V30 15244 H 1454.59 -0.115273 4.84763 0
M  V30 15245 N 1455.93 -1.56509 -0.185096 0
M  V30 15246 C 1456.88 -1.91742 -1.23366 0
M  V30 15247 C 1457.86 -0.784182 -1.40497 0
M  V30 15248 O 1459.05 -1.04718 -1.42699 0
M  V30 15249 C 1456.18 -2.26903 -2.57624 0
M  V30 15250 C 1455.27 -3.46707 -2.44244 0
M  V30 15251 N 1455.66 -4.64338 -2.00558 0
M  V30 15252 C 1453.96 -3.51042 -2.7511 0
M  V30 15253 C 1454.66 -5.46489 -1.9931 0
M  V30 15254 N 1453.64 -4.87162 -2.41193 0
M  V30 15255 H 1457.44 -2.80184 -0.887378 0
M  V30 15256 H 1454.95 -1.57561 -0.393468 0
M  V30 15257 H 1456.95 -2.50332 -3.33376 0
M  V30 15258 H 1455.61 -1.39792 -2.93067 0
M  V30 15259 H 1456.62 -4.88817 -1.7111 0
M  V30 15260 H 1453.3 -2.74375 -3.14682 0
M  V30 15261 H 1454.69 -6.50726 -1.67349 0
M  V30 15262 N 1457.41 0.45317 -1.50944 0
M  V30 15263 C 1458.36 1.54689 -1.67498 0
M  V30 15264 C 1459.34 1.51949 -0.529193 0
M  V30 15265 O 1460.53 1.58669 -0.784415 0
M  V30 15266 C 1457.66 2.93006 -1.78892 0
M  V30 15267 C 1456.75 3.00562 -2.99204 0
M  V30 15268 N 1457.14 2.77893 -4.22621 0
M  V30 15269 C 1455.44 3.31712 -2.98132 0
M  V30 15270 C 1456.14 2.90882 -5.03749 0
M  V30 15271 N 1455.11 3.21866 -4.38068 0
M  V30 15272 H 1458.92 1.35889 -2.60598 0
M  V30 15273 H 1456.43 0.660219 -1.48374 0
M  V30 15274 H 1458.43 3.71669 -1.88858 0
M  V30 15275 H 1457.09 3.12838 -0.869626 0
M  V30 15276 H 1458.1 2.53126 -4.51827 0
M  V30 15277 H 1454.77 3.57419 -2.15773 0
M  V30 15278 H 1456.16 2.77444 -6.11943 0
M  V30 15279 N 1458.88 1.40823 0.707568 0
M  V30 15280 C 1459.83 1.38198 1.81343 0
M  V30 15281 C 1460.82 0.258234 1.58814 0
M  V30 15282 O 1462.01 0.497972 1.69851 0
M  V30 15283 C 1459.14 1.25483 3.19545 0
M  V30 15284 C 1458.23 2.42672 3.47809 0
M  V30 15285 N 1458.62 3.6815 3.46842 0
M  V30 15286 C 1456.91 2.36225 3.78304 0
M  V30 15287 C 1457.62 4.45805 3.73675 0
M  V30 15288 N 1456.59 3.75753 3.92824 0
M  V30 15289 H 1460.39 2.33147 1.7894 0
M  V30 15290 H 1457.91 1.34709 0.907044 0
M  V30 15291 H 1459.9 1.21684 3.98746 0
M  V30 15292 H 1458.56 0.315081 3.23168 0
M  V30 15293 H 1459.58 4.01201 3.27503 0
M  V30 15294 H 1456.25 1.50659 3.89369 0
M  V30 15295 H 1457.64 5.54692 3.79165 0
M  V30 15296 N 1460.36 -0.94061 1.26453 0
M  V30 15297 C 1461.78 -1.21424 1.03578 0
M  V30 15298 C 1461.98 -2.00081 -0.238726 0
M  V30 15299 O 1461.03 -2.3404 -0.947709 0
M  V30 15300 C 1462.35 -1.97496 2.26751 0
M  V30 15301 C 1463.9 -2.10485 2.31657 0
M  V30 15302 C 1464.37 -2.89959 3.54525 0
M  V30 15303 N 1465.86 -2.97533 3.55005 0
M  V30 15304 C 1466.6 -3.59456 4.46742 0
M  V30 15305 N 1466.09 -4.22876 5.48769 0
M  V30 15306 N 1467.89 -3.56734 4.34393 0
M  V30 15307 H 1460.04 -0.414788 2.08311 0
M  V30 15308 H 1462.3 -0.246047 0.915513 0
M  V30 15309 H 1462.01 -1.47109 3.19456 0
M  V30 15310 H 1461.88 -2.98159 2.31043 0
M  V30 15311 H 1464.27 -2.60064 1.39466 0
M  V30 15312 H 1464.35 -1.09082 2.31376 0
M  V30 15313 H 1463.99 -2.41067 4.47045 0
M  V30 15314 H 1463.92 -3.91619 3.52054 0
M  V30 15315 H 1466.41 -2.52446 2.81211 0
M  V30 15316 H 1466.73 -4.68026 6.14956 0
M  V30 15317 H 1465.07 -4.21461 5.52626 0
M  V30 15318 H 1468.26 -3.06381 3.53904 0
M  V30 15319 H 1468.43 -4.04706 5.0608 0
M  V30 15320 N 1461.84 -1.08266 -1.14527 0
M  V30 15321 C 1463.09 -0.806405 -1.84878 0
M  V30 15322 C 1463.4 0.670151 -1.83762 0
M  V30 15323 O 1464.61 1.06151 -2.49888 0
M  V30 15324 C 1463.06 -1.39257 -3.31867 0
M  V30 15325 C 1462.67 -2.90081 -3.41404 0
M  V30 15326 C 1464.42 -1.19475 -4.0734 0
M  V30 15327 C 1462.32 -3.41842 -4.82595 0
M  V30 15328 H 1461.25 -0.297993 -0.692615 0
M  V30 15329 H 1463.9 -1.30389 -1.29116 0
M  V30 15330 H 1462.29 -0.822802 -3.87358 0
M  V30 15331 H 1463.46 -3.53182 -2.95971 0
M  V30 15332 H 1461.78 -3.08761 -2.79385 0
M  V30 15333 H 1464.37 -1.55614 -5.11555 0
M  V30 15334 H 1464.72 -0.134455 -4.16083 0
M  V30 15335 H 1465.25 -1.73138 -3.58145 0
M  V30 15336 H 1461.99 -4.47439 -4.79039 0
M  V30 15337 H 1461.51 -2.835 -5.28572 0
M  V30 15338 H 1463.19 -3.38346 -5.51481 0
M  V30 15339 N 1463.32 1.31536 -0.86811 0
M  V30 15340 C 1464.28 2.26849 -0.327456 0
M  V30 15341 C 1465.28 1.52142 0.520514 0
M  V30 15342 O 1466.47 1.71044 0.330088 0
M  V30 15343 C 1463.6 3.36673 0.535174 0
M  V30 15344 H 1464.8 2.76184 -1.16886 0
M  V30 15345 H 1462.35 1.42437 -0.643545 0
M  V30 15346 H 1463.09 2.92627 1.39785 0
M  V30 15347 H 1462.87 3.92034 -0.0719835 0
M  V30 15348 H 1464.36 4.07658 0.905786 0
M  V30 15349 N 1464.8 0.627364 1.44575 0
M  V30 15350 C 1465.73 -0.118179 2.28895 0
M  V30 15351 C 1466.74 -0.812569 1.41071 0
M  V30 15352 O 1467.93 -0.674646 1.6526 0
M  V30 15353 C 1465.03 -1.18937 3.17344 0
M  V30 15354 C 1464.2 -0.578226 4.33561 0
M  V30 15355 C 1463.26 -1.54288 5.03072 0
M  V30 15356 O 1462.29 -1.06148 5.59215 0
M  V30 15357 N 1463.49 -2.87725 5.04177 0
M  V30 15358 H 1466.26 0.605442 2.93521 0
M  V30 15359 H 1463.82 0.468253 1.54981 0
M  V30 15360 H 1465.81 -1.83494 3.60711 0
M  V30 15361 H 1464.38 -1.81526 2.54494 0
M  V30 15362 H 1463.6 0.245883 3.93432 0
M  V30 15363 H 1464.89 -0.150502 5.08577 0
M  V30 15364 H 1464.29 -3.29421 4.5989 0
M  V30 15365 H 1462.84 -3.47653 5.51344 0
M  V30 15366 N 1466.28 -1.53251 0.367684 0
M  V30 15367 C 1467.52 -2.03197 -0.221396 0
M  V30 15368 C 1467.88 -1.249 -1.45822 0
M  V30 15369 O 1469.08 -1.64863 -2.12306 0
M  V30 15370 C 1467.35 -3.53827 -0.504134 0
M  V30 15371 S 1468.91 -4.2564 -1.06658 0
M  V30 15372 H 1465.73 -0.708089 -0.0642774 0
M  V30 15373 H 1468.33 -1.88703 0.511037 0
M  V30 15374 H 1467.03 -4.08412 0.403477 0
M  V30 15375 H 1466.57 -3.72487 -1.26558 0
M  V30 15376 H 1468.58 -4.36987 -2.35068 0
M  V30 15377 N 1467.75 -0.0969077 -1.57302 0
M  V30 15378 C 1468.7 0.872039 -2.10664 0
M  V30 15379 C 1469.69 1.24265 -1.02211 0
M  V30 15380 O 1470.88 1.21743 -1.28482 0
M  V30 15381 C 1468.01 2.13042 -2.69199 0
M  V30 15382 C 1467.09 1.78517 -3.84698 0
M  V30 15383 N 1467.49 1.14558 -4.92656 0
M  V30 15384 C 1465.78 2.08115 -3.94467 0
M  V30 15385 C 1466.48 0.986837 -5.73268 0
M  V30 15386 N 1465.46 1.50473 -5.22359 0
M  V30 15387 H 1469.26 0.373625 -2.91515 0
M  V30 15388 H 1466.78 0.10625 -1.62052 0
M  V30 15389 H 1468.77 2.83403 -3.05759 0
M  V30 15390 H 1467.43 2.63448 -1.89803 0
M  V30 15391 H 1468.44 0.812179 -5.11492 0
M  V30 15392 H 1465.12 2.60722 -3.26083 0
M  V30 15393 H 1466.51 0.48651 -6.70136 0
M  V30 15394 N 1469.23 1.56605 0.176793 0
M  V30 15395 C 1470.14 1.99211 1.23903 0
M  V30 15396 C 1471.16 0.902614 1.48758 0
M  V30 15397 O 1472.33 1.20982 1.61014 0
M  V30 15398 C 1469.4 2.33873 2.55938 0
M  V30 15399 C 1468.46 3.56624 2.38994 0
M  V30 15400 C 1467.69 3.89623 3.64733 0
M  V30 15401 O 1467.92 3.23662 4.6968 0
M  V30 15402 O 1466.85 4.82992 3.5917 0
M  V30 15403 H 1470.68 2.89827 0.907398 0
M  V30 15404 H 1468.26 1.44401 0.383234 0
M  V30 15405 H 1470.14 2.57161 3.33836 0
M  V30 15406 H 1468.82 1.46421 2.88691 0
M  V30 15407 H 1467.72 3.38561 1.59146 0
M  V30 15408 H 1469.06 4.446 2.11167 0
M  V30 15409 N 1470.71 -0.445159 1.51182 0
M  V30 15410 C 1471.96 -1.19701 1.63705 0
M  V30 15411 C 1472.29 -1.91047 0.348511 0
M  V30 15412 O 1471.56 -1.83264 -0.651497 0
M  V30 15413 C 1471.85 -2.22021 2.83511 0
M  V30 15414 C 1471.7 -1.54809 4.2232 0
M  V30 15415 C 1473.02 -3.23083 2.9884 0
M  V30 15416 H 1470.14 -0.433818 0.595795 0
M  V30 15417 H 1472.78 -0.487276 1.83645 0
M  V30 15418 H 1470.93 -2.82551 2.66641 0
M  V30 15419 H 1472.6 -0.976774 4.5084 0
M  V30 15420 H 1470.84 -0.850596 4.25379 0
M  V30 15421 H 1471.52 -2.29289 5.02126 0
M  V30 15422 H 1473.99 -2.72601 3.14369 0
M  V30 15423 H 1472.87 -3.91978 3.84246 0
M  V30 15424 H 1473.13 -3.88732 2.1057 0
M  V30 15425 N 1472.19 -1.41197 -0.700089 0
M  V30 15426 C 1473.12 -1.37101 -1.82424 0
M  V30 15427 C 1474.1 -0.238956 -1.60835 0
M  V30 15428 O 1475.28 -0.425136 -1.83643 0
M  V30 15429 C 1472.41 -1.13748 -3.19028 0
M  V30 15430 C 1471.46 -2.29612 -3.59417 0
M  V30 15431 S 1472.29 -3.92074 -3.64744 0
M  V30 15432 C 1473.44 -3.71015 -5.04082 0
M  V30 15433 H 1473.68 -2.32234 -1.8562 0
M  V30 15434 H 1471.21 -1.27667 -0.868367 0
M  V30 15435 H 1473.17 -1.0096 -3.97891 0
M  V30 15436 H 1471.83 -0.202435 -3.13447 0
M  V30 15437 H 1471.02 -2.08954 -4.58644 0
M  V30 15438 H 1470.62 -2.38783 -2.87851 0
M  V30 15439 H 1472.92 -3.30441 -5.91452 0
M  V30 15440 H 1473.86 -4.69828 -5.29781 0
M  V30 15441 H 1474.27 -3.04382 -4.75407 0
M  V30 15442 N 1473.67 0.933891 -1.2695 0
M  V30 15443 C 1474.91 1.67539 -1.1231 0
M  V30 15444 C 1475.23 1.92765 0.331788 0
M  V30 15445 O 1476.43 2.6481 0.598983 0
M  V30 15446 C 1474.89 3.01722 -1.96194 0
M  V30 15447 C 1474.5 2.84216 -3.46302 0
M  V30 15448 C 1476.24 3.79513 -1.90185 0
M  V30 15449 C 1474.15 4.13916 -4.22407 0
M  V30 15450 H 1473.08 0.62839 -0.416704 0
M  V30 15451 H 1475.73 1.03801 -1.5132 0
M  V30 15452 H 1474.11 3.66482 -1.50023 0
M  V30 15453 H 1475.29 2.28261 -4.00292 0
M  V30 15454 H 1473.6 2.1986 -3.53625 0
M  V30 15455 H 1476.2 4.75615 -2.44325 0
M  V30 15456 H 1476.54 4.07019 -0.874129 0
M  V30 15457 H 1477.07 3.21539 -2.34217 0
M  V30 15458 H 1473.81 3.91591 -5.25677 0
M  V30 15459 H 1473.33 4.69558 -3.73196 0
M  V30 15460 H 1475.01 4.82322 -4.31248 0
M  V30 15461 N 1475.14 1.08871 1.13951 0
M  V30 15462 C 1476.37 0.842913 1.88951 0
M  V30 15463 C 1476.79 -0.605348 1.78832 0
M  V30 15464 O 1476.14 -1.41631 1.15095 0
M  V30 15465 C 1476.19 1.26198 3.38757 0
M  V30 15466 O 1475.92 2.65344 3.48603 0
M  V30 15467 C 1477.42 1.04773 4.30741 0
M  V30 15468 H 1474.64 0.303651 0.598362 0
M  V30 15469 H 1477.18 1.44922 1.44284 0
M  V30 15470 H 1475.34 0.699682 3.81029 0
M  V30 15471 H 1475.75 2.82863 4.41688 0
M  V30 15472 H 1477.22 1.39029 5.34205 0
M  V30 15473 H 1477.7 -0.0149046 4.39197 0
M  V30 15474 H 1478.31 1.5957 3.9423 0
M  V30 15475 N 1476.62 -1.31073 0.875073 0
M  V30 15476 C 1477.87 -1.95791 0.484661 0
M  V30 15477 C 1478.18 -1.69907 -0.969074 0
M  V30 15478 O 1479.39 -2.28527 -1.46587 0
M  V30 15479 C 1477.85 -3.50532 0.815804 0
M  V30 15480 C 1477.45 -3.85249 2.28664 0
M  V30 15481 C 1479.2 -4.21615 0.494111 0
M  V30 15482 C 1477.1 -5.33124 2.55993 0
M  V30 15483 H 1476.03 -0.732806 0.177516 0
M  V30 15484 H 1478.69 -1.49169 1.06868 0
M  V30 15485 H 1477.07 -3.95673 0.16098 0
M  V30 15486 H 1478.24 -3.51051 2.98496 0
M  V30 15487 H 1476.56 -3.27244 2.57488 0
M  V30 15488 H 1479.15 -5.30417 0.675456 0
M  V30 15489 H 1479.5 -4.12437 -0.565815 0
M  V30 15490 H 1480.03 -3.82125 1.1057 0
M  V30 15491 H 1476.77 -5.47343 3.60688 0
M  V30 15492 H 1476.29 -5.68657 1.90761 0
M  V30 15493 H 1477.97 -6.00446 2.40984 0
M  V30 15494 N 1478.1 -0.635022 -1.4424 0
M  V30 15495 C 1479.38 -0.0718064 -1.95468 0
M  V30 15496 C 1479.76 1.40348 -1.57689 0
M  V30 15497 O 1479.11 2.11986 -0.852888 0
M  V30 15498 C 1479.32 -0.298793 -3.47719 0
M  V30 15499 C 1480.66 -0.194056 -4.24156 0
M  V30 15500 O 1481.69 -0.230368 -3.55454 0
M  V30 15501 O 1480.55 -0.102294 -5.46404 0
M  V30 15502 H 1477.64 0.0200784 -0.826756 0
M  V30 15503 H 1480.19 -0.706996 -1.54271 0
M  V30 15504 H 1478.96 -1.32233 -3.6828 0
M  V30 15505 H 1478.58 0.370347 -3.95871 0
M  V30 15506 N 1479.58 1.53054 -0.375806 0
M  V30 15507 C 1480.83 2.01003 0.210257 0
M  V30 15508 C 1481.15 1.26451 1.48442 0
M  V30 15509 O 1480.42 0.380687 1.92166 0
M  V30 15510 H 1479 0.74263 0.0806861 0
M  V30 15511 H 1481.66 1.8826 -0.504393 0
M  V30 15512 H 1480.76 3.09123 0.430027 0
M  V30 15513 N 1481.06 0.105248 1.57248 0
M  V30 15514 C 1481.97 -0.864007 2.1811 0
M  V30 15515 C 1482.98 -1.30282 1.15337 0
M  V30 15516 O 1484.16 -1.36864 1.4775 0
M  V30 15517 C 1481.22 -2.1014 2.75757 0
M  V30 15518 C 1480.28 -1.71583 3.9352 0
M  V30 15519 C 1479.52 -2.89424 4.48408 0
M  V30 15520 O 1479.74 -4.04449 4.02215 0
M  V30 15521 O 1478.67 -2.67303 5.39289 0
M  V30 15522 H 1482.5 -0.376131 3.01362 0
M  V30 15523 H 1480.09 -0.119643 1.4892 0
M  V30 15524 H 1481.97 -2.82638 3.1256 0
M  V30 15525 H 1480.64 -2.57961 1.95545 0
M  V30 15526 H 1479.55 -0.962347 3.6151 0
M  V30 15527 H 1480.88 -1.28517 4.75126 0
M  V30 15528 N 1482.53 -1.56697 -0.168486 0
M  V30 15529 C 1483.44 -1.99866 -1.22845 0
M  V30 15530 C 1484.46 -0.910491 -1.48277 0
M  V30 15531 O 1485.64 -1.21834 -1.6037 0
M  V30 15532 C 1482.7 -2.35227 -2.54694 0
M  V30 15533 C 1481.76 -3.57886 -2.37099 0
M  V30 15534 C 1481 -3.91551 -3.62661 0
M  V30 15535 O 1481.22 -3.26148 -4.67957 0
M  V30 15536 O 1480.15 -4.8489 -3.56603 0
M  V30 15537 H 1483.98 -2.90305 -0.892015 0
M  V30 15538 H 1481.56 -1.44602 -0.375571 0
M  V30 15539 H 1483.45 -2.58928 -3.32467 0
M  V30 15540 H 1482.12 -1.4795 -2.87911 0
M  V30 15541 H 1481.03 -3.394 -1.57348 0
M  V30 15542 H 1482.36 -4.45714 -2.08806 0
M  V30 15543 N 1484.01 0.437135 -1.51416 0
M  V30 15544 C 1485.26 1.18421 -1.63771 0
M  V30 15545 C 1485.58 1.91718 -0.356282 0
M  V30 15546 O 1484.85 1.85566 0.627863 0
M  V30 15547 H 1483.43 0.440125 -0.603572 0
M  V30 15548 H 1486.09 0.501155 -1.88347 0
M  V30 15549 H 1485.19 1.91367 -2.46546 0
M  V30 15550 N 1485.49 1.41566 0.692592 0
M  V30 15551 C 1486.74 1.40381 1.44831 0
M  V30 15552 C 1487.05 0.0172068 1.95592 0
M  V30 15553 O 1488.26 -0.11726 2.71247 0
M  V30 15554 C 1486.71 2.46844 2.61908 0
M  V30 15555 C 1486.32 3.91426 2.17921 0
M  V30 15556 C 1488.07 2.548 3.39525 0
M  V30 15557 C 1485.97 4.89436 3.31974 0
M  V30 15558 H 1484.9 0.522062 0.544028 0
M  V30 15559 H 1487.55 1.67402 0.751589 0
M  V30 15560 H 1485.94 2.12959 3.33863 0
M  V30 15561 H 1487.11 4.34575 1.53236 0
M  V30 15562 H 1485.43 3.87158 1.5329 0
M  V30 15563 H 1488.02 3.25207 4.24434 0
M  V30 15564 H 1488.37 1.58579 3.84913 0
M  V30 15565 H 1488.9 2.87791 2.74629 0
M  V30 15566 H 1485.64 5.87071 2.91595 0
M  V30 15567 H 1485.16 4.50933 3.95499 0
M  V30 15568 H 1486.84 5.10331 3.97708 0
M  V30 15569 N 1486.97 -0.927146 1.27443 0
M  V30 15570 C 1488.38 -1.48984 1.1252 0
M  V30 15571 C 1488.73 -1.94051 -0.289602 0
M  V30 15572 O 1487.86 -1.8123 -1.18257 0
M  V30 15573 C 1488.45 -2.70765 2.03646 0
M  V30 15574 C 1487.01 -3.23256 1.92827 0
M  V30 15575 C 1486.16 -1.95991 1.9617 0
M  V30 15576 H 1489.11 -0.741196 1.40328 0
M  V30 15577 H 1489.13 -3.45567 1.5926 0
M  V30 15578 H 1488.64 -2.37933 3.0661 0
M  V30 15579 H 1486.74 -3.60845 0.928516 0
M  V30 15580 H 1486.85 -3.89413 2.79096 0
M  V30 15581 H 1485.22 -2.12508 1.40402 0
M  V30 15582 H 1486 -1.65473 3.00788 0
M  V30 15583 N 1488.45 -1.09474 -1.13372 0
M  V30 15584 C 1489.69 -0.832323 -1.84933 0
M  V30 15585 C 1490.03 0.640469 -1.83335 0
M  V30 15586 O 1489.3 1.47158 -1.2718 0
M  V30 15587 C 1489.58 -1.36876 -3.33072 0
M  V30 15588 C 1489.44 -2.90769 -3.43181 0
M  V30 15589 C 1490.76 -1.00294 -4.2852 0
M  V30 15590 H 1487.87 -0.30382 -0.671463 0
M  V30 15591 H 1490.52 -1.35622 -1.33066 0
M  V30 15592 H 1488.67 -0.923134 -3.77373 0
M  V30 15593 H 1490.34 -3.43784 -3.07588 0
M  V30 15594 H 1488.58 -3.27876 -2.84042 0
M  V30 15595 H 1489.25 -3.23381 -4.47358 0
M  V30 15596 H 1491.73 -1.38729 -3.92293 0
M  V30 15597 H 1490.6 -1.40533 -5.30605 0
M  V30 15598 H 1490.87 0.0888133 -4.42011 0
M  V30 15599 N 1489.92 1.30607 -0.882012 0
M  V30 15600 C 1490.86 2.27177 -0.303861 0
M  V30 15601 C 1491.87 1.53587 0.539898 0
M  V30 15602 O 1493.06 1.74833 0.359931 0
M  V30 15603 C 1490.16 3.33781 0.586828 0
M  V30 15604 C 1489.33 4.3681 -0.227197 0
M  V30 15605 C 1488.39 5.22842 0.593519 0
M  V30 15606 O 1487.42 5.69197 0.0172694 0
M  V30 15607 N 1488.62 5.48414 1.90321 0
M  V30 15608 H 1491.38 2.77426 -1.13378 0
M  V30 15609 H 1488.94 1.43756 -0.744698 0
M  V30 15610 H 1490.94 3.88257 1.14186 0
M  V30 15611 H 1489.51 2.83483 1.31743 0
M  V30 15612 H 1488.73 3.82239 -0.963674 0
M  V30 15613 H 1490.01 5.02703 -0.785315 0
M  V30 15614 H 1489.41 5.1253 2.39435 0
M  V30 15615 H 1487.97 6.05778 2.40575 0
M  V30 15616 N 1491.4 0.642663 1.43901 0
M  V30 15617 C 1492.65 0.152003 2.0223 0
M  V30 15618 C 1492.98 -1.22711 1.50518 0
M  V30 15619 O 1492.26 -1.817 0.693937 0
M  V30 15620 C 1492.54 0.151278 3.59782 0
M  V30 15621 C 1492.39 1.56356 4.2175 0
M  V30 15622 C 1493.71 -0.518016 4.37041 0
M  V30 15623 H 1490.83 0.0567094 0.734815 0
M  V30 15624 H 1493.47 0.821337 1.7133 0
M  V30 15625 H 1491.62 -0.418679 3.86237 0
M  V30 15626 H 1493.29 2.18329 4.06362 0
M  V30 15627 H 1491.54 2.11401 3.78803 0
M  V30 15628 H 1492.21 1.51499 5.30803 0
M  V30 15629 H 1494.68 -0.0331947 4.16087 0
M  V30 15630 H 1493.56 -0.487754 5.46729 0
M  V30 15631 H 1493.82 -1.59036 4.12504 0
M  V30 15632 N 1492.88 -1.52852 0.383918 0
M  V30 15633 C 1494.16 -1.939 -0.25729 0
M  V30 15634 C 1494.54 -1.31895 -1.64824 0
M  V30 15635 O 1493.89 -0.484987 -2.23294 0
M  V30 15636 C 1494.1 -3.47801 -0.289064 0
M  V30 15637 C 1495.44 -4.21396 -0.520611 0
M  V30 15638 O 1496.47 -3.54278 -0.369502 0
M  V30 15639 O 1495.33 -5.4037 -0.816254 0
M  V30 15640 H 1492.42 -0.811658 -0.158558 0
M  V30 15641 H 1494.97 -1.63949 0.438034 0
M  V30 15642 H 1493.74 -3.8525 0.685441 0
M  V30 15643 H 1493.36 -3.8404 -1.02953 0
M  V30 15644 N 1494.36 -0.113586 -1.5719 0
M  V30 15645 C 1495.61 0.544642 -1.94623 0
M  V30 15646 C 1495.93 1.6756 -0.997428 0
M  V30 15647 O 1495.2 1.95829 -0.0527521 0
M  V30 15648 H 1493.78 0.204186 -0.718552 0
M  V30 15649 H 1496.44 -0.181258 -1.94055 0
M  V30 15650 H 1495.54 0.942765 -2.9752 0
M  V30 15651 N 1495.84 1.56784 0.160173 0
M  V30 15652 C 1496.75 2.00514 1.21783 0
M  V30 15653 C 1497.76 0.918341 1.47792 0
M  V30 15654 O 1498.94 1.22683 1.59721 0
M  V30 15655 C 1496 2.36575 2.53443 0
M  V30 15656 C 1495.07 3.59138 2.35198 0
M  V30 15657 C 1494.3 3.93469 3.6058 0
M  V30 15658 O 1494.52 3.28625 4.6622 0
M  V30 15659 O 1493.46 4.86774 3.54027 0
M  V30 15660 H 1497.28 2.90774 0.876607 0
M  V30 15661 H 1494.87 1.44799 0.367897 0
M  V30 15662 H 1496.75 2.60687 3.31089 0
M  V30 15663 H 1495.42 1.49474 2.87122 0
M  V30 15664 H 1494.33 3.4023 1.55546 0
M  V30 15665 H 1495.66 4.46815 2.0644 0
M  V30 15666 N 1497.32 -0.429099 1.51646 0
M  V30 15667 C 1498.28 -1.50398 1.72954 0
M  V30 15668 C 1499.28 -1.49207 0.599491 0
M  V30 15669 O 1500.47 -1.51084 0.867143 0
M  V30 15670 C 1497.6 -2.89903 1.79358 0
M  V30 15671 H 1498.79 -1.32805 2.68892 0
M  V30 15672 H 1496.35 -0.658313 1.4176 0
M  V30 15673 H 1497.08 -3.12891 0.852639 0
M  V30 15674 H 1496.87 -2.92171 2.61492 0
M  V30 15675 H 1498.36 -3.67862 1.97654 0
M  V30 15676 N 1498.79 -1.41931 -0.685074 0
M  V30 15677 C 1500.04 -1.43062 -1.44585 0
M  V30 15678 C 1500.39 -0.0425175 -1.92353 0
M  V30 15679 O 1499.69 0.933507 -1.67321 0
M  V30 15680 C 1499.88 -2.38099 -2.6654 0
M  V30 15681 C 1499.71 -3.86013 -2.30704 0
M  V30 15682 C 1498.48 -4.54622 -2.20559 0
M  V30 15683 C 1500.68 -4.76711 -1.93005 0
M  V30 15684 N 1498.66 -5.87613 -1.77719 0
M  V30 15685 C 1500.03 -5.9873 -1.61005 0
M  V30 15686 C 1502.09 -4.6426 -1.79907 0
M  V30 15687 C 1500.79 -7.09684 -1.17221 0
M  V30 15688 C 1502.82 -5.75187 -1.37529 0
M  V30 15689 C 1502.18 -6.96311 -1.06445 0
M  V30 15690 H 1498.28 -0.578696 -0.525961 0
M  V30 15691 H 1500.86 -1.77882 -0.791591 0
M  V30 15692 H 1499.03 -2.05358 -3.29671 0
M  V30 15693 H 1500.76 -2.29878 -3.33074 0
M  V30 15694 H 1497.52 -4.08698 -2.39296 0
M  V30 15695 H 1497.94 -6.58124 -1.58751 0
M  V30 15696 H 1502.58 -3.71104 -2.02588 0
M  V30 15697 H 1500.3 -8.02698 -0.932855 0
M  V30 15698 H 1503.89 -5.67561 -1.27929 0
M  V30 15699 H 1502.77 -7.80687 -0.741497 0
M  V30 15700 N 1500.27 0.920374 -1.27933 0
M  V30 15701 C 1501.52 1.66338 -1.14081 0
M  V30 15702 C 1501.83 1.93107 0.311324 0
M  V30 15703 O 1503.04 2.65431 0.570862 0
M  V30 15704 C 1501.5 2.99624 -1.99383 0
M  V30 15705 C 1501.1 2.80527 -3.49297 0
M  V30 15706 C 1502.85 3.77474 -1.94199 0
M  V30 15707 C 1500.75 4.09413 -4.26773 0
M  V30 15708 H 1499.68 0.623935 -0.423346 0
M  V30 15709 H 1502.34 1.0219 -1.52412 0
M  V30 15710 H 1500.72 3.6487 -1.53902 0
M  V30 15711 H 1501.89 2.24002 -4.02691 0
M  V30 15712 H 1500.21 2.16097 -3.55937 0
M  V30 15713 H 1502.8 4.72997 -2.49356 0
M  V30 15714 H 1503.15 4.06069 -0.917249 0
M  V30 15715 H 1503.68 3.19036 -2.37614 0
M  V30 15716 H 1500.42 3.85994 -5.29801 0
M  V30 15717 H 1499.94 4.65574 -3.78155 0
M  V30 15718 H 1501.62 4.77721 -4.36339 0
M  V30 15719 N 1501.75 1.10074 1.1279 0
M  V30 15720 C 1502.68 0.704023 2.1812 0
M  V30 15721 C 1503.69 -0.25742 1.60752 0
M  V30 15722 O 1504.88 -0.0424559 1.7845 0
M  V30 15723 C 1501.98 0.0176666 3.38895 0
M  V30 15724 C 1501.16 1.00234 4.2576 0
M  V30 15725 C 1500.22 0.348158 5.25047 0
M  V30 15726 O 1499.24 0.997821 5.60386 0
M  V30 15727 N 1500.44 -0.894955 5.7356 0
M  V30 15728 H 1503.21 1.61024 2.52767 0
M  V30 15729 H 1500.77 0.989068 1.28176 0
M  V30 15730 H 1502.76 -0.431346 4.02395 0
M  V30 15731 H 1501.33 -0.7909 3.02429 0
M  V30 15732 H 1500.55 1.62972 3.58934 0
M  V30 15733 H 1501.84 1.669 4.80647 0
M  V30 15734 H 1501.24 -1.4422 5.47007 0
M  V30 15735 H 1499.79 -1.28718 6.38964 0
M  V30 15736 N 1503.23 -1.30138 0.888926 0
M  V30 15737 C 1504.64 -1.48552 0.583486 0
M  V30 15738 C 1504.84 -1.81376 -0.877781 0
M  V30 15739 O 1503.9 -1.90374 -1.65873 0
M  V30 15740 C 1505.21 -2.60613 1.50004 0
M  V30 15741 C 1506.76 -2.74493 1.50409 0
M  V30 15742 C 1507.24 -3.89672 2.40666 0
M  V30 15743 N 1508.73 -3.96988 2.38652 0
M  V30 15744 C 1509.46 -4.85429 3.05199 0
M  V30 15745 N 1508.96 -5.78638 3.80985 0
M  V30 15746 N 1510.75 -4.78831 2.9441 0
M  V30 15747 H 1502.9 -1.07105 1.83418 0
M  V30 15748 H 1505.16 -0.530991 0.785336 0
M  V30 15749 H 1504.87 -2.43191 2.54069 0
M  V30 15750 H 1504.74 -3.5718 1.21254 0
M  V30 15751 H 1507.13 -2.91318 0.470933 0
M  V30 15752 H 1507.21 -1.78535 1.83191 0
M  V30 15753 H 1506.86 -3.73603 3.44069 0
M  V30 15754 H 1506.79 -4.84975 2.05198 0
M  V30 15755 H 1509.28 -3.30313 1.83581 0
M  V30 15756 H 1509.59 -6.42894 4.28844 0
M  V30 15757 H 1507.94 -5.78558 3.85092 0
M  V30 15758 H 1511.13 -4.04995 2.34727 0
M  V30 15759 H 1511.3 -5.47547 3.46549 0
M  V30 15760 N 1504.71 -0.650285 -1.43559 0
M  V30 15761 C 1506.12 -0.24263 -1.85117 0
M  V30 15762 C 1506.47 1.21017 -1.54432 0
M  V30 15763 O 1505.59 1.92332 -0.991839 0
M  V30 15764 C 1506.19 -0.433575 -3.36014 0
M  V30 15765 C 1504.75 -0.0802635 -3.76314 0
M  V30 15766 C 1503.89 -0.737844 -2.67303 0
M  V30 15767 H 1506.84 -0.854158 -1.33753 0
M  V30 15768 H 1506.87 0.321801 -3.79137 0
M  V30 15769 H 1506.38 -1.49102 -3.58316 0
M  V30 15770 H 1504.48 0.974703 -3.59625 0
M  V30 15771 H 1504.59 -0.503683 -4.76445 0
M  V30 15772 H 1502.96 -0.171349 -2.54123 0
M  V30 15773 H 1503.74 -1.79826 -2.92434 0
M  V30 15774 N 1506.18 1.52647 -0.392018 0
M  V30 15775 C 1507.43 2.01215 0.188926 0
M  V30 15776 C 1507.75 1.28019 1.47092 0
M  V30 15777 O 1507.02 0.401048 1.91751 0
M  V30 15778 H 1505.6 0.743444 0.0728049 0
M  V30 15779 H 1508.26 1.87715 -0.524332 0
M  V30 15780 H 1507.36 3.09562 0.397216 0
M  V30 15781 N 1507.66 0.121921 1.57128 0
M  V30 15782 C 1508.59 -0.823788 2.18486 0
M  V30 15783 C 1509.57 -1.27519 1.12574 0
M  V30 15784 O 1510.76 -1.33727 1.40822 0
M  V30 15785 C 1507.89 -2.07284 2.78659 0
M  V30 15786 C 1506.84 -1.75912 3.90178 0
M  V30 15787 C 1506.17 -3.07871 4.37172 0
M  V30 15788 C 1507.47 -1.02517 5.1214 0
M  V30 15789 H 1509.16 -0.312488 2.97765 0
M  V30 15790 H 1506.71 -0.148862 1.43228 0
M  V30 15791 H 1508.66 -2.73903 3.20242 0
M  V30 15792 H 1507.39 -2.60743 1.96673 0
M  V30 15793 H 1506.04 -1.11681 3.49174 0
M  V30 15794 H 1505.69 -3.59271 3.52041 0
M  V30 15795 H 1505.39 -2.87653 5.12376 0
M  V30 15796 H 1506.92 -3.75604 4.81409 0
M  V30 15797 H 1508.33 -1.59295 5.50725 0
M  V30 15798 H 1506.73 -0.923836 5.92946 0
M  V30 15799 H 1507.8 -0.0124219 4.84898 0
M  V30 15800 N 1509.14 -1.56867 -0.151857 0
M  V30 15801 C 1510.39 -1.82273 -0.863689 0
M  V30 15802 C 1510.7 -0.702377 -1.82554 0
M  V30 15803 O 1511.91 -0.841903 -2.58117 0
M  V30 15804 C 1510.36 -3.23046 -1.58649 0
M  V30 15805 C 1509.97 -4.43003 -0.667292 0
M  V30 15806 C 1511.72 -3.57729 -2.28539 0
M  V30 15807 C 1509.62 -5.74798 -1.39144 0
M  V30 15808 H 1508.55 -0.679753 -0.326269 0
M  V30 15809 H 1511.2 -1.8313 -0.116454 0
M  V30 15810 H 1509.59 -3.16561 -2.37918 0
M  V30 15811 H 1510.76 -4.60712 0.0898254 0
M  V30 15812 H 1509.08 -4.16329 -0.0770521 0
M  V30 15813 H 1511.67 -4.53451 -2.83348 0
M  V30 15814 H 1512.02 -2.8355 -3.04803 0
M  V30 15815 H 1512.55 -3.65853 -1.56194 0
M  V30 15816 H 1509.29 -6.52059 -0.670747 0
M  V30 15817 H 1508.81 -5.61032 -2.12139 0
M  V30 15818 H 1510.49 -6.17429 -1.93367 0
M  V30 15819 N 1510.62 0.421051 -1.51871 0
M  V30 15820 C 1511.57 1.5122 -1.74359 0
M  V30 15821 C 1512.54 1.55432 -0.585667 0
M  V30 15822 O 1513.72 1.7219 -0.821912 0
M  V30 15823 C 1510.86 2.88787 -1.88935 0
M  V30 15824 C 1509.97 2.93977 -3.16546 0
M  V30 15825 C 1509.11 4.22768 -3.21622 0
M  V30 15826 C 1508.15 4.21888 -4.43483 0
M  V30 15827 N 1507.28 5.4223 -4.46017 0
M  V30 15828 H 1512.12 1.31348 -2.67492 0
M  V30 15829 H 1509.66 0.637779 -1.32555 0
M  V30 15830 H 1511.62 3.68629 -1.95368 0
M  V30 15831 H 1510.25 3.07181 -0.991942 0
M  V30 15832 H 1509.3 2.06699 -3.19343 0
M  V30 15833 H 1510.61 2.8919 -4.06412 0
M  V30 15834 H 1509.77 5.10995 -3.27061 0
M  V30 15835 H 1508.51 4.30234 -2.29674 0
M  V30 15836 H 1507.51 3.32052 -4.38202 0
M  V30 15837 H 1508.74 4.16072 -5.36713 0
M  V30 15838 H 1506.68 5.50386 -3.56947 0
M  V30 15839 H 1506.6 5.39389 -5.29713 0
M  V30 15840 H 1507.87 6.32443 -4.55671 0
M  V30 15841 N 1512.1 1.42293 0.677538 0
M  V30 15842 C 1513.35 1.41909 1.43334 0
M  V30 15843 C 1513.66 0.037951 1.95563 0
M  V30 15844 O 1514.86 -0.0884836 2.71356 0
M  V30 15845 C 1513.32 2.49608 2.59275 0
M  V30 15846 C 1512.93 3.93716 2.13757 0
M  V30 15847 C 1514.67 2.58387 3.36803 0
M  V30 15848 C 1512.58 4.92929 3.26764 0
M  V30 15849 H 1511.51 0.527803 0.538461 0
M  V30 15850 H 1514.16 1.6819 0.733791 0
M  V30 15851 H 1512.54 2.16488 3.31585 0
M  V30 15852 H 1513.72 4.36176 1.48618 0
M  V30 15853 H 1512.03 3.88762 1.49175 0
M  V30 15854 H 1514.63 3.29691 4.20961 0
M  V30 15855 H 1514.97 1.62653 3.8321 0
M  V30 15856 H 1515.5 2.90688 2.71561 0
M  V30 15857 H 1512.24 5.90131 2.85352 0
M  V30 15858 H 1511.76 4.55103 3.90694 0
M  V30 15859 H 1513.44 5.1452 3.92273 0
M  V30 15860 N 1513.57 -0.913576 1.28419 0
M  V30 15861 C 1514.99 -1.192 1.0613 0
M  V30 15862 C 1515.19 -2.00542 -0.196232 0
M  V30 15863 O 1514.25 -2.35998 -0.897853 0
M  V30 15864 C 1515.56 -1.92642 2.30889 0
M  V30 15865 C 1517.11 -2.05524 2.3607 0
M  V30 15866 C 1517.58 -2.82374 3.60595 0
M  V30 15867 N 1519.07 -2.89935 3.61236 0
M  V30 15868 C 1519.81 -3.49899 4.54266 0
M  V30 15869 N 1519.3 -4.11141 5.57615 0
M  V30 15870 N 1521.1 -3.4744 4.41862 0
M  V30 15871 H 1513.25 -0.370509 2.09143 0
M  V30 15872 H 1515.51 -0.226573 0.920526 0
M  V30 15873 H 1515.22 -1.40299 3.22504 0
M  V30 15874 H 1515.09 -2.93191 2.37316 0
M  V30 15875 H 1517.48 -2.57047 1.44951 0
M  V30 15876 H 1517.56 -1.0415 2.33637 0
M  V30 15877 H 1517.2 -2.3153 4.52058 0
M  V30 15878 H 1517.13 -3.84063 3.60282 0
M  V30 15879 H 1519.62 -2.46424 2.86502 0
M  V30 15880 H 1519.94 -4.54877 6.24746 0
M  V30 15881 H 1518.28 -4.09645 5.61441 0
M  V30 15882 H 1521.47 -2.98806 3.60323 0
M  V30 15883 H 1521.65 -3.9388 5.14551 0
M  V30 15884 N 1515.05 -1.1067 -1.12204 0
M  V30 15885 C 1516.28 -0.871601 -1.87314 0
M  V30 15886 C 1516.69 0.581644 -1.80038 0
M  V30 15887 O 1516.03 1.4129 -1.17401 0
M  V30 15888 C 1516.1 -1.24458 -3.37269 0
M  V30 15889 C 1515.76 -2.70536 -3.6832 0
M  V30 15890 C 1516.76 -3.68769 -3.66477 0
M  V30 15891 C 1514.44 -3.06982 -3.97577 0
M  V30 15892 C 1516.44 -5.01471 -3.93454 0
M  V30 15893 C 1514.12 -4.39871 -4.24213 0
M  V30 15894 C 1515.12 -5.36924 -4.22139 0
M  V30 15895 O 1514.81 -6.6742 -4.48113 0
M  V30 15896 H 1514.54 -0.312472 -0.599447 0
M  V30 15897 H 1517.09 -1.47562 -1.4288 0
M  V30 15898 H 1515.32 -0.583674 -3.8227 0
M  V30 15899 H 1517.01 -0.986569 -3.93728 0
M  V30 15900 H 1517.78 -3.41957 -3.43934 0
M  V30 15901 H 1513.66 -2.32062 -3.98332 0
M  V30 15902 H 1517.2 -5.77215 -3.9175 0
M  V30 15903 H 1513.1 -4.6642 -4.46231 0
M  V30 15904 H 1513.87 -6.73088 -4.6572 0
M  V30 15905 N 1516.53 1.29665 -0.895815 0
M  V30 15906 C 1517.48 2.27831 -0.369011 0
M  V30 15907 C 1518.45 1.56843 0.546756 0
M  V30 15908 O 1519.63 1.84848 0.472837 0
M  V30 15909 C 1516.77 3.42764 0.400884 0
M  V30 15910 C 1515.89 4.28544 -0.545335 0
M  V30 15911 C 1515.02 5.30652 0.241228 0
M  V30 15912 C 1514.06 6.08087 -0.699765 0
M  V30 15913 N 1513.2 7.02081 0.0521477 0
M  V30 15914 H 1518.04 2.72274 -1.21124 0
M  V30 15915 H 1515.57 1.33918 -0.608631 0
M  V30 15916 H 1517.53 4.08171 0.863277 0
M  V30 15917 H 1516.16 2.99361 1.2076 0
M  V30 15918 H 1515.21 3.63346 -1.12624 0
M  V30 15919 H 1516.53 4.82472 -1.26579 0
M  V30 15920 H 1515.68 6.01858 0.764994 0
M  V30 15921 H 1514.42 4.77446 0.994838 0
M  V30 15922 H 1513.42 5.35748 -1.23507 0
M  V30 15923 H 1514.65 6.63382 -1.45264 0
M  V30 15924 H 1512.59 6.51249 0.788096 0
M  V30 15925 H 1512.51 7.53547 -0.60847 0
M  V30 15926 H 1513.78 7.77512 0.556304 0
M  V30 15927 N 1518.01 0.657889 1.43212 0
M  V30 15928 C 1518.96 -0.0427288 2.32561 0
M  V30 15929 C 1519.95 -0.808236 1.48875 0
M  V30 15930 O 1521.16 -0.718109 1.65055 0
M  V30 15931 H 1517.53 -0.0326049 0.751293 0
M  V30 15932 H 1519.5 0.728503 2.89371 0
M  V30 15933 C 1518.25 -0.99216 3.33244 0
M  V30 15934 H 1517.57 -0.412542 3.97666 0
M  V30 15935 H 1519.01 -1.45138 3.98385 0
M  V30 15936 C 1517.47 -2.09044 2.64201 0
M  V30 15937 O 1518 -3.17481 2.46107 0
M  V30 15938 N 1516.21 -1.85732 2.23499 0
M  V30 15939 H 1515.76 -0.975483 2.38416 0
M  V30 15940 H 1515.71 -2.5941 1.77634 0
M  V30 15941 N 1519.49 -1.52437 0.400108 0
M  V30 15942 C 1520.45 -2.2536 -0.417808 0
M  V30 15943 C 1521.45 -1.27393 -0.981204 0
M  V30 15944 O 1522.64 -1.51406 -0.861503 0
M  V30 15945 C 1519.77 -3.01695 -1.58724 0
M  V30 15946 H 1520.96 -2.99086 0.220782 0
M  V30 15947 H 1518.52 -1.55555 0.152439 0
M  V30 15948 H 1519.25 -2.32295 -2.26295 0
M  V30 15949 H 1519.04 -3.73611 -1.18984 0
M  V30 15950 H 1520.53 -3.57033 -2.16604 0
M  V30 15951 N 1520.96 -0.130252 -1.57061 0
M  V30 15952 C 1521.93 0.801529 -2.14728 0
M  V30 15953 C 1522.93 1.18687 -1.08489 0
M  V30 15954 O 1524.12 1.11054 -1.34211 0
M  V30 15955 C 1521.25 2.08542 -2.69672 0
M  V30 15956 H 1522.44 0.300172 -2.98394 0
M  V30 15957 H 1520 0.119077 -1.55846 0
M  V30 15958 H 1520.73 2.63083 -1.89625 0
M  V30 15959 H 1520.52 1.81849 -3.47381 0
M  V30 15960 H 1522.01 2.75126 -3.14158 0
M  V30 15961 N 1522.44 1.56945 0.143535 0
M  V30 15962 C 1523.38 1.95134 1.2023 0
M  V30 15963 C 1524.39 0.847593 1.38995 0
M  V30 15964 O 1525.58 1.12599 1.38505 0
M  V30 15965 C 1522.68 2.21316 2.56656 0
M  V30 15966 C 1521.85 3.52604 2.58822 0
M  V30 15967 C 1520.91 3.67285 3.76813 0
M  V30 15968 O 1519.94 4.39644 3.61527 0
M  V30 15969 N 1521.14 3.04208 4.94406 0
M  V30 15970 H 1523.9 2.86561 0.87766 0
M  V30 15971 H 1521.46 1.58437 0.333065 0
M  V30 15972 H 1523.46 2.28375 3.34106 0
M  V30 15973 H 1522.03 1.36137 2.81399 0
M  V30 15974 H 1521.25 3.56954 1.67264 0
M  V30 15975 H 1522.53 4.38944 2.57304 0
M  V30 15976 H 1521.93 2.45344 5.09728 0
M  V30 15977 H 1520.49 3.16824 5.69619 0
M  V30 15978 N 1523.92 -0.412991 1.52093 0
M  V30 15979 C 1524.85 -1.52374 1.69874 0
M  V30 15980 C 1525.83 -1.53148 0.546311 0
M  V30 15981 O 1527.02 -1.71913 0.773188 0
M  V30 15982 C 1524.14 -2.90914 1.73455 0
M  V30 15983 C 1523.19 -3.08068 2.94952 0
M  V30 15984 S 1524.02 -2.81789 4.55363 0
M  V30 15985 C 1525.18 -4.22566 4.61724 0
M  V30 15986 H 1525.41 -1.37062 2.63821 0
M  V30 15987 H 1522.94 -0.604312 1.42082 0
M  V30 15988 H 1524.9 -3.7076 1.76203 0
M  V30 15989 H 1523.56 -3.03571 0.806429 0
M  V30 15990 H 1522.76 -4.09417 2.93928 0
M  V30 15991 H 1522.36 -2.36082 2.90071 0
M  V30 15992 H 1524.65 -5.16145 4.38863 0
M  V30 15993 H 1525.59 -4.28615 5.63644 0
M  V30 15994 H 1526 -4.07357 3.90795 0
M  V30 15995 N 1525.4 -1.4265 -0.669982 0
M  V30 15996 C 1526.33 -1.49298 -1.79534 0
M  V30 15997 C 1527.31 -0.34911 -1.66479 0
M  V30 15998 O 1528.5 -0.564072 -1.85828 0
M  V30 15999 C 1525.63 -1.39935 -3.17861 0
M  V30 16000 C 1524.58 -2.52398 -3.45657 0
M  V30 16001 C 1523.91 -2.28092 -4.8361 0
M  V30 16002 C 1525.21 -3.94697 -3.4207 0
M  V30 16003 H 1526.9 -2.43486 -1.74227 0
M  V30 16004 H 1524.45 -1.17191 -0.836796 0
M  V30 16005 H 1526.4 -1.43193 -3.96325 0
M  V30 16006 H 1525.12 -0.422436 -3.23857 0
M  V30 16007 H 1523.78 -2.48465 -2.69556 0
M  V30 16008 H 1523.43 -1.28683 -4.86261 0
M  V30 16009 H 1523.13 -3.03469 -5.0317 0
M  V30 16010 H 1524.65 -2.33107 -5.64352 0
M  V30 16011 H 1526.07 -4.00207 -4.10496 0
M  V30 16012 H 1524.46 -4.69965 -3.73166 0
M  V30 16013 H 1525.53 -4.21025 -2.40554 0
M  V30 16014 N 1526.88 0.906753 -1.28902 0
M  V30 16015 C 1528.11 1.69019 -1.19333 0
M  V30 16016 C 1528.52 1.87176 0.247065 0
M  V30 16017 O 1527.88 1.40376 1.16623 0
M  V30 16018 C 1527.93 3.07854 -1.89495 0
M  V30 16019 O 1527.65 2.90531 -3.27908 0
M  V30 16020 C 1529.15 4.02246 -1.86314 0
M  V30 16021 H 1526.37 0.528119 -0.413922 0
M  V30 16022 H 1528.91 1.13441 -1.70151 0
M  V30 16023 H 1527.07 3.60228 -1.42529 0
M  V30 16024 H 1527.48 3.78451 -3.63146 0
M  V30 16025 H 1528.96 4.97104 -2.39983 0
M  V30 16026 H 1529.43 4.31149 -0.837071 0
M  V30 16027 H 1530.04 3.55803 -2.3299 0
M  V30 16028 N 1528.36 1.11264 1.11616 0
M  V30 16029 C 1529.77 0.846176 1.35322 0
M  V30 16030 C 1529.97 -0.530043 1.94404 0
M  V30 16031 O 1529.03 -1.28122 2.1758 0
M  V30 16032 C 1530.34 1.9528 2.28662 0
M  V30 16033 C 1531.89 1.98225 2.42231 0
M  V30 16034 C 1532.36 3.08086 3.38891 0
M  V30 16035 N 1533.85 3.07448 3.46453 0
M  V30 16036 C 1534.59 3.89094 4.21181 0
M  V30 16037 N 1534.09 4.80698 4.989 0
M  V30 16038 N 1535.88 3.77279 4.16674 0
M  V30 16039 H 1528.03 1.99958 0.716284 0
M  V30 16040 H 1530.29 0.869439 0.377862 0
M  V30 16041 H 1530 2.94381 1.92439 0
M  V30 16042 H 1529.87 1.84739 3.28864 0
M  V30 16043 H 1532.26 0.997517 2.77729 0
M  V30 16044 H 1532.34 2.12842 1.41887 0
M  V30 16045 H 1531.98 4.06784 3.0412 0
M  V30 16046 H 1531.91 2.90709 4.39085 0
M  V30 16047 H 1534.41 2.41077 2.91016 0
M  V30 16048 H 1534.72 5.39535 5.53282 0
M  V30 16049 H 1533.06 4.84721 4.98067 0
M  V30 16050 H 1536.25 3.05059 3.55044 0
M  V30 16051 H 1536.43 4.41142 4.74655 0
M  V30 16052 N 1529.83 -1.29188 0.902679 0
M  V30 16053 C 1531.11 -1.90365 0.449496 0
M  V30 16054 C 1531.49 -1.81911 -1.07105 0
M  V30 16055 O 1530.84 -1.24778 -1.91423 0
M  V30 16056 C 1531.05 -3.35324 0.967418 0
M  V30 16057 C 1532.4 -4.12342 1.0129 0
M  V30 16058 O 1533.42 -3.44239 0.915293 0
M  V30 16059 O 1532.28 -5.34048 1.15994 0
M  V30 16060 H 1529.37 -0.814956 0.140628 0
M  V30 16061 H 1531.92 -1.37633 0.992739 0
M  V30 16062 H 1530.69 -3.35646 2.0114 0
M  V30 16063 H 1530.31 -3.95539 0.404358 0
M  V30 16064 N 1531.31 -0.665475 -1.42861 0
M  V30 16065 C 1532.73 -0.334157 -1.56063 0
M  V30 16066 C 1532.93 1.16104 -1.64688 0
M  V30 16067 O 1531.98 1.94622 -1.60867 0
M  V30 16068 C 1533.3 -1.05628 -2.81537 0
M  V30 16069 C 1534.84 -1.03771 -2.95297 0
M  V30 16070 C 1535.32 -1.74098 -4.2362 0
M  V30 16071 N 1536.81 -1.7092 -4.30512 0
M  V30 16072 C 1537.55 -2.222 -5.28597 0
M  V30 16073 N 1537.04 -2.81821 -6.32889 0
M  V30 16074 N 1538.83 -2.12628 -5.20332 0
M  V30 16075 H 1530.99 -1.6356 -1.35506 0
M  V30 16076 H 1533.25 -0.688538 -0.651628 0
M  V30 16077 H 1532.95 -2.11141 -2.81269 0
M  V30 16078 H 1532.83 -0.615586 -3.72143 0
M  V30 16079 H 1535.22 0.00905324 -2.95099 0
M  V30 16080 H 1535.3 -1.51721 -2.05948 0
M  V30 16081 H 1534.94 -2.78737 -4.2458 0
M  V30 16082 H 1534.87 -1.23604 -5.11888 0
M  V30 16083 H 1537.36 -1.27425 -3.55769 0
M  V30 16084 H 1537.67 -3.18594 -7.04072 0
M  V30 16085 H 1536.02 -2.85887 -6.33478 0
M  V30 16086 H 1539.21 -1.65746 -4.37774 0
M  V30 16087 H 1539.38 -2.52899 -5.96612 0
M  V30 16088 N 1532.79 1.52222 -0.408187 0
M  V30 16089 C 1534.07 1.94285 0.22641 0
M  V30 16090 C 1534.45 1.34501 1.62705 0
M  V30 16091 O 1533.79 0.52045 2.22494 0
M  V30 16092 C 1534 3.48217 0.233695 0
M  V30 16093 C 1535.35 4.22171 0.453504 0
M  V30 16094 O 1536.38 3.54821 0.313093 0
M  V30 16095 O 1535.24 5.416 0.730183 0
M  V30 16096 H 1532.33 0.814078 0.145625 0
M  V30 16097 H 1534.88 1.63232 -0.464062 0
M  V30 16098 H 1533.65 3.84111 -0.746644 0
M  V30 16099 H 1533.27 3.85629 0.968305 0
M  V30 16100 N 1534.27 0.138579 1.5699 0
M  V30 16101 C 1535.51 -0.514627 1.95852 0
M  V30 16102 C 1535.84 -1.65424 1.02299 0
M  V30 16103 O 1535.1 -1.95635 0.0505654 0
M  V30 16104 C 1535.4 -1.06969 3.41017 0
M  V30 16105 C 1535.06 -0.049396 4.50873 0
M  V30 16106 C 1533.72 0.231103 4.80645 0
M  V30 16107 C 1536.08 0.644865 5.17195 0
M  V30 16108 C 1533.4 1.21181 5.74049 0
M  V30 16109 C 1535.76 1.61434 6.11655 0
M  V30 16110 C 1534.42 1.90262 6.3981 0
M  V30 16111 H 1533.69 -0.188315 0.716672 0
M  V30 16112 H 1536.34 0.223629 1.9019 0
M  V30 16113 H 1534.64 -1.88511 3.43469 0
M  V30 16114 H 1536.34 -1.58354 3.68409 0
M  V30 16115 H 1532.93 -0.278202 4.27696 0
M  V30 16116 H 1537.11 0.441346 4.94334 0
M  V30 16117 H 1532.37 1.4417 5.94159 0
M  V30 16118 H 1536.54 2.15786 6.62125 0
M  V30 16119 H 1534.17 2.66407 7.11991 0
M  V30 16120 N 1535.75 -1.57019 -0.13521 0
M  V30 16121 C 1536.66 -2.02427 -1.18578 0
M  V30 16122 C 1537.67 -0.941738 -1.46312 0
M  V30 16123 O 1538.85 -1.25208 -1.57749 0
M  V30 16124 C 1535.91 -2.40577 -2.49647 0
M  V30 16125 C 1534.97 -3.62835 -2.29455 0
M  V30 16126 C 1534.21 -3.99156 -3.54274 0
M  V30 16127 O 1534.43 -3.36001 -4.60933 0
M  V30 16128 O 1533.36 -4.92345 -3.46238 0
M  V30 16129 H 1537.19 -2.92131 -0.830237 0
M  V30 16130 H 1534.77 -1.45366 -0.344814 0
M  V30 16131 H 1536.66 -2.65922 -3.269 0
M  V30 16132 H 1535.33 -1.54023 -2.84708 0
M  V30 16133 H 1534.24 -3.42661 -1.50114 0
M  V30 16134 H 1535.57 -4.50043 -1.99305 0
M  V30 16135 N 1537.22 0.404919 -1.52309 0
M  V30 16136 C 1538.17 1.51412 -1.7657 0
M  V30 16137 C 1539.17 1.5713 -0.632983 0
M  V30 16138 O 1540.37 1.60486 -0.815121 0
M  V30 16139 H 1536.75 0.503636 -0.55844 0
M  V30 16140 H 1538.72 1.28137 -2.69488 0
M  V30 16141 C 1537.47 2.88733 -1.93722 0
M  V30 16142 H 1536.79 2.85078 -2.80304 0
M  V30 16143 H 1538.23 3.65626 -2.14695 0
M  V30 16144 C 1536.69 3.29431 -0.705444 0
M  V30 16145 O 1537.22 4.01506 0.124693 0
M  V30 16146 N 1535.43 2.85536 -0.540128 0
M  V30 16147 H 1534.97 2.27052 -1.21677 0
M  V30 16148 H 1534.93 3.13126 0.282723 0
M  V30 16149 N 1538.7 1.43003 0.662408 0
M  V30 16150 C 1539.93 1.47766 1.45533 0
M  V30 16151 C 1540.35 0.0940298 1.87865 0
M  V30 16152 O 1539.71 -0.910252 1.56793 0
M  V30 16153 C 1539.76 2.42084 2.6726 0
M  V30 16154 O 1538.86 1.90076 3.65985 0
M  V30 16155 H 1538.2 0.500167 0.436725 0
M  V30 16156 H 1540.73 1.87823 0.811399 0
M  V30 16157 H 1540.74 2.5908 3.15185 0
M  V30 16158 H 1539.42 3.42601 2.3579 0
M  V30 16159 H 1538 1.82695 3.2508 0
M  V30 16160 N 1540.18 -0.899904 1.29381 0
M  V30 16161 C 1541.11 -2.00584 1.08817 0
M  V30 16162 C 1542.09 -1.626 0.000108013 0
M  V30 16163 O 1543.28 -1.87896 0.150764 0
M  V30 16164 C 1540.4 -3.32276 0.656508 0
M  V30 16165 C 1539.45 -3.89247 1.74325 0
M  V30 16166 S 1540.28 -4.18381 3.34242 0
M  V30 16167 C 1541.44 -5.53114 2.92943 0
M  V30 16168 H 1541.67 -2.1772 2.02448 0
M  V30 16169 H 1539.2 -1.04648 1.13526 0
M  V30 16170 H 1541.16 -4.08405 0.414172 0
M  V30 16171 H 1539.82 -3.1302 -0.260196 0
M  V30 16172 H 1539.02 -4.84363 1.39315 0
M  V30 16173 H 1538.62 -3.19805 1.9391 0
M  V30 16174 H 1540.91 -6.33576 2.39976 0
M  V30 16175 H 1541.85 -5.93048 3.8691 0
M  V30 16176 H 1542.26 -5.14962 2.31245 0
M  V30 16177 N 1541.66 -1.11854 -1.11024 0
M  V30 16178 C 1542.61 -0.780825 -2.17191 0
M  V30 16179 C 1543.58 0.249657 -1.64213 0
M  V30 16180 O 1544.76 0.125603 -1.90386 0
M  V30 16181 C 1541.9 -0.23491 -3.443 0
M  V30 16182 C 1541.01 -1.32247 -4.1126 0
M  V30 16183 C 1540.15 -0.736638 -5.26068 0
M  V30 16184 C 1539.19 -1.80375 -5.8492 0
M  V30 16185 N 1538.32 -1.23709 -6.91115 0
M  V30 16186 H 1543.16 -1.69031 -2.45423 0
M  V30 16187 H 1540.7 -0.844041 -1.20476 0
M  V30 16188 H 1542.66 0.0996064 -4.17081 0
M  V30 16189 H 1541.29 0.637752 -3.16437 0
M  V30 16190 H 1540.34 -1.77387 -3.36509 0
M  V30 16191 H 1541.65 -2.12965 -4.51051 0
M  V30 16192 H 1540.81 -0.352432 -6.05675 0
M  V30 16193 H 1539.55 0.101811 -4.87594 0
M  V30 16194 H 1538.55 -2.19721 -5.03987 0
M  V30 16195 H 1539.78 -2.64531 -6.2546 0
M  V30 16196 H 1537.72 -0.420357 -6.54652 0
M  V30 16197 H 1537.64 -1.98093 -7.29586 0
M  V30 16198 H 1538.91 -0.879912 -7.74518 0
M  V30 16199 N 1543.14 1.28707 -0.909517 0
M  V30 16200 C 1544.07 2.25665 -0.339165 0
M  V30 16201 C 1545.05 1.52863 0.554222 0
M  V30 16202 O 1546.23 1.8178 0.498829 0
M  V30 16203 C 1543.36 3.34753 0.515592 0
M  V30 16204 C 1542.4 4.25359 -0.31183 0
M  V30 16205 S 1543.24 5.07265 -1.71588 0
M  V30 16206 C 1544.39 6.19848 -0.868312 0
M  V30 16207 H 1544.63 2.73695 -1.16097 0
M  V30 16208 H 1542.16 1.37082 -0.710492 0
M  V30 16209 H 1544.12 3.98059 1.00294 0
M  V30 16210 H 1542.78 2.85399 1.31173 0
M  V30 16211 H 1541.97 5.02841 0.341555 0
M  V30 16212 H 1541.57 3.66753 -0.73268 0
M  V30 16213 H 1543.87 6.77432 -0.0960601 0
M  V30 16214 H 1544.81 6.89424 -1.61554 0
M  V30 16215 H 1545.22 5.62948 -0.418357 0
M  V30 16216 N 1544.61 0.673042 1.42506 0
M  V30 16217 C 1545.86 0.203538 2.02379 0
M  V30 16218 C 1546.22 -1.17624 1.52258 0
M  V30 16219 O 1545.51 -1.77787 0.714297 0
M  V30 16220 C 1545.7 0.175896 3.56967 0
M  V30 16221 C 1545.53 1.55145 4.2209 0
M  V30 16222 C 1544.3 2.14878 4.57335 0
M  V30 16223 C 1546.5 2.49378 4.49794 0
M  V30 16224 N 1544.48 3.45232 5.0763 0
M  V30 16225 C 1545.85 3.64385 5.01621 0
M  V30 16226 C 1547.91 2.4793 4.31781 0
M  V30 16227 C 1546.61 4.78196 5.37328 0
M  V30 16228 C 1548.64 3.60836 4.68563 0
M  V30 16229 C 1548 4.74571 5.2054 0
M  V30 16230 H 1544.1 0.119362 0.772837 0
M  V30 16231 H 1546.68 0.885648 1.73391 0
M  V30 16232 H 1544.85 -0.475621 3.85477 0
M  V30 16233 H 1546.58 -0.306326 4.03539 0
M  V30 16234 H 1543.34 1.67385 4.43034 0
M  V30 16235 H 1543.76 4.1199 5.37209 0
M  V30 16236 H 1548.41 1.61227 3.90853 0
M  V30 16237 H 1546.12 5.65576 5.77191 0
M  V30 16238 H 1549.71 3.60941 4.56304 0
M  V30 16239 H 1548.59 5.6049 5.48471 0
M  V30 16240 N 1546.09 -1.52004 0.416254 0
M  V30 16241 C 1547 -2.30947 -0.412403 0
M  V30 16242 C 1548.02 -1.38969 -1.04707 0
M  V30 16243 O 1549.19 -1.72044 -1.04703 0
M  V30 16244 C 1546.26 -3.12078 -1.51024 0
M  V30 16245 C 1545.32 -4.19805 -0.897892 0
M  V30 16246 C 1544.55 -4.97059 -1.94341 0
M  V30 16247 O 1544.78 -4.74695 -3.16261 0
M  V30 16248 O 1543.71 -5.81715 -1.54567 0
M  V30 16249 H 1547.54 -3.02817 0.231473 0
M  V30 16250 H 1545.12 -1.4832 0.179283 0
M  V30 16251 H 1547 -3.6258 -2.14741 0
M  V30 16252 H 1545.68 -2.42995 -2.13858 0
M  V30 16253 H 1544.59 -3.73433 -0.223236 0
M  V30 16254 H 1545.92 -4.91201 -0.31336 0
M  V30 16255 N 1547.57 -0.146903 -1.56914 0
M  V30 16256 C 1548.8 0.51044 -2.00195 0
M  V30 16257 C 1549.21 1.58966 -1.02599 0
M  V30 16258 O 1548.55 1.83694 -0.0149611 0
M  V30 16259 C 1548.61 1.17055 -3.39909 0
M  V30 16260 C 1548.28 0.235944 -4.56391 0
M  V30 16261 C 1549.27 -0.536351 -5.17126 0
M  V30 16262 C 1546.96 0.138878 -5.02108 0
M  V30 16263 C 1548.95 -1.39316 -6.21989 0
M  V30 16264 C 1546.64 -0.721538 -6.06825 0
M  V30 16265 C 1547.64 -1.48616 -6.66635 0
M  V30 16266 O 1547.33 -2.33224 -7.69325 0
M  V30 16267 H 1547.06 0.137381 -0.661893 0
M  V30 16268 H 1549.61 -0.23844 -2.04011 0
M  V30 16269 H 1547.84 1.96707 -3.32931 0
M  V30 16270 H 1549.53 1.72761 -3.67299 0
M  V30 16271 H 1550.3 -0.471393 -4.82704 0
M  V30 16272 H 1546.18 0.723769 -4.55283 0
M  V30 16273 H 1549.72 -1.99044 -6.68601 0
M  V30 16274 H 1545.62 -0.787788 -6.40675 0
M  V30 16275 H 1546.39 -2.26471 -7.86545 0
M  V30 16276 N 1549.05 1.57088 0.126881 0
M  V30 16277 C 1550 1.99764 1.15599 0
M  V30 16278 C 1550.97 0.868468 1.41587 0
M  V30 16279 O 1552.15 1.13209 1.53585 0
M  V30 16280 C 1549.29 2.40038 2.47943 0
M  V30 16281 C 1548.4 3.66336 2.28958 0
M  V30 16282 C 1547.54 3.95626 3.54477 0
M  V30 16283 C 1546.58 5.15131 3.30616 0
M  V30 16284 N 1545.71 5.4033 4.48317 0
M  V30 16285 H 1550.55 2.87473 0.785078 0
M  V30 16286 H 1548.09 1.42209 0.376169 0
M  V30 16287 H 1550.05 2.61423 3.25136 0
M  V30 16288 H 1548.68 1.55382 2.82942 0
M  V30 16289 H 1547.73 3.52612 1.4272 0
M  V30 16290 H 1549.04 4.53684 2.07298 0
M  V30 16291 H 1548.2 4.17617 4.40092 0
M  V30 16292 H 1546.94 3.06738 3.79161 0
M  V30 16293 H 1545.94 4.92992 2.43391 0
M  V30 16294 H 1547.17 6.05588 3.0731 0
M  V30 16295 H 1545.11 4.54399 4.73136 0
M  V30 16296 H 1545.03 6.21985 4.29733 0
M  V30 16297 H 1546.3 5.66835 5.35088 0
M  V30 16298 N 1550.53 -0.396836 1.52522 0
M  V30 16299 C 1551.48 -1.48365 1.73123 0
M  V30 16300 C 1552.46 -1.4988 0.585224 0
M  V30 16301 O 1553.65 -1.55649 0.842763 0
M  V30 16302 C 1550.78 -2.86165 1.89644 0
M  V30 16303 C 1549.87 -2.8925 3.10153 0
M  V30 16304 N 1550.26 -2.62017 4.32644 0
M  V30 16305 C 1548.56 -3.20419 3.10238 0
M  V30 16306 C 1549.26 -2.71985 5.14197 0
M  V30 16307 N 1548.23 -3.05385 4.49712 0
M  V30 16308 H 1552.04 -1.26124 2.65462 0
M  V30 16309 H 1549.55 -0.604696 1.50722 0
M  V30 16310 H 1551.55 -3.64404 2.02522 0
M  V30 16311 H 1550.21 -3.09395 0.985134 0
M  V30 16312 H 1551.22 -2.36183 4.6091 0
M  V30 16313 H 1547.89 -3.49164 2.2889 0
M  V30 16314 H 1549.28 -2.54541 6.21819 0
M  V30 16315 N 1552.01 -1.43353 -0.654814 0
M  V30 16316 C 1553.23 -1.48322 -1.4425 0
M  V30 16317 C 1553.65 -0.100608 -1.88532 0
M  V30 16318 O 1553.01 0.888831 -1.59393 0
M  V30 16319 C 1553.06 -2.42769 -2.67853 0
M  V30 16320 O 1552.78 -3.75653 -2.25424 0
M  V30 16321 C 1554.28 -2.56964 -3.61226 0
M  V30 16322 H 1551.5 -0.503805 -0.443195 0
M  V30 16323 H 1554.04 -1.88078 -0.802916 0
M  V30 16324 H 1552.2 -2.06212 -3.27956 0
M  V30 16325 H 1552.61 -4.26427 -3.05386 0
M  V30 16326 H 1554.09 -3.27129 -4.44624 0
M  V30 16327 H 1554.56 -1.61404 -4.08467 0
M  V30 16328 H 1555.17 -2.94325 -3.07006 0
M  V30 16329 N 1553.48 0.89303 -1.29857 0
M  V30 16330 C 1554.39 2.03079 -1.17457 0
M  V30 16331 C 1555.41 1.73733 -0.0962941 0
M  V30 16332 O 1556.59 1.99005 -0.309667 0
M  V30 16333 C 1553.65 3.3589 -0.858991 0
M  V30 16334 C 1552.71 3.78711 -2.0218 0
M  V30 16335 C 1551.94 5.05184 -1.72118 0
M  V30 16336 O 1552.17 5.66738 -0.645276 0
M  V30 16337 O 1551.1 5.44218 -2.57119 0
M  V30 16338 H 1554.93 2.16465 -2.13017 0
M  V30 16339 H 1552.51 1.01774 -1.09373 0
M  V30 16340 H 1554.39 4.15582 -0.697852 0
M  V30 16341 H 1553.07 3.23631 0.0667756 0
M  V30 16342 H 1551.98 2.99758 -2.23822 0
M  V30 16343 H 1553.31 3.95563 -2.929 0
M  V30 16344 N 1554.96 1.12442 1.10429 0
M  V30 16345 C 1556.21 0.874466 1.81758 0
M  V30 16346 C 1556.52 -0.601487 1.86122 0
M  V30 16347 O 1557.73 -0.968037 2.53656 0
M  V30 16348 C 1556.19 1.51478 3.2647 0
M  V30 16349 C 1555.79 3.02552 3.30403 0
M  V30 16350 C 1557.54 1.34511 4.02625 0
M  V30 16351 C 1555.44 3.59518 4.69575 0
M  V30 16352 H 1554.37 0.323494 0.681078 0
M  V30 16353 H 1557.03 1.35091 1.24188 0
M  V30 16354 H 1555.41 0.966 3.84037 0
M  V30 16355 H 1556.58 3.63924 2.82659 0
M  V30 16356 H 1554.9 3.18917 2.67733 0
M  V30 16357 H 1557.49 1.74492 5.05427 0
M  V30 16358 H 1557.84 0.288788 4.15297 0
M  V30 16359 H 1558.37 1.86311 3.51473 0
M  V30 16360 H 1555.11 4.6491 4.62103 0
M  V30 16361 H 1554.63 3.02922 5.17686 0
M  V30 16362 H 1556.31 3.58581 5.38543 0
M  V30 16363 N 1556.44 -1.28223 0.91633 0
M  V30 16364 C 1557.37 -2.26291 0.363986 0
M  V30 16365 C 1558.38 -1.54964 -0.498988 0
M  V30 16366 O 1559.57 -1.75726 -0.31345 0
M  V30 16367 C 1556.67 -3.35219 -0.498126 0
M  V30 16368 C 1555.85 -4.36054 0.34293 0
M  V30 16369 C 1554.91 -5.24232 -0.454688 0
M  V30 16370 O 1553.93 -5.69043 0.133649 0
M  V30 16371 N 1555.13 -5.53268 -1.75714 0
M  V30 16372 H 1557.9 -2.74323 1.20694 0
M  V30 16373 H 1555.46 -1.41731 0.782551 0
M  V30 16374 H 1557.45 -3.91148 -1.03852 0
M  V30 16375 H 1556.02 -2.86876 -1.2418 0
M  V30 16376 H 1555.24 -3.7955 1.06468 0
M  V30 16377 H 1556.53 -5.00444 0.918322 0
M  V30 16378 H 1555.93 -5.18698 -2.25762 0
M  V30 16379 H 1554.48 -6.11943 -2.2443 0
M  V30 16380 N 1557.92 -0.68059 -1.42147 0
M  V30 16381 C 1558.88 -0.0149865 -2.29195 0
M  V30 16382 C 1559.88 0.723163 -1.43621 0
M  V30 16383 O 1561.07 0.560297 -1.64943 0
M  V30 16384 C 1558.2 0.989375 -3.26227 0
M  V30 16385 H 1559.4 -0.781236 -2.89546 0
M  V30 16386 H 1556.95 -0.443256 -1.49883 0
M  V30 16387 H 1557.68 1.78391 -2.70827 0
M  V30 16388 H 1557.47 0.463401 -3.89352 0
M  V30 16389 H 1558.96 1.45334 -3.91494 0
M  V30 16390 N 1559.4 1.51781 -0.424309 0
M  V30 16391 C 1560.36 2.25996 0.381903 0
M  V30 16392 C 1561.36 1.28938 0.960813 0
M  V30 16393 O 1562.55 1.52757 0.837306 0
M  V30 16394 C 1559.68 3.04181 1.53904 0
M  V30 16395 H 1560.87 2.98697 -0.268336 0
M  V30 16396 H 1558.43 1.55293 -0.177167 0
M  V30 16397 H 1559.16 2.35866 2.22571 0
M  V30 16398 H 1558.95 3.75457 1.13025 0
M  V30 16399 H 1560.44 3.60434 2.10896 0
M  V30 16400 N 1560.87 0.155222 1.56834 0
M  V30 16401 C 1562.28 -0.364232 1.83113 0
M  V30 16402 C 1562.64 -1.64173 1.07432 0
M  V30 16403 O 1561.76 -2.13988 0.322202 0
M  V30 16404 C 1562.36 -0.667608 3.32157 0
M  V30 16405 C 1560.91 -1.13156 3.58989 0
M  V30 16406 C 1560.06 -0.158941 2.76844 0
M  V30 16407 H 1563.01 0.379779 1.54089 0
M  V30 16408 H 1563.03 -1.52141 3.4876 0
M  V30 16409 H 1562.55 0.262355 3.87212 0
M  V30 16410 H 1560.65 -2.07717 3.09329 0
M  V30 16411 H 1560.76 -1.05184 4.67411 0
M  V30 16412 H 1559.12 -0.653181 2.46182 0
M  V30 16413 H 1559.91 0.764757 3.34674 0
M  V30 16414 N 1562.35 -1.57153 -0.118549 0
M  V30 16415 C 1563.28 -1.97022 -1.1711 0
M  V30 16416 C 1564.3 -0.869599 -1.37629 0
M  V30 16417 O 1565.49 -1.14788 -1.36696 0
M  V30 16418 C 1562.59 -2.25371 -2.53103 0
M  V30 16419 C 1561.76 -3.56677 -2.5318 0
M  V30 16420 C 1560.82 -3.73233 -3.70922 0
M  V30 16421 O 1559.84 -4.4534 -3.54487 0
M  V30 16422 N 1561.05 -3.12036 -4.89504 0
M  V30 16423 H 1563.81 -2.87921 -0.831959 0
M  V30 16424 H 1561.37 -1.58947 -0.307817 0
M  V30 16425 H 1563.36 -2.33662 -3.3043 0
M  V30 16426 H 1561.93 -1.40597 -2.79197 0
M  V30 16427 H 1561.15 -3.5957 -1.61564 0
M  V30 16428 H 1562.44 -4.42982 -2.50288 0
M  V30 16429 H 1561.84 -2.53422 -5.05761 0
M  V30 16430 H 1560.4 -3.25846 -5.64506 0
M  V30 16431 N 1563.83 0.388742 -1.5273 0
M  V30 16432 C 1565.24 0.966667 -1.59726 0
M  V30 16433 C 1565.59 1.90963 -0.450272 0
M  V30 16434 O 1564.72 2.12153 0.426611 0
M  V30 16435 C 1565.31 1.75998 -2.895 0
M  V30 16436 C 1563.87 2.28761 -2.98907 0
M  V30 16437 C 1563.02 1.09322 -2.54841 0
M  V30 16438 H 1565.97 0.16828 -1.57805 0
M  V30 16439 H 1565.99 2.61924 -2.76 0
M  V30 16440 H 1565.5 1.07342 -3.7296 0
M  V30 16441 H 1563.6 3.00728 -2.19985 0
M  V30 16442 H 1563.72 2.58229 -4.03552 0
M  V30 16443 H 1562.08 1.45332 -2.09167 0
M  V30 16444 H 1562.86 0.421999 -3.40696 0
M  V30 16445 N 1565.31 1.43698 0.647203 0
M  V30 16446 C 1566.24 1.45295 1.77262 0
M  V30 16447 C 1567.25 0.34831 1.5903 0
M  V30 16448 O 1568.44 0.613106 1.6764 0
M  V30 16449 C 1565.54 1.25584 3.14773 0
M  V30 16450 C 1564.71 2.48998 3.59609 0
M  V30 16451 C 1563.77 2.24423 4.75942 0
M  V30 16452 O 1562.8 2.97813 4.85073 0
M  V30 16453 N 1564 1.26465 5.66557 0
M  V30 16454 H 1566.77 2.42311 1.76368 0
M  V30 16455 H 1564.33 1.38931 0.831247 0
M  V30 16456 H 1566.32 1.07016 3.90294 0
M  V30 16457 H 1564.89 0.369927 3.10403 0
M  V30 16458 H 1564.11 2.82951 2.74467 0
M  V30 16459 H 1565.4 3.31119 3.86313 0
M  V30 16460 H 1564.8 0.658206 5.61858 0
M  V30 16461 H 1563.35 1.13879 6.41775 0
M  V30 16462 N 1566.79 -0.886131 1.30328 0
M  V30 16463 C 1567.72 -2.00793 1.19183 0
M  V30 16464 C 1568.7 -1.69899 0.08276 0
M  V30 16465 O 1569.88 -1.92389 0.264593 0
M  V30 16466 C 1567.01 -3.35922 0.881669 0
M  V30 16467 C 1565.97 -3.81072 1.94855 0
M  V30 16468 C 1565.29 -5.1348 1.4914 0
M  V30 16469 C 1566.59 -3.99923 3.35944 0
M  V30 16470 H 1568.29 -2.10375 2.13032 0
M  V30 16471 H 1565.83 -1.0108 1.02561 0
M  V30 16472 H 1567.79 -4.13922 0.790359 0
M  V30 16473 H 1566.51 -3.26469 -0.0925037 0
M  V30 16474 H 1565.17 -3.053 2.02947 0
M  V30 16475 H 1564.82 -5.00453 0.50553 0
M  V30 16476 H 1564.52 -5.44659 2.205 0
M  V30 16477 H 1566.04 -5.94005 1.41386 0
M  V30 16478 H 1567.45 -4.68364 3.30617 0
M  V30 16479 H 1565.85 -4.42477 4.05381 0
M  V30 16480 H 1566.92 -3.03816 3.77921 0
M  V30 16481 N 1568.26 -1.13026 -1.09832 0
M  V30 16482 C 1569.54 -0.800667 -1.78462 0
M  V30 16483 C 1569.92 0.708508 -1.98855 0
M  V30 16484 O 1569.27 1.64436 -1.58661 0
M  V30 16485 C 1569.48 -1.58284 -3.11042 0
M  V30 16486 C 1570.83 -1.77285 -3.85818 0
M  V30 16487 O 1571.85 -1.54848 -3.20781 0
M  V30 16488 O 1570.71 -2.14693 -5.02563 0
M  V30 16489 H 1567.8 -0.291895 -0.773774 0
M  V30 16490 H 1570.35 -1.23464 -1.16425 0
M  V30 16491 H 1569.12 -2.60867 -2.91657 0
M  V30 16492 H 1568.75 -1.14353 -3.80801 0
M  V30 16493 N 1569.74 1.27735 -0.923117 0
M  V30 16494 C 1570.99 1.9457 -0.561149 0
M  V30 16495 C 1571.32 1.72591 0.896805 0
M  V30 16496 O 1570.57 1.04546 1.65434 0
M  V30 16497 C 1570.87 3.47677 -0.827959 0
M  V30 16498 C 1570.54 3.8977 -2.26693 0
M  V30 16499 C 1569.2 4.00973 -2.66033 0
M  V30 16500 C 1571.55 4.11173 -3.20291 0
M  V30 16501 C 1568.88 4.30963 -3.98105 0
M  V30 16502 C 1571.23 4.42645 -4.51938 0
M  V30 16503 C 1569.9 4.52061 -4.91119 0
M  V30 16504 H 1569.17 0.711981 -0.205339 0
M  V30 16505 H 1571.81 1.51894 -1.16621 0
M  V30 16506 H 1570.12 3.91549 -0.140178 0
M  V30 16507 H 1571.81 3.97523 -0.526932 0
M  V30 16508 H 1568.4 3.81584 -1.95171 0
M  V30 16509 H 1572.59 4.01962 -2.91102 0
M  V30 16510 H 1567.84 4.36461 -4.28149 0
M  V30 16511 H 1572.02 4.58153 -5.2447 0
M  V30 16512 H 1569.65 4.75053 -5.93488 0
M  V30 16513 N 1571.22 0.688118 1.41784 0
M  V30 16514 C 1572.15 -0.02099 2.2919 0
M  V30 16515 C 1573.17 -0.752005 1.44391 0
M  V30 16516 O 1574.35 -0.603947 1.67972 0
M  V30 16517 C 1571.45 -1.0537 3.22103 0
M  V30 16518 C 1570.63 -0.393817 4.35624 0
M  V30 16519 C 1569.69 -1.32812 5.09163 0
M  V30 16520 O 1568.71 -0.823341 5.63214 0
M  V30 16521 N 1569.91 -2.66083 5.15927 0
M  V30 16522 H 1572.68 0.729389 2.90689 0
M  V30 16523 H 1570.24 0.533564 1.52855 0
M  V30 16524 H 1572.23 -1.6803 3.68169 0
M  V30 16525 H 1570.8 -1.70568 2.61964 0
M  V30 16526 H 1570.02 0.41253 3.92035 0
M  V30 16527 H 1571.31 0.065338 5.08758 0
M  V30 16528 H 1570.71 -3.09619 4.73448 0
M  V30 16529 H 1569.27 -3.23956 5.65593 0
M  V30 16530 N 1572.7 -1.51554 0.432352 0
M  V30 16531 C 1573.98 -1.94621 -0.195472 0
M  V30 16532 C 1574.36 -1.37072 -1.60544 0
M  V30 16533 O 1573.7 -0.555781 -2.21638 0
M  V30 16534 C 1573.91 -3.48544 -0.178267 0
M  V30 16535 C 1575.26 -4.22839 -0.386283 0
M  V30 16536 O 1576.29 -3.55275 -0.256604 0
M  V30 16537 O 1575.14 -5.42693 -0.643927 0
M  V30 16538 H 1572.24 -0.816291 -0.132656 0
M  V30 16539 H 1574.78 -1.62473 0.489972 0
M  V30 16540 H 1573.56 -3.82874 0.807658 0
M  V30 16541 H 1573.18 -3.87121 -0.906832 0
M  V30 16542 N 1574.18 -0.163538 -1.56749 0
M  V30 16543 C 1575.4 0.493087 -2.01453 0
M  V30 16544 C 1575.83 1.56535 -1.043 0
M  V30 16545 O 1575.18 1.81287 -0.0213039 0
M  V30 16546 C 1575.23 1.05546 -3.44808 0
M  V30 16547 O 1574.34 2.16977 -3.50706 0
M  V30 16548 H 1573.68 0.118905 -0.653267 0
M  V30 16549 H 1576.21 -0.265139 -2.02875 0
M  V30 16550 H 1576.22 1.38002 -3.83953 0
M  V30 16551 H 1574.89 0.270333 -4.1502 0
M  V30 16552 H 1573.47 1.85625 -3.23416 0
M  V30 16553 N 1575.65 1.57214 0.110213 0
M  V30 16554 C 1576.59 1.97641 1.16064 0
M  V30 16555 C 1577.6 0.876886 1.37166 0
M  V30 16556 O 1578.79 1.15512 1.36086 0
M  V30 16557 C 1575.89 2.2671 2.51904 0
M  V30 16558 C 1575.06 3.58015 2.51285 0
M  V30 16559 C 1574.12 3.75195 3.68938 0
M  V30 16560 O 1573.15 4.47214 3.5212 0
M  V30 16561 N 1574.35 3.14627 4.87842 0
M  V30 16562 H 1577.11 2.88358 0.816679 0
M  V30 16563 H 1574.67 1.59108 0.299383 0
M  V30 16564 H 1576.67 2.35411 3.29187 0
M  V30 16565 H 1575.24 1.42076 2.78448 0
M  V30 16566 H 1574.46 3.60422 1.59655 0
M  V30 16567 H 1575.74 4.44303 2.47936 0
M  V30 16568 H 1575.14 2.56101 5.0441 0
M  V30 16569 H 1573.7 3.28836 5.6277 0
M  V30 16570 N 1577.13 -0.380637 1.52934 0
M  V30 16571 C 1578.04 -1.48957 1.81243 0
M  V30 16572 C 1579.06 -1.5931 0.69974 0
M  V30 16573 O 1580.23 -1.75488 0.988218 0
M  V30 16574 C 1577.3 -2.84397 1.9829 0
M  V30 16575 C 1576.36 -2.83697 3.22202 0
M  V30 16576 C 1575.59 -4.12677 3.38427 0
M  V30 16577 O 1575.82 -5.08068 2.59274 0
M  V30 16578 O 1574.75 -4.19407 4.31719 0
M  V30 16579 H 1578.58 -1.27964 2.75425 0
M  V30 16580 H 1576.16 -0.56929 1.38128 0
M  V30 16581 H 1578.04 -3.64676 2.11161 0
M  V30 16582 H 1576.72 -3.054 1.07298 0
M  V30 16583 H 1575.63 -2.0217 3.14767 0
M  V30 16584 H 1576.96 -2.67648 4.13068 0
M  V30 16585 N 1578.61 -1.44039 -0.639573 0
M  V30 16586 C 1579.84 -1.50063 -1.43164 0
M  V30 16587 C 1580.26 -0.123906 -1.87691 0
M  V30 16588 O 1579.62 0.885192 -1.58221 0
M  V30 16589 C 1579.67 -2.46305 -2.63375 0
M  V30 16590 O 1578.77 -1.95874 -3.62915 0
M  V30 16591 H 1578.11 -0.507052 -0.428713 0
M  V30 16592 H 1580.64 -1.8909 -0.781415 0
M  V30 16593 H 1580.65 -2.64062 -3.11023 0
M  V30 16594 H 1579.33 -3.46309 -2.3031 0
M  V30 16595 H 1577.9 -1.87844 -3.22132 0
M  V30 16596 N 1580.09 0.879207 -1.30796 0
M  V30 16597 C 1581.02 2.00158 -1.20246 0
M  V30 16598 C 1582 1.69852 -0.091769 0
M  V30 16599 O 1583.18 1.92246 -0.274792 0
M  V30 16600 C 1580.31 3.3545 -0.899472 0
M  V30 16601 C 1579.27 3.80033 -1.96873 0
M  V30 16602 C 1578.59 5.12681 -1.51861 0
M  V30 16603 C 1579.89 3.98136 -3.38061 0
M  V30 16604 H 1581.59 2.09242 -2.14145 0
M  V30 16605 H 1579.13 1.00535 -1.03096 0
M  V30 16606 H 1581.09 4.13497 -0.812299 0
M  V30 16607 H 1579.81 3.26513 0.075189 0
M  V30 16608 H 1578.47 3.04219 -2.04564 0
M  V30 16609 H 1578.12 5.00178 -0.532063 0
M  V30 16610 H 1577.82 5.43482 -2.23386 0
M  V30 16611 H 1579.34 5.93247 -1.44534 0
M  V30 16612 H 1580.76 4.66604 -3.33096 0
M  V30 16613 H 1579.15 4.40321 -4.07722 0
M  V30 16614 H 1580.22 3.01807 -3.79526 0
M  V30 16615 N 1581.57 1.13606 1.09231 0
M  V30 16616 C 1582.79 0.922667 1.85746 0
M  V30 16617 C 1583.22 -0.523381 1.80672 0
M  V30 16618 O 1582.58 -1.37156 1.18566 0
M  V30 16619 C 1582.62 1.41762 3.31566 0
M  V30 16620 O 1581.73 0.60418 4.0795 0
M  V30 16621 H 1581.07 0.330523 0.575891 0
M  V30 16622 H 1583.6 1.51123 1.37924 0
M  V30 16623 H 1583.61 1.42212 3.82413 0
M  V30 16624 H 1582.28 2.47048 3.34574 0
M  V30 16625 H 1580.86 0.667721 3.66873 0
M  V30 16626 N 1583.05 -1.27244 0.929878 0
M  V30 16627 C 1584.32 -1.89369 0.489774 0
M  V30 16628 C 1584.7 -1.84142 -1.03222 0
M  V30 16629 O 1584.05 -1.2881 -1.88733 0
M  V30 16630 C 1584.26 -3.33196 1.03833 0
M  V30 16631 C 1585.61 -4.101 1.10013 0
M  V30 16632 O 1586.63 -3.42221 0.988106 0
M  V30 16633 O 1585.49 -5.31468 1.27296 0
M  V30 16634 H 1582.59 -0.811789 0.157882 0
M  V30 16635 H 1585.13 -1.35496 1.02171 0
M  V30 16636 H 1583.9 -3.31304 2.08214 0
M  V30 16637 H 1583.53 -3.94592 0.488167 0
M  V30 16638 N 1584.52 -0.695628 -1.41417 0
M  V30 16639 C 1585.43 -0.0308378 -2.3458 0
M  V30 16640 C 1586.45 0.766 -1.56232 0
M  V30 16641 O 1587.63 0.703548 -1.88712 0
M  V30 16642 C 1584.69 0.894162 -3.34971 0
M  V30 16643 C 1583.75 0.0895231 -4.29207 0
M  V30 16644 C 1582.98 0.970467 -5.24802 0
M  V30 16645 O 1583.21 2.20997 -5.25848 0
M  V30 16646 O 1582.14 0.420114 -6.00432 0
M  V30 16647 H 1585.97 -0.798775 -2.93007 0
M  V30 16648 H 1583.55 -0.455964 -1.42272 0
M  V30 16649 H 1585.43 1.42458 -3.9659 0
M  V30 16650 H 1584.11 1.64159 -2.78987 0
M  V30 16651 H 1583.02 -0.4855 -3.70936 0
M  V30 16652 H 1584.35 -0.619241 -4.88289 0
M  V30 16653 N 1586 1.51322 -0.440383 0
M  V30 16654 C 1586.91 2.31574 0.37561 0
M  V30 16655 C 1587.93 1.40617 1.02483 0
M  V30 16656 O 1589.1 1.73688 1.01953 0
M  V30 16657 C 1586.17 3.14441 1.4604 0
M  V30 16658 C 1585.23 4.21181 0.830991 0
M  V30 16659 C 1584.46 5.00087 1.86409 0
M  V30 16660 O 1584.69 4.79666 3.08669 0
M  V30 16661 O 1583.62 5.84101 1.45293 0
M  V30 16662 H 1587.45 3.0241 -0.27962 0
M  V30 16663 H 1585.03 1.48016 -0.202857 0
M  V30 16664 H 1586.91 3.6595 2.08946 0
M  V30 16665 H 1585.59 2.46366 2.09965 0
M  V30 16666 H 1584.49 3.73741 0.163798 0
M  V30 16667 H 1585.83 4.91638 0.235174 0
M  V30 16668 N 1587.48 0.171848 1.5666 0
M  V30 16669 C 1588.71 -0.478526 2.00982 0
M  V30 16670 C 1589.12 -1.57313 1.05115 0
M  V30 16671 O 1588.46 -1.83647 0.0441833 0
M  V30 16672 C 1588.52 -1.11633 3.41729 0
M  V30 16673 C 1588.19 -0.163307 4.56708 0
M  V30 16674 C 1589.18 0.618553 5.16207 0
M  V30 16675 C 1586.87 -0.0589794 5.02265 0
M  V30 16676 C 1588.86 1.49194 6.19693 0
M  V30 16677 C 1586.55 0.817987 6.05601 0
M  V30 16678 C 1587.55 1.59203 6.64186 0
M  V30 16679 O 1587.24 2.45434 7.65518 0
M  V30 16680 H 1586.97 -0.126833 0.663995 0
M  V30 16681 H 1589.52 0.270866 2.03606 0
M  V30 16682 H 1587.75 -1.91385 3.36019 0
M  V30 16683 H 1589.44 -1.66896 3.70001 0
M  V30 16684 H 1590.21 0.548127 4.81893 0
M  V30 16685 H 1586.09 -0.651245 4.56377 0
M  V30 16686 H 1589.63 2.09656 6.6535 0
M  V30 16687 H 1585.53 0.889614 6.3934 0
M  V30 16688 H 1586.29 2.38955 7.82843 0
M  V30 16689 N 1588.96 -1.5727 -0.101874 0
M  V30 16690 C 1589.92 -2.00625 -1.10826 0
M  V30 16691 C 1590.92 -0.89878 -1.33336 0
M  V30 16692 O 1592.11 -1.16442 -1.29564 0
M  V30 16693 C 1589.24 -2.36113 -2.45893 0
M  V30 16694 H 1590.44 -2.90748 -0.735238 0
M  V30 16695 H 1587.99 -1.52406 -0.346713 0
M  V30 16696 H 1588.72 -1.48923 -2.88084 0
M  V30 16697 H 1588.51 -3.169 -2.30904 0
M  V30 16698 H 1590 -2.70336 -3.1829 0
M  V30 16699 N 1590.44 0.372521 -1.53134 0
M  V30 16700 C 1591.37 1.4759 -1.75357 0
M  V30 16701 C 1592.38 1.49938 -0.634223 0
M  V30 16702 O 1593.57 1.53543 -0.910322 0
M  V30 16703 C 1590.67 2.86382 -1.81214 0
M  V30 16704 C 1589.84 3.0781 -3.1076 0
M  V30 16705 C 1588.9 4.26677 -3.07949 0
M  V30 16706 O 1587.93 4.22186 -3.81769 0
M  V30 16707 N 1589.13 5.33729 -2.28283 0
M  V30 16708 H 1591.89 1.28908 -2.7056 0
M  V30 16709 H 1589.46 0.562186 -1.51826 0
M  V30 16710 H 1591.45 3.64029 -1.7682 0
M  V30 16711 H 1590.02 2.98344 -0.933249 0
M  V30 16712 H 1589.24 2.17884 -3.28512 0
M  V30 16713 H 1590.53 3.18991 -3.96386 0
M  V30 16714 H 1589.92 5.40238 -1.67806 0
M  V30 16715 H 1588.48 6.09979 -2.29714 0
M  V30 16716 N 1591.91 1.44376 0.631925 0
M  V30 16717 C 1592.85 1.45649 1.75675 0
M  V30 16718 C 1593.82 0.31542 1.59511 0
M  V30 16719 O 1595.01 0.512271 1.81406 0
M  V30 16720 C 1592.14 1.2884 3.13238 0
M  V30 16721 C 1591.18 2.46499 3.48053 0
M  V30 16722 S 1592.01 4.0903 3.45622 0
M  V30 16723 C 1593.17 3.94643 4.85807 0
M  V30 16724 H 1593.4 2.40825 1.74328 0
M  V30 16725 H 1590.94 1.31664 0.806467 0
M  V30 16726 H 1592.89 1.19829 3.92621 0
M  V30 16727 H 1591.56 0.351754 3.12124 0
M  V30 16728 H 1590.75 2.30599 4.48152 0
M  V30 16729 H 1590.35 2.52245 2.76131 0
M  V30 16730 H 1592.64 3.58283 5.75012 0
M  V30 16731 H 1593.59 4.94569 5.06761 0
M  V30 16732 H 1593.99 3.26717 4.60343 0
M  V30 16733 N 1593.39 -0.872258 1.31261 0
M  V30 16734 C 1594.32 -1.9853 1.14537 0
M  V30 16735 C 1595.34 -1.62578 0.0850723 0
M  V30 16736 O 1596.53 -1.75379 0.332343 0
M  V30 16737 C 1593.63 -3.31005 0.72727 0
M  V30 16738 C 1592.8 -3.95313 1.87208 0
M  V30 16739 C 1591.86 -5.06101 1.44042 0
M  V30 16740 O 1590.88 -5.27045 2.1497 0
M  V30 16741 N 1592.09 -5.79581 0.32653 0
M  V30 16742 H 1594.85 -2.13423 2.10406 0
M  V30 16743 H 1592.41 -1.0461 1.23565 0
M  V30 16744 H 1594.4 -4.02502 0.421255 0
M  V30 16745 H 1592.97 -3.12287 -0.13975 0
M  V30 16746 H 1592.19 -3.16825 2.34553 0
M  V30 16747 H 1593.48 -4.35015 2.63893 0
M  V30 16748 H 1592.88 -5.65083 -0.264202 0
M  V30 16749 H 1591.44 -6.51751 0.0800358 0
M  V30 16750 N 1594.87 -1.14184 -1.08627 0
M  V30 16751 C 1595.82 -0.795361 -2.13677 0
M  V30 16752 C 1596.8 0.214426 -1.59465 0
M  V30 16753 O 1598 0.0171053 -1.76992 0
M  V30 16754 C 1595.12 -0.272074 -3.4222 0
M  V30 16755 C 1594.21 -1.31125 -4.0332 0
M  V30 16756 N 1594.6 -2.51469 -4.38859 0
M  V30 16757 C 1592.9 -1.16095 -4.30625 0
M  V30 16758 C 1593.6 -3.17975 -4.871 0
M  V30 16759 N 1592.58 -2.45382 -4.85066 0
M  V30 16760 H 1596.38 -1.71086 -2.38971 0
M  V30 16761 H 1593.89 -1.02537 -1.25936 0
M  V30 16762 H 1595.89 -0.00556906 -4.169 0
M  V30 16763 H 1594.55 0.637644 -3.18377 0
M  V30 16764 H 1595.56 -2.88714 -4.29959 0
M  V30 16765 H 1592.24 -0.310066 -4.16347 0
M  V30 16766 H 1593.63 -4.20569 -5.23996 0
M  V30 16767 N 1596.35 1.26749 -0.936613 0
M  V30 16768 C 1597.28 2.2892 -0.460213 0
M  V30 16769 C 1598.26 1.63065 0.484135 0
M  V30 16770 O 1599.44 1.90305 0.386973 0
M  V30 16771 C 1596.57 3.46172 0.279648 0
M  V30 16772 C 1595.53 4.24083 -0.57771 0
M  V30 16773 C 1594.85 5.33903 0.291843 0
M  V30 16774 C 1596.15 4.88562 -1.84673 0
M  V30 16775 H 1597.85 2.69019 -1.31412 0
M  V30 16776 H 1595.39 1.29325 -0.633333 0
M  V30 16777 H 1597.35 4.16755 0.623931 0
M  V30 16778 H 1596.07 3.05014 1.16765 0
M  V30 16779 H 1594.73 3.55258 -0.904824 0
M  V30 16780 H 1594.38 4.88986 1.17906 0
M  V30 16781 H 1594.08 5.8694 -0.278372 0
M  V30 16782 H 1595.6 6.07326 0.631498 0
M  V30 16783 H 1597.02 5.51384 -1.56997 0
M  V30 16784 H 1595.41 5.51697 -2.36115 0
M  V30 16785 H 1596.48 4.11761 -2.56088 0
M  V30 16786 N 1597.83 0.703118 1.41046 0
M  V30 16787 C 1598.79 0.0514476 2.29142 0
M  V30 16788 C 1599.79 -0.700223 1.44753 0
M  V30 16789 O 1600.98 -0.533985 1.65814 0
M  V30 16790 C 1598.11 -0.93735 3.2776 0
M  V30 16791 H 1599.3 0.827201 2.88266 0
M  V30 16792 H 1596.86 0.467045 1.49159 0
M  V30 16793 H 1597.59 -1.7406 2.7363 0
M  V30 16794 H 1597.38 -0.4014 3.9004 0
M  V30 16795 H 1598.87 -1.39088 3.93757 0
M  V30 16796 N 1599.3 -1.51086 0.448402 0
M  V30 16797 C 1600.72 -1.59278 0.101286 0
M  V30 16798 C 1600.92 -1.45847 -1.39036 0
M  V30 16799 O 1599.98 -1.30534 -2.16142 0
M  V30 16800 C 1601.29 -2.93999 0.631264 0
M  V30 16801 C 1602.84 -3.07337 0.59268 0
M  V30 16802 C 1603.31 -4.44599 1.09982 0
M  V30 16803 N 1604.8 -4.50949 1.05827 0
M  V30 16804 C 1605.54 -5.55503 1.42142 0
M  V30 16805 N 1605.03 -6.67422 1.85796 0
M  V30 16806 N 1606.83 -5.45922 1.33888 0
M  V30 16807 H 1598.98 -1.58062 1.41881 0
M  V30 16808 H 1601.24 -0.745702 0.585349 0
M  V30 16809 H 1600.95 -3.09233 1.67534 0
M  V30 16810 H 1600.82 -3.77149 0.0622533 0
M  V30 16811 H 1603.21 -2.91764 -0.442437 0
M  V30 16812 H 1603.29 -2.26 1.19823 0
M  V30 16813 H 1602.93 -4.60919 2.13345 0
M  V30 16814 H 1602.86 -5.24492 0.470703 0
M  V30 16815 H 1605.35 -3.70627 0.737822 0
M  V30 16816 H 1605.67 -7.43234 2.11714 0
M  V30 16817 H 1604.01 -6.68601 1.89731 0
M  V30 16818 H 1607.2 -4.57372 0.996415 0
M  V30 16819 H 1607.38 -6.2729 1.62517 0
M  V30 16820 N 1600.78 -0.180154 -1.56567 0
M  V30 16821 C 1601.71 0.742131 -2.21393 0
M  V30 16822 C 1602.69 1.23253 -1.1723 0
M  V30 16823 O 1603.88 1.28408 -1.45688 0
M  V30 16824 C 1601.01 1.96799 -2.8616 0
M  V30 16825 C 1599.96 1.6131 -3.96438 0
M  V30 16826 C 1599.29 2.91434 -4.48297 0
M  V30 16827 C 1600.59 0.834382 -5.15592 0
M  V30 16828 H 1602.28 0.201759 -2.98719 0
M  V30 16829 H 1599.83 0.0956016 -1.43682 0
M  V30 16830 H 1601.78 2.61828 -3.30188 0
M  V30 16831 H 1600.51 2.53264 -2.06215 0
M  V30 16832 H 1599.16 0.986451 -3.53079 0
M  V30 16833 H 1598.81 3.45958 -3.65133 0
M  V30 16834 H 1598.51 2.68439 -5.22699 0
M  V30 16835 H 1600.04 3.57478 -4.95017 0
M  V30 16836 H 1601.45 1.38745 -5.56258 0
M  V30 16837 H 1599.85 0.703132 -5.95966 0
M  V30 16838 H 1600.92 -0.167554 -4.8461 0
M  V30 16839 N 1602.26 1.57322 0.0935319 0
M  V30 16840 C 1603.22 2.0121 1.0976 0
M  V30 16841 C 1604.22 0.905839 1.32858 0
M  V30 16842 O 1605.41 1.17128 1.28945 0
M  V30 16843 C 1602.55 2.37414 2.44638 0
M  V30 16844 H 1603.74 2.91134 0.719809 0
M  V30 16845 H 1601.29 1.52588 0.338625 0
M  V30 16846 H 1602.03 1.50449 2.8729 0
M  V30 16847 H 1601.81 3.1812 2.2922 0
M  V30 16848 H 1603.3 2.7202 3.16851 0
M  V30 16849 N 1603.74 -0.364395 1.53329 0
M  V30 16850 C 1604.65 -1.47027 1.82812 0
M  V30 16851 C 1605.66 -1.58559 0.716598 0
M  V30 16852 O 1606.84 -1.7443 1.00678 0
M  V30 16853 C 1603.91 -2.82278 2.01295 0
M  V30 16854 C 1602.97 -2.80264 3.25193 0
M  V30 16855 C 1602.2 -4.09065 3.42785 0
M  V30 16856 O 1602.42 -5.0529 2.64648 0
M  V30 16857 O 1601.36 -4.14804 4.36144 0
M  V30 16858 H 1605.18 -1.25035 2.76767 0
M  V30 16859 H 1602.77 -0.554608 1.38724 0
M  V30 16860 H 1604.65 -3.62416 2.15017 0
M  V30 16861 H 1603.32 -3.04244 1.10531 0
M  V30 16862 H 1602.23 -1.9882 3.16893 0
M  V30 16863 H 1603.56 -2.63252 4.15884 0
M  V30 16864 N 1605.22 -1.44709 -0.62426 0
M  V30 16865 C 1606.16 -1.52413 -1.75707 0
M  V30 16866 C 1607.16 -0.395303 -1.64723 0
M  V30 16867 O 1608.36 -0.570535 -1.70719 0
M  V30 16868 H 1604.74 -0.478401 -0.580204 0
M  V30 16869 H 1606.71 -2.47742 -1.66333 0
M  V30 16870 C 1605.46 -1.49208 -3.14058 0
M  V30 16871 H 1604.78 -2.35387 -3.23161 0
M  V30 16872 H 1606.22 -1.58658 -3.93197 0
M  V30 16873 C 1604.68 -0.213877 -3.3622 0
M  V30 16874 O 1605.21 0.713128 -3.95319 0
M  V30 16875 N 1603.42 -0.114834 -2.90373 0
M  V30 16876 H 1602.96 -0.870047 -2.42462 0
M  V30 16877 H 1602.92 0.739619 -3.05576 0
M  V30 16878 N 1606.69 0.865285 -1.31722 0
M  V30 16879 C 1607.62 1.98871 -1.22362 0
M  V30 16880 C 1608.61 1.69745 -0.109779 0
M  V30 16881 O 1609.79 1.91944 -0.295167 0
M  V30 16882 C 1606.92 3.34477 -0.935 0
M  V30 16883 C 1605.87 3.77924 -2.00892 0
M  V30 16884 C 1605.2 5.11042 -1.57291 0
M  V30 16885 C 1606.5 3.94528 -3.42264 0
M  V30 16886 H 1608.19 2.06959 -2.16352 0
M  V30 16887 H 1605.74 0.994355 -1.04157 0
M  V30 16888 H 1607.69 4.12612 -0.856111 0
M  V30 16889 H 1606.42 3.26575 0.0405536 0
M  V30 16890 H 1605.08 3.02032 -2.07779 0
M  V30 16891 H 1604.72 4.99586 -0.585084 0
M  V30 16892 H 1604.42 5.41082 -2.29138 0
M  V30 16893 H 1605.95 5.91681 -1.50818 0
M  V30 16894 H 1607.36 4.63045 -3.38027 0
M  V30 16895 H 1605.76 4.35972 -4.12369 0
M  V30 16896 H 1606.83 2.97765 -3.82706 0
M  V30 16897 N 1608.17 1.14759 1.0802 0
M  V30 16898 C 1609.42 0.912823 1.79862 0
M  V30 16899 C 1609.73 -0.561873 1.87356 0
M  V30 16900 O 1610.94 -0.914015 2.55652 0
M  V30 16901 C 1609.4 1.58369 3.23183 0
M  V30 16902 C 1609 3.09493 3.23911 0
M  V30 16903 C 1610.75 1.43021 3.99682 0
M  V30 16904 C 1608.66 3.69398 4.61843 0
M  V30 16905 H 1607.59 0.337868 0.674063 0
M  V30 16906 H 1610.24 1.37695 1.21294 0
M  V30 16907 H 1608.62 1.04724 3.81902 0
M  V30 16908 H 1609.79 3.69838 2.74876 0
M  V30 16909 H 1608.11 3.24524 2.60908 0
M  V30 16910 H 1610.7 1.85174 5.01612 0
M  V30 16911 H 1611.05 0.376814 4.14591 0
M  V30 16912 H 1611.58 1.93724 3.47442 0
M  V30 16913 H 1608.32 4.74607 4.52138 0
M  V30 16914 H 1607.84 3.13835 5.11144 0
M  V30 16915 H 1609.52 3.69923 5.30816 0
M  V30 16916 N 1609.65 -1.26251 0.943322 0
M  V30 16917 C 1610.88 -1.98278 0.608341 0
M  V30 16918 C 1611.3 -1.69756 -0.810208 0
M  V30 16919 O 1610.66 -0.946846 -1.54611 0
M  V30 16920 C 1610.71 -3.50205 0.859591 0
M  V30 16921 O 1609.81 -4.12345 -0.0672371 0
M  V30 16922 H 1609.15 -0.621973 0.232477 0
M  V30 16923 H 1611.68 -1.60662 1.26684 0
M  V30 16924 H 1611.69 -4.00449 0.781341 0
M  V30 16925 H 1610.37 -3.70294 1.89354 0
M  V30 16926 H 1608.94 -3.72848 0.0622543 0
M  V30 16927 N 1611.13 -0.710588 -1.40671 0
M  V30 16928 C 1612.08 -0.0548139 -2.30735 0
M  V30 16929 C 1613.05 0.755572 -1.4792 0
M  V30 16930 O 1614.23 0.720541 -1.76672 0
M  V30 16931 C 1611.37 0.864648 -3.34093 0
M  V30 16932 C 1610.48 0.0442717 -4.31977 0
M  V30 16933 C 1609.62 0.962752 -5.22403 0
M  V30 16934 C 1608.66 0.13617 -6.11949 0
M  V30 16935 N 1607.8 1.00926 -6.94808 0
M  V30 16936 H 1612.64 -0.828555 -2.8625 0
M  V30 16937 H 1610.17 -0.420286 -1.40968 0
M  V30 16938 H 1612.13 1.41193 -3.92582 0
M  V30 16939 H 1610.76 1.60462 -2.80092 0
M  V30 16940 H 1609.81 -0.620132 -3.75311 0
M  V30 16941 H 1611.12 -0.595895 -4.95228 0
M  V30 16942 H 1610.28 1.57874 -5.85799 0
M  V30 16943 H 1609.02 1.63675 -4.59415 0
M  V30 16944 H 1608.02 -0.492793 -5.47587 0
M  V30 16945 H 1609.25 -0.534251 -6.76995 0
M  V30 16946 H 1607.19 1.669 -6.34413 0
M  V30 16947 H 1607.11 0.425013 -7.54804 0
M  V30 16948 H 1608.38 1.61159 -7.62659 0
M  V30 16949 N 1612.61 1.50847 -0.456408 0
M  V30 16950 C 1613.54 2.31077 0.335523 0
M  V30 16951 C 1614.52 1.37326 1.00377 0
M  V30 16952 O 1615.7 1.66247 1.00376 0
M  V30 16953 C 1612.83 3.16662 1.42627 0
M  V30 16954 C 1611.79 4.18846 0.88045 0
M  V30 16955 C 1611.11 4.93074 2.06838 0
M  V30 16956 C 1612.41 5.22208 -0.0982288 0
M  V30 16957 H 1614.11 2.97531 -0.334056 0
M  V30 16958 H 1611.65 1.43085 -0.162099 0
M  V30 16959 H 1613.61 3.71578 1.98765 0
M  V30 16960 H 1612.33 2.48066 2.12441 0
M  V30 16961 H 1610.99 3.65009 0.341147 0
M  V30 16962 H 1610.64 4.20963 2.75316 0
M  V30 16963 H 1610.34 5.62184 1.70947 0
M  V30 16964 H 1611.86 5.5082 2.63494 0
M  V30 16965 H 1613.28 5.72082 0.373481 0
M  V30 16966 H 1611.67 5.98954 -0.370674 0
M  V30 16967 H 1612.74 4.73859 -1.02887 0
M  V30 16968 N 1614.09 0.188454 1.56469 0
M  V30 16969 C 1615.03 -0.751822 2.20115 0
M  V30 16970 C 1616.03 -1.22476 1.1703 0
M  V30 16971 O 1617.23 -1.18843 1.3519 0
M  V30 16972 H 1613.61 -0.260778 0.705336 0
M  V30 16973 H 1615.58 -0.191249 2.97786 0
M  V30 16974 C 1614.33 -1.96365 2.86943 0
M  V30 16975 H 1613.65 -1.60879 3.66003 0
M  V30 16976 H 1615.09 -2.60007 3.34921 0
M  V30 16977 C 1613.55 -2.7982 1.87623 0
M  V30 16978 O 1614.08 -3.7753 1.37237 0
M  V30 16979 N 1612.29 -2.45179 1.55999 0
M  V30 16980 H 1611.83 -1.6578 1.97167 0
M  V30 16981 H 1611.79 -3.01302 0.898012 0
M  V30 16982 N 1615.56 -1.5737 -0.0851874 0
M  V30 16983 C 1616.84 -1.77624 -0.819094 0
M  V30 16984 C 1617.22 -0.772645 -1.96452 0
M  V30 16985 O 1616.57 0.196912 -2.2765 0
M  V30 16986 C 1616.78 -3.23704 -1.30449 0
M  V30 16987 C 1618.13 -3.87163 -1.74328 0
M  V30 16988 O 1619.15 -3.27513 -1.40048 0
M  V30 16989 O 1618.01 -4.92075 -2.37748 0
M  V30 16990 H 1615.1 -0.728487 -0.391453 0
M  V30 16991 H 1617.65 -1.6957 -0.0663006 0
M  V30 16992 H 1616.42 -3.88292 -0.484277 0
M  V30 16993 H 1616.04 -3.36429 -2.119 0
M  V30 16994 N 1617.04 0.356258 -1.53521 0
M  V30 16995 C 1617.97 1.44271 -1.83598 0
M  V30 16996 C 1618.95 1.5547 -0.690141 0
M  V30 16997 O 1620.14 1.69886 -0.940868 0
M  V30 16998 C 1617.27 2.8149 -2.03422 0
M  V30 16999 C 1616.22 2.85108 -3.19213 0
M  V30 17000 C 1615.55 4.25091 -3.24348 0
M  V30 17001 C 1616.85 2.51788 -4.57602 0
M  V30 17002 H 1618.54 1.1935 -2.74583 0
M  V30 17003 H 1616.09 0.572707 -1.32121 0
M  V30 17004 H 1618.04 3.57531 -2.23046 0
M  V30 17005 H 1616.76 3.07819 -1.09155 0
M  V30 17006 H 1615.42 2.1152 -2.99424 0
M  V30 17007 H 1615.07 4.4851 -2.277 0
M  V30 17008 H 1614.77 4.28426 -4.0215 0
M  V30 17009 H 1616.3 5.02992 -3.46167 0
M  V30 17010 H 1617.71 3.17542 -4.77326 0
M  V30 17011 H 1616.11 2.66426 -5.37715 0
M  V30 17012 H 1617.18 1.4701 -4.62078 0
M  V30 17013 N 1618.52 1.45038 0.616577 0
M  V30 17014 C 1619.74 1.52321 1.40759 0
M  V30 17015 C 1620.17 0.15375 1.87471 0
M  V30 17016 O 1619.53 -0.859908 1.5961 0
M  V30 17017 C 1619.58 2.50464 2.59423 0
M  V30 17018 O 1618.68 2.01623 3.59753 0
M  V30 17019 H 1618.02 0.513808 0.420592 0
M  V30 17020 H 1620.55 1.90309 0.751234 0
M  V30 17021 H 1620.56 2.68977 3.06783 0
M  V30 17022 H 1619.24 3.4993 2.24771 0
M  V30 17023 H 1617.81 1.92945 3.19103 0
M  V30 17024 N 1620 -0.858287 1.32179 0
M  V30 17025 C 1620.94 -1.96656 1.20811 0
M  V30 17026 C 1621.91 -1.6585 0.0911199 0
M  V30 17027 O 1623.1 -1.88936 0.266033 0
M  V30 17028 C 1620.24 -3.32237 0.933408 0
M  V30 17029 C 1619.35 -3.75564 2.13484 0
M  V30 17030 C 1618.49 -4.9992 1.79593 0
M  V30 17031 C 1617.53 -5.35728 2.96077 0
M  V30 17032 N 1616.66 -6.51261 2.62304 0
M  V30 17033 H 1621.5 -2.05711 2.15609 0
M  V30 17034 H 1619.04 -1.00689 1.07239 0
M  V30 17035 H 1621 -4.10318 0.754651 0
M  V30 17036 H 1619.63 -3.22792 0.0222279 0
M  V30 17037 H 1618.68 -2.93167 2.42399 0
M  V30 17038 H 1619.99 -3.98025 3.00629 0
M  V30 17039 H 1619.15 -5.85698 1.58248 0
M  V30 17040 H 1617.89 -4.79388 0.896561 0
M  V30 17041 H 1616.89 -4.48463 3.18058 0
M  V30 17042 H 1618.12 -5.58219 3.86741 0
M  V30 17043 H 1616.06 -6.32254 1.74904 0
M  V30 17044 H 1615.98 -6.73722 3.42979 0
M  V30 17045 H 1617.25 -7.40202 2.4438 0
M  V30 17046 N 1621.48 -1.1533 -1.07409 0
M  V30 17047 C 1622.72 -0.922348 -1.79376 0
M  V30 17048 C 1623.04 0.551929 -1.87652 0
M  V30 17049 O 1624.24 0.900444 -2.56133 0
M  V30 17050 C 1622.7 -1.60081 -3.22339 0
M  V30 17051 C 1622.31 -3.11206 -3.22265 0
M  V30 17052 C 1624.05 -1.45138 -3.98917 0
M  V30 17053 C 1621.96 -3.71842 -4.59878 0
M  V30 17054 H 1620.89 -0.341438 -0.672262 0
M  V30 17055 H 1623.54 -1.38336 -1.20562 0
M  V30 17056 H 1621.92 -1.06748 -3.81341 0
M  V30 17057 H 1623.1 -3.7129 -2.72911 0
M  V30 17058 H 1621.41 -3.25903 -2.59183 0
M  V30 17059 H 1624.01 -1.87832 -5.00623 0
M  V30 17060 H 1624.35 -0.398796 -4.14385 0
M  V30 17061 H 1624.88 -1.95564 -3.46409 0
M  V30 17062 H 1621.62 -4.76998 -4.49614 0
M  V30 17063 H 1621.14 -3.16541 -5.09472 0
M  V30 17064 H 1622.82 -3.72733 -5.28847 0
M  V30 17065 N 1622.95 1.25748 -0.950004 0
M  V30 17066 C 1623.9 2.23767 -0.43731 0
M  V30 17067 C 1624.89 1.53856 0.47088 0
M  V30 17068 O 1626.08 1.74358 0.304687 0
M  V30 17069 C 1623.21 3.4209 0.288037 0
M  V30 17070 C 1622.29 4.19274 -0.637955 0
M  V30 17071 N 1622.69 4.73909 -1.76759 0
M  V30 17072 C 1620.98 4.43772 -0.445251 0
M  V30 17073 C 1621.68 5.32323 -2.34535 0
M  V30 17074 N 1620.66 5.18511 -1.63239 0
M  V30 17075 H 1624.46 2.6361 -1.29949 0
M  V30 17076 H 1621.98 1.40934 -0.806931 0
M  V30 17077 H 1623.97 4.11441 0.672433 0
M  V30 17078 H 1622.63 3.03771 1.14688 0
M  V30 17079 H 1623.64 4.71184 -2.14955 0
M  V30 17080 H 1620.32 4.15848 0.37109 0
M  V30 17081 H 1621.71 5.85411 -3.29763 0
M  V30 17082 N 1624.43 0.718038 1.40292 0
M  V30 17083 C 1625.36 0.0276294 2.29183 0
M  V30 17084 C 1626.38 -0.721208 1.45954 0
M  V30 17085 O 1627.57 -0.568181 1.69216 0
M  V30 17086 C 1624.67 -0.985139 3.24266 0
M  V30 17087 C 1623.84 -0.301327 4.36361 0
M  V30 17088 C 1622.9 -1.21982 5.11866 0
M  V30 17089 O 1621.92 -0.70369 5.64833 0
M  V30 17090 N 1623.13 -2.55079 5.21455 0
M  V30 17091 H 1625.89 0.790884 2.89076 0
M  V30 17092 H 1623.45 0.565867 1.51689 0
M  V30 17093 H 1625.44 -1.60183 3.7165 0
M  V30 17094 H 1624.01 -1.64973 2.65523 0
M  V30 17095 H 1623.23 0.495594 3.91072 0
M  V30 17096 H 1624.52 0.173238 5.08505 0
M  V30 17097 H 1623.92 -2.99506 4.79909 0
M  V30 17098 H 1622.48 -3.11886 5.72338 0
M  V30 17099 N 1625.91 -1.50602 0.464402 0
M  V30 17100 C 1626.86 -2.25271 -0.351736 0
M  V30 17101 C 1627.84 -1.28586 -0.967185 0
M  V30 17102 O 1629.04 -1.53526 -0.880843 0
M  V30 17103 C 1626.17 -3.11777 -1.43701 0
M  V30 17104 C 1625.25 -4.15906 -0.82962 0
M  V30 17105 N 1625.64 -5.05779 0.0460845 0
M  V30 17106 C 1623.94 -4.32367 -1.0943 0
M  V30 17107 C 1624.64 -5.80391 0.390094 0
M  V30 17108 N 1623.62 -5.431 -0.233071 0
M  V30 17109 H 1627.42 -2.9212 0.322964 0
M  V30 17110 H 1624.93 -1.60001 0.278131 0
M  V30 17111 H 1626.93 -3.6387 -2.03481 0
M  V30 17112 H 1625.59 -2.46475 -2.11377 0
M  V30 17113 H 1626.6 -5.16239 0.414453 0
M  V30 17114 H 1623.28 -3.78285 -1.76654 0
M  V30 17115 H 1624.67 -6.62762 1.10435 0
M  V30 17116 N 1627.39 -0.19675 -1.56367 0
M  V30 17117 C 1628.63 0.442238 -1.97919 0
M  V30 17118 C 1628.97 1.61156 -1.08362 0
M  V30 17119 O 1628.24 1.94024 -0.135969 0
M  V30 17120 C 1628.53 0.90078 -3.48652 0
M  V30 17121 C 1628.38 -0.270471 -4.48986 0
M  V30 17122 C 1629.7 1.7657 -4.03126 0
M  V30 17123 H 1626.82 0.159276 -0.719583 0
M  V30 17124 H 1629.46 -0.288004 -1.87805 0
M  V30 17125 H 1627.61 1.52302 -3.57402 0
M  V30 17126 H 1629.28 -0.908176 -4.52272 0
M  V30 17127 H 1627.52 -0.921973 -4.23889 0
M  V30 17128 H 1628.19 0.0929101 -5.51922 0
M  V30 17129 H 1630.67 1.24091 -3.97166 0
M  V30 17130 H 1629.55 2.0555 -5.0896 0
M  V30 17131 H 1629.81 2.72047 -3.48486 0
M  V30 17132 N 1628.87 1.57413 0.0768405 0
M  V30 17133 C 1630.09 1.91607 0.793833 0
M  V30 17134 C 1630.52 0.792708 1.70581 0
M  V30 17135 O 1629.87 -0.25475 1.79501 0
M  V30 17136 C 1629.92 3.24736 1.56776 0
M  V30 17137 O 1629.03 3.13613 2.67807 0
M  V30 17138 H 1628.37 0.627572 0.216908 0
M  V30 17139 H 1630.9 2.04547 0.0465957 0
M  V30 17140 H 1630.91 3.58488 1.94809 0
M  V30 17141 H 1629.58 4.06077 0.898588 0
M  V30 17142 H 1628.16 2.91411 2.32668 0
M  V30 17143 N 1630.34 -0.348112 1.53707 0
M  V30 17144 C 1631.59 -1.09048 1.70987 0
M  V30 17145 C 1631.92 -1.88444 0.469305 0
M  V30 17146 O 1631.2 -1.87037 -0.533629 0
M  V30 17147 C 1631.48 -2.03542 2.97057 0
M  V30 17148 C 1631.33 -1.27638 4.3131 0
M  V30 17149 C 1632.65 -3.03424 3.18782 0
M  V30 17150 H 1629.77 -0.395049 0.622178 0
M  V30 17151 H 1632.41 -0.369498 1.86373 0
M  V30 17152 H 1630.56 -2.65021 2.8407 0
M  V30 17153 H 1632.24 -0.688079 4.56139 0
M  V30 17154 H 1630.48 -0.578349 4.29927 0
M  V30 17155 H 1631.15 -1.96891 5.15692 0
M  V30 17156 H 1633.63 -2.52056 3.31069 0
M  V30 17157 H 1632.5 -3.66748 4.08396 0
M  V30 17158 H 1632.76 -3.74553 2.34866 0
M  V30 17159 N 1631.82 -1.45363 -0.608876 0
M  V30 17160 C 1632.75 -1.56778 -1.7304 0
M  V30 17161 C 1633.73 -0.419405 -1.64848 0
M  V30 17162 O 1634.92 -0.64238 -1.83268 0
M  V30 17163 C 1632.05 -1.5329 -3.1164 0
M  V30 17164 C 1631 -2.66832 -3.34641 0
M  V30 17165 C 1630.33 -2.48398 -4.735 0
M  V30 17166 C 1631.63 -4.0885 -3.25021 0
M  V30 17167 H 1633.32 -2.50656 -1.63743 0
M  V30 17168 H 1630.87 -1.20635 -0.786338 0
M  V30 17169 H 1632.82 -1.59873 -3.89895 0
M  V30 17170 H 1631.55 -0.559414 -3.21773 0
M  V30 17171 H 1630.2 -2.59675 -2.58775 0
M  V30 17172 H 1629.85 -1.49191 -4.80366 0
M  V30 17173 H 1629.55 -3.24537 -4.89846 0
M  V30 17174 H 1631.08 -2.56833 -5.53958 0
M  V30 17175 H 1632.49 -4.17257 -3.93153 0
M  V30 17176 H 1630.89 -4.85369 -3.52897 0
M  V30 17177 H 1631.96 -4.30849 -2.2248 0
M  V30 17178 N 1633.3 0.851265 -1.32632 0
M  V30 17179 C 1634.23 1.96408 -1.16187 0
M  V30 17180 C 1635.21 1.62488 -0.0604559 0
M  V30 17181 O 1636.4 1.87207 -0.220397 0
M  V30 17182 C 1633.52 3.29611 -0.779378 0
M  V30 17183 C 1632.57 3.82509 -1.88652 0
M  V30 17184 S 1633.4 4.05687 -3.4954 0
M  V30 17185 C 1634.56 5.4186 -3.1327 0
M  V30 17186 H 1634.79 2.10056 -2.10389 0
M  V30 17187 H 1632.32 1.00363 -1.17332 0
M  V30 17188 H 1634.28 4.06587 -0.565463 0
M  V30 17189 H 1632.94 3.1377 0.143841 0
M  V30 17190 H 1632.14 4.78858 -1.57196 0
M  V30 17191 H 1631.74 3.12388 -2.05645 0
M  V30 17192 H 1634.03 6.24233 -2.63325 0
M  V30 17193 H 1634.97 5.7828 -4.08654 0
M  V30 17194 H 1635.38 5.06025 -2.50199 0
M  V30 17195 N 1634.78 1.15898 1.06796 0
M  V30 17196 C 1636.03 0.935488 1.79145 0
M  V30 17197 C 1636.35 -0.538433 1.87419 0
M  V30 17198 O 1635.62 -1.39124 1.37917 0
M  V30 17199 H 1634.2 0.343123 0.663533 0
M  V30 17200 H 1636.86 1.4607 1.29034 0
M  V30 17201 H 1635.96 1.34978 2.81402 0
M  V30 17202 N 1636.26 -1.25243 0.956659 0
M  V30 17203 C 1637.48 -1.97621 0.629337 0
M  V30 17204 C 1637.91 -1.70606 -0.792158 0
M  V30 17205 O 1637.26 -0.963192 -1.53598 0
M  V30 17206 C 1637.31 -3.49273 0.896687 0
M  V30 17207 O 1636.42 -4.12393 -0.0234986 0
M  V30 17208 H 1635.76 -0.619472 0.239061 0
M  V30 17209 H 1638.29 -1.5931 1.28381 0
M  V30 17210 H 1638.3 -3.99597 0.82377 0
M  V30 17211 H 1636.97 -3.68265 1.93271 0
M  V30 17212 H 1635.55 -3.72761 0.101796 0
M  V30 17213 N 1637.73 -0.725468 -1.3991 0
M  V30 17214 C 1638.98 -0.26965 -2.00999 0
M  V30 17215 C 1639.31 1.13727 -1.57416 0
M  V30 17216 O 1638.59 1.77345 -0.798693 0
M  V30 17217 C 1638.87 -0.360784 -3.58288 0
M  V30 17218 C 1638.72 -1.80679 -4.11916 0
M  V30 17219 C 1640.04 0.262328 -4.39317 0
M  V30 17220 H 1637.16 -0.0994547 -0.730259 0
M  V30 17221 H 1639.8 -0.91983 -1.6625 0
M  V30 17222 H 1637.95 0.192779 -3.88021 0
M  V30 17223 H 1639.63 -2.4165 -3.92942 0
M  V30 17224 H 1637.87 -2.33127 -3.65834 0
M  V30 17225 H 1638.54 -1.82189 -5.21068 0
M  V30 17226 H 1641.02 -0.209452 -4.15573 0
M  V30 17227 H 1639.89 0.168166 -5.48642 0
M  V30 17228 H 1640.15 1.34716 -4.21075 0
M  V30 17229 N 1639.21 1.50354 -0.472382 0
M  V30 17230 C 1640.16 2.30173 0.335135 0
M  V30 17231 C 1641.15 1.37517 0.98921 0
M  V30 17232 O 1642.36 1.54703 0.920168 0
M  V30 17233 H 1638.74 0.741212 0.126918 0
M  V30 17234 H 1640.71 2.96239 -0.358449 0
M  V30 17235 C 1639.46 3.18104 1.40375 0
M  V30 17236 H 1638.78 3.8931 0.90984 0
M  V30 17237 H 1640.22 3.76947 1.94132 0
M  V30 17238 C 1638.68 2.35785 2.40639 0
M  V30 17239 O 1639.21 2.04185 3.45936 0
M  V30 17240 N 1637.41 1.98342 2.12389 0
M  V30 17241 H 1636.96 2.2424 1.26784 0
M  V30 17242 H 1636.92 1.43567 2.79707 0
M  V30 17243 N 1640.69 0.205039 1.56261 0
M  V30 17244 C 1641.65 -0.698166 2.18308 0
M  V30 17245 C 1642.65 -1.13376 1.14029 0
M  V30 17246 O 1643.84 -1.04524 1.39357 0
M  V30 17247 C 1640.98 -1.95438 2.79315 0
M  V30 17248 H 1642.17 -0.157462 2.99486 0
M  V30 17249 H 1639.72 -0.0445849 1.56236 0
M  V30 17250 H 1640.46 -2.53736 2.01962 0
M  V30 17251 H 1640.24 -1.65068 3.55662 0
M  V30 17252 H 1641.73 -2.59824 3.26927 0
M  V30 17253 N 1642.17 -1.57451 -0.0684915 0
M  V30 17254 C 1643.39 -1.92025 -0.78366 0
M  V30 17255 C 1643.82 -0.801743 -1.70158 0
M  V30 17256 O 1643.18 0.245227 -1.79634 0
M  V30 17257 C 1643.23 -3.25563 -1.55051 0
M  V30 17258 O 1642.33 -3.15029 -2.6614 0
M  V30 17259 H 1641.67 -0.628714 -0.213576 0
M  V30 17260 H 1644.2 -2.04569 -0.0357474 0
M  V30 17261 H 1644.21 -3.59516 -1.92905 0
M  V30 17262 H 1642.89 -4.06547 -0.87704 0
M  V30 17263 H 1641.46 -2.9264 -2.31119 0
M  V30 17264 N 1643.65 0.339955 -1.5389 0
M  V30 17265 C 1644.61 1.40058 -1.81429 0
M  V30 17266 C 1645.61 1.45458 -0.685463 0
M  V30 17267 O 1646.8 1.45771 -0.953754 0
M  V30 17268 C 1643.93 2.78952 -1.95955 0
M  V30 17269 H 1645.13 1.16902 -2.76178 0
M  V30 17270 H 1642.68 0.574543 -1.45357 0
M  V30 17271 H 1643.41 3.07387 -1.03361 0
M  V30 17272 H 1643.2 2.76429 -2.78082 0
M  V30 17273 H 1644.69 3.55713 -2.18765 0
M  V30 17274 N 1645.13 1.45684 0.601159 0
M  V30 17275 C 1646.07 1.55189 1.7326 0
M  V30 17276 C 1647.07 0.421459 1.64073 0
M  V30 17277 O 1648.27 0.597622 1.6979 0
M  V30 17278 H 1644.65 0.487571 0.572519 0
M  V30 17279 H 1646.62 2.50357 1.6237 0
M  V30 17280 C 1645.37 1.54185 3.11644 0
M  V30 17281 H 1644.69 2.40498 3.19375 0
M  V30 17282 H 1646.13 1.64893 3.90623 0
M  V30 17283 C 1644.59 0.267339 3.35838 0
M  V30 17284 O 1645.12 -0.650146 3.96404 0
M  V30 17285 N 1643.33 0.161015 2.90154 0
M  V30 17286 H 1642.87 0.90851 2.41047 0
M  V30 17287 H 1642.83 -0.690911 3.06714 0
M  V30 17288 N 1646.6 -0.84422 1.33082 0
M  V30 17289 C 1647.85 -1.59404 1.23585 0
M  V30 17290 C 1648.17 -1.94593 -0.198208 0
M  V30 17291 O 1649.37 -2.68307 -0.415138 0
M  V30 17292 C 1647.83 -2.87489 2.16513 0
M  V30 17293 C 1647.44 -2.59685 3.65059 0
M  V30 17294 C 1649.18 -3.6551 2.15877 0
M  V30 17295 C 1647.09 -3.83834 4.49917 0
M  V30 17296 H 1646.02 -0.598191 0.459003 0
M  V30 17297 H 1648.67 -0.931299 1.58111 0
M  V30 17298 H 1647.05 -3.55276 1.74913 0
M  V30 17299 H 1648.22 -2.00143 4.15065 0
M  V30 17300 H 1646.54 -1.94977 3.6793 0
M  V30 17301 H 1649.14 -4.57654 2.76509 0
M  V30 17302 H 1649.48 -4.00031 1.15244 0
M  V30 17303 H 1650.01 -3.0464 2.55811 0
M  V30 17304 H 1646.75 -3.54448 5.51404 0
M  V30 17305 H 1646.27 -4.42734 4.04656 0
M  V30 17306 H 1647.95 -4.51468 4.63449 0
M  V30 17307 N 1648.08 -1.16463 -1.0618 0
M  V30 17308 C 1649.01 -0.895399 -2.1565 0
M  V30 17309 C 1649.99 0.158729 -1.69358 0
M  V30 17310 O 1651.18 0.010586 -1.94197 0
M  V30 17311 C 1648.31 -0.396959 -3.45024 0
M  V30 17312 C 1647.26 -1.38913 -4.0483 0
M  V30 17313 C 1646.59 -0.749043 -5.29427 0
M  V30 17314 C 1647.89 -2.7591 -4.43476 0
M  V30 17315 H 1649.58 -1.81085 -2.38429 0
M  V30 17316 H 1647.13 -0.872098 -1.14588 0
M  V30 17317 H 1649.08 -0.196086 -4.20944 0
M  V30 17318 H 1647.8 0.554002 -3.21867 0
M  V30 17319 H 1646.46 -1.57657 -3.30968 0
M  V30 17320 H 1646.11 0.208439 -5.02568 0
M  V30 17321 H 1645.81 -1.41128 -5.704 0
M  V30 17322 H 1647.34 -0.558217 -6.08043 0
M  V30 17323 H 1648.75 -2.60942 -5.10473 0
M  V30 17324 H 1647.15 -3.38618 -4.95437 0
M  V30 17325 H 1648.22 -3.31076 -3.54284 0
M  V30 17326 N 1649.56 1.24734 -0.963288 0
M  V30 17327 C 1650.51 2.27557 -0.481704 0
M  V30 17328 C 1651.5 1.63245 0.452488 0
M  V30 17329 O 1652.71 1.76981 0.328263 0
M  V30 17330 H 1649.08 0.73936 -0.137297 0
M  V30 17331 H 1651.05 2.65555 -1.361 0
M  V30 17332 C 1649.8 3.47023 0.216806 0
M  V30 17333 H 1649.13 3.9675 -0.492916 0
M  V30 17334 H 1650.57 4.20828 0.517659 0
M  V30 17335 C 1649.02 3.04466 1.44229 0
M  V30 17336 O 1649.55 3.11238 2.53956 0
M  V30 17337 N 1647.76 2.59563 1.30674 0
M  V30 17338 H 1647.31 2.54252 0.41395 0
M  V30 17339 H 1647.27 2.31453 2.12783 0
M  V30 17340 N 1651.04 0.732878 1.39523 0
M  V30 17341 C 1652.31 0.20629 1.94509 0
M  V30 17342 C 1652.69 -1.29152 1.66982 0
M  V30 17343 O 1652.04 -2.05607 0.996895 0
M  V30 17344 C 1652.25 0.537619 3.44834 0
M  V30 17345 C 1653.6 0.485787 4.21812 0
M  V30 17346 O 1654.62 0.474686 3.53023 0
M  V30 17347 O 1653.48 0.478457 5.44402 0
M  V30 17348 H 1650.58 0.0369228 0.826175 0
M  V30 17349 H 1653.12 0.811591 1.49035 0
M  V30 17350 H 1651.9 1.57289 3.58296 0
M  V30 17351 H 1651.52 -0.0967601 3.97482 0
M  V30 17352 N 1652.52 -1.50101 0.480349 0
M  V30 17353 C 1653.76 -2.01567 -0.073165 0
M  V30 17354 C 1654.08 -1.36657 -1.39944 0
M  V30 17355 O 1655.28 -1.79332 -2.03844 0
M  V30 17356 C 1653.74 -3.59445 -0.180889 0
M  V30 17357 C 1653.35 -4.33318 1.1375 0
M  V30 17358 C 1655.09 -4.18923 -0.685868 0
M  V30 17359 C 1653 -5.83003 0.99307 0
M  V30 17360 H 1651.93 -0.753358 -0.0311179 0
M  V30 17361 H 1654.58 -1.72829 0.616648 0
M  V30 17362 H 1652.96 -3.84811 -0.934693 0
M  V30 17363 H 1654.14 -4.1967 1.90299 0
M  V30 17364 H 1652.45 -3.85492 1.57431 0
M  V30 17365 H 1655.05 -5.28512 -0.811109 0
M  V30 17366 H 1655.39 -3.80916 -1.67955 0
M  V30 17367 H 1655.92 -3.97799 0.0108117 0
M  V30 17368 H 1652.66 -6.25499 1.9604 0
M  V30 17369 H 1652.18 -5.992 0.268128 0
M  V30 17370 H 1653.86 -6.4359 0.663417 0
M  V30 17371 N 1653.99 -0.213323 -1.5615 0
M  V30 17372 C 1655.24 0.420598 -1.98084 0
M  V30 17373 C 1655.57 1.60355 -1.10075 0
M  V30 17374 O 1654.82 1.95171 -0.143848 0
M  V30 17375 C 1655.12 0.905764 -3.45732 0
M  V30 17376 C 1654.79 -0.165778 -4.50595 0
M  V30 17377 C 1653.45 -0.460161 -4.78995 0
M  V30 17378 C 1655.8 -0.890891 -5.1353 0
M  V30 17379 C 1653.13 -1.48432 -5.67613 0
M  V30 17380 C 1655.48 -1.90433 -6.03256 0
M  V30 17381 C 1654.15 -2.20572 -6.30004 0
M  V30 17382 H 1653.42 0.153908 -0.72484 0
M  V30 17383 H 1656.06 -0.314117 -1.88906 0
M  V30 17384 H 1654.37 1.71909 -3.52072 0
M  V30 17385 H 1656.07 1.40596 -3.75545 0
M  V30 17386 H 1652.66 0.0738261 -4.28536 0
M  V30 17387 H 1656.84 -0.676696 -4.91665 0
M  V30 17388 H 1652.1 -1.72354 -5.86604 0
M  V30 17389 H 1656.27 -2.47131 -6.51075 0
M  V30 17390 H 1653.9 -3.00074 -6.9847 0
M  V30 17391 N 1655.47 1.57485 0.0601405 0
M  V30 17392 C 1656.7 1.91772 0.768565 0
M  V30 17393 C 1657.11 0.808661 1.71048 0
M  V30 17394 O 1656.45 -0.226062 1.82304 0
M  V30 17395 C 1656.52 3.21623 1.6062 0
M  V30 17396 C 1656.18 4.49355 0.832411 0
M  V30 17397 C 1657.18 5.19694 0.146434 0
M  V30 17398 C 1654.86 4.95951 0.796137 0
M  V30 17399 C 1656.86 6.34887 -0.565461 0
M  V30 17400 C 1654.54 6.11047 0.0804763 0
M  V30 17401 C 1655.54 6.80367 -0.599112 0
M  V30 17402 O 1655.23 7.93266 -1.30322 0
M  V30 17403 H 1654.96 0.638161 0.222994 0
M  V30 17404 H 1657.51 2.05376 0.0311569 0
M  V30 17405 H 1655.74 3.0426 2.38668 0
M  V30 17406 H 1657.43 3.41471 2.19436 0
M  V30 17407 H 1658.2 4.84717 0.16569 0
M  V30 17408 H 1654.08 4.4186 1.31457 0
M  V30 17409 H 1657.62 6.88929 -1.09646 0
M  V30 17410 H 1653.52 6.45473 0.0591881 0
M  V30 17411 H 1654.29 8.09452 -1.21369 0
M  V30 17412 N 1656.95 -0.331789 1.54068 0
M  V30 17413 C 1658.2 -1.06858 1.71539 0
M  V30 17414 C 1658.52 -1.88808 0.487506 0
M  V30 17415 O 1657.79 -1.8945 -0.498539 0
M  V30 17416 H 1656.37 -0.3975 0.632457 0
M  V30 17417 H 1659.03 -0.370216 1.91352 0
M  V30 17418 H 1658.13 -1.73929 2.59143 0
M  V30 17419 N 1658.43 -1.46001 -0.593424 0
M  V30 17420 C 1659.36 -1.51774 -1.71748 0
M  V30 17421 C 1660.37 -0.407093 -1.57628 0
M  V30 17422 O 1661.56 -0.674903 -1.65249 0
M  V30 17423 C 1658.66 -1.3718 -3.09895 0
M  V30 17424 C 1657.84 -2.62173 -3.5012 0
M  V30 17425 C 1656.89 -2.41933 -4.67285 0
M  V30 17426 O 1655.92 -3.15611 -4.73686 0
M  V30 17427 N 1657.12 -1.47405 -5.61473 0
M  V30 17428 H 1659.89 -2.48689 -1.67253 0
M  V30 17429 H 1657.45 -1.41921 -0.779111 0
M  V30 17430 H 1659.44 -1.21428 -3.86054 0
M  V30 17431 H 1658.01 -0.484876 -3.08817 0
M  V30 17432 H 1657.23 -2.92943 -2.63777 0
M  V30 17433 H 1658.52 -3.45229 -3.73758 0
M  V30 17434 H 1657.92 -0.866282 -5.59028 0
M  V30 17435 H 1656.47 -1.3762 -6.37106 0
M  V30 17436 N 1659.91 0.83715 -1.33527 0
M  V30 17437 C 1661.18 1.57727 -1.15678 0
M  V30 17438 C 1661.56 2.09286 0.276178 0
M  V30 17439 O 1660.91 1.89589 1.27547 0
M  V30 17440 C 1661.12 2.70978 -2.19936 0
M  V30 17441 C 1662.47 3.40114 -2.5418 0
M  V30 17442 O 1663.49 2.81221 -2.18616 0
M  V30 17443 O 1662.35 4.46431 -3.15217 0
M  V30 17444 H 1659.45 0.69545 -0.447525 0
M  V30 17445 H 1661.99 0.879756 -1.45115 0
M  V30 17446 H 1660.76 2.30532 -3.16181 0
M  V30 17447 H 1660.39 3.48393 -1.91594 0
M  V30 17448 N 1661.38 1.17024 1.05561 0
M  V30 17449 C 1662.61 0.981293 1.82717 0
M  V30 17450 C 1663.03 -0.465636 1.82246 0
M  V30 17451 O 1662.39 -1.33315 1.22869 0
M  V30 17452 C 1662.44 1.52239 3.26888 0
M  V30 17453 O 1661.54 0.73366 4.05822 0
M  V30 17454 H 1660.89 0.348677 0.565084 0
M  V30 17455 H 1663.42 1.55435 1.33046 0
M  V30 17456 H 1663.43 1.54306 3.77695 0
M  V30 17457 H 1662.1 2.57567 3.26545 0
M  V30 17458 H 1660.68 0.784101 3.64563 0
M  V30 17459 N 1662.86 -1.24221 0.969889 0
M  V30 17460 C 1664.11 -1.91973 0.631725 0
M  V30 17461 C 1664.43 -1.76169 -0.836032 0
M  V30 17462 O 1663.7 -1.13459 -1.597 0
M  V30 17463 H 1662.28 -0.710497 0.230658 0
M  V30 17464 H 1664.94 -1.51069 1.23143 0
M  V30 17465 H 1664.04 -2.99606 0.874223 0
M  V30 17466 N 1664.34 -0.740267 -1.39132 0
M  V30 17467 C 1665.29 -0.0929334 -2.32414 0
M  V30 17468 C 1666.28 0.720062 -1.53334 0
M  V30 17469 O 1667.49 0.620656 -1.68961 0
M  V30 17470 H 1663.86 -0.0112531 -0.751916 0
M  V30 17471 H 1665.83 -0.895975 -2.84631 0
M  V30 17472 C 1664.58 0.796182 -3.38462 0
M  V30 17473 H 1663.91 0.17999 -3.99395 0
M  V30 17474 H 1665.35 1.21664 -4.0617 0
M  V30 17475 C 1663.81 1.93285 -2.75939 0
M  V30 17476 O 1664.34 3.02593 -2.64198 0
M  V30 17477 N 1662.54 1.72386 -2.33948 0
M  V30 17478 H 1662.09 0.834821 -2.43698 0
M  V30 17479 H 1662.05 2.48612 -1.92456 0
M  V30 17480 N 1665.82 1.49844 -0.488302 0
M  V30 17481 C 1666.73 2.32651 0.301746 0
M  V30 17482 C 1667.74 1.43807 0.979573 0
M  V30 17483 O 1668.92 1.76844 0.963758 0
M  V30 17484 C 1665.99 3.18928 1.35962 0
M  V30 17485 C 1665.05 4.23611 0.696575 0
M  V30 17486 C 1664.28 5.05765 1.70404 0
M  V30 17487 O 1664.5 4.89243 2.93253 0
M  V30 17488 O 1663.44 5.88427 1.26637 0
M  V30 17489 H 1667.26 3.01367 -0.375687 0
M  V30 17490 H 1664.85 1.47296 -0.249844 0
M  V30 17491 H 1666.73 3.72413 1.97198 0
M  V30 17492 H 1665.4 2.52921 2.02021 0
M  V30 17493 H 1664.31 3.74073 0.0448118 0
M  V30 17494 H 1665.64 4.92137 0.0786446 0
M  V30 17495 N 1667.3 0.221601 1.56034 0
M  V30 17496 C 1668.23 -0.728495 2.1626 0
M  V30 17497 C 1669.21 -1.19097 1.107 0
M  V30 17498 O 1670.39 -1.27371 1.38957 0
M  V30 17499 C 1667.52 -1.987 2.74292 0
M  V30 17500 C 1666.56 -1.66449 3.92679 0
M  V30 17501 S 1667.4 -0.78924 5.29652 0
M  V30 17502 C 1668.55 -2.05731 5.91122 0
M  V30 17503 H 1668.79 -0.216607 2.9651 0
M  V30 17504 H 1666.32 0.0062956 1.54399 0
M  V30 17505 H 1668.28 -2.70962 3.08366 0
M  V30 17506 H 1666.94 -2.47001 1.94034 0
M  V30 17507 H 1666.13 -2.59955 4.31786 0
M  V30 17508 H 1665.73 -1.0225 3.59751 0
M  V30 17509 H 1668.03 -3.00728 6.07099 0
M  V30 17510 H 1668.97 -1.71014 6.87139 0
M  V30 17511 H 1669.38 -2.19786 5.19956 0
M  V30 17512 N 1668.77 -1.57515 -0.0517878 0
M  V30 17513 C 1670.02 -1.87843 -0.745624 0
M  V30 17514 C 1670.34 -0.816318 -1.77091 0
M  V30 17515 O 1669.61 0.152784 -1.95303 0
M  V30 17516 H 1668.19 -0.693194 -0.278372 0
M  V30 17517 H 1670.86 -1.94886 -0.0231267 0
M  V30 17518 H 1669.95 -2.86001 -1.2494 0
M  V30 17519 N 1670.25 0.323614 -1.54242 0
M  V30 17520 C 1671.22 1.38126 -1.82904 0
M  V30 17521 C 1672.22 1.44723 -0.700853 0
M  V30 17522 O 1673.41 1.44751 -0.969161 0
M  V30 17523 C 1670.54 2.76858 -1.98903 0
M  V30 17524 H 1671.73 1.13966 -2.77402 0
M  V30 17525 H 1669.28 0.559094 -1.45958 0
M  V30 17526 H 1670.02 3.06274 -1.06616 0
M  V30 17527 H 1669.8 2.73464 -2.80998 0
M  V30 17528 H 1671.29 3.53372 -2.22526 0
M  V30 17529 N 1671.73 1.46313 0.585673 0
M  V30 17530 C 1672.69 1.56239 1.67696 0
M  V30 17531 C 1673.69 0.439808 1.54668 0
M  V30 17532 O 1674.88 0.704019 1.5934 0
M  V30 17533 C 1672.02 1.47986 3.07104 0
M  V30 17534 H 1673.21 2.53492 1.60255 0
M  V30 17535 H 1670.76 1.3408 0.803264 0
M  V30 17536 H 1671.5 0.520007 3.20104 0
M  V30 17537 H 1671.28 2.2943 3.17969 0
M  V30 17538 H 1672.77 1.5801 3.86552 0
M  V30 17539 N 1673.21 -0.830057 1.33969 0
M  V30 17540 C 1674.43 -1.62294 1.29133 0
M  V30 17541 C 1674.86 -1.87627 -0.133253 0
M  V30 17542 O 1674.22 -1.44669 -1.09272 0
M  V30 17543 C 1674.27 -2.94508 2.0808 0
M  V30 17544 O 1673.37 -3.86239 1.44544 0
M  V30 17545 H 1672.71 -0.493865 0.443839 0
M  V30 17546 H 1675.24 -1.03202 1.76665 0
M  V30 17547 H 1675.25 -3.44133 2.19173 0
M  V30 17548 H 1673.93 -2.75392 3.1166 0
M  V30 17549 H 1672.5 -3.44743 1.42151 0
M  V30 17550 N 1674.69 -1.17582 -1.04939 0
M  V30 17551 C 1675.93 -0.976635 -1.79558 0
M  V30 17552 C 1676.29 0.48588 -1.8575 0
M  V30 17553 O 1677.49 0.804225 -2.56487 0
M  V30 17554 C 1675.76 -1.60316 -3.19427 0
M  V30 17555 S 1677.32 -1.55052 -4.10493 0
M  V30 17556 H 1674.14 -0.350907 -0.618373 0
M  V30 17557 H 1676.74 -1.49572 -1.25891 0
M  V30 17558 H 1675.45 -2.66002 -3.12524 0
M  V30 17559 H 1674.98 -1.08399 -3.78171 0
M  V30 17560 H 1676.99 -0.56028 -4.93027 0
M  V30 17561 N 1676.17 1.23705 -0.976463 0
M  V30 17562 C 1677.41 1.9132 -0.638714 0
M  V30 17563 C 1677.73 1.7707 0.830993 0
M  V30 17564 O 1678.93 2.39453 1.27964 0
M  V30 17565 C 1677.39 3.42941 -1.09178 0
M  V30 17566 C 1677 3.6586 -2.58555 0
M  V30 17567 C 1678.74 4.16355 -0.827585 0
M  V30 17568 C 1676.65 5.11096 -2.97549 0
M  V30 17569 H 1675.58 0.716382 -0.235187 0
M  V30 17570 H 1678.23 1.40205 -1.18384 0
M  V30 17571 H 1676.61 3.93142 -0.474893 0
M  V30 17572 H 1677.79 3.26221 -3.25448 0
M  V30 17573 H 1676.1 3.05748 -2.82678 0
M  V30 17574 H 1678.7 5.23372 -1.09482 0
M  V30 17575 H 1679.04 4.15629 0.236282 0
M  V30 17576 H 1679.57 3.7213 -1.40586 0
M  V30 17577 H 1676.31 5.1695 -4.03042 0
M  V30 17578 H 1675.83 5.51699 -2.35346 0
M  V30 17579 H 1677.51 5.79397 -2.87937 0
M  V30 17580 N 1677.64 0.747635 1.38738 0
M  V30 17581 C 1679.05 0.369576 1.83006 0
M  V30 17582 C 1679.41 -1.10091 1.62402 0
M  V30 17583 O 1678.53 -1.85042 1.12198 0
M  V30 17584 C 1679.13 0.664018 3.32229 0
M  V30 17585 C 1677.68 0.339308 3.74868 0
M  V30 17586 C 1676.83 0.920231 2.61586 0
M  V30 17587 H 1679.78 0.944268 1.27551 0
M  V30 17588 H 1679.8 -0.0598575 3.80453 0
M  V30 17589 H 1679.32 1.73432 3.47193 0
M  V30 17590 H 1677.42 -0.724649 3.65485 0
M  V30 17591 H 1677.53 0.830699 4.71843 0
M  V30 17592 H 1675.89 0.346002 2.52339 0
M  V30 17593 H 1676.68 1.99544 2.79351 0
M  V30 17594 N 1679.12 -1.49583 0.496242 0
M  V30 17595 C 1680.37 -2.01634 -0.051782 0
M  V30 17596 C 1680.68 -1.38133 -1.38487 0
M  V30 17597 O 1681.89 -1.81484 -2.0193 0
M  V30 17598 C 1680.35 -3.59617 -0.142755 0
M  V30 17599 C 1679.95 -4.32088 1.1834 0
M  V30 17600 C 1681.7 -4.19626 -0.641397 0
M  V30 17601 C 1679.6 -5.81917 1.05485 0
M  V30 17602 H 1678.53 -0.753645 -0.0231258 0
M  V30 17603 H 1681.19 -1.72165 0.634944 0
M  V30 17604 H 1679.57 -3.85781 -0.893826 0
M  V30 17605 H 1680.74 -4.17628 1.94739 0
M  V30 17606 H 1679.06 -3.83801 1.61511 0
M  V30 17607 H 1681.65 -5.29343 -0.755008 0
M  V30 17608 H 1682 -3.82676 -1.63906 0
M  V30 17609 H 1682.53 -3.97765 0.053003 0
M  V30 17610 H 1679.27 -6.23384 2.02664 0
M  V30 17611 H 1678.79 -5.98882 0.331667 0
M  V30 17612 H 1680.47 -6.4285 0.731641 0
M  V30 17613 N 1680.6 -0.229873 -1.55915 0
M  V30 17614 C 1681.51 0.687953 -2.24286 0
M  V30 17615 C 1682.53 1.20705 -1.25325 0
M  V30 17616 O 1683.7 1.2469 -1.58159 0
M  V30 17617 C 1680.77 1.87563 -2.91584 0
M  V30 17618 C 1679.83 1.39769 -4.0591 0
M  V30 17619 C 1679.06 2.52876 -4.69989 0
M  V30 17620 O 1679.28 3.71208 -4.33083 0
M  V30 17621 O 1678.22 2.23603 -5.58825 0
M  V30 17622 H 1682.04 0.135464 -3.03398 0
M  V30 17623 H 1679.63 0.000925172 -1.494 0
M  V30 17624 H 1681.51 2.56907 -3.34031 0
M  V30 17625 H 1680.19 2.41606 -2.15426 0
M  V30 17626 H 1679.09 0.672029 -3.68014 0
M  V30 17627 H 1680.43 0.903543 -4.83836 0
M  V30 17628 N 1682.08 1.5754 0.0434337 0
M  V30 17629 C 1683.31 1.92856 0.749268 0
M  V30 17630 C 1683.72 0.828405 1.69655 0
M  V30 17631 O 1683.08 -0.196294 1.81441 0
M  V30 17632 C 1683.13 3.28052 1.51869 0
M  V30 17633 O 1682.85 4.3384 0.609442 0
M  V30 17634 C 1684.35 3.77562 2.32298 0
M  V30 17635 H 1681.57 0.636818 0.211433 0
M  V30 17636 H 1684.11 2.04499 0.00524119 0
M  V30 17637 H 1682.27 3.1785 2.21472 0
M  V30 17638 H 1682.68 5.11794 1.1475 0
M  V30 17639 H 1684.16 4.7471 2.817 0
M  V30 17640 H 1684.63 3.08015 3.13087 0
M  V30 17641 H 1685.24 3.908 1.67796 0
M  V30 17642 N 1683.56 -0.31543 1.54411 0
M  V30 17643 C 1684.49 -1.39353 1.87358 0
M  V30 17644 C 1685.47 -1.53586 0.731118 0
M  V30 17645 O 1686.65 -1.67332 0.98558 0
M  V30 17646 C 1683.78 -2.75998 2.10814 0
M  V30 17647 C 1682.74 -2.76545 3.2666 0
M  V30 17648 C 1682.06 -4.16343 3.35504 0
M  V30 17649 C 1683.36 -2.39567 4.64117 0
M  V30 17650 H 1685.06 -1.12028 2.77651 0
M  V30 17651 H 1682.6 -0.537476 1.33593 0
M  V30 17652 H 1684.55 -3.51491 2.32447 0
M  V30 17653 H 1683.28 -3.04817 1.17278 0
M  V30 17654 H 1681.94 -2.03507 3.04927 0
M  V30 17655 H 1681.59 -4.42316 2.39512 0
M  V30 17656 H 1681.29 -4.17613 4.13368 0
M  V30 17657 H 1682.81 -4.93637 3.59381 0
M  V30 17658 H 1684.22 -3.04775 4.85577 0
M  V30 17659 H 1682.62 -2.52075 5.4459 0
M  V30 17660 H 1683.69 -1.34707 4.65813 0
M  V30 17661 N 1685.03 -1.46622 -0.577906 0
M  V30 17662 C 1686.26 -1.56 -1.36671 0
M  V30 17663 C 1686.68 -0.2034 -1.86997 0
M  V30 17664 O 1686.04 0.817288 -1.61834 0
M  V30 17665 C 1686.09 -2.57254 -2.52691 0
M  V30 17666 O 1685.19 -2.1109 -3.54281 0
M  V30 17667 H 1684.54 -0.524779 -0.406821 0
M  V30 17668 H 1687.07 -1.92234 -0.700512 0
M  V30 17669 H 1687.08 -2.77016 -2.99543 0
M  V30 17670 H 1685.75 -3.55766 -2.15415 0
M  V30 17671 H 1684.33 -2.01337 -3.13875 0
M  V30 17672 N 1686.51 0.822941 -1.34408 0
M  V30 17673 C 1687.93 1.11606 -1.14089 0
M  V30 17674 C 1688.13 2.01418 0.0576164 0
M  V30 17675 O 1687.18 2.41622 0.733146 0
M  V30 17676 C 1688.5 1.76279 -2.43611 0
M  V30 17677 C 1690.05 1.88773 -2.49667 0
M  V30 17678 C 1690.52 2.56862 -3.79191 0
M  V30 17679 N 1692.01 2.64362 -3.80351 0
M  V30 17680 C 1692.75 3.17775 -4.77291 0
M  V30 17681 N 1692.24 3.71751 -5.84613 0
M  V30 17682 N 1694.04 3.16175 -4.64747 0
M  V30 17683 H 1686.19 0.225555 -2.11199 0
M  V30 17684 H 1688.45 0.162621 -0.933948 0
M  V30 17685 H 1688.16 1.17749 -3.31403 0
M  V30 17686 H 1688.03 2.76147 -2.56949 0
M  V30 17687 H 1690.42 2.46451 -1.62314 0
M  V30 17688 H 1690.5 0.878079 -2.40257 0
M  V30 17689 H 1690.14 1.99839 -4.66933 0
M  V30 17690 H 1690.07 3.58332 -3.85883 0
M  V30 17691 H 1692.56 2.26102 -3.02797 0
M  V30 17692 H 1692.88 4.10759 -6.54597 0
M  V30 17693 H 1691.22 3.69995 -5.88327 0
M  V30 17694 H 1694.41 2.73274 -3.80051 0
M  V30 17695 H 1694.58 3.57498 -5.40462 0
M  V30 17696 N 1687.99 1.18137 1.04314 0
M  V30 17697 C 1688.94 0.902484 2.14378 0
M  V30 17698 C 1689.93 -0.136289 1.68851 0
M  V30 17699 O 1691.14 0.0116256 1.79996 0
M  V30 17700 H 1687.51 0.274358 0.700165 0
M  V30 17701 H 1689.48 1.83768 2.35099 0
M  V30 17702 C 1688.23 0.441975 3.4488 0
M  V30 17703 H 1687.56 1.23279 3.80319 0
M  V30 17704 H 1689 0.285808 4.23036 0
M  V30 17705 C 1687.46 -0.841797 3.26214 0
M  V30 17706 O 1687.99 -1.90658 3.53571 0
M  V30 17707 N 1686.19 -0.793425 2.79559 0
M  V30 17708 H 1685.74 0.0732997 2.57496 0
M  V30 17709 H 1685.7 -1.65281 2.6745 0
M  V30 17710 N 1689.47 -1.23186 0.98301 0
M  V30 17711 C 1690.75 -1.87121 0.569651 0
M  V30 17712 C 1691.13 -1.88355 -0.95319 0
M  V30 17713 O 1690.47 -1.36699 -1.831 0
M  V30 17714 C 1690.68 -3.28493 1.17871 0
M  V30 17715 C 1692.03 -4.05065 1.27308 0
M  V30 17716 O 1693.06 -3.37722 1.13236 0
M  V30 17717 O 1691.91 -5.2559 1.49723 0
M  V30 17718 H 1689.01 -0.804363 0.192171 0
M  V30 17719 H 1691.55 -1.31041 1.07826 0
M  V30 17720 H 1690.33 -3.22175 2.22078 0
M  V30 17721 H 1689.95 -3.92166 0.655087 0
M  V30 17722 N 1690.95 -0.754982 -1.38339 0
M  V30 17723 C 1691.91 -0.136457 -2.28793 0
M  V30 17724 C 1692.91 0.646016 -1.47252 0
M  V30 17725 O 1694.1 0.472077 -1.67681 0
M  V30 17726 C 1691.23 0.815058 -3.31013 0
M  V30 17727 H 1692.42 -0.933619 -2.84997 0
M  V30 17728 H 1689.98 -0.522082 -1.47323 0
M  V30 17729 H 1690.71 1.63785 -2.79902 0
M  V30 17730 H 1690.5 0.256363 -3.91261 0
M  V30 17731 H 1691.99 1.24378 -3.98648 0
M  V30 17732 N 1692.42 1.49318 -0.504168 0
M  V30 17733 C 1693.67 2.02762 0.0392846 0
M  V30 17734 C 1694 1.38282 1.36352 0
M  V30 17735 O 1693.28 0.519587 1.87431 0
M  V30 17736 C 1693.56 3.59606 0.188507 0
M  V30 17737 C 1693.41 4.3461 -1.15908 0
M  V30 17738 C 1694.73 4.30213 0.927641 0
M  V30 17739 H 1691.85 0.736889 0.0128028 0
M  V30 17740 H 1694.49 1.78309 -0.656193 0
M  V30 17741 H 1692.64 3.80572 0.780861 0
M  V30 17742 H 1694.32 4.25132 -1.79055 0
M  V30 17743 H 1692.56 3.97043 -1.74756 0
M  V30 17744 H 1693.23 5.4272 -1.00794 0
M  V30 17745 H 1695.71 4.13922 0.425228 0
M  V30 17746 H 1694.58 5.39697 1.0009 0
M  V30 17747 H 1694.84 3.95678 1.97209 0
M  V30 17748 N 1693.9 0.238138 1.5579 0
M  V30 17749 C 1695.18 -0.438905 1.90612 0
M  V30 17750 C 1695.56 -1.76522 1.15773 0
M  V30 17751 O 1694.91 -2.26871 0.272363 0
M  V30 17752 C 1695.12 -0.615595 3.43528 0
M  V30 17753 C 1696.47 -0.915478 4.14613 0
M  V30 17754 O 1697.49 -0.70178 3.49218 0
M  V30 17755 O 1696.35 -1.32194 5.30271 0
M  V30 17756 H 1693.44 -0.234355 0.7931 0
M  V30 17757 H 1695.99 0.281555 1.67348 0
M  V30 17758 H 1694.76 0.319274 3.89995 0
M  V30 17759 H 1694.38 -1.38692 3.72626 0
M  V30 17760 N 1695.38 -1.57561 -0.0350783 0
M  V30 17761 C 1696.63 -1.89276 -0.728172 0
M  V30 17762 C 1696.96 -0.835137 -1.75326 0
M  V30 17763 O 1696.23 0.150516 -1.93917 0
M  V30 17764 C 1696.52 -3.31638 -1.40316 0
M  V30 17765 C 1696.37 -4.48089 -0.391996 0
M  V30 17766 C 1697.69 -3.72816 -2.33872 0
M  V30 17767 H 1694.81 -0.688381 -0.26325 0
M  V30 17768 H 1697.45 -1.89998 0.00900661 0
M  V30 17769 H 1695.6 -3.31153 -2.0315 0
M  V30 17770 H 1697.27 -4.60706 0.233965 0
M  V30 17771 H 1695.52 -4.32834 0.289305 0
M  V30 17772 H 1696.19 -5.4457 -0.902641 0
M  V30 17773 H 1698.66 -3.74629 -1.81086 0
M  V30 17774 H 1697.54 -4.73245 -2.78084 0
M  V30 17775 H 1697.8 -3.04744 -3.20287 0
M  V30 17776 N 1696.86 0.307236 -1.54576 0
M  V30 17777 C 1698.09 1.06233 -1.77545 0
M  V30 17778 C 1698.5 1.81153 -0.5319 0
M  V30 17779 O 1697.86 1.75573 0.498044 0
M  V30 17780 C 1697.91 2.04775 -2.97908 0
M  V30 17781 O 1697.63 1.32896 -4.17457 0
M  V30 17782 C 1699.13 2.92373 -3.33216 0
M  V30 17783 H 1696.35 0.315318 -0.592297 0
M  V30 17784 H 1698.9 0.348403 -2.0151 0
M  V30 17785 H 1697.05 2.71679 -2.76169 0
M  V30 17786 H 1697.46 1.99022 -4.85274 0
M  V30 17787 H 1698.94 3.5738 -4.20694 0
M  V30 17788 H 1699.42 3.60343 -2.51097 0
M  V30 17789 H 1700.02 2.31009 -3.57093 0
M  V30 17790 N 1698.34 1.46926 0.570122 0
M  V30 17791 C 1699.58 1.52887 1.32785 0
M  V30 17792 C 1699.91 0.185754 1.93611 0
M  V30 17793 O 1699.17 -0.819995 1.77692 0
M  V30 17794 C 1699.47 2.58527 2.46776 0
M  V30 17795 C 1699.13 4.02182 2.03863 0
M  V30 17796 C 1697.79 4.4129 1.91876 0
M  V30 17797 C 1700.15 4.92373 1.70935 0
M  V30 17798 C 1697.47 5.6844 1.45235 0
M  V30 17799 C 1699.83 6.19972 1.25769 0
M  V30 17800 C 1698.49 6.57974 1.12368 0
M  V30 17801 H 1697.76 0.559453 0.485895 0
M  V30 17802 H 1700.41 1.80464 0.640698 0
M  V30 17803 H 1698.71 2.24658 3.20992 0
M  V30 17804 H 1700.41 2.60365 3.04977 0
M  V30 17805 H 1697 3.71275 2.14132 0
M  V30 17806 H 1701.18 4.62867 1.79075 0
M  V30 17807 H 1696.44 5.96644 1.33513 0
M  V30 17808 H 1700.61 6.89277 0.993475 0
M  V30 17809 H 1698.24 7.56391 0.760046 0
M  V30 17810 N 1699.82 -0.815801 1.34842 0
M  V30 17811 C 1701.04 -1.60915 1.30848 0
M  V30 17812 C 1701.47 -1.87758 -0.113345 0
M  V30 17813 O 1700.82 -1.4582 -1.07732 0
M  V30 17814 C 1700.87 -2.92284 2.11192 0
M  V30 17815 O 1699.98 -3.84685 1.48632 0
M  V30 17816 H 1699.32 -0.48913 0.449052 0
M  V30 17817 H 1701.85 -1.01322 1.7775 0
M  V30 17818 H 1701.86 -3.41789 2.2281 0
M  V30 17819 H 1700.53 -2.72071 3.14563 0
M  V30 17820 H 1699.11 -3.43215 1.458 0
M  V30 17821 N 1701.29 -1.18689 -1.03686 0
M  V30 17822 C 1702.22 -0.94094 -2.13702 0
M  V30 17823 C 1703.2 0.12277 -1.69656 0
M  V30 17824 O 1704.39 -0.0306085 -1.94176 0
M  V30 17825 C 1701.52 -0.470054 -3.44104 0
M  V30 17826 C 1700.47 -1.47468 -4.01792 0
M  V30 17827 C 1699.8 -0.861174 -5.2772 0
M  V30 17828 C 1701.1 -2.85254 -4.37524 0
M  V30 17829 H 1702.79 -1.86102 -2.34534 0
M  V30 17830 H 1700.34 -0.896207 -1.12713 0
M  V30 17831 H 1702.29 -0.28533 -4.20433 0
M  V30 17832 H 1701.02 0.485604 -3.2297 0
M  V30 17833 H 1699.68 -1.64641 -3.2755 0
M  V30 17834 H 1699.32 0.10179 -5.02897 0
M  V30 17835 H 1699.02 -1.53196 -5.67278 0
M  V30 17836 H 1700.55 -0.687066 -6.06722 0
M  V30 17837 H 1701.96 -2.71711 -5.04823 0
M  V30 17838 H 1700.36 -3.49051 -4.88143 0
M  V30 17839 H 1701.43 -3.38516 -3.47181 0
M  V30 17840 N 1702.77 1.22662 -0.989529 0
M  V30 17841 C 1703.72 2.24466 -0.536994 0
M  V30 17842 C 1704.69 1.60467 0.428907 0
M  V30 17843 O 1705.87 1.87846 0.334418 0
M  V30 17844 C 1703.01 3.44793 0.145526 0
M  V30 17845 C 1702.13 4.23318 -0.861716 0
M  V30 17846 C 1701.26 5.30979 -0.153062 0
M  V30 17847 C 1700.3 6.01221 -1.1489 0
M  V30 17848 N 1699.44 7.00533 -0.468782 0
M  V30 17849 H 1704.28 2.62539 -1.40987 0
M  V30 17850 H 1701.81 1.29035 -0.706291 0
M  V30 17851 H 1703.77 4.1345 0.558128 0
M  V30 17852 H 1702.4 3.07494 0.982213 0
M  V30 17853 H 1701.45 3.5399 -1.39266 0
M  V30 17854 H 1702.77 4.71753 -1.62019 0
M  V30 17855 H 1701.92 6.05874 0.316443 0
M  V30 17856 H 1700.66 4.8351 0.63794 0
M  V30 17857 H 1699.66 5.25111 -1.62907 0
M  V30 17858 H 1700.89 6.50779 -1.94072 0
M  V30 17859 H 1698.84 6.55301 0.302844 0
M  V30 17860 H 1698.75 7.46958 -1.16576 0
M  V30 17861 H 1700.02 7.79497 -0.0219686 0
M  V30 17862 N 1704.25 0.762308 1.37937 0
M  V30 17863 C 1705.5 0.321732 1.99523 0
M  V30 17864 C 1705.82 -1.10286 1.60816 0
M  V30 17865 O 1705.09 -1.75565 0.869117 0
M  V30 17866 H 1703.67 0.115967 0.737943 0
M  V30 17867 H 1706.33 0.978339 1.68566 0
M  V30 17868 H 1705.43 0.391818 3.09631 0
M  V30 17869 N 1705.73 -1.49049 0.51208 0
M  V30 17870 C 1706.66 -2.32163 -0.249529 0
M  V30 17871 C 1707.64 -1.40957 -0.952114 0
M  V30 17872 O 1708.82 -1.69858 -0.94137 0
M  V30 17873 C 1705.95 -3.21737 -1.30776 0
M  V30 17874 C 1704.91 -4.21825 -0.724392 0
M  V30 17875 C 1704.23 -5.00411 -1.88396 0
M  V30 17876 C 1705.53 -5.21483 0.291975 0
M  V30 17877 H 1707.23 -2.96086 0.444253 0
M  V30 17878 H 1704.77 -1.42385 0.215093 0
M  V30 17879 H 1706.73 -3.78699 -1.84837 0
M  V30 17880 H 1705.45 -2.55779 -2.03088 0
M  V30 17881 H 1704.11 -3.66024 -0.205441 0
M  V30 17882 H 1703.76 -4.30891 -2.59502 0
M  V30 17883 H 1703.46 -5.68141 -1.49964 0
M  V30 17884 H 1704.98 -5.6022 -2.42869 0
M  V30 17885 H 1706.4 -5.73074 -0.160899 0
M  V30 17886 H 1704.79 -5.97166 0.592717 0
M  V30 17887 H 1705.86 -4.69714 1.20404 0
M  V30 17888 N 1707.21 -0.246397 -1.55662 0
M  V30 17889 C 1708.44 0.38209 -2.03036 0
M  V30 17890 C 1708.84 1.52119 -1.12501 0
M  V30 17891 O 1708.19 1.83227 -0.131753 0
M  V30 17892 C 1708.25 0.952012 -3.46666 0
M  V30 17893 C 1707.91 -0.0547805 -4.56967 0
M  V30 17894 C 1708.91 -0.864138 -5.12668 0
M  V30 17895 C 1706.59 -0.180725 -5.01975 0
M  V30 17896 C 1708.59 -1.7859 -6.1187 0
M  V30 17897 C 1706.28 -1.106 -6.01008 0
M  V30 17898 C 1707.27 -1.90711 -6.55834 0
M  V30 17899 O 1706.96 -2.81678 -7.52936 0
M  V30 17900 H 1706.69 0.095009 -0.66929 0
M  V30 17901 H 1709.25 -0.367701 -2.02082 0
M  V30 17902 H 1707.48 1.75136 -3.44767 0
M  V30 17903 H 1709.17 1.49052 -3.77542 0
M  V30 17904 H 1709.93 -0.77742 -4.78729 0
M  V30 17905 H 1705.81 0.432761 -4.58964 0
M  V30 17906 H 1709.36 -2.41162 -6.54589 0
M  V30 17907 H 1705.25 -1.19364 -6.34368 0
M  V30 17908 H 1706.02 -2.76034 -7.7055 0
M  V30 17909 N 1708.68 1.57577 0.026722 0
M  V30 17910 C 1709.96 1.80541 0.752606 0
M  V30 17911 C 1710.34 0.845025 1.93449 0
M  V30 17912 O 1709.69 -0.112286 2.28224 0
M  V30 17913 C 1709.9 3.28322 1.18345 0
M  V30 17914 C 1711.25 3.93366 1.59839 0
M  V30 17915 O 1712.27 3.32486 1.27796 0
M  V30 17916 O 1711.13 5.0056 2.19321 0
M  V30 17917 H 1708.22 0.742514 0.364146 0
M  V30 17918 H 1710.77 1.697 0.00332 0
M  V30 17919 H 1709.54 3.89822 0.339832 0
M  V30 17920 H 1709.16 3.44061 1.99267 0
M  V30 17921 N 1710.16 -0.299034 1.54737 0
M  V30 17922 C 1711.44 -1.05371 1.64792 0
M  V30 17923 C 1711.82 -2.05155 0.497475 0
M  V30 17924 O 1711.17 -2.22837 -0.505573 0
M  V30 17925 C 1711.38 -1.73381 3.02886 0
M  V30 17926 C 1712.72 -2.25506 3.59767 0
M  V30 17927 O 1713.75 -1.8341 3.05351 0
M  V30 17928 O 1712.61 -3.02642 4.55049 0
M  V30 17929 H 1709.7 -0.487156 0.668287 0
M  V30 17930 H 1712.25 -0.296965 1.67081 0
M  V30 17931 H 1711.02 -1.00936 3.78058 0
M  V30 17932 H 1710.64 -2.55806 3.04383 0
M  V30 17933 N 1711.64 -1.47227 -0.562322 0
M  V30 17934 C 1712.87 -1.57196 -1.34526 0
M  V30 17935 C 1713.28 -0.220303 -1.8751 0
M  V30 17936 O 1712.64 0.785664 -1.64723 0
M  V30 17937 C 1712.69 -2.59312 -2.51872 0
M  V30 17938 O 1712.41 -3.89229 -2.01078 0
M  V30 17939 C 1713.91 -2.79416 -3.44153 0
M  V30 17940 H 1711.13 -0.530971 -0.410257 0
M  V30 17941 H 1713.68 -1.92804 -0.68168 0
M  V30 17942 H 1711.83 -2.26652 -3.14178 0
M  V30 17943 H 1712.25 -4.44985 -2.77648 0
M  V30 17944 H 1713.72 -3.54743 -4.2292 0
M  V30 17945 H 1714.2 -1.87054 -3.97376 0
M  V30 17946 H 1714.8 -3.13254 -2.87667 0
M  V30 17947 N 1713.12 0.808639 -1.35273 0
M  V30 17948 C 1714.35 1.59701 -1.31541 0
M  V30 17949 C 1714.76 1.88493 0.107541 0
M  V30 17950 O 1714.12 1.4864 1.05889 0
M  V30 17951 C 1714.17 2.9295 -2.11808 0
M  V30 17952 O 1713.89 2.65407 -3.48555 0
M  V30 17953 C 1715.39 3.87318 -2.15638 0
M  V30 17954 H 1712.61 0.495961 -0.451956 0
M  V30 17955 H 1715.15 1.00507 -1.78097 0
M  V30 17956 H 1713.31 3.48663 -1.68858 0
M  V30 17957 H 1713.72 3.50471 -3.90218 0
M  V30 17958 H 1715.2 4.77933 -2.76196 0
M  V30 17959 H 1715.67 4.23752 -1.15458 0
M  V30 17960 H 1716.28 3.3754 -2.58741 0
M  V30 17961 N 1714.6 1.19237 1.03055 0
M  V30 17962 C 1715.56 0.930536 2.0946 0
M  V30 17963 C 1716.56 -0.0882907 1.60557 0
M  V30 17964 O 1717.75 0.146269 1.73585 0
M  V30 17965 C 1714.88 0.398165 3.38567 0
M  V30 17966 H 1716.07 1.87422 2.34122 0
M  V30 17967 H 1713.63 1.00579 1.19639 0
M  V30 17968 H 1714.36 -0.551646 3.19574 0
M  V30 17969 H 1714.15 1.13273 3.75382 0
M  V30 17970 H 1715.64 0.234006 4.16944 0
M  V30 17971 N 1716.07 -1.22136 0.99602 0
M  V30 17972 C 1717.32 -1.90967 0.673634 0
M  V30 17973 C 1717.65 -1.77526 -0.794654 0
M  V30 17974 O 1716.9 -1.14014 -1.59058 0
M  V30 17975 C 1717.2 -3.42259 1.02926 0
M  V30 17976 C 1716.87 -3.75891 2.49032 0
M  V30 17977 C 1715.53 -3.84781 2.88959 0
M  V30 17978 C 1717.88 -3.91799 3.43719 0
M  V30 17979 C 1715.21 -4.0702 4.22554 0
M  V30 17980 C 1717.56 -4.15543 4.76977 0
M  V30 17981 C 1716.23 -4.22658 5.1664 0
M  V30 17982 H 1715.5 -0.698798 0.2465 0
M  V30 17983 H 1718.14 -1.44836 1.25279 0
M  V30 17984 H 1716.45 -3.90066 0.368224 0
M  V30 17985 H 1718.15 -3.93774 0.757803 0
M  V30 17986 H 1714.74 -3.69556 2.17086 0
M  V30 17987 H 1718.92 -3.84306 3.14042 0
M  V30 17988 H 1714.18 -4.10756 4.52868 0
M  V30 17989 H 1718.35 -4.26796 5.50289 0
M  V30 17990 H 1715.98 -4.39643 6.20176 0
M  V30 17991 N 1717.55 -0.769612 -1.37531 0
M  V30 17992 C 1718.48 -0.168389 -2.32892 0
M  V30 17993 C 1719.46 0.685549 -1.55673 0
M  V30 17994 O 1720.65 0.62345 -1.8392 0
M  V30 17995 C 1717.78 0.713183 -3.39898 0
M  V30 17996 C 1716.73 -0.0392808 -4.27982 0
M  V30 17997 C 1716.06 0.961596 -5.25982 0
M  V30 17998 C 1717.36 -1.21704 -5.07923 0
M  V30 17999 H 1719.05 -0.965022 -2.83421 0
M  V30 18000 H 1716.6 -0.465502 -1.36268 0
M  V30 18001 H 1718.55 1.14358 -4.05586 0
M  V30 18002 H 1717.28 1.54231 -2.87889 0
M  V30 18003 H 1715.93 -0.450429 -3.63822 0
M  V30 18004 H 1715.58 1.78522 -4.70254 0
M  V30 18005 H 1715.28 0.462679 -5.85776 0
M  V30 18006 H 1716.81 1.39097 -5.94545 0
M  V30 18007 H 1718.22 -0.863405 -5.66761 0
M  V30 18008 H 1716.62 -1.6479 -5.77031 0
M  V30 18009 H 1717.69 -2.02219 -4.40722 0
M  V30 18010 N 1719.03 1.48775 -0.519977 0
M  V30 18011 C 1720.31 1.95429 0.0816701 0
M  V30 18012 C 1720.69 1.46199 1.52279 0
M  V30 18013 O 1720.04 0.684057 2.1802 0
M  V30 18014 C 1720.25 3.48991 -0.0252472 0
M  V30 18015 C 1721.59 4.24372 0.139099 0
M  V30 18016 O 1722.62 3.56166 0.0490322 0
M  V30 18017 O 1721.48 5.45524 0.326426 0
M  V30 18018 H 1718.57 0.822637 0.0848378 0
M  V30 18019 H 1721.12 1.5934 -0.583865 0
M  V30 18020 H 1719.89 3.77514 -1.02951 0
M  V30 18021 H 1719.51 3.91749 0.679588 0
M  V30 18022 N 1720.51 0.254649 1.55529 0
M  V30 18023 C 1721.42 -0.652184 2.25352 0
M  V30 18024 C 1722.43 -1.18695 1.2723 0
M  V30 18025 O 1723.61 -1.22158 1.60123 0
M  V30 18026 C 1720.68 -1.829 2.94531 0
M  V30 18027 C 1719.74 -1.33294 4.08082 0
M  V30 18028 C 1718.97 -2.45367 4.73952 0
M  V30 18029 O 1719.19 -3.64271 4.38933 0
M  V30 18030 O 1718.13 -2.14684 5.62311 0
M  V30 18031 H 1721.95 -0.0871786 3.03575 0
M  V30 18032 H 1719.54 0.0228432 1.49383 0
M  V30 18033 H 1721.42 -2.5156 3.38076 0
M  V30 18034 H 1720.09 -2.38148 2.19242 0
M  V30 18035 H 1719 -0.613396 3.69037 0
M  V30 18036 H 1720.33 -0.826454 4.85212 0
M  V30 18037 N 1721.99 -1.57589 -0.0183649 0
M  V30 18038 C 1722.93 -2.07252 -1.01563 0
M  V30 18039 C 1723.9 -0.963941 -1.35268 0
M  V30 18040 O 1725.09 -1.2352 -1.45421 0
M  V30 18041 C 1722.23 -2.56548 -2.30818 0
M  V30 18042 C 1721.34 -3.81238 -2.03178 0
M  V30 18043 C 1720.48 -4.19105 -3.26381 0
M  V30 18044 C 1719.52 -5.36682 -2.94344 0
M  V30 18045 N 1718.65 -5.6993 -4.1003 0
M  V30 18046 H 1723.49 -2.92198 -0.585179 0
M  V30 18047 H 1721.03 -1.44462 -0.27731 0
M  V30 18048 H 1722.99 -2.832 -3.06355 0
M  V30 18049 H 1721.62 -1.74504 -2.71566 0
M  V30 18050 H 1720.67 -3.61606 -1.1809 0
M  V30 18051 H 1721.98 -4.66886 -1.75552 0
M  V30 18052 H 1721.14 -4.46942 -4.10278 0
M  V30 18053 H 1719.87 -3.32129 -3.57129 0
M  V30 18054 H 1718.88 -5.08587 -2.08851 0
M  V30 18055 H 1720.1 -6.2532 -2.64862 0
M  V30 18056 H 1718.05 -4.85913 -4.40709 0
M  V30 18057 H 1717.97 -6.50111 -3.85865 0
M  V30 18058 H 1719.24 -6.02349 -4.94768 0
M  V30 18059 N 1723.46 0.290824 -1.54893 0
M  V30 18060 C 1724.39 1.36354 -1.89551 0
M  V30 18061 C 1725.38 1.52403 -0.75546 0
M  V30 18062 O 1726.56 1.65743 -1.01208 0
M  V30 18063 C 1723.69 2.72609 -2.15178 0
M  V30 18064 C 1722.64 2.71313 -3.31019 0
M  V30 18065 C 1721.97 4.10952 -3.42085 0
M  V30 18066 C 1723.27 2.32153 -4.6787 0
M  V30 18067 H 1724.96 1.07597 -2.79398 0
M  V30 18068 H 1722.51 0.516154 -1.34432 0
M  V30 18069 H 1724.46 3.47749 -2.3801 0
M  V30 18070 H 1723.19 3.02913 -1.22112 0
M  V30 18071 H 1721.85 1.9863 -3.08126 0
M  V30 18072 H 1721.49 4.38449 -2.46518 0
M  V30 18073 H 1721.19 4.10984 -4.1996 0
M  V30 18074 H 1722.72 4.87857 -3.67189 0
M  V30 18075 H 1724.13 2.97011 -4.90364 0
M  V30 18076 H 1722.53 2.4338 -5.48531 0
M  V30 18077 H 1723.6 1.27279 -4.67897 0
M  V30 18078 N 1724.94 1.47523 0.554506 0
M  V30 18079 C 1725.87 1.63093 1.67102 0
M  V30 18080 C 1726.85 0.480298 1.63178 0
M  V30 18081 O 1728.04 0.709956 1.80757 0
M  V30 18082 C 1725.17 1.64751 3.05736 0
M  V30 18083 C 1724.12 2.79068 3.24507 0
M  V30 18084 C 1723.45 2.65801 4.63955 0
M  V30 18085 C 1724.75 4.20631 3.09623 0
M  V30 18086 H 1726.44 2.56561 1.54328 0
M  V30 18087 H 1723.99 1.2347 0.741023 0
M  V30 18088 H 1725.94 1.74234 3.83693 0
M  V30 18089 H 1724.67 0.678453 3.19475 0
M  V30 18090 H 1723.32 2.691 2.48959 0
M  V30 18091 H 1722.97 1.66917 4.74497 0
M  V30 18092 H 1722.67 3.42494 4.77464 0
M  V30 18093 H 1724.2 2.77216 5.44044 0
M  V30 18094 H 1725.61 4.31562 3.77396 0
M  V30 18095 H 1724.01 4.98133 3.3464 0
M  V30 18096 H 1725.08 4.38809 2.06336 0
M  V30 18097 N 1726.42 -0.801453 1.357 0
M  V30 18098 C 1727.84 -1.09776 1.1585 0
M  V30 18099 C 1728.04 -2.01484 -0.0255653 0
M  V30 18100 O 1727.09 -2.42758 -0.694613 0
M  V30 18101 C 1728.41 -1.72381 2.46385 0
M  V30 18102 C 1729.95 -1.84777 2.52639 0
M  V30 18103 C 1730.43 -2.50797 3.83229 0
M  V30 18104 N 1731.92 -2.58277 3.84509 0
M  V30 18105 C 1732.65 -3.10141 4.82286 0
M  V30 18106 N 1732.15 -3.62404 5.90454 0
M  V30 18107 N 1733.94 -3.08742 4.69718 0
M  V30 18108 H 1726.09 -0.191926 2.11531 0
M  V30 18109 H 1728.36 -0.147742 0.936417 0
M  V30 18110 H 1728.06 -1.12462 3.33234 0
M  V30 18111 H 1727.94 -2.72024 2.6131 0
M  V30 18112 H 1730.32 -2.43837 1.66215 0
M  V30 18113 H 1730.41 -0.839745 2.41624 0
M  V30 18114 H 1730.05 -1.92385 4.70053 0
M  V30 18115 H 1729.98 -3.52147 3.91535 0
M  V30 18116 H 1732.47 -2.21257 3.06356 0
M  V30 18117 H 1732.78 -4.00293 6.61049 0
M  V30 18118 H 1731.13 -3.60588 5.94139 0
M  V30 18119 H 1734.32 -2.67193 3.84351 0
M  V30 18120 H 1734.49 -3.48854 5.46081 0
M  V30 18121 N 1727.9 -1.19782 -1.02421 0
M  V30 18122 C 1729.12 -1.02939 -1.80051 0
M  V30 18123 C 1729.55 0.417153 -1.83416 0
M  V30 18124 O 1728.91 1.3001 -1.26361 0
M  V30 18125 C 1728.95 -1.60853 -3.22736 0
M  V30 18126 O 1728.06 -0.840999 -4.03734 0
M  V30 18127 H 1727.4 -0.363537 -0.555641 0
M  V30 18128 H 1729.93 -1.58908 -1.28878 0
M  V30 18129 H 1729.94 -1.64266 -3.73471 0
M  V30 18130 H 1728.61 -2.66135 -3.19602 0
M  V30 18131 H 1727.19 -0.880482 -3.62356 0
M  V30 18132 N 1729.38 1.21606 -1.00248 0
M  V30 18133 C 1730.34 2.22107 -0.565772 0
M  V30 18134 C 1731.34 1.56798 0.356521 0
M  V30 18135 O 1732.53 1.73577 0.147154 0
M  V30 18136 C 1729.66 3.40447 0.175742 0
M  V30 18137 H 1730.86 2.62258 -1.45468 0
M  V30 18138 H 1728.41 1.34823 -0.790721 0
M  V30 18139 H 1729.14 3.05781 1.0802 0
M  V30 18140 H 1728.93 3.89069 -0.486612 0
M  V30 18141 H 1730.42 4.14957 0.469122 0
M  V30 18142 N 1730.86 0.776895 1.37121 0
M  V30 18143 C 1731.77 0.167552 2.34001 0
M  V30 18144 C 1732.78 -0.673609 1.60432 0
M  V30 18145 O 1733.96 -0.592327 1.92493 0
M  V30 18146 C 1731.02 -0.697343 3.39615 0
M  V30 18147 C 1730.08 0.160869 4.28998 0
M  V30 18148 C 1729.32 -0.662841 5.29568 0
M  V30 18149 O 1729.54 -1.89962 5.37839 0
M  V30 18150 O 1728.47 -0.0693304 6.0186 0
M  V30 18151 H 1732.3 0.968247 2.87852 0
M  V30 18152 H 1729.88 0.538137 1.39372 0
M  V30 18153 H 1731.77 -1.19094 4.04221 0
M  V30 18154 H 1730.44 -1.47614 2.88083 0
M  V30 18155 H 1729.35 0.700941 3.67475 0
M  V30 18156 H 1730.68 0.902875 4.83848 0
M  V30 18157 N 1732.33 -1.48497 0.527859 0
M  V30 18158 C 1733.61 -1.9547 -0.0713049 0
M  V30 18159 C 1733.99 -1.47005 -1.51502 0
M  V30 18160 O 1733.34 -0.695609 -2.17655 0
M  V30 18161 C 1733.55 -3.48973 0.0437547 0
M  V30 18162 C 1734.9 -4.2444 -0.116591 0
M  V30 18163 O 1735.92 -3.56187 -0.0301431 0
M  V30 18164 O 1734.78 -5.4569 -0.297491 0
M  V30 18165 H 1731.87 -0.823075 -0.080474 0
M  V30 18166 H 1734.42 -1.59028 0.592307 0
M  V30 18167 H 1733.19 -3.76963 1.04952 0
M  V30 18168 H 1732.81 -3.92104 -0.658803 0
M  V30 18169 N 1733.81 -0.262893 -1.55392 0
M  V30 18170 C 1734.72 0.640223 -2.25695 0
M  V30 18171 C 1735.74 1.18019 -1.27857 0
M  V30 18172 O 1736.91 1.21308 -1.60768 0
M  V30 18173 C 1733.98 1.81336 -2.95497 0
M  V30 18174 C 1733.04 1.31128 -4.08784 0
M  V30 18175 C 1732.27 2.4285 -4.75247 0
M  V30 18176 O 1732.5 3.61939 -4.40859 0
M  V30 18177 O 1731.43 2.11699 -5.63442 0
M  V30 18178 H 1735.26 0.0710781 -3.03617 0
M  V30 18179 H 1732.84 -0.030765 -1.49368 0
M  V30 18180 H 1734.72 2.49764 -3.39406 0
M  V30 18181 H 1733.4 2.36982 -2.20502 0
M  V30 18182 H 1732.3 0.593816 -3.69357 0
M  V30 18183 H 1733.64 0.800711 -4.85643 0
M  V30 18184 N 1735.29 1.57597 0.0100073 0
M  V30 18185 C 1736.52 1.94402 0.708192 0
M  V30 18186 C 1736.93 0.864205 1.6786 0
M  V30 18187 O 1736.29 -0.157763 1.81817 0
M  V30 18188 C 1736.34 3.312 1.44876 0
M  V30 18189 O 1736.06 4.35035 0.517281 0
M  V30 18190 C 1737.56 3.82404 2.24237 0
M  V30 18191 H 1734.78 0.64116 0.197877 0
M  V30 18192 H 1737.33 2.04464 -0.0381373 0
M  V30 18193 H 1735.48 3.22476 2.1468 0
M  V30 18194 H 1735.9 5.14113 1.03868 0
M  V30 18195 H 1737.37 4.80578 2.71567 0
M  V30 18196 H 1737.85 3.14587 3.06483 0
M  V30 18197 H 1738.45 3.94271 1.59469 0
M  V30 18198 N 1736.77 -0.282606 1.55045 0
M  V30 18199 C 1737.73 -1.33228 1.86502 0
M  V30 18200 C 1738.73 -1.42814 0.738977 0
M  V30 18201 O 1739.92 -1.42131 1.0072 0
M  V30 18202 C 1737.05 -2.71488 2.06173 0
M  V30 18203 H 1738.25 -1.06571 2.80326 0
M  V30 18204 H 1735.8 -0.520199 1.47389 0
M  V30 18205 H 1736.53 -3.03339 1.14699 0
M  V30 18206 H 1736.32 -2.65917 2.8815 0
M  V30 18207 H 1737.81 -3.47348 2.31817 0
M  V30 18208 N 1738.25 -1.47815 -0.546675 0
M  V30 18209 C 1739.18 -1.63976 -1.66235 0
M  V30 18210 C 1740.16 -0.488945 -1.62921 0
M  V30 18211 O 1741.34 -0.719532 -1.80378 0
M  V30 18212 C 1738.47 -1.6637 -3.04858 0
M  V30 18213 C 1737.43 -2.80785 -3.23023 0
M  V30 18214 C 1736.75 -2.68257 -4.62539 0
M  V30 18215 C 1738.05 -4.22267 -3.07388 0
M  V30 18216 H 1739.75 -2.57375 -1.52965 0
M  V30 18217 H 1737.29 -1.23861 -0.734465 0
M  V30 18218 H 1739.24 -1.76266 -3.82764 0
M  V30 18219 H 1737.97 -0.695386 -3.19111 0
M  V30 18220 H 1736.63 -2.70417 -2.47529 0
M  V30 18221 H 1736.28 -1.69431 -4.73606 0
M  V30 18222 H 1735.98 -3.45022 -4.75641 0
M  V30 18223 H 1737.5 -2.80097 -5.42566 0
M  V30 18224 H 1738.91 -4.33557 -3.75102 0
M  V30 18225 H 1737.31 -4.999 -3.31994 0
M  V30 18226 H 1738.38 -4.39897 -2.04006 0
M  V30 18227 N 1739.72 0.794246 -1.36123 0
M  V30 18228 C 1740.66 1.91514 -1.25917 0
M  V30 18229 C 1741.67 1.61805 -0.179715 0
M  V30 18230 O 1742.86 1.73143 -0.434029 0
M  V30 18231 C 1739.96 3.26201 -0.919018 0
M  V30 18232 C 1739.13 3.83725 -2.09937 0
M  V30 18233 C 1738.19 4.96842 -1.73304 0
M  V30 18234 O 1737.22 5.13615 -2.45333 0
M  V30 18235 N 1738.42 5.76691 -0.663887 0
M  V30 18236 H 1741.18 2.00793 -2.22491 0
M  V30 18237 H 1738.74 0.97228 -1.29454 0
M  V30 18238 H 1740.74 3.99361 -0.655208 0
M  V30 18239 H 1739.31 3.12571 -0.0425606 0
M  V30 18240 H 1738.53 3.02611 -2.52626 0
M  V30 18241 H 1739.81 4.18889 -2.88806 0
M  V30 18242 H 1739.21 5.65662 -0.0657071 0
M  V30 18243 H 1737.77 6.50176 -0.459889 0
M  V30 18244 N 1741.2 1.20323 1.01785 0
M  V30 18245 C 1742.43 1.03893 1.79502 0
M  V30 18246 C 1742.85 -0.407421 1.83635 0
M  V30 18247 O 1742.21 -1.29338 1.27049 0
M  V30 18248 C 1742.26 1.62562 3.21879 0
M  V30 18249 O 1741.36 0.862398 4.03282 0
M  V30 18250 H 1740.7 0.366479 0.553705 0
M  V30 18251 H 1743.23 1.59589 1.28034 0
M  V30 18252 H 1743.24 1.66244 3.72595 0
M  V30 18253 H 1741.92 2.67826 3.18186 0
M  V30 18254 H 1740.49 0.899687 3.61884 0
M  V30 18255 N 1742.68 -1.21073 1.00892 0
M  V30 18256 C 1743.64 -2.21804 0.577543 0
M  V30 18257 C 1744.64 -1.56985 -0.348201 0
M  V30 18258 O 1745.83 -1.73653 -0.137947 0
M  V30 18259 C 1742.96 -3.40535 -0.157685 0
M  V30 18260 H 1744.16 -2.61483 1.46856 0
M  V30 18261 H 1741.71 -1.34402 0.79786 0
M  V30 18262 H 1742.45 -3.0635 -1.06397 0
M  V30 18263 H 1742.23 -3.88805 0.507238 0
M  V30 18264 H 1743.72 -4.152 -0.447109 0
M  V30 18265 N 1744.16 -0.784156 -1.36707 0
M  V30 18266 C 1745.09 -0.193081 -2.327 0
M  V30 18267 C 1746.07 0.668999 -1.56392 0
M  V30 18268 O 1747.25 0.603908 -1.84571 0
M  V30 18269 C 1744.38 0.677092 -3.40636 0
M  V30 18270 C 1743.34 -0.0846718 -4.27916 0
M  V30 18271 C 1742.66 0.905754 -5.26973 0
M  V30 18272 C 1743.96 -1.27085 -5.06603 0
M  V30 18273 H 1745.66 -0.995029 -2.82382 0
M  V30 18274 H 1743.2 -0.479929 -1.35767 0
M  V30 18275 H 1745.16 1.1005 -4.06776 0
M  V30 18276 H 1743.88 1.51169 -2.89509 0
M  V30 18277 H 1742.54 -0.488992 -3.63324 0
M  V30 18278 H 1742.19 1.73524 -4.72121 0
M  V30 18279 H 1741.89 0.400524 -5.86233 0
M  V30 18280 H 1743.41 1.32784 -5.95987 0
M  V30 18281 H 1744.83 -0.923469 -5.65814 0
M  V30 18282 H 1743.22 -1.70901 -5.7525 0
M  V30 18283 H 1744.29 -2.06882 -4.38552 0
M  V30 18284 N 1745.64 1.48215 -0.535727 0
M  V30 18285 C 1746.91 1.95505 0.0609376 0
M  V30 18286 C 1747.29 1.47806 1.5072 0
M  V30 18287 O 1746.64 0.707142 2.17283 0
M  V30 18288 C 1746.85 3.48944 -0.0622609 0
M  V30 18289 C 1748.2 4.24496 0.0940805 0
M  V30 18290 O 1749.22 3.56198 0.0112532 0
M  V30 18291 O 1748.08 5.4584 0.268547 0
M  V30 18292 H 1745.18 0.82349 0.0761079 0
M  V30 18293 H 1747.72 1.58711 -0.600732 0
M  V30 18294 H 1746.49 3.76401 -1.06949 0
M  V30 18295 H 1746.12 3.92448 0.637999 0
M  V30 18296 N 1747.11 0.27113 1.5525 0
M  V30 18297 C 1748.08 -0.604946 2.21072 0
M  V30 18298 C 1749.08 -1.08438 1.18735 0
M  V30 18299 O 1750.27 -0.985192 1.43665 0
M  V30 18300 C 1747.4 -1.83416 2.87353 0
M  V30 18301 H 1748.59 -0.0302981 2.99885 0
M  V30 18302 H 1746.15 0.0217204 1.56285 0
M  V30 18303 H 1746.88 -2.44942 2.12542 0
M  V30 18304 H 1746.67 -1.49834 3.62343 0
M  V30 18305 H 1748.16 -2.45724 3.37653 0
M  V30 18306 N 1748.59 -1.576 -0.00164943 0
M  V30 18307 C 1749.53 -2.0376 -1.02747 0
M  V30 18308 C 1750.5 -0.927146 -1.33577 0
M  V30 18309 O 1751.69 -1.19514 -1.45769 0
M  V30 18310 C 1748.81 -2.43381 -2.35549 0
M  V30 18311 C 1747.86 -3.65143 -2.20392 0
M  V30 18312 S 1748.69 -5.13132 -1.53151 0
M  V30 18313 C 1749.85 -5.56021 -2.87387 0
M  V30 18314 H 1750.08 -2.90452 -0.634417 0
M  V30 18315 H 1747.62 -1.52931 -0.212468 0
M  V30 18316 H 1749.57 -2.66877 -3.11909 0
M  V30 18317 H 1748.23 -1.57091 -2.71995 0
M  V30 18318 H 1747.43 -3.90611 -3.18495 0
M  V30 18319 H 1747.03 -3.41641 -1.52177 0
M  V30 18320 H 1749.32 -5.58381 -3.83689 0
M  V30 18321 H 1750.26 -6.55987 -2.6662 0
M  V30 18322 H 1750.67 -4.83582 -2.9122 0
M  V30 18323 N 1750.07 0.274379 -1.55193 0
M  V30 18324 C 1751.02 1.35903 -1.88767 0
M  V30 18325 C 1752.01 1.512 -0.763874 0
M  V30 18326 O 1753.22 1.53 -0.948201 0
M  V30 18327 H 1749.59 0.454495 -0.599114 0
M  V30 18328 H 1751.56 1.04837 -2.79378 0
M  V30 18329 C 1750.31 2.71277 -2.17496 0
M  V30 18330 H 1749.64 2.60297 -3.03456 0
M  V30 18331 H 1751.08 3.46115 -2.44909 0
M  V30 18332 C 1749.54 3.22268 -0.982101 0
M  V30 18333 O 1750.07 4.01119 -0.216035 0
M  V30 18334 N 1748.27 2.79931 -0.780179 0
M  V30 18335 H 1747.82 2.15923 -1.40482 0
M  V30 18336 H 1747.78 3.14396 0.0163297 0
M  V30 18337 N 1751.55 1.48103 0.538828 0
M  V30 18338 C 1752.5 1.61966 1.64425 0
M  V30 18339 C 1753.47 0.461999 1.59546 0
M  V30 18340 O 1754.65 0.684377 1.78104 0
M  V30 18341 C 1751.79 1.65711 3.02711 0
M  V30 18342 C 1750.9 2.92522 3.17891 0
M  V30 18343 C 1750.04 2.87485 4.46683 0
M  V30 18344 C 1749.08 4.0904 4.5536 0
M  V30 18345 N 1748.21 4.02131 5.7553 0
M  V30 18346 H 1753.05 2.5637 1.51916 0
M  V30 18347 H 1750.59 1.27146 0.739745 0
M  V30 18348 H 1752.55 1.65864 3.82812 0
M  V30 18349 H 1751.18 0.748045 3.14013 0
M  V30 18350 H 1750.23 3.02154 2.311 0
M  V30 18351 H 1751.54 3.82487 3.20165 0
M  V30 18352 H 1750.7 2.8599 5.35065 0
M  V30 18353 H 1749.44 1.95234 4.46917 0
M  V30 18354 H 1748.44 4.10819 3.65387 0
M  V30 18355 H 1749.67 5.02439 4.56872 0
M  V30 18356 H 1747.61 3.12695 5.76678 0
M  V30 18357 H 1747.53 4.85791 5.7926 0
M  V30 18358 H 1748.8 4.04682 6.66223 0
M  V30 18359 N 1753.03 -0.787016 1.36542 0
M  V30 18360 C 1753.94 -1.93103 1.33223 0
M  V30 18361 C 1754.95 -1.72419 0.234047 0
M  V30 18362 O 1756.13 -1.95915 0.466828 0
M  V30 18363 C 1753.19 -3.28002 1.12319 0
M  V30 18364 C 1752.25 -3.61447 2.31635 0
M  V30 18365 C 1751.49 -4.89909 2.11719 0
M  V30 18366 O 1751.71 -5.59818 1.0936 0
M  V30 18367 O 1750.64 -5.22065 2.99552 0
M  V30 18368 H 1754.47 -1.98853 2.29545 0
M  V30 18369 H 1752.06 -0.92761 1.17114 0
M  V30 18370 H 1753.94 -4.08722 1.02589 0
M  V30 18371 H 1752.61 -3.23138 0.19061 0
M  V30 18372 H 1751.52 -2.81024 2.46934 0
M  V30 18373 H 1752.85 -3.71037 3.23407 0
M  V30 18374 N 1754.5 -1.20861 -1.01145 0
M  V30 18375 C 1755.75 -1.02191 -1.74823 0
M  V30 18376 C 1756.08 0.445357 -1.89333 0
M  V30 18377 O 1755.33 1.34684 -1.41982 0
M  V30 18378 C 1755.63 -1.65666 -3.16685 0
M  V30 18379 C 1755.3 -3.15494 -3.2214 0
M  V30 18380 C 1753.96 -3.56381 -3.23336 0
M  V30 18381 C 1756.31 -4.11481 -3.19895 0
M  V30 18382 C 1753.64 -4.91772 -3.19964 0
M  V30 18383 C 1755.99 -5.46826 -3.18064 0
M  V30 18384 C 1754.66 -5.87118 -3.17566 0
M  V30 18385 H 1753.93 -0.373945 -0.639724 0
M  V30 18386 H 1756.57 -1.50361 -1.18592 0
M  V30 18387 H 1754.88 -1.09772 -3.76108 0
M  V30 18388 H 1756.58 -1.4873 -3.72398 0
M  V30 18389 H 1753.17 -2.82926 -3.21948 0
M  V30 18390 H 1757.35 -3.80924 -3.18136 0
M  V30 18391 H 1752.61 -5.22247 -3.17913 0
M  V30 18392 H 1756.78 -6.20945 -3.15279 0
M  V30 18393 H 1754.41 -6.92 -3.14707 0
M  V30 18394 N 1755.98 1.20536 -1.01532 0
M  V30 18395 C 1756.93 2.23277 -0.584486 0
M  V30 18396 C 1757.9 1.6134 0.394773 0
M  V30 18397 O 1759.08 1.88514 0.294498 0
M  V30 18398 C 1756.22 3.45024 0.0723574 0
M  V30 18399 C 1755.34 4.21395 -0.951314 0
M  V30 18400 C 1754.47 5.30535 -0.265656 0
M  V30 18401 C 1753.51 5.98649 -1.27617 0
M  V30 18402 N 1752.65 6.99381 -0.61727 0
M  V30 18403 H 1757.49 2.59489 -1.46524 0
M  V30 18404 H 1755.03 1.27507 -0.733502 0
M  V30 18405 H 1756.98 4.14541 0.470303 0
M  V30 18406 H 1755.61 3.09508 0.916768 0
M  V30 18407 H 1754.67 3.50957 -1.46743 0
M  V30 18408 H 1755.98 4.68211 -1.71989 0
M  V30 18409 H 1755.13 6.06409 0.187857 0
M  V30 18410 H 1753.87 4.84754 0.535237 0
M  V30 18411 H 1752.88 5.21537 -1.74008 0
M  V30 18412 H 1754.1 6.46516 -2.07832 0
M  V30 18413 H 1752.05 6.55796 0.163777 0
M  V30 18414 H 1751.96 7.44317 -1.32393 0
M  V30 18415 H 1753.23 7.79275 -0.187306 0
M  V30 18416 N 1757.46 0.791395 1.36289 0
M  V30 18417 C 1758.41 0.189246 2.30023 0
M  V30 18418 C 1759.38 -0.668045 1.52074 0
M  V30 18419 O 1760.56 -0.61631 1.80572 0
M  V30 18420 C 1757.7 -0.668391 3.38565 0
M  V30 18421 C 1756.82 0.207659 4.31501 0
M  V30 18422 C 1755.95 -0.656539 5.27127 0
M  V30 18423 C 1754.99 0.220845 6.11701 0
M  V30 18424 N 1754.13 -0.602449 6.99511 0
M  V30 18425 H 1758.97 0.994038 2.80932 0
M  V30 18426 H 1756.5 0.501759 1.38278 0
M  V30 18427 H 1758.46 -1.18064 4.00146 0
M  V30 18428 H 1757.09 -1.43859 2.88971 0
M  V30 18429 H 1756.14 0.837894 3.71057 0
M  V30 18430 H 1757.46 0.883613 4.90911 0
M  V30 18431 H 1756.61 -1.23452 5.94007 0
M  V30 18432 H 1755.35 -1.36611 4.68176 0
M  V30 18433 H 1754.35 0.811214 5.43782 0
M  V30 18434 H 1755.58 0.928049 6.72729 0
M  V30 18435 H 1753.52 -1.29628 6.43065 0
M  V30 18436 H 1753.44 0.015783 7.55998 0
M  V30 18437 H 1754.71 -1.16419 7.70757 0
M  V30 18438 N 1758.94 -1.47929 0.54358 0
M  V30 18439 C 1759.87 -2.3264 -0.200228 0
M  V30 18440 C 1760.85 -1.42945 -0.922 0
M  V30 18441 O 1762.04 -1.71817 -0.905129 0
M  V30 18442 C 1759.17 -3.24439 -1.23922 0
M  V30 18443 C 1758.12 -4.23267 -0.634753 0
M  V30 18444 C 1757.45 -5.04295 -1.77739 0
M  V30 18445 C 1758.75 -5.20747 0.402524 0
M  V30 18446 H 1760.44 -2.95077 0.506957 0
M  V30 18447 H 1757.99 -1.41896 0.245246 0
M  V30 18448 H 1759.94 -3.82535 -1.76763 0
M  V30 18449 H 1758.66 -2.60029 -1.97616 0
M  V30 18450 H 1757.32 -3.66377 -0.127756 0
M  V30 18451 H 1756.97 -4.36299 -2.50304 0
M  V30 18452 H 1756.67 -5.71195 -1.37879 0
M  V30 18453 H 1758.19 -5.65246 -2.30932 0
M  V30 18454 H 1759.61 -5.73287 -0.039305 0
M  V30 18455 H 1758 -5.95774 0.719251 0
M  V30 18456 H 1759.07 -4.67054 1.3034 0
M  V30 18457 N 1760.42 -0.27936 -1.55104 0
M  V30 18458 C 1761.64 0.342295 -2.04556 0
M  V30 18459 C 1762.07 1.48367 -1.15624 0
M  V30 18460 O 1761.43 1.8063 -0.15572 0
M  V30 18461 C 1761.47 0.796785 -3.51687 0
M  V30 18462 O 1760.58 1.90364 -3.65835 0
M  V30 18463 H 1759.92 0.07012 -0.660287 0
M  V30 18464 H 1762.45 -0.414896 -2.00349 0
M  V30 18465 H 1762.46 1.09141 -3.93131 0
M  V30 18466 H 1761.13 -0.0382637 -4.15882 0
M  V30 18467 H 1759.71 1.61123 -3.36294 0
M  V30 18468 N 1761.9 1.57599 -0.0067085 0
M  V30 18469 C 1762.81 2.1228 0.998709 0
M  V30 18470 C 1763.82 1.06964 1.37239 0
M  V30 18471 O 1765 1.38902 1.45836 0
M  V30 18472 C 1762.06 2.62076 2.26973 0
M  V30 18473 C 1761.12 3.8202 1.95855 0
M  V30 18474 C 1760.36 4.29431 3.16898 0
M  V30 18475 O 1760.58 3.76136 4.2881 0
M  V30 18476 O 1759.51 5.21518 3.00504 0
M  V30 18477 H 1763.34 2.9842 0.563849 0
M  V30 18478 H 1760.92 1.47881 0.212535 0
M  V30 18479 H 1762.81 2.94274 3.01631 0
M  V30 18480 H 1761.48 1.79031 2.69684 0
M  V30 18481 H 1760.39 3.54785 1.18653 0
M  V30 18482 H 1761.72 4.66159 1.57977 0
M  V30 18483 N 1763.37 -0.266145 1.55336 0
M  V30 18484 C 1764.62 -0.994648 1.7547 0
M  V30 18485 C 1764.94 -1.87201 0.56702 0
M  V30 18486 O 1766.14 -2.63582 0.650924 0
M  V30 18487 C 1764.6 -1.81844 3.10581 0
M  V30 18488 C 1764.21 -0.989413 4.36938 0
M  V30 18489 C 1765.95 -2.54084 3.40061 0
M  V30 18490 C 1763.86 -1.80799 5.63086 0
M  V30 18491 H 1762.79 -0.375097 0.654078 0
M  V30 18492 H 1765.44 -0.25004 1.81788 0
M  V30 18493 H 1763.82 -2.60427 2.98318 0
M  V30 18494 H 1764.99 -0.247271 4.60136 0
M  V30 18495 H 1763.31 -0.38125 4.14651 0
M  V30 18496 H 1765.91 -3.15744 4.3152 0
M  V30 18497 H 1766.25 -3.2472 2.60505 0
M  V30 18498 H 1766.78 -1.82526 3.53453 0
M  V30 18499 H 1763.52 -1.14571 6.4541 0
M  V30 18500 H 1763.04 -2.52592 5.4402 0
M  V30 18501 H 1764.72 -2.37994 6.01638 0
M  V30 18502 N 1764.85 -1.48386 -0.530967 0
M  V30 18503 C 1766.13 -1.46843 -1.29215 0
M  V30 18504 C 1766.51 -0.179567 -2.10335 0
M  V30 18505 O 1765.86 0.838706 -2.12551 0
M  V30 18506 C 1766.07 -2.72983 -2.17443 0
M  V30 18507 C 1767.41 -3.21271 -2.77615 0
M  V30 18508 O 1768.44 -2.73893 -2.2773 0
M  V30 18509 O 1767.3 -4.03709 -3.68349 0
M  V30 18510 H 1764.39 -0.586393 -0.583157 0
M  V30 18511 H 1766.94 -1.60619 -0.547702 0
M  V30 18512 H 1765.71 -3.58301 -1.57278 0
M  V30 18513 H 1765.33 -2.61922 -2.99137 0
M  V30 18514 N 1766.33 0.779763 -1.36958 0
M  V30 18515 C 1767.58 1.53956 -1.32925 0
M  V30 18516 C 1767.93 1.92198 0.0880461 0
M  V30 18517 O 1767.22 1.60604 1.04484 0
M  V30 18518 C 1767.42 2.82075 -2.19473 0
M  V30 18519 C 1767.25 2.56354 -3.69476 0
M  V30 18520 C 1766.02 2.50887 -4.38616 0
M  V30 18521 C 1768.21 2.24894 -4.62523 0
M  V30 18522 N 1766.2 2.17165 -5.74206 0
M  V30 18523 C 1767.57 2.01244 -5.86431 0
M  V30 18524 C 1769.62 2.10982 -4.50989 0
M  V30 18525 C 1768.33 1.65087 -7.00099 0
M  V30 18526 C 1770.35 1.76225 -5.64534 0
M  V30 18527 C 1769.71 1.53428 -6.87488 0
M  V30 18528 H 1765.81 0.564001 -0.541689 0
M  V30 18529 H 1768.4 0.910418 -1.72103 0
M  V30 18530 H 1766.57 3.4284 -1.82524 0
M  V30 18531 H 1768.3 3.47898 -2.06758 0
M  V30 18532 H 1765.05 2.66466 -3.91526 0
M  V30 18533 H 1765.48 2.03024 -6.45841 0
M  V30 18534 H 1770.12 2.27292 -3.56508 0
M  V30 18535 H 1767.84 1.47515 -7.94522 0
M  V30 18536 H 1771.42 1.6613 -5.57577 0
M  V30 18537 H 1770.3 1.2693 -7.73859 0
M  V30 18538 N 1767.81 1.21396 1.00503 0
M  V30 18539 C 1768.74 0.916483 2.08988 0
M  V30 18540 C 1769.72 -0.135972 1.6203 0
M  V30 18541 O 1770.9 -0.00701537 1.88499 0
M  V30 18542 C 1768.03 0.376122 3.36605 0
M  V30 18543 C 1767.08 1.41137 4.0247 0
M  V30 18544 S 1767.91 2.98055 4.44886 0
M  V30 18545 C 1769.06 2.45626 5.7569 0
M  V30 18546 H 1769.3 1.83517 2.33899 0
M  V30 18547 H 1766.83 1.0437 1.13782 0
M  V30 18548 H 1768.79 0.0709239 4.10439 0
M  V30 18549 H 1767.45 -0.52125 3.09745 0
M  V30 18550 H 1766.64 0.982903 4.94323 0
M  V30 18551 H 1766.24 1.66465 3.34911 0
M  V30 18552 H 1768.54 1.8611 6.51436 0
M  V30 18553 H 1769.48 3.3592 6.23348 0
M  V30 18554 H 1769.89 1.87337 5.32508 0
M  V30 18555 N 1769.29 -1.19996 1.0217 0
M  V30 18556 C 1770.23 -2.25 0.589726 0
M  V30 18557 C 1771.23 -1.65218 -0.374086 0
M  V30 18558 O 1772.43 -1.78346 -0.243449 0
M  V30 18559 H 1768.81 -0.731968 0.172416 0
M  V30 18560 H 1770.78 -2.58759 1.48615 0
M  V30 18561 C 1769.53 -3.47663 -0.0509896 0
M  V30 18562 H 1768.85 -3.93946 0.681649 0
M  V30 18563 H 1770.29 -4.22819 -0.316287 0
M  V30 18564 C 1768.75 -3.11001 -1.29538 0
M  V30 18565 O 1769.28 -3.23 -2.38818 0
M  V30 18566 N 1767.49 -2.65502 -1.18141 0
M  V30 18567 H 1767.03 -2.55938 -0.292172 0
M  V30 18568 H 1766.99 -2.41342 -2.01498 0
M  V30 18569 N 1770.76 -0.798611 -1.35867 0
M  V30 18570 C 1772.17 -0.437243 -1.81508 0
M  V30 18571 C 1772.53 1.03987 -1.66376 0
M  V30 18572 O 1771.65 1.80751 -1.18988 0
M  V30 18573 C 1772.25 -0.786865 -3.29536 0
M  V30 18574 C 1770.8 -0.478204 -3.7335 0
M  V30 18575 C 1769.95 -1.01668 -2.5799 0
M  V30 18576 H 1772.9 -0.990957 -1.23959 0
M  V30 18577 H 1772.92 -0.0813864 -3.80413 0
M  V30 18578 H 1772.44 -1.86198 -3.40517 0
M  V30 18579 H 1770.54 0.588503 -3.67923 0
M  V30 18580 H 1770.65 -1.00525 -4.68435 0
M  V30 18581 H 1769.01 -0.439417 -2.50881 0
M  V30 18582 H 1769.8 -2.09775 -2.71753 0
M  V30 18583 N 1772.24 1.47639 -0.551417 0
M  V30 18584 C 1773.49 2.01687 -0.0230887 0
M  V30 18585 C 1773.8 1.43178 1.33265 0
M  V30 18586 O 1775.01 1.88853 1.95056 0
M  V30 18587 C 1773.47 3.59899 0.00918719 0
M  V30 18588 C 1773.07 4.27398 -1.34295 0
M  V30 18589 C 1774.82 4.21718 0.485213 0
M  V30 18590 C 1772.72 5.77601 -1.2701 0
M  V30 18591 H 1771.65 0.753984 -0.00486122 0
M  V30 18592 H 1774.31 1.6969 -0.698405 0
M  V30 18593 H 1772.69 3.88832 0.75003 0
M  V30 18594 H 1773.86 4.10113 -2.10105 0
M  V30 18595 H 1772.18 3.77542 -1.75644 0
M  V30 18596 H 1774.77 5.3178 0.558025 0
M  V30 18597 H 1775.12 3.88495 1.4959 0
M  V30 18598 H 1775.65 3.97294 -0.200594 0
M  V30 18599 H 1772.39 6.15433 -2.2566 0
M  V30 18600 H 1771.91 5.97239 -0.553709 0
M  V30 18601 H 1773.59 6.39692 -0.969726 0
M  V30 18602 N 1773.72 0.287581 1.54954 0
M  V30 18603 C 1774.97 -0.32561 1.99865 0
M  V30 18604 C 1775.3 -1.54921 1.176 0
M  V30 18605 O 1774.55 -1.94262 0.236802 0
M  V30 18606 C 1774.85 -0.739779 3.4966 0
M  V30 18607 C 1774.52 0.380573 4.49291 0
M  V30 18608 C 1773.18 0.688172 4.76254 0
M  V30 18609 C 1775.53 1.13489 5.08694 0
M  V30 18610 C 1772.86 1.75344 5.59885 0
M  V30 18611 C 1775.21 2.18998 5.93484 0
M  V30 18612 C 1773.87 2.50379 6.18762 0
M  V30 18613 H 1773.14 -0.119149 0.731358 0
M  V30 18614 H 1775.79 0.403889 1.87192 0
M  V30 18615 H 1774.1 -1.54915 3.59873 0
M  V30 18616 H 1775.79 -1.22518 3.81825 0
M  V30 18617 H 1772.38 0.130718 4.28401 0
M  V30 18618 H 1776.57 0.910505 4.87877 0
M  V30 18619 H 1771.82 2.00145 5.77713 0
M  V30 18620 H 1776 2.77913 6.38543 0
M  V30 18621 H 1773.62 3.33057 6.83357 0
M  V30 18622 N 1775.2 -1.57593 0.0150662 0
M  V30 18623 C 1776.44 -1.91497 -0.667587 0
M  V30 18624 C 1776.78 -0.890493 -1.7258 0
M  V30 18625 O 1776.05 0.0887462 -1.94297 0
M  V30 18626 C 1776.34 -3.35934 -1.29694 0
M  V30 18627 C 1776.19 -4.49109 -0.249242 0
M  V30 18628 C 1777.51 -3.80068 -2.21893 0
M  V30 18629 H 1774.63 -0.696408 -0.241217 0
M  V30 18630 H 1777.27 -1.89873 0.0694484 0
M  V30 18631 H 1775.42 -3.37448 -1.92512 0
M  V30 18632 H 1777.09 -4.59729 0.380417 0
M  V30 18633 H 1775.33 -4.31695 0.426861 0
M  V30 18634 H 1776 -5.47166 -0.728934 0
M  V30 18635 H 1778.48 -3.80201 -1.69076 0
M  V30 18636 H 1777.36 -4.81852 -2.62887 0
M  V30 18637 H 1777.62 -3.1478 -3.10429 0
M  V30 18638 N 1776.68 0.257904 -1.55475 0
M  V30 18639 C 1778.09 0.82782 -1.67344 0
M  V30 18640 C 1778.44 1.8646 -0.610494 0
M  V30 18641 O 1777.56 2.15005 0.245275 0
M  V30 18642 C 1778.16 1.5083 -3.03374 0
M  V30 18643 C 1776.72 2.02605 -3.17219 0
M  V30 18644 C 1775.86 0.873303 -2.63189 0
M  V30 18645 H 1778.82 0.0339334 -1.58664 0
M  V30 18646 H 1778.84 2.3759 -2.97205 0
M  V30 18647 H 1778.35 0.753469 -3.80716 0
M  V30 18648 H 1776.45 2.81002 -2.4468 0
M  V30 18649 H 1776.56 2.23099 -4.23985 0
M  V30 18650 H 1774.93 1.27082 -2.20731 0
M  V30 18651 H 1775.71 0.131739 -3.43047 0
M  V30 18652 N 1778.15 1.48666 0.52309 0
M  V30 18653 C 1779.06 1.66396 1.65377 0
M  V30 18654 C 1780.08 0.546469 1.65196 0
M  V30 18655 O 1781.26 0.818413 1.84022 0
M  V30 18656 C 1778.32 1.70602 3.01821 0
M  V30 18657 C 1777.38 2.94028 3.12803 0
M  V30 18658 C 1776.62 2.98024 4.42739 0
M  V30 18659 O 1776.84 2.10232 5.30244 0
M  V30 18660 O 1775.77 3.90266 4.58231 0
M  V30 18661 H 1779.6 2.62138 1.53354 0
M  V30 18662 H 1777.18 1.32148 0.696948 0
M  V30 18663 H 1779.07 1.75849 3.82956 0
M  V30 18664 H 1777.74 0.780346 3.14153 0
M  V30 18665 H 1776.65 2.9431 2.30938 0
M  V30 18666 H 1777.98 3.86003 3.0539 0
M  V30 18667 N 1779.63 -0.772489 1.37369 0
M  V30 18668 C 1780.54 -1.91679 1.35263 0
M  V30 18669 C 1781.56 -1.72161 0.252321 0
M  V30 18670 O 1782.73 -1.95409 0.487581 0
M  V30 18671 C 1779.8 -3.26792 1.15792 0
M  V30 18672 C 1778.86 -3.5897 2.35455 0
M  V30 18673 C 1778.09 -4.87636 2.16903 0
M  V30 18674 O 1778.32 -5.58627 1.15291 0
M  V30 18675 O 1777.25 -5.18859 3.05072 0
M  V30 18676 H 1781.08 -1.96408 2.31641 0
M  V30 18677 H 1778.66 -0.915136 1.18092 0
M  V30 18678 H 1780.54 -4.07611 1.06918 0
M  V30 18679 H 1779.22 -3.22918 0.224872 0
M  V30 18680 H 1778.13 -2.78389 2.49901 0
M  V30 18681 H 1779.46 -3.67586 3.27325 0
M  V30 18682 N 1781.11 -1.21927 -0.998575 0
M  V30 18683 C 1782.06 -0.984283 -2.08759 0
M  V30 18684 C 1783.03 0.0920029 -1.65845 0
M  V30 18685 O 1784.21 -0.0564334 -1.90717 0
M  V30 18686 C 1781.35 -0.562006 -3.40493 0
M  V30 18687 C 1780.47 -1.70844 -3.96783 0
M  V30 18688 C 1779.6 -1.2347 -5.16651 0
M  V30 18689 C 1778.64 -2.35305 -5.65065 0
M  V30 18690 N 1777.78 -1.89018 -6.76178 0
M  V30 18691 H 1782.62 -1.91653 -2.28195 0
M  V30 18692 H 1780.15 -0.955028 -1.11882 0
M  V30 18693 H 1782.11 -0.298383 -4.16132 0
M  V30 18694 H 1780.74 0.33324 -3.21075 0
M  V30 18695 H 1779.79 -2.08653 -3.18069 0
M  V30 18696 H 1781.11 -2.54987 -4.28699 0
M  V30 18697 H 1780.26 -0.928121 -5.99559 0
M  V30 18698 H 1779 -0.363397 -4.86344 0
M  V30 18699 H 1778 -2.66758 -4.8075 0
M  V30 18700 H 1779.23 -3.22941 -5.97399 0
M  V30 18701 H 1777.17 -1.04242 -6.47665 0
M  V30 18702 H 1777.09 -2.66731 -7.07383 0
M  V30 18703 H 1778.36 -1.61413 -7.62605 0
M  V30 18704 N 1782.59 1.19452 -1.02805 0
M  V30 18705 C 1783.81 1.93616 -0.743485 0
M  V30 18706 C 1784.24 1.74934 0.691342 0
M  V30 18707 O 1783.6 1.05111 1.47721 0
M  V30 18708 C 1783.64 3.43451 -1.0988 0
M  V30 18709 O 1782.75 4.11829 -0.216978 0
M  V30 18710 H 1782.09 0.60448 -0.274771 0
M  V30 18711 H 1784.62 1.51554 -1.37451 0
M  V30 18712 H 1784.63 3.94115 -1.05535 0
M  V30 18713 H 1783.3 3.5637 -2.14413 0
M  V30 18714 H 1781.88 3.71533 -0.318954 0
M  V30 18715 N 1784.07 0.805805 1.35442 0
M  V30 18716 C 1785.29 0.397179 2.03561 0
M  V30 18717 C 1785.72 -0.983665 1.6033 0
M  V30 18718 O 1785.07 -1.63683 0.779586 0
M  V30 18719 C 1785.12 0.487813 3.57285 0
M  V30 18720 O 1784.23 -0.499039 4.09369 0
M  V30 18721 H 1783.57 0.166009 0.642913 0
M  V30 18722 H 1786.1 1.09147 1.73055 0
M  V30 18723 H 1786.11 0.357334 4.06432 0
M  V30 18724 H 1784.78 1.49501 3.88101 0
M  V30 18725 H 1783.36 -0.328864 3.71447 0
M  V30 18726 N 1785.54 -1.47344 0.559239 0
M  V30 18727 C 1786.82 -1.95577 -0.0298268 0
M  V30 18728 C 1787.2 -1.50185 -1.4835 0
M  V30 18729 O 1786.55 -0.74162 -2.1613 0
M  V30 18730 C 1786.76 -3.48801 0.117767 0
M  V30 18731 C 1788.11 -4.24592 -0.026535 0
M  V30 18732 O 1789.13 -3.56171 0.0454163 0
M  V30 18733 O 1787.99 -5.46198 -0.181675 0
M  V30 18734 H 1785.08 -0.824597 -0.0629972 0
M  V30 18735 H 1787.63 -1.57736 0.625905 0
M  V30 18736 H 1786.4 -3.74652 1.12924 0
M  V30 18737 H 1786.03 -3.93413 -0.575483 0
M  V30 18738 N 1787.02 -0.295795 -1.54799 0
M  V30 18739 C 1788.25 0.317763 -2.04445 0
M  V30 18740 C 1788.67 1.47915 -1.17331 0
M  V30 18741 O 1788.02 1.81425 -0.197811 0
M  V30 18742 C 1788.07 0.778995 -3.53007 0
M  V30 18743 O 1787.79 -0.33616 -4.36808 0
M  V30 18744 C 1789.3 1.45824 -4.18629 0
M  V30 18745 H 1786.52 0.0697871 -0.667361 0
M  V30 18746 H 1789.06 -0.433911 -1.99844 0
M  V30 18747 H 1787.21 1.4807 -3.57986 0
M  V30 18748 H 1787.63 0.0219928 -5.24495 0
M  V30 18749 H 1789.1 1.73218 -5.24118 0
M  V30 18750 H 1789.58 2.3966 -3.68049 0
M  V30 18751 H 1790.19 0.799847 -4.17711 0
M  V30 18752 N 1788.5 1.57583 -0.0234236 0
M  V30 18753 C 1789.78 1.82844 0.694787 0
M  V30 18754 C 1790.16 0.906142 1.90663 0
M  V30 18755 O 1789.51 -0.039621 2.28466 0
M  V30 18756 C 1789.72 3.31921 1.07839 0
M  V30 18757 C 1791.06 3.98252 1.47243 0
M  V30 18758 O 1792.09 3.36383 1.17154 0
M  V30 18759 O 1790.95 5.07284 2.03285 0
M  V30 18760 H 1788.04 0.753723 0.340339 0
M  V30 18761 H 1790.59 1.69624 -0.0506703 0
M  V30 18762 H 1789.36 3.90705 0.215641 0
M  V30 18763 H 1788.98 3.50227 1.8822 0
M  V30 18764 N 1789.98 -0.249655 1.5561 0
M  V30 18765 C 1791.2 -0.999931 1.81703 0
M  V30 18766 C 1791.63 -1.7827 0.600113 0
M  V30 18767 O 1790.99 -1.75606 -0.450799 0
M  V30 18768 C 1791.04 -1.9157 3.05505 0
M  V30 18769 O 1790.14 -3.00702 2.82227 0
M  V30 18770 H 1789.48 -0.284673 0.599881 0
M  V30 18771 H 1792.01 -0.27148 2.02791 0
M  V30 18772 H 1792.02 -2.33088 3.34864 0
M  V30 18773 H 1790.7 -1.34014 3.93717 0
M  V30 18774 H 1789.27 -2.63332 2.64027 0
M  V30 18775 N 1791.46 -1.48941 -0.515198 0
M  V30 18776 C 1792.87 -1.35389 -0.8451 0
M  V30 18777 C 1793.07 -0.376141 -1.97958 0
M  V30 18778 O 1792.13 0.197324 -2.51728 0
M  V30 18779 C 1793.44 -2.75775 -1.19868 0
M  V30 18780 C 1794.99 -2.84373 -1.30772 0
M  V30 18781 C 1795.47 -4.25494 -1.69466 0
M  V30 18782 N 1796.96 -4.28237 -1.76542 0
M  V30 18783 C 1797.69 -5.34384 -2.07898 0
M  V30 18784 N 1797.19 -6.50792 -2.37575 0
M  V30 18785 N 1798.98 -5.21789 -2.09029 0
M  V30 18786 H 1791.13 -2.11117 0.233118 0
M  V30 18787 H 1793.39 -0.947083 0.0416757 0
M  V30 18788 H 1793.1 -3.48955 -0.438565 0
M  V30 18789 H 1792.97 -3.10243 -2.14545 0
M  V30 18790 H 1795.36 -2.11439 -2.05858 0
M  V30 18791 H 1795.44 -2.53506 -0.341808 0
M  V30 18792 H 1795.09 -4.98949 -0.949358 0
M  V30 18793 H 1795.02 -4.53814 -2.67133 0
M  V30 18794 H 1797.51 -3.44278 -1.55824 0
M  V30 18795 H 1797.82 -7.27518 -2.60649 0
M  V30 18796 H 1796.17 -6.54042 -2.35062 0
M  V30 18797 H 1799.36 -4.29858 -1.85311 0
M  V30 18798 H 1799.53 -6.0461 -2.33133 0
M  V30 18799 N 1792.94 0.765193 -1.37777 0
M  V30 18800 C 1794.16 1.55948 -1.3673 0
M  V30 18801 C 1794.59 1.8805 0.0435817 0
M  V30 18802 O 1793.94 1.49718 1.02246 0
M  V30 18803 C 1793.99 2.84245 -2.21895 0
M  V30 18804 O 1793.1 3.78903 -1.62807 0
M  V30 18805 H 1792.44 0.472127 -0.466897 0
M  V30 18806 H 1794.97 0.946556 -1.81388 0
M  V30 18807 H 1794.98 3.33284 -2.35342 0
M  V30 18808 H 1793.65 2.60209 -3.24444 0
M  V30 18809 H 1792.23 3.37568 -1.58437 0
M  V30 18810 N 1794.41 1.22455 0.992094 0
M  V30 18811 C 1795.34 1.01961 2.10063 0
M  V30 18812 C 1796.32 -0.0597186 1.69995 0
M  V30 18813 O 1797.51 0.102655 1.93928 0
M  V30 18814 C 1794.64 0.597442 3.42123 0
M  V30 18815 C 1793.59 1.62279 3.96042 0
M  V30 18816 C 1792.92 1.05644 5.2416 0
M  V30 18817 C 1794.22 3.01296 4.26635 0
M  V30 18818 H 1795.91 1.94678 2.27466 0
M  V30 18819 H 1793.46 0.937422 1.09309 0
M  V30 18820 H 1795.41 0.441175 4.19084 0
M  V30 18821 H 1794.14 -0.365401 3.24549 0
M  V30 18822 H 1792.8 1.76685 3.21213 0
M  V30 18823 H 1792.44 0.0849267 5.02928 0
M  V30 18824 H 1792.14 1.74144 5.61202 0
M  V30 18825 H 1793.67 0.911774 6.03754 0
M  V30 18826 H 1795.08 2.9026 4.94391 0
M  V30 18827 H 1793.48 3.66928 4.74852 0
M  V30 18828 H 1794.55 3.51168 3.34378 0
M  V30 18829 N 1795.89 -1.18905 1.03437 0
M  V30 18830 C 1797.31 -1.4075 0.752444 0
M  V30 18831 C 1797.51 -1.90361 -0.660679 0
M  V30 18832 O 1796.56 -2.08389 -1.42584 0
M  V30 18833 C 1797.88 -2.4138 1.79321 0
M  V30 18834 C 1799.42 -2.55118 1.81339 0
M  V30 18835 C 1799.9 -3.59007 2.8439 0
M  V30 18836 N 1801.39 -3.66508 2.83242 0
M  V30 18837 C 1802.13 -4.46602 3.59631 0
M  V30 18838 N 1801.62 -5.30355 4.45753 0
M  V30 18839 N 1803.41 -4.41304 3.48148 0
M  V30 18840 H 1795.57 -0.850259 1.94639 0
M  V30 18841 H 1797.83 -0.435962 0.841808 0
M  V30 18842 H 1797.53 -2.11963 2.80651 0
M  V30 18843 H 1797.41 -3.40636 1.62008 0
M  V30 18844 H 1799.8 -2.83856 0.806847 0
M  V30 18845 H 1799.88 -1.55996 2.02728 0
M  V30 18846 H 1799.52 -3.31011 3.8522 0
M  V30 18847 H 1799.45 -4.57792 2.60258 0
M  V30 18848 H 1801.94 -3.06697 2.20784 0
M  V30 18849 H 1802.25 -5.88603 5.00766 0
M  V30 18850 H 1800.6 -5.29797 4.49823 0
M  V30 18851 H 1803.79 -3.74918 2.80275 0
M  V30 18852 H 1803.96 -5.03483 4.07932 0
M  V30 18853 N 1797.37 -0.812977 -1.35013 0
M  V30 18854 C 1798.3 -0.242397 -2.32238 0
M  V30 18855 C 1799.28 0.635676 -1.57776 0
M  V30 18856 O 1800.47 0.564621 -1.85811 0
M  V30 18857 C 1797.6 0.604686 -3.41995 0
M  V30 18858 C 1796.55 -0.17542 -4.2764 0
M  V30 18859 C 1795.88 0.793772 -5.28775 0
M  V30 18860 C 1797.18 -1.37802 -5.03794 0
M  V30 18861 H 1798.87 -1.0547 -2.80208 0
M  V30 18862 H 1796.42 -0.508619 -1.34718 0
M  V30 18863 H 1798.37 1.01396 -4.09019 0
M  V30 18864 H 1797.09 1.44994 -2.9265 0
M  V30 18865 H 1795.75 -0.565948 -3.62205 0
M  V30 18866 H 1795.4 1.63471 -4.75696 0
M  V30 18867 H 1795.1 0.276085 -5.86951 0
M  V30 18868 H 1796.62 1.20112 -5.9867 0
M  V30 18869 H 1798.04 -1.04328 -5.63727 0
M  V30 18870 H 1796.43 -1.83064 -5.71496 0
M  V30 18871 H 1797.5 -2.16138 -4.34065 0
M  V30 18872 N 1798.85 1.47045 -0.567045 0
M  V30 18873 C 1799.79 2.30135 0.175115 0
M  V30 18874 C 1800.76 1.39665 0.899049 0
M  V30 18875 O 1801.95 1.68623 0.892809 0
M  V30 18876 C 1799.09 3.23827 1.19289 0
M  V30 18877 C 1798.2 4.29392 0.474011 0
M  V30 18878 C 1797.34 5.10226 1.47793 0
M  V30 18879 C 1796.38 6.07554 0.744584 0
M  V30 18880 N 1795.51 6.81313 1.69581 0
M  V30 18881 H 1800.35 2.93075 -0.539529 0
M  V30 18882 H 1797.89 1.44451 -0.277889 0
M  V30 18883 H 1799.85 3.76579 1.79567 0
M  V30 18884 H 1798.48 2.6273 1.87544 0
M  V30 18885 H 1797.53 3.7962 -0.243494 0
M  V30 18886 H 1798.84 4.987 -0.100022 0
M  V30 18887 H 1798 5.67176 2.15397 0
M  V30 18888 H 1796.74 4.40842 2.08589 0
M  V30 18889 H 1795.74 5.49773 0.0546832 0
M  V30 18890 H 1796.97 6.78951 0.142235 0
M  V30 18891 H 1794.91 6.14651 2.29216 0
M  V30 18892 H 1794.83 7.46826 1.17418 0
M  V30 18893 H 1796.1 7.42831 2.36268 0
M  V30 18894 N 1800.33 0.304 1.5464 0
M  V30 18895 C 1801.57 -0.305185 1.99378 0
M  V30 18896 C 1801.89 -1.54773 1.19602 0
M  V30 18897 O 1803.09 -2.23169 1.54621 0
M  V30 18898 C 1801.55 -0.594303 3.54959 0
M  V30 18899 C 1801.16 0.630078 4.43547 0
M  V30 18900 C 1802.9 -1.16452 4.08215 0
M  V30 18901 C 1800.81 0.313946 5.90566 0
M  V30 18902 H 1799.74 -0.11781 0.744739 0
M  V30 18903 H 1802.39 0.413174 1.78788 0
M  V30 18904 H 1800.77 -1.37233 3.71461 0
M  V30 18905 H 1801.95 1.40619 4.3882 0
M  V30 18906 H 1800.26 1.11914 4.01079 0
M  V30 18907 H 1802.86 -1.41534 5.15628 0
M  V30 18908 H 1803.2 -2.10773 3.58999 0
M  V30 18909 H 1803.73 -0.448123 3.95268 0
M  V30 18910 H 1800.47 1.2258 6.43937 0
M  V30 18911 H 1799.99 -0.424841 5.98294 0
M  V30 18912 H 1801.67 -0.083395 6.46946 0
M  V30 18913 N 1801.8 -1.57568 0.0317802 0
M  V30 18914 C 1802.75 -2.10379 -0.949183 0
M  V30 18915 C 1803.72 -1.00649 -1.32133 0
M  V30 18916 O 1804.91 -1.28084 -1.41418 0
M  V30 18917 C 1802.05 -2.63762 -2.22539 0
M  V30 18918 C 1801.16 -3.87509 -1.90946 0
M  V30 18919 C 1800.29 -4.29276 -3.12882 0
M  V30 18920 C 1799.33 -5.45775 -2.77121 0
M  V30 18921 N 1798.47 -5.82686 -3.9169 0
M  V30 18922 H 1803.31 -2.93912 -0.491922 0
M  V30 18923 H 1800.85 -1.45272 -0.23121 0
M  V30 18924 H 1802.8 -2.92803 -2.9719 0
M  V30 18925 H 1801.43 -1.83055 -2.65877 0
M  V30 18926 H 1800.49 -3.6518 -1.06526 0
M  V30 18927 H 1801.8 -4.72235 -1.6061 0
M  V30 18928 H 1800.95 -4.59768 -3.95851 0
M  V30 18929 H 1799.69 -3.43323 -3.46382 0
M  V30 18930 H 1798.7 -5.14974 -1.92565 0
M  V30 18931 H 1799.92 -6.3343 -2.44834 0
M  V30 18932 H 1797.87 -4.99688 -4.25027 0
M  V30 18933 H 1797.78 -6.62058 -3.64986 0
M  V30 18934 H 1799.05 -6.17785 -4.75355 0
M  V30 18935 N 1803.28 0.241399 -1.5574 0
M  V30 18936 C 1804.53 0.968663 -1.77829 0
M  V30 18937 C 1804.86 1.85109 -0.597078 0
M  V30 18938 O 1804.11 1.91153 0.419396 0
M  V30 18939 C 1804.41 1.8552 -3.05478 0
M  V30 18940 C 1804.08 1.12767 -4.36571 0
M  V30 18941 C 1802.74 0.926631 -4.72194 0
M  V30 18942 C 1805.09 0.612437 -5.17589 0
M  V30 18943 C 1802.42 0.198133 -5.86365 0
M  V30 18944 C 1804.77 -0.102621 -6.32517 0
M  V30 18945 C 1803.44 -0.315095 -6.66756 0
M  V30 18946 H 1802.71 0.354459 -0.650723 0
M  V30 18947 H 1805.35 0.238329 -1.90011 0
M  V30 18948 H 1803.66 2.65277 -2.88332 0
M  V30 18949 H 1805.35 2.4197 -3.19768 0
M  V30 18950 H 1801.94 1.29432 -4.08589 0
M  V30 18951 H 1806.13 0.755287 -4.90519 0
M  V30 18952 H 1801.38 0.0230937 -6.11396 0
M  V30 18953 H 1805.56 -0.509468 -6.94534 0
M  V30 18954 H 1803.19 -0.881538 -7.55071 0
M  V30 18955 N 1804.76 1.49212 0.507292 0
M  V30 18956 C 1806.17 1.51655 1.08892 0
M  V30 18957 C 1806.52 0.299163 1.93906 0
M  V30 18958 O 1805.65 -0.591635 2.08155 0
M  V30 18959 C 1806.24 2.7481 1.98154 0
M  V30 18960 C 1804.8 2.80051 2.51492 0
M  V30 18961 C 1803.95 2.45486 1.28966 0
M  V30 18962 H 1806.9 1.56 0.291488 0
M  V30 18963 H 1806.92 2.54615 2.82757 0
M  V30 18964 H 1806.43 3.63396 1.36253 0
M  V30 18965 H 1804.53 1.95729 3.1705 0
M  V30 18966 H 1804.65 3.82064 2.89075 0
M  V30 18967 H 1803.01 1.97128 1.61284 0
M  V30 18968 H 1803.79 3.36339 0.687821 0
M  V30 18969 N 1806.24 -0.757876 1.38181 0
M  V30 18970 C 1807.19 -1.87152 1.35065 0
M  V30 18971 C 1808.16 -1.64717 0.213892 0
M  V30 18972 O 1809.34 -1.86442 0.405448 0
M  V30 18973 C 1806.48 -3.24398 1.17728 0
M  V30 18974 C 1805.59 -3.58694 2.40754 0
M  V30 18975 C 1804.73 -4.85221 2.16181 0
M  V30 18976 C 1803.77 -5.1229 3.35001 0
M  V30 18977 N 1802.9 -6.3001 3.0989 0
M  V30 18978 H 1807.74 -1.89151 2.30274 0
M  V30 18979 H 1805.28 -0.924571 1.14412 0
M  V30 18980 H 1807.24 -4.0359 1.05694 0
M  V30 18981 H 1805.87 -3.21738 0.261606 0
M  V30 18982 H 1804.92 -2.74379 2.63477 0
M  V30 18983 H 1806.23 -3.74628 3.29325 0
M  V30 18984 H 1805.39 -5.72346 2.01258 0
M  V30 18985 H 1804.13 -4.71417 1.24969 0
M  V30 18986 H 1803.13 -4.23635 3.50448 0
M  V30 18987 H 1804.36 -5.27993 4.27083 0
M  V30 18988 H 1802.3 -6.17538 2.21321 0
M  V30 18989 H 1802.22 -6.46425 3.92009 0
M  V30 18990 H 1803.49 -7.20035 2.98613 0
M  V30 18991 N 1807.72 -1.22979 -0.985586 0
M  V30 18992 C 1808.65 -1.03073 -2.09519 0
M  V30 18993 C 1809.63 0.0507025 -1.70024 0
M  V30 18994 O 1810.81 -0.112938 -1.93871 0
M  V30 18995 C 1807.94 -0.615578 -3.41801 0
M  V30 18996 C 1806.9 -1.64377 -3.95176 0
M  V30 18997 C 1806.22 -1.08422 -5.23592 0
M  V30 18998 C 1807.52 -3.03555 -4.25032 0
M  V30 18999 H 1809.22 -1.95882 -2.2643 0
M  V30 19000 H 1806.76 -0.943206 -1.0881 0
M  V30 19001 H 1808.72 -0.463394 -4.18844 0
M  V30 19002 H 1807.44 0.348185 -3.24739 0
M  V30 19003 H 1806.1 -1.78386 -3.20272 0
M  V30 19004 H 1805.75 -0.111597 -5.02876 0
M  V30 19005 H 1805.45 -1.77118 -5.6027 0
M  V30 19006 H 1806.97 -0.94378 -6.03262 0
M  V30 19007 H 1808.38 -2.92878 -4.92844 0
M  V30 19008 H 1806.78 -3.69441 -4.72899 0
M  V30 19009 H 1807.85 -3.52937 -3.32511 0
M  V30 19010 N 1809.19 1.18355 -1.04066 0
M  V30 19011 C 1810.44 1.87963 -0.742576 0
M  V30 19012 C 1810.76 1.80744 0.731899 0
M  V30 19013 O 1810.03 1.22576 1.52813 0
M  V30 19014 H 1808.61 0.69584 -0.271689 0
M  V30 19015 H 1811.28 1.43632 -1.31741 0
M  V30 19016 H 1810.37 2.93999 -1.04741 0
M  V30 19017 N 1810.67 0.820125 1.3458 0
M  V30 19018 C 1811.62 0.237994 2.2957 0
M  V30 19019 C 1812.59 -0.635637 1.53456 0
M  V30 19020 O 1813.77 -0.57787 1.81839 0
M  V30 19021 C 1810.91 -0.596426 3.39907 0
M  V30 19022 C 1810.03 0.29914 4.30963 0
M  V30 19023 C 1809.16 -0.54458 5.28401 0
M  V30 19024 C 1808.2 0.350546 6.11095 0
M  V30 19025 N 1807.34 -0.453936 7.00631 0
M  V30 19026 H 1812.18 1.0534 2.7876 0
M  V30 19027 H 1809.72 0.530977 1.37183 0
M  V30 19028 H 1811.67 -1.0955 4.0256 0
M  V30 19029 H 1810.3 -1.37697 2.91958 0
M  V30 19030 H 1809.36 0.916412 3.69196 0
M  V30 19031 H 1810.67 0.987544 4.88926 0
M  V30 19032 H 1809.82 -1.10825 5.96492 0
M  V30 19033 H 1808.56 -1.2665 4.70968 0
M  V30 19034 H 1807.57 0.926375 5.41939 0
M  V30 19035 H 1808.79 1.07054 6.70609 0
M  V30 19036 H 1806.74 -1.15958 6.4567 0
M  V30 19037 H 1806.65 0.176138 7.55795 0
M  V30 19038 H 1807.92 -1.00044 7.73053 0
M  V30 19039 N 1812.15 -1.46743 0.574835 0
M  V30 19040 C 1813.1 -2.30224 -0.162908 0
M  V30 19041 C 1814.07 -1.4014 -0.891629 0
M  V30 19042 O 1815.25 -1.69094 -0.883854 0
M  V30 19043 C 1812.39 -3.24456 -1.1757 0
M  V30 19044 C 1811.51 -4.29637 -0.451233 0
M  V30 19045 C 1810.64 -5.11003 -1.45085 0
M  V30 19046 C 1809.68 -6.07941 -0.712353 0
M  V30 19047 N 1808.82 -6.82202 -1.65965 0
M  V30 19048 H 1813.66 -2.92785 0.555063 0
M  V30 19049 H 1811.19 -1.44302 0.285546 0
M  V30 19050 H 1813.15 -3.77526 -1.77567 0
M  V30 19051 H 1811.78 -2.63721 -1.86148 0
M  V30 19052 H 1810.83 -3.79485 0.263623 0
M  V30 19053 H 1812.15 -4.9864 0.126468 0
M  V30 19054 H 1811.3 -5.68311 -2.12386 0
M  V30 19055 H 1810.04 -4.41942 -2.06248 0
M  V30 19056 H 1809.04 -5.49794 -0.0255266 0
M  V30 19057 H 1810.27 -6.79017 -0.106227 0
M  V30 19058 H 1808.21 -6.15858 -2.25953 0
M  V30 19059 H 1808.13 -7.47438 -1.13456 0
M  V30 19060 H 1809.4 -7.44073 -2.32325 0
M  V30 19061 N 1813.63 -0.312197 -1.54477 0
M  V30 19062 C 1814.58 0.558894 -2.23931 0
M  V30 19063 C 1815.55 1.12071 -1.22594 0
M  V30 19064 O 1816.73 1.16316 -1.51245 0
M  V30 19065 C 1813.87 1.71948 -2.99212 0
M  V30 19066 C 1812.98 1.18799 -4.15344 0
M  V30 19067 C 1812.12 2.31334 -4.78182 0
M  V30 19068 C 1811.16 1.75375 -5.86438 0
M  V30 19069 N 1810.29 2.81528 -6.43184 0
M  V30 19070 H 1815.13 -0.0399708 -2.97973 0
M  V30 19071 H 1812.67 -0.0314967 -1.47066 0
M  V30 19072 H 1814.63 2.40225 -3.41098 0
M  V30 19073 H 1813.26 2.28981 -2.27525 0
M  V30 19074 H 1812.31 0.397122 -3.78321 0
M  V30 19075 H 1813.62 0.738426 -4.93304 0
M  V30 19076 H 1812.78 3.07537 -5.22978 0
M  V30 19077 H 1811.52 2.79622 -3.99578 0
M  V30 19078 H 1810.52 0.976658 -5.41056 0
M  V30 19079 H 1811.75 1.27978 -6.66932 0
M  V30 19080 H 1809.69 3.29129 -5.6746 0
M  V30 19081 H 1809.61 2.41101 -7.16524 0
M  V30 19082 H 1810.88 3.57595 -6.92637 0
M  V30 19083 N 1815.11 1.57549 -0.040136 0
M  V30 19084 C 1816.35 1.92535 0.637037 0
M  V30 19085 C 1816.69 0.917836 1.71141 0
M  V30 19086 O 1815.96 -0.057824 1.94414 0
M  V30 19087 C 1816.24 3.37955 1.24333 0
M  V30 19088 C 1816.1 4.49449 0.177761 0
M  V30 19089 C 1817.42 3.8355 2.15818 0
M  V30 19090 H 1814.53 0.700157 0.230107 0
M  V30 19091 H 1817.18 1.89739 -0.0996468 0
M  V30 19092 H 1815.33 3.40468 1.87119 0
M  V30 19093 H 1817 4.59065 -0.453507 0
M  V30 19094 H 1815.24 4.30961 -0.495486 0
M  V30 19095 H 1815.91 5.48256 0.641792 0
M  V30 19096 H 1818.39 3.82842 1.63006 0
M  V30 19097 H 1817.26 4.85974 2.55188 0
M  V30 19098 H 1817.53 3.19678 3.05382 0
M  V30 19099 N 1816.58 -0.233136 1.55866 0
M  V30 19100 C 1817.49 -1.31004 1.94615 0
M  V30 19101 C 1818.51 -1.51915 0.848399 0
M  V30 19102 O 1819.69 -1.6527 1.15098 0
M  V30 19103 C 1816.75 -2.64203 2.24494 0
M  V30 19104 C 1815.81 -2.51695 3.47776 0
M  V30 19105 C 1815.05 -3.78542 3.7622 0
M  V30 19106 O 1815.27 -4.81043 3.06519 0
M  V30 19107 O 1814.2 -3.76348 4.69729 0
M  V30 19108 H 1818.03 -1.01129 2.86368 0
M  V30 19109 H 1815.61 -0.435043 1.42926 0
M  V30 19110 H 1817.5 -3.42889 2.44959 0
M  V30 19111 H 1816.17 -2.93782 1.35918 0
M  V30 19112 H 1815.08 -1.71248 3.32603 0
M  V30 19113 H 1816.41 -2.27058 4.36698 0
M  V30 19114 N 1818.06 -1.49479 -0.499372 0
M  V30 19115 C 1818.97 -1.69006 -1.62709 0
M  V30 19116 C 1819.99 -0.572681 -1.64306 0
M  V30 19117 O 1821.17 -0.847586 -1.82696 0
M  V30 19118 C 1818.23 -1.75382 -2.99069 0
M  V30 19119 C 1817.29 -2.98968 -3.08086 0
M  V30 19120 C 1816.52 -3.0503 -4.37941 0
M  V30 19121 O 1816.75 -2.18641 -5.26832 0
M  V30 19122 O 1815.68 -3.97507 -4.51964 0
M  V30 19123 H 1819.51 -2.64544 -1.49164 0
M  V30 19124 H 1817.09 -1.3324 -0.675836 0
M  V30 19125 H 1818.97 -1.81919 -3.8011 0
M  V30 19126 H 1817.65 -0.830226 -3.12872 0
M  V30 19127 H 1816.56 -2.97947 -2.26227 0
M  V30 19128 H 1817.89 -3.90812 -2.9921 0
M  V30 19129 N 1819.54 0.750537 -1.38581 0
M  V30 19130 C 1820.45 1.89503 -1.38296 0
M  V30 19131 C 1821.47 1.71738 -0.279678 0
M  V30 19132 O 1822.64 1.94608 -0.518607 0
M  V30 19133 C 1819.71 3.24909 -1.20976 0
M  V30 19134 C 1818.77 3.55178 -2.41136 0
M  V30 19135 C 1818 4.84124 -2.24633 0
M  V30 19136 O 1818.23 5.56722 -1.24164 0
M  V30 19137 O 1817.16 5.1394 -3.13288 0
M  V30 19138 H 1820.99 1.92698 -2.34737 0
M  V30 19139 H 1818.57 0.896233 -1.19533 0
M  V30 19140 H 1820.45 4.05858 -1.13389 0
M  V30 19141 H 1819.13 3.22519 -0.276217 0
M  V30 19142 H 1818.03 2.74378 -2.54298 0
M  V30 19143 H 1819.37 3.62332 -3.33131 0
M  V30 19144 N 1821.02 1.235 0.979051 0
M  V30 19145 C 1822.44 0.997948 1.24552 0
M  V30 19146 C 1822.64 -0.300139 1.99252 0
M  V30 19147 O 1821.69 -1.01923 2.31015 0
M  V30 19148 C 1823 2.2057 2.04375 0
M  V30 19149 C 1824.55 2.25075 2.17509 0
M  V30 19150 C 1825.03 3.45441 3.00724 0
M  V30 19151 N 1826.52 3.45688 3.08308 0
M  V30 19152 C 1827.25 4.35478 3.73024 0
M  V30 19153 N 1826.75 5.35506 4.39551 0
M  V30 19154 N 1828.54 4.23218 3.69923 0
M  V30 19155 H 1820.69 2.06936 0.478649 0
M  V30 19156 H 1822.96 0.907514 0.274083 0
M  V30 19157 H 1822.66 3.14781 1.56863 0
M  V30 19158 H 1822.54 2.21765 3.05123 0
M  V30 19159 H 1824.92 1.31403 2.64229 0
M  V30 19160 H 1825 2.27912 1.16146 0
M  V30 19161 H 1824.65 4.3942 2.547 0
M  V30 19162 H 1824.58 3.39845 4.0226 0
M  V30 19163 H 1827.07 2.73315 2.60974 0
M  V30 19164 H 1827.38 6.00274 4.86715 0
M  V30 19165 H 1825.73 5.39404 4.38256 0
M  V30 19166 H 1828.92 3.44315 3.17119 0
M  V30 19167 H 1829.09 4.93396 4.20076 0
M  V30 19168 N 1822.5 -1.17802 1.04693 0
M  V30 19169 C 1823.44 -2.21648 0.643478 0
M  V30 19170 C 1824.41 -1.6233 -0.351858 0
M  V30 19171 O 1825.6 -1.89228 -0.244414 0
M  V30 19172 C 1822.74 -3.45095 0.019145 0
M  V30 19173 C 1821.85 -4.18725 1.06271 0
M  V30 19174 C 1820.99 -5.29644 0.406224 0
M  V30 19175 C 1820.03 -5.95055 1.43444 0
M  V30 19176 N 1819.16 -6.97499 0.802482 0
M  V30 19177 H 1824 -2.55513 1.53352 0
M  V30 19178 H 1821.54 -1.25518 0.767051 0
M  V30 19179 H 1823.5 -4.15642 -0.36023 0
M  V30 19180 H 1822.13 -3.1183 -0.834386 0
M  V30 19181 H 1821.18 -3.46943 1.55996 0
M  V30 19182 H 1822.49 -4.63486 1.84342 0
M  V30 19183 H 1821.65 -6.06694 -0.027012 0
M  V30 19184 H 1820.39 -4.86003 -0.406525 0
M  V30 19185 H 1819.39 -5.1674 1.87775 0
M  V30 19186 H 1820.62 -6.40778 2.249 0
M  V30 19187 H 1818.56 -6.55999 0.010153 0
M  V30 19188 H 1818.48 -7.40545 1.52081 0
M  V30 19189 H 1819.75 -7.78504 0.393852 0
M  V30 19190 N 1823.98 -0.827251 -1.34143 0
M  V30 19191 C 1825.39 -0.475645 -1.80539 0
M  V30 19192 C 1825.74 1.00435 -1.68545 0
M  V30 19193 O 1824.86 1.78186 -1.22795 0
M  V30 19194 C 1825.46 -0.856588 -3.27793 0
M  V30 19195 C 1824.02 -0.557289 -3.72252 0
M  V30 19196 C 1823.16 -1.07118 -2.55775 0
M  V30 19197 H 1826.11 -1.01703 -1.21829 0
M  V30 19198 H 1826.14 -0.162059 -3.80155 0
M  V30 19199 H 1825.65 -1.93379 -3.36491 0
M  V30 19200 H 1823.75 0.510328 -3.69089 0
M  V30 19201 H 1823.86 -1.10438 -4.66198 0
M  V30 19202 H 1822.23 -0.492534 -2.49892 0
M  V30 19203 H 1823.01 -2.15492 -2.67242 0
M  V30 19204 N 1825.45 1.46436 -0.582609 0
M  V30 19205 C 1826.4 2.30308 0.150697 0
M  V30 19206 C 1827.37 1.40611 0.884185 0
M  V30 19207 O 1828.56 1.6956 0.874874 0
M  V30 19208 C 1825.7 3.25074 1.15847 0
M  V30 19209 C 1824.81 4.2987 0.428442 0
M  V30 19210 C 1823.94 5.11765 1.42373 0
M  V30 19211 C 1822.98 6.0831 0.680103 0
M  V30 19212 N 1822.12 6.83073 1.62345 0
M  V30 19213 H 1826.96 2.92487 -0.570583 0
M  V30 19214 H 1824.5 1.44148 -0.293195 0
M  V30 19215 H 1826.45 3.78462 1.75563 0
M  V30 19216 H 1825.08 2.64704 1.84747 0
M  V30 19217 H 1824.14 3.7934 -0.283744 0
M  V30 19218 H 1825.45 4.98566 -0.15291 0
M  V30 19219 H 1824.6 5.69429 2.09369 0
M  V30 19220 H 1823.34 4.4303 2.03902 0
M  V30 19221 H 1822.35 5.498 -0.00363067 0
M  V30 19222 H 1823.57 6.79064 0.0702152 0
M  V30 19223 H 1821.52 6.17048 2.22684 0
M  V30 19224 H 1821.43 7.48029 1.0949 0
M  V30 19225 H 1822.7 7.45295 2.28376 0
M  V30 19226 N 1826.93 0.320385 1.54309 0
M  V30 19227 C 1828.16 -0.28794 2.05391 0
M  V30 19228 C 1828.58 -1.45249 1.19517 0
M  V30 19229 O 1827.94 -1.80154 0.203556 0
M  V30 19230 C 1827.99 -0.703261 3.53676 0
M  V30 19231 O 1827.09 -1.80598 3.70753 0
M  V30 19232 H 1826.43 -0.052589 0.661914 0
M  V30 19233 H 1828.96 0.46787 1.99179 0
M  V30 19234 H 1828.97 -0.986793 3.95887 0
M  V30 19235 H 1827.65 0.148514 4.15635 0
M  V30 19236 H 1826.22 -1.5215 3.40448 0
M  V30 19237 N 1828.41 -1.57525 0.0484906 0
M  V30 19238 C 1829.66 -1.92204 -0.624654 0
M  V30 19239 C 1829.98 -0.927289 -1.71541 0
M  V30 19240 O 1829.25 0.0282687 -1.9588 0
M  V30 19241 H 1827.83 -0.709494 -0.233724 0
M  V30 19242 H 1830.49 -1.94639 0.100861 0
M  V30 19243 H 1829.59 -2.93368 -1.06498 0
M  V30 19244 N 1829.89 0.224867 -1.55988 0
M  V30 19245 C 1830.82 1.30204 -1.88626 0
M  V30 19246 C 1831.83 1.4321 -0.774248 0
M  V30 19247 O 1833.02 1.44167 -1.05253 0
M  V30 19248 C 1830.12 2.67806 -2.07685 0
M  V30 19249 C 1829.29 2.76789 -3.38684 0
M  V30 19250 C 1828.35 3.95383 -3.47216 0
M  V30 19251 O 1827.38 3.83876 -4.20271 0
M  V30 19252 N 1828.58 5.09541 -2.78116 0
M  V30 19253 H 1831.35 1.02533 -2.81615 0
M  V30 19254 H 1828.91 0.414916 -1.56493 0
M  V30 19255 H 1830.9 3.45518 -2.10712 0
M  V30 19256 H 1829.47 2.88091 -1.21336 0
M  V30 19257 H 1828.69 1.8558 -3.47784 0
M  V30 19258 H 1829.98 2.79758 -4.24986 0
M  V30 19259 H 1829.38 5.21785 -2.18535 0
M  V30 19260 H 1827.93 5.85307 -2.86808 0
M  V30 19261 N 1831.37 1.49742 0.491438 0
M  V30 19262 C 1832.59 1.63703 1.27343 0
M  V30 19263 C 1833.02 0.312079 1.85493 0
M  V30 19264 O 1832.37 -0.721545 1.66323 0
M  V30 19265 C 1832.42 2.71549 2.37262 0
M  V30 19266 O 1831.53 2.31387 3.41371 0
M  V30 19267 H 1830.87 0.547605 0.375533 0
M  V30 19268 H 1833.4 1.95991 0.587243 0
M  V30 19269 H 1833.41 2.94009 2.82883 0
M  V30 19270 H 1832.08 3.6772 1.94306 0
M  V30 19271 H 1830.66 2.19295 3.01603 0
M  V30 19272 N 1832.84 -0.743177 1.38977 0
M  V30 19273 C 1834.09 -1.50479 1.35956 0
M  V30 19274 C 1834.42 -1.94143 -0.0471116 0
M  V30 19275 O 1833.7 -1.66195 -1.01042 0
M  V30 19276 C 1833.98 -2.75016 2.32461 0
M  V30 19277 C 1833.83 -2.37423 3.82034 0
M  V30 19278 C 1835.15 -3.77084 2.26927 0
M  V30 19279 H 1832.27 -0.545869 0.495172 0
M  V30 19280 H 1834.91 -0.850403 1.69906 0
M  V30 19281 H 1833.06 -3.30852 2.03639 0
M  V30 19282 H 1834.74 -1.87282 4.21572 0
M  V30 19283 H 1832.98 -1.69752 3.99208 0
M  V30 19284 H 1833.65 -3.2657 4.45035 0
M  V30 19285 H 1836.13 -3.30812 2.52394 0
M  V30 19286 H 1835 -4.61901 2.96545 0
M  V30 19287 H 1835.26 -4.23419 1.27156 0
M  V30 19288 N 1834.32 -1.24018 -0.972487 0
M  V30 19289 C 1835.25 -0.986185 -2.06899 0
M  V30 19290 C 1836.27 0.0426574 -1.62744 0
M  V30 19291 O 1837.46 -0.193816 -1.77445 0
M  V30 19292 C 1834.56 -0.46551 -3.35688 0
M  V30 19293 C 1833.73 -1.55637 -4.08774 0
M  V30 19294 C 1832.79 -1.03918 -5.15837 0
M  V30 19295 O 1831.81 -1.72986 -5.42277 0
M  V30 19296 N 1833.02 0.128891 -5.80357 0
M  V30 19297 H 1835.78 -1.93025 -2.29263 0
M  V30 19298 H 1833.34 -1.14983 -1.13976 0
M  V30 19299 H 1835.33 -0.104379 -4.04565 0
M  V30 19300 H 1833.9 0.384166 -3.1023 0
M  V30 19301 H 1833.12 -2.08991 -3.3424 0
M  V30 19302 H 1834.41 -2.28973 -4.54366 0
M  V30 19303 H 1833.81 0.706438 -5.61272 0
M  V30 19304 H 1832.37 0.431211 -6.50372 0
M  V30 19305 N 1835.8 1.17245 -1.05316 0
M  V30 19306 C 1837.03 1.91995 -0.784387 0
M  V30 19307 C 1837.45 1.76362 0.65408 0
M  V30 19308 O 1836.81 1.0822 1.45458 0
M  V30 19309 C 1836.86 3.41043 -1.1714 0
M  V30 19310 O 1835.96 4.11276 -0.304285 0
M  V30 19311 H 1835.3 0.598516 -0.287532 0
M  V30 19312 H 1837.83 1.48604 -1.40634 0
M  V30 19313 H 1837.84 3.91788 -1.13871 0
M  V30 19314 H 1836.52 3.51742 -2.21924 0
M  V30 19315 H 1835.09 3.70773 -0.39769 0
M  V30 19316 N 1837.28 0.834353 1.33702 0
M  V30 19317 C 1838.53 0.427887 1.97928 0
M  V30 19318 C 1838.85 -1.0118 1.66111 0
M  V30 19319 O 1838.11 -1.72144 0.930848 0
M  V30 19320 C 1838.41 0.590236 3.52493 0
M  V30 19321 C 1838.07 1.99735 4.04249 0
M  V30 19322 C 1836.74 2.38224 4.18094 0
M  V30 19323 C 1839.09 2.91665 4.3195 0
M  V30 19324 C 1836.42 3.67957 4.56973 0
M  V30 19325 C 1838.77 4.20874 4.72279 0
M  V30 19326 C 1837.43 4.59326 4.8433 0
M  V30 19327 H 1836.7 0.156575 0.724269 0
M  V30 19328 H 1839.35 1.06051 1.59454 0
M  V30 19329 H 1837.65 -0.125718 3.91598 0
M  V30 19330 H 1839.35 0.256094 4.00181 0
M  V30 19331 H 1835.94 1.6884 3.93943 0
M  V30 19332 H 1840.12 2.63168 4.20781 0
M  V30 19333 H 1835.38 3.9756 4.64495 0
M  V30 19334 H 1839.55 4.92187 4.92671 0
M  V30 19335 H 1837.18 5.59901 5.14213 0
M  V30 19336 N 1838.76 -1.46125 0.590367 0
M  V30 19337 C 1840.01 -2.01555 0.0765543 0
M  V30 19338 C 1840.32 -1.46661 -1.29422 0
M  V30 19339 O 1841.52 -1.93958 -1.8998 0
M  V30 19340 C 1839.98 -3.59797 0.0862369 0
M  V30 19341 C 1839.59 -4.23687 1.4558 0
M  V30 19342 C 1841.33 -4.22856 -0.373232 0
M  V30 19343 C 1839.24 -5.7403 1.42279 0
M  V30 19344 H 1838.17 -0.75359 0.0248501 0
M  V30 19345 H 1840.82 -1.67778 0.743149 0
M  V30 19346 H 1839.2 -3.90684 -0.646675 0
M  V30 19347 H 1840.38 -4.04398 2.20905 0
M  V30 19348 H 1838.69 -3.72753 1.85592 0
M  V30 19349 H 1841.29 -5.33073 -0.416837 0
M  V30 19350 H 1841.63 -3.92325 -1.39237 0
M  V30 19351 H 1842.16 -3.96622 0.305859 0
M  V30 19352 H 1838.9 -6.09234 2.41898 0
M  V30 19353 H 1838.42 -5.95561 0.711862 0
M  V30 19354 H 1840.1 -6.36896 1.13899 0
M  V30 19355 N 1840.23 -0.328564 -1.54137 0
M  V30 19356 C 1841.48 0.271967 -2.00262 0
M  V30 19357 C 1841.8 1.5226 -1.21827 0
M  V30 19358 O 1841.07 1.93245 -0.321415 0
M  V30 19359 H 1839.65 0.103484 -0.739797 0
M  V30 19360 H 1842.32 -0.446264 -1.89722 0
M  V30 19361 H 1841.41 0.52488 -3.07655 0
M  V30 19362 N 1841.71 1.57497 -0.0568439 0
M  V30 19363 C 1842.66 2.1305 0.933398 0
M  V30 19364 C 1843.65 1.06369 1.31841 0
M  V30 19365 O 1844.86 1.2477 1.2974 0
M  V30 19366 H 1841.24 0.681037 0.318893 0
M  V30 19367 H 1843.21 2.95141 0.439796 0
M  V30 19368 C 1841.96 2.69502 2.1969 0
M  V30 19369 H 1841.28 3.51255 1.90945 0
M  V30 19370 H 1842.72 3.11986 2.87124 0
M  V30 19371 C 1841.18 1.63547 2.94541 0
M  V30 19372 O 1841.71 1.0516 3.87691 0
M  V30 19373 N 1839.91 1.34933 2.57374 0
M  V30 19374 H 1839.46 1.82601 1.81699 0
M  V30 19375 H 1839.42 0.642701 3.07761 0
M  V30 19376 N 1843.19 -0.216591 1.56105 0
M  V30 19377 C 1844.12 -1.27155 1.95841 0
M  V30 19378 C 1845.1 -1.48626 0.827313 0
M  V30 19379 O 1846.29 -1.60725 1.09 0
M  V30 19380 C 1843.42 -2.62032 2.27939 0
M  V30 19381 C 1842.37 -2.55211 3.43586 0
M  V30 19382 C 1841.7 -3.94163 3.61303 0
M  V30 19383 C 1843 -2.09566 4.78413 0
M  V30 19384 H 1844.69 -0.941435 2.84214 0
M  V30 19385 H 1842.24 -0.451427 1.36741 0
M  V30 19386 H 1844.19 -3.35997 2.5433 0
M  V30 19387 H 1842.91 -2.96742 1.36426 0
M  V30 19388 H 1841.57 -1.83703 3.17252 0
M  V30 19389 H 1841.22 -4.26188 2.67156 0
M  V30 19390 H 1840.92 -3.90479 4.3909 0
M  V30 19391 H 1842.44 -4.69782 3.90047 0
M  V30 19392 H 1843.86 -2.73277 5.03977 0
M  V30 19393 H 1842.26 -2.16931 5.59518 0
M  V30 19394 H 1843.33 -1.0481 4.73437 0
M  V30 19395 N 1844.67 -1.5 -0.48349 0
M  V30 19396 C 1845.91 -1.61577 -1.2355 0
M  V30 19397 C 1846.27 -0.3065 -1.89943 0
M  V30 19398 O 1845.56 0.694667 -1.78564 0
M  V30 19399 C 1845.76 -2.72475 -2.31283 0
M  V30 19400 C 1845.59 -4.14059 -1.75457 0
M  V30 19401 C 1844.36 -4.80623 -1.55979 0
M  V30 19402 C 1846.55 -4.98715 -1.2565 0
M  V30 19403 N 1844.54 -6.06463 -0.952659 0
M  V30 19404 C 1845.91 -6.15177 -0.771821 0
M  V30 19405 C 1847.96 -4.84582 -1.14388 0
M  V30 19406 C 1846.66 -7.1906 -0.185638 0
M  V30 19407 C 1848.69 -5.88631 -0.571647 0
M  V30 19408 C 1848.05 -7.04333 -0.097282 0
M  V30 19409 H 1844.15 -0.645496 -0.441428 0
M  V30 19410 H 1846.74 -1.87074 -0.539582 0
M  V30 19411 H 1844.91 -2.48721 -2.98316 0
M  V30 19412 H 1846.64 -2.73477 -2.98316 0
M  V30 19413 H 1843.39 -4.3771 -1.8085 0
M  V30 19414 H 1843.82 -6.73698 -0.667863 0
M  V30 19415 H 1848.46 -3.95427 -1.49658 0
M  V30 19416 H 1846.18 -8.07901 0.179294 0
M  V30 19417 H 1849.76 -5.79758 -0.487042 0
M  V30 19418 H 1848.64 -7.83469 0.338582 0
M  V30 19419 N 1846.15 0.735796 -1.39369 0
M  V30 19420 C 1847.1 1.8409 -1.34517 0
M  V30 19421 C 1848.08 1.59302 -0.226184 0
M  V30 19422 O 1849.27 1.70819 -0.46365 0
M  V30 19423 C 1846.4 3.22008 -1.19019 0
M  V30 19424 C 1845.49 3.52628 -2.35615 0
M  V30 19425 N 1845.88 3.54189 -3.61087 0
M  V30 19426 C 1844.18 3.82986 -2.28555 0
M  V30 19427 C 1844.88 3.82581 -4.38185 0
M  V30 19428 N 1843.85 4.00315 -3.67762 0
M  V30 19429 H 1847.66 1.83601 -2.29495 0
M  V30 19430 H 1845.17 0.934 -1.32854 0
M  V30 19431 H 1847.17 4.01117 -1.13626 0
M  V30 19432 H 1845.83 3.23737 -0.249907 0
M  V30 19433 H 1846.84 3.3552 -3.94521 0
M  V30 19434 H 1843.51 3.92325 -1.42784 0
M  V30 19435 H 1844.9 3.90263 -5.46941 0
M  V30 19436 N 1847.63 1.24532 0.965897 0
M  V30 19437 C 1849.04 1.0111 1.23486 0
M  V30 19438 C 1849.24 -0.278989 1.99559 0
M  V30 19439 O 1848.3 -0.99467 2.32083 0
M  V30 19440 C 1849.61 2.22726 2.02024 0
M  V30 19441 C 1851.16 2.27369 2.1511 0
M  V30 19442 C 1851.63 3.48611 2.97043 0
M  V30 19443 N 1853.12 3.48938 3.04625 0
M  V30 19444 C 1853.86 4.3941 3.68384 0
M  V30 19445 N 1853.36 5.40138 4.33847 0
M  V30 19446 N 1855.15 4.27117 3.65414 0
M  V30 19447 H 1847.3 2.07433 0.456674 0
M  V30 19448 H 1849.56 0.91037 0.264443 0
M  V30 19449 H 1849.27 3.16427 1.53515 0
M  V30 19450 H 1849.14 2.24989 3.02754 0
M  V30 19451 H 1851.53 1.34198 2.62821 0
M  V30 19452 H 1851.61 2.29131 1.13722 0
M  V30 19453 H 1851.25 4.42097 2.50025 0
M  V30 19454 H 1851.18 3.44093 3.98632 0
M  V30 19455 H 1853.68 2.76067 2.58061 0
M  V30 19456 H 1853.99 6.05402 4.80321 0
M  V30 19457 H 1852.33 5.44022 4.3251 0
M  V30 19458 H 1855.52 3.47659 3.1345 0
M  V30 19459 H 1855.7 4.97824 4.1482 0
M  V30 19460 N 1849.1 -1.16685 1.05936 0
M  V30 19461 C 1850.52 -1.39122 0.78213 0
M  V30 19462 C 1850.72 -1.9172 -0.620152 0
M  V30 19463 O 1849.78 -2.11366 -1.38132 0
M  V30 19464 C 1851.09 -2.37522 1.84401 0
M  V30 19465 C 1852.64 -2.51214 1.8671 0
M  V30 19466 C 1853.11 -3.52894 2.91942 0
M  V30 19467 N 1854.6 -3.60418 2.90952 0
M  V30 19468 C 1855.34 -4.38873 3.69023 0
M  V30 19469 N 1854.83 -5.20781 4.56902 0
M  V30 19470 N 1856.63 -4.3382 3.57431 0
M  V30 19471 H 1848.78 -0.808781 1.96399 0
M  V30 19472 H 1851.04 -0.418008 0.850866 0
M  V30 19473 H 1850.75 -2.05962 2.85084 0
M  V30 19474 H 1850.62 -3.37123 1.69197 0
M  V30 19475 H 1853.01 -2.8208 0.866875 0
M  V30 19476 H 1853.09 -1.51661 2.05992 0
M  V30 19477 H 1852.73 -3.22765 3.92155 0
M  V30 19478 H 1852.66 -4.52168 2.6991 0
M  V30 19479 H 1855.15 -3.01945 2.27239 0
M  V30 19480 H 1855.47 -5.77848 5.13138 0
M  V30 19481 H 1853.81 -5.20136 4.60959 0
M  V30 19482 H 1857 -3.68888 2.88165 0
M  V30 19483 H 1857.18 -4.94717 4.1852 0
M  V30 19484 N 1850.58 -0.841432 -1.33258 0
M  V30 19485 C 1851.53 -0.248505 -2.26642 0
M  V30 19486 C 1852.52 0.59799 -1.49375 0
M  V30 19487 O 1853.71 0.449539 -1.71196 0
M  V30 19488 C 1850.84 0.573322 -3.38479 0
M  V30 19489 C 1849.92 -0.284825 -4.23142 0
M  V30 19490 N 1850.31 -1.36477 -4.8704 0
M  V30 19491 C 1848.61 -0.072296 -4.45941 0
M  V30 19492 C 1849.31 -1.89162 -5.50084 0
M  V30 19493 N 1848.29 -1.19272 -5.30354 0
M  V30 19494 H 1852.09 -1.07432 -2.73561 0
M  V30 19495 H 1849.6 -0.686153 -1.47193 0
M  V30 19496 H 1851.6 1.01441 -4.0437 0
M  V30 19497 H 1850.26 1.39708 -2.93107 0
M  V30 19498 H 1851.27 -1.74767 -4.87521 0
M  V30 19499 H 1847.95 0.717812 -4.11283 0
M  V30 19500 H 1849.34 -2.79613 -6.10955 0
M  V30 19501 N 1852.06 1.4581 -0.598108 0
M  V30 19502 C 1853.48 1.57452 -0.260993 0
M  V30 19503 C 1853.68 1.59093 1.2366 0
M  V30 19504 O 1852.73 1.51614 2.01915 0
M  V30 19505 C 1854.04 2.86158 -0.923801 0
M  V30 19506 C 1855.59 2.99817 -0.89883 0
M  V30 19507 C 1856.07 4.3128 -1.54147 0
M  V30 19508 N 1857.56 4.38016 -1.50652 0
M  V30 19509 C 1858.29 5.38387 -1.973 0
M  V30 19510 N 1857.79 6.45347 -2.51991 0
M  V30 19511 N 1859.58 5.29684 -1.88124 0
M  V30 19512 H 1851.73 1.42988 -1.57061 0
M  V30 19513 H 1854 0.683038 -0.657391 0
M  V30 19514 H 1853.7 2.90812 -1.97791 0
M  V30 19515 H 1853.58 3.74609 -0.441318 0
M  V30 19516 H 1855.96 2.94735 0.146702 0
M  V30 19517 H 1856.04 2.12801 -1.41949 0
M  V30 19518 H 1855.69 4.3712 -2.58628 0
M  V30 19519 H 1855.62 5.17097 -0.995911 0
M  V30 19520 H 1858.11 3.61326 -1.1069 0
M  V30 19521 H 1858.42 7.18168 -2.85403 0
M  V30 19522 H 1856.77 6.46124 -2.56025 0
M  V30 19523 H 1859.96 4.45029 -1.45144 0
M  V30 19524 H 1860.13 6.0776 -2.24793 0
M  V30 19525 N 1853.54 0.336733 1.53961 0
M  V30 19526 C 1854.45 -0.531812 2.28493 0
M  V30 19527 C 1855.46 -1.11784 1.33343 0
M  V30 19528 O 1856.64 -1.13499 1.66373 0
M  V30 19529 C 1853.7 -1.67031 3.03812 0
M  V30 19530 C 1852.77 -1.11475 4.14574 0
M  V30 19531 C 1852 -2.19898 4.86292 0
M  V30 19532 O 1852.22 -3.40492 4.57625 0
M  V30 19533 O 1851.16 -1.84576 5.72901 0
M  V30 19534 H 1854.98 0.0738624 3.0361 0
M  V30 19535 H 1852.57 0.101996 1.49051 0
M  V30 19536 H 1854.45 -2.33286 3.50936 0
M  V30 19537 H 1853.12 -2.26192 2.31558 0
M  V30 19538 H 1852.03 -0.416915 3.7177 0
M  V30 19539 H 1853.36 -0.568092 4.88911 0
M  V30 19540 N 1855.02 -1.57465 0.0651956 0
M  V30 19541 C 1856.29 -1.84622 -0.646065 0
M  V30 19542 C 1856.67 -0.956374 -1.88193 0
M  V30 19543 O 1856.02 -0.0209666 -2.2849 0
M  V30 19544 C 1856.23 -3.34664 -0.990013 0
M  V30 19545 C 1857.58 -4.02016 -1.36632 0
M  V30 19546 O 1858.6 -3.39371 -1.08194 0
M  V30 19547 O 1857.46 -5.12496 -1.89764 0
M  V30 19548 H 1854.56 -0.762482 -0.320236 0
M  V30 19549 H 1857.1 -1.6943 0.0956254 0
M  V30 19550 H 1855.87 -3.9114 -0.111977 0
M  V30 19551 H 1855.5 -3.55094 -1.78869 0
M  V30 19552 N 1856.49 0.20831 -1.56217 0
M  V30 19553 C 1857.4 1.27891 -1.96675 0
M  V30 19554 C 1858.42 1.50546 -0.87246 0
M  V30 19555 O 1859.6 1.63418 -1.17713 0
M  V30 19556 C 1856.66 2.60598 -2.28669 0
M  V30 19557 C 1855.72 2.4613 -3.51736 0
M  V30 19558 C 1854.95 3.72509 -3.82195 0
M  V30 19559 O 1855.18 4.76105 -3.14133 0
M  V30 19560 O 1854.11 3.68828 -4.75657 0
M  V30 19561 H 1857.94 0.965607 -2.8794 0
M  V30 19562 H 1855.52 0.412249 -1.436 0
M  V30 19563 H 1857.4 3.38949 -2.50383 0
M  V30 19564 H 1856.08 2.91583 -1.40575 0
M  V30 19565 H 1854.99 1.65935 -3.35286 0
M  V30 19566 H 1856.32 2.20082 -4.40255 0
M  V30 19567 N 1857.97 1.50255 0.475528 0
M  V30 19568 C 1858.93 1.68248 1.55645 0
M  V30 19569 C 1859.93 0.553326 1.5098 0
M  V30 19570 O 1861.12 0.820274 1.53679 0
M  V30 19571 C 1858.26 1.70358 2.95281 0
M  V30 19572 H 1859.45 2.64681 1.4101 0
M  V30 19573 H 1857 1.39669 0.701594 0
M  V30 19574 H 1857.74 0.75602 3.15365 0
M  V30 19575 H 1857.52 2.52384 3.00074 0
M  V30 19576 H 1859.01 1.86249 3.73766 0
M  V30 19577 N 1859.45 -0.728395 1.39758 0
M  V30 19578 C 1860.36 -1.87279 1.41293 0
M  V30 19579 C 1861.38 -1.71271 0.306965 0
M  V30 19580 O 1862.55 -1.93759 0.549502 0
M  V30 19581 C 1859.62 -3.22943 1.2613 0
M  V30 19582 C 1858.68 -3.51297 2.46756 0
M  V30 19583 C 1857.91 -4.80489 2.32307 0
M  V30 19584 O 1858.13 -5.54676 1.33005 0
M  V30 19585 O 1857.07 -5.08891 3.21425 0
M  V30 19586 H 1860.89 -1.88939 2.37773 0
M  V30 19587 H 1858.48 -0.877103 1.20943 0
M  V30 19588 H 1860.36 -4.04003 1.19832 0
M  V30 19589 H 1859.04 -3.22039 0.327492 0
M  V30 19590 H 1857.94 -2.70298 2.58631 0
M  V30 19591 H 1859.28 -3.56986 3.38853 0
M  V30 19592 N 1860.93 -1.25042 -0.959279 0
M  V30 19593 C 1862.18 -1.09298 -1.69995 0
M  V30 19594 C 1862.5 0.367507 -1.91506 0
M  V30 19595 O 1861.77 1.26142 -1.49883 0
M  V30 19596 H 1860.35 -0.401469 -0.629945 0
M  V30 19597 H 1863.01 -1.57094 -1.15358 0
M  V30 19598 H 1862.1 -1.59766 -2.68107 0
M  V30 19599 N 1862.41 1.16121 -1.06553 0
M  V30 19600 C 1863.68 1.82752 -0.697202 0
M  V30 19601 C 1864.06 1.94474 0.821172 0
M  V30 19602 O 1863.41 1.48988 1.73248 0
M  V30 19603 C 1863.62 3.19592 -1.4022 0
M  V30 19604 C 1864.97 3.95333 -1.5491 0
M  V30 19605 O 1865.99 3.29119 -1.36232 0
M  V30 19606 O 1864.85 5.14028 -1.85574 0
M  V30 19607 H 1861.95 0.789214 -0.247125 0
M  V30 19608 H 1864.49 1.23302 -1.16597 0
M  V30 19609 H 1863.26 3.06111 -2.43745 0
M  V30 19610 H 1862.89 3.86722 -0.923686 0
M  V30 19611 N 1863.88 0.848487 1.3281 0
M  V30 19612 C 1865.16 0.370395 1.92061 0
M  V30 19613 C 1865.54 -1.14535 1.77327 0
M  V30 19614 O 1864.89 -1.96419 1.16756 0
M  V30 19615 C 1865.1 0.827934 3.39037 0
M  V30 19616 C 1866.45 0.841527 4.16177 0
M  V30 19617 O 1867.47 0.772167 3.4773 0
M  V30 19618 O 1866.33 0.938119 5.38388 0
M  V30 19619 H 1863.42 0.106809 0.820074 0
M  V30 19620 H 1865.97 0.934979 1.4162 0
M  V30 19621 H 1864.74 1.87089 3.43676 0
M  V30 19622 H 1864.37 0.240456 3.96872 0
M  V30 19623 N 1865.36 -1.4549 0.605832 0
M  V30 19624 C 1866.77 -1.85775 0.18559 0
M  V30 19625 C 1867.12 -1.50638 -1.25708 0
M  V30 19626 O 1866.25 -0.932227 -1.95291 0
M  V30 19627 C 1866.84 -3.37189 0.330043 0
M  V30 19628 C 1865.4 -3.76383 -0.0354934 0
M  V30 19629 C 1864.55 -2.69446 0.655297 0
M  V30 19630 H 1867.5 -1.36316 0.812624 0
M  V30 19631 H 1867.52 -3.77968 -0.438236 0
M  V30 19632 H 1867.03 -3.62731 1.38014 0
M  V30 19633 H 1865.14 -3.56458 -1.08483 0
M  V30 19634 H 1865.25 -4.77769 0.356935 0
M  V30 19635 H 1863.61 -2.5453 0.0931235 0
M  V30 19636 H 1864.4 -2.97825 1.70749 0
M  V30 19637 N 1866.84 -0.344893 -1.5378 0
M  V30 19638 C 1867.77 0.503579 -2.28005 0
M  V30 19639 C 1868.75 1.10149 -1.29619 0
M  V30 19640 O 1869.94 1.12263 -1.58463 0
M  V30 19641 C 1867.07 1.65398 -3.05386 0
M  V30 19642 C 1866.02 1.18434 -4.11288 0
M  V30 19643 C 1865.35 2.42336 -4.76631 0
M  V30 19644 C 1866.65 0.283853 -5.21528 0
M  V30 19645 H 1868.34 -0.115619 -2.99177 0
M  V30 19646 H 1865.89 -0.0570472 -1.43887 0
M  V30 19647 H 1867.84 2.25401 -3.56051 0
M  V30 19648 H 1866.56 2.3001 -2.31869 0
M  V30 19649 H 1865.22 0.607115 -3.61538 0
M  V30 19650 H 1864.87 3.05358 -3.99707 0
M  V30 19651 H 1864.57 2.11594 -5.4818 0
M  V30 19652 H 1866.09 3.03063 -5.3008 0
M  V30 19653 H 1867.51 0.790766 -5.6782 0
M  V30 19654 H 1865.91 0.0682509 -6.00061 0
M  V30 19655 H 1866.98 -0.679653 -4.80113 0
M  V30 19656 N 1868.32 1.57428 -0.0735454 0
M  V30 19657 C 1869.55 1.97883 0.604148 0
M  V30 19658 C 1869.96 0.951968 1.63043 0
M  V30 19659 O 1869.32 -0.0611641 1.82397 0
M  V30 19660 C 1869.37 3.38414 1.27116 0
M  V30 19661 O 1869.09 4.37166 0.285951 0
M  V30 19662 C 1870.59 3.93753 2.03651 0
M  V30 19663 H 1867.81 0.650747 0.163613 0
M  V30 19664 H 1870.36 2.03975 -0.146466 0
M  V30 19665 H 1868.51 3.33403 1.97285 0
M  V30 19666 H 1868.92 5.18896 0.764698 0
M  V30 19667 H 1870.4 4.94298 2.45711 0
M  V30 19668 H 1870.88 3.30391 2.89376 0
M  V30 19669 H 1871.48 4.0217 1.38345 0
M  V30 19670 N 1869.8 -0.200022 1.56326 0
M  V30 19671 C 1871.21 -0.765141 1.70301 0
M  V30 19672 C 1871.56 -1.84066 0.679277 0
M  V30 19673 O 1870.68 -2.15768 -0.165308 0
M  V30 19674 C 1871.28 -1.39466 3.08763 0
M  V30 19675 C 1869.84 -1.90692 3.2452 0
M  V30 19676 C 1868.98 -0.77502 2.66249 0
M  V30 19677 H 1871.94 0.024977 1.5868 0
M  V30 19678 H 1871.96 -2.26396 3.05819 0
M  V30 19679 H 1871.47 -0.61165 3.8325 0
M  V30 19680 H 1869.57 -2.71728 2.54941 0
M  V30 19681 H 1869.68 -2.0721 4.31973 0
M  V30 19682 H 1868.05 -1.18802 2.25296 0
M  V30 19683 H 1868.83 -0.00432851 3.433 0
M  V30 19684 N 1871.27 -1.50505 -0.467553 0
M  V30 19685 C 1872.5 -1.65708 -1.24722 0
M  V30 19686 C 1872.92 -0.34155 -1.84973 0
M  V30 19687 O 1872.28 0.694993 -1.6745 0
M  V30 19688 C 1872.33 -2.75289 -2.32912 0
M  V30 19689 O 1871.43 -2.36788 -3.37646 0
M  V30 19690 H 1870.78 -0.55351 -0.366774 0
M  V30 19691 H 1873.31 -1.96901 -0.555988 0
M  V30 19692 H 1873.32 -2.98472 -2.7817 0
M  V30 19693 H 1871.99 -3.70765 -1.88431 0
M  V30 19694 H 1870.57 -2.24065 -2.98076 0
M  V30 19695 N 1872.75 0.720973 -1.40142 0
M  V30 19696 C 1874.17 1.02835 -1.22054 0
M  V30 19697 C 1874.37 2.0129 -0.091949 0
M  V30 19698 O 1873.42 2.46395 0.551897 0
M  V30 19699 C 1874.74 1.57722 -2.56016 0
M  V30 19700 C 1876.29 1.69734 -2.62982 0
M  V30 19701 C 1876.76 2.28027 -3.972 0
M  V30 19702 N 1878.25 2.3542 -3.98913 0
M  V30 19703 C 1878.99 2.81495 -4.99548 0
M  V30 19704 N 1878.48 3.27362 -6.10578 0
M  V30 19705 N 1880.28 2.80831 -4.86919 0
M  V30 19706 H 1872.43 0.068271 -2.1229 0
M  V30 19707 H 1874.69 0.0928952 -0.943438 0
M  V30 19708 H 1874.4 0.928424 -3.39224 0
M  V30 19709 H 1874.27 2.56326 -2.76725 0
M  V30 19710 H 1876.66 2.33732 -1.80148 0
M  V30 19711 H 1876.74 0.697443 -2.46108 0
M  V30 19712 H 1876.38 1.64653 -4.80471 0
M  V30 19713 H 1876.31 3.28721 -4.114 0
M  V30 19714 H 1878.8 2.03019 -3.18735 0
M  V30 19715 H 1879.12 3.61071 -6.83263 0
M  V30 19716 H 1877.46 3.25335 -6.14152 0
M  V30 19717 H 1880.65 2.4433 -3.99275 0
M  V30 19718 H 1880.82 3.16423 -5.65492 0
M  V30 19719 N 1874.23 1.25549 0.952634 0
M  V30 19720 C 1875.46 1.13262 1.73743 0
M  V30 19721 C 1875.88 -0.309507 1.85536 0
M  V30 19722 O 1875.24 -1.22422 1.33726 0
M  V30 19723 C 1875.29 1.79395 3.12809 0
M  V30 19724 O 1874.39 1.07496 3.98144 0
M  V30 19725 H 1873.73 0.395314 0.5335 0
M  V30 19726 H 1876.26 1.66151 1.19394 0
M  V30 19727 H 1876.27 1.85761 3.63259 0
M  V30 19728 H 1874.95 2.84316 3.03542 0
M  V30 19729 H 1873.52 1.09025 3.56606 0
M  V30 19730 N 1875.71 -1.15554 1.07168 0
M  V30 19731 C 1876.64 -2.19841 0.648285 0
M  V30 19732 C 1877.65 -1.60045 -0.298247 0
M  V30 19733 O 1878.84 -1.78284 -0.0878565 0
M  V30 19734 C 1875.94 -3.38831 -0.068586 0
M  V30 19735 C 1875.12 -4.28173 0.89366 0
M  V30 19736 C 1874.17 -5.25763 0.214424 0
M  V30 19737 O 1873.2 -5.62744 0.854883 0
M  V30 19738 N 1874.4 -5.71096 -1.04063 0
M  V30 19739 H 1877.17 -2.56784 1.54539 0
M  V30 19740 H 1874.73 -1.30652 0.956127 0
M  V30 19741 H 1876.72 -4.01167 -0.533614 0
M  V30 19742 H 1875.29 -3.00319 -0.86761 0
M  V30 19743 H 1874.51 -3.62965 1.53785 0
M  V30 19744 H 1875.8 -4.84739 1.54613 0
M  V30 19745 H 1875.2 -5.4316 -1.58095 0
M  V30 19746 H 1873.75 -6.35481 -1.44937 0
M  V30 19747 N 1877.19 -0.855519 -1.32358 0
M  V30 19748 C 1878.12 -0.316159 -2.3135 0
M  V30 19749 C 1879.1 0.585159 -1.59718 0
M  V30 19750 O 1880.28 0.505221 -1.87513 0
M  V30 19751 C 1877.41 0.495577 -3.43746 0
M  V30 19752 C 1876.37 -0.311382 -4.26866 0
M  V30 19753 C 1875.69 0.625144 -5.31033 0
M  V30 19754 C 1876.99 -1.5376 -4.99154 0
M  V30 19755 H 1878.69 -1.14331 -2.7671 0
M  V30 19756 H 1876.23 -0.551221 -1.33032 0
M  V30 19757 H 1878.19 0.883325 -4.12038 0
M  V30 19758 H 1876.91 1.3561 -2.97115 0
M  V30 19759 H 1875.57 -0.680895 -3.60221 0
M  V30 19760 H 1875.22 1.48254 -4.80656 0
M  V30 19761 H 1874.92 0.0892112 -5.87532 0
M  V30 19762 H 1876.44 1.01005 -6.02188 0
M  V30 19763 H 1877.86 -1.2221 -5.60123 0
M  V30 19764 H 1876.25 -2.01153 -5.65382 0
M  V30 19765 H 1877.32 -2.29838 -4.26969 0
M  V30 19766 O 1878.7 1.42829 -0.753803 0
M  V30 19767 H 1879.4 1.91176 -0.311684 0
M  V30 END ATOM
M  V30 BEGIN BOND
M  V30 END BOND
M  V30 END CTAB
M  END
$$$$
