drugbank_target|Q5KUI3 Uracil phosphoribosyltransferase (DB03685)
 OpenBabel12092120023D

  0  0  0     0  0            999 V3000
M  V30 BEGIN CTAB
M  V30 COUNTS 3284 3313 0 0 0
M  V30 BEGIN ATOM
M  V30 1 H -0.908 1.98254 -0.117106 0
M  V30 2 N 0 1.576 0 0
M  V30 3 C 0.933 2.03868 1.02534 0
M  V30 4 C 1.911 0.928543 1.3348 0
M  V30 5 O 3.095 1.19667 1.45644 0
M  V30 6 C 0.222 2.43627 2.35294 0
M  V30 7 C -0.732 3.65373 2.2001 0
M  V30 8 S 0.101 5.13292 1.52614 0
M  V30 9 C 1.257 5.56322 2.86805 0
M  V30 10 H 1.49 2.90518 0.631377 0
M  V30 11 H -0.977 1.52953 0.210867 0
M  V30 12 H 0.981 2.67203 3.11629 0
M  V30 13 H -0.358 1.57376 2.7183 0
M  V30 14 H -1.165 3.90944 3.18086 0
M  V30 15 H -1.563 3.418 1.51819 0
M  V30 16 H 0.729 5.58782 3.83104 0
M  V30 17 H 1.672 6.56266 2.65933 0
M  V30 18 H 2.08 4.83886 2.90714 0
M  V30 19 N 1.4781 -0.272755 1.55222 0
M  V30 20 C 2.7261 -1.00234 1.75492 0
M  V30 21 C 3.0471 -1.8681 0.5592 0
M  V30 22 O 2.3171 -1.91215 -0.425882 0
M  V30 23 H 0.8971 -0.373076 0.647166 0
M  V30 24 H 3.5591 -0.296926 1.92625 0
M  V30 25 H 2.6551 -1.63913 2.65592 0
M  V30 26 N 2.9562 -1.48159 -0.537278 0
M  V30 27 C 3.9032 -1.62138 -1.64256 0
M  V30 28 C 4.8732 -0.463668 -1.59497 0
M  V30 29 O 6.0582 -0.686241 -1.78032 0
M  V30 30 C 3.1982 -1.66028 -3.02537 0
M  V30 31 C 2.3112 -2.92855 -3.17585 0
M  V30 32 C 1.4462 -2.87952 -4.46382 0
M  V30 33 C 0.4852 -4.09516 -4.54932 0
M  V30 34 N -0.3778 -4.02733 -5.75109 0
M  V30 35 H 4.4622 -2.56529 -1.51647 0
M  V30 36 H 1.9992 -1.27224 -0.738414 0
M  V30 37 H 3.9572 -1.66265 -3.82638 0
M  V30 38 H 2.5872 -0.751331 -3.13934 0
M  V30 39 H 1.6392 -3.02395 -2.30784 0
M  V30 40 H 2.9512 -3.82822 -3.19764 0
M  V30 41 H 2.1052 -2.8655 -5.34765 0
M  V30 42 H 0.8442 -1.95702 -4.46712 0
M  V30 43 H -0.1508 -4.11201 -3.64957 0
M  V30 44 H 1.0742 -5.02917 -4.56346 0
M  V30 45 H -0.9798 -3.13299 -5.76351 0
M  V30 46 H -1.0628 -4.86397 -5.78752 0
M  V30 47 H 0.2052 -4.05379 -6.65799 0
M  V30 48 N 4.4343 0.785586 -1.36625 0
M  V30 49 C 5.6803 1.54591 -1.31261 0
M  V30 50 C 6.0133 1.93906 0.106823 0
M  V30 51 O 5.2883 1.63007 1.06108 0
M  V30 52 C 5.5713 2.82038 -2.23889 0
M  V30 53 C 5.4243 2.49066 -3.74548 0
M  V30 54 C 6.7433 3.83887 -2.15217 0
M  V30 55 H 3.8623 0.560846 -0.478143 0
M  V30 56 H 6.5043 0.902278 -1.67209 0
M  V30 57 H 4.6543 3.36961 -1.93363 0
M  V30 58 H 6.3263 2.00164 -4.15611 0
M  V30 59 H 4.5693 1.81954 -3.93796 0
M  V30 60 H 5.2403 3.40109 -4.34776 0
M  V30 61 H 7.7163 3.38421 -2.42096 0
M  V30 62 H 6.5923 4.70806 -2.82193 0
M  V30 63 H 6.8533 4.27131 -1.14068 0
M  V30 64 N 5.9124 1.20967 1.01018 0
M  V30 65 C 7.1424 1.04803 1.78044 0
M  V30 66 C 7.5504 -0.405462 1.84804 0
M  V30 67 O 6.8934 -1.2932 1.30468 0
M  V30 68 C 6.9554 1.56377 3.23707 0
M  V30 69 C 6.6194 3.04767 3.40538 0
M  V30 70 C 7.6164 4.02366 3.29239 0
M  V30 71 C 5.3014 3.43862 3.66147 0
M  V30 72 C 7.2954 5.37049 3.43304 0
M  V30 73 C 4.9824 4.78699 3.79855 0
M  V30 74 C 5.9804 5.75101 3.68439 0
M  V30 75 O 5.6684 7.07493 3.81719 0
M  V30 76 H 5.4004 0.368778 0.56655 0
M  V30 77 H 7.9544 1.60642 1.27997 0
M  V30 78 H 6.1844 0.949297 3.74867 0
M  V30 79 H 7.8734 1.36136 3.8239 0
M  V30 80 H 8.6394 3.73506 3.09384 0
M  V30 81 H 4.5184 2.69364 3.74118 0
M  V30 82 H 8.0624 6.12277 3.34309 0
M  V30 83 H 3.9594 5.07247 3.99213 0
M  V30 84 H 4.7274 7.1483 3.98697 0
M  V30 85 N 7.3905 -1.2043 1.01659 0
M  V30 86 C 8.6365 -1.90079 0.706963 0
M  V30 87 C 8.9695 -1.78648 -0.761474 0
M  V30 88 O 8.2445 -1.17069 -1.55323 0
M  V30 89 C 8.5275 -3.41469 1.14327 0
M  V30 90 C 8.3805 -3.61833 2.67201 0
M  V30 91 C 9.6995 -4.34261 0.714529 0
M  V30 92 H 6.8185 -0.690254 0.2583 0
M  V30 93 H 9.4605 -1.41826 1.26433 0
M  V30 94 H 7.6105 -3.82696 0.669056 0
M  V30 95 H 9.2825 -3.2986 3.22475 0
M  V30 96 H 7.5255 -3.05304 3.08175 0
M  V30 97 H 8.1965 -4.67955 2.92783 0
M  V30 98 H 10.6725 -4.00682 1.12221 0
M  V30 99 H 9.5485 -5.38806 1.04784 0
M  V30 100 H 9.8095 -4.40431 -0.383799 0
M  V30 101 N 8.8686 -0.792821 -1.36206 0
M  V30 102 C 10.1156 -0.366786 -1.99151 0
M  V30 103 C 10.4436 1.06243 -1.62919 0
M  V30 104 O 9.6986 1.74927 -0.877442 0
M  V30 105 C 9.9976 -0.481501 -3.54142 0
M  V30 106 C 9.6636 -1.87202 -4.10203 0
M  V30 107 C 8.3256 -2.25248 -4.25226 0
M  V30 108 C 10.6776 -2.78237 -4.40719 0
M  V30 109 C 8.0056 -3.53723 -4.68078 0
M  V30 110 C 10.3576 -4.06144 -4.85005 0
M  V30 111 C 9.0216 -4.44207 -4.98234 0
M  V30 112 H 8.2916 -0.134217 -0.728743 0
M  V30 113 H 10.9386 -1.01094 -1.62641 0
M  V30 114 H 9.2436 0.246146 -3.91026 0
M  V30 115 H 10.9406 -0.132844 -4.0078 0
M  V30 116 H 7.5306 -1.56639 -3.98951 0
M  V30 117 H 11.7146 -2.50097 -4.28679 0
M  V30 118 H 6.9706 -3.8308 -4.76508 0
M  V30 119 H 11.1446 -4.76796 -5.07581 0
M  V30 120 H 8.7716 -5.43814 -5.31197 0
M  V30 121 N 10.3467 1.47872 -0.545128 0
M  V30 122 C 11.6237 1.9554 0.0485222 0
M  V30 123 C 12.0037 1.4876 1.49779 0
M  V30 124 O 11.3517 0.720925 2.16829 0
M  V30 125 C 11.5617 3.48898 -0.084417 0
M  V30 126 C 12.9097 4.24547 0.0671239 0
M  V30 127 O 13.9337 3.56198 -0.0113649 0
M  V30 128 O 12.7927 5.45999 0.233882 0
M  V30 129 H 9.8867 0.823957 0.0708773 0
M  V30 130 H 12.4327 1.58327 -0.610798 0
M  V30 131 H 11.2047 3.75714 -1.09337 0
M  V30 132 H 10.8277 3.92845 0.613066 0
M  V30 133 N 11.8248 0.280983 1.55075 0
M  V30 134 C 12.7748 -0.618585 2.19448 0
M  V30 135 C 13.7588 -1.11401 1.16098 0
M  V30 136 O 14.9508 -1.0581 1.41891 0
M  V30 137 C 12.0798 -1.79951 2.92357 0
M  V30 138 C 11.1658 -1.321 4.03002 0
M  V30 139 N 11.5568 -0.559044 5.02701 0
M  V30 140 C 9.8548 -1.60346 4.16179 0
M  V30 141 C 10.5558 -0.306722 5.80891 0
M  V30 142 N 9.5318 -0.880825 5.36416 0
M  V30 143 H 13.3338 -0.0286638 2.93886 0
M  V30 144 H 10.8478 0.0848104 1.62178 0
M  V30 145 H 12.8448 -2.45531 3.36927 0
M  V30 146 H 11.5048 -2.39333 2.19431 0
M  V30 147 H 12.5158 -0.205827 5.17491 0
M  V30 148 H 9.1928 -2.20621 3.54447 0
M  V30 149 H 10.5828 0.30391 6.71212 0
M  V30 150 N 13.3029 -1.57598 0.00835791 0
M  V30 151 C 14.7139 -1.7892 -0.53333 0
M  V30 152 C 15.0649 -0.916609 -1.73473 0
M  V30 153 O 14.1899 -0.121336 -2.1606 0
M  V30 154 C 14.7849 -3.24488 -0.974313 0
M  V30 155 C 13.3439 -3.46878 -1.46125 0
M  V30 156 C 12.4909 -2.74157 -0.416302 0
M  V30 157 H 15.4419 -1.56958 0.234495 0
M  V30 158 H 15.4629 -3.3306 -1.83988 0
M  V30 159 H 14.9749 -3.87972 -0.099718 0
M  V30 160 H 13.0759 -2.8862 -2.35646 0
M  V30 161 H 13.1889 -4.55572 -1.48295 0
M  V30 162 H 11.5529 -2.39022 -0.87981 0
M  V30 163 H 12.3359 -3.40345 0.44947 0
M  V30 164 N 14.781 0.264519 -1.55364 0
M  V30 165 C 15.711 1.33121 -1.91836 0
M  V30 166 C 16.692 1.51101 -0.781192 0
M  V30 167 O 17.877 1.64003 -1.04003 0
M  V30 168 C 15.007 2.68921 -2.19769 0
M  V30 169 C 13.961 2.65661 -3.35571 0
M  V30 170 C 13.287 4.05093 -3.49004 0
M  V30 171 C 14.587 2.24187 -4.71739 0
M  V30 172 H 16.281 1.02844 -2.81182 0
M  V30 173 H 13.827 0.493286 -1.35287 0
M  V30 174 H 15.78 3.43663 -2.43872 0
M  V30 175 H 14.504 3.00799 -1.27231 0
M  V30 176 H 13.163 1.93377 -3.1145 0
M  V30 177 H 12.811 4.34206 -2.53917 0
M  V30 178 H 12.511 4.03804 -4.26868 0
M  V30 179 H 14.035 4.81561 -3.75408 0
M  V30 180 H 15.449 2.88654 -4.9533 0
M  V30 181 H 13.846 2.34044 -5.52579 0
M  V30 182 H 14.916 1.19327 -4.69988 0
M  V30 183 N 16.2591 1.48442 0.529413 0
M  V30 184 C 17.5081 1.55742 1.28169 0
M  V30 185 C 17.8211 0.236511 1.94165 0
M  V30 186 O 19.0271 0.187761 2.7085 0
M  V30 187 C 17.4831 2.74667 2.32564 0
M  V30 188 C 17.0911 4.13402 1.72636 0
M  V30 189 C 18.8351 2.9128 3.08798 0
M  V30 190 C 16.7421 5.23587 2.74975 0
M  V30 191 H 15.6721 0.579796 0.48203 0
M  V30 192 H 18.3231 1.74776 0.559056 0
M  V30 193 H 16.7051 2.49067 3.07866 0
M  V30 194 H 17.8791 4.49022 1.03519 0
M  V30 195 H 16.1941 4.0191 1.08892 0
M  V30 196 H 18.7911 3.70767 3.85274 0
M  V30 197 H 19.1341 2.00757 3.64695 0
M  V30 198 H 19.6671 3.16782 2.40611 0
M  V30 199 H 16.4061 6.16076 2.23897 0
M  V30 200 H 15.9261 4.92454 3.42417 0
M  V30 201 H 17.6051 5.51724 3.37949 0
M  V30 202 N 17.7372 -0.778329 1.37039 0
M  V30 203 C 18.6692 -1.90034 1.2814 0
M  V30 204 C 19.6822 -1.61585 0.198558 0
M  V30 205 O 20.8712 -1.72625 0.454175 0
M  V30 206 C 17.9712 -3.25108 0.956968 0
M  V30 207 C 17.1442 -3.81253 2.14394 0
M  V30 208 C 16.2032 -4.94789 1.79082 0
M  V30 209 O 15.2292 -5.10721 2.51301 0
M  V30 210 N 16.4312 -5.75878 0.731043 0
M  V30 211 H 19.1962 -1.98186 2.24816 0
M  V30 212 H 16.7572 -0.957129 1.30578 0
M  V30 213 H 18.7492 -3.9857 0.701701 0
M  V30 214 H 17.3192 -3.125 0.0789812 0
M  V30 215 H 16.5392 -2.99647 2.56135 0
M  V30 216 H 17.8272 -4.15495 2.93668 0
M  V30 217 H 17.2252 -5.65547 0.131618 0
M  V30 218 H 15.7822 -6.49596 0.535622 0
M  V30 219 N 19.2153 -1.21501 -1.00376 0
M  V30 220 C 20.1653 -0.942843 -2.07592 0
M  V30 221 C 21.1493 0.102384 -1.60574 0
M  V30 222 O 22.3413 -0.10671 -1.76678 0
M  V30 223 C 19.4703 -0.510729 -3.3948 0
M  V30 224 C 18.5563 -1.59009 -3.93163 0
M  V30 225 N 18.9473 -2.81544 -4.20198 0
M  V30 226 C 17.2453 -1.45925 -4.21452 0
M  V30 227 C 17.9463 -3.51261 -4.63671 0
M  V30 228 N 16.9223 -2.78703 -4.66718 0
M  V30 229 H 20.7243 -1.87378 -2.26421 0
M  V30 230 H 18.2383 -1.11093 -1.18458 0
M  V30 231 H 20.2353 -0.297101 -4.1584 0
M  V30 232 H 18.8953 0.413436 -3.22057 0
M  V30 233 H 19.9063 -3.18075 -4.08716 0
M  V30 234 H 16.5833 -0.600467 -4.13159 0
M  V30 235 H 17.9733 -4.56183 -4.93302 0
M  V30 236 N 20.6934 1.19889 -1.02296 0
M  V30 237 C 21.6404 2.22901 -0.598651 0
M  V30 238 C 22.6104 1.61588 0.384521 0
M  V30 239 O 23.7954 1.88697 0.282522 0
M  V30 240 C 20.9354 3.45063 0.0504476 0
M  V30 241 C 20.0484 4.20783 -0.978053 0
M  V30 242 C 19.1834 5.30356 -0.299338 0
M  V30 243 C 18.2224 5.97826 -1.31416 0
M  V30 244 N 17.3594 6.98975 -0.661667 0
M  V30 245 H 22.1994 2.58554 -1.48169 0
M  V30 246 H 19.7364 1.27039 -0.741584 0
M  V30 247 H 21.6944 4.14831 0.443971 0
M  V30 248 H 20.3244 3.10084 0.897097 0
M  V30 249 H 19.3764 3.50018 -1.48969 0
M  V30 250 H 20.6884 4.67109 -1.74958 0
M  V30 251 H 19.8424 6.06516 0.149347 0
M  V30 252 H 18.5814 4.85084 0.504445 0
M  V30 253 H 17.5864 5.20422 -1.77317 0
M  V30 254 H 18.8114 6.45183 -2.11933 0
M  V30 255 H 16.7574 6.55886 0.122132 0
M  V30 256 H 16.6744 7.43461 -1.37117 0
M  V30 257 H 17.9424 7.7914 -0.236785 0
M  V30 258 N 22.1715 0.800033 1.35784 0
M  V30 259 C 23.1015 0.220184 2.3246 0
M  V30 260 C 24.0825 -0.65073 1.57161 0
M  V30 261 O 25.2675 -0.582359 1.85263 0
M  V30 262 C 22.3975 -0.637353 3.41402 0
M  V30 263 C 21.3515 0.134531 4.27789 0
M  V30 264 C 20.6775 -0.844285 5.27992 0
M  V30 265 C 21.9775 1.32979 5.05088 0
M  V30 266 H 23.6715 1.02787 2.81203 0
M  V30 267 H 21.2175 0.495717 1.35199 0
M  V30 268 H 23.1705 -1.05302 4.08031 0
M  V30 269 H 21.8945 -1.47785 2.91251 0
M  V30 270 H 20.5535 0.531296 3.6273 0
M  V30 271 H 20.2015 -1.68011 4.74111 0
M  V30 272 H 19.9015 -0.332184 5.8666 0
M  V30 273 H 21.4255 -1.2583 5.97494 0
M  V30 274 H 22.8395 0.98934 5.64699 0
M  V30 275 H 21.2365 1.77593 5.7322 0
M  V30 276 H 22.3065 2.11978 4.36111 0
M  V30 277 N 23.6496 -1.47581 0.552962 0
M  V30 278 C 24.8776 -2.06875 0.0320556 0
M  V30 279 C 25.2926 -1.40625 -1.25976 0
M  V30 280 O 24.6496 -0.501349 -1.75479 0
M  V30 281 C 24.7006 -3.61092 -0.17167 0
M  V30 282 O 24.4216 -4.24858 1.06899 0
M  V30 283 C 25.9226 -4.37242 -0.730344 0
M  V30 284 H 23.1426 -0.669561 0.043915 0
M  V30 285 H 25.6866 -1.89646 0.765163 0
M  V30 286 H 23.8416 -3.7785 -0.854894 0
M  V30 287 H 24.2556 -5.17334 0.864059 0
M  V30 288 H 25.7296 -5.45842 -0.822203 0
M  V30 289 H 26.2066 -4.03235 -1.74064 0
M  V30 290 H 26.8126 -4.25219 -0.0829543 0
M  V30 291 N 25.1277 -0.289203 -1.54924 0
M  V30 292 C 26.3577 0.325989 -2.04012 0
M  V30 293 C 26.7657 1.48961 -1.1665 0
M  V30 294 O 26.1087 1.82794 -0.1822 0
M  V30 295 C 26.1707 0.856112 -3.49158 0
M  V30 296 C 25.8347 -0.180697 -4.56643 0
M  V30 297 C 26.8317 -1.0051 -5.10092 0
M  V30 298 C 24.5167 -0.318998 -5.01286 0
M  V30 299 C 26.5107 -1.95385 -6.06715 0
M  V30 300 C 24.1977 -1.27121 -5.97732 0
M  V30 301 C 25.1957 -2.08713 -6.50329 0
M  V30 302 O 24.8837 -3.02322 -7.44887 0
M  V30 303 H 24.6157 0.0765276 -0.671654 0
M  V30 304 H 27.1697 -0.423254 -2.00992 0
M  V30 305 H 25.3997 1.65567 -3.49463 0
M  V30 306 H 27.0887 1.38591 -3.81507 0
M  V30 307 H 27.8547 -0.90906 -4.76404 0
M  V30 308 H 23.7337 0.306108 -4.59983 0
M  V30 309 H 27.2777 -2.59111 -6.47694 0
M  V30 310 H 23.1747 -1.36801 -6.30837 0
M  V30 311 H 23.9427 -2.97165 -7.6265 0
M  V30 312 N 26.6058 1.57591 -0.0167156 0
M  V30 313 C 27.8548 1.90461 0.663877 0
M  V30 314 C 28.1678 0.893515 1.73999 0
M  V30 315 O 29.3738 1.11302 2.47637 0
M  V30 316 C 27.8298 3.38155 1.23204 0
M  V30 317 C 27.4378 4.47597 0.189866 0
M  V30 318 C 29.1818 3.80111 1.88986 0
M  V30 319 C 27.0888 5.86379 0.768964 0
M  V30 320 H 26.0188 0.710738 0.251729 0
M  V30 321 H 28.6698 1.83326 -0.0799926 0
M  V30 322 H 27.0518 3.40182 2.02712 0
M  V30 323 H 28.2258 4.57112 -0.581846 0
M  V30 324 H 26.5408 4.14766 -0.368475 0
M  V30 325 H 29.1378 4.81145 2.33247 0
M  V30 326 H 29.4808 3.14511 2.72743 0
M  V30 327 H 30.0138 3.80454 1.16187 0
M  V30 328 H 26.7528 6.55493 -0.0301957 0
M  V30 329 H 26.2728 5.80496 1.50945 0
M  V30 330 H 27.9518 6.34563 1.26251 0
M  V30 331 N 28.0839 -0.256276 1.55502 0
M  V30 332 C 29.4999 -0.604325 1.47716 0
M  V30 333 C 29.6999 -1.88763 0.705039 0
M  V30 334 O 28.7559 -2.51445 0.230613 0
M  V30 335 C 30.0689 -0.715756 2.92057 0
M  V30 336 C 31.6169 -0.808706 3.02372 0
M  V30 337 C 32.0919 -0.951777 4.48001 0
M  V30 338 N 33.5829 -1.01688 4.519 0
M  V30 339 C 34.3179 -1.14668 5.61817 0
M  V30 340 N 33.8139 -1.24261 6.81565 0
M  V30 341 N 35.6069 -1.1791 5.49594 0
M  V30 342 H 27.7579 0.586291 2.04148 0
M  V30 343 H 30.0209 0.201015 0.926443 0
M  V30 344 H 29.7269 0.157027 3.51349 0
M  V30 345 H 29.6009 -1.59071 3.42018 0
M  V30 346 H 31.9879 -1.67195 2.43166 0
M  V30 347 H 32.0689 0.0912063 2.55637 0
M  V30 348 H 31.7129 -0.0931291 5.07815 0
M  V30 349 H 31.6429 -1.86659 4.92408 0
M  V30 350 H 34.1339 -0.954468 3.65648 0
M  V30 351 H 34.4469 -1.34046 7.61086 0
M  V30 352 H 32.7919 -1.21236 6.84344 0
M  V30 353 H 35.9829 -1.10057 4.54978 0
M  V30 354 H 36.1559 -1.27681 6.35296 0
M  V30 355 N 29.562 -1.4872 -0.521534 0
M  V30 356 C 30.839 -1.4766 -1.2828 0
M  V30 357 C 31.219 -0.19292 -2.10217 0
M  V30 358 O 30.567 0.825193 -2.13079 0
M  V30 359 C 30.777 -2.74358 -2.15705 0
M  V30 360 C 32.125 -3.23028 -2.75569 0
M  V30 361 O 33.149 -2.75333 -2.25987 0
M  V30 362 O 32.008 -4.0604 -3.65778 0
M  V30 363 H 29.102 -0.590085 -0.579421 0
M  V30 364 H 31.648 -1.60963 -0.537492 0
M  V30 365 H 30.42 -3.59292 -1.54999 0
M  V30 366 H 30.043 -2.63816 -2.97467 0
M  V30 367 N 31.0401 0.771051 -1.3745 0
M  V30 368 C 31.9871 1.88435 -1.3327 0
M  V30 369 C 32.9571 1.64914 -0.198136 0
M  V30 370 O 34.1421 1.86821 -0.387606 0
M  V30 371 C 31.2821 3.25509 -1.14622 0
M  V30 372 C 30.3951 3.60979 -2.37314 0
M  V30 373 C 29.5301 4.87265 -2.11533 0
M  V30 374 C 28.5691 5.15469 -3.30088 0
M  V30 375 N 27.7061 6.32944 -3.03853 0
M  V30 376 H 32.5461 1.91344 -2.28455 0
M  V30 377 H 30.0831 0.935466 -1.13523 0
M  V30 378 H 32.0411 4.04582 -1.01831 0
M  V30 379 H 30.6711 3.21974 -0.230837 0
M  V30 380 H 29.7231 2.76885 -2.60842 0
M  V30 381 H 31.0351 3.77759 -3.25729 0
M  V30 382 H 30.1891 5.74244 -1.95777 0
M  V30 383 H 28.9281 4.7259 -1.20457 0
M  V30 384 H 27.9331 4.26966 -3.46382 0
M  V30 385 H 29.1581 5.32052 -4.22016 0
M  V30 386 H 27.1041 6.19625 -2.15407 0
M  V30 387 H 27.0211 6.50143 -3.85812 0
M  V30 388 H 28.2891 7.22857 -2.91716 0
M  V30 389 N 32.5182 1.22032 0.997298 0
M  V30 390 C 33.4662 0.983634 2.10778 0
M  V30 391 C 34.4602 -0.0717564 1.69248 0
M  V30 392 O 35.6662 0.080304 1.79821 0
M  V30 393 H 32.0412 0.300877 0.689186 0
M  V30 394 H 34.0122 1.92606 2.27916 0
M  V30 395 C 32.7612 0.57326 3.42942 0
M  V30 396 H 32.0842 1.37702 3.75338 0
M  V30 397 H 33.5242 0.447031 4.21637 0
M  V30 398 C 31.9832 -0.7167 3.29188 0
M  V30 399 O 32.5132 -1.77027 3.60589 0
M  V30 400 N 30.7192 -0.686167 2.82383 0
M  V30 401 H 30.2662 0.171507 2.57028 0
M  V30 402 H 30.2242 -1.54955 2.73562 0
M  V30 403 N 33.9963 -1.19345 1.0293 0
M  V30 404 C 35.2243 -1.92997 0.745644 0
M  V30 405 C 35.6393 -1.75519 -0.695589 0
M  V30 406 O 34.9963 -1.07737 -1.47306 0
M  V30 407 C 35.0473 -3.44741 1.08792 0
M  V30 408 O 34.7683 -3.61658 2.47256 0
M  V30 409 C 36.2693 -4.35515 0.827129 0
M  V30 410 H 33.4893 -0.613042 0.272801 0
M  V30 411 H 36.0333 -1.51473 1.3739 0
M  V30 412 H 34.1883 -3.84097 0.504832 0
M  V30 413 H 34.6023 -4.55514 2.60015 0
M  V30 414 H 36.0763 -5.40589 1.11658 0
M  V30 415 H 36.5533 -4.38552 -0.238436 0
M  V30 416 H 37.1593 -4.01841 1.39297 0
M  V30 417 N 35.4744 -0.807222 -1.35358 0
M  V30 418 C 36.7224 -0.387122 -1.98358 0
M  V30 419 C 37.0434 1.04942 -1.64354 0
M  V30 420 O 36.3134 1.72615 -0.926339 0
M  V30 421 H 34.8934 -0.140154 -0.733734 0
M  V30 422 H 37.5554 -1.0332 -1.6526 0
M  V30 423 H 36.6514 -0.493352 -3.08176 0
M  V30 424 N 36.9525 1.47285 -0.560781 0
M  V30 425 C 38.1805 2.06855 -0.0430262 0
M  V30 426 C 38.5955 1.41291 1.25229 0
M  V30 427 O 37.9525 0.510648 1.7521 0
M  V30 428 C 38.0035 3.61178 0.152518 0
M  V30 429 O 37.7245 4.24285 -1.0915 0
M  V30 430 C 39.2255 4.37624 0.707145 0
M  V30 431 H 36.4455 0.669319 -0.0474652 0
M  V30 432 H 38.9895 1.89237 -0.77521 0
M  V30 433 H 37.1445 3.78298 0.834843 0
M  V30 434 H 37.5585 5.16868 -0.891482 0
M  V30 435 H 39.0325 5.46271 0.793244 0
M  V30 436 H 39.5095 4.04152 1.71923 0
M  V30 437 H 40.1155 4.25257 0.0604027 0
M  V30 438 N 38.4306 0.297415 1.54768 0
M  V30 439 C 39.3776 -0.580276 2.23386 0
M  V30 440 C 40.3476 -1.13238 1.21517 0
M  V30 441 O 41.5326 -1.17757 1.50126 0
M  V30 442 C 38.6726 -1.74801 2.97555 0
M  V30 443 C 37.7856 -1.22764 4.1419 0
M  V30 444 C 36.9206 -2.35895 4.75949 0
M  V30 445 C 35.9596 -1.80974 5.84735 0
M  V30 446 N 35.0966 -2.87664 6.40464 0
M  V30 447 H 39.9366 0.0114833 2.97998 0
M  V30 448 H 37.4736 0.0174361 1.4709 0
M  V30 449 H 39.4316 -2.43475 3.38786 0
M  V30 450 H 38.0616 -2.31145 2.25326 0
M  V30 451 H 37.1136 -0.433271 3.77924 0
M  V30 452 H 38.4256 -0.785551 4.92575 0
M  V30 453 H 37.5796 -3.12523 5.20014 0
M  V30 454 H 36.3186 -2.83429 3.96887 0
M  V30 455 H 35.3236 -1.02834 5.40097 0
M  V30 456 H 36.5486 -1.34348 6.65678 0
M  V30 457 H 34.4946 -3.34538 5.64287 0
M  V30 458 H 34.4116 -2.4794 7.14186 0
M  V30 459 H 35.6796 -3.642 6.89187 0
M  V30 460 N 39.9087 -1.5758 0.0250728 0
M  V30 461 C 40.8187 -2.1343 -0.973905 0
M  V30 462 C 41.8347 -1.08556 -1.35984 0
M  V30 463 O 43.0107 -1.40592 -1.44207 0
M  V30 464 C 40.0757 -2.64703 -2.23904 0
M  V30 465 C 39.1367 -3.84276 -1.91391 0
M  V30 466 C 38.3697 -4.33095 -3.11873 0
M  V30 467 O 38.5927 -3.81107 -4.24398 0
M  V30 468 O 37.5267 -5.24984 -2.94406 0
M  V30 469 H 41.3527 -2.99057 -0.529036 0
M  V30 470 H 38.9377 -1.48118 -0.195288 0
M  V30 471 H 40.8197 -2.97769 -2.98181 0
M  V30 472 H 39.4947 -1.82161 -2.6758 0
M  V30 473 H 38.4017 -3.56143 -1.14511 0
M  V30 474 H 39.7347 -4.67968 -1.52534 0
M  V30 475 N 41.3868 0.248026 -1.55636 0
M  V30 476 C 42.6338 0.976224 -1.77415 0
M  V30 477 C 42.9618 1.85361 -0.589193 0
M  V30 478 O 42.2168 1.90973 0.427529 0
M  V30 479 C 42.5158 1.86819 -3.04686 0
M  V30 480 C 42.1818 1.14625 -4.36087 0
M  V30 481 C 40.8438 0.946723 -4.71795 0
M  V30 482 C 43.1958 0.634463 -5.17324 0
M  V30 483 C 40.5238 0.223091 -5.86276 0
M  V30 484 C 42.8758 -0.0756959 -6.32555 0
M  V30 485 C 41.5398 -0.286711 -6.66884 0
M  V30 486 H 40.8098 0.357226 -0.649208 0
M  V30 487 H 43.4568 0.246415 -1.89908 0
M  V30 488 H 41.7618 2.66502 -2.872 0
M  V30 489 H 43.4588 2.43329 -3.18735 0
M  V30 490 H 40.0488 1.3117 -4.08035 0
M  V30 491 H 44.2328 0.77616 -4.90193 0
M  V30 492 H 39.4888 0.0491185 -6.1138 0
M  V30 493 H 43.6628 -0.479899 -6.94745 0
M  V30 494 H 41.2898 -0.849389 -7.5544 0
M  V30 495 N 42.8649 1.48995 0.513639 0
M  V30 496 C 44.2809 1.35478 0.843682 0
M  V30 497 C 44.4809 0.378213 1.97919 0
M  V30 498 O 43.5369 -0.194689 2.51748 0
M  V30 499 C 44.8499 2.75901 1.1958 0
M  V30 500 C 46.3979 2.84509 1.30474 0
M  V30 501 C 46.8729 4.25671 1.69021 0
M  V30 502 N 48.3639 4.28422 1.76094 0
M  V30 503 C 49.0989 5.34601 2.07338 0
M  V30 504 N 48.5949 6.5104 2.36894 0
M  V30 505 N 50.3879 5.22007 2.08483 0
M  V30 506 H 42.5389 2.11092 -0.235328 0
M  V30 507 H 44.8019 0.947039 -0.0426669 0
M  V30 508 H 44.5079 3.49001 0.434913 0
M  V30 509 H 44.3819 3.10467 2.1422 0
M  V30 510 H 46.7689 2.11655 2.05637 0
M  V30 511 H 46.8499 2.53542 0.339155 0
M  V30 512 H 46.4939 4.99048 0.944135 0
M  V30 513 H 46.4239 4.54094 2.66658 0
M  V30 514 H 48.9149 3.44441 1.55464 0
M  V30 515 H 49.2279 7.2779 2.59887 0
M  V30 516 H 47.5729 6.54287 2.34378 0
M  V30 517 H 50.7639 4.30051 1.84861 0
M  V30 518 H 50.9369 6.04854 2.325 0
M  V30 519 N 44.343 -0.763751 1.37857 0
M  V30 520 C 45.253 -1.90817 1.36478 0
M  V30 521 C 46.269 -1.71997 0.263248 0
M  V30 522 O 47.445 -1.95095 0.499979 0
M  V30 523 C 44.51 -3.2605 1.17864 0
M  V30 524 C 43.571 -3.57467 2.3773 0
M  V30 525 C 42.804 -4.86249 2.19995 0
M  V30 526 O 43.027 -5.57884 1.18836 0
M  V30 527 O 41.961 -5.16911 3.08361 0
M  V30 528 H 45.787 -1.94933 2.32884 0
M  V30 529 H 43.372 -0.907619 1.1867 0
M  V30 530 H 45.254 -4.06924 1.09504 0
M  V30 531 H 43.929 -3.22769 0.245372 0
M  V30 532 H 42.836 -2.76796 2.51664 0
M  V30 533 H 44.169 -3.655 3.29652 0
M  V30 534 N 45.8211 -1.22559 -0.990812 0
M  V30 535 C 46.7511 -1.0218 -2.09956 0
M  V30 536 C 47.7321 0.0579394 -1.70001 0
M  V30 537 O 48.9171 -0.104684 -1.93918 0
M  V30 538 C 46.0471 -0.601023 -3.4206 0
M  V30 539 C 45.0011 -1.62694 -3.95872 0
M  V30 540 C 44.3271 -1.06193 -5.24049 0
M  V30 541 C 45.6271 -3.01743 -4.2632 0
M  V30 542 H 47.3211 -1.94916 -2.27262 0
M  V30 543 H 44.8671 -0.938566 -1.09211 0
M  V30 544 H 46.8201 -0.445561 -4.19038 0
M  V30 545 H 45.5441 0.362005 -3.24588 0
M  V30 546 H 44.2031 -1.77021 -3.21028 0
M  V30 547 H 43.8511 -0.0901903 -5.02919 0
M  V30 548 H 43.5511 -1.74732 -5.61019 0
M  V30 549 H 45.0751 -0.918092 -6.03658 0
M  V30 550 H 46.4891 -2.90777 -4.94087 0
M  V30 551 H 44.8861 -3.67425 -4.74467 0
M  V30 552 H 45.9561 -3.51518 -3.34011 0
M  V30 553 N 47.2992 1.18797 -1.03562 0
M  V30 554 C 48.5452 1.8893 -0.737113 0
M  V30 555 C 48.8782 1.79837 0.732956 0
M  V30 556 O 48.1532 1.19525 1.5344 0
M  V30 557 C 48.4362 3.39607 -1.19745 0
M  V30 558 C 48.2892 3.57537 -2.72924 0
M  V30 559 C 49.6082 4.33069 -0.783526 0
M  V30 560 H 46.7272 0.686057 -0.269249 0
M  V30 561 H 49.3692 1.39797 -1.28673 0
M  V30 562 H 47.5192 3.81583 -0.729855 0
M  V30 563 H 49.1912 3.24688 -3.27682 0
M  V30 564 H 47.4342 3.00363 -3.12993 0
M  V30 565 H 48.1052 4.63238 -3.00191 0
M  V30 566 H 50.5812 3.98846 -1.18581 0
M  V30 567 H 49.4572 5.3707 -1.13343 0
M  V30 568 H 49.7182 4.40986 0.313681 0
M  V30 569 N 48.7773 0.814389 1.34928 0
M  V30 570 C 50.0543 0.321363 1.92942 0
M  V30 571 C 50.4343 -1.19014 1.74353 0
M  V30 572 O 49.7823 -1.99328 1.11716 0
M  V30 573 C 49.9923 0.741323 3.41036 0
M  V30 574 C 51.3403 0.735266 4.18185 0
M  V30 575 O 52.3643 0.68336 3.49584 0
M  V30 576 O 51.2233 0.800703 5.40602 0
M  V30 577 H 48.3173 0.0858893 0.822528 0
M  V30 578 H 50.8633 0.898609 1.43955 0
M  V30 579 H 49.6353 1.78276 3.4833 0
M  V30 580 H 49.2583 0.139307 3.97356 0
M  V30 581 N 50.2554 -1.46986 0.568584 0
M  V30 582 C 51.1654 -2.33942 -0.17555 0
M  V30 583 C 52.1814 -1.48891 -0.90041 0
M  V30 584 O 53.3574 -1.81794 -0.86676 0
M  V30 585 C 50.4224 -3.25811 -1.18524 0
M  V30 586 C 49.4834 -4.26757 -0.466582 0
M  V30 587 C 48.7164 -5.14236 -1.42817 0
M  V30 588 O 48.9394 -5.04379 -2.66379 0
M  V30 589 O 47.8734 -5.94412 -0.946453 0
M  V30 590 H 51.6994 -2.98896 0.538036 0
M  V30 591 H 49.2844 -1.4573 0.329097 0
M  V30 592 H 51.1664 -3.82527 -1.76779 0
M  V30 593 H 49.8414 -2.63471 -1.88055 0
M  V30 594 H 48.7484 -3.73769 0.157451 0
M  V30 595 H 50.0814 -4.91843 0.187485 0
M  V30 596 N 51.7335 -0.305618 -1.54608 0
M  V30 597 C 52.9795 0.302746 -2.00528 0
M  V30 598 C 53.3125 1.53184 -1.19367 0
M  V30 599 O 52.5875 1.92598 -0.271321 0
M  V30 600 C 52.8705 0.654756 -3.54097 0
M  V30 601 C 52.7235 -0.583793 -4.45995 0
M  V30 602 C 54.0425 1.47947 -4.14487 0
M  V30 603 H 51.1615 0.108564 -0.72896 0
M  V30 604 H 53.8035 -0.418634 -1.85331 0
M  V30 605 H 51.9535 1.26935 -3.67178 0
M  V30 606 H 53.6255 -1.22224 -4.44814 0
M  V30 607 H 51.8685 -1.21615 -4.16404 0
M  V30 608 H 52.5395 -0.293287 -5.5122 0
M  V30 609 H 55.0155 0.96013 -4.04871 0
M  V30 610 H 53.8915 1.69454 -5.22088 0
M  V30 611 H 54.1525 2.47011 -3.66658 0
M  V30 612 N 53.2116 1.57565 -0.0334293 0
M  V30 613 C 54.1746 2.09393 0.932048 0
M  V30 614 C 55.1746 1.00986 1.25134 0
M  V30 615 O 56.3646 1.27129 1.19096 0
M  V30 616 C 53.4966 2.56338 2.2473 0
M  V30 617 H 54.6896 2.95984 0.483085 0
M  V30 618 H 52.2426 1.54819 0.21468 0
M  V30 619 H 52.9776 1.7309 2.74245 0
M  V30 620 H 52.7626 3.35542 2.02865 0
M  V30 621 H 54.2526 2.96646 2.93923 0
M  V30 622 N 54.6897 -0.239769 1.55765 0
M  V30 623 C 55.9177 -0.98417 1.81994 0
M  V30 624 C 56.3327 -1.7867 0.610124 0
M  V30 625 O 55.6897 -1.77571 -0.421271 0
M  V30 626 C 55.7407 -1.91635 3.06526 0
M  V30 627 O 55.4617 -1.14629 4.22838 0
M  V30 628 C 56.9627 -2.77616 3.45607 0
M  V30 629 H 54.1827 -0.28928 0.605441 0
M  V30 630 H 56.7267 -0.260499 2.02834 0
M  V30 631 H 54.8817 -2.5942 2.87715 0
M  V30 632 H 55.2957 -1.77745 4.93464 0
M  V30 633 H 56.7697 -3.38759 4.35828 0
M  V30 634 H 57.2467 -3.4909 2.6652 0
M  V30 635 H 57.8527 -2.15271 3.66795 0
M  V30 636 N 56.1678 -1.49265 -0.50573 0
M  V30 637 C 57.0978 -1.68495 -1.61653 0
M  V30 638 C 58.0788 -0.53366 -1.61512 0
M  V30 639 O 59.2638 -0.76897 -1.78327 0
M  V30 640 C 56.3938 -1.74709 -3.00157 0
M  V30 641 C 55.3478 -2.89581 -3.15162 0
M  V30 642 C 54.6738 -2.80903 -4.5497 0
M  V30 643 C 55.9738 -4.30578 -2.95634 0
M  V30 644 H 57.6678 -2.61493 -1.45814 0
M  V30 645 H 55.2138 -1.25838 -0.70005 0
M  V30 646 H 57.1668 -1.86748 -3.77761 0
M  V30 647 H 55.8908 -0.783067 -3.17074 0
M  V30 648 H 54.5498 -2.77136 -2.39982 0
M  V30 649 H 54.1978 -1.82419 -4.68756 0
M  V30 650 H 53.8978 -3.57999 -4.65951 0
M  V30 651 H 55.4218 -2.94944 -5.34641 0
M  V30 652 H 56.8358 -4.4373 -3.63011 0
M  V30 653 H 55.2328 -5.0886 -3.18091 0
M  V30 654 H 56.3028 -4.45352 -1.91806 0
M  V30 655 N 57.6459 0.756429 -1.3826 0
M  V30 656 C 58.5789 1.87802 -1.29637 0
M  V30 657 C 59.5569 1.61667 -0.173939 0
M  V30 658 O 60.7409 1.85208 -0.350775 0
M  V30 659 C 57.8679 3.23354 -1.00797 0
M  V30 660 C 56.9139 3.68379 -2.14939 0
M  V30 661 S 57.7469 3.8025 -3.77054 0
M  V30 662 C 58.9029 5.18626 -3.50396 0
M  V30 663 H 59.1359 1.94829 -2.24564 0
M  V30 664 H 56.6689 0.919117 -1.24063 0
M  V30 665 H 58.6269 4.01637 -0.848413 0
M  V30 666 H 57.2879 3.14008 -0.0759369 0
M  V30 667 H 56.4809 4.66693 -1.90299 0
M  V30 668 H 56.0829 2.97242 -2.26988 0
M  V30 669 H 58.3749 6.04289 -3.06334 0
M  V30 670 H 59.3179 5.48286 -4.48094 0
M  V30 671 H 59.7259 4.87289 -2.84973 0
M  V30 672 N 59.124 1.23083 0.984299 0
M  V30 673 C 60.087 1.00979 2.05757 0
M  V30 674 C 61.087 -0.0269573 1.60777 0
M  V30 675 O 62.277 0.212403 1.729 0
M  V30 676 C 59.409 0.527072 3.36801 0
M  V30 677 H 60.602 1.9622 2.26799 0
M  V30 678 H 58.155 1.05072 1.15714 0
M  V30 679 H 58.89 -0.429294 3.21446 0
M  V30 680 H 58.675 1.27515 3.70786 0
M  V30 681 H 60.165 0.392942 4.15747 0
M  V30 682 N 60.6021 -1.18246 1.0419 0
M  V30 683 C 61.8491 -1.88257 0.746017 0
M  V30 684 C 62.1771 -1.80429 -0.726331 0
M  V30 685 O 61.4321 -1.2 -1.54591 0
M  V30 686 C 61.7311 -3.38082 1.15911 0
M  V30 687 C 61.3971 -3.66114 2.63195 0
M  V30 688 C 60.0591 -3.73474 3.03432 0
M  V30 689 C 62.4111 -3.78398 3.5842 0
M  V30 690 C 59.7391 -3.90599 4.37778 0
M  V30 691 C 62.0911 -3.97039 4.92487 0
M  V30 692 C 60.7551 -4.02635 5.32392 0
M  V30 693 H 60.0251 -0.688883 0.272987 0
M  V30 694 H 62.6721 -1.3995 1.30715 0
M  V30 695 H 60.9771 -3.88377 0.516806 0
M  V30 696 H 62.6741 -3.90596 0.907516 0
M  V30 697 H 59.2641 -3.61003 2.3103 0
M  V30 698 H 63.4481 -3.72042 3.28479 0
M  V30 699 H 58.7041 -3.93175 4.68213 0
M  V30 700 H 62.8781 -4.05486 5.66175 0
M  V30 701 H 60.5051 -4.15657 6.36501 0
M  V30 702 N 62.0802 -0.821533 -1.34494 0
M  V30 703 C 62.9902 -0.244355 -2.33324 0
M  V30 704 C 64.0062 0.620527 -1.62559 0
M  V30 705 O 65.1822 0.528754 -1.94335 0
M  V30 706 C 62.2472 0.585368 -3.41723 0
M  V30 707 C 61.3082 -0.301752 -4.28238 0
M  V30 708 C 60.5412 0.488466 -5.3146 0
M  V30 709 O 60.7642 1.72186 -5.4379 0
M  V30 710 O 59.6982 -0.12848 -6.01763 0
M  V30 711 H 63.5242 -1.06231 -2.84515 0
M  V30 712 H 61.1092 -0.583645 -1.37528 0
M  V30 713 H 62.9912 1.05747 -4.07916 0
M  V30 714 H 61.6662 1.38068 -2.92778 0
M  V30 715 H 60.5732 -0.821315 -3.64973 0
M  V30 716 H 61.9062 -1.06138 -4.8062 0
M  V30 717 N 63.5583 1.46682 -0.576371 0
M  V30 718 C 64.8073 2.01619 -0.0572825 0
M  V30 719 C 65.1203 1.45417 1.30818 0
M  V30 720 O 66.3263 1.92133 1.91825 0
M  V30 721 C 64.7823 3.59863 -0.0518371 0
M  V30 722 C 64.3903 4.25059 -1.41523 0
M  V30 723 C 66.1343 4.2248 0.413639 0
M  V30 724 C 64.0413 5.75364 -1.36785 0
M  V30 725 H 62.9713 0.753794 -0.0176448 0
M  V30 726 H 65.6223 1.68481 -0.727076 0
M  V30 727 H 64.0043 3.90048 0.683994 0
M  V30 728 H 65.1783 4.06491 -2.17029 0
M  V30 729 H 63.4933 3.7451 -1.8202 0
M  V30 730 H 66.0903 5.3265 0.467779 0
M  V30 731 H 66.4333 3.90976 1.42982 0
M  V30 732 H 66.9663 3.96897 -0.267929 0
M  V30 733 H 63.7053 6.11518 -2.36063 0
M  V30 734 H 63.2253 5.96214 -0.654895 0
M  V30 735 H 64.9043 6.37955 -1.07805 0
M  V30 736 N 65.0364 0.313813 1.54444 0
M  V30 737 C 66.2644 -0.293918 2.04802 0
M  V30 738 C 66.6794 -1.46537 1.19047 0
M  V30 739 O 66.0364 -1.81182 0.218939 0
M  V30 740 C 66.0874 -0.737806 3.53891 0
M  V30 741 O 65.8084 0.387038 4.36387 0
M  V30 742 C 67.3094 -1.40936 4.203 0
M  V30 743 H 64.5294 -0.0620057 0.668129 0
M  V30 744 H 67.0734 0.457169 1.99324 0
M  V30 745 H 65.2284 -1.43889 3.59687 0
M  V30 746 H 65.6424 0.0391274 5.24485 0
M  V30 747 H 67.1164 -1.67099 5.26101 0
M  V30 748 H 67.5934 -2.35355 3.70816 0
M  V30 749 H 68.1994 -0.751117 4.18615 0
M  V30 750 N 66.5145 -1.57545 0.0417849 0
M  V30 751 C 67.9305 -1.56467 -0.314704 0
M  V30 752 C 68.1305 -1.04859 -1.72066 0
M  V30 753 O 67.1865 -0.700983 -2.42575 0
M  V30 754 C 68.4995 -3.00317 -0.15174 0
M  V30 755 C 70.0475 -3.12201 -0.223553 0
M  V30 756 C 70.5225 -4.57913 -0.0892295 0
M  V30 757 N 72.0135 -4.6297 -0.145808 0
M  V30 758 C 72.7485 -5.73362 -0.0658459 0
M  V30 759 N 72.2445 -6.92769 0.0659282 0
M  V30 760 N 74.0375 -5.6197 -0.12075 0
M  V30 761 H 66.1885 -1.89416 0.961014 0
M  V30 762 H 68.4515 -0.871862 0.372237 0
M  V30 763 H 68.1575 -3.42073 0.817254 0
M  V30 764 H 68.0315 -3.65892 -0.916692 0
M  V30 765 H 70.4185 -2.70349 -1.18301 0
M  V30 766 H 70.4995 -2.49323 0.571994 0
M  V30 767 H 70.1435 -5.00448 0.866867 0
M  V30 768 H 70.0735 -5.18786 -0.903802 0
M  V30 769 H 72.5645 -3.7709 -0.247286 0
M  V30 770 H 72.8775 -7.72707 0.119905 0
M  V30 771 H 71.2225 -6.94927 0.100885 0
M  V30 772 H 74.4135 -4.67572 -0.222187 0
M  V30 773 H 74.5865 -6.47977 -0.0549735 0
M  V30 774 N 67.9926 0.231505 -1.5589 0
M  V30 775 C 69.2696 0.981096 -1.69215 0
M  V30 776 C 69.6496 2.02799 -0.586164 0
M  V30 777 O 68.9976 2.24823 0.408253 0
M  V30 778 C 69.2076 1.60054 -3.10135 0
M  V30 779 C 70.5556 2.09658 -3.69227 0
M  V30 780 O 71.5796 1.69967 -3.13033 0
M  V30 781 O 70.4386 2.8258 -4.67772 0
M  V30 782 H 67.5326 0.457653 -0.688827 0
M  V30 783 H 70.0786 0.224073 -1.68214 0
M  V30 784 H 68.8506 0.844105 -3.82087 0
M  V30 785 H 68.4736 2.42336 -3.15212 0
M  V30 786 N 69.4707 1.49531 0.497807 0
M  V30 787 C 70.4007 1.6935 1.60757 0
M  V30 788 C 71.3817 0.542218 1.61227 0
M  V30 789 O 72.5667 0.778417 1.77917 0
M  V30 790 C 69.6967 1.76298 2.99226 0
M  V30 791 C 68.6507 2.91248 3.13622 0
M  V30 792 C 67.9767 2.83312 4.53474 0
M  V30 793 C 69.2767 4.3214 2.93346 0
M  V30 794 H 70.9707 2.62263 1.44425 0
M  V30 795 H 68.5167 1.26208 0.693367 0
M  V30 796 H 70.4697 1.88749 3.76765 0
M  V30 797 H 69.1937 0.799871 3.16654 0
M  V30 798 H 67.8527 2.78404 2.38509 0
M  V30 799 H 67.5007 1.84902 4.67782 0
M  V30 800 H 67.2007 3.60465 4.64046 0
M  V30 801 H 68.7247 2.97775 5.33069 0
M  V30 802 H 70.1387 4.45649 3.60652 0
M  V30 803 H 68.5357 5.1054 3.15387 0
M  V30 804 H 69.6057 4.46363 1.89441 0
M  V30 805 N 70.9488 -0.749086 1.3866 0
M  V30 806 C 72.3598 -1.32664 1.31366 0
M  V30 807 C 72.7108 -1.96179 -0.028484 0
M  V30 808 O 71.8358 -1.9537 -0.93057 0
M  V30 809 C 72.4308 -2.41219 2.37905 0
M  V30 810 C 70.9898 -2.94684 2.34176 0
M  V30 811 C 70.1368 -1.68108 2.20533 0
M  V30 812 H 73.0878 -0.547628 1.48952 0
M  V30 813 H 73.1088 -3.21268 2.0388 0
M  V30 814 H 72.6208 -1.94962 3.35576 0
M  V30 815 H 70.7218 -3.45258 1.401 0
M  V30 816 H 70.8348 -3.48757 3.2849 0
M  V30 817 H 69.1988 -1.91907 1.67463 0
M  V30 818 H 69.9818 -1.23923 3.20153 0
M  V30 819 N 72.4269 -1.23603 -0.977757 0
M  V30 820 C 73.3569 -1.04401 -2.0886 0
M  V30 821 C 74.3379 0.0399052 -1.70053 0
M  V30 822 O 75.5229 -0.125246 -1.93796 0
M  V30 823 C 72.6529 -0.637269 -3.41403 0
M  V30 824 C 71.6069 -1.66883 -3.94124 0
M  V30 825 C 70.9329 -1.11745 -5.22893 0
M  V30 826 C 72.2329 -3.06247 -4.23096 0
M  V30 827 H 73.9269 -1.97316 -2.25182 0
M  V30 828 H 71.4729 -0.950096 -1.08209 0
M  V30 829 H 73.4259 -0.48998 -4.18542 0
M  V30 830 H 72.1499 0.327557 -3.24953 0
M  V30 831 H 70.8089 -1.80416 -3.19133 0
M  V30 832 H 70.4569 -0.143527 -5.02795 0
M  V30 833 H 70.1569 -1.80672 -5.59134 0
M  V30 834 H 71.6809 -0.982067 -6.02651 0
M  V30 835 H 73.0949 -2.96001 -4.90975 0
M  V30 836 H 71.4919 -3.72436 -4.70544 0
M  V30 837 H 72.5619 -3.55041 -3.30263 0
M  V30 838 N 73.905 1.17692 -1.04816 0
M  V30 839 C 74.815 2.25229 -0.65643 0
M  V30 840 C 75.831 1.71018 0.320761 0
M  V30 841 O 77.007 2.00649 0.173805 0
M  V30 842 C 74.072 3.46684 -0.0332629 0
M  V30 843 C 73.133 4.15997 -1.06042 0
M  V30 844 C 72.366 5.31654 -0.466893 0
M  V30 845 O 72.589 5.65777 0.724758 0
M  V30 846 O 71.523 5.89831 -1.1993 0
M  V30 847 H 75.349 2.61016 -1.55255 0
M  V30 848 H 72.934 1.24919 -0.81949 0
M  V30 849 H 74.816 4.20234 0.313256 0
M  V30 850 H 73.491 3.12703 0.836566 0
M  V30 851 H 72.398 3.44482 -1.45886 0
M  V30 852 H 73.731 4.53996 -1.90127 0
M  V30 853 N 75.3831 0.828654 1.34056 0
M  V30 854 C 76.2931 0.256725 2.33191 0
M  V30 855 C 77.3091 -0.611898 1.62886 0
M  V30 856 O 78.4851 -0.51844 1.94613 0
M  V30 857 C 75.5501 -0.567238 3.42028 0
M  V30 858 C 74.6111 0.324458 4.28072 0
M  V30 859 C 73.8441 -0.460274 5.31712 0
M  V30 860 O 74.0671 -1.693 5.44696 0
M  V30 861 O 73.0011 0.160391 6.01686 0
M  V30 862 H 76.8271 1.07739 2.83947 0
M  V30 863 H 74.4121 0.59093 1.37217 0
M  V30 864 H 76.2941 -1.03582 4.08471 0
M  V30 865 H 74.9691 -1.36513 2.93506 0
M  V30 866 H 73.8761 0.840659 3.64532 0
M  V30 867 H 75.2091 1.08685 4.8005 0
M  V30 868 N 76.8612 -1.46375 0.584142 0
M  V30 869 C 78.1072 -2.02678 0.0703716 0
M  V30 870 C 78.4402 -1.4545 -1.28678 0
M  V30 871 O 77.7152 -0.62014 -1.84349 0
M  V30 872 C 77.9982 -3.60099 0.00614674 0
M  V30 873 C 77.8512 -4.27709 1.3923 0
M  V30 874 C 79.1702 -4.34598 -0.693742 0
M  V30 875 H 76.2892 -0.736504 0.027047 0
M  V30 876 H 78.9312 -1.74501 0.751615 0
M  V30 877 H 77.0812 -3.84236 -0.574009 0
M  V30 878 H 78.7532 -4.14832 2.01773 0
M  V30 879 H 76.9962 -3.87016 1.95962 0
M  V30 880 H 77.6672 -5.36478 1.29982 0
M  V30 881 H 80.1432 -4.15615 -0.200869 0
M  V30 882 H 79.0192 -5.44318 -0.707714 0
M  V30 883 H 79.2802 -4.05759 -1.75533 0
M  V30 884 N 78.3393 -0.321999 -1.54275 0
M  V30 885 C 79.2493 0.553631 -2.27974 0
M  V30 886 C 80.2653 1.13054 -1.32268 0
M  V30 887 O 81.4413 1.15084 -1.6528 0
M  V30 888 C 78.5063 1.69927 -3.02201 0
M  V30 889 C 77.5673 1.15433 -4.1349 0
M  V30 890 C 76.8003 2.24537 -4.84168 0
M  V30 891 O 77.0233 3.44852 -4.5435 0
M  V30 892 O 75.9573 1.90044 -5.7111 0
M  V30 893 H 79.7833 -0.0448345 -3.03667 0
M  V30 894 H 77.3683 -0.0877418 -1.49142 0
M  V30 895 H 79.2503 2.3663 -3.48689 0
M  V30 896 H 77.9253 2.28395 -2.29385 0
M  V30 897 H 76.8323 0.452436 -3.71354 0
M  V30 898 H 78.1653 0.614805 -4.88345 0
M  V30 899 N 79.8174 1.5752 -0.0501392 0
M  V30 900 C 81.0664 1.91827 0.623328 0
M  V30 901 C 81.3794 0.930222 1.72065 0
M  V30 902 O 82.5854 1.1653 2.4522 0
M  V30 903 C 81.0414 3.40692 1.16003 0
M  V30 904 C 80.6494 4.479 0.0948811 0
M  V30 905 C 82.3934 3.84034 1.80881 0
M  V30 906 C 80.3004 5.87879 0.644411 0
M  V30 907 H 79.2304 0.715918 0.236596 0
M  V30 908 H 81.8814 1.83115 -0.118861 0
M  V30 909 H 80.2634 3.44405 1.9545 0
M  V30 910 H 81.4374 4.55775 -0.678675 0
M  V30 911 H 79.7524 4.13892 -0.45637 0
M  V30 912 H 82.3494 4.85984 2.22988 0
M  V30 913 H 82.6924 3.20225 2.6601 0
M  V30 914 H 83.2254 3.82833 1.0809 0
M  V30 915 H 79.9644 6.55282 -0.169229 0
M  V30 916 H 79.4844 5.83567 1.38598 0
M  V30 917 H 81.1634 6.37098 1.12763 0
M  V30 918 N 81.2955 -0.223234 1.56011 0
M  V30 919 C 82.2055 -1.29766 1.95443 0
M  V30 920 C 83.2215 -1.51373 0.858028 0
M  V30 921 O 84.3975 -1.64536 1.16146 0
M  V30 922 C 81.4625 -2.62772 2.26167 0
M  V30 923 C 80.5235 -2.49482 3.49367 0
M  V30 924 C 79.7565 -3.76145 3.78616 0
M  V30 925 O 79.9795 -4.79087 3.09568 0
M  V30 926 O 78.9135 -3.73358 4.72109 0
M  V30 927 H 82.7395 -0.99309 2.87004 0
M  V30 928 H 80.3245 -0.425958 1.43199 0
M  V30 929 H 82.2065 -3.41327 2.47131 0
M  V30 930 H 80.8815 -2.92913 1.37781 0
M  V30 931 H 79.7885 -1.69133 3.33684 0
M  V30 932 H 81.1215 -2.2428 4.38131 0
M  V30 933 N 82.7736 -1.49793 -0.48987 0
M  V30 934 C 84.0016 -1.63568 -1.26701 0
M  V30 935 C 84.4166 -0.311465 -1.86213 0
M  V30 936 O 83.7736 0.704416 -1.68357 0
M  V30 937 C 83.8246 -2.71284 -2.38929 0
M  V30 938 O 83.5456 -3.9857 -1.81861 0
M  V30 939 C 85.0466 -2.95864 -3.3012 0
M  V30 940 H 82.2666 -0.550342 -0.383881 0
M  V30 941 H 84.8106 -1.95898 -0.586864 0
M  V30 942 H 82.9656 -2.417 -3.02753 0
M  V30 943 H 83.3796 -4.57993 -2.55622 0
M  V30 944 H 84.8536 -3.74941 -4.05121 0
M  V30 945 H 85.3306 -2.06206 -3.87783 0
M  V30 946 H 85.9366 -3.26907 -2.72051 0
M  V30 947 N 84.2517 0.741722 -1.39055 0
M  V30 948 C 85.6627 1.31966 -1.32068 0
M  V30 949 C 86.0137 1.96192 0.0180797 0
M  V30 950 O 85.1387 1.95861 0.920196 0
M  V30 951 C 85.7337 2.39954 -2.39181 0
M  V30 952 C 84.2927 2.93438 -2.35735 0
M  V30 953 C 83.4397 1.66936 -2.21422 0
M  V30 954 H 86.3907 0.539721 -1.4924 0
M  V30 955 H 86.4117 3.20182 -2.05581 0
M  V30 956 H 85.9237 1.9318 -3.36605 0
M  V30 957 H 84.0247 3.4451 -1.41929 0
M  V30 958 H 84.1377 3.4701 -3.30335 0
M  V30 959 H 82.5017 1.91016 -1.68478 0
M  V30 960 H 83.2847 1.22224 -3.20806 0
M  V30 961 N 85.7298 1.2412 0.971189 0
M  V30 962 C 86.9758 1.08041 1.71625 0
M  V30 963 C 87.3088 -0.380407 1.90438 0
M  V30 964 O 86.5838 -1.28127 1.46334 0
M  V30 965 C 86.8668 1.81682 3.10908 0
M  V30 966 C 86.7198 3.35493 2.99608 0
M  V30 967 C 88.0388 1.58671 4.10501 0
M  V30 968 H 85.1578 0.39388 0.622919 0
M  V30 969 H 87.7998 1.52743 1.13003 0
M  V30 970 H 85.9498 1.43684 3.60953 0
M  V30 971 H 87.6218 3.83068 2.57015 0
M  V30 972 H 85.8648 3.64052 2.35899 0
M  V30 973 H 86.5358 3.82217 3.98264 0
M  V30 974 H 89.0118 1.91719 3.69301 0
M  V30 975 H 87.8878 2.1266 5.06031 0
M  V30 976 H 88.1488 0.524161 4.38982 0
M  V30 977 N 87.2079 -1.17134 1.05439 0
M  V30 978 C 88.4329 -1.91913 0.786396 0
M  V30 979 C 88.8579 -1.7643 -0.652234 0
M  V30 980 O 88.2159 -1.08372 -1.45345 0
M  V30 981 C 88.2639 -3.40921 1.17497 0
M  V30 982 O 87.3679 -4.11244 0.308589 0
M  V30 983 H 86.7089 -0.598215 0.288158 0
M  V30 984 H 89.2389 -1.48457 1.4079 0
M  V30 985 H 89.2489 -3.91668 1.14281 0
M  V30 986 H 87.9239 -3.5151 2.22292 0
M  V30 987 H 86.5009 -3.70731 0.40157 0
M  V30 988 N 88.686 -0.835752 -1.33615 0
M  V30 989 C 89.633 -0.26473 -2.29277 0
M  V30 990 C 90.603 0.617712 -1.54187 0
M  V30 991 O 91.788 0.556641 -1.825 0
M  V30 992 C 88.928 0.556777 -3.40579 0
M  V30 993 C 88.041 -0.349339 -4.30585 0
M  V30 994 C 87.176 0.482969 -5.29 0
M  V30 995 C 86.215 -0.421732 -6.10645 0
M  V30 996 N 85.352 0.372262 -7.01112 0
M  V30 997 H 90.192 -1.08582 -2.77514 0
M  V30 998 H 87.729 -0.546927 -1.36554 0
M  V30 999 H 89.687 1.04852 -4.03809 0
M  V30 1000 H 88.317 1.34286 -2.93542 0
M  V30 1001 H 87.369 -0.959372 -3.68104 0
M  V30 1002 H 88.681 -1.04445 -4.87742 0
M  V30 1003 H 87.835 1.03866 -5.97743 0
M  V30 1004 H 86.574 1.21153 -4.72412 0
M  V30 1005 H 85.579 -0.989464 -5.40823 0
M  V30 1006 H 86.804 -1.14861 -6.69316 0
M  V30 1007 H 84.75 1.08426 -6.46977 0
M  V30 1008 H 84.667 -0.264198 -7.55538 0
M  V30 1009 H 85.935 0.910293 -7.74167 0
M  V30 1010 N 90.1641 1.46063 -0.591896 0
M  V30 1011 C 91.1271 2.28854 0.125973 0
M  V30 1012 C 92.1271 1.38903 0.810107 0
M  V30 1013 O 93.3171 1.61186 0.66066 0
M  V30 1014 C 90.4491 3.19526 1.1881 0
M  V30 1015 H 91.6421 2.93802 -0.601717 0
M  V30 1016 H 89.1951 1.52325 -0.350254 0
M  V30 1017 H 89.9301 2.59345 1.94707 0
M  V30 1018 H 89.7151 3.85766 0.701936 0
M  V30 1019 H 91.2051 3.81817 1.69132 0
M  V30 1020 N 91.6422 0.330177 1.54103 0
M  V30 1021 C 93.0582 -0.0222371 1.59585 0
M  V30 1022 C 93.2582 -1.49902 1.34654 0
M  V30 1023 O 92.3142 -2.25592 1.13421 0
M  V30 1024 C 93.6272 0.401932 2.98002 0
M  V30 1025 C 95.1752 0.353145 3.11001 0
M  V30 1026 C 95.6502 0.752576 4.51775 0
M  V30 1027 N 97.1412 0.706239 4.57784 0
M  V30 1028 C 97.8762 0.987417 5.64834 0
M  V30 1029 N 97.3722 1.33607 6.79795 0
M  V30 1030 N 99.1652 0.91254 5.54643 0
M  V30 1031 H 91.3162 1.29228 1.68564 0
M  V30 1032 H 93.5792 0.525906 0.78875 0
M  V30 1033 H 93.2852 1.4311 3.21267 0
M  V30 1034 H 93.1592 -0.229699 3.765 0
M  V30 1035 H 95.5462 -0.666822 2.87467 0
M  V30 1036 H 95.6272 1.0198 2.34593 0
M  V30 1037 H 95.2712 1.77049 4.76042 0
M  V30 1038 H 95.2012 0.0635409 5.26562 0
M  V30 1039 H 97.6922 0.44889 3.75224 0
M  V30 1040 H 98.0052 1.53582 7.57385 0
M  V30 1041 H 96.3502 1.37439 6.81275 0
M  V30 1042 H 99.5412 0.639601 4.6371 0
M  V30 1043 H 99.7142 1.13503 6.37982 0
M  V30 1044 N 93.1203 -1.57491 0.0584922 0
M  V30 1045 C 94.0833 -2.1085 -0.898617 0
M  V30 1046 C 95.0833 -1.02964 -1.23511 0
M  V30 1047 O 96.2733 -1.29007 -1.17059 0
M  V30 1048 C 93.4053 -2.59881 -2.20623 0
M  V30 1049 H 94.5983 -2.96715 -0.435936 0
M  V30 1050 H 92.1513 -1.55141 -0.190023 0
M  V30 1051 H 92.8863 -1.77431 -2.71457 0
M  V30 1052 H 92.6713 -3.38727 -1.97501 0
M  V30 1053 H 94.1613 -3.01285 -2.89166 0
M  V30 1054 N 94.5984 0.214957 -1.56127 0
M  V30 1055 C 95.5454 1.26642 -1.92952 0
M  V30 1056 C 96.5154 1.46244 -0.78753 0
M  V30 1057 O 97.7004 1.59704 -1.04399 0
M  V30 1058 C 94.8404 2.6104 -2.25726 0
M  V30 1059 C 93.9534 2.49183 -3.52891 0
M  V30 1060 C 93.0884 3.76149 -3.7508 0
M  V30 1061 C 92.1274 3.59041 -4.95738 0
M  V30 1062 N 91.2644 4.77972 -5.14283 0
M  V30 1063 H 96.1044 0.945384 -2.82607 0
M  V30 1064 H 93.6414 0.455489 -1.3987 0
M  V30 1065 H 95.5994 3.39313 -2.42739 0
M  V30 1066 H 94.2294 2.91227 -1.39236 0
M  V30 1067 H 93.2814 1.6231 -3.44034 0
M  V30 1068 H 94.5934 2.32466 -4.41318 0
M  V30 1069 H 93.7474 4.62865 -3.92226 0
M  V30 1070 H 92.4864 3.95799 -2.84947 0
M  V30 1071 H 91.4914 2.7071 -4.78535 0
M  V30 1072 H 92.7164 3.40856 -5.87362 0
M  V30 1073 H 90.6624 4.97923 -4.27093 0
M  V30 1074 H 90.5794 4.64006 -5.96853 0
M  V30 1075 H 91.8474 5.66096 -5.35869 0
M  V30 1076 N 96.0765 1.50051 0.48192 0
M  V30 1077 C 97.3225 1.60736 1.2366 0
M  V30 1078 C 97.6555 0.301786 1.91841 0
M  V30 1079 O 96.9305 -0.696025 1.8162 0
M  V30 1080 C 97.2135 2.78009 2.28874 0
M  V30 1081 C 97.0665 4.18416 1.65069 0
M  V30 1082 C 98.3855 2.90867 3.30279 0
M  V30 1083 H 95.5045 0.585031 0.448228 0
M  V30 1084 H 98.1465 1.82402 0.531946 0
M  V30 1085 H 96.2965 2.59667 2.88973 0
M  V30 1086 H 97.9685 4.48322 1.0865 0
M  V30 1087 H 96.2115 4.23177 0.954148 0
M  V30 1088 H 96.8825 4.96381 2.41474 0
M  V30 1089 H 99.3585 3.07623 2.80191 0
M  V30 1090 H 98.2345 3.74566 4.01238 0
M  V30 1091 H 98.4955 2.01021 3.93755 0
M  V30 1092 N 97.5546 -0.734337 1.39446 0
M  V30 1093 C 98.8036 -1.48937 1.36017 0
M  V30 1094 C 99.1166 -1.95557 -0.0409005 0
M  V30 1095 O 100.323 -2.70779 -0.19778 0
M  V30 1096 C 98.7786 -2.69125 2.38955 0
M  V30 1097 C 98.3866 -2.29452 3.8478 0
M  V30 1098 C 100.131 -3.46944 2.44603 0
M  V30 1099 C 98.0376 -3.46366 4.79358 0
M  V30 1100 H 96.9676 -0.559296 0.505672 0
M  V30 1101 H 99.6186 -0.800983 1.65095 0
M  V30 1102 H 98.0006 -3.40041 2.02948 0
M  V30 1103 H 99.1746 -1.66077 4.29831 0
M  V30 1104 H 97.4896 -1.64723 3.82433 0
M  V30 1105 H 100.087 -4.33907 3.12456 0
M  V30 1106 H 100.43 -3.89454 1.47076 0
M  V30 1107 H 100.963 -2.83056 2.79507 0
M  V30 1108 H 97.7016 -3.08905 5.78151 0
M  V30 1109 H 97.2216 -4.08719 4.38986 0
M  V30 1110 H 98.9006 -4.12691 4.98292 0
M  V30 1111 N 99.0327 -1.24633 -0.964593 0
M  V30 1112 C 99.9957 -1.0424 -2.04124 0
M  V30 1113 C 100.996 0.00137563 -1.608 0
M  V30 1114 O 102.186 -0.239883 -1.7254 0
M  V30 1115 C 99.3177 -0.580588 -3.3592 0
M  V30 1116 H 100.511 -1.99803 -2.23649 0
M  V30 1117 H 98.0637 -1.06899 -1.14027 0
M  V30 1118 H 98.7987 0.3781 -3.22088 0
M  V30 1119 H 98.5837 -1.33398 -3.6871 0
M  V30 1120 H 100.074 -0.459034 -4.15069 0
M  V30 1121 N 100.511 1.16574 -1.06058 0
M  V30 1122 C 101.759 1.86677 -0.77434 0
M  V30 1123 C 102.08 1.81959 0.701147 0
M  V30 1124 O 101.35 1.2515 1.50713 0
M  V30 1125 H 99.9298 0.691134 -0.283449 0
M  V30 1126 H 102.592 1.41378 -1.34158 0
M  V30 1127 H 101.688 2.92181 -1.09711 0
M  V30 1128 N 101.989 0.842826 1.3317 0
M  V30 1129 C 102.936 0.276885 2.29133 0
M  V30 1130 C 103.906 -0.609527 1.54512 0
M  V30 1131 O 105.091 -0.546955 1.82792 0
M  V30 1132 C 102.231 -0.538707 3.40869 0
M  V30 1133 C 101.344 0.372169 4.30394 0
M  V30 1134 C 100.479 -0.454908 5.29249 0
M  V30 1135 C 99.5179 0.45411 6.10413 0
M  V30 1136 N 98.6549 -0.335075 7.013 0
M  V30 1137 H 103.495 1.10052 2.76934 0
M  V30 1138 H 101.032 0.554161 1.36262 0
M  V30 1139 H 102.99 -1.02709 4.0436 0
M  V30 1140 H 101.62 -1.32727 2.9425 0
M  V30 1141 H 100.672 0.97888 3.6759 0
M  V30 1142 H 101.984 1.0703 4.87182 0
M  V30 1143 H 101.138 -1.00695 5.98285 0
M  V30 1144 H 99.8769 -1.18646 4.73048 0
M  V30 1145 H 98.8819 1.01813 5.40291 0
M  V30 1146 H 100.107 1.18409 6.68697 0
M  V30 1147 H 98.0529 -1.04994 6.47543 0
M  V30 1148 H 97.9699 0.304262 7.55387 0
M  V30 1149 H 99.2379 -0.869224 7.74638 0
M  V30 1150 N 103.467 -1.45747 0.599634 0
M  V30 1151 C 104.414 -2.30467 -0.123849 0
M  V30 1152 C 105.384 -1.41632 -0.86774 0
M  V30 1153 O 106.569 -1.70568 -0.855056 0
M  V30 1154 C 103.709 -3.26402 -1.12051 0
M  V30 1155 C 102.822 -4.3034 -0.37832 0
M  V30 1156 C 101.957 -5.13389 -1.364 0
M  V30 1157 C 100.996 -6.09061 -0.609171 0
M  V30 1158 N 100.133 -6.84918 -1.54374 0
M  V30 1159 H 104.973 -2.91802 0.604627 0
M  V30 1160 H 102.51 -1.43797 0.309972 0
M  V30 1161 H 104.468 -3.80482 -1.7114 0
M  V30 1162 H 103.098 -2.66839 -1.8165 0
M  V30 1163 H 102.15 -3.78984 0.327929 0
M  V30 1164 H 103.462 -4.98354 0.210997 0
M  V30 1165 H 102.616 -5.7183 -2.02719 0
M  V30 1166 H 101.355 -4.45376 -1.98725 0
M  V30 1167 H 100.36 -5.49758 0.0676979 0
M  V30 1168 H 101.585 -6.79099 0.00891991 0
M  V30 1169 H 99.531 -6.19601 -2.15478 0
M  V30 1170 H 99.448 -7.49254 -1.00766 0
M  V30 1171 H 100.716 -7.47906 -2.19676 0
M  V30 1172 N 104.945 -0.338344 -1.53925 0
M  V30 1173 C 105.875 0.51328 -2.27789 0
M  V30 1174 C 106.856 1.107 -1.29149 0
M  V30 1175 O 108.041 1.12937 -1.57984 0
M  V30 1176 C 105.171 1.66697 -3.04679 0
M  V30 1177 C 104.125 1.20183 -4.1078 0
M  V30 1178 C 103.451 2.44363 -4.75595 0
M  V30 1179 C 104.751 0.30605 -5.21403 0
M  V30 1180 H 106.445 -0.102883 -2.99223 0
M  V30 1181 H 103.991 -0.0509219 -1.4391 0
M  V30 1182 H 105.944 2.26915 -3.55088 0
M  V30 1183 H 104.668 2.30995 -2.30887 0
M  V30 1184 H 103.327 0.622499 -3.61276 0
M  V30 1185 H 102.975 3.07057 -3.98403 0
M  V30 1186 H 102.675 2.13925 -5.47275 0
M  V30 1187 H 104.199 3.05317 -5.28786 0
M  V30 1188 H 105.613 0.814929 -5.67478 0
M  V30 1189 H 104.01 0.0937929 -6.00027 0
M  V30 1190 H 105.08 -0.65921 -4.80398 0
M  V30 1191 N 106.423 1.57458 -0.0668435 0
M  V30 1192 C 107.671 1.92919 0.602214 0
M  V30 1193 C 107.992 0.947215 1.70449 0
M  V30 1194 O 107.262 -0.00544117 1.95899 0
M  V30 1195 H 105.842 0.71217 0.22544 0
M  V30 1196 H 108.504 1.94508 -0.123535 0
M  V30 1197 H 107.6 2.94589 1.03073 0
M  V30 1198 N 107.901 -0.206675 1.56239 0
M  V30 1199 C 109.147 -0.930218 1.80208 0
M  V30 1200 C 109.48 -1.83387 0.638981 0
M  V30 1201 O 108.755 -1.91119 -0.361066 0
M  V30 1202 C 109.038 -1.75641 3.1436 0
M  V30 1203 C 108.891 -0.878257 4.41142 0
M  V30 1204 C 110.21 -2.73129 3.45092 0
M  V30 1205 H 107.329 -0.336742 0.655571 0
M  V30 1206 H 109.971 -0.198222 1.88963 0
M  V30 1207 H 108.121 -2.38048 3.07027 0
M  V30 1208 H 109.793 -0.269787 4.6051 0
M  V30 1209 H 108.036 -0.184385 4.33408 0
M  V30 1210 H 108.707 -1.49106 5.3148 0
M  V30 1211 H 111.183 -2.20856 3.52649 0
M  V30 1212 H 110.059 -3.28028 4.40101 0
M  V30 1213 H 110.32 -3.51606 2.68003 0
M  V30 1214 N 109.379 -1.50304 -0.473955 0
M  V30 1215 C 110.628 -1.60392 -1.22301 0
M  V30 1216 C 110.941 -0.308411 -1.93153 0
M  V30 1217 O 112.147 -0.288156 -2.69966 0
M  V30 1218 C 110.603 -2.83109 -2.2221 0
M  V30 1219 C 110.211 -4.19524 -1.57173 0
M  V30 1220 C 111.955 -3.0254 -2.97775 0
M  V30 1221 C 109.862 -5.33431 -2.55353 0
M  V30 1222 H 108.792 -0.597286 -0.460179 0
M  V30 1223 H 111.443 -1.76731 -0.493803 0
M  V30 1224 H 109.825 -2.60322 -2.9841 0
M  V30 1225 H 110.999 -4.52554 -0.867824 0
M  V30 1226 H 109.314 -4.05674 -0.939002 0
M  V30 1227 H 111.911 -3.84811 -3.71248 0
M  V30 1228 H 112.254 -2.14154 -3.56992 0
M  V30 1229 H 112.787 -3.25494 -2.28688 0
M  V30 1230 H 109.526 -6.23962 -2.00878 0
M  V30 1231 H 109.046 -5.04823 -3.23904 0
M  V30 1232 H 110.725 -5.63887 -3.17239 0
M  V30 1233 N 110.857 0.726932 -1.39834 0
M  V30 1234 C 112.268 1.30558 -1.3346 0
M  V30 1235 C 112.619 1.962 -0.00273003 0
M  V30 1236 O 111.744 1.96826 0.899371 0
M  V30 1237 C 112.339 2.37404 -2.41713 0
M  V30 1238 C 110.898 2.90921 -2.38835 0
M  V30 1239 C 110.045 1.64578 -2.2318 0
M  V30 1240 H 112.996 0.523862 -1.49804 0
M  V30 1241 H 113.017 3.17984 -2.08966 0
M  V30 1242 H 112.529 1.89599 -3.38635 0
M  V30 1243 H 110.63 3.42985 -1.45575 0
M  V30 1244 H 110.743 3.43487 -3.33997 0
M  V30 1245 H 109.107 1.89219 -1.70494 0
M  V30 1246 H 109.89 1.18814 -3.22084 0
M  V30 1247 N 112.336 1.25143 0.95797 0
M  V30 1248 C 113.585 1.0909 1.69654 0
M  V30 1249 C 113.898 -0.368548 1.92097 0
M  V30 1250 O 115.104 -0.649455 2.63618 0
M  V30 1251 C 113.56 1.90395 3.05414 0
M  V30 1252 C 113.168 3.4081 2.90779 0
M  V30 1253 C 114.912 1.82901 3.83076 0
M  V30 1254 C 112.819 4.14423 4.21909 0
M  V30 1255 H 111.749 0.404625 0.636235 0
M  V30 1256 H 114.4 1.4931 1.06672 0
M  V30 1257 H 112.782 1.42996 3.69281 0
M  V30 1258 H 113.956 3.95859 2.35865 0
M  V30 1259 H 112.271 3.49361 2.26575 0
M  V30 1260 H 114.868 2.35196 4.80195 0
M  V30 1261 H 115.211 0.796224 4.08615 0
M  V30 1262 H 115.744 2.28033 3.25954 0
M  V30 1263 H 112.483 5.18102 4.01561 0
M  V30 1264 H 112.003 3.64159 4.76601 0
M  V30 1265 H 113.682 4.21956 4.90471 0
M  V30 1266 N 113.814 -1.1601 1.06675 0
M  V30 1267 C 114.744 -2.22688 0.702307 0
M  V30 1268 C 115.725 -1.67306 -0.307032 0
M  V30 1269 O 116.91 -1.93352 -0.181305 0
M  V30 1270 C 114.04 -3.47178 0.092038 0
M  V30 1271 C 112.994 -4.15477 1.02777 0
M  V30 1272 C 112.32 -5.33963 0.28061 0
M  V30 1273 C 113.62 -4.66019 2.35846 0
M  V30 1274 H 115.314 -2.53429 1.59419 0
M  V30 1275 H 112.86 -1.21813 0.767961 0
M  V30 1276 H 114.813 -4.21037 -0.174814 0
M  V30 1277 H 113.537 -3.15749 -0.834877 0
M  V30 1278 H 112.196 -3.43549 1.27944 0
M  V30 1279 H 111.844 -4.98788 -0.649545 0
M  V30 1280 H 111.544 -5.806 0.904258 0
M  V30 1281 H 113.068 -6.10596 0.021396 0
M  V30 1282 H 114.482 -5.3144 2.15045 0
M  V30 1283 H 112.879 -5.23293 2.93743 0
M  V30 1284 H 113.949 -3.82023 2.98641 0
M  V30 1285 N 115.292 -0.849877 -1.32721 0
M  V30 1286 C 116.708 -0.539102 -1.50219 0
M  V30 1287 C 116.908 0.931271 -1.78689 0
M  V30 1288 O 115.964 1.71455 -1.85363 0
M  V30 1289 C 117.277 -1.42196 -2.64954 0
M  V30 1290 C 118.825 -1.42189 -2.78839 0
M  V30 1291 C 119.3 -2.28985 -3.96648 0
M  V30 1292 N 120.791 -2.26754 -4.03902 0
M  V30 1293 C 121.526 -2.90644 -4.94281 0
M  V30 1294 N 121.022 -3.63629 -5.897 0
M  V30 1295 N 122.815 -2.80057 -4.87365 0
M  V30 1296 H 114.966 -1.80156 -1.12506 0
M  V30 1297 H 117.229 -0.769217 -0.554085 0
M  V30 1298 H 116.935 -2.46733 -2.50631 0
M  V30 1299 H 116.809 -1.10591 -3.60624 0
M  V30 1300 H 119.196 -0.38419 -2.92588 0
M  V30 1301 H 119.277 -1.77807 -1.83898 0
M  V30 1302 H 118.921 -3.32819 -3.83658 0
M  V30 1303 H 118.851 -1.90702 -4.90857 0
M  V30 1304 H 121.342 -1.73688 -3.3562 0
M  V30 1305 H 121.655 -4.09558 -6.55349 0
M  V30 1306 H 120 -3.67737 -5.89741 0
M  V30 1307 H 123.191 -2.22593 -4.11789 0
M  V30 1308 H 123.364 -3.30132 -5.57599 0
M  V30 1309 N 116.77 1.45427 -0.607355 0
M  V30 1310 C 117.733 2.28974 0.101693 0
M  V30 1311 C 118.733 1.39754 0.795329 0
M  V30 1312 O 119.923 1.61878 0.643527 0
M  V30 1313 C 117.055 3.20768 1.15414 0
M  V30 1314 H 118.248 2.93147 -0.632844 0
M  V30 1315 H 115.801 1.51945 -0.366391 0
M  V30 1316 H 116.536 2.61395 1.91945 0
M  V30 1317 H 116.321 3.86489 0.66098 0
M  V30 1318 H 117.811 3.83589 1.65073 0
M  V30 1319 N 118.248 0.346503 1.53744 0
M  V30 1320 C 119.496 -0.248612 2.00565 0
M  V30 1321 C 119.817 -1.5083 1.23593 0
M  V30 1322 O 119.087 -1.92858 0.343912 0
M  V30 1323 H 117.667 -0.0948564 0.740953 0
M  V30 1324 H 120.329 0.468341 1.89189 0
M  V30 1325 H 119.425 -0.488994 3.08245 0
M  V30 1326 N 119.726 -1.57421 0.075193 0
M  V30 1327 C 120.975 -1.92794 -0.592731 0
M  V30 1328 C 121.288 -0.957478 -1.70563 0
M  V30 1329 O 122.494 -1.20417 -2.43335 0
M  V30 1330 C 120.95 -3.42495 -1.10569 0
M  V30 1331 C 120.558 -4.47994 -0.0236121 0
M  V30 1332 C 122.302 -3.86864 -1.74748 0
M  V30 1333 C 120.209 -5.88829 -0.550803 0
M  V30 1334 H 119.139 -0.719591 -0.225177 0
M  V30 1335 H 121.79 -1.82902 0.147978 0
M  V30 1336 H 120.172 -3.47471 -1.89947 0
M  V30 1337 H 121.346 -4.54637 0.751099 0
M  V30 1338 H 119.661 -4.13113 0.522159 0
M  V30 1339 H 122.258 -4.8947 -2.15229 0
M  V30 1340 H 122.601 -3.24417 -2.60882 0
M  V30 1341 H 123.134 -3.84504 -1.01986 0
M  V30 1342 H 119.873 -6.54929 0.273457 0
M  V30 1343 H 119.393 -5.85698 -1.29296 0
M  V30 1344 H 121.072 -6.38811 -1.02613 0
M  V30 1345 N 121.204 0.198386 -1.56346 0
M  V30 1346 C 122.452 0.91747 -1.80075 0
M  V30 1347 C 122.773 1.83929 -0.647692 0
M  V30 1348 O 122.043 1.93029 0.334166 0
M  V30 1349 H 120.623 0.341774 -0.664228 0
M  V30 1350 H 123.285 0.204684 -1.93822 0
M  V30 1351 H 122.381 1.51055 -2.7311 0
M  V30 1352 N 122.682 1.50554 0.465978 0
M  V30 1353 C 123.615 1.64436 1.58227 0
M  V30 1354 C 124.593 0.492367 1.54966 0
M  V30 1355 O 125.777 0.712536 1.74514 0
M  V30 1356 C 122.904 1.63165 2.96808 0
M  V30 1357 C 121.95 2.83987 3.18204 0
M  V30 1358 S 122.783 4.45219 2.97557 0
M  V30 1359 C 123.939 4.46649 4.3847 0
M  V30 1360 H 124.172 2.58861 1.46213 0
M  V30 1361 H 121.705 1.3988 0.653678 0
M  V30 1362 H 123.663 1.63116 3.76701 0
M  V30 1363 H 122.324 0.69967 3.06208 0
M  V30 1364 H 121.517 2.79416 4.19455 0
M  V30 1365 H 121.119 2.81629 2.46092 0
M  V30 1366 H 123.411 4.20526 5.31191 0
M  V30 1367 H 124.354 5.48295 4.48082 0
M  V30 1368 H 124.762 3.76296 4.20787 0
M  V30 1369 N 124.16 -0.719506 1.40217 0
M  V30 1370 C 125.406 -1.48152 1.38488 0
M  V30 1371 C 125.739 -1.94195 -0.0141867 0
M  V30 1372 O 125.014 -1.67884 -0.982096 0
M  V30 1373 C 125.297 -2.71035 2.37091 0
M  V30 1374 C 125.15 -2.30912 3.86005 0
M  V30 1375 C 126.469 -3.73182 2.33288 0
M  V30 1376 H 123.588 -0.537395 0.504357 0
M  V30 1377 H 126.23 -0.821472 1.71324 0
M  V30 1378 H 124.38 -3.27352 2.0922 0
M  V30 1379 H 126.052 -1.80107 4.24687 0
M  V30 1380 H 124.295 -1.62958 4.02029 0
M  V30 1381 H 124.966 -3.18978 4.50508 0
M  V30 1382 H 127.442 -3.26485 2.57966 0
M  V30 1383 H 126.318 -4.56806 3.04334 0
M  V30 1384 H 126.579 -4.21202 1.34317 0
M  V30 1385 N 125.638 -1.25649 -0.95132 0
M  V30 1386 C 126.915 -1.01361 -1.67288 0
M  V30 1387 C 127.295 0.459135 -2.06046 0
M  V30 1388 O 126.643 1.43723 -1.7764 0
M  V30 1389 C 126.853 -1.95256 -2.89268 0
M  V30 1390 C 128.201 -2.23289 -3.61147 0
M  V30 1391 O 129.225 -1.93041 -2.99355 0
M  V30 1392 O 128.084 -2.74741 -4.72419 0
M  V30 1393 H 125.178 -0.38464 -0.732107 0
M  V30 1394 H 127.724 -1.36817 -1.00395 0
M  V30 1395 H 126.496 -2.94685 -2.57442 0
M  V30 1396 H 126.119 -1.60218 -3.6389 0
M  V30 1397 N 127.117 1.15442 -1.07289 0
M  V30 1398 C 128.365 1.85845 -0.794096 0
M  V30 1399 C 128.686 1.82692 0.681809 0
M  V30 1400 O 127.956 1.26741 1.49377 0
M  V30 1401 H 126.536 0.688089 -0.290763 0
M  V30 1402 H 129.198 1.39947 -1.3565 0
M  V30 1403 H 128.294 2.91001 -1.12804 0
M  V30 1404 N 128.595 0.856903 1.32268 0
M  V30 1405 C 129.844 0.457599 1.96441 0
M  V30 1406 C 130.157 -0.992426 1.68553 0
M  V30 1407 O 131.363 -1.49727 2.26482 0
M  V30 1408 C 129.819 0.767358 3.51624 0
M  V30 1409 C 129.427 2.23326 3.88367 0
M  V30 1410 C 131.171 0.435887 4.22256 0
M  V30 1411 C 129.078 2.48613 5.36606 0
M  V30 1412 H 128.008 0.167387 0.735185 0
M  V30 1413 H 130.659 1.048 1.5063 0
M  V30 1414 H 129.041 0.106367 3.95857 0
M  V30 1415 H 130.215 2.93623 3.55137 0
M  V30 1416 H 128.53 2.52948 3.30766 0
M  V30 1417 H 131.127 0.602202 5.31298 0
M  V30 1418 H 131.47 -0.622672 4.11617 0
M  V30 1419 H 132.003 1.05286 3.83614 0
M  V30 1420 H 128.742 3.53101 5.52268 0
M  V30 1421 H 128.262 1.82896 5.71235 0
M  V30 1422 H 129.941 2.32676 6.03714 0
M  V30 1423 N 130.073 -1.45103 0.615059 0
M  V30 1424 C 131.003 -2.33339 -0.0865619 0
M  V30 1425 C 131.984 -1.4727 -0.851209 0
M  V30 1426 O 133.169 -1.76026 -0.820281 0
M  V30 1427 C 130.299 -3.30095 -1.07956 0
M  V30 1428 C 129.253 -4.25858 -0.427628 0
M  V30 1429 C 128.579 -5.12361 -1.5294 0
M  V30 1430 C 129.879 -5.18165 0.655944 0
M  V30 1431 H 131.573 -2.92254 0.650224 0
M  V30 1432 H 129.119 -1.40532 0.314138 0
M  V30 1433 H 131.072 -3.90698 -1.57901 0
M  V30 1434 H 129.796 -2.69355 -1.84703 0
M  V30 1435 H 128.455 -3.66564 0.0510292 0
M  V30 1436 H 128.103 -4.47984 -2.28734 0
M  V30 1437 H 127.803 -5.77238 -1.09865 0
M  V30 1438 H 129.327 -5.75833 -2.03098 0
M  V30 1439 H 130.741 -5.72796 0.240257 0
M  V30 1440 H 129.138 -5.91559 1.00888 0
M  V30 1441 H 130.208 -4.60144 1.52957 0
M  V30 1442 N 131.551 -0.354651 -1.53558 0
M  V30 1443 C 132.498 0.496968 -2.25386 0
M  V30 1444 C 133.468 1.0865 -1.25636 0
M  V30 1445 O 134.653 1.12104 -1.54394 0
M  V30 1446 C 131.793 1.63637 -3.03837 0
M  V30 1447 C 130.906 1.07307 -4.18461 0
M  V30 1448 C 130.041 2.18068 -4.84376 0
M  V30 1449 C 129.08 1.59147 -5.91049 0
M  V30 1450 N 128.217 2.63695 -6.50699 0
M  V30 1451 H 133.057 -0.122075 -2.9775 0
M  V30 1452 H 130.594 -0.0720154 -1.46924 0
M  V30 1453 H 132.552 2.30734 -3.47589 0
M  V30 1454 H 131.182 2.22623 -2.33749 0
M  V30 1455 H 130.234 0.292708 -3.79272 0
M  V30 1456 H 131.546 0.602193 -4.95152 0
M  V30 1457 H 130.7 2.93007 -5.31255 0
M  V30 1458 H 129.439 2.68504 -4.07133 0
M  V30 1459 H 128.444 0.827175 -5.43542 0
M  V30 1460 H 129.669 1.09549 -6.70206 0
M  V30 1461 H 127.615 3.13365 -5.76315 0
M  V30 1462 H 127.532 2.21263 -7.22896 0
M  V30 1463 H 128.8 3.3837 -7.02229 0
M  V30 1464 N 133.029 1.57378 -0.0835403 0
M  V30 1465 C 133.959 2.1641 0.87686 0
M  V30 1466 C 134.94 1.09429 1.30228 0
M  V30 1467 O 136.125 1.37516 1.37124 0
M  V30 1468 C 133.255 2.73517 2.14022 0
M  V30 1469 C 132.209 3.85769 1.85381 0
M  V30 1470 C 131.535 4.29529 3.18448 0
M  V30 1471 C 132.835 5.09486 1.14984 0
M  V30 1472 H 134.529 2.96914 0.385059 0
M  V30 1473 H 132.075 1.42823 0.18377 0
M  V30 1474 H 134.028 3.13463 2.81636 0
M  V30 1475 H 132.752 1.90252 2.65465 0
M  V30 1476 H 131.411 3.46345 1.20169 0
M  V30 1477 H 131.059 3.43169 3.67755 0
M  V30 1478 H 130.759 5.05204 3.00071 0
M  V30 1479 H 132.283 4.72099 3.8724 0
M  V30 1480 H 133.697 5.46674 1.72687 0
M  V30 1481 H 132.094 5.90515 1.06826 0
M  V30 1482 H 133.164 4.84724 0.130749 0
M  V30 1483 N 134.507 -0.190092 1.56449 0
M  V30 1484 C 135.756 -0.907912 1.80111 0
M  V30 1485 C 136.069 -1.84214 0.657619 0
M  V30 1486 O 137.275 -2.60094 0.778663 0
M  V30 1487 C 135.731 -1.66485 3.19078 0
M  V30 1488 C 135.339 -0.7752 4.41242 0
M  V30 1489 C 137.083 -2.37201 3.52045 0
M  V30 1490 C 134.99 -1.53129 5.71231 0
M  V30 1491 H 133.92 -0.34276 0.671589 0
M  V30 1492 H 136.571 -0.161109 1.82791 0
M  V30 1493 H 134.953 -2.45572 3.10661 0
M  V30 1494 H 136.127 -0.0226298 4.60794 0
M  V30 1495 H 134.442 -0.178627 4.16017 0
M  V30 1496 H 137.039 -2.94329 4.46402 0
M  V30 1497 H 137.382 -3.11632 2.76028 0
M  V30 1498 H 137.915 -1.65075 3.61932 0
M  V30 1499 H 134.654 -0.82967 6.50228 0
M  V30 1500 H 134.174 -2.25767 5.55688 0
M  V30 1501 H 135.853 -2.08377 6.12526 0
M  V30 1502 N 135.985 -1.50799 -0.457987 0
M  V30 1503 C 137.396 -1.55152 -1.0385 0
M  V30 1504 C 137.747 -0.362719 -1.92818 0
M  V30 1505 O 136.872 0.522915 -2.09987 0
M  V30 1506 C 137.467 -2.81173 -1.89017 0
M  V30 1507 C 136.026 -2.88164 -2.42154 0
M  V30 1508 C 135.173 -2.49591 -1.20829 0
M  V30 1509 H 138.124 -1.56874 -0.240068 0
M  V30 1510 H 138.145 -2.63769 -2.74238 0
M  V30 1511 H 137.657 -3.67677 -1.24238 0
M  V30 1512 H 135.758 -2.06042 -3.10447 0
M  V30 1513 H 135.871 -3.91356 -2.76364 0
M  V30 1514 H 134.235 -2.02322 -1.54719 0
M  V30 1515 H 135.018 -3.38418 -0.576927 0
M  V30 1516 N 137.463 0.71206 -1.40597 0
M  V30 1517 C 138.426 1.80785 -1.40888 0
M  V30 1518 C 139.426 1.57937 -0.302103 0
M  V30 1519 O 140.616 1.64913 -0.561182 0
M  V30 1520 C 137.748 3.18927 -1.20409 0
M  V30 1521 H 138.941 1.81924 -2.38419 0
M  V30 1522 H 136.494 0.91805 -1.26497 0
M  V30 1523 H 137.229 3.23436 -0.236522 0
M  V30 1524 H 137.014 3.36911 -2.00582 0
M  V30 1525 H 138.504 3.98949 -1.23408 0
M  V30 1526 N 138.941 1.26152 0.944643 0
M  V30 1527 C 139.904 1.07474 2.0244 0
M  V30 1528 C 140.904 0.0242064 1.60782 0
M  V30 1529 O 142.094 0.267302 1.72137 0
M  V30 1530 C 139.226 0.633956 3.34953 0
M  V30 1531 H 140.419 2.03336 2.20442 0
M  V30 1532 H 137.972 1.087 1.12312 0
M  V30 1533 H 138.707 -0.326811 3.22649 0
M  V30 1534 H 138.492 1.39247 3.66542 0
M  V30 1535 H 139.982 0.52501 4.14287 0
M  V30 1536 N 140.419 -1.14872 1.07899 0
M  V30 1537 C 141.366 -2.19791 0.704319 0
M  V30 1538 C 142.336 -1.63238 -0.306987 0
M  V30 1539 O 143.521 -1.8983 -0.192171 0
M  V30 1540 C 140.661 -3.44911 0.114244 0
M  V30 1541 C 139.774 -4.15637 1.1777 0
M  V30 1542 C 138.909 -5.28324 0.552037 0
M  V30 1543 C 137.948 -5.90875 1.59789 0
M  V30 1544 N 137.085 -6.95022 0.994404 0
M  V30 1545 H 141.925 -2.5119 1.60336 0
M  V30 1546 H 139.462 -1.23356 0.801352 0
M  V30 1547 H 141.42 -4.16477 -0.245544 0
M  V30 1548 H 140.05 -3.14011 -0.74813 0
M  V30 1549 H 139.102 -3.42512 1.65499 0
M  V30 1550 H 140.414 -4.5823 1.97046 0
M  V30 1551 H 139.568 -6.06538 0.1402 0
M  V30 1552 H 138.307 -4.86939 -0.272431 0
M  V30 1553 H 137.312 -5.11369 2.01945 0
M  V30 1554 H 138.537 -6.34337 2.42474 0
M  V30 1555 H 136.483 -6.55722 0.190939 0
M  V30 1556 H 136.4 -7.36073 1.72432 0
M  V30 1557 H 137.668 -7.77123 0.608253 0
M  V30 1558 N 141.898 -0.863906 -1.31812 0
M  V30 1559 C 143.144 -0.472535 -1.97218 0
M  V30 1560 C 143.477 0.971394 -1.68159 0
M  V30 1561 O 142.752 1.68309 -0.974798 0
M  V30 1562 C 143.035 -0.723054 -3.52766 0
M  V30 1563 C 142.888 -2.21608 -3.91421 0
M  V30 1564 C 144.207 -0.185522 -4.39709 0
M  V30 1565 H 141.326 -0.173158 -0.71637 0
M  V30 1566 H 143.968 -1.08403 -1.56041 0
M  V30 1567 H 142.118 -0.202577 -3.87971 0
M  V30 1568 H 143.79 -2.80334 -3.66347 0
M  V30 1569 H 142.033 -2.691 -3.40246 0
M  V30 1570 H 142.704 -2.34203 -4.99853 0
M  V30 1571 H 145.18 -0.630726 -4.11292 0
M  V30 1572 H 144.056 -0.390306 -5.47511 0
M  V30 1573 H 144.317 0.912229 -4.32586 0
M  V30 1574 N 143.376 1.44774 -0.622745 0
M  V30 1575 C 144.624 2.01721 -0.123655 0
M  V30 1576 C 144.945 1.49172 1.25589 0
M  V30 1577 O 144.215 0.691974 1.83272 0
M  V30 1578 H 142.795 0.745777 -0.0427225 0
M  V30 1579 H 145.457 1.77382 -0.807559 0
M  V30 1580 H 144.553 3.11984 -0.0849534 0
M  V30 1581 N 144.854 0.36279 1.53368 0
M  V30 1582 C 145.804 -0.501391 2.22419 0
M  V30 1583 C 146.788 -1.0509 1.2184 0
M  V30 1584 O 147.98 -0.981404 1.47301 0
M  V30 1585 C 145.109 -1.64201 3.01484 0
M  V30 1586 C 144.195 -1.10552 4.09438 0
M  V30 1587 N 144.586 -0.291788 5.04958 0
M  V30 1588 C 142.884 -1.3806 4.24094 0
M  V30 1589 C 143.585 0.00162655 5.817 0
M  V30 1590 N 142.561 -0.595244 5.40331 0
M  V30 1591 H 146.363 0.127159 2.93625 0
M  V30 1592 H 143.877 0.170658 1.61501 0
M  V30 1593 H 145.874 -2.27326 3.49469 0
M  V30 1594 H 144.534 -2.27365 2.31809 0
M  V30 1595 H 145.545 0.0687731 5.17854 0
M  V30 1596 H 142.222 -2.01522 3.65644 0
M  V30 1597 H 143.612 0.659278 6.68658 0
M  V30 1598 N 146.332 -1.57332 0.0918853 0
M  V30 1599 C 147.581 -1.93412 -0.572249 0
M  V30 1600 C 147.894 -0.975515 -1.69538 0
M  V30 1601 O 149.1 -1.22991 -2.42045 0
M  V30 1602 C 147.556 -3.43648 -1.0693 0
M  V30 1603 C 147.164 -4.47994 0.0239049 0
M  V30 1604 C 148.908 -3.88695 -1.70635 0
M  V30 1605 C 146.815 -5.89381 -0.488319 0
M  V30 1606 H 145.745 -0.721939 -0.217532 0
M  V30 1607 H 148.396 -1.82735 0.167369 0
M  V30 1608 H 146.778 -3.49466 -1.8625 0
M  V30 1609 H 147.952 -4.53815 0.799277 0
M  V30 1610 H 146.267 -4.12536 0.565946 0
M  V30 1611 H 148.864 -4.91725 -2.10025 0
M  V30 1612 H 149.207 -3.27166 -2.57426 0
M  V30 1613 H 149.74 -3.85564 -0.979023 0
M  V30 1614 H 146.479 -6.54602 0.342906 0
M  V30 1615 H 145.999 -5.87037 -1.23077 0
M  V30 1616 H 147.678 -6.39863 -0.958317 0
M  V30 1617 N 147.81 0.181792 -1.56548 0
M  V30 1618 C 149.058 0.89832 -1.81038 0
M  V30 1619 C 149.379 1.83232 -0.667164 0
M  V30 1620 O 148.649 1.93372 0.313673 0
M  V30 1621 H 147.229 0.33471 -0.667816 0
M  V30 1622 H 149.891 0.184116 -1.94028 0
M  V30 1623 H 148.987 1.4815 -2.74696 0
M  V30 1624 N 149.288 1.51039 0.449983 0
M  V30 1625 C 150.218 1.74379 1.55288 0
M  V30 1626 C 151.199 0.593236 1.5942 0
M  V30 1627 O 152.384 0.834625 1.7535 0
M  V30 1628 C 149.514 1.85728 2.93466 0
M  V30 1629 C 148.468 3.01078 3.04197 0
M  V30 1630 C 147.794 2.97595 4.44231 0
M  V30 1631 C 149.094 4.41254 2.7945 0
M  V30 1632 H 150.788 2.66725 1.36008 0
M  V30 1633 H 148.334 1.2835 0.652864 0
M  V30 1634 H 150.287 2.0064 3.70569 0
M  V30 1635 H 149.011 0.900207 3.13949 0
M  V30 1636 H 147.67 2.85851 2.29531 0
M  V30 1637 H 147.318 1.99691 4.61663 0
M  V30 1638 H 147.018 3.75046 4.52343 0
M  V30 1639 H 148.542 3.14583 5.23326 0
M  V30 1640 H 149.956 4.56897 3.46292 0
M  V30 1641 H 148.353 5.20315 2.98985 0
M  V30 1642 H 149.423 4.52164 1.75144 0
M  V30 1643 N 150.766 -0.704594 1.40972 0
M  V30 1644 C 151.996 -1.49138 1.42974 0
M  V30 1645 C 152.404 -1.89175 0.0308406 0
M  V30 1646 O 151.747 -1.56734 -0.958138 0
M  V30 1647 C 151.809 -2.79016 2.26694 0
M  V30 1648 C 151.473 -2.61236 3.74973 0
M  V30 1649 C 152.47 -2.27773 4.67349 0
M  V30 1650 C 150.155 -2.77158 4.18914 0
M  V30 1651 C 152.149 -2.10457 6.01653 0
M  V30 1652 C 149.836 -2.59459 5.53285 0
M  V30 1653 C 150.834 -2.26158 6.4447 0
M  V30 1654 O 150.522 -2.08605 7.76363 0
M  V30 1655 H 150.254 -0.466443 0.489292 0
M  V30 1656 H 152.808 -0.8758 1.85793 0
M  V30 1657 H 151.038 -3.42947 1.78673 0
M  V30 1658 H 152.727 -3.40782 2.20504 0
M  V30 1659 H 153.493 -2.15095 4.34694 0
M  V30 1660 H 149.372 -3.02064 3.48251 0
M  V30 1661 H 152.916 -1.84387 6.72791 0
M  V30 1662 H 148.813 -2.71725 5.85522 0
M  V30 1663 H 149.581 -2.23439 7.87412 0
M  V30 1664 N 152.244 -1.26651 -0.937939 0
M  V30 1665 C 153.66 -1.03834 -1.21205 0
M  V30 1666 C 153.86 0.234502 -2.00131 0
M  V30 1667 O 152.916 0.942767 -2.3424 0
M  V30 1668 C 154.229 -2.27167 -1.97017 0
M  V30 1669 C 155.777 -2.32101 -2.09996 0
M  V30 1670 C 156.252 -3.55136 -2.8921 0
M  V30 1671 N 157.743 -3.55632 -2.96783 0
M  V30 1672 C 158.478 -4.475 -3.58512 0
M  V30 1673 N 157.974 -5.4966 -4.21717 0
M  V30 1674 N 159.767 -4.35145 -3.55816 0
M  V30 1675 H 151.918 -2.08398 -0.410391 0
M  V30 1676 H 154.181 -0.916031 -0.244114 0
M  V30 1677 H 153.887 -3.19765 -1.46434 0
M  V30 1678 H 153.761 -2.31672 -2.97671 0
M  V30 1679 H 156.148 -1.40015 -2.59769 0
M  V30 1680 H 156.229 -2.31605 -1.08594 0
M  V30 1681 H 155.873 -4.47553 -2.40123 0
M  V30 1682 H 155.803 -3.5288 -3.90875 0
M  V30 1683 H 158.294 -2.81743 -2.51852 0
M  V30 1684 H 158.607 -6.15943 -4.66727 0
M  V30 1685 H 156.952 -5.53514 -4.20294 0
M  V30 1686 H 160.143 -3.5455 -3.05634 0
M  V30 1687 H 160.316 -5.06934 -4.03636 0
M  V30 1688 N 153.722 1.14298 -1.08507 0
M  V30 1689 C 154.999 1.81544 -0.728088 0
M  V30 1690 C 155.379 1.95838 0.78808 0
M  V30 1691 O 154.727 1.51904 1.70697 0
M  V30 1692 C 154.937 3.17169 -1.45619 0
M  V30 1693 C 156.285 3.9265 -1.61591 0
M  V30 1694 O 157.309 3.26762 -1.41793 0
M  V30 1695 O 156.168 5.10807 -1.94263 0
M  V30 1696 H 153.262 0.78491 -0.260471 0
M  V30 1697 H 155.808 1.21307 -1.18671 0
M  V30 1698 H 154.58 3.01934 -2.489 0
M  V30 1699 H 154.203 3.851 -0.989124 0
M  V30 1700 N 155.201 0.870884 1.31352 0
M  V30 1701 C 156.612 0.534714 1.78879 0
M  V30 1702 C 156.963 -0.948423 1.71754 0
M  V30 1703 O 156.088 -1.74055 1.28584 0
M  V30 1704 C 156.683 0.963839 3.24801 0
M  V30 1705 C 155.242 0.679311 3.70219 0
M  V30 1706 C 154.389 1.15465 2.52117 0
M  V30 1707 H 157.34 1.05651 1.18421 0
M  V30 1708 H 157.361 0.286892 3.79417 0
M  V30 1709 H 156.873 2.04332 3.29955 0
M  V30 1710 H 154.974 -0.388769 3.70566 0
M  V30 1711 H 155.087 1.25698 4.62317 0
M  V30 1712 H 153.451 0.574383 2.48139 0
M  V30 1713 H 154.234 2.24157 2.60016 0
M  V30 1714 N 156.679 -1.44442 0.630414 0
M  V30 1715 C 157.611 -2.2892 -0.113347 0
M  V30 1716 C 158.624 -1.41243 -0.80959 0
M  V30 1717 O 159.813 -1.65402 -0.671156 0
M  V30 1718 C 156.913 -3.17594 -1.18266 0
M  V30 1719 C 156.086 -4.33682 -0.569073 0
M  V30 1720 C 155.145 -5.03397 -1.53226 0
M  V30 1721 O 154.171 -5.59438 -1.04967 0
M  V30 1722 N 155.373 -5.04783 -2.86661 0
M  V30 1723 H 158.138 -2.93392 0.611636 0
M  V30 1724 H 155.699 -1.54881 0.471523 0
M  V30 1725 H 157.691 -3.61097 -1.82732 0
M  V30 1726 H 156.261 -2.54876 -1.80988 0
M  V30 1727 H 155.481 -3.9338 0.254187 0
M  V30 1728 H 156.769 -5.08608 -0.139767 0
M  V30 1729 H 156.167 -4.60584 -3.28449 0
M  V30 1730 H 154.724 -5.52077 -3.46489 0
M  V30 1731 N 158.157 -0.370918 -1.53173 0
M  V30 1732 C 159.385 0.217704 -2.05751 0
M  V30 1733 C 159.8 1.42018 -1.24404 0
M  V30 1734 O 159.157 1.80245 -0.286033 0
M  V30 1735 C 159.208 0.605954 -3.56385 0
M  V30 1736 O 158.929 -0.548734 -4.3465 0
M  V30 1737 C 160.43 1.2524 -4.25241 0
M  V30 1738 H 157.65 0.0371659 -0.66997 0
M  V30 1739 H 160.194 -0.530832 -1.9749 0
M  V30 1740 H 158.349 1.3044 -3.6478 0
M  V30 1741 H 158.763 -0.23376 -5.23979 0
M  V30 1742 H 160.237 1.47458 -5.3194 0
M  V30 1743 H 160.714 2.2143 -3.79296 0
M  V30 1744 H 161.32 0.595233 -4.21114 0
M  V30 1745 N 159.635 1.57281 -0.100228 0
M  V30 1746 C 160.565 2.17328 0.853857 0
M  V30 1747 C 161.546 1.10804 1.2906 0
M  V30 1748 O 162.731 1.38963 1.35657 0
M  V30 1749 C 159.861 2.75772 2.11109 0
M  V30 1750 C 158.815 3.87713 1.81279 0
M  V30 1751 C 158.141 4.32882 3.13874 0
M  V30 1752 C 159.441 5.10677 1.09574 0
M  V30 1753 H 161.135 2.97305 0.353545 0
M  V30 1754 H 158.681 1.43009 0.168612 0
M  V30 1755 H 160.634 3.16433 2.78296 0
M  V30 1756 H 159.358 1.93057 2.63432 0
M  V30 1757 H 158.017 3.476 1.16489 0
M  V30 1758 H 157.665 3.47051 3.64095 0
M  V30 1759 H 157.365 5.08358 2.94696 0
M  V30 1760 H 158.889 4.7618 3.82211 0
M  V30 1761 H 160.303 5.48474 1.66879 0
M  V30 1762 H 158.7 5.91615 1.00557 0
M  V30 1763 H 159.77 4.84835 0.0793299 0
M  V30 1764 N 161.113 -0.173488 1.56642 0
M  V30 1765 C 162.06 -1.21482 1.96242 0
M  V30 1766 C 163.03 -1.44104 0.826027 0
M  V30 1767 O 164.215 -1.5688 1.08597 0
M  V30 1768 C 161.355 -2.54964 2.32567 0
M  V30 1769 C 160.468 -2.39739 3.59373 0
M  V30 1770 C 159.603 -3.66072 3.84921 0
M  V30 1771 C 158.642 -3.45771 5.05083 0
M  V30 1772 N 157.779 -4.64169 5.26775 0
M  V30 1773 H 162.619 -0.870123 2.85014 0
M  V30 1774 H 160.156 -0.418245 1.41029 0
M  V30 1775 H 162.114 -3.32758 2.5165 0
M  V30 1776 H 160.744 -2.87433 1.46908 0
M  V30 1777 H 159.796 -1.53131 3.48217 0
M  V30 1778 H 161.108 -2.20683 4.47326 0
M  V30 1779 H 160.262 -4.52303 4.0436 0
M  V30 1780 H 159.001 -3.88105 2.9534 0
M  V30 1781 H 158.006 -2.57927 4.85545 0
M  V30 1782 H 159.231 -3.25163 5.96193 0
M  V30 1783 H 157.177 -4.86425 4.40144 0
M  V30 1784 H 157.094 -4.48019 6.08946 0
M  V30 1785 H 158.362 -5.51689 5.5069 0
M  V30 1786 N 162.591 -1.51276 -0.441967 0
M  V30 1787 C 164.002 -1.56244 -1.02199 0
M  V30 1788 C 164.353 -0.383149 -1.92422 0
M  V30 1789 O 163.478 0.500613 -2.1053 0
M  V30 1790 C 164.073 -2.83162 -1.86024 0
M  V30 1791 C 162.632 -2.90716 -2.39084 0
M  V30 1792 C 161.779 -2.50858 -1.18175 0
M  V30 1793 H 164.73 -1.5712 -0.223416 0
M  V30 1794 H 164.751 -2.66663 -2.71425 0
M  V30 1795 H 164.263 -3.68974 -1.20331 0
M  V30 1796 H 162.364 -2.09323 -3.08244 0
M  V30 1797 H 162.477 -3.94266 -2.72198 0
M  V30 1798 H 160.841 -2.03951 -1.52565 0
M  V30 1799 H 161.624 -3.3901 -0.541001 0
M  V30 1800 N 164.069 0.697108 -1.41344 0
M  V30 1801 C 165.315 1.4593 -1.40827 0
M  V30 1802 C 165.648 1.94193 -0.0167098 0
M  V30 1803 O 164.923 1.69425 0.955263 0
M  V30 1804 C 165.206 2.67229 -2.41373 0
M  V30 1805 C 165.059 2.24741 -3.8963 0
M  V30 1806 C 166.378 3.69423 -2.39196 0
M  V30 1807 H 163.497 0.529303 -0.512842 0
M  V30 1808 H 166.139 0.794112 -1.72609 0
M  V30 1809 H 164.289 3.23982 -2.14401 0
M  V30 1810 H 165.961 1.73327 -4.27499 0
M  V30 1811 H 164.204 1.56542 -4.0457 0
M  V30 1812 H 164.875 3.1177 -4.55525 0
M  V30 1813 H 167.351 3.2234 -2.63128 0
M  V30 1814 H 166.227 4.51907 -3.11563 0
M  V30 1815 H 166.488 4.19012 -1.41001 0
M  V30 1816 N 165.547 1.27147 0.931209 0
M  V30 1817 C 166.457 1.11372 2.06478 0
M  V30 1818 C 167.473 0.044645 1.73943 0
M  V30 1819 O 168.649 0.250417 1.99837 0
M  V30 1820 C 165.714 0.758838 3.38294 0
M  V30 1821 C 164.775 1.90841 3.84549 0
M  V30 1822 C 164.008 1.57036 5.10074 0
M  V30 1823 O 164.231 0.476645 5.68405 0
M  V30 1824 O 163.165 2.40839 5.51616 0
M  V30 1825 H 166.991 2.06493 2.22698 0
M  V30 1826 H 164.576 1.06301 1.04978 0
M  V30 1827 H 166.458 0.574098 4.17471 0
M  V30 1828 H 165.133 -0.162879 3.2329 0
M  V30 1829 H 164.04 2.14819 3.06274 0
M  V30 1830 H 165.373 2.81021 4.04089 0
M  V30 1831 N 167.025 -1.13721 1.09112 0
M  V30 1832 C 168.255 -1.88499 0.845671 0
M  V30 1833 C 168.663 -1.79218 -0.606432 0
M  V30 1834 O 168.006 -1.1544 -1.42896 0
M  V30 1835 C 168.068 -3.38954 1.19793 0
M  V30 1836 C 167.732 -3.72018 2.65428 0
M  V30 1837 C 168.729 -3.7153 3.63677 0
M  V30 1838 C 166.414 -4.01775 3.01467 0
M  V30 1839 C 168.408 -4.00336 4.95994 0
M  V30 1840 C 166.095 -4.30243 4.33975 0
M  V30 1841 C 167.093 -4.29508 5.31048 0
M  V30 1842 O 166.781 -4.5728 6.61173 0
M  V30 1843 H 166.513 -0.603702 0.304171 0
M  V30 1844 H 169.067 -1.44903 1.45576 0
M  V30 1845 H 167.297 -3.83039 0.530871 0
M  V30 1846 H 168.986 -3.95052 0.932146 0
M  V30 1847 H 169.752 -3.4862 3.37179 0
M  V30 1848 H 165.631 -4.01496 2.26544 0
M  V30 1849 H 169.175 -3.99678 5.71755 0
M  V30 1850 H 165.072 -4.52625 4.60219 0
M  V30 1851 H 165.84 -4.74964 6.66597 0
M  V30 1852 N 168.503 -0.877838 -1.30888 0
M  V30 1853 C 169.733 -0.506678 -2.00291 0
M  V30 1854 C 170.141 0.907449 -1.66018 0
M  V30 1855 O 169.484 1.60719 -0.88967 0
M  V30 1856 C 169.546 -0.59323 -3.54572 0
M  V30 1857 C 169.21 -1.97038 -4.12341 0
M  V30 1858 C 170.207 -2.93889 -4.28865 0
M  V30 1859 C 167.892 -2.27383 -4.47886 0
M  V30 1860 C 169.886 -4.19224 -4.80136 0
M  V30 1861 C 167.573 -3.52965 -4.98857 0
M  V30 1862 C 168.571 -4.48701 -5.14934 0
M  V30 1863 O 168.259 -5.72056 -5.64808 0
M  V30 1864 H 167.991 -0.1951 -0.647234 0
M  V30 1865 H 170.545 -1.18301 -1.6791 0
M  V30 1866 H 168.775 0.140057 -3.86446 0
M  V30 1867 H 170.464 -0.234372 -4.05223 0
M  V30 1868 H 171.23 -2.71756 -4.01714 0
M  V30 1869 H 167.109 -1.53639 -4.34645 0
M  V30 1870 H 170.653 -4.93956 -4.92599 0
M  V30 1871 H 166.55 -3.74939 -5.25443 0
M  V30 1872 H 167.318 -5.74337 -5.83163 0
M  V30 1873 N 169.982 1.44106 -0.638065 0
M  V30 1874 C 171.228 2.02277 -0.145546 0
M  V30 1875 C 171.561 1.50125 1.23191 0
M  V30 1876 O 170.836 0.688133 1.8192 0
M  V30 1877 C 171.119 3.59829 -0.139791 0
M  V30 1878 C 170.972 4.22247 -1.55008 0
M  V30 1879 C 172.291 4.36873 0.531966 0
M  V30 1880 H 169.41 0.734992 -0.0543632 0
M  V30 1881 H 172.052 1.71592 -0.815863 0
M  V30 1882 H 170.202 3.86102 0.431007 0
M  V30 1883 H 171.874 4.07057 -2.1703 0
M  V30 1884 H 170.117 3.79476 -2.10191 0
M  V30 1885 H 170.788 5.31284 -1.49804 0
M  V30 1886 H 173.264 4.16074 0.0464781 0
M  V30 1887 H 172.14 5.4657 0.505206 0
M  V30 1888 H 172.401 4.11995 1.60352 0
M  V30 1889 N 171.46 0.379036 1.52974 0
M  V30 1890 C 172.407 -0.461048 2.26148 0
M  V30 1891 C 173.377 -1.06637 1.27349 0
M  V30 1892 O 174.562 -1.09633 1.56157 0
M  V30 1893 C 171.702 -1.58782 3.06402 0
M  V30 1894 C 170.815 -1.00636 4.20115 0
M  V30 1895 C 169.95 -2.10334 4.87784 0
M  V30 1896 C 168.989 -1.49724 5.93506 0
M  V30 1897 N 168.126 -2.5331 6.54812 0
M  V30 1898 H 172.966 0.169429 2.97518 0
M  V30 1899 H 170.503 0.0953806 1.4679 0
M  V30 1900 H 172.461 -2.25174 3.51215 0
M  V30 1901 H 171.091 -2.18876 2.37261 0
M  V30 1902 H 170.143 -0.232332 3.7969 0
M  V30 1903 H 171.455 -0.523343 4.96047 0
M  V30 1904 H 170.609 -2.84519 5.35849 0
M  V30 1905 H 169.348 -2.61992 4.11353 0
M  V30 1906 H 168.353 -0.740598 5.44789 0
M  V30 1907 H 169.578 -0.988732 6.71864 0
M  V30 1908 H 167.524 -3.04156 5.81227 0
M  V30 1909 H 167.441 -2.09734 7.26325 0
M  V30 1910 H 168.709 -3.27155 7.07524 0
M  V30 1911 N 172.938 -1.57226 0.108567 0
M  V30 1912 C 173.868 -2.17778 -0.84232 0
M  V30 1913 C 174.849 -1.11487 -1.2847 0
M  V30 1914 O 176.034 -1.39681 -1.34918 0
M  V30 1915 C 173.164 -2.76888 -2.09644 0
M  V30 1916 C 172.118 -3.88669 -1.79221 0
M  V30 1917 C 171.444 -4.34541 -3.11574 0
M  V30 1918 C 172.744 -5.11251 -1.06864 0
M  V30 1919 H 174.438 -2.97489 -0.337774 0
M  V30 1920 H 171.984 -1.43097 -0.161025 0
M  V30 1921 H 173.937 -3.17904 -2.76614 0
M  V30 1922 H 172.661 -1.94451 -2.62405 0
M  V30 1923 H 171.32 -3.48213 -1.14644 0
M  V30 1924 H 170.968 -3.48977 -3.62249 0
M  V30 1925 H 170.668 -5.09914 -2.91996 0
M  V30 1926 H 172.192 -4.782 -3.7968 0
M  V30 1927 H 173.606 -5.49352 -1.63968 0
M  V30 1928 H 172.003 -5.9214 -0.974178 0
M  V30 1929 H 173.073 -4.8487 -0.0536168 0
M  V30 1930 N 174.416 0.165178 -1.56732 0
M  V30 1931 C 175.827 0.727046 -1.71962 0
M  V30 1932 C 176.178 1.82508 -0.720078 0
M  V30 1933 O 175.303 2.16082 0.117242 0
M  V30 1934 C 175.898 1.32559 -3.11791 0
M  V30 1935 C 174.457 1.83422 -3.28684 0
M  V30 1936 C 173.604 0.715567 -2.67908 0
M  V30 1937 H 176.555 -0.0602896 -1.58585 0
M  V30 1938 H 176.576 2.19533 -3.10782 0
M  V30 1939 H 176.088 0.526195 -3.84516 0
M  V30 1940 H 174.189 2.65986 -2.60926 0
M  V30 1941 H 174.302 1.97543 -4.36478 0
M  V30 1942 H 172.666 1.13758 -2.27884 0
M  V30 1943 H 173.449 -0.0720836 -3.43224 0
M  V30 1944 N 175.894 1.51508 0.433938 0
M  V30 1945 C 177.119 1.68443 1.21003 0
M  V30 1946 C 177.544 0.382636 1.84167 0
M  V30 1947 O 176.902 -0.65755 1.68956 0
M  V30 1948 C 176.95 2.80405 2.26727 0
M  V30 1949 O 176.054 2.44245 3.32292 0
M  V30 1950 H 175.395 0.561536 0.354363 0
M  V30 1951 H 177.925 1.9809 0.512024 0
M  V30 1952 H 177.935 3.0459 2.71457 0
M  V30 1953 H 176.61 3.74867 1.80132 0
M  V30 1954 H 175.187 2.30644 2.93015 0
M  V30 1955 N 177.372 -0.689602 1.41712 0
M  V30 1956 C 178.649 -1.44457 1.31877 0
M  V30 1957 C 179.029 -2.11039 -0.0508537 0
M  V30 1958 O 178.377 -2.02138 -1.06547 0
M  V30 1959 C 178.587 -2.45913 2.47645 0
M  V30 1960 C 179.935 -3.10991 2.89084 0
M  V30 1961 O 180.959 -2.56238 2.47428 0
M  V30 1962 O 179.818 -4.10174 3.61137 0
M  V30 1963 H 176.912 -0.64362 0.519309 0
M  V30 1964 H 179.458 -0.719576 1.53689 0
M  V30 1965 H 178.23 -1.95409 3.39015 0
M  V30 1966 H 177.853 -3.25913 2.27742 0
M  V30 1967 N 178.85 -1.27639 -0.924453 0
M  V30 1968 C 180.096 -1.14336 -1.67497 0
M  V30 1969 C 180.429 0.309465 -1.91718 0
M  V30 1970 O 179.704 1.22608 -1.50989 0
M  V30 1971 C 179.987 -1.93096 -3.0395 0
M  V30 1972 C 179.84 -3.46381 -2.8695 0
M  V30 1973 C 181.159 -1.73798 -4.0433 0
M  V30 1974 H 178.278 -0.416728 -0.607871 0
M  V30 1975 H 180.92 -1.56832 -1.07256 0
M  V30 1976 H 179.07 -1.56982 -3.55372 0
M  V30 1977 H 180.742 -3.92343 -2.42621 0
M  V30 1978 H 178.985 -3.72557 -2.22225 0
M  V30 1979 H 179.656 -3.96735 -3.83804 0
M  V30 1980 H 182.132 -2.05293 -3.61931 0
M  V30 1981 H 181.008 -2.31294 -4.97789 0
M  V30 1982 H 181.269 -0.686725 -4.36734 0
M  V30 1983 N 180.328 1.1314 -1.09713 0
M  V30 1984 C 181.238 2.22242 -0.751367 0
M  V30 1985 C 182.254 1.72224 0.247938 0
M  V30 1986 O 183.43 2.01205 0.0885463 0
M  V30 1987 C 180.495 3.46231 -0.180274 0
M  V30 1988 C 179.556 4.11125 -1.2359 0
M  V30 1989 C 178.789 5.29195 -0.691966 0
M  V30 1990 O 179.012 5.68342 0.48414 0
M  V30 1991 O 177.946 5.84214 -1.44838 0
M  V30 1992 H 181.772 2.54197 -1.66186 0
M  V30 1993 H 179.357 1.21331 -0.871735 0
M  V30 1994 H 181.239 4.21185 0.134739 0
M  V30 1995 H 179.914 3.1597 0.703185 0
M  V30 1996 H 178.821 3.37985 -1.60366 0
M  V30 1997 H 180.154 4.45524 -2.09211 0
M  V30 1998 N 181.806 0.884767 1.30421 0
M  V30 1999 C 182.716 0.355398 2.31892 0
M  V30 2000 C 183.732 -0.542261 1.65335 0
M  V30 2001 O 184.908 -0.435432 1.96637 0
M  V30 2002 C 181.973 -0.421661 3.44126 0
M  V30 2003 C 181.034 0.505727 4.26311 0
M  V30 2004 C 180.267 -0.234343 5.33185 0
M  V30 2005 O 180.49 -1.46045 5.51386 0
M  V30 2006 O 179.424 0.415443 6.00465 0
M  V30 2007 H 183.25 1.19685 2.79122 0
M  V30 2008 H 180.835 0.648596 1.34587 0
M  V30 2009 H 182.717 -0.861641 4.12497 0
M  V30 2010 H 181.392 -1.23942 2.99032 0
M  V30 2011 H 180.299 0.994513 3.60639 0
M  V30 2012 H 181.632 1.28948 4.75009 0
M  V30 2013 N 183.284 -1.43765 0.645699 0
M  V30 2014 C 184.7 -1.56509 0.312591 0
M  V30 2015 C 184.9 -1.6307 -1.18365 0
M  V30 2016 O 183.956 -1.58167 -1.96824 0
M  V30 2017 C 185.269 -2.82968 1.01733 0
M  V30 2018 C 186.817 -2.96701 0.996865 0
M  V30 2019 C 187.292 -4.25982 1.68236 0
M  V30 2020 N 188.783 -4.32829 1.64964 0
M  V30 2021 C 189.518 -5.31613 2.14885 0
M  V30 2022 N 189.014 -6.36718 2.73061 0
M  V30 2023 N 190.807 -5.23217 2.05428 0
M  V30 2024 H 182.958 -1.3775 1.61675 0
M  V30 2025 H 185.221 -0.661067 0.679481 0
M  V30 2026 H 184.927 -2.84156 2.0724 0
M  V30 2027 H 184.801 -3.72957 0.564177 0
M  V30 2028 H 187.188 -2.95058 -0.0497719 0
M  V30 2029 H 187.269 -2.08022 1.48865 0
M  V30 2030 H 186.913 -4.28386 2.72852 0
M  V30 2031 H 186.843 -5.13545 1.16529 0
M  V30 2032 H 189.334 -3.57493 1.22503 0
M  V30 2033 H 189.647 -7.08401 3.08848 0
M  V30 2034 H 187.992 -6.37362 2.77118 0
M  V30 2035 H 191.183 -4.40019 1.59689 0
M  V30 2036 H 191.356 -6.00045 2.44643 0
M  V30 2037 N 184.763 -0.387143 -1.52771 0
M  V30 2038 C 186.04 0.253197 -1.93954 0
M  V30 2039 C 186.42 1.64545 -1.32243 0
M  V30 2040 O 185.768 2.23191 -0.489699 0
M  V30 2041 C 185.978 0.281722 -3.47861 0
M  V30 2042 C 187.326 0.511715 -4.21505 0
M  V30 2043 O 188.35 0.362023 -3.54356 0
M  V30 2044 O 187.209 0.804847 -5.40541 0
M  V30 2045 H 184.303 0.156845 -0.811991 0
M  V30 2046 H 186.849 -0.441494 -1.63856 0
M  V30 2047 H 185.621 -0.693571 -3.85104 0
M  V30 2048 H 185.244 1.02142 -3.84256 0
M  V30 2049 N 186.241 1.57166 -0.116904 0
M  V30 2050 C 187.488 1.95123 0.541603 0
M  V30 2051 C 187.816 1.00006 1.6682 0
M  V30 2052 O 187.071 0.0235658 1.95686 0
M  V30 2053 C 187.37 3.39508 1.11664 0
M  V30 2054 C 187.036 4.50762 0.111606 0
M  V30 2055 C 185.698 4.80918 -0.164758 0
M  V30 2056 C 188.05 5.18036 -0.573438 0
M  V30 2057 C 185.378 5.75666 -1.13249 0
M  V30 2058 C 187.73 6.13824 -1.52978 0
M  V30 2059 C 186.394 6.42374 -1.81415 0
M  V30 2060 H 185.664 0.714005 0.198187 0
M  V30 2061 H 188.311 1.9048 -0.197365 0
M  V30 2062 H 186.616 3.40835 1.93232 0
M  V30 2063 H 188.313 3.66189 1.63422 0
M  V30 2064 H 184.903 4.27272 0.337192 0
M  V30 2065 H 189.087 4.94896 -0.373092 0
M  V30 2066 H 184.343 5.96092 -1.35958 0
M  V30 2067 H 188.517 6.65039 -2.06629 0
M  V30 2068 H 186.144 7.15599 -2.56557 0
M  V30 2069 N 187.719 -0.156864 1.56817 0
M  V30 2070 C 188.968 -0.869504 1.81996 0
M  V30 2071 C 189.281 -1.82777 0.696545 0
M  V30 2072 O 190.487 -2.58384 0.833658 0
M  V30 2073 C 188.943 -1.59679 3.22538 0
M  V30 2074 C 188.551 -0.681431 4.42787 0
M  V30 2075 C 190.295 -2.2968 3.56997 0
M  V30 2076 C 188.202 -1.40978 5.74351 0
M  V30 2077 H 187.132 -0.328438 0.678708 0
M  V30 2078 H 189.783 -0.1223 1.83092 0
M  V30 2079 H 188.165 -2.38927 3.158 0
M  V30 2080 H 189.339 0.0751166 4.60739 0
M  V30 2081 H 187.654 -0.0903431 4.16302 0
M  V30 2082 H 190.251 -2.84794 4.52544 0
M  V30 2083 H 190.594 -3.05707 2.82576 0
M  V30 2084 H 191.127 -1.57361 3.65352 0
M  V30 2085 H 187.866 -0.691561 6.51842 0
M  V30 2086 H 187.386 -2.13929 5.60352 0
M  V30 2087 H 189.065 -1.95337 6.16808 0
M  V30 2088 N 189.197 -1.51736 -0.425897 0
M  V30 2089 C 190.446 -1.64201 -1.17136 0
M  V30 2090 C 190.759 -0.369705 -1.92074 0
M  V30 2091 O 191.965 -0.373898 -2.68913 0
M  V30 2092 C 190.421 -2.90035 -2.13091 0
M  V30 2093 C 190.029 -4.24312 -1.43747 0
M  V30 2094 C 191.773 -3.1186 -2.87999 0
M  V30 2095 C 189.68 -5.41285 -2.38253 0
M  V30 2096 H 188.61 -0.611624 -0.440944 0
M  V30 2097 H 191.261 -1.78212 -0.437328 0
M  V30 2098 H 189.643 -2.69684 -2.89977 0
M  V30 2099 H 190.817 -4.55086 -0.723408 0
M  V30 2100 H 189.132 -4.08456 -0.809465 0
M  V30 2101 H 191.729 -3.96427 -3.58817 0
M  V30 2102 H 192.072 -2.25403 -3.49999 0
M  V30 2103 H 192.605 -3.32605 -2.18217 0
M  V30 2104 H 189.344 -6.30037 -1.80925 0
M  V30 2105 H 188.864 -5.14872 -3.0768 0
M  V30 2106 H 190.543 -5.73694 -2.99139 0
M  V30 2107 N 190.675 0.682077 -1.42076 0
M  V30 2108 C 191.921 1.44428 -1.42367 0
M  V30 2109 C 192.254 1.94164 -0.0373056 0
M  V30 2110 O 191.529 1.70429 0.937239 0
M  V30 2111 C 191.812 2.64654 -2.44194 0
M  V30 2112 C 191.665 2.20596 -3.91991 0
M  V30 2113 C 192.984 3.66865 -2.431 0
M  V30 2114 H 190.103 0.523834 -0.518428 0
M  V30 2115 H 192.745 0.77576 -1.73442 0
M  V30 2116 H 190.895 3.2169 -2.17826 0
M  V30 2117 H 192.567 1.68783 -4.29313 0
M  V30 2118 H 190.81 1.52242 -4.06208 0
M  V30 2119 H 191.481 3.06921 -4.58807 0
M  V30 2120 H 193.957 3.19531 -2.66532 0
M  V30 2121 H 192.833 4.48577 -3.16339 0
M  V30 2122 H 193.094 4.17493 -1.45437 0
M  V30 2123 N 192.153 1.28127 0.917671 0
M  V30 2124 C 193.43 1.05761 1.64542 0
M  V30 2125 C 193.81 -0.404344 2.07191 0
M  V30 2126 O 193.158 -1.38963 1.81388 0
M  V30 2127 C 193.368 2.02857 2.83989 0
M  V30 2128 C 194.716 2.32786 3.551 0
M  V30 2129 O 195.74 2.0091 2.94132 0
M  V30 2130 O 194.599 2.87169 4.64969 0
M  V30 2131 H 191.693 0.403916 0.721652 0
M  V30 2132 H 194.239 1.39431 0.967322 0
M  V30 2133 H 193.011 3.01407 2.49538 0
M  V30 2134 H 192.634 1.69809 3.59514 0
M  V30 2135 N 193.631 -1.12557 1.10312 0
M  V30 2136 C 195.042 -1.65574 0.862678 0
M  V30 2137 C 195.393 -1.86566 -0.607256 0
M  V30 2138 O 194.518 -1.59121 -1.46662 0
M  V30 2139 C 195.113 -3.00776 1.55947 0
M  V30 2140 C 193.672 -3.50748 1.36576 0
M  V30 2141 C 192.819 -2.25797 1.60968 0
M  V30 2142 H 195.77 -0.963552 1.26101 0
M  V30 2143 H 195.791 -3.67185 0.997753 0
M  V30 2144 H 195.303 -2.85465 2.62928 0
M  V30 2145 H 193.404 -3.71245 0.317531 0
M  V30 2146 H 193.517 -4.30289 2.10686 0
M  V30 2147 H 191.881 -2.32841 1.03234 0
M  V30 2148 H 192.664 -2.13043 2.69198 0
M  V30 2149 N 195.109 -0.891671 -1.2995 0
M  V30 2150 C 196.042 -0.307994 -2.26112 0
M  V30 2151 C 197.02 0.575262 -1.52084 0
M  V30 2152 O 198.204 0.523864 -1.81074 0
M  V30 2153 C 195.331 0.561734 -3.34009 0
M  V30 2154 C 194.377 -0.253107 -4.25748 0
M  V30 2155 S 195.21 -1.64572 -5.09584 0
M  V30 2156 C 196.366 -0.782699 -6.20987 0
M  V30 2157 H 196.599 -1.12309 -2.75271 0
M  V30 2158 H 194.132 -0.691509 -1.38049 0
M  V30 2159 H 196.09 1.05777 -3.96638 0
M  V30 2160 H 194.751 1.35099 -2.83561 0
M  V30 2161 H 193.944 0.410908 -5.02322 0
M  V30 2162 H 193.546 -0.682004 -3.67729 0
M  V30 2163 H 195.838 -0.00257476 -6.775 0
M  V30 2164 H 196.781 -1.52026 -6.91588 0
M  V30 2165 H 197.189 -0.340638 -5.63471 0
M  V30 2166 N 196.587 1.43421 -0.653314 0
M  V30 2167 C 197.517 2.33487 0.0246656 0
M  V30 2168 C 198.498 1.49475 0.811863 0
M  V30 2169 O 199.683 1.78139 0.773322 0
M  V30 2170 C 196.813 3.32841 0.99166 0
M  V30 2171 C 195.767 4.26842 0.314568 0
M  V30 2172 C 195.093 5.16236 1.39302 0
M  V30 2173 C 196.393 5.16243 -0.793095 0
M  V30 2174 H 198.087 2.90427 -0.727481 0
M  V30 2175 H 195.633 1.39649 -0.351287 0
M  V30 2176 H 197.586 3.94747 1.47487 0
M  V30 2177 H 196.31 2.74158 1.77497 0
M  V30 2178 H 194.969 3.663 -0.148199 0
M  V30 2179 H 194.617 4.53891 2.16776 0
M  V30 2180 H 194.317 5.79948 0.945223 0
M  V30 2181 H 195.841 5.81015 1.87759 0
M  V30 2182 H 197.255 5.71958 -0.392039 0
M  V30 2183 H 195.652 5.88676 -1.16536 0
M  V30 2184 H 196.722 4.55927 -1.65103 0
M  V30 2185 N 198.065 0.39524 1.52563 0
M  V30 2186 C 199.028 -0.425001 2.25225 0
M  V30 2187 C 200.028 -0.985266 1.27079 0
M  V30 2188 O 201.218 -0.866332 1.5113 0
M  V30 2189 C 198.35 -1.59686 3.01186 0
M  V30 2190 H 199.543 0.211233 2.99155 0
M  V30 2191 H 197.096 0.147472 1.55603 0
M  V30 2192 H 197.831 -2.27035 2.31572 0
M  V30 2193 H 197.616 -1.20176 3.73229 0
M  V30 2194 H 199.106 -2.17743 3.5634 0
M  V30 2195 N 199.544 -1.57102 0.125237 0
M  V30 2196 C 200.772 -1.99761 -0.538797 0
M  V30 2197 C 201.187 -1.00503 -1.59827 0
M  V30 2198 O 200.544 0.00119474 -1.825 0
M  V30 2199 C 200.595 -3.42408 -1.15927 0
M  V30 2200 O 200.316 -4.37869 -0.142143 0
M  V30 2201 C 201.817 -4.00232 -1.90602 0
M  V30 2202 H 199.037 -0.655772 -0.14214 0
M  V30 2203 H 201.581 -2.03383 0.213413 0
M  V30 2204 H 199.736 -3.39706 -1.86223 0
M  V30 2205 H 200.15 -5.21128 -0.593775 0
M  V30 2206 H 201.624 -5.02105 -2.29335 0
M  V30 2207 H 202.101 -3.39721 -2.78363 0
M  V30 2208 H 202.707 -4.06499 -1.25055 0
M  V30 2209 N 201.022 0.148545 -1.56898 0
M  V30 2210 C 202.27 0.859717 -1.82902 0
M  V30 2211 C 202.591 1.81775 -0.70588 0
M  V30 2212 O 201.861 1.93994 0.272586 0
M  V30 2213 H 200.441 0.320469 -0.674766 0
M  V30 2214 H 203.103 0.142918 -1.94375 0
M  V30 2215 H 202.199 1.4229 -2.77777 0
M  V30 2216 N 202.5 1.5196 0.417844 0
M  V30 2217 C 203.748 1.65263 1.16329 0
M  V30 2218 C 204.069 0.380634 1.91249 0
M  V30 2219 O 203.339 -0.604214 1.86349 0
M  V30 2220 H 201.919 0.60912 0.432414 0
M  V30 2221 H 204.581 1.88969 0.477162 0
M  V30 2222 H 203.677 2.4896 1.88217 0
M  V30 2223 N 203.978 -0.674533 1.42435 0
M  V30 2224 C 205.203 -1.46784 1.46524 0
M  V30 2225 C 205.628 -1.87938 0.078066 0
M  V30 2226 O 204.986 -1.56014 -0.92354 0
M  V30 2227 C 205.034 -2.69307 2.39805 0
M  V30 2228 O 204.138 -3.67587 1.86959 0
M  V30 2229 H 203.479 -0.440959 0.496439 0
M  V30 2230 H 206.009 -0.827326 1.87127 0
M  V30 2231 H 206.019 -3.17374 2.56393 0
M  V30 2232 H 204.694 -2.38692 3.40586 0
M  V30 2233 H 203.271 -3.2662 1.79927 0
M  V30 2234 N 205.456 -1.28612 -0.910864 0
M  V30 2235 C 206.419 -1.12803 -1.9952 0
M  V30 2236 C 207.419 -0.0668264 -1.60661 0
M  V30 2237 O 208.609 -0.312847 -1.71368 0
M  V30 2238 C 205.741 -0.72254 -3.33155 0
M  V30 2239 H 206.934 -2.09109 -2.14973 0
M  V30 2240 H 204.487 -1.11639 -1.09391 0
M  V30 2241 H 205.222 0.241152 -3.23402 0
M  V30 2242 H 205.007 -1.48916 -3.62721 0
M  V30 2243 H 206.497 -0.634666 -4.12749 0
M  V30 2244 N 206.934 1.1197 -1.10907 0
M  V30 2245 C 208.18 1.8386 -0.855773 0
M  V30 2246 C 208.513 1.84134 0.617103 0
M  V30 2247 O 207.788 1.29041 1.45529 0
M  V30 2248 C 208.071 3.31305 -1.411 0
M  V30 2249 C 207.924 3.39456 -2.9511 0
M  V30 2250 C 209.243 4.2721 -1.05736 0
M  V30 2251 H 206.362 0.667545 -0.312334 0
M  V30 2252 H 209.004 1.31331 -1.37303 0
M  V30 2253 H 207.154 3.76169 -0.97105 0
M  V30 2254 H 208.826 3.03191 -3.47668 0
M  V30 2255 H 207.069 2.79849 -3.31462 0
M  V30 2256 H 207.74 4.43209 -3.29044 0
M  V30 2257 H 210.216 3.90497 -1.43706 0
M  V30 2258 H 209.092 5.28775 -1.47269 0
M  V30 2259 H 209.353 4.42088 0.0325958 0
M  V30 2260 N 208.412 0.89855 1.29475 0
M  V30 2261 C 209.375 0.380272 2.26023 0
M  V30 2262 C 210.375 -0.484891 1.53315 0
M  V30 2263 O 211.565 -0.290108 1.71767 0
M  V30 2264 C 208.697 -0.45651 3.3783 0
M  V30 2265 H 209.89 1.23295 2.73383 0
M  V30 2266 H 207.443 0.676589 1.40897 0
M  V30 2267 H 208.178 -1.32922 2.95808 0
M  V30 2268 H 207.963 0.163393 3.91759 0
M  V30 2269 H 209.453 -0.810466 4.0966 0
M  V30 2270 N 209.89 -1.43072 0.660911 0
M  V30 2271 C 210.853 -2.29194 -0.0166406 0
M  V30 2272 C 211.853 -1.42609 -0.742912 0
M  V30 2273 O 213.043 -1.64155 -0.583004 0
M  V30 2274 C 210.175 -3.24831 -1.0343 0
M  V30 2275 H 211.368 -2.90596 0.741208 0
M  V30 2276 H 208.921 -1.5048 0.422532 0
M  V30 2277 H 209.656 -2.68339 -1.82111 0
M  V30 2278 H 209.441 -3.88676 -0.517082 0
M  V30 2279 H 210.931 -3.89451 -1.50723 0
M  V30 2280 N 211.368 -0.403325 -1.52352 0
M  V30 2281 C 212.617 0.175668 -2.00934 0
M  V30 2282 C 212.93 1.46718 -1.29356 0
M  V30 2283 O 214.136 2.12708 -1.68724 0
M  V30 2284 C 212.592 0.363612 -3.58058 0
M  V30 2285 C 212.2 -0.915472 -4.38547 0
M  V30 2286 C 213.944 0.89821 -4.14888 0
M  V30 2287 C 211.851 -0.695035 -5.87302 0
M  V30 2288 H 210.781 0.0694234 -0.750797 0
M  V30 2289 H 213.432 -0.527879 -1.75743 0
M  V30 2290 H 211.814 1.12935 -3.79555 0
M  V30 2291 H 212.988 -1.68691 -4.28812 0
M  V30 2292 H 211.303 -1.37606 -3.93006 0
M  V30 2293 H 213.9 1.07907 -5.23699 0
M  V30 2294 H 214.243 1.87126 -3.71873 0
M  V30 2295 H 214.776 0.191681 -3.97338 0
M  V30 2296 H 211.515 -1.63948 -6.34666 0
M  V30 2297 H 211.035 0.0372116 -5.99788 0
M  V30 2298 H 212.714 -0.33497 -6.46132 0
M  V30 2299 N 212.846 1.57033 -0.133567 0
M  V30 2300 C 214.123 1.87256 0.56522 0
M  V30 2301 C 214.503 1.03726 1.83859 0
M  V30 2302 O 213.851 0.120247 2.28183 0
M  V30 2303 C 214.061 3.3865 0.843636 0
M  V30 2304 C 215.409 4.07574 1.19032 0
M  V30 2305 O 216.433 3.43752 0.933429 0
M  V30 2306 O 215.292 5.20259 1.67312 0
M  V30 2307 H 212.386 0.775678 0.286796 0
M  V30 2308 H 214.932 1.68855 -0.169168 0
M  V30 2309 H 213.704 3.91257 -0.0581149 0
M  V30 2310 H 213.327 3.62532 1.63268 0
M  V30 2311 N 214.325 -0.140222 1.56975 0
M  V30 2312 C 215.288 -1.15689 1.97861 0
M  V30 2313 C 216.288 -1.3549 0.865974 0
M  V30 2314 O 217.478 -1.32367 1.13246 0
M  V30 2315 C 214.61 -2.51582 2.30042 0
M  V30 2316 H 215.803 -0.805971 2.88867 0
M  V30 2317 H 213.356 -0.383801 1.51515 0
M  V30 2318 H 214.091 -2.91632 1.41849 0
M  V30 2319 H 213.876 -2.38569 3.11171 0
M  V30 2320 H 215.366 -3.24792 2.62488 0
M  V30 2321 N 215.803 -1.52179 -0.40978 0
M  V30 2322 C 216.733 -1.78435 -1.5061 0
M  V30 2323 C 217.714 -0.635295 -1.57791 0
M  V30 2324 O 218.899 -0.880823 -1.73076 0
M  V30 2325 C 216.029 -1.93444 -2.88439 0
M  V30 2326 C 214.983 -3.09038 -2.96108 0
M  V30 2327 C 214.309 -3.09268 -4.36185 0
M  V30 2328 C 215.609 -4.48508 -2.67652 0
M  V30 2329 H 217.303 -2.70237 -1.28889 0
M  V30 2330 H 214.849 -1.30036 -0.618605 0
M  V30 2331 H 216.802 -2.10394 -3.65119 0
M  V30 2332 H 215.526 -0.983129 -3.11452 0
M  V30 2333 H 214.185 -2.91837 -2.21872 0
M  V30 2334 H 213.833 -2.11861 -4.56206 0
M  V30 2335 H 213.533 -3.86907 -4.42241 0
M  V30 2336 H 215.057 -3.28348 -5.14801 0
M  V30 2337 H 216.471 -4.65918 -3.34056 0
M  V30 2338 H 214.868 -5.28059 -2.85085 0
M  V30 2339 H 215.938 -4.56649 -1.63095 0
M  V30 2340 N 217.281 0.66697 -1.42791 0
M  V30 2341 C 218.228 1.7803 -1.4688 0
M  V30 2342 C 219.198 1.6299 -0.319919 0
M  V30 2343 O 220.383 1.83432 -0.525118 0
M  V30 2344 C 217.523 3.1611 -1.38451 0
M  V30 2345 C 216.636 3.42381 -2.63437 0
M  V30 2346 C 215.771 4.70232 -2.47094 0
M  V30 2347 C 214.81 4.89564 -3.67415 0
M  V30 2348 N 213.947 6.08661 -3.49966 0
M  V30 2349 H 218.787 1.7387 -2.42019 0
M  V30 2350 H 216.324 0.84868 -1.20149 0
M  V30 2351 H 218.282 3.95914 -1.31561 0
M  V30 2352 H 216.912 3.19374 -0.469033 0
M  V30 2353 H 215.964 2.56774 -2.80662 0
M  V30 2354 H 217.276 3.52557 -3.52853 0
M  V30 2355 H 216.43 5.5814 -2.37834 0
M  V30 2356 H 215.169 4.62353 -1.5518 0
M  V30 2357 H 214.174 4.00096 -3.77099 0
M  V30 2358 H 215.399 4.99282 -4.6032 0
M  V30 2359 H 213.345 6.0194 -2.60776 0
M  V30 2360 H 213.262 6.19733 -4.32975 0
M  V30 2361 H 214.53 6.99226 -3.44532 0
M  V30 2362 N 218.759 1.29093 0.90403 0
M  V30 2363 C 219.706 1.13853 2.00764 0
M  V30 2364 C 220.676 0.0330084 1.66067 0
M  V30 2365 O 221.861 0.199733 1.89752 0
M  V30 2366 C 219.001 0.816537 3.35301 0
M  V30 2367 C 218.114 2.00206 3.82807 0
M  V30 2368 C 217.249 1.61983 5.059 0
M  V30 2369 C 216.288 2.77143 5.45764 0
M  V30 2370 N 215.425 2.39346 6.60044 0
M  V30 2371 H 220.265 2.08276 2.13132 0
M  V30 2372 H 217.802 1.03648 1.04381 0
M  V30 2373 H 219.76 0.610557 4.12708 0
M  V30 2374 H 218.39 -0.090779 3.22672 0
M  V30 2375 H 217.442 2.31988 3.01473 0
M  V30 2376 H 218.754 2.86512 4.08304 0
M  V30 2377 H 217.908 1.37649 5.90879 0
M  V30 2378 H 216.647 0.728202 4.82233 0
M  V30 2379 H 215.652 3.02165 4.59322 0
M  V30 2380 H 216.877 3.66964 5.71414 0
M  V30 2381 H 214.823 1.52665 6.37989 0
M  V30 2382 H 214.74 3.19185 6.85315 0
M  V30 2383 H 216.008 2.1832 7.48303 0
M  V30 2384 N 220.237 -1.11381 1.11499 0
M  V30 2385 C 221.653 -1.35143 0.849031 0
M  V30 2386 C 221.853 -1.94515 -0.525938 0
M  V30 2387 O 220.909 -2.1785 -1.27662 0
M  V30 2388 C 222.222 -2.28249 1.95762 0
M  V30 2389 C 223.77 -2.41812 1.98736 0
M  V30 2390 C 224.245 -3.3824 3.088 0
M  V30 2391 N 225.736 -3.45803 3.08179 0
M  V30 2392 C 226.471 -4.20358 3.89982 0
M  V30 2393 N 225.967 -4.97884 4.8175 0
M  V30 2394 N 227.76 -4.15877 3.78157 0
M  V30 2395 H 219.911 -0.712062 2.00109 0
M  V30 2396 H 222.174 -0.376025 0.870235 0
M  V30 2397 H 221.88 -1.91817 2.94787 0
M  V30 2398 H 221.754 -3.28473 1.85433 0
M  V30 2399 H 224.141 -2.77518 1.00338 0
M  V30 2400 H 224.222 -1.41437 2.13141 0
M  V30 2401 H 223.866 -3.03261 4.07425 0
M  V30 2402 H 223.796 -4.38471 2.91635 0
M  V30 2403 H 226.287 -2.90506 2.41691 0
M  V30 2404 H 226.6 -5.52142 5.40702 0
M  V30 2405 H 224.945 -4.97043 4.85771 0
M  V30 2406 H 228.136 -3.544 3.05808 0
M  V30 2407 H 228.309 -4.73723 4.42143 0
M  V30 2408 N 221.715 -0.905404 -1.28997 0
M  V30 2409 C 222.963 -0.533192 -1.9494 0
M  V30 2410 C 223.284 0.924618 -1.71685 0
M  V30 2411 O 222.554 1.65268 -1.05183 0
M  V30 2412 H 221.134 -0.194194 -0.721317 0
M  V30 2413 H 223.796 -1.15294 -1.57141 0
M  V30 2414 H 222.892 -0.72059 -3.03667 0
M  V30 2415 N 223.193 1.4272 -0.668489 0
M  V30 2416 C 224.156 2.292 0.00448567 0
M  V30 2417 C 225.156 1.43001 0.735339 0
M  V30 2418 O 226.346 1.64461 0.57429 0
M  V30 2419 C 223.478 3.25375 1.01705 0
M  V30 2420 H 224.671 2.90199 -0.756608 0
M  V30 2421 H 222.224 1.50254 -0.430506 0
M  V30 2422 H 222.959 2.69301 1.80686 0
M  V30 2423 H 222.744 3.88944 0.496463 0
M  V30 2424 H 224.234 3.90245 1.48655 0
M  V30 2425 N 224.671 0.411399 1.52136 0
M  V30 2426 C 225.618 -0.412975 2.27075 0
M  V30 2427 C 226.588 -1.03912 1.29582 0
M  V30 2428 O 227.773 -1.06296 1.58448 0
M  V30 2429 C 224.913 -1.52247 3.09701 0
M  V30 2430 C 224.026 -0.917021 4.22155 0
M  V30 2431 C 223.161 -1.9994 4.92135 0
M  V30 2432 C 222.2 -1.37101 5.96548 0
M  V30 2433 N 221.337 -2.39364 6.60038 0
M  V30 2434 H 226.177 0.232499 2.97092 0
M  V30 2435 H 223.714 0.126496 1.46555 0
M  V30 2436 H 225.672 -2.17674 3.55913 0
M  V30 2437 H 224.302 -2.13794 2.41851 0
M  V30 2438 H 223.354 -0.151742 3.80097 0
M  V30 2439 H 224.666 -0.418006 4.97045 0
M  V30 2440 H 223.82 -2.73088 5.41763 0
M  V30 2441 H 222.559 -2.53208 4.16818 0
M  V30 2442 H 221.564 -0.624873 5.46237 0
M  V30 2443 H 222.789 -0.845998 6.7381 0
M  V30 2444 H 220.735 -2.91759 5.87548 0
M  V30 2445 H 220.652 -1.9428 7.3061 0
M  V30 2446 H 221.92 -3.12074 7.14304 0
M  V30 2447 N 226.149 -1.5696 0.141893 0
M  V30 2448 C 227.374 -2.00754 -0.520838 0
M  V30 2449 C 227.799 -1.0213 -1.57959 0
M  V30 2450 O 227.157 0.00371324 -1.813 0
M  V30 2451 C 227.205 -3.43318 -1.10294 0
M  V30 2452 O 226.309 -3.47679 -2.21795 0
M  V30 2453 H 225.65 -0.651564 -0.127908 0
M  V30 2454 H 228.18 -2.03221 0.23712 0
M  V30 2455 H 228.19 -3.82012 -1.43287 0
M  V30 2456 H 226.865 -4.14608 -0.327574 0
M  V30 2457 H 225.442 -3.20824 -1.9007 0
M  V30 2458 N 227.627 0.131896 -1.57047 0
M  V30 2459 C 228.876 0.84044 -1.83356 0
M  V30 2460 C 229.189 1.81646 -0.725535 0
M  V30 2461 O 230.395 2.57025 -0.874659 0
M  V30 2462 C 228.851 1.54528 -3.25037 0
M  V30 2463 C 228.459 0.610902 -4.43815 0
M  V30 2464 C 230.203 2.23972 -3.60606 0
M  V30 2465 C 228.11 1.31823 -5.76521 0
M  V30 2466 H 227.04 0.317599 -0.683847 0
M  V30 2467 H 229.691 0.0931561 -1.83263 0
M  V30 2468 H 228.073 2.33873 -3.19561 0
M  V30 2469 H 229.247 -0.148407 -4.60561 0
M  V30 2470 H 227.562 0.0241016 -4.16393 0
M  V30 2471 H 230.159 2.77558 -4.57018 0
M  V30 2472 H 230.502 3.01173 -2.87403 0
M  V30 2473 H 231.035 1.51529 -3.6781 0
M  V30 2474 H 227.774 0.587771 -6.52859 0
M  V30 2475 H 227.294 2.04987 -5.63685 0
M  V30 2476 H 228.973 1.855 -6.19838 0
M  V30 2477 N 229.106 1.52395 0.401703 0
M  V30 2478 C 230.053 1.76268 1.48991 0
M  V30 2479 C 231.023 0.605386 1.54675 0
M  V30 2480 O 232.208 0.843742 1.7113 0
M  V30 2481 C 229.348 1.92592 2.86361 0
M  V30 2482 C 228.461 3.20259 2.89928 0
M  V30 2483 C 227.596 3.26972 4.18644 0
M  V30 2484 C 226.635 4.48812 4.16214 0
M  V30 2485 N 225.772 4.52877 5.36514 0
M  V30 2486 H 230.612 2.6914 1.27935 0
M  V30 2487 H 228.149 1.33355 0.620871 0
M  V30 2488 H 230.107 2.0004 3.66115 0
M  V30 2489 H 228.737 1.03093 3.05895 0
M  V30 2490 H 227.789 3.21945 2.02621 0
M  V30 2491 H 229.101 4.10056 2.83999 0
M  V30 2492 H 228.255 3.33533 5.06794 0
M  V30 2493 H 226.994 2.35126 4.27278 0
M  V30 2494 H 225.999 4.4239 3.26453 0
M  V30 2495 H 227.224 5.41961 4.09213 0
M  V30 2496 H 225.17 3.63917 5.45802 0
M  V30 2497 H 225.087 5.36529 5.32609 0
M  V30 2498 H 226.355 4.63676 6.26597 0
M  V30 2499 N 230.584 -0.659388 1.43143 0
M  V30 2500 C 231.831 -1.41935 1.44433 0
M  V30 2501 C 232.159 -1.94387 0.0663522 0
M  V30 2502 O 231.414 -1.72314 -0.927706 0
M  V30 2503 C 231.713 -2.62206 2.42864 0
M  V30 2504 C 231.379 -2.28208 3.88886 0
M  V30 2505 C 230.041 -2.18647 4.28657 0
M  V30 2506 C 232.393 -2.00887 4.8093 0
M  V30 2507 C 229.721 -1.79914 5.58433 0
M  V30 2508 C 232.073 -1.63653 6.11065 0
M  V30 2509 C 230.737 -1.52614 6.49819 0
M  V30 2510 H 230.007 -0.519376 0.528517 0
M  V30 2511 H 232.654 -0.750453 1.76183 0
M  V30 2512 H 230.959 -3.34199 2.04495 0
M  V30 2513 H 232.656 -3.2041 2.41119 0
M  V30 2514 H 229.246 -2.36557 3.57406 0
M  V30 2515 H 233.43 -2.07198 4.5098 0
M  V30 2516 H 228.686 -1.69948 5.87305 0
M  V30 2517 H 232.86 -1.41543 6.81864 0
M  V30 2518 H 230.487 -1.22371 7.50286 0
M  V30 2519 N 232.062 -1.29571 -0.897171 0
M  V30 2520 C 232.995 -1.0924 -2.00354 0
M  V30 2521 C 233.973 -0.00354011 -1.626 0
M  V30 2522 O 235.157 -0.15473 -1.87864 0
M  V30 2523 C 232.284 -0.66352 -3.32137 0
M  V30 2524 C 231.33 -1.75146 -3.88878 0
M  V30 2525 S 232.163 -3.35124 -4.17674 0
M  V30 2526 C 233.319 -2.9411 -5.52494 0
M  V30 2527 H 233.552 -2.02907 -2.17292 0
M  V30 2528 H 231.085 -1.13746 -1.04408 0
M  V30 2529 H 233.043 -0.422791 -4.08317 0
M  V30 2530 H 231.704 0.253588 -3.13075 0
M  V30 2531 H 230.897 -1.40337 -4.84068 0
M  V30 2532 H 230.499 -1.94584 -3.19395 0
M  V30 2533 H 232.791 -2.41312 -6.33068 0
M  V30 2534 H 233.734 -3.88161 -5.9223 0
M  V30 2535 H 234.142 -2.32332 -5.14473 0
M  V30 2536 N 233.54 1.10788 -1.12088 0
M  V30 2537 C 234.78 1.84297 -0.883974 0
M  V30 2538 C 235.144 1.83036 0.579797 0
M  V30 2539 O 236.345 2.52061 0.933734 0
M  V30 2540 C 234.616 3.27173 -1.43849 0
M  V30 2541 S 236.175 4.17853 -1.33957 0
M  V30 2542 H 232.993 0.635433 -0.318977 0
M  V30 2543 H 235.595 1.33341 -1.4297 0
M  V30 2544 H 234.299 3.25658 -2.49749 0
M  V30 2545 H 233.83 3.83198 -0.890096 0
M  V30 2546 H 235.845 4.95239 -0.308603 0
M  V30 2547 N 235.018 0.912232 1.28515 0
M  V30 2548 C 235.948 0.416403 2.29757 0
M  V30 2549 C 236.929 -0.515194 1.6211 0
M  V30 2550 O 238.114 -0.423253 1.89532 0
M  V30 2551 C 235.244 -0.34572 3.45575 0
M  V30 2552 C 234.198 0.496599 4.25109 0
M  V30 2553 C 233.524 -0.393771 5.33248 0
M  V30 2554 C 234.824 1.75307 4.92001 0
M  V30 2555 H 236.518 1.26249 2.7148 0
M  V30 2556 H 234.064 0.608515 1.30511 0
M  V30 2557 H 236.017 -0.703422 4.15488 0
M  V30 2558 H 234.741 -1.2257 3.02728 0
M  V30 2559 H 233.4 0.8368 3.56922 0
M  V30 2560 H 233.048 -1.27225 4.86644 0
M  V30 2561 H 232.748 0.166209 5.87365 0
M  V30 2562 H 234.272 -0.747389 6.06009 0
M  V30 2563 H 235.686 1.46437 5.54283 0
M  V30 2564 H 234.083 2.25534 5.56106 0
M  V30 2565 H 235.153 2.48176 4.16577 0
M  V30 2566 N 236.496 -1.42363 0.676048 0
M  V30 2567 C 237.745 -2.00745 0.196037 0
M  V30 2568 C 238.058 -1.54083 -1.20489 0
M  V30 2569 O 239.264 -2.04891 -1.78134 0
M  V30 2570 C 237.72 -3.58651 0.299616 0
M  V30 2571 C 237.328 -4.143 1.70468 0
M  V30 2572 C 239.072 -4.24326 -0.121619 0
M  V30 2573 C 236.979 -5.64574 1.76096 0
M  V30 2574 H 235.909 -0.750787 0.0695301 0
M  V30 2575 H 238.56 -1.63072 0.841412 0
M  V30 2576 H 236.942 -3.93833 -0.413673 0
M  V30 2577 H 238.116 -3.90575 2.44515 0
M  V30 2578 H 236.431 -3.61081 2.07387 0
M  V30 2579 H 239.028 -5.34607 -0.0997362 0
M  V30 2580 H 239.371 -3.99897 -1.15708 0
M  V30 2581 H 239.904 -3.94108 0.540706 0
M  V30 2582 H 236.643 -5.93804 2.77628 0
M  V30 2583 H 236.163 -5.90286 1.06406 0
M  V30 2584 H 237.842 -6.29013 1.51496 0
M  V30 2585 N 237.974 -0.419461 -1.51915 0
M  V30 2586 C 238.937 0.389116 -2.25873 0
M  V30 2587 C 239.937 0.964924 -1.28631 0
M  V30 2588 O 241.127 0.842179 -1.52489 0
M  V30 2589 C 238.259 1.54874 -3.03689 0
M  V30 2590 H 239.452 -0.258799 -2.98781 0
M  V30 2591 H 237.005 -0.172209 -1.55348 0
M  V30 2592 H 237.74 2.23323 -2.35154 0
M  V30 2593 H 237.525 1.14223 -3.75094 0
M  V30 2594 H 239.015 2.12046 -3.59759 0
M  V30 2595 N 239.452 1.56882 -0.150215 0
M  V30 2596 C 240.415 2.1573 0.774157 0
M  V30 2597 C 241.415 1.0999 1.17298 0
M  V30 2598 O 242.605 1.35613 1.09338 0
M  V30 2599 C 239.737 2.72302 2.05096 0
M  V30 2600 H 240.93 2.98752 0.262201 0
M  V30 2601 H 238.483 1.55985 0.099248 0
M  V30 2602 H 239.218 1.92956 2.6065 0
M  V30 2603 H 239.003 3.49665 1.77416 0
M  V30 2604 H 240.493 3.17632 2.71109 0
M  V30 2605 N 240.93 -0.123565 1.57115 0
M  V30 2606 C 242.341 -0.681198 1.73829 0
M  V30 2607 C 242.692 -1.80535 0.768214 0
M  V30 2608 O 241.817 -2.16317 -0.0599103 0
M  V30 2609 C 242.412 -1.24246 3.15196 0
M  V30 2610 C 240.971 -1.74643 3.33432 0
M  V30 2611 C 240.118 -0.644284 2.69711 0
M  V30 2612 H 243.069 0.102315 1.5837 0
M  V30 2613 H 243.09 -2.11216 3.16493 0
M  V30 2614 H 242.602 -0.424062 3.85776 0
M  V30 2615 H 240.703 -2.58974 2.67886 0
M  V30 2616 H 240.816 -1.85902 4.41562 0
M  V30 2617 H 239.18 -1.07676 2.3082 0
M  V30 2618 H 239.963 0.163058 3.42913 0
M  V30 2619 N 242.408 -1.52605 -0.393616 0
M  V30 2620 C 243.318 -1.79971 -1.50492 0
M  V30 2621 C 244.334 -0.686181 -1.59899 0
M  V30 2622 O 245.51 -0.973274 -1.76322 0
M  V30 2623 C 242.575 -1.95867 -2.86072 0
M  V30 2624 C 241.636 -3.19781 -2.86424 0
M  V30 2625 C 240.869 -3.34909 -4.15538 0
M  V30 2626 O 241.092 -2.54948 -5.10253 0
M  V30 2627 O 240.026 -4.28141 -4.23059 0
M  V30 2628 H 243.852 -2.74328 -1.30299 0
M  V30 2629 H 241.437 -1.3764 -0.581005 0
M  V30 2630 H 243.319 -2.08056 -3.66457 0
M  V30 2631 H 241.994 -1.04699 -3.063 0
M  V30 2632 H 240.901 -3.13038 -2.04837 0
M  V30 2633 H 242.234 -4.1078 -2.71147 0
M  V30 2634 N 243.887 0.651787 -1.4349 0
M  V30 2635 C 245.135 1.40888 -1.44897 0
M  V30 2636 C 245.456 1.94856 -0.0749086 0
M  V30 2637 O 244.726 1.74518 0.889956 0
M  V30 2638 H 243.306 0.522887 -0.533478 0
M  V30 2639 H 245.968 0.768609 -1.79104 0
M  V30 2640 H 245.064 2.25052 -2.16236 0
M  V30 2641 N 245.365 1.30045 0.890287 0
M  V30 2642 C 246.611 1.18737 1.64406 0
M  V30 2643 C 246.944 -0.258525 1.92472 0
M  V30 2644 O 246.219 -1.18562 1.54186 0
M  V30 2645 C 246.502 2.01087 2.98724 0
M  V30 2646 C 246.355 3.53867 2.77665 0
M  V30 2647 C 247.674 1.84457 3.9958 0
M  V30 2648 H 244.793 0.432698 0.596608 0
M  V30 2649 H 247.435 1.5962 1.0306 0
M  V30 2650 H 245.585 1.66349 3.51084 0
M  V30 2651 H 247.257 3.98637 2.32133 0
M  V30 2652 H 245.5 3.78318 2.12269 0
M  V30 2653 H 246.171 4.06772 3.7315 0
M  V30 2654 H 248.647 2.14817 3.56361 0
M  V30 2655 H 247.523 2.44411 4.91482 0
M  V30 2656 H 247.784 0.802276 4.3476 0
M  V30 2657 N 246.843 -1.10192 1.12674 0
M  V30 2658 C 247.79 -2.16606 0.796906 0
M  V30 2659 C 248.76 -1.64394 -0.237476 0
M  V30 2660 O 249.945 -1.90474 -0.111484 0
M  V30 2661 C 247.085 -3.44116 0.26043 0
M  V30 2662 C 246.198 -4.10268 1.35293 0
M  V30 2663 C 245.333 -5.25507 0.775621 0
M  V30 2664 C 244.372 -5.83567 1.84706 0
M  V30 2665 N 243.509 -6.90179 1.28829 0
M  V30 2666 H 248.349 -2.44163 1.70846 0
M  V30 2667 H 245.886 -1.19846 0.85295 0
M  V30 2668 H 247.844 -4.17143 -0.0686814 0
M  V30 2669 H 246.474 -3.16901 -0.614274 0
M  V30 2670 H 245.526 -3.35184 1.79877 0
M  V30 2671 H 246.838 -4.4946 2.16303 0
M  V30 2672 H 245.992 -6.05398 0.397327 0
M  V30 2673 H 244.731 -4.87656 -0.0656581 0
M  V30 2674 H 243.736 -5.02344 2.23452 0
M  V30 2675 H 244.961 -6.23482 2.69161 0
M  V30 2676 H 242.907 -6.54322 0.468881 0
M  V30 2677 H 242.824 -7.28097 2.03497 0
M  V30 2678 H 244.092 -7.73844 0.937311 0
M  V30 2679 N 248.321 -0.919034 -1.28029 0
M  V30 2680 C 249.284 -0.416182 -2.2539 0
M  V30 2681 C 250.284 0.460438 -1.54067 0
M  V30 2682 O 251.474 0.262744 -1.72207 0
M  V30 2683 C 248.606 0.402707 -3.38513 0
M  V30 2684 H 249.799 -1.27629 -2.71387 0
M  V30 2685 H 247.352 -0.698919 -1.39803 0
M  V30 2686 H 248.087 1.282 -2.97885 0
M  V30 2687 H 247.872 -0.225698 -3.9145 0
M  V30 2688 H 249.362 0.745191 -4.10897 0
M  V30 2689 N 249.799 1.42003 -0.683588 0
M  V30 2690 C 251.045 2.01712 -0.209825 0
M  V30 2691 C 251.378 1.53968 1.18353 0
M  V30 2692 O 250.653 0.745661 1.79639 0
M  V30 2693 C 250.936 3.59202 -0.254197 0
M  V30 2694 C 250.789 4.17102 -1.68363 0
M  V30 2695 C 252.108 4.38344 0.392709 0
M  V30 2696 H 249.227 0.732891 -0.0777189 0
M  V30 2697 H 251.869 1.68909 -0.87004 0
M  V30 2698 H 250.019 3.87278 0.307954 0
M  V30 2699 H 251.691 3.99946 -2.29871 0
M  V30 2700 H 249.934 3.72597 -2.22157 0
M  V30 2701 H 250.605 5.26249 -1.6663 0
M  V30 2702 H 253.081 4.16011 -0.0859162 0
M  V30 2703 H 251.957 5.47901 0.331063 0
M  V30 2704 H 252.218 4.16887 1.47164 0
M  V30 2705 N 251.277 0.427512 1.51691 0
M  V30 2706 C 252.187 -0.39527 2.31246 0
M  V30 2707 C 253.203 -1.03674 1.39742 0
M  V30 2708 O 254.379 -1.03425 1.72816 0
M  V30 2709 C 251.444 -1.48706 3.13189 0
M  V30 2710 C 250.505 -0.866743 4.20459 0
M  V30 2711 C 249.738 -1.90651 4.98486 0
M  V30 2712 O 249.961 -3.12733 4.77026 0
M  V30 2713 O 248.895 -1.5025 5.82845 0
M  V30 2714 H 252.721 0.253918 3.02637 0
M  V30 2715 H 250.306 0.190274 1.48183 0
M  V30 2716 H 252.188 -2.12047 3.64162 0
M  V30 2717 H 250.863 -2.12051 2.44573 0
M  V30 2718 H 249.77 -0.195544 3.73589 0
M  V30 2719 H 251.103 -0.276934 4.9142 0
M  V30 2720 N 252.755 -1.56801 0.158532 0
M  V30 2721 C 253.983 -2.00859 -0.496303 0
M  V30 2722 C 254.398 -1.03871 -1.57659 0
M  V30 2723 O 253.755 -0.0375165 -1.82461 0
M  V30 2724 C 253.806 -3.4479 -1.08638 0
M  V30 2725 O 253.527 -4.38072 -0.0492322 0
M  V30 2726 C 255.028 -4.04185 -1.8207 0
M  V30 2727 H 252.248 -0.65864 -0.128199 0
M  V30 2728 H 254.792 -2.02885 0.256506 0
M  V30 2729 H 252.947 -3.43579 -1.78975 0
M  V30 2730 H 253.361 -5.2227 -0.483102 0
M  V30 2731 H 254.835 -5.06857 -2.18633 0
M  V30 2732 H 255.312 -3.45549 -2.71095 0
M  V30 2733 H 255.918 -4.0906 -1.16405 0
M  V30 2734 N 254.233 0.115231 -1.57178 0
M  V30 2735 C 255.196 1.12526 -1.99676 0
M  V30 2736 C 256.196 1.34095 -0.88742 0
M  V30 2737 O 257.386 1.30548 -1.15337 0
M  V30 2738 C 254.518 2.4789 -2.34015 0
M  V30 2739 H 255.711 0.759912 -2.90113 0
M  V30 2740 H 253.264 0.359648 -1.52106 0
M  V30 2741 H 253.999 2.89339 -1.4647 0
M  V30 2742 H 253.784 2.33588 -3.14927 0
M  V30 2743 H 255.274 3.20575 -2.67622 0
M  V30 2744 N 255.711 1.52812 0.385517 0
M  V30 2745 C 256.661 1.74219 1.47078 0
M  V30 2746 C 257.645 0.59632 1.49442 0
M  V30 2747 O 258.837 0.85428 1.5502 0
M  V30 2748 C 255.966 1.9176 2.84751 0
M  V30 2749 C 255.052 3.12289 2.86943 0
M  V30 2750 N 255.443 4.34575 2.58802 0
M  V30 2751 C 253.741 3.12605 3.1811 0
M  V30 2752 C 254.442 5.162 2.68166 0
M  V30 2753 N 253.418 4.51964 3.02043 0
M  V30 2754 H 257.22 2.6639 1.24152 0
M  V30 2755 H 254.734 1.51166 0.593504 0
M  V30 2756 H 256.731 2.05218 3.62893 0
M  V30 2757 H 255.391 1.00805 3.08656 0
M  V30 2758 H 256.402 4.62649 2.32759 0
M  V30 2759 H 253.079 2.31472 3.47458 0
M  V30 2760 H 254.469 6.23689 2.49923 0
M  V30 2761 N 257.189 -0.644168 1.43834 0
M  V30 2762 C 258.6 -1.22554 1.40845 0
M  V30 2763 C 258.951 -1.9585 0.117115 0
M  V30 2764 O 258.076 -2.01734 -0.783086 0
M  V30 2765 C 258.671 -2.22907 2.55143 0
M  V30 2766 C 257.23 -2.76501 2.5539 0
M  V30 2767 C 256.377 -1.51287 2.32396 0
M  V30 2768 H 259.328 -0.43563 1.52604 0
M  V30 2769 H 259.349 -3.05259 2.2715 0
M  V30 2770 H 258.861 -1.69533 3.49114 0
M  V30 2771 H 256.962 -3.33914 1.65324 0
M  V30 2772 H 257.075 -3.23429 3.53455 0
M  V30 2773 H 255.439 -1.78957 1.81236 0
M  V30 2774 H 256.222 -0.998336 3.28463 0
M  V30 2775 N 258.668 -1.30515 -0.883378 0
M  V30 2776 C 259.945 -1.10086 -1.6168 0
M  V30 2777 C 260.325 0.349269 -2.08191 0
M  V30 2778 O 259.673 1.34105 -1.85008 0
M  V30 2779 C 259.883 -2.10315 -2.78511 0
M  V30 2780 C 261.231 -2.42119 -3.48803 0
M  V30 2781 O 262.255 -2.08638 -2.88702 0
M  V30 2782 O 261.114 -2.99396 -4.57192 0
M  V30 2783 H 258.208 -0.422907 -0.710689 0
M  V30 2784 H 260.754 -1.41947 -0.930015 0
M  V30 2785 H 259.526 -3.07917 -2.41459 0
M  V30 2786 H 259.149 -1.79282 -3.54886 0
M  V30 2787 N 260.146 1.09593 -1.13257 0
M  V30 2788 C 261.392 1.82003 -0.89458 0
M  V30 2789 C 261.725 1.85402 0.577906 0
M  V30 2790 O 261 1.32099 1.42759 0
M  V30 2791 C 261.283 3.28237 -1.48096 0
M  V30 2792 C 261.136 3.3312 -3.02244 0
M  V30 2793 C 262.455 4.24871 -1.14774 0
M  V30 2794 H 259.574 0.66077 -0.326424 0
M  V30 2795 H 262.216 1.28389 -1.40058 0
M  V30 2796 H 260.366 3.74024 -1.05062 0
M  V30 2797 H 262.038 2.95748 -3.54021 0
M  V30 2798 H 260.281 2.72756 -3.37323 0
M  V30 2799 H 260.952 4.3613 -3.38371 0
M  V30 2800 H 263.428 3.87361 -1.51957 0
M  V30 2801 H 262.304 5.25532 -1.58452 0
M  V30 2802 H 262.565 4.42058 -0.0611849 0
M  V30 2803 N 261.624 0.925811 1.2754 0
M  V30 2804 C 262.901 0.483726 1.89524 0
M  V30 2805 C 263.281 -1.03809 1.83812 0
M  V30 2806 O 262.629 -1.89143 1.28207 0
M  V30 2807 C 262.839 1.02769 3.33526 0
M  V30 2808 C 264.187 1.08703 4.10449 0
M  V30 2809 O 265.211 0.977175 3.42534 0
M  V30 2810 O 264.07 1.25599 5.31871 0
M  V30 2811 H 261.164 0.15529 0.812289 0
M  V30 2812 H 263.71 1.01738 1.35822 0
M  V30 2813 H 262.482 2.07155 3.31967 0
M  V30 2814 H 262.105 0.475567 3.94746 0
M  V30 2815 N 263.102 -1.41638 0.69111 0
M  V30 2816 C 264.351 -2.00526 0.217318 0
M  V30 2817 C 264.664 -1.55353 -1.18848 0
M  V30 2818 O 265.87 -2.06769 -1.75951 0
M  V30 2819 C 264.326 -3.58313 0.337639 0
M  V30 2820 C 263.934 -4.12469 1.74852 0
M  V30 2821 C 265.678 -4.24431 -0.0766066 0
M  V30 2822 C 263.585 -5.62675 1.82074 0
M  V30 2823 H 262.515 -0.750008 0.0774893 0
M  V30 2824 H 265.166 -1.6217 0.858661 0
M  V30 2825 H 263.548 -3.9425 -0.371879 0
M  V30 2826 H 264.722 -3.8796 2.48644 0
M  V30 2827 H 263.037 -3.58861 2.11205 0
M  V30 2828 H 265.634 -5.34683 -0.0430284 0
M  V30 2829 H 265.977 -4.01101 -1.1146 0
M  V30 2830 H 266.51 -3.93512 0.582476 0
M  V30 2831 H 263.249 -5.90826 2.83911 0
M  V30 2832 H 262.769 -5.89124 1.12661 0
M  V30 2833 H 264.448 -6.27371 1.58159 0
M  V30 2834 N 264.58 -0.43555 -1.51462 0
M  V30 2835 C 265.81 0.130053 -2.0619 0
M  V30 2836 C 266.218 1.37164 -1.30317 0
M  V30 2837 O 265.561 1.80225 -0.355598 0
M  V30 2838 C 265.623 0.519418 -3.55728 0
M  V30 2839 C 265.287 -0.615119 -4.52841 0
M  V30 2840 C 266.284 -1.48671 -4.9819 0
M  V30 2841 C 263.969 -0.795341 -4.95963 0
M  V30 2842 C 265.963 -2.52324 -5.8533 0
M  V30 2843 C 263.65 -1.83514 -5.82894 0
M  V30 2844 C 264.648 -2.69748 -6.27475 0
M  V30 2845 O 264.336 -3.71944 -7.1268 0
M  V30 2846 H 264.068 0.0121612 -0.675891 0
M  V30 2847 H 266.622 -0.6129 -1.96043 0
M  V30 2848 H 264.852 1.31505 -3.63653 0
M  V30 2849 H 266.541 1.01597 -3.92979 0
M  V30 2850 H 267.307 -1.359 -4.65571 0
M  V30 2851 H 263.186 -0.133713 -4.60806 0
M  V30 2852 H 266.73 -3.19665 -6.20048 0
M  V30 2853 H 262.627 -1.96306 -6.14926 0
M  V30 2854 H 263.395 -3.68503 -7.30854 0
M  V30 2855 N 266.058 1.56714 -0.166846 0
M  V30 2856 C 267.307 1.95922 0.479318 0
M  V30 2857 C 267.62 1.05529 1.6469 0
M  V30 2858 O 268.826 1.34399 2.35901 0
M  V30 2859 C 267.282 3.48359 0.90412 0
M  V30 2860 C 266.89 4.47369 -0.237621 0
M  V30 2861 C 268.634 3.96394 1.51896 0
M  V30 2862 C 266.541 5.91039 0.206561 0
M  V30 2863 H 265.471 0.731495 0.18284 0
M  V30 2864 H 268.122 1.81728 -0.254363 0
M  V30 2865 H 266.504 3.57955 1.69365 0
M  V30 2866 H 267.678 4.49485 -1.01489 0
M  V30 2867 H 265.993 4.09366 -0.762128 0
M  V30 2868 H 268.59 5.01186 1.86325 0
M  V30 2869 H 268.933 3.39075 2.41524 0
M  V30 2870 H 269.466 3.89796 0.79395 0
M  V30 2871 H 266.205 6.52221 -0.654834 0
M  V30 2872 H 265.725 5.9224 0.949282 0
M  V30 2873 H 267.404 6.43707 0.651939 0
M  V30 2874 N 267.536 -0.106894 1.57237 0
M  V30 2875 C 268.499 -1.11466 2.0027 0
M  V30 2876 C 269.499 -1.33623 0.894519 0
M  V30 2877 O 270.689 -1.29935 1.16028 0
M  V30 2878 C 267.821 -2.46646 2.35327 0
M  V30 2879 H 269.014 -0.744516 2.90512 0
M  V30 2880 H 266.567 -0.351576 1.52295 0
M  V30 2881 H 267.302 -2.88558 1.48003 0
M  V30 2882 H 267.087 -2.31915 3.16161 0
M  V30 2883 H 268.577 -3.19151 2.69318 0
M  V30 2884 N 269.014 -1.53014 -0.377408 0
M  V30 2885 C 269.977 -1.77957 -1.44444 0
M  V30 2886 C 270.977 -0.649763 -1.47087 0
M  V30 2887 O 272.167 -0.917897 -1.48055 0
M  V30 2888 C 269.299 -1.89089 -2.83651 0
M  V30 2889 H 270.492 -2.73243 -1.23606 0
M  V30 2890 H 268.045 -1.43912 -0.609844 0
M  V30 2891 H 268.78 -0.958293 -3.09818 0
M  V30 2892 H 268.565 -2.71254 -2.83132 0
M  V30 2893 H 270.055 -2.1002 -3.60945 0
M  V30 2894 N 270.492 0.636531 -1.44174 0
M  V30 2895 C 271.422 1.76003 -1.53444 0
M  V30 2896 C 272.403 1.65619 -0.387841 0
M  V30 2897 O 273.588 1.84461 -0.607257 0
M  V30 2898 C 270.718 3.14511 -1.4731 0
M  V30 2899 C 269.672 3.39677 -2.60391 0
M  V30 2900 C 268.998 4.78159 -2.39308 0
M  V30 2901 C 270.298 3.32772 -4.02567 0
M  V30 2902 H 271.992 1.68501 -2.47483 0
M  V30 2903 H 269.538 0.809237 -1.19111 0
M  V30 2904 H 271.491 3.92878 -1.52397 0
M  V30 2905 H 270.215 3.22783 -0.49785 0
M  V30 2906 H 268.874 2.63688 -2.54684 0
M  V30 2907 H 268.522 4.83128 -1.39988 0
M  V30 2908 H 268.222 4.95956 -3.15122 0
M  V30 2909 H 269.746 5.58762 -2.46205 0
M  V30 2910 H 271.16 4.01051 -4.09672 0
M  V30 2911 H 269.557 3.62104 -4.7854 0
M  V30 2912 H 270.627 2.30669 -4.2652 0
M  V30 2913 N 271.97 1.30982 0.876444 0
M  V30 2914 C 273.247 1.10942 1.61094 0
M  V30 2915 C 273.627 -0.338223 2.08373 0
M  V30 2916 O 272.975 -1.33122 1.85717 0
M  V30 2917 C 273.185 2.11789 2.77392 0
M  V30 2918 C 274.533 2.43965 3.47514 0
M  V30 2919 O 275.557 2.10166 2.87591 0
M  V30 2920 O 274.416 3.01817 4.55597 0
M  V30 2921 H 271.51 0.42667 0.708436 0
M  V30 2922 H 274.056 1.42438 0.922474 0
M  V30 2923 H 272.828 3.09194 2.39823 0
M  V30 2924 H 272.451 1.81161 3.5393 0
M  V30 2925 N 273.449 -1.08991 1.13837 0
M  V30 2926 C 274.359 -2.19301 0.833333 0
M  V30 2927 C 275.375 -1.73026 -0.183847 0
M  V30 2928 O 276.551 -2.01395 -0.0138092 0
M  V30 2929 C 273.616 -3.45323 0.308651 0
M  V30 2930 C 272.677 -4.06255 1.38764 0
M  V30 2931 C 271.91 -5.26262 0.887896 0
M  V30 2932 O 272.133 -5.69747 -0.27287 0
M  V30 2933 O 271.067 -5.78435 1.66421 0
M  V30 2934 H 274.893 -2.47854 1.75506 0
M  V30 2935 H 272.478 -1.18012 0.916166 0
M  V30 2936 H 274.36 -4.21394 0.0216739 0
M  V30 2937 H 273.035 -3.18362 -0.585431 0
M  V30 2938 H 271.942 -3.318 1.72799 0
M  V30 2939 H 273.275 -4.37452 2.25602 0
M  V30 2940 N 274.927 -0.932562 -1.27047 0
M  V30 2941 C 276.343 -0.633544 -1.46487 0
M  V30 2942 C 276.543 0.815746 -1.84249 0
M  V30 2943 O 275.599 1.59319 -1.95892 0
M  V30 2944 C 276.912 -1.58758 -2.55375 0
M  V30 2945 C 278.46 -1.59634 -2.69232 0
M  V30 2946 C 278.935 -2.53747 -3.81283 0
M  V30 2947 N 280.426 -2.51982 -3.88664 0
M  V30 2948 C 281.161 -3.21491 -4.74796 0
M  V30 2949 N 280.657 -4.00395 -5.65381 0
M  V30 2950 N 282.45 -3.10485 -4.68568 0
M  V30 2951 H 274.601 -1.86946 -1.00821 0
M  V30 2952 H 276.864 -0.802897 -0.504044 0
M  V30 2953 H 276.57 -2.62172 -2.34432 0
M  V30 2954 H 276.444 -1.33301 -3.52861 0
M  V30 2955 H 278.831 -0.569488 -2.89553 0
M  V30 2956 H 278.912 -1.89142 -1.72218 0
M  V30 2957 H 278.556 -3.56545 -3.61715 0
M  V30 2958 H 278.486 -2.21532 -4.77735 0
M  V30 2959 H 280.977 -1.94681 -3.23895 0
M  V30 2960 H 281.29 -4.50406 -6.27976 0
M  V30 2961 H 279.635 -4.04498 -5.65161 0
M  V30 2962 H 282.826 -2.48331 -3.96799 0
M  V30 2963 H 282.999 -3.64925 -5.35475 0
M  V30 2964 N 276.405 1.4127 -0.698611 0
M  V30 2965 C 277.335 2.33447 -0.049629 0
M  V30 2966 C 278.316 1.51982 0.763898 0
M  V30 2967 O 279.501 1.80509 0.716257 0
M  V30 2968 C 276.631 3.35828 0.885267 0
M  V30 2969 C 275.585 4.27627 0.178613 0
M  V30 2970 C 274.911 5.20406 1.22807 0
M  V30 2971 C 276.211 5.13459 -0.956933 0
M  V30 2972 H 277.905 2.87966 -0.81951 0
M  V30 2973 H 275.451 1.38461 -0.395538 0
M  V30 2974 H 277.404 3.9924 1.34854 0
M  V30 2975 H 276.128 2.79666 1.68685 0
M  V30 2976 H 274.787 3.65643 -0.26466 0
M  V30 2977 H 274.435 4.60558 2.02226 0
M  V30 2978 H 274.135 5.82661 0.760239 0
M  V30 2979 H 275.659 5.86695 1.69179 0
M  V30 2980 H 277.073 5.70421 -0.573805 0
M  V30 2981 H 275.47 5.8467 -1.35205 0
M  V30 2982 H 276.54 4.50443 -1.79524 0
M  V30 2983 N 277.883 0.443576 1.51229 0
M  V30 2984 C 278.831 -0.37904 2.29491 0
M  V30 2985 C 279.825 -1.0153 1.35603 0
M  V30 2986 O 281.031 -0.94955 1.52917 0
M  V30 2987 H 277.406 -0.141053 0.738653 0
M  V30 2988 H 279.377 0.301799 2.9687 0
M  V30 2989 C 278.126 -1.46426 3.15364 0
M  V30 2990 H 277.449 -0.984037 3.87501 0
M  V30 2991 H 278.889 -2.01297 3.7317 0
M  V30 2992 C 277.348 -2.45099 2.31146 0
M  V30 2993 O 277.878 -3.49773 1.9754 0
M  V30 2994 N 276.084 -2.16139 1.94249 0
M  V30 2995 H 275.631 -1.31044 2.21777 0
M  V30 2996 H 275.589 -2.82398 1.38198 0
M  V30 2997 N 279.361 -1.56624 0.175154 0
M  V30 2998 C 280.638 -1.88688 -0.515373 0
M  V30 2999 C 281.018 -1.08564 -1.81044 0
M  V30 3000 O 280.366 -0.180703 -2.27784 0
M  V30 3001 C 280.576 -3.40768 -0.753552 0
M  V30 3002 C 281.924 -4.10587 -1.08184 0
M  V30 3003 O 282.948 -3.46106 -0.841961 0
M  V30 3004 O 281.807 -5.24512 -1.53459 0
M  V30 3005 H 278.901 -0.78301 -0.26613 0
M  V30 3006 H 281.447 -1.68347 0.213877 0
M  V30 3007 H 280.219 -3.90965 0.161829 0
M  V30 3008 H 279.842 -3.66733 -1.53598 0
M  V30 3009 N 280.839 0.0985539 -1.57292 0
M  V30 3010 C 281.789 1.1261 -1.9825 0
M  V30 3011 C 282.773 1.35961 -0.860426 0
M  V30 3012 O 283.965 1.36711 -1.12424 0
M  V30 3013 C 281.094 2.44727 -2.40757 0
M  V30 3014 C 280.18 2.24764 -3.59642 0
M  V30 3015 N 280.571 1.74661 -4.74687 0
M  V30 3016 C 278.869 2.55344 -3.65672 0
M  V30 3017 C 279.57 1.68887 -5.56644 0
M  V30 3018 N 278.546 2.13976 -4.99715 0
M  V30 3019 H 282.348 0.731604 -2.84648 0
M  V30 3020 H 279.862 0.306029 -1.59491 0
M  V30 3021 H 281.859 3.19072 -2.68326 0
M  V30 3022 H 280.519 2.84917 -1.55733 0
M  V30 3023 H 281.53 1.43908 -4.97505 0
M  V30 3024 H 278.207 2.99081 -2.91302 0
M  V30 3025 H 279.597 1.3123 -6.5896 0
M  V30 3026 N 282.317 1.53212 0.369288 0
M  V30 3027 C 283.565 1.68881 1.11012 0
M  V30 3028 C 283.886 0.441285 1.89941 0
M  V30 3029 O 283.156 -0.544623 1.88177 0
M  V30 3030 H 281.736 0.622569 0.412816 0
M  V30 3031 H 284.398 1.90391 0.416802 0
M  V30 3032 H 283.494 2.54822 1.80201 0
M  V30 3033 N 283.795 -0.628877 1.44509 0
M  V30 3034 C 285.025 -1.41349 1.50678 0
M  V30 3035 C 285.433 -1.88745 0.131075 0
M  V30 3036 O 284.776 -1.61592 -0.87371 0
M  V30 3037 C 284.838 -2.66608 2.41165 0
M  V30 3038 C 284.502 -2.40993 3.88293 0
M  V30 3039 C 285.499 -2.0268 4.78766 0
M  V30 3040 C 283.184 -2.54563 4.33016 0
M  V30 3041 C 285.178 -1.78269 6.11963 0
M  V30 3042 C 282.865 -2.29766 5.6626 0
M  V30 3043 C 283.863 -1.91678 6.55552 0
M  V30 3044 O 283.551 -1.67158 7.86329 0
M  V30 3045 H 283.283 -0.439851 0.51333 0
M  V30 3046 H 285.837 -0.776084 1.90174 0
M  V30 3047 H 284.067 -3.32994 1.96601 0
M  V30 3048 H 285.756 -3.28615 2.38259 0
M  V30 3049 H 286.522 -1.91751 4.45485 0
M  V30 3050 H 282.401 -2.83179 3.63773 0
M  V30 3051 H 285.945 -1.48465 6.81619 0
M  V30 3052 H 281.842 -2.40306 5.99102 0
M  V30 3053 H 282.61 -1.81386 7.98149 0
M  V30 3054 N 285.273 -1.31445 -0.869486 0
M  V30 3055 C 286.522 -1.20517 -1.61736 0
M  V30 3056 C 286.835 0.235341 -1.94179 0
M  V30 3057 O 288.041 0.466312 -2.67465 0
M  V30 3058 C 286.497 -2.10982 -2.91573 0
M  V30 3059 C 286.105 -3.60032 -2.66611 0
M  V30 3060 C 287.849 -2.08856 -3.69567 0
M  V30 3061 C 285.756 -4.42503 -3.92358 0
M  V30 3062 H 284.686 -0.447493 -0.606849 0
M  V30 3063 H 287.337 -1.56303 -0.96133 0
M  V30 3064 H 285.719 -1.68095 -3.58553 0
M  V30 3065 H 286.893 -4.11167 -2.08035 0
M  V30 3066 H 285.208 -3.64139 -2.0197 0
M  V30 3067 H 287.805 -2.67716 -4.62852 0
M  V30 3068 H 288.148 -1.07582 -4.02159 0
M  V30 3069 H 288.681 -2.49945 -3.09471 0
M  V30 3070 H 285.42 -5.44533 -3.64916 0
M  V30 3071 H 284.94 -3.96125 -4.50383 0
M  V30 3072 H 286.619 -4.54741 -4.60238 0
M  V30 3073 N 286.751 1.08385 -1.14413 0
M  V30 3074 C 287.997 1.81044 -0.913834 0
M  V30 3075 C 288.33 1.86004 0.558209 0
M  V30 3076 O 287.605 1.33606 1.4135 0
M  V30 3077 C 287.888 3.26648 -1.51569 0
M  V30 3078 C 287.741 3.29895 -3.0576 0
M  V30 3079 C 289.06 4.23629 -1.19273 0
M  V30 3080 H 286.179 0.65727 -0.333414 0
M  V30 3081 H 288.821 1.26896 -1.41412 0
M  V30 3082 H 286.971 3.72889 -1.09023 0
M  V30 3083 H 288.643 2.91977 -3.57137 0
M  V30 3084 H 286.886 2.69163 -3.40197 0
M  V30 3085 H 287.557 4.32516 -3.42977 0
M  V30 3086 H 290.033 3.85727 -1.56057 0
M  V30 3087 H 288.909 5.23822 -1.64017 0
M  V30 3088 H 289.17 4.41968 -0.108068 0
M  V30 3089 N 288.23 0.939286 1.26551 0
M  V30 3090 C 289.641 0.628782 1.75793 0
M  V30 3091 C 289.992 -0.856046 1.7654 0
M  V30 3092 O 289.117 -1.66994 1.3763 0
M  V30 3093 C 289.712 1.13465 3.19235 0
M  V30 3094 C 288.271 0.874601 3.66098 0
M  V30 3095 C 287.418 1.28667 2.45642 0
M  V30 3096 H 290.369 1.1178 1.12654 0
M  V30 3097 H 290.39 0.487609 3.77363 0
M  V30 3098 H 289.902 2.21535 3.1866 0
M  V30 3099 H 288.003 -0.191793 3.72106 0
M  V30 3100 H 288.116 1.50028 4.55004 0
M  V30 3101 H 286.48 0.705109 2.44745 0
M  V30 3102 H 287.263 2.37625 2.47769 0
M  V30 3103 N 289.708 -1.40897 0.706093 0
M  V30 3104 C 290.956 -2.00657 0.241054 0
M  V30 3105 C 291.277 -1.56241 -1.16678 0
M  V30 3106 O 290.547 -0.79765 -1.78926 0
M  V30 3107 H 289.127 -0.742018 0.0861308 0
M  V30 3108 H 291.789 -1.72372 0.909604 0
M  V30 3109 H 290.885 -3.10958 0.266705 0
M  V30 3110 N 291.186 -0.45159 -1.50991 0
M  V30 3111 C 292.116 0.342898 -2.30969 0
M  V30 3112 C 293.097 1.00815 -1.37005 0
M  V30 3113 O 294.282 1.00907 -1.65926 0
M  V30 3114 C 291.412 1.43637 -3.16205 0
M  V30 3115 C 290.366 0.893818 -4.18563 0
M  V30 3116 C 289.692 2.08411 -4.92411 0
M  V30 3117 C 290.992 -0.0815568 -5.22236 0
M  V30 3118 H 292.686 -0.324556 -2.97636 0
M  V30 3119 H 290.232 -0.157531 -1.43136 0
M  V30 3120 H 292.185 1.9995 -3.70942 0
M  V30 3121 H 290.909 2.13232 -2.47386 0
M  V30 3122 H 289.568 0.352798 -3.64898 0
M  V30 3123 H 289.216 2.76658 -4.20082 0
M  V30 3124 H 288.916 1.72741 -5.61636 0
M  V30 3125 H 290.44 2.65251 -5.49976 0
M  V30 3126 H 291.854 0.391742 -5.7196 0
M  V30 3127 H 290.251 -0.351551 -5.99069 0
M  V30 3128 H 291.321 -1.01374 -4.74185 0
M  V30 3129 N 292.664 1.56529 -0.183458 0
M  V30 3130 C 293.912 1.96855 0.457452 0
M  V30 3131 C 294.233 1.07104 1.62953 0
M  V30 3132 O 293.503 0.139887 1.954 0
M  V30 3133 H 292.083 0.72693 0.171992 0
M  V30 3134 H 294.745 1.93056 -0.267476 0
M  V30 3135 H 293.841 3.01423 0.809368 0
M  V30 3136 N 294.142 -0.090211 1.57342 0
M  V30 3137 C 295.419 -0.824761 1.77361 0
M  V30 3138 C 295.799 -1.96698 0.76637 0
M  V30 3139 O 295.147 -2.27586 -0.204179 0
M  V30 3140 C 295.357 -1.31481 3.23286 0
M  V30 3141 C 296.705 -1.75563 3.86604 0
M  V30 3142 O 297.729 -1.41093 3.27065 0
M  V30 3143 O 296.588 -2.39317 4.91314 0
M  V30 3144 H 293.682 -0.393776 0.727234 0
M  V30 3145 H 296.228 -0.0717138 1.69548 0
M  V30 3146 H 295 -0.496671 3.88135 0
M  V30 3147 H 294.623 -2.12973 3.35751 0
M  V30 3148 N 295.62 -1.53406 -0.361157 0
M  V30 3149 C 296.583 -1.79479 -1.42548 0
M  V30 3150 C 297.583 -0.665327 -1.4639 0
M  V30 3151 O 298.773 -0.933549 -1.47073 0
M  V30 3152 C 295.905 -1.92087 -2.8163 0
M  V30 3153 H 297.098 -2.74538 -1.20701 0
M  V30 3154 H 294.651 -1.4455 -0.594546 0
M  V30 3155 H 295.386 -0.991099 -3.08784 0
M  V30 3156 H 295.171 -2.74241 -2.80239 0
M  V30 3157 H 296.661 -2.13836 -3.58697 0
M  V30 3158 N 297.098 0.621204 -1.44841 0
M  V30 3159 C 298.346 1.37783 -1.47852 0
M  V30 3160 C 298.667 1.94653 -0.116224 0
M  V30 3161 O 297.937 1.76367 0.852737 0
M  V30 3162 H 296.517 0.511453 -0.544449 0
M  V30 3163 H 299.179 0.730446 -1.80694 0
M  V30 3164 H 298.275 2.20414 -2.20961 0
M  V30 3165 N 298.576 1.31904 0.862503 0
M  V30 3166 C 299.853 1.12644 1.59908 0
M  V30 3167 C 300.233 -0.316104 2.0872 0
M  V30 3168 O 299.581 -1.31145 1.87118 0
M  V30 3169 C 299.791 2.1472 2.7513 0
M  V30 3170 C 301.139 2.47637 3.44907 0
M  V30 3171 O 302.163 2.13205 2.85346 0
M  V30 3172 O 301.022 3.06632 4.52371 0
M  V30 3173 H 298.116 0.43416 0.703871 0
M  V30 3174 H 300.662 1.43408 0.907314 0
M  V30 3175 H 299.434 3.1172 2.3653 0
M  V30 3176 H 299.057 1.84905 3.51989 0
M  V30 3177 N 300.054 -1.07777 1.14986 0
M  V30 3178 C 301.47 -1.32373 0.891596 0
M  V30 3179 C 301.67 -1.9609 -0.463788 0
M  V30 3180 O 300.726 -2.21801 -1.20667 0
M  V30 3181 C 302.039 -2.21905 2.02925 0
M  V30 3182 C 303.587 -2.35367 2.06329 0
M  V30 3183 C 304.062 -3.28245 3.19405 0
M  V30 3184 N 305.553 -3.35824 3.19024 0
M  V30 3185 C 306.288 -4.07739 4.03158 0
M  V30 3186 N 305.784 -4.82306 4.97346 0
M  V30 3187 N 307.577 -4.03635 3.91197 0
M  V30 3188 H 299.728 -0.648039 2.02273 0
M  V30 3189 H 301.991 -0.348149 0.881757 0
M  V30 3190 H 301.697 -1.82342 3.0074 0
M  V30 3191 H 301.571 -3.22407 1.95789 0
M  V30 3192 H 303.958 -2.74186 1.09116 0
M  V30 3193 H 304.039 -1.34585 2.17533 0
M  V30 3194 H 303.683 -2.90146 4.16867 0
M  V30 3195 H 303.613 -4.28971 3.05437 0
M  V30 3196 H 306.104 -2.8267 2.50811 0
M  V30 3197 H 306.417 -5.34661 5.57994 0
M  V30 3198 H 304.762 -4.81337 5.01338 0
M  V30 3199 H 307.953 -3.44491 3.16928 0
M  V30 3200 H 308.126 -4.59417 4.5699 0
M  V30 3201 N 301.532 -0.945985 -1.26051 0
M  V30 3202 C 302.462 -0.477172 -2.28572 0
M  V30 3203 C 303.443 0.472032 -1.63419 0
M  V30 3204 O 304.628 0.372853 -1.90587 0
M  V30 3205 C 301.758 0.253975 -3.4637 0
M  V30 3206 C 300.712 -0.609135 -4.23643 0
M  V30 3207 C 300.038 0.252252 -5.34105 0
M  V30 3208 C 301.338 -1.8829 -4.8718 0
M  V30 3209 H 303.032 -1.33402 -2.68038 0
M  V30 3210 H 300.578 -0.642904 -1.28852 0
M  V30 3211 H 302.531 0.593016 -4.17207 0
M  V30 3212 H 301.255 1.145 -3.05871 0
M  V30 3213 H 299.914 -0.931138 -3.54578 0
M  V30 3214 H 299.562 1.14278 -4.89846 0
M  V30 3215 H 299.262 -0.32188 -5.86718 0
M  V30 3216 H 300.786 0.586454 -6.07777 0
M  V30 3217 H 302.2 -1.61081 -5.50205 0
M  V30 3218 H 300.597 -2.40199 -5.49931 0
M  V30 3219 H 301.667 -2.59134 -4.09851 0
M  V30 3220 N 303.011 1.40521 -0.713556 0
M  V30 3221 C 304.258 2.00923 -0.25219 0
M  V30 3222 C 304.586 1.56571 1.15395 0
M  V30 3223 O 303.841 0.775874 1.79663 0
M  V30 3224 C 304.14 3.56317 -0.278 0
M  V30 3225 C 303.806 4.20246 -1.63415 0
M  V30 3226 C 302.468 4.37422 -2.00538 0
M  V30 3227 C 304.82 4.55923 -2.52554 0
M  V30 3228 C 302.148 4.87558 -3.2635 0
M  V30 3229 C 304.5 5.07458 -3.77716 0
M  V30 3230 C 303.164 5.22843 -4.14959 0
M  V30 3231 H 302.434 0.735231 -0.0922829 0
M  V30 3232 H 305.081 1.68161 -0.916188 0
M  V30 3233 H 303.386 3.88976 0.469567 0
M  V30 3234 H 305.083 4.00883 0.0967819 0
M  V30 3235 H 301.673 4.07263 -1.33546 0
M  V30 3236 H 305.857 4.42291 -2.25149 0
M  V30 3237 H 301.113 4.97654 -3.55176 0
M  V30 3238 H 305.287 5.34041 -4.4696 0
M  V30 3239 H 302.914 5.61454 -5.12516 0
M  V30 3240 N 304.489 0.459591 1.5075 0
M  V30 3241 C 305.737 -0.0991532 2.01857 0
M  V30 3242 C 306.058 -1.41247 1.34441 0
M  V30 3243 O 305.328 -1.89775 0.486022 0
M  V30 3244 H 303.908 -0.039633 0.745948 0
M  V30 3245 H 306.57 0.607387 1.85194 0
M  V30 3246 H 305.666 -0.258998 3.11023 0
M  V30 3247 N 305.967 -1.56429 0.191757 0
M  V30 3248 C 307.195 -2.01867 -0.453586 0
M  V30 3249 C 307.61 -1.07191 -1.5542 0
M  V30 3250 O 306.967 -0.0762108 -1.82341 0
M  V30 3251 C 307.018 -3.47017 -1.013 0
M  V30 3252 O 306.739 -4.38078 0.0437005 0
M  V30 3253 C 308.24 -4.07956 -1.73456 0
M  V30 3254 H 305.46 -0.661211 -0.114199 0
M  V30 3255 H 308.004 -2.02295 0.299483 0
M  V30 3256 H 306.159 -3.47298 -1.71647 0
M  V30 3257 H 306.573 -5.23178 -0.372212 0
M  V30 3258 H 308.047 -5.1138 -2.07833 0
M  V30 3259 H 308.524 -3.51222 -2.63704 0
M  V30 3260 H 309.13 -4.11437 -1.07702 0
M  V30 3261 N 307.445 0.0818655 -1.57387 0
M  V30 3262 C 308.392 1.09834 -2.0299 0
M  V30 3263 C 309.362 1.39043 -0.908639 0
M  V30 3264 O 310.547 1.50282 -1.17559 0
M  V30 3265 C 307.687 2.40971 -2.47037 0
M  V30 3266 C 306.8 2.18379 -3.7274 0
M  V30 3267 C 305.935 3.43008 -4.0561 0
M  V30 3268 C 304.974 3.15736 -5.24383 0
M  V30 3269 N 304.111 4.32667 -5.52941 0
M  V30 3270 H 308.951 0.702472 -2.89602 0
M  V30 3271 H 306.488 0.33531 -1.43227 0
M  V30 3272 H 308.446 3.1752 -2.70623 0
M  V30 3273 H 307.076 2.78379 -1.63417 0
M  V30 3274 H 306.128 1.32569 -3.56552 0
M  V30 3275 H 307.44 1.94227 -4.59431 0
M  V30 3276 H 306.594 4.27958 -4.30043 0
M  V30 3277 H 305.333 3.70225 -3.17466 0
M  V30 3278 H 304.338 2.2918 -4.99757 0
M  V30 3279 H 305.563 2.8985 -6.14136 0
M  V30 3280 H 303.509 4.59935 -4.67756 0
M  V30 3281 H 303.426 4.11753 -6.34031 0
M  V30 3282 H 304.694 5.18644 -5.81918 0
M  V30 3283 O 308.962 1.59916 0.225637 0
M  V30 3284 H 309.653 1.73205 0.867161 0
M  V30 END ATOM
M  V30 BEGIN BOND
M  V30 END BOND
M  V30 END CTAB
M  END
$$$$
