drugbank_target|Q5KUI2 Serine hydroxymethyltransferase (DB03256)
 OpenBabel12092119593D

  0  0  0     0  0            999 V3000
M  V30 BEGIN CTAB
M  V30 COUNTS 6347 6412 0 0 0
M  V30 BEGIN ATOM
M  V30 1 H -0.908 1.98254 -0.117106 0
M  V30 2 N 0 1.576 0 0
M  V30 3 C 0.933 2.03868 1.02534 0
M  V30 4 C 1.911 0.928543 1.3348 0
M  V30 5 O 3.095 1.19667 1.45644 0
M  V30 6 C 0.222 2.43627 2.35294 0
M  V30 7 C -0.732 3.65373 2.2001 0
M  V30 8 S 0.101 5.13292 1.52614 0
M  V30 9 C 1.257 5.56322 2.86805 0
M  V30 10 H 1.49 2.90518 0.631377 0
M  V30 11 H -0.977 1.52953 0.210867 0
M  V30 12 H 0.981 2.67203 3.11629 0
M  V30 13 H -0.358 1.57376 2.7183 0
M  V30 14 H -1.165 3.90944 3.18086 0
M  V30 15 H -1.563 3.418 1.51819 0
M  V30 16 H 0.729 5.58782 3.83104 0
M  V30 17 H 1.672 6.56266 2.65933 0
M  V30 18 H 2.08 4.83886 2.90714 0
M  V30 19 N 1.4781 -0.272755 1.55222 0
M  V30 20 C 2.4261 -1.35705 1.88909 0
M  V30 21 C 3.4201 -1.5112 0.765456 0
M  V30 22 O 4.6261 -1.52901 0.949802 0
M  V30 23 H 1.0011 -0.453868 0.59959 0
M  V30 24 H 2.9721 -1.04544 2.79487 0
M  V30 25 C 1.7211 -2.71049 2.17779 0
M  V30 26 H 1.0441 -2.59979 3.03728 0
M  V30 27 H 2.4841 -3.45858 2.45272 0
M  V30 28 C 0.9431 -3.22165 0.985473 0
M  V30 29 O 1.4731 -4.01096 0.220233 0
M  V30 30 N -0.3209 -2.7985 0.783108 0
M  V30 31 H -0.7739 -2.15775 1.40708 0
M  V30 32 H -0.8159 -3.14397 -0.0130392 0
M  V30 33 N 2.9562 -1.48159 -0.537278 0
M  V30 34 C 4.1862 -1.59223 -1.3165 0
M  V30 35 C 4.5942 -0.248849 -1.87556 0
M  V30 36 O 3.9372 0.770949 -1.6674 0
M  V30 37 C 3.9992 -2.57365 -2.51005 0
M  V30 38 C 3.6632 -4.02603 -2.16239 0
M  V30 39 C 4.6602 -4.90503 -1.72344 0
M  V30 40 C 2.3452 -4.48088 -2.26986 0
M  V30 41 C 4.3392 -6.21913 -1.39651 0
M  V30 42 C 2.0262 -5.7952 -1.93906 0
M  V30 43 C 3.0242 -6.66255 -1.50309 0
M  V30 44 O 2.7122 -7.95243 -1.17659 0
M  V30 45 H 2.4442 -0.539831 -0.406889 0
M  V30 46 H 4.9982 -1.94655 -0.655641 0
M  V30 47 H 3.2282 -2.1704 -3.20048 0
M  V30 48 H 4.9172 -2.58342 -3.13072 0
M  V30 49 H 5.6832 -4.56604 -1.63517 0
M  V30 50 H 1.5622 -3.80769 -2.59877 0
M  V30 51 H 5.1062 -6.89569 -1.0555 0
M  V30 52 H 1.0032 -6.12957 -2.02371 0
M  V30 53 H 1.7712 -8.0793 -1.31119 0
M  V30 54 N 4.4343 0.785586 -1.36625 0
M  V30 55 C 5.3643 1.91259 -1.33949 0
M  V30 56 C 6.3453 1.68795 -0.210325 0
M  V30 57 O 7.5303 1.89854 -0.408561 0
M  V30 58 C 4.6603 3.28339 -1.13186 0
M  V30 59 C 3.6143 3.65335 -2.22967 0
M  V30 60 C 2.9403 5.00806 -1.87342 0
M  V30 61 C 4.2403 3.7352 -3.65075 0
M  V30 62 H 5.9343 1.93755 -2.28253 0
M  V30 63 H 3.4803 0.930788 -1.09874 0
M  V30 64 H 5.4333 4.06804 -1.09948 0
M  V30 65 H 4.1573 3.2624 -0.153332 0
M  V30 66 H 2.8163 2.89169 -2.25337 0
M  V30 67 H 2.4643 4.95233 -0.880545 0
M  V30 68 H 2.1643 5.26529 -2.60846 0
M  V30 69 H 3.6883 5.81687 -1.85667 0
M  V30 70 H 5.1023 4.42168 -3.64911 0
M  V30 71 H 3.4993 4.10731 -4.37516 0
M  V30 72 H 4.5693 2.74527 -3.99703 0
M  V30 73 N 5.9124 1.20967 1.01018 0
M  V30 74 C 7.3234 1.02319 1.56165 0
M  V30 75 C 7.6744 -0.418546 1.91684 0
M  V30 76 O 6.7994 -1.30096 1.72928 0
M  V30 77 C 7.3944 1.85109 2.8376 0
M  V30 78 C 5.9534 1.70809 3.35412 0
M  V30 79 C 5.1004 1.82643 2.08655 0
M  V30 80 H 8.0514 1.35065 0.833255 0
M  V30 81 H 8.0724 1.35827 3.55431 0
M  V30 82 H 7.5844 2.90035 2.57878 0
M  V30 83 H 5.6854 0.685464 3.66241 0
M  V30 84 H 5.7984 2.52467 4.07182 0
M  V30 85 H 4.1624 1.25896 2.21409 0
M  V30 86 H 4.9454 2.89066 1.85191 0
M  V30 87 N 7.3905 -1.2043 1.01659 0
M  V30 88 C 8.3225 -2.22626 0.544988 0
M  V30 89 C 9.3355 -1.58479 -0.372609 0
M  V30 90 O 10.5245 -1.77679 -0.170958 0
M  V30 91 C 7.6245 -3.38141 -0.22663 0
M  V30 92 C 6.7975 -4.31877 0.692876 0
M  V30 93 C 5.8565 -5.26191 -0.0311616 0
M  V30 94 O 4.8825 -5.6612 0.591343 0
M  V30 95 N 6.0845 -5.65618 -1.30601 0
M  V30 96 H 8.8495 -2.63716 1.42388 0
M  V30 97 H 6.4105 -1.34971 0.894116 0
M  V30 98 H 8.4025 -3.98239 -0.72024 0
M  V30 99 H 6.9725 -2.95943 -1.00681 0
M  V30 100 H 6.1925 -3.69746 1.36679 0
M  V30 101 H 7.4805 -4.91426 1.31824 0
M  V30 102 H 6.8785 -5.3519 -1.83269 0
M  V30 103 H 5.4355 -6.28025 -1.74435 0
M  V30 104 N 8.8686 -0.792821 -1.36206 0
M  V30 105 C 9.8006 -0.151469 -2.28699 0
M  V30 106 C 10.8136 0.641262 -1.49638 0
M  V30 107 O 12.0026 0.475885 -1.72039 0
M  V30 108 C 9.1026 0.808424 -3.29117 0
M  V30 109 C 8.2756 0.0650202 -4.37352 0
M  V30 110 C 7.3346 0.941358 -5.17711 0
M  V30 111 O 6.3606 0.397352 -5.67811 0
M  V30 112 N 7.5626 2.2652 -5.3448 0
M  V30 113 H 10.3276 -0.945982 -2.84379 0
M  V30 114 H 7.8886 -0.647032 -1.48409 0
M  V30 115 H 9.8806 1.3986 -3.79765 0
M  V30 116 H 8.4506 1.5038 -2.74052 0
M  V30 117 H 7.6706 -0.706255 -3.87822 0
M  V30 118 H 8.9586 -0.447847 -5.06825 0
M  V30 119 H 8.3566 2.73128 -4.95396 0
M  V30 120 H 6.9136 2.80493 -5.88359 0
M  V30 121 N 10.3467 1.47872 -0.545128 0
M  V30 122 C 11.6237 1.9554 0.0485222 0
M  V30 123 C 12.0037 1.4876 1.49779 0
M  V30 124 O 11.3517 0.720925 2.16829 0
M  V30 125 C 11.5617 3.48898 -0.084417 0
M  V30 126 C 12.9097 4.24547 0.0671239 0
M  V30 127 O 13.9337 3.56198 -0.0113649 0
M  V30 128 O 12.7927 5.45999 0.233882 0
M  V30 129 H 9.8867 0.823957 0.0708773 0
M  V30 130 H 12.4327 1.58327 -0.610798 0
M  V30 131 H 11.2047 3.75714 -1.09337 0
M  V30 132 H 10.8277 3.92845 0.613066 0
M  V30 133 N 11.8248 0.280983 1.55075 0
M  V30 134 C 13.2358 -0.215629 1.85451 0
M  V30 135 C 13.5868 -1.54991 1.203 0
M  V30 136 O 12.7118 -2.10699 0.493435 0
M  V30 137 C 13.3068 -0.398026 3.36454 0
M  V30 138 C 11.8658 -0.838866 3.66933 0
M  V30 139 C 11.0128 0.064458 2.77225 0
M  V30 140 H 13.9638 0.502601 1.50531 0
M  V30 141 H 13.9848 -1.23569 3.59876 0
M  V30 142 H 13.4968 0.573241 3.83843 0
M  V30 143 H 11.5978 -1.8214 3.25048 0
M  V30 144 H 11.7108 -0.672123 4.74362 0
M  V30 145 H 10.0748 -0.452863 2.50642 0
M  V30 146 H 10.8578 1.03172 3.2743 0
M  V30 147 N 13.3029 -1.57598 0.00835791 0
M  V30 148 C 14.2349 -2.05811 -1.00868 0
M  V30 149 C 15.2479 -0.977579 -1.30182 0
M  V30 150 O 16.4369 -1.25421 -1.27011 0
M  V30 151 C 13.5369 -2.45016 -2.34137 0
M  V30 152 C 12.7099 -3.75903 -2.23643 0
M  V30 153 C 11.7689 -4.01884 -3.3967 0
M  V30 154 O 10.7949 -4.72433 -3.17483 0
M  V30 155 N 11.9969 -3.50432 -4.62793 0
M  V30 156 H 14.7619 -2.93684 -0.597458 0
M  V30 157 H 12.3229 -1.60909 -0.178852 0
M  V30 158 H 14.3149 -2.59506 -3.10546 0
M  V30 159 H 12.8849 -1.62618 -2.66972 0
M  V30 160 H 12.1049 -3.7141 -1.32091 0
M  V30 161 H 13.3929 -4.61695 -2.13812 0
M  V30 162 H 12.7909 -2.93317 -4.83716 0
M  V30 163 H 11.3479 -3.70236 -5.3644 0
M  V30 164 N 14.781 0.264519 -1.55364 0
M  V30 165 C 16.027 0.99646 -1.76631 0
M  V30 166 C 16.36 1.85632 -0.570478 0
M  V30 167 O 15.635 1.89647 0.43175 0
M  V30 168 C 15.918 1.87187 -3.07625 0
M  V30 169 C 15.771 1.04138 -4.37579 0
M  V30 170 C 17.09 2.85749 -3.34717 0
M  V30 171 H 14.209 0.360841 -0.642622 0
M  V30 172 H 16.851 0.268218 -1.88097 0
M  V30 173 H 15.001 2.49279 -2.9798 0
M  V30 174 H 16.673 0.440517 -4.59192 0
M  V30 175 H 14.916 0.345115 -4.32425 0
M  V30 176 H 15.587 1.68729 -5.2558 0
M  V30 177 H 18.063 2.33793 -3.4421 0
M  V30 178 H 16.939 3.44136 -4.27623 0
M  V30 179 H 17.2 3.61311 -2.54768 0
M  V30 180 N 16.2591 1.48442 0.529413 0
M  V30 181 C 17.5061 1.56488 1.28521 0
M  V30 182 C 17.8341 0.239042 1.93025 0
M  V30 183 O 17.0891 -0.770713 1.79885 0
M  V30 184 C 17.3881 2.6523 2.39558 0
M  V30 185 C 17.0541 4.07648 1.92702 0
M  V30 186 C 15.7161 4.46411 1.79641 0
M  V30 187 C 18.0681 4.96896 1.573 0
M  V30 188 C 15.3961 5.72226 1.29514 0
M  V30 189 C 17.7481 6.23202 1.08636 0
M  V30 190 C 16.4121 6.60821 0.941919 0
M  V30 191 H 15.6821 0.572631 0.470292 0
M  V30 192 H 18.3291 1.82161 0.59072 0
M  V30 193 H 16.6341 2.33419 3.14679 0
M  V30 194 H 18.3311 2.68671 2.97686 0
M  V30 195 H 14.9211 3.77036 2.03819 0
M  V30 196 H 19.1051 4.67626 1.66251 0
M  V30 197 H 14.3611 6.00097 1.17019 0
M  V30 198 H 18.5351 6.91753 0.803136 0
M  V30 199 H 16.1621 7.58198 0.5513 0
M  V30 200 N 17.7372 -0.778329 1.37039 0
M  V30 201 C 18.7002 -1.87301 1.32102 0
M  V30 202 C 19.7002 -1.59198 0.226405 0
M  V30 203 O 20.8902 -1.67403 0.481861 0
M  V30 204 C 18.0222 -3.24309 1.05055 0
M  V30 205 H 19.2152 -1.93093 2.29467 0
M  V30 206 H 16.7682 -0.977358 1.21973 0
M  V30 207 H 17.5032 -3.24196 0.0819373 0
M  V30 208 H 17.2882 -3.46098 1.84279 0
M  V30 209 H 18.7782 -4.04382 1.04234 0
M  V30 210 N 19.2153 -1.21501 -1.00376 0
M  V30 211 C 20.1783 -0.976927 -2.07337 0
M  V30 212 C 21.1783 0.0525322 -1.60714 0
M  V30 213 O 22.3683 -0.184869 -1.73216 0
M  V30 214 C 19.5003 -0.473423 -3.37597 0
M  V30 215 H 20.6933 -1.92587 -2.29892 0
M  V30 216 H 18.2463 -1.03217 -1.17371 0
M  V30 217 H 18.9813 0.480379 -3.20722 0
M  V30 218 H 18.7663 -1.216 -3.72768 0
M  V30 219 H 20.2563 -0.32675 -4.1632 0
M  V30 220 N 20.6934 1.19889 -1.02296 0
M  V30 221 C 21.9424 1.88743 -0.711257 0
M  V30 222 C 22.2554 1.80112 0.762817 0
M  V30 223 O 23.4614 2.44161 1.18733 0
M  V30 224 C 21.9174 3.38525 -1.22185 0
M  V30 225 C 21.5254 3.55727 -2.72328 0
M  V30 226 C 23.2694 4.12893 -0.985864 0
M  V30 227 C 21.1764 4.99369 -3.16835 0
M  V30 228 H 20.1064 0.706885 -0.262353 0
M  V30 229 H 22.7574 1.35586 -1.23648 0
M  V30 230 H 21.1394 3.91044 -0.624571 0
M  V30 231 H 22.3134 3.13564 -3.3766 0
M  V30 232 H 20.6284 2.94739 -2.9414 0
M  V30 233 H 23.2254 5.18813 -1.29374 0
M  V30 234 H 23.5684 4.16228 0.0775055 0
M  V30 235 H 24.1014 3.66494 -1.54684 0
M  V30 236 H 20.8404 5.01193 -4.22476 0
M  V30 237 H 20.3604 5.42317 -2.56228 0
M  V30 238 H 22.0394 5.67988 -3.09837 0
M  V30 239 N 22.1715 0.800033 1.35784 0
M  V30 240 C 23.0815 0.207204 2.33683 0
M  V30 241 C 24.0975 -0.64631 1.61551 0
M  V30 242 O 25.2735 -0.559604 1.93469 0
M  V30 243 C 22.3385 -0.639659 3.40748 0
M  V30 244 C 21.3995 0.233585 4.28664 0
M  V30 245 C 20.6325 -0.572954 5.30616 0
M  V30 246 O 20.8555 -1.80816 5.40982 0
M  V30 247 O 19.7895 0.0327285 6.01891 0
M  V30 248 H 23.6155 1.01692 2.86169 0
M  V30 249 H 21.2005 0.561691 1.38439 0
M  V30 250 H 23.0825 -1.12223 4.06182 0
M  V30 251 H 21.7575 -1.42708 2.90544 0
M  V30 252 H 20.6645 0.763147 3.66233 0
M  V30 253 H 21.9975 0.984784 4.82248 0
M  V30 254 N 23.6496 -1.47581 0.552962 0
M  V30 255 C 24.5816 -2.27997 -0.234533 0
M  V30 256 C 25.5946 -1.36753 -0.883321 0
M  V30 257 O 26.7836 -1.61612 -0.757889 0
M  V30 258 C 23.8836 -3.10879 -1.34935 0
M  V30 259 C 23.0566 -4.30056 -0.798158 0
M  V30 260 C 22.1156 -4.94567 -1.79694 0
M  V30 261 O 21.1416 -5.53087 -1.34474 0
M  V30 262 N 22.3436 -4.88878 -3.13015 0
M  V30 263 H 25.1086 -2.96222 0.455255 0
M  V30 264 H 22.6696 -1.57163 0.388761 0
M  V30 265 H 24.6616 -3.50903 -2.01616 0
M  V30 266 H 23.2316 -2.44924 -1.94244 0
M  V30 267 H 22.4516 -3.94174 0.0453079 0
M  V30 268 H 23.7396 -5.07152 -0.409173 0
M  V30 269 H 23.1376 -4.42526 -3.52402 0
M  V30 270 H 21.6946 -5.32934 -3.75266 0
M  V30 271 N 25.1277 -0.289203 -1.54924 0
M  V30 272 C 26.0377 0.601863 -2.26748 0
M  V30 273 C 27.0537 1.15834 -1.2984 0
M  V30 274 O 28.2297 1.18564 -1.62802 0
M  V30 275 C 25.2947 1.76299 -2.98529 0
M  V30 276 C 24.3557 1.24178 -4.10948 0
M  V30 277 C 23.5887 2.34757 -4.79296 0
M  V30 278 O 23.8117 3.54411 -4.46933 0
M  V30 279 O 22.7457 2.02115 -5.66951 0
M  V30 280 H 26.5717 0.0195879 -3.03694 0
M  V30 281 H 24.1567 -0.0560868 -1.49295 0
M  V30 282 H 26.0387 2.43973 -3.43592 0
M  V30 283 H 24.7137 2.33209 -2.24488 0
M  V30 284 H 23.6207 0.531104 -3.70311 0
M  V30 285 H 24.9537 0.718252 -4.86931 0
M  V30 286 N 26.6058 1.57591 -0.0167156 0
M  V30 287 C 28.0218 1.55946 0.339557 0
M  V30 288 C 28.2218 1.02109 1.73713 0
M  V30 289 O 27.2778 0.662303 2.43659 0
M  V30 290 C 28.5908 3.00037 0.199499 0
M  V30 291 C 30.1388 3.11805 0.273193 0
M  V30 292 C 30.6138 4.57713 0.162068 0
M  V30 293 N 32.1048 4.6268 0.219444 0
M  V30 294 C 32.8398 5.73185 0.157054 0
M  V30 295 N 32.3358 6.92786 0.0442936 0
M  V30 296 N 34.1288 5.61707 0.21014 0
M  V30 297 H 26.2798 1.90921 -0.930758 0
M  V30 298 H 28.5428 0.877674 -0.358319 0
M  V30 299 H 28.2488 3.4333 -0.76273 0
M  V30 300 H 28.1228 3.64387 0.974786 0
M  V30 301 H 30.5098 2.68433 1.22587 0
M  V30 302 H 30.5908 2.50201 -0.532256 0
M  V30 303 H 30.2348 5.01763 -0.78714 0
M  V30 304 H 30.1648 5.17283 0.986222 0
M  V30 305 H 32.6558 3.76649 0.307246 0
M  V30 306 H 32.9688 7.728 0.00304069 0
M  V30 307 H 31.3138 6.94999 0.00968457 0
M  V30 308 H 34.5048 4.6716 0.296546 0
M  V30 309 H 34.6778 6.47807 0.158054 0
M  V30 310 N 28.0839 -0.256276 1.55502 0
M  V30 311 C 29.0309 -1.31714 1.89526 0
M  V30 312 C 30.0009 -1.4828 0.748479 0
M  V30 313 O 31.1859 -1.62416 1.00128 0
M  V30 314 C 28.3259 -2.66933 2.18725 0
M  V30 315 C 27.4389 -2.58452 3.4616 0
M  V30 316 C 26.5739 -3.85961 3.64976 0
M  V30 317 C 25.6129 -3.72059 4.86044 0
M  V30 318 N 24.7499 -4.9144 5.01429 0
M  V30 319 H 29.5899 -1.01998 2.80001 0
M  V30 320 H 27.1269 -0.492413 1.38613 0
M  V30 321 H 29.0849 -3.4563 2.33657 0
M  V30 322 H 27.7149 -2.94816 1.31466 0
M  V30 323 H 26.7669 -1.71374 3.3961 0
M  V30 324 H 28.0789 -2.44085 4.34999 0
M  V30 325 H 27.2329 -4.73101 3.79816 0
M  V30 326 H 25.9719 -4.03215 2.74353 0
M  V30 327 H 24.9769 -2.83302 4.7119 0
M  V30 328 H 26.2019 -3.56309 5.78118 0
M  V30 329 H 24.1479 -5.09072 4.13741 0
M  V30 330 H 24.0649 -4.79668 5.84341 0
M  V30 331 H 25.3329 -5.80104 5.20672 0
M  V30 332 N 29.562 -1.4872 -0.521534 0
M  V30 333 C 30.978 -1.35028 -0.850855 0
M  V30 334 C 31.178 -0.367712 -1.98116 0
M  V30 335 O 30.234 0.208037 -2.51642 0
M  V30 336 C 31.547 -2.75263 -1.21041 0
M  V30 337 C 33.095 -2.83813 -1.31981 0
M  V30 338 C 33.57 -4.24769 -1.71276 0
M  V30 339 N 35.061 -4.27482 -1.78363 0
M  V30 340 C 35.796 -5.33494 -2.1017 0
M  V30 341 N 35.292 -6.49775 -2.40343 0
M  V30 342 N 37.085 -5.20894 -2.11248 0
M  V30 343 H 29.236 -2.11214 0.22413 0
M  V30 344 H 31.499 -0.947252 0.0376439 0
M  V30 345 H 31.205 -3.48765 -0.453415 0
M  V30 346 H 31.079 -3.09327 -2.15863 0
M  V30 347 H 33.466 -2.10561 -2.06756 0
M  V30 348 H 33.547 -2.53358 -0.352596 0
M  V30 349 H 33.191 -4.9854 -0.970588 0
M  V30 350 H 33.121 -4.52673 -2.69062 0
M  V30 351 H 35.612 -3.43611 -1.57288 0
M  V30 352 H 35.925 -7.26402 -2.63743 0
M  V30 353 H 34.27 -6.53035 -2.37844 0
M  V30 354 H 37.461 -4.29065 -1.87139 0
M  V30 355 H 37.634 -6.03612 -2.35704 0
M  V30 356 N 31.0401 0.771051 -1.3745 0
M  V30 357 C 31.9721 1.89352 -1.29146 0
M  V30 358 C 32.9851 1.61477 -0.207124 0
M  V30 359 O 34.1741 1.72382 -0.463324 0
M  V30 360 C 31.2741 3.24596 -0.974195 0
M  V30 361 C 30.4471 3.80111 -2.16413 0
M  V30 362 C 29.5061 4.93832 -1.81703 0
M  V30 363 O 28.5321 5.09382 -2.54006 0
M  V30 364 N 29.7341 5.75483 -0.761573 0
M  V30 365 H 32.4991 1.96991 -2.25864 0
M  V30 366 H 30.0601 0.950191 -1.31084 0
M  V30 367 H 32.0521 3.98193 -0.722828 0
M  V30 368 H 30.6221 3.12454 -0.0955527 0
M  V30 369 H 29.8421 2.98284 -2.57721 0
M  V30 370 H 31.1301 4.13932 -2.95867 0
M  V30 371 H 30.5281 5.65469 -0.161609 0
M  V30 372 H 29.0851 6.49302 -0.570064 0
M  V30 373 N 32.5182 1.22032 0.997298 0
M  V30 374 C 33.4682 0.953838 2.07089 0
M  V30 375 C 34.4522 -0.0938669 1.60626 0
M  V30 376 O 35.6442 0.116078 1.76619 0
M  V30 377 C 32.7732 0.528726 3.39204 0
M  V30 378 C 31.8592 1.61092 3.92314 0
M  V30 379 N 32.2502 2.83768 4.18699 0
M  V30 380 C 30.5482 1.48158 4.20672 0
M  V30 381 C 31.2492 3.53715 4.61802 0
M  V30 382 N 30.2252 2.81174 4.65233 0
M  V30 383 H 34.0272 1.88577 2.25424 0
M  V30 384 H 31.5412 1.11719 1.17867 0
M  V30 385 H 33.5382 0.31915 4.15677 0
M  V30 386 H 32.1982 -0.39635 3.22272 0
M  V30 387 H 33.2092 3.20238 4.07023 0
M  V30 388 H 29.8862 0.622369 4.12835 0
M  V30 389 H 31.2762 4.58793 4.90875 0
M  V30 390 N 33.9963 -1.19345 1.0293 0
M  V30 391 C 34.9593 -2.20793 0.615069 0
M  V30 392 C 35.9593 -1.57553 -0.321533 0
M  V30 393 O 37.1493 -1.73862 -0.108483 0
M  V30 394 C 34.2813 -3.40754 -0.0999222 0
M  V30 395 H 35.4743 -2.58955 1.51269 0
M  V30 396 H 33.0273 -1.3303 0.820534 0
M  V30 397 H 33.7623 -3.0811 -1.01187 0
M  V30 398 H 33.5473 -3.87889 0.57309 0
M  V30 399 H 35.0373 -4.15898 -0.376645 0
M  V30 400 N 35.4744 -0.807222 -1.35358 0
M  V30 401 C 36.4214 -0.216037 -2.29787 0
M  V30 402 C 37.3914 0.650278 -1.52842 0
M  V30 403 O 38.5764 0.595227 -1.81278 0
M  V30 404 C 35.7164 0.628893 -3.39321 0
M  V30 405 C 34.8294 -0.257927 -4.31229 0
M  V30 406 C 33.9644 0.595069 -5.27856 0
M  V30 407 C 33.0034 -0.292111 -6.11403 0
M  V30 408 N 32.1404 0.520895 -7.00165 0
M  V30 409 H 36.9804 -1.02671 -2.79755 0
M  V30 410 H 34.5174 -0.517839 -1.37684 0
M  V30 411 H 36.4754 1.13393 -4.01494 0
M  V30 412 H 35.1054 1.40482 -2.90628 0
M  V30 413 H 34.1574 -0.881076 -3.70056 0
M  V30 414 H 35.4694 -0.940759 -4.89848 0
M  V30 415 H 34.6234 1.16522 -5.95405 0
M  V30 416 H 33.3624 1.31146 -4.69736 0
M  V30 417 H 32.3674 -0.874525 -5.428 0
M  V30 418 H 33.5924 -1.00638 -6.71602 0
M  V30 419 H 31.5384 1.22125 -6.44532 0
M  V30 420 H 31.4554 -0.103877 -7.55929 0
M  V30 421 H 32.7234 1.0743 -7.72062 0
M  V30 422 N 36.9525 1.47285 -0.560781 0
M  V30 423 C 38.2015 2.01668 -0.035895 0
M  V30 424 C 38.5145 1.44021 1.32353 0
M  V30 425 O 39.7205 1.90088 1.93853 0
M  V30 426 C 38.1765 3.59897 -0.0136659 0
M  V30 427 C 37.7845 4.26536 -1.37006 0
M  V30 428 C 39.5285 4.22017 0.458425 0
M  V30 429 C 37.4355 5.76782 -1.30675 0
M  V30 430 H 36.3655 0.753938 -0.00964879 0
M  V30 431 H 39.0165 1.69243 -0.709166 0
M  V30 432 H 37.3985 3.89301 0.725325 0
M  V30 433 H 38.5725 4.0877 -2.12705 0
M  V30 434 H 36.8875 3.76419 -1.78038 0
M  V30 435 H 39.4845 5.32124 0.524247 0
M  V30 436 H 39.8275 3.89437 1.4712 0
M  V30 437 H 40.3605 3.97159 -0.225818 0
M  V30 438 H 37.0995 6.13988 -2.29564 0
M  V30 439 H 36.6195 5.96875 -0.591622 0
M  V30 440 H 38.2985 6.39063 -1.01033 0
M  V30 441 N 38.4306 0.297415 1.54768 0
M  V30 442 C 39.3406 -0.58983 2.27064 0
M  V30 443 C 40.3566 -1.15144 1.30453 0
M  V30 444 O 41.5326 -1.17699 1.63428 0
M  V30 445 C 38.5976 -1.74714 2.9946 0
M  V30 446 C 37.6586 -1.21997 4.11601 0
M  V30 447 C 36.8916 -2.32212 4.80535 0
M  V30 448 O 37.1146 -3.52036 4.48806 0
M  V30 449 O 36.0486 -1.99106 5.68014 0
M  V30 450 H 39.8746 -0.00348199 3.037 0
M  V30 451 H 37.4596 0.0640035 1.49263 0
M  V30 452 H 39.3416 -2.42147 3.44881 0
M  V30 453 H 38.0166 -2.32016 2.25722 0
M  V30 454 H 36.9236 -0.511458 3.70587 0
M  V30 455 H 38.2566 -0.692419 4.87305 0
M  V30 456 N 39.9087 -1.5758 0.0250728 0
M  V30 457 C 40.8387 -2.13007 -0.956575 0
M  V30 458 C 41.8197 -1.0452 -1.342 0
M  V30 459 O 43.0047 -1.32332 -1.42133 0
M  V30 460 C 40.1347 -2.65386 -2.24026 0
M  V30 461 C 39.0887 -3.78623 -1.99571 0
M  V30 462 C 38.4147 -4.17414 -3.3417 0
M  V30 463 C 39.7147 -5.04867 -1.33814 0
M  V30 464 H 41.4087 -2.9528 -0.494991 0
M  V30 465 H 38.9547 -1.42042 -0.236651 0
M  V30 466 H 40.9077 -3.02794 -2.93076 0
M  V30 467 H 39.6317 -1.80268 -2.72343 0
M  V30 468 H 38.2907 -3.41646 -1.32941 0
M  V30 469 H 37.9387 -3.29284 -3.80238 0
M  V30 470 H 37.6387 -4.93719 -3.18615 0
M  V30 471 H 39.1627 -4.57402 -4.04495 0
M  V30 472 H 40.5767 -5.39888 -1.92857 0
M  V30 473 H 38.9737 -5.86144 -1.28669 0
M  V30 474 H 40.0437 -4.83904 -0.310561 0
M  V30 475 N 41.3868 0.248026 -1.55636 0
M  V30 476 C 42.6358 0.974134 -1.76617 0
M  V30 477 C 42.9488 1.86528 -0.588796 0
M  V30 478 O 44.1548 2.62805 -0.681594 0
M  V30 479 C 42.6108 1.78213 -3.12679 0
M  V30 480 C 42.2188 0.93843 -4.38061 0
M  V30 481 C 43.9628 2.50104 -3.42999 0
M  V30 482 C 41.8698 1.74225 -5.65155 0
M  V30 483 H 40.7998 0.36745 -0.658405 0
M  V30 484 H 43.4508 0.22884 -1.82067 0
M  V30 485 H 41.8328 2.56933 -3.01333 0
M  V30 486 H 43.0068 0.193635 -4.60393 0
M  V30 487 H 41.3218 0.332905 -4.15067 0
M  V30 488 H 43.9188 3.10694 -4.3517 0
M  V30 489 H 44.2618 3.21662 -2.64271 0
M  V30 490 H 44.7948 1.78395 -3.55556 0
M  V30 491 H 41.5338 1.07043 -6.46701 0
M  V30 492 H 41.0538 2.46235 -5.46926 0
M  V30 493 H 42.7328 2.30967 -6.0437 0
M  V30 494 N 42.8649 1.48995 0.513639 0
M  V30 495 C 43.8279 1.64229 1.59879 0
M  V30 496 C 44.8279 0.514696 1.5234 0
M  V30 497 O 46.0179 0.78087 1.55718 0
M  V30 498 C 43.1499 1.62783 2.99524 0
M  V30 499 H 44.3429 2.61004 1.47705 0
M  V30 500 H 41.8959 1.37837 0.736936 0
M  V30 501 H 42.6309 0.675461 3.17188 0
M  V30 502 H 42.4159 2.4466 3.06404 0
M  V30 503 H 43.9059 1.76669 3.78388 0
M  V30 504 N 44.343 -0.763751 1.37857 0
M  V30 505 C 45.568 -1.55805 1.36893 0
M  V30 506 C 45.993 -1.88054 -0.0416135 0
M  V30 507 O 45.351 -1.49825 -1.02089 0
M  V30 508 C 45.399 -2.84012 2.22192 0
M  V30 509 O 44.503 -3.78732 1.63204 0
M  V30 510 H 43.844 -0.471638 0.46739 0
M  V30 511 H 46.374 -0.944657 1.81487 0
M  V30 512 H 46.384 -3.33037 2.35691 0
M  V30 513 H 45.059 -2.59869 3.24716 0
M  V30 514 H 43.636 -3.37402 1.58791 0
M  V30 515 N 45.8211 -1.22559 -0.990812 0
M  V30 516 C 46.7311 -1.01394 -2.11557 0
M  V30 517 C 47.7471 0.0383962 -1.73958 0
M  V30 518 O 48.9231 -0.154787 -2.00804 0
M  V30 519 C 45.9881 -0.596569 -3.41529 0
M  V30 520 C 45.0491 -1.72276 -3.93217 0
M  V30 521 C 44.2821 -1.32521 -5.16985 0
M  V30 522 O 44.5051 -0.204909 -5.70032 0
M  V30 523 O 43.4391 -2.14247 -5.62478 0
M  V30 524 H 47.2651 -1.95633 -2.32296 0
M  V30 525 H 44.8501 -1.01172 -1.0993 0
M  V30 526 H 46.7321 -0.374263 -4.19735 0
M  V30 527 H 45.4071 0.316939 -3.22145 0
M  V30 528 H 44.3141 -1.99961 -3.16174 0
M  V30 529 H 45.6471 -2.61421 -4.17037 0
M  V30 530 N 47.2992 1.18797 -1.03562 0
M  V30 531 C 48.2472 2.24297 -0.615905 0
M  V30 532 C 49.2412 1.65643 0.354808 0
M  V30 533 O 50.4472 1.78618 0.22265 0
M  V30 534 H 46.8222 0.729909 -0.180934 0
M  V30 535 H 48.7932 2.5701 -1.5162 0
M  V30 536 C 47.5422 3.47698 0.0104735 0
M  V30 537 H 46.8652 3.93125 -0.727509 0
M  V30 538 H 48.3052 4.23159 0.266995 0
M  V30 539 C 46.7642 3.12489 1.25905 0
M  V30 540 O 47.2942 3.25761 2.35038 0
M  V30 541 N 45.5002 2.6686 1.15039 0
M  V30 542 H 45.0472 2.56261 0.262328 0
M  V30 543 H 45.0052 2.43674 1.98672 0
M  V30 544 N 48.7773 0.814389 1.34928 0
M  V30 545 C 50.0243 0.398423 1.98542 0
M  V30 546 C 50.3523 -1.03638 1.64589 0
M  V30 547 O 49.6073 -1.73509 0.90516 0
M  V30 548 C 49.9063 0.537781 3.53331 0
M  V30 549 C 49.5723 1.93704 4.07172 0
M  V30 550 C 48.2343 2.31984 4.21589 0
M  V30 551 C 50.5863 2.85213 4.36237 0
M  V30 552 C 47.9143 3.61125 4.62391 0
M  V30 553 C 50.2663 4.13809 4.78482 0
M  V30 554 C 48.9303 4.52077 4.91104 0
M  V30 555 H 48.2003 0.145793 0.726516 0
M  V30 556 H 50.8473 1.03669 1.61012 0
M  V30 557 H 49.1523 -0.183906 3.91368 0
M  V30 558 H 50.8493 0.196588 4.00518 0
M  V30 559 H 47.4393 1.62966 3.96409 0
M  V30 560 H 51.6233 2.56885 4.24645 0
M  V30 561 H 46.8793 3.90612 4.70353 0
M  V30 562 H 51.0533 4.84811 4.99932 0
M  V30 563 H 48.6803 5.52196 5.22478 0
M  V30 564 N 50.2554 -1.46986 0.568584 0
M  V30 565 C 51.5014 -2.02741 0.0488709 0
M  V30 566 C 51.8344 -1.44077 -1.30214 0
M  V30 567 O 51.1094 -0.600552 -1.84996 0
M  V30 568 C 51.3924 -3.60086 -0.032047 0
M  V30 569 C 51.2454 -4.29162 1.34686 0
M  V30 570 C 52.5644 -4.33838 -0.739798 0
M  V30 571 H 49.6834 -0.736749 0.0192338 0
M  V30 572 H 52.3254 -1.75289 0.733065 0
M  V30 573 H 50.4754 -3.83606 -0.61473 0
M  V30 574 H 52.1474 -4.16948 1.97362 0
M  V30 575 H 50.3904 -3.89073 1.91846 0
M  V30 576 H 51.0614 -5.37826 1.24285 0
M  V30 577 H 53.5374 -4.15378 -0.244939 0
M  V30 578 H 52.4134 -5.43537 -0.765406 0
M  V30 579 H 52.6744 -4.03875 -1.79827 0
M  V30 580 N 51.7335 -0.305618 -1.54608 0
M  V30 581 C 52.9585 0.307562 -2.05107 0
M  V30 582 C 53.3835 1.46385 -1.18123 0
M  V30 583 O 52.7415 1.8034 -0.186324 0
M  V30 584 C 52.7895 0.73704 -3.52987 0
M  V30 585 O 51.8935 1.84134 -3.6901 0
M  V30 586 H 51.2345 0.0589143 -0.661381 0
M  V30 587 H 53.7645 -0.448807 -1.99617 0
M  V30 588 H 53.7745 1.02459 -3.94925 0
M  V30 589 H 52.4495 -0.108773 -4.15758 0
M  V30 590 H 51.0265 1.55398 -3.38978 0
M  V30 591 N 53.2116 1.57565 -0.0334293 0
M  V30 592 C 54.6276 1.56297 0.322997 0
M  V30 593 C 54.8276 1.03945 1.7262 0
M  V30 594 O 53.8836 0.688109 2.42943 0
M  V30 595 C 55.1966 3.00232 0.167664 0
M  V30 596 C 56.7446 3.12078 0.240107 0
M  V30 597 C 57.2196 4.57859 0.113513 0
M  V30 598 N 58.7106 4.62887 0.170359 0
M  V30 599 C 59.4456 5.73319 0.0962517 0
M  V30 600 N 58.9416 6.92794 -0.0291881 0
M  V30 601 N 60.7346 5.61898 0.150551 0
M  V30 602 H 52.8856 1.89923 -0.950956 0
M  V30 603 H 55.1486 0.873824 -0.367608 0
M  V30 604 H 54.8546 3.42501 -0.799102 0
M  V30 605 H 54.7286 3.654 0.936083 0
M  V30 606 H 57.1156 2.69718 1.19733 0
M  V30 607 H 57.1966 2.49623 -0.558763 0
M  V30 608 H 56.8406 5.009 -0.840314 0
M  V30 609 H 56.7706 5.18299 0.931302 0
M  V30 610 H 59.2616 3.76954 0.26728 0
M  V30 611 H 59.5746 7.7276 -0.0789252 0
M  V30 612 H 57.9196 6.94971 -0.0640299 0
M  V30 613 H 61.1106 4.67448 0.246981 0
M  V30 614 H 61.2836 6.47938 0.0893365 0
M  V30 615 N 54.6897 -0.239769 1.55765 0
M  V30 616 C 55.6527 -1.28038 1.90103 0
M  V30 617 C 56.6527 -1.40723 0.778055 0
M  V30 618 O 57.8427 -1.39301 1.04599 0
M  V30 619 C 54.9747 -2.65702 2.13577 0
M  V30 620 H 56.1677 -0.988048 2.83157 0
M  V30 621 H 53.7207 -0.479382 1.48767 0
M  V30 622 H 54.4557 -3.00063 1.23015 0
M  V30 623 H 54.2407 -2.57875 2.95369 0
M  V30 624 H 55.7307 -3.40828 2.41301 0
M  V30 625 N 56.1678 -1.49265 -0.50573 0
M  V30 626 C 57.4138 -1.58748 -1.26202 0
M  V30 627 C 57.7468 -0.271227 -1.92297 0
M  V30 628 O 57.0218 0.724831 -1.80489 0
M  V30 629 C 57.3048 -2.74332 -2.33268 0
M  V30 630 C 57.1578 -4.15737 -1.71705 0
M  V30 631 C 58.4768 -2.85576 -3.34865 0
M  V30 632 H 55.5958 -0.577826 -0.457478 0
M  V30 633 H 58.2378 -1.81532 -0.560897 0
M  V30 634 H 56.3878 -2.55036 -2.93068 0
M  V30 635 H 58.0598 -4.46537 -1.15769 0
M  V30 636 H 56.3028 -4.21605 -1.02135 0
M  V30 637 H 56.9738 -4.92477 -2.49341 0
M  V30 638 H 59.4498 -3.03127 -2.8505 0
M  V30 639 H 58.3258 -3.68135 -4.07146 0
M  V30 640 H 58.5868 -1.94732 -3.96903 0
M  V30 641 N 57.6459 0.756429 -1.3826 0
M  V30 642 C 58.5789 1.87802 -1.29637 0
M  V30 643 C 59.5569 1.61667 -0.173939 0
M  V30 644 O 60.7409 1.85208 -0.350775 0
M  V30 645 C 57.8679 3.23354 -1.00797 0
M  V30 646 C 56.9139 3.68379 -2.14939 0
M  V30 647 S 57.7469 3.8025 -3.77054 0
M  V30 648 C 58.9029 5.18626 -3.50396 0
M  V30 649 H 59.1359 1.94829 -2.24564 0
M  V30 650 H 56.6689 0.919117 -1.24063 0
M  V30 651 H 58.6269 4.01637 -0.848413 0
M  V30 652 H 57.2879 3.14008 -0.0759369 0
M  V30 653 H 56.4809 4.66693 -1.90299 0
M  V30 654 H 56.0829 2.97242 -2.26988 0
M  V30 655 H 58.3749 6.04289 -3.06334 0
M  V30 656 H 59.3179 5.48286 -4.48094 0
M  V30 657 H 59.7259 4.87289 -2.84973 0
M  V30 658 N 59.124 1.23083 0.984299 0
M  V30 659 C 60.034 1.02515 2.11016 0
M  V30 660 C 61.05 -0.0291702 1.73976 0
M  V30 661 O 62.226 0.165434 2.00719 0
M  V30 662 C 59.291 0.614673 3.41208 0
M  V30 663 C 58.352 1.74359 3.92297 0
M  V30 664 C 57.585 1.35261 5.16275 0
M  V30 665 O 57.808 0.235136 5.69915 0
M  V30 666 O 56.742 2.17227 5.61334 0
M  V30 667 H 60.568 1.96862 2.31255 0
M  V30 668 H 58.153 1.01753 1.09392 0
M  V30 669 H 60.035 0.396518 4.1953 0
M  V30 670 H 58.71 -0.299851 3.22308 0
M  V30 671 H 57.617 2.01635 3.1511 0
M  V30 672 H 58.95 2.63629 4.15645 0
M  V30 673 N 60.6021 -1.18246 1.0419 0
M  V30 674 C 61.5651 -2.20128 0.638452 0
M  V30 675 C 62.5651 -1.57885 -0.304805 0
M  V30 676 O 63.7551 -1.73967 -0.0900369 0
M  V30 677 C 60.8871 -3.4084 -0.0637751 0
M  V30 678 H 62.0801 -2.57336 1.54007 0
M  V30 679 H 59.6331 -1.32152 0.834598 0
M  V30 680 H 60.3681 -3.09166 -0.979136 0
M  V30 681 H 60.1531 -3.8726 0.614198 0
M  V30 682 H 61.6431 -4.16274 -0.332512 0
M  V30 683 N 62.0802 -0.821533 -1.34494 0
M  V30 684 C 63.0122 -0.199946 -2.28326 0
M  V30 685 C 64.0252 0.609377 -1.50965 0
M  V30 686 O 65.2142 0.439285 -1.7301 0
M  V30 687 C 62.3142 0.738431 -3.30757 0
M  V30 688 C 61.4872 -0.0277632 -4.37391 0
M  V30 689 C 60.5462 0.831332 -5.19591 0
M  V30 690 O 59.5722 0.276822 -5.68526 0
M  V30 691 N 60.7742 2.15132 -5.39165 0
M  V30 692 H 63.5392 -1.00609 -2.82308 0
M  V30 693 H 61.1002 -0.678366 -1.47003 0
M  V30 694 H 63.0922 1.31773 -3.82646 0
M  V30 695 H 61.6622 1.44533 -2.7718 0
M  V30 696 H 60.8822 -0.788359 -3.86236 0
M  V30 697 H 62.1702 -0.555251 -5.05761 0
M  V30 698 H 61.5682 2.62559 -5.01078 0
M  V30 699 H 60.1252 2.6795 -5.94177 0
M  V30 700 N 63.5583 1.46682 -0.576371 0
M  V30 701 C 64.8063 2.02013 -0.0594163 0
M  V30 702 C 65.1273 1.45101 1.30271 0
M  V30 703 O 64.3973 0.633317 1.8538 0
M  V30 704 H 62.9773 0.746759 -0.0189745 0
M  V30 705 H 65.6393 1.79862 -0.750717 0
M  V30 706 H 64.7353 3.12097 0.014345 0
M  V30 707 N 65.0364 0.313813 1.54444 0
M  V30 708 C 66.2614 -0.296681 2.05267 0
M  V30 709 C 66.6864 -1.45757 1.18897 0
M  V30 710 O 66.0444 -1.80239 0.195886 0
M  V30 711 C 66.0924 -0.71831 3.53373 0
M  V30 712 O 65.1964 -1.82175 3.69981 0
M  V30 713 H 64.5374 -0.0554061 0.661684 0
M  V30 714 H 67.0674 0.459387 1.99376 0
M  V30 715 H 67.0774 -1.00364 3.95463 0
M  V30 716 H 65.7524 0.130821 4.15694 0
M  V30 717 H 64.3294 -1.53598 3.39797 0
M  V30 718 N 66.5145 -1.57545 0.0417849 0
M  V30 719 C 67.7605 -1.92601 -0.635021 0
M  V30 720 C 68.0935 -0.919627 -1.71045 0
M  V30 721 O 67.3685 0.0557892 -1.9442 0
M  V30 722 C 67.6515 -3.38085 -1.23979 0
M  V30 723 C 67.5045 -4.49467 -0.173057 0
M  V30 724 C 68.8235 -3.83776 -2.15416 0
M  V30 725 H 65.9425 -0.700397 -0.229374 0
M  V30 726 H 68.5845 -1.89728 0.101633 0
M  V30 727 H 66.7345 -3.40664 -1.86762 0
M  V30 728 H 68.4065 -4.59018 0.458312 0
M  V30 729 H 66.6495 -4.30909 0.499996 0
M  V30 730 H 67.3205 -5.48323 -0.636054 0
M  V30 731 H 69.7965 -3.83013 -1.62605 0
M  V30 732 H 68.6725 -4.8624 -2.54679 0
M  V30 733 H 68.9335 -3.19998 -3.05047 0
M  V30 734 N 67.9926 0.231505 -1.5589 0
M  V30 735 C 68.9226 1.29022 -1.94617 0
M  V30 736 C 69.9036 1.4941 -0.813067 0
M  V30 737 O 71.0886 1.6176 -1.07459 0
M  V30 738 C 68.2186 2.64199 -2.25424 0
M  V30 739 C 67.1726 2.58484 -3.41131 0
M  V30 740 C 66.4986 3.97599 -3.57518 0
M  V30 741 C 67.7986 2.1413 -4.76388 0
M  V30 742 H 69.4926 0.968563 -2.83301 0
M  V30 743 H 67.0386 0.464479 -1.36303 0
M  V30 744 H 68.9916 3.38413 -2.51107 0
M  V30 745 H 67.7156 2.98032 -1.33583 0
M  V30 746 H 66.3746 1.86727 -3.15481 0
M  V30 747 H 66.0226 4.28723 -2.6307 0
M  V30 748 H 65.7226 3.94659 -4.35337 0
M  V30 749 H 67.2466 4.7349 -3.85538 0
M  V30 750 H 68.6606 2.78083 -5.01341 0
M  V30 751 H 67.0576 2.2227 -5.57419 0
M  V30 752 H 68.1276 1.09331 -4.72414 0
M  V30 753 N 69.4707 1.49531 0.497807 0
M  V30 754 C 70.6987 1.62893 1.27567 0
M  V30 755 C 71.1137 0.301585 1.86376 0
M  V30 756 O 70.4707 -0.713335 1.67982 0
M  V30 757 C 70.5217 2.70013 2.40364 0
M  V30 758 O 70.2427 3.976 1.83972 0
M  V30 759 C 71.7437 2.94109 3.31685 0
M  V30 760 H 68.9637 0.548298 0.386794 0
M  V30 761 H 71.5077 1.95584 0.597245 0
M  V30 762 H 69.6627 2.40092 3.04031 0
M  V30 763 H 70.0767 4.56631 2.58047 0
M  V30 764 H 71.5507 3.72788 4.07104 0
M  V30 765 H 72.0277 2.04147 3.88871 0
M  V30 766 H 72.6337 3.2546 2.73781 0
M  V30 767 N 70.9488 -0.749086 1.3866 0
M  V30 768 C 71.8968 -1.88428 1.36373 0
M  V30 769 C 72.8908 -1.67561 0.248929 0
M  V30 770 O 74.0968 -1.75074 0.41821 0
M  V30 771 H 70.4718 -0.620023 0.42553 0
M  V30 772 H 72.4428 -1.87473 2.32156 0
M  V30 773 C 71.1918 -3.25961 1.21014 0
M  V30 774 H 70.5148 -3.42607 2.06059 0
M  V30 775 H 71.9548 -4.05625 1.23469 0
M  V30 776 C 70.4138 -3.36799 -0.0825941 0
M  V30 777 O 70.9438 -3.87517 -1.05797 0
M  V30 778 N 69.1498 -2.90258 -0.140939 0
M  V30 779 H 68.6968 -2.49174 0.653477 0
M  V30 780 H 68.6548 -2.97889 -1.00545 0
M  V30 781 N 72.4269 -1.23603 -0.977757 0
M  V30 782 C 73.3739 -1.01954 -2.07061 0
M  V30 783 C 74.3439 0.0638697 -1.65977 0
M  V30 784 O 75.5289 -0.0887624 -1.90593 0
M  V30 785 C 72.6689 -0.619658 -3.39491 0
M  V30 786 C 71.7819 -1.77547 -3.93829 0
M  V30 787 C 70.9169 -1.32212 -5.14484 0
M  V30 788 C 69.9559 -2.44852 -5.60994 0
M  V30 789 N 69.0929 -2.00456 -6.72876 0
M  V30 790 H 73.9329 -1.95495 -2.24913 0
M  V30 791 H 71.4699 -0.973861 -1.10247 0
M  V30 792 H 73.4279 -0.368898 -4.15566 0
M  V30 793 H 72.0579 0.278752 -3.21594 0
M  V30 794 H 71.1099 -2.14016 -3.14486 0
M  V30 795 H 72.4219 -2.62219 -4.24314 0
M  V30 796 H 71.5759 -1.02965 -5.97899 0
M  V30 797 H 70.3149 -0.445808 -4.85658 0
M  V30 798 H 69.3199 -2.74871 -4.76157 0
M  V30 799 H 70.5449 -3.33024 -5.91837 0
M  V30 800 H 68.4909 -1.15208 -6.45804 0
M  V30 801 H 68.4079 -2.78687 -7.02759 0
M  V30 802 H 69.6759 -1.7432 -7.59758 0
M  V30 803 N 73.905 1.17692 -1.04816 0
M  V30 804 C 75.135 1.91508 -0.775128 0
M  V30 805 C 75.543 1.76844 0.67253 0
M  V30 806 O 74.886 1.10057 1.47082 0
M  V30 807 C 74.948 3.43167 -1.0713 0
M  V30 808 C 74.612 3.81612 -2.51438 0
M  V30 809 C 75.609 3.84772 -3.49638 0
M  V30 810 C 73.294 4.12687 -2.86348 0
M  V30 811 C 75.288 4.18469 -4.80794 0
M  V30 812 C 72.975 4.46053 -4.17708 0
M  V30 813 C 73.973 4.48921 -5.14741 0
M  V30 814 O 73.661 4.81504 -6.43746 0
M  V30 815 H 73.393 0.614575 -0.281555 0
M  V30 816 H 75.947 1.50206 -1.40098 0
M  V30 817 H 74.177 3.84745 -0.388342 0
M  V30 818 H 75.866 3.98239 -0.784883 0
M  V30 819 H 76.632 3.60893 -3.24008 0
M  V30 820 H 72.511 4.09627 -2.11486 0
M  V30 821 H 76.055 4.20623 -5.56527 0
M  V30 822 H 71.952 4.69393 -4.43103 0
M  V30 823 H 72.72 4.99377 -6.4851 0
M  V30 824 N 75.3831 0.828654 1.34056 0
M  V30 825 C 76.3461 0.259927 2.27721 0
M  V30 826 C 77.3461 -0.565478 1.50529 0
M  V30 827 O 78.5361 -0.38075 1.69988 0
M  V30 828 C 75.6681 -0.634944 3.34935 0
M  V30 829 H 76.8611 1.0863 2.79534 0
M  V30 830 H 74.4141 0.600951 1.44285 0
M  V30 831 H 75.1491 -1.48416 2.88346 0
M  V30 832 H 74.9341 -0.0444999 3.92075 0
M  V30 833 H 76.4241 -1.02648 4.04788 0
M  V30 834 N 76.8612 -1.46375 0.584142 0
M  V30 835 C 77.7712 -2.34115 -0.150728 0
M  V30 836 C 78.7872 -1.49838 -0.884567 0
M  V30 837 O 79.9632 -1.82704 -0.847429 0
M  V30 838 C 77.0282 -3.2705 -1.15062 0
M  V30 839 C 76.0892 -4.27228 -0.421293 0
M  V30 840 C 75.3222 -5.15722 -1.37355 0
M  V30 841 O 75.5452 -5.07176 -2.61014 0
M  V30 842 O 74.4792 -5.95383 -0.883355 0
M  V30 843 H 78.3052 -2.98309 0.569708 0
M  V30 844 H 75.8902 -1.45373 0.344535 0
M  V30 845 H 77.7722 -3.84381 -1.72712 0
M  V30 846 H 76.4472 -2.65451 -1.8525 0
M  V30 847 H 75.3542 -3.7358 0.197085 0
M  V30 848 H 76.6872 -4.91616 0.239641 0
M  V30 849 N 78.3393 -0.321999 -1.54275 0
M  V30 850 C 79.5873 0.280489 -2.00144 0
M  V30 851 C 79.9083 1.52777 -1.21178 0
M  V30 852 O 79.1783 1.9338 -0.313187 0
M  V30 853 H 77.7583 0.106632 -0.73935 0
M  V30 854 H 80.4203 -0.438184 -1.8991 0
M  V30 855 H 79.5163 0.537972 -3.07428 0
M  V30 856 N 79.8174 1.5752 -0.0501392 0
M  V30 857 C 81.0474 1.96678 0.632573 0
M  V30 858 C 81.4554 0.926298 1.64974 0
M  V30 859 O 80.7984 -0.09802 1.83438 0
M  V30 860 C 80.8604 3.32068 1.37735 0
M  V30 861 C 80.5244 4.54076 0.516131 0
M  V30 862 C 81.5214 5.19445 -0.217357 0
M  V30 863 C 79.2064 5.00304 0.44736 0
M  V30 864 C 81.2004 6.29378 -1.00807 0
M  V30 865 C 78.8874 6.10114 -0.347038 0
M  V30 866 C 79.8854 6.74512 -1.07344 0
M  V30 867 O 79.5734 7.82211 -1.85477 0
M  V30 868 H 79.3054 0.652193 0.177821 0
M  V30 869 H 81.8594 2.05091 -0.112543 0
M  V30 870 H 80.0894 3.20206 2.16807 0
M  V30 871 H 81.7784 3.55981 1.95019 0
M  V30 872 H 82.5444 4.84689 -0.173688 0
M  V30 873 H 78.4234 4.49971 1.00235 0
M  V30 874 H 81.9674 6.79575 -1.57556 0
M  V30 875 H 77.8644 6.44307 -0.392349 0
M  V30 876 H 78.6324 7.98982 -1.77678 0
M  V30 877 N 81.2955 -0.223234 1.56011 0
M  V30 878 C 82.7065 -0.790368 1.69145 0
M  V30 879 C 83.0575 -1.85055 0.651845 0
M  V30 880 O 82.1825 -2.15498 -0.197359 0
M  V30 881 C 82.7775 -1.4404 3.06656 0
M  V30 882 C 81.3365 -1.95494 3.2165 0
M  V30 883 C 80.4835 -0.814506 2.65068 0
M  V30 884 H 83.4345 0.00139011 1.587 0
M  V30 885 H 83.4555 -2.30916 3.0242 0
M  V30 886 H 82.9675 -0.668543 3.82298 0
M  V30 887 H 81.0685 -2.75487 2.50874 0
M  V30 888 H 81.1815 -2.13607 4.28846 0
M  V30 889 H 79.5455 -1.22137 2.23505 0
M  V30 890 H 80.3285 -0.0553515 3.43255 0
M  V30 891 N 82.7736 -1.49793 -0.48987 0
M  V30 892 C 84.0216 -1.59525 -1.24081 0
M  V30 893 C 84.3426 -0.288953 -1.92847 0
M  V30 894 O 83.6126 0.692436 -1.83254 0
M  V30 895 H 82.1926 -0.587796 -0.460983 0
M  V30 896 H 84.8546 -1.86477 -0.566778 0
M  V30 897 H 83.9506 -2.39696 -1.99881 0
M  V30 898 N 84.2517 0.741722 -1.39055 0
M  V30 899 C 85.6677 1.04638 -1.20512 0
M  V30 900 C 85.8677 2.01405 -0.0620218 0
M  V30 901 O 84.9237 2.45547 0.588457 0
M  V30 902 C 86.2367 1.6151 -2.53643 0
M  V30 903 C 87.7847 1.73623 -2.6043 0
M  V30 904 C 88.2597 2.33906 -3.93767 0
M  V30 905 N 89.7507 2.41323 -3.9537 0
M  V30 906 C 90.4857 2.88888 -4.95309 0
M  V30 907 N 89.9817 3.36401 -6.05645 0
M  V30 908 N 91.7747 2.88037 -4.82692 0
M  V30 909 H 83.9257 0.0998155 -2.12165 0
M  V30 910 H 86.1887 0.106907 -0.941953 0
M  V30 911 H 85.8947 0.978739 -3.37807 0
M  V30 912 H 85.7687 2.60411 -2.72885 0
M  V30 913 H 88.1557 2.36384 -1.76655 0
M  V30 914 H 88.2367 0.733945 -2.45045 0
M  V30 915 H 87.8807 1.71776 -4.7797 0
M  V30 916 H 87.8107 3.34799 -4.06469 0
M  V30 917 H 90.3017 2.07734 -3.15682 0
M  V30 918 H 90.6147 3.71186 -6.77821 0
M  V30 919 H 88.9597 3.34427 -6.09248 0
M  V30 920 H 92.1507 2.50237 -3.95599 0
M  V30 921 H 92.3237 3.24792 -5.60726 0
M  V30 922 N 85.7298 1.2412 0.971189 0
M  V30 923 C 87.1458 1.00584 1.23916 0
M  V30 924 C 87.3458 -0.287481 1.99439 0
M  V30 925 O 86.4018 -1.00454 2.31658 0
M  V30 926 C 87.7148 2.21864 2.0297 0
M  V30 927 C 89.2628 2.26452 2.16076 0
M  V30 928 C 89.7378 3.47343 2.98524 0
M  V30 929 N 91.2288 3.47639 3.06107 0
M  V30 930 C 91.9638 4.37837 3.70251 0
M  V30 931 N 91.4598 5.38286 4.36142 0
M  V30 932 N 93.2528 4.25558 3.67228 0
M  V30 933 H 85.4038 2.07236 0.465499 0
M  V30 934 H 87.6668 0.909236 0.268315 0
M  V30 935 H 87.3728 3.15771 1.54861 0
M  V30 936 H 87.2468 2.23698 3.03709 0
M  V30 937 H 89.6338 1.33078 2.6339 0
M  V30 938 H 89.7148 2.28645 1.14696 0
M  V30 939 H 89.3588 4.41029 2.51905 0
M  V30 940 H 89.2888 3.42393 4.00093 0
M  V30 941 H 91.7798 2.74966 2.59233 0
M  V30 942 H 92.0928 6.03352 4.82894 0
M  V30 943 H 90.4378 5.42176 4.34822 0
M  V30 944 H 93.6288 3.46322 3.14927 0
M  V30 945 H 93.8018 4.96054 4.16935 0
M  V30 946 N 87.2079 -1.17134 1.05439 0
M  V30 947 C 88.4379 -1.91094 0.785274 0
M  V30 948 C 88.8459 -1.77198 -0.663142 0
M  V30 949 O 88.1889 -1.10835 -1.46497 0
M  V30 950 C 88.2509 -3.42594 1.08949 0
M  V30 951 C 87.9149 -3.80274 2.53458 0
M  V30 952 C 88.9119 -3.82912 3.51673 0
M  V30 953 C 86.5969 -4.11162 2.88532 0
M  V30 954 C 88.5909 -4.15913 4.83006 0
M  V30 955 C 86.2779 -4.43831 4.20068 0
M  V30 956 C 87.2759 -4.46185 5.17115 0
M  V30 957 O 86.9639 -4.78083 6.46291 0
M  V30 958 H 86.6959 -0.613073 0.284811 0
M  V30 959 H 89.2499 -1.49461 1.40893 0
M  V30 960 H 87.4799 -3.84534 0.408741 0
M  V30 961 H 89.1689 -3.97817 0.805991 0
M  V30 962 H 89.9349 -3.5917 3.25917 0
M  V30 963 H 85.8139 -4.085 2.13656 0
M  V30 964 H 89.3579 -4.17665 5.5875 0
M  V30 965 H 85.2549 -4.67037 4.45586 0
M  V30 966 H 86.0229 -4.9593 6.51149 0
M  V30 967 N 88.686 -0.835752 -1.33615 0
M  V30 968 C 89.916 -0.442701 -2.01801 0
M  V30 969 C 90.324 0.959807 -1.63047 0
M  V30 970 O 89.667 1.63468 -0.838088 0
M  V30 971 C 89.729 -0.480125 -3.56279 0
M  V30 972 C 89.393 -1.8382 -4.18401 0
M  V30 973 C 90.39 -2.80097 -4.37998 0
M  V30 974 C 88.075 -2.13019 -4.54894 0
M  V30 975 C 90.069 -4.03736 -4.9323 0
M  V30 976 C 87.756 -3.36916 -5.09834 0
M  V30 977 C 88.754 -4.32091 -5.28948 0
M  V30 978 O 88.442 -5.53797 -5.82721 0
M  V30 979 H 88.174 -0.17441 -0.653114 0
M  V30 980 H 90.728 -1.129 -1.71589 0
M  V30 981 H 88.958 0.262931 -3.85805 0
M  V30 982 H 90.647 -0.105335 -4.05763 0
M  V30 983 H 91.413 -2.58838 -4.10156 0
M  V30 984 H 87.292 -1.39733 -4.39313 0
M  V30 985 H 90.836 -4.78034 -5.08064 0
M  V30 986 H 86.733 -3.58033 -5.37106 0
M  V30 987 H 87.501 -5.55494 -6.0114 0
M  V30 988 N 90.1641 1.46063 -0.591896 0
M  V30 989 C 91.4121 2.01938 -0.0808391 0
M  V30 990 C 91.7331 1.46475 1.28725 0
M  V30 991 O 91.0031 0.652944 1.84698 0
M  V30 992 H 89.5831 0.746516 -0.0268938 0
M  V30 993 H 92.2451 1.79055 -0.769752 0
M  V30 994 H 91.3411 3.12094 -0.0187578 0
M  V30 995 N 91.6422 0.330177 1.54103 0
M  V30 996 C 92.8902 -0.269871 2.0029 0
M  V30 997 C 93.2112 -1.52133 1.21986 0
M  V30 998 O 92.4812 -1.93212 0.323438 0
M  V30 999 H 91.0612 -0.10271 0.739905 0
M  V30 1000 H 93.7232 0.448249 1.89675 0
M  V30 1001 H 92.8192 -0.52166 3.07709 0
M  V30 1002 N 93.1203 -1.57491 0.0584922 0
M  V30 1003 C 94.3603 -1.94851 -0.617458 0
M  V30 1004 C 94.7243 -0.937165 -1.67575 0
M  V30 1005 O 95.9253 -1.19795 -2.40629 0
M  V30 1006 C 94.1963 -3.36955 -1.19147 0
M  V30 1007 S 95.7553 -3.96277 -1.8844 0
M  V30 1008 H 92.5733 -0.681539 -0.202547 0
M  V30 1009 H 95.1753 -1.95073 0.129176 0
M  V30 1010 H 93.8793 -4.08355 -0.409215 0
M  V30 1011 H 93.4103 -3.40245 -1.97476 0
M  V30 1012 H 95.4253 -3.82099 -3.16568 0
M  V30 1013 N 94.5984 0.214957 -1.56127 0
M  V30 1014 C 95.5084 1.28727 -1.96129 0
M  V30 1015 C 96.5244 1.50916 -0.866044 0
M  V30 1016 O 97.7004 1.63918 -1.17016 0
M  V30 1017 C 94.7654 2.61569 -2.27558 0
M  V30 1018 C 93.8264 2.47625 -3.50685 0
M  V30 1019 C 93.0594 3.74132 -3.80606 0
M  V30 1020 O 93.2824 4.77438 -3.12104 0
M  V30 1021 O 92.2164 3.70849 -4.74083 0
M  V30 1022 H 96.0424 0.977855 -2.87527 0
M  V30 1023 H 93.6274 0.418358 -1.43423 0
M  V30 1024 H 95.5094 3.40012 -2.48938 0
M  V30 1025 H 94.1844 2.92178 -1.39332 0
M  V30 1026 H 93.0914 1.67361 -3.34576 0
M  V30 1027 H 94.4244 2.21954 -4.39315 0
M  V30 1028 N 96.0765 1.50051 0.48192 0
M  V30 1029 C 97.3065 1.63999 1.2565 0
M  V30 1030 C 97.7145 0.318288 1.86504 0
M  V30 1031 O 97.0575 -0.708534 1.69486 0
M  V30 1032 C 97.1195 2.66504 2.4128 0
M  V30 1033 C 96.7835 4.10352 2.01148 0
M  V30 1034 C 97.7805 4.96562 1.54021 0
M  V30 1035 C 95.4655 4.56203 2.10199 0
M  V30 1036 C 97.4595 6.26668 1.16473 0
M  V30 1037 C 95.1465 5.86318 1.72264 0
M  V30 1038 C 96.1445 6.71375 1.25477 0
M  V30 1039 O 95.8325 7.99062 0.880626 0
M  V30 1040 H 95.5645 0.55456 0.386574 0
M  V30 1041 H 98.1185 1.96954 0.582944 0
M  V30 1042 H 96.3485 2.28769 3.11772 0
M  V30 1043 H 98.0375 2.69783 3.03268 0
M  V30 1044 H 98.8035 4.62358 1.46458 0
M  V30 1045 H 94.6825 3.90152 2.45566 0
M  V30 1046 H 98.2265 6.93011 0.798841 0
M  V30 1047 H 94.1235 6.20046 1.79482 0
M  V30 1048 H 94.8915 8.12239 1.01043 0
M  V30 1049 N 97.5546 -0.734337 1.39446 0
M  V30 1050 C 98.8006 -1.49613 1.36908 0
M  V30 1051 C 99.1336 -1.94169 -0.0347829 0
M  V30 1052 O 98.4086 -1.66833 -0.999847 0
M  V30 1053 C 98.6916 -2.73534 2.34203 0
M  V30 1054 C 98.5446 -2.34993 3.83534 0
M  V30 1055 C 99.8636 -3.75635 2.29317 0
M  V30 1056 H 96.9826 -0.542714 0.498629 0
M  V30 1057 H 99.6246 -0.839597 1.70443 0
M  V30 1058 H 97.7746 -3.29553 2.05736 0
M  V30 1059 H 99.4466 -1.84601 4.22753 0
M  V30 1060 H 97.6896 -1.67213 4.00278 0
M  V30 1061 H 98.3606 -3.23738 4.47099 0
M  V30 1062 H 100.837 -3.29203 2.54489 0
M  V30 1063 H 99.7126 -4.60008 2.99472 0
M  V30 1064 H 99.9736 -4.22603 1.29842 0
M  V30 1065 N 99.0327 -1.24633 -0.964593 0
M  V30 1066 C 100.31 -0.995809 -1.68354 0
M  V30 1067 C 100.69 0.480964 -2.05548 0
M  V30 1068 O 100.038 1.45599 -1.76105 0
M  V30 1069 C 100.248 -1.92177 -2.91323 0
M  V30 1070 C 101.596 -2.19446 -3.63495 0
M  V30 1071 O 102.62 -1.89855 -3.01386 0
M  V30 1072 O 101.479 -2.69714 -4.75307 0
M  V30 1073 H 98.5727 -0.376854 -0.736146 0
M  V30 1074 H 101.119 -1.35745 -1.0184 0
M  V30 1075 H 99.8907 -2.91938 -2.60553 0
M  V30 1076 H 99.5137 -1.56349 -3.65569 0
M  V30 1077 N 100.511 1.16574 -1.06058 0
M  V30 1078 C 101.76 1.86385 -0.770944 0
M  V30 1079 C 102.073 1.82448 0.705129 0
M  V30 1080 O 103.279 2.47815 1.10905 0
M  V30 1081 C 101.735 3.34466 -1.32893 0
M  V30 1082 C 101.343 3.46883 -2.83507 0
M  V30 1083 C 103.087 4.09548 -1.11672 0
M  V30 1084 C 100.994 4.89036 -3.32562 0
M  V30 1085 H 99.9238 0.698181 -0.284709 0
M  V30 1086 H 102.575 1.31583 -1.27899 0
M  V30 1087 H 100.957 3.88859 -0.748662 0
M  V30 1088 H 102.131 3.02663 -3.47465 0
M  V30 1089 H 100.446 2.85232 -3.03368 0
M  V30 1090 H 103.043 5.14434 -1.45814 0
M  V30 1091 H 103.386 4.16264 -0.0549535 0
M  V30 1092 H 103.919 3.61387 -1.66265 0
M  V30 1093 H 100.658 4.87499 -4.38207 0
M  V30 1094 H 100.178 5.3389 -2.73351 0
M  V30 1095 H 101.857 5.57843 -3.2775 0
M  V30 1096 N 101.989 0.842826 1.3317 0
M  V30 1097 C 103.235 0.441099 1.97945 0
M  V30 1098 C 103.568 -0.998024 1.66593 0
M  V30 1099 O 102.843 -1.69839 0.947898 0
M  V30 1100 C 103.126 0.666841 3.53872 0
M  V30 1101 C 102.979 2.15352 3.94897 0
M  V30 1102 C 104.298 0.115544 4.39948 0
M  V30 1103 H 101.417 0.161739 0.719034 0
M  V30 1104 H 104.059 1.05907 1.57746 0
M  V30 1105 H 102.209 0.140828 3.88245 0
M  V30 1106 H 103.881 2.7447 3.70761 0
M  V30 1107 H 102.124 2.63653 3.44484 0
M  V30 1108 H 102.795 2.26221 5.03516 0
M  V30 1109 H 105.271 0.565213 4.12243 0
M  V30 1110 H 104.147 0.303152 5.48062 0
M  V30 1111 H 104.408 -0.980935 4.3108 0
M  V30 1112 N 103.467 -1.45747 0.599634 0
M  V30 1113 C 104.377 -2.34262 -0.125888 0
M  V30 1114 C 105.393 -1.50768 -0.868625 0
M  V30 1115 O 106.569 -1.83592 -0.828003 0
M  V30 1116 C 103.634 -3.28252 -1.11587 0
M  V30 1117 C 102.695 -4.27651 -0.375956 0
M  V30 1118 C 101.928 -5.1715 -1.31877 0
M  V30 1119 O 102.151 -5.09916 -2.55621 0
M  V30 1120 O 101.085 -5.96286 -0.820157 0
M  V30 1121 H 104.911 -2.97688 0.601315 0
M  V30 1122 H 102.496 -1.44999 0.359934 0
M  V30 1123 H 104.378 -3.86191 -1.68626 0
M  V30 1124 H 103.053 -2.67401 -1.82424 0
M  V30 1125 H 101.96 -3.7335 0.236698 0
M  V30 1126 H 103.293 -4.91334 0.29177 0
M  V30 1127 N 104.945 -0.338344 -1.53925 0
M  V30 1128 C 106.222 0.314774 -1.93051 0
M  V30 1129 C 106.602 1.68669 -1.26941 0
M  V30 1130 O 105.95 2.24636 -0.418445 0
M  V30 1131 C 106.16 0.392249 -3.46789 0
M  V30 1132 C 107.508 0.645554 -4.19664 0
M  V30 1133 O 108.532 0.474575 -3.53024 0
M  V30 1134 O 107.391 0.976408 -5.37707 0
M  V30 1135 H 104.485 0.182598 -0.80659 0
M  V30 1136 H 107.031 -0.389141 -1.65178 0
M  V30 1137 H 105.803 -0.570702 -3.87116 0
M  V30 1138 H 105.426 1.14316 -3.80812 0
M  V30 1139 N 106.423 1.57458 -0.0668435 0
M  V30 1140 C 107.353 2.15468 0.899764 0
M  V30 1141 C 108.334 1.08042 1.31381 0
M  V30 1142 O 109.519 1.36054 1.38574 0
M  V30 1143 C 106.649 2.71232 2.16911 0
M  V30 1144 C 105.603 3.83781 1.89463 0
M  V30 1145 C 104.929 4.26127 3.22986 0
M  V30 1146 C 106.229 5.08238 1.20381 0
M  V30 1147 H 107.923 2.96488 0.416529 0
M  V30 1148 H 105.469 1.4262 0.198908 0
M  V30 1149 H 107.422 3.10458 2.84945 0
M  V30 1150 H 106.146 1.87426 2.67468 0
M  V30 1151 H 104.805 3.45051 1.23836 0
M  V30 1152 H 104.453 3.39249 3.71374 0
M  V30 1153 H 104.153 5.01993 3.05413 0
M  V30 1154 H 105.677 4.67966 3.92225 0
M  V30 1155 H 107.091 5.44811 1.78475 0
M  V30 1156 H 105.488 5.89349 1.13083 0
M  V30 1157 H 106.558 4.84558 0.182153 0
M  V30 1158 N 107.901 -0.206675 1.56239 0
M  V30 1159 C 108.864 -1.23976 1.92776 0
M  V30 1160 C 109.864 -1.39041 0.807729 0
M  V30 1161 O 111.054 -1.37051 1.0753 0
M  V30 1162 C 108.186 -2.61112 2.19165 0
M  V30 1163 H 109.379 -0.927764 2.85189 0
M  V30 1164 H 106.932 -0.447718 1.4975 0
M  V30 1165 H 107.667 -2.97386 1.29352 0
M  V30 1166 H 107.452 -2.51552 3.00772 0
M  V30 1167 H 108.942 -3.35633 2.48476 0
M  V30 1168 N 109.379 -1.50304 -0.473955 0
M  V30 1169 C 110.795 -1.37667 -0.807466 0
M  V30 1170 C 110.995 -0.430555 -1.96846 0
M  V30 1171 O 110.051 0.127874 -2.52176 0
M  V30 1172 C 111.364 -2.78974 -1.12223 0
M  V30 1173 C 112.912 -2.87868 -1.22885 0
M  V30 1174 C 113.387 -4.30003 -1.57676 0
M  V30 1175 N 114.878 -4.3294 -1.64673 0
M  V30 1176 C 115.613 -5.3991 -1.93091 0
M  V30 1177 N 115.109 -6.57092 -2.1955 0
M  V30 1178 N 116.902 -5.27351 -1.94569 0
M  V30 1179 H 109.053 -2.10394 0.291212 0
M  V30 1180 H 111.316 -0.945575 0.0677609 0
M  V30 1181 H 111.022 -3.50031 -0.342229 0
M  V30 1182 H 110.896 -3.16038 -2.05913 0
M  V30 1183 H 113.283 -2.17032 -1.99953 0
M  V30 1184 H 113.364 -2.54352 -0.271814 0
M  V30 1185 H 113.008 -5.01375 -0.81149 0
M  V30 1186 H 112.938 -4.61004 -2.54525 0
M  V30 1187 H 115.429 -3.48441 -1.46277 0
M  V30 1188 H 115.742 -7.34425 -2.405 0
M  V30 1189 H 114.087 -6.60272 -2.16948 0
M  V30 1190 H 117.278 -4.34801 -1.73394 0
M  V30 1191 H 117.451 -6.10805 -2.16381 0
M  V30 1192 N 110.857 0.726932 -1.39834 0
M  V30 1193 C 111.767 1.87131 -1.41489 0
M  V30 1194 C 112.783 1.71239 -0.308757 0
M  V30 1195 O 113.959 1.93701 -0.551529 0
M  V30 1196 C 111.024 3.22811 -1.26468 0
M  V30 1197 C 110.085 3.51039 -2.47124 0
M  V30 1198 C 109.318 4.80245 -2.3281 0
M  V30 1199 O 109.541 5.54537 -1.33585 0
M  V30 1200 O 108.475 5.08554 -3.21957 0
M  V30 1201 H 112.301 1.8869 -2.3797 0
M  V30 1202 H 109.886 0.875837 -1.21035 0
M  V30 1203 H 111.768 4.03877 -1.20255 0
M  V30 1204 H 110.443 3.22005 -0.330862 0
M  V30 1205 H 109.35 2.70027 -2.58914 0
M  V30 1206 H 110.683 3.56632 -3.39227 0
M  V30 1207 N 112.336 1.25143 0.95797 0
M  V30 1208 C 113.752 1.01892 1.22842 0
M  V30 1209 C 113.952 -0.266311 1.99732 0
M  V30 1210 O 113.008 -0.979913 2.3271 0
M  V30 1211 C 114.321 2.24004 2.00606 0
M  V30 1212 C 115.869 2.28731 2.13662 0
M  V30 1213 C 116.344 3.5049 2.94823 0
M  V30 1214 N 117.835 3.50866 3.02403 0
M  V30 1215 C 118.57 4.4174 3.65586 0
M  V30 1216 N 118.066 5.42882 4.30408 0
M  V30 1217 N 119.859 4.29429 3.62694 0
M  V30 1218 H 112.01 2.07718 0.443493 0
M  V30 1219 H 114.273 0.912031 0.258657 0
M  V30 1220 H 113.979 3.17395 1.51503 0
M  V30 1221 H 113.853 2.26907 3.01319 0
M  V30 1222 H 116.24 1.35865 2.61963 0
M  V30 1223 H 116.321 2.29848 1.12265 0
M  V30 1224 H 115.965 4.43676 2.47213 0
M  V30 1225 H 115.895 3.46617 3.96439 0
M  V30 1226 H 118.386 2.777 2.56302 0
M  V30 1227 H 118.699 6.0844 4.76467 0
M  V30 1228 H 117.044 5.46758 4.29047 0
M  V30 1229 H 120.235 3.49643 3.11236 0
M  V30 1230 H 120.408 5.00448 4.1165 0
M  V30 1231 N 113.814 -1.1601 1.06675 0
M  V30 1232 C 114.777 -2.18724 0.685001 0
M  V30 1233 C 115.777 -1.58496 -0.271246 0
M  V30 1234 O 116.967 -1.74119 -0.0531156 0
M  V30 1235 C 114.099 -3.40899 0.00853648 0
M  V30 1236 H 115.292 -2.54011 1.59431 0
M  V30 1237 H 112.845 -1.30352 0.862441 0
M  V30 1238 H 113.58 -3.11173 -0.913337 0
M  V30 1239 H 113.365 -3.8587 0.696204 0
M  V30 1240 H 114.855 -4.16886 -0.24414 0
M  V30 1241 N 115.292 -0.849877 -1.32721 0
M  V30 1242 C 116.239 -0.289033 -2.28983 0
M  V30 1243 C 117.209 0.601324 -1.54833 0
M  V30 1244 O 118.394 0.537253 -1.8308 0
M  V30 1245 C 115.534 0.520623 -3.4115 0
M  V30 1246 C 114.647 -0.394989 -4.3019 0
M  V30 1247 C 113.782 0.426834 -5.29482 0
M  V30 1248 C 112.821 -0.486476 -6.10164 0
M  V30 1249 N 111.958 0.297879 -7.01468 0
M  V30 1250 H 116.798 -1.11519 -2.76347 0
M  V30 1251 H 114.335 -0.56138 -1.35967 0
M  V30 1252 H 116.293 1.00563 -4.04899 0
M  V30 1253 H 114.923 1.31165 -2.9495 0
M  V30 1254 H 113.975 -0.99836 -3.67065 0
M  V30 1255 H 115.287 -1.09612 -4.86607 0
M  V30 1256 H 114.441 0.975205 -5.98811 0
M  V30 1257 H 113.18 1.16136 -4.73671 0
M  V30 1258 H 112.185 -1.04677 -5.39743 0
M  V30 1259 H 113.41 -1.21953 -6.6806 0
M  V30 1260 H 111.356 1.01558 -6.48091 0
M  V30 1261 H 111.273 -0.344318 -7.55216 0
M  V30 1262 H 112.541 0.828131 -7.75089 0
M  V30 1263 N 116.77 1.45427 -0.607355 0
M  V30 1264 C 117.702 2.2871 0.149752 0
M  V30 1265 C 118.715 1.39937 0.831958 0
M  V30 1266 O 119.904 1.64313 0.697385 0
M  V30 1267 C 117.004 3.15673 1.23304 0
M  V30 1268 C 116.177 4.32722 0.637996 0
M  V30 1269 C 115.236 5.00895 1.61215 0
M  V30 1270 O 114.262 5.57697 1.13854 0
M  V30 1271 N 115.464 5.00159 2.94655 0
M  V30 1272 H 118.229 2.94328 -0.564882 0
M  V30 1273 H 115.79 1.55612 -0.446823 0
M  V30 1274 H 117.782 3.58144 1.88454 0
M  V30 1275 H 116.352 2.51965 1.8502 0
M  V30 1276 H 115.572 3.93734 -0.191572 0
M  V30 1277 H 116.86 5.08321 0.220665 0
M  V30 1278 H 116.258 4.553 3.35735 0
M  V30 1279 H 114.815 5.46495 3.55228 0
M  V30 1280 N 118.248 0.346503 1.53744 0
M  V30 1281 C 119.178 -0.501193 2.28058 0
M  V30 1282 C 120.159 -1.10014 1.29734 0
M  V30 1283 O 121.344 -1.12097 1.58581 0
M  V30 1284 C 118.474 -1.65078 3.05559 0
M  V30 1285 C 117.428 -1.18003 4.11411 0
M  V30 1286 C 116.754 -2.41837 4.76884 0
M  V30 1287 C 118.054 -0.278394 5.21558 0
M  V30 1288 H 119.748 0.11875 2.99164 0
M  V30 1289 H 117.294 0.0585531 1.43881 0
M  V30 1290 H 119.247 -2.25028 3.56287 0
M  V30 1291 H 117.971 -2.29767 2.32109 0
M  V30 1292 H 116.63 -0.603331 3.61601 0
M  V30 1293 H 116.278 -3.0494 4.00026 0
M  V30 1294 H 115.978 -2.1102 5.48402 0
M  V30 1295 H 117.502 -3.02508 5.30397 0
M  V30 1296 H 118.916 -0.784823 5.67903 0
M  V30 1297 H 117.313 -0.0619707 6.00068 0
M  V30 1298 H 118.383 0.684677 4.80042 0
M  V30 1299 N 119.726 -1.57421 0.075193 0
M  V30 1300 C 120.973 -1.93618 -0.593146 0
M  V30 1301 C 121.301 -0.955484 -1.69413 0
M  V30 1302 O 120.556 0.0283251 -1.9568 0
M  V30 1303 C 120.855 -3.36428 -1.20626 0
M  V30 1304 C 120.521 -4.50307 -0.231078 0
M  V30 1305 C 119.183 -4.81186 0.0371936 0
M  V30 1306 C 121.535 -5.19374 0.435888 0
M  V30 1307 C 118.863 -5.78466 0.979461 0
M  V30 1308 C 121.215 -6.17665 1.3665 0
M  V30 1309 C 119.879 -6.46958 1.6432 0
M  V30 1310 H 119.149 -0.708499 -0.217047 0
M  V30 1311 H 121.796 -1.90937 0.146793 0
M  V30 1312 H 120.101 -3.35592 -2.02201 0
M  V30 1313 H 121.798 -3.61727 -1.73073 0
M  V30 1314 H 118.388 -4.26227 -0.450357 0
M  V30 1315 H 122.572 -4.95711 0.241748 0
M  V30 1316 H 117.828 -5.99487 1.20106 0
M  V30 1317 H 122.002 -6.70284 1.88924 0
M  V30 1318 H 119.629 -7.2215 2.37494 0
M  V30 1319 N 121.204 0.198386 -1.56346 0
M  V30 1320 C 122.452 0.91747 -1.80075 0
M  V30 1321 C 122.773 1.83929 -0.647692 0
M  V30 1322 O 122.043 1.93029 0.334166 0
M  V30 1323 H 120.623 0.341774 -0.664228 0
M  V30 1324 H 123.285 0.204684 -1.93822 0
M  V30 1325 H 122.381 1.51055 -2.7311 0
M  V30 1326 N 122.682 1.50554 0.465978 0
M  V30 1327 C 123.645 1.69233 1.54574 0
M  V30 1328 C 124.645 0.562901 1.50626 0
M  V30 1329 O 125.835 0.830016 1.53155 0
M  V30 1330 C 122.967 1.7223 2.94193 0
M  V30 1331 H 124.16 2.65571 1.39327 0
M  V30 1332 H 121.713 1.40111 0.692711 0
M  V30 1333 H 122.448 0.77603 3.14878 0
M  V30 1334 H 122.233 2.54285 2.98466 0
M  V30 1335 H 123.723 1.88618 3.72576 0
M  V30 1336 N 124.16 -0.719506 1.40217 0
M  V30 1337 C 125.07 -1.86378 1.42479 0
M  V30 1338 C 126.086 -1.71073 0.317834 0
M  V30 1339 O 127.262 -1.93406 0.561794 0
M  V30 1340 C 124.327 -3.22136 1.28178 0
M  V30 1341 C 123.388 -3.49723 2.48982 0
M  V30 1342 C 122.621 -4.79004 2.35353 0
M  V30 1343 O 122.844 -5.53821 1.36524 0
M  V30 1344 O 121.778 -5.06839 3.2465 0
M  V30 1345 H 125.604 -1.87425 2.38968 0
M  V30 1346 H 123.189 -0.869405 1.21498 0
M  V30 1347 H 125.071 -4.03234 1.22395 0
M  V30 1348 H 123.746 -3.21825 0.347934 0
M  V30 1349 H 122.653 -2.6865 2.60342 0
M  V30 1350 H 123.986 -3.54828 3.41113 0
M  V30 1351 N 125.638 -1.25649 -0.95132 0
M  V30 1352 C 126.588 -1.03004 -2.03406 0
M  V30 1353 C 127.572 0.034187 -1.60864 0
M  V30 1354 O 128.764 -0.181549 -1.76066 0
M  V30 1355 C 125.893 -0.654255 -3.37008 0
M  V30 1356 C 124.979 -1.75542 -3.86065 0
M  V30 1357 N 125.37 -2.99113 -4.07879 0
M  V30 1358 C 123.668 -1.63669 -4.14884 0
M  V30 1359 C 124.369 -3.70611 -4.48356 0
M  V30 1360 N 123.345 -2.98247 -4.54477 0
M  V30 1361 H 127.147 -1.96813 -2.1827 0
M  V30 1362 H 124.661 -1.16017 -1.13639 0
M  V30 1363 H 126.658 -0.473206 -4.14206 0
M  V30 1364 H 125.318 0.276468 -3.23521 0
M  V30 1365 H 126.329 -3.35124 -3.94857 0
M  V30 1366 H 123.006 -0.775161 -4.10241 0
M  V30 1367 H 124.396 -4.76695 -4.73509 0
M  V30 1368 N 127.117 1.15442 -1.07289 0
M  V30 1369 C 128.363 1.86489 -0.796846 0
M  V30 1370 C 128.696 1.82078 0.675371 0
M  V30 1371 O 127.971 1.24346 1.4956 0
M  V30 1372 C 128.254 3.35626 -1.30489 0
M  V30 1373 C 128.107 3.48673 -2.84161 0
M  V30 1374 C 129.426 4.30357 -0.920907 0
M  V30 1375 H 126.545 0.677144 -0.290939 0
M  V30 1376 H 129.187 1.35633 -1.33056 0
M  V30 1377 H 127.337 3.79068 -0.850883 0
M  V30 1378 H 129.009 3.14099 -3.37846 0
M  V30 1379 H 127.252 2.90253 -3.22391 0
M  V30 1380 H 127.923 4.53453 -3.14777 0
M  V30 1381 H 130.399 3.94871 -1.3121 0
M  V30 1382 H 129.275 5.33193 -1.30372 0
M  V30 1383 H 129.536 4.4176 0.173226 0
M  V30 1384 N 128.595 0.856903 1.32268 0
M  V30 1385 C 129.543 0.291987 2.3076 0
M  V30 1386 C 130.537 -0.585857 1.58947 0
M  V30 1387 O 131.743 -0.47341 1.73663 0
M  V30 1388 H 128.118 0.075721 0.748178 0
M  V30 1389 H 130.089 1.13687 2.75895 0
M  V30 1390 C 128.838 -0.502869 3.44044 0
M  V30 1391 H 128.161 0.163328 3.99466 0
M  V30 1392 H 129.601 -0.863691 4.1511 0
M  V30 1393 C 128.06 -1.68898 2.91505 0
M  V30 1394 O 128.59 -2.78811 2.89184 0
M  V30 1395 N 126.796 -1.51679 2.47875 0
M  V30 1396 H 126.343 -0.622666 2.49961 0
M  V30 1397 H 126.301 -2.31184 2.13076 0
M  V30 1398 N 130.073 -1.45103 0.615059 0
M  V30 1399 C 131.319 -2.02483 0.113347 0
M  V30 1400 C 131.652 -1.48146 -1.25564 0
M  V30 1401 O 130.927 -0.659104 -1.82992 0
M  V30 1402 C 131.21 -3.60005 0.0825278 0
M  V30 1403 C 131.063 -4.2466 1.48271 0
M  V30 1404 C 132.382 -4.35972 -0.601401 0
M  V30 1405 H 129.501 -0.735764 0.0426632 0
M  V30 1406 H 132.143 -1.72868 0.788461 0
M  V30 1407 H 130.293 -3.85367 -0.492378 0
M  V30 1408 H 131.965 -4.10458 2.10527 0
M  V30 1409 H 130.208 -3.82772 2.04127 0
M  V30 1410 H 130.879 -5.336 1.41332 0
M  V30 1411 H 133.355 -4.15947 -0.112666 0
M  V30 1412 H 132.231 -5.45697 -0.592097 0
M  V30 1413 H 132.492 -4.09391 -1.66887 0
M  V30 1414 N 131.551 -0.354651 -1.53558 0
M  V30 1415 C 132.483 0.5315 -2.22952 0
M  V30 1416 C 133.496 1.05503 -1.23988 0
M  V30 1417 O 134.685 0.963279 -1.50277 0
M  V30 1418 C 131.785 1.74538 -2.90499 0
M  V30 1419 C 130.958 1.35524 -4.15875 0
M  V30 1420 C 130.017 2.42999 -4.66731 0
M  V30 1421 O 129.043 2.05844 -5.30676 0
M  V30 1422 N 130.245 3.74423 -4.43608 0
M  V30 1423 H 133.01 -0.0628615 -2.99634 0
M  V30 1424 H 130.571 -0.179302 -1.60904 0
M  V30 1425 H 132.563 2.45892 -3.21433 0
M  V30 1426 H 131.133 2.24686 -2.17336 0
M  V30 1427 H 130.353 0.471998 -3.91364 0
M  V30 1428 H 131.641 1.07071 -4.97406 0
M  V30 1429 H 131.039 4.07391 -3.92491 0
M  V30 1430 H 129.596 4.41913 -4.7912 0
M  V30 1431 N 133.029 1.57378 -0.0835403 0
M  V30 1432 C 134.44 1.81261 0.447358 0
M  V30 1433 C 134.791 0.998331 1.68902 0
M  V30 1434 O 133.916 0.224282 2.15235 0
M  V30 1435 C 134.511 3.28767 0.818386 0
M  V30 1436 C 133.07 3.53455 1.29409 0
M  V30 1437 C 132.217 2.75831 0.285024 0
M  V30 1438 H 135.168 1.5566 -0.309115 0
M  V30 1439 H 135.189 3.41459 1.67887 0
M  V30 1440 H 134.701 3.88006 -0.0855019 0
M  V30 1441 H 132.802 2.99534 2.21608 0
M  V30 1442 H 132.915 4.62128 1.2639 0
M  V30 1443 H 131.279 2.42947 0.764767 0
M  V30 1444 H 132.062 3.37813 -0.611341 0
M  V30 1445 N 134.507 -0.190092 1.56449 0
M  V30 1446 C 135.457 -1.23977 1.91347 0
M  V30 1447 C 136.441 -1.40747 0.779693 0
M  V30 1448 O 137.633 -1.43033 1.04262 0
M  V30 1449 C 134.762 -2.58347 2.26079 0
M  V30 1450 C 133.848 -2.4535 3.45925 0
M  V30 1451 N 134.239 -2.02039 4.63696 0
M  V30 1452 C 132.537 -2.76229 3.50162 0
M  V30 1453 C 133.238 -2.01053 5.4585 0
M  V30 1454 N 132.214 -2.42747 4.8639 0
M  V30 1455 H 136.016 -0.896318 2.79899 0
M  V30 1456 H 133.53 -0.398496 1.57435 0
M  V30 1457 H 135.527 -3.34173 2.49267 0
M  V30 1458 H 134.187 -2.93512 1.38856 0
M  V30 1459 H 135.198 -1.7267 4.88268 0
M  V30 1460 H 131.875 -3.15556 2.73369 0
M  V30 1461 H 133.265 -1.69426 6.50188 0
M  V30 1462 N 135.985 -1.50799 -0.457987 0
M  V30 1463 C 137.21 -1.66496 -1.23668 0
M  V30 1464 C 137.635 -0.353288 -1.84752 0
M  V30 1465 O 136.993 0.684346 -1.67888 0
M  V30 1466 C 137.041 -2.76763 -2.3116 0
M  V30 1467 O 136.145 -2.38928 -3.36136 0
M  V30 1468 H 135.486 -0.555828 -0.363252 0
M  V30 1469 H 138.016 -1.9725 -0.543474 0
M  V30 1470 H 138.026 -3.00232 -2.76269 0
M  V30 1471 H 136.701 -3.71954 -1.86073 0
M  V30 1472 H 135.278 -2.25953 -2.96647 0
M  V30 1473 N 137.463 0.71206 -1.40597 0
M  V30 1474 C 138.711 1.46907 -1.38791 0
M  V30 1475 C 139.032 1.94998 0.00780391 0
M  V30 1476 O 138.302 1.70587 0.963174 0
M  V30 1477 H 136.882 0.545043 -0.51082 0
M  V30 1478 H 139.544 0.843882 -1.75683 0
M  V30 1479 H 138.64 2.34021 -2.06496 0
M  V30 1480 N 138.941 1.26152 0.944643 0
M  V30 1481 C 139.904 1.07474 2.0244 0
M  V30 1482 C 140.904 0.0242064 1.60782 0
M  V30 1483 O 142.094 0.267302 1.72137 0
M  V30 1484 C 139.226 0.633956 3.34953 0
M  V30 1485 H 140.419 2.03336 2.20442 0
M  V30 1486 H 137.972 1.087 1.12312 0
M  V30 1487 H 138.707 -0.326811 3.22649 0
M  V30 1488 H 138.492 1.39247 3.66542 0
M  V30 1489 H 139.982 0.52501 4.14287 0
M  V30 1490 N 140.419 -1.14872 1.07899 0
M  V30 1491 C 141.351 -2.19425 0.662231 0
M  V30 1492 C 142.364 -1.60231 -0.288079 0
M  V30 1493 O 143.553 -1.78336 -0.076534 0
M  V30 1494 C 140.653 -3.38867 -0.0470695 0
M  V30 1495 C 139.826 -4.27597 0.920831 0
M  V30 1496 C 138.885 -5.25616 0.247805 0
M  V30 1497 O 137.911 -5.62189 0.890599 0
M  V30 1498 N 139.113 -5.71746 -1.00435 0
M  V30 1499 H 141.878 -2.55797 1.56166 0
M  V30 1500 H 139.439 -1.30042 0.964404 0
M  V30 1501 H 141.431 -4.01497 -0.50813 0
M  V30 1502 H 140.001 -3.00864 -0.848523 0
M  V30 1503 H 139.221 -3.61982 1.56087 0
M  V30 1504 H 140.509 -4.83748 1.57688 0
M  V30 1505 H 139.907 -5.44153 -1.54642 0
M  V30 1506 H 138.464 -6.36389 -1.40899 0
M  V30 1507 N 141.898 -0.863906 -1.31812 0
M  V30 1508 C 142.861 -0.320212 -2.26952 0
M  V30 1509 C 143.861 0.525369 -1.51975 0
M  V30 1510 O 145.051 0.335547 -1.70938 0
M  V30 1511 C 142.183 0.545919 -3.365 0
M  V30 1512 H 143.376 -1.16004 -2.76556 0
M  V30 1513 H 140.929 -0.638995 -1.42641 0
M  V30 1514 H 141.664 1.40718 -2.92179 0
M  V30 1515 H 141.449 -0.0594674 -3.92055 0
M  V30 1516 H 142.939 0.918796 -4.07367 0
M  V30 1517 N 143.376 1.44774 -0.622745 0
M  V30 1518 C 144.324 2.32387 0.0994683 0
M  V30 1519 C 145.318 1.46859 0.844326 0
M  V30 1520 O 146.524 1.63254 0.758174 0
M  V30 1521 H 142.899 0.750273 0.0509291 0
M  V30 1522 H 144.87 2.91062 -0.65767 0
M  V30 1523 C 143.619 3.30723 1.07319 0
M  V30 1524 H 142.942 3.96541 0.509462 0
M  V30 1525 H 144.382 3.94725 1.54817 0
M  V30 1526 C 142.841 2.59021 2.15429 0
M  V30 1527 O 143.371 2.38286 3.23393 0
M  V30 1528 N 141.577 2.189 1.91131 0
M  V30 1529 H 141.124 2.35964 1.03337 0
M  V30 1530 H 141.082 1.71251 2.63668 0
M  V30 1531 N 144.854 0.36279 1.53368 0
M  V30 1532 C 145.787 -0.528507 2.21996 0
M  V30 1533 C 146.765 -1.0852 1.21087 0
M  V30 1534 O 147.949 -1.14186 1.4998 0
M  V30 1535 C 145.076 -1.72893 2.91249 0
M  V30 1536 C 144.122 -1.29994 4.06207 0
M  V30 1537 S 144.955 -0.303575 5.34639 0
M  V30 1538 C 146.111 -1.51039 6.07403 0
M  V30 1539 H 146.344 0.0543423 2.9725 0
M  V30 1540 H 143.877 0.146889 1.537 0
M  V30 1541 H 145.835 -2.41751 3.31763 0
M  V30 1542 H 144.496 -2.28303 2.15724 0
M  V30 1543 H 143.689 -2.19549 4.53667 0
M  V30 1544 H 143.291 -0.690608 3.67569 0
M  V30 1545 H 145.583 -2.44186 6.31965 0
M  V30 1546 H 146.526 -1.07721 6.99858 0
M  V30 1547 H 146.934 -1.71518 5.37812 0
M  V30 1548 N 146.332 -1.57332 0.0918853 0
M  V30 1549 C 147.295 -2.12708 -0.85369 0
M  V30 1550 C 148.295 -1.05561 -1.213 0
M  V30 1551 O 149.485 -1.31461 -1.14296 0
M  V30 1552 C 146.617 -2.64503 -2.15061 0
M  V30 1553 H 147.81 -2.97573 -0.3729 0
M  V30 1554 H 145.363 -1.55509 -0.157072 0
M  V30 1555 H 146.098 -1.83149 -2.67632 0
M  V30 1556 H 145.883 -3.4284 -1.90272 0
M  V30 1557 H 147.373 -3.07351 -2.82711 0
M  V30 1558 N 147.81 0.181792 -1.56548 0
M  V30 1559 C 149.056 0.901431 -1.81665 0
M  V30 1560 C 149.389 1.82347 -0.668075 0
M  V30 1561 O 148.664 1.91669 0.330615 0
M  V30 1562 C 148.947 1.70618 -3.17115 0
M  V30 1563 C 148.8 0.807964 -4.42484 0
M  V30 1564 C 150.119 2.67605 -3.49393 0
M  V30 1565 H 147.238 0.32627 -0.660846 0
M  V30 1566 H 149.88 0.168134 -1.89255 0
M  V30 1567 H 148.03 2.33133 -3.10775 0
M  V30 1568 H 149.702 0.19649 -4.60881 0
M  V30 1569 H 147.945 0.115411 -4.33646 0
M  V30 1570 H 148.616 1.40632 -5.33785 0
M  V30 1571 H 151.092 2.15218 -3.56118 0
M  V30 1572 H 149.968 3.20985 -4.45264 0
M  V30 1573 H 150.229 3.47298 -2.73563 0
M  V30 1574 N 149.288 1.51039 0.449983 0
M  V30 1575 C 150.518 1.66627 1.22143 0
M  V30 1576 C 150.926 0.357776 1.85786 0
M  V30 1577 O 150.269 -0.672424 1.70951 0
M  V30 1578 C 150.331 2.71562 2.35573 0
M  V30 1579 C 149.995 4.14526 1.92399 0
M  V30 1580 C 150.992 4.99717 1.43453 0
M  V30 1581 C 148.677 4.60559 2.00475 0
M  V30 1582 C 150.671 6.28998 1.03155 0
M  V30 1583 C 148.358 5.8984 1.59788 0
M  V30 1584 C 149.356 6.73886 1.11208 0
M  V30 1585 O 149.044 8.0075 0.710935 0
M  V30 1586 H 148.776 0.562635 0.374724 0
M  V30 1587 H 151.33 1.98146 0.541036 0
M  V30 1588 H 149.56 2.3533 3.06849 0
M  V30 1589 H 151.249 2.76156 2.97478 0
M  V30 1590 H 152.015 4.65361 1.36618 0
M  V30 1591 H 147.894 3.95273 2.37235 0
M  V30 1592 H 151.438 6.9455 0.651663 0
M  V30 1593 H 147.335 6.23713 1.66289 0
M  V30 1594 H 148.103 8.142 0.837913 0
M  V30 1595 N 150.766 -0.704594 1.40972 0
M  V30 1596 C 152.013 -1.46458 1.39844 0
M  V30 1597 C 152.341 -1.94499 0.00447594 0
M  V30 1598 O 151.596 -1.69275 -0.982057 0
M  V30 1599 C 151.895 -2.698 2.34399 0
M  V30 1600 C 151.561 -2.40464 3.81429 0
M  V30 1601 C 150.223 -2.32174 4.21484 0
M  V30 1602 C 152.575 -2.16086 4.74296 0
M  V30 1603 C 149.903 -1.97589 5.52427 0
M  V30 1604 C 152.255 -1.83011 6.05549 0
M  V30 1605 C 150.919 -1.7321 6.44635 0
M  V30 1606 H 150.189 -0.535927 0.511725 0
M  V30 1607 H 152.836 -0.806124 1.73706 0
M  V30 1608 H 151.141 -3.40536 1.93759 0
M  V30 1609 H 152.838 -3.27919 2.30804 0
M  V30 1610 H 149.428 -2.47808 3.49699 0
M  V30 1611 H 153.612 -2.2144 4.4416 0
M  V30 1612 H 148.868 -1.88547 5.81601 0
M  V30 1613 H 153.042 -1.63164 6.77016 0
M  V30 1614 H 150.669 -1.46179 7.46013 0
M  V30 1615 N 152.244 -1.26651 -0.937939 0
M  V30 1616 C 153.472 -1.15173 -1.7188 0
M  V30 1617 C 153.887 0.292668 -1.86518 0
M  V30 1618 O 153.244 1.20014 -1.37488 0
M  V30 1619 C 153.295 -1.81925 -3.12387 0
M  V30 1620 O 153.016 -3.2072 -2.98446 0
M  V30 1621 C 154.517 -1.76442 -4.06673 0
M  V30 1622 H 151.737 -0.400911 -0.538063 0
M  V30 1623 H 154.281 -1.67332 -1.1756 0
M  V30 1624 H 152.436 -1.33696 -3.63599 0
M  V30 1625 H 152.85 -3.53802 -3.872 0
M  V30 1626 H 154.324 -2.27781 -5.02812 0
M  V30 1627 H 154.801 -0.731608 -4.33064 0
M  V30 1628 H 155.407 -2.24238 -3.61382 0
M  V30 1629 N 153.722 1.14298 -1.08507 0
M  V30 1630 C 154.968 1.85633 -0.816581 0
M  V30 1631 C 155.301 1.82784 0.656021 0
M  V30 1632 O 154.576 1.25926 1.48233 0
M  V30 1633 C 154.859 3.34223 -1.34041 0
M  V30 1634 C 154.712 3.45639 -2.87843 0
M  V30 1635 C 156.031 4.29356 -0.9665 0
M  V30 1636 H 153.15 0.67402 -0.298104 0
M  V30 1637 H 155.792 1.34214 -1.34487 0
M  V30 1638 H 153.942 3.78144 -0.89104 0
M  V30 1639 H 155.614 3.10498 -3.41158 0
M  V30 1640 H 153.857 2.86817 -3.25451 0
M  V30 1641 H 154.528 4.50089 -3.19569 0
M  V30 1642 H 157.004 3.93457 -1.35391 0
M  V30 1643 H 155.88 5.3178 -1.3602 0
M  V30 1644 H 156.141 4.41919 0.126362 0
M  V30 1645 N 155.201 0.870884 1.31352 0
M  V30 1646 C 156.131 0.343096 2.30966 0
M  V30 1647 C 157.112 -0.566507 1.60389 0
M  V30 1648 O 158.297 -0.483336 1.88089 0
M  V30 1649 C 155.427 -0.455487 3.443 0
M  V30 1650 C 154.381 0.361103 4.26474 0
M  V30 1651 C 153.707 -0.563221 5.31725 0
M  V30 1652 C 155.007 1.59566 4.97329 0
M  V30 1653 H 156.701 1.17548 2.75359 0
M  V30 1654 H 154.247 0.566686 1.32381 0
M  V30 1655 H 156.2 -0.83525 4.13039 0
M  V30 1656 H 154.924 -1.32139 2.98675 0
M  V30 1657 H 153.583 0.722825 3.59403 0
M  V30 1658 H 153.231 -1.42643 4.82351 0
M  V30 1659 H 152.931 -0.0207409 5.87596 0
M  V30 1660 H 154.455 -0.939808 6.03324 0
M  V30 1661 H 155.869 1.28728 5.58661 0
M  V30 1662 H 154.266 2.07728 5.63 0
M  V30 1663 H 155.336 2.34798 4.24262 0
M  V30 1664 N 156.679 -1.44442 0.630414 0
M  V30 1665 C 157.589 -2.34476 -0.0761693 0
M  V30 1666 C 158.605 -1.52576 -0.836449 0
M  V30 1667 O 159.781 -1.85307 -0.788874 0
M  V30 1668 C 156.846 -3.30545 -1.04599 0
M  V30 1669 C 155.907 -4.28352 -0.28516 0
M  V30 1670 C 155.14 -5.19831 -1.20878 0
M  V30 1671 O 155.363 -5.15223 -2.44747 0
M  V30 1672 O 154.297 -5.97892 -0.693491 0
M  V30 1673 H 158.123 -2.96345 0.664324 0
M  V30 1674 H 155.708 -1.44203 0.39061 0
M  V30 1675 H 157.59 -3.89681 -1.60396 0
M  V30 1676 H 156.265 -2.7121 -1.76711 0
M  V30 1677 H 155.172 -3.72764 0.315837 0
M  V30 1678 H 156.505 -4.90605 0.395924 0
M  V30 1679 N 158.157 -0.370918 -1.53173 0
M  V30 1680 C 159.107 0.489588 -2.22681 0
M  V30 1681 C 160.091 1.04442 -1.22395 0
M  V30 1682 O 161.283 0.973578 -1.47819 0
M  V30 1683 C 158.412 1.626 -3.02351 0
M  V30 1684 C 157.498 1.08379 -4.10018 0
M  V30 1685 N 157.889 0.265004 -5.05105 0
M  V30 1686 C 156.187 1.35809 -4.2482 0
M  V30 1687 C 156.888 -0.0324755 -5.81691 0
M  V30 1688 N 155.864 0.566581 -5.40639 0
M  V30 1689 H 159.666 -0.142729 -2.93553 0
M  V30 1690 H 157.18 -0.179221 -1.61408 0
M  V30 1691 H 159.177 2.2547 -3.50669 0
M  V30 1692 H 157.837 2.26132 -2.33011 0
M  V30 1693 H 158.848 -0.0962352 -5.17811 0
M  V30 1694 H 155.525 1.9958 -3.66707 0
M  V30 1695 H 156.915 -0.69473 -6.68299 0
M  V30 1696 N 159.635 1.57281 -0.100228 0
M  V30 1697 C 160.883 1.94153 0.561157 0
M  V30 1698 C 161.204 0.983157 1.68401 0
M  V30 1699 O 160.474 0.0361132 1.95867 0
M  V30 1700 H 159.054 0.716791 0.210283 0
M  V30 1701 H 161.716 1.94202 -0.164765 0
M  V30 1702 H 160.812 2.96709 0.968008 0
M  V30 1703 N 161.113 -0.173488 1.56642 0
M  V30 1704 C 162.39 -0.917617 1.7274 0
M  V30 1705 C 162.77 -2.00484 0.661027 0
M  V30 1706 O 162.118 -2.26184 -0.32453 0
M  V30 1707 C 162.328 -1.48433 3.15862 0
M  V30 1708 C 163.676 -1.95809 3.76754 0
M  V30 1709 O 164.7 -1.58231 3.19126 0
M  V30 1710 O 163.559 -2.65024 4.77938 0
M  V30 1711 H 160.653 -0.431772 0.705338 0
M  V30 1712 H 163.199 -0.161487 1.6893 0
M  V30 1713 H 161.971 -0.701715 3.84957 0
M  V30 1714 H 161.594 -2.30471 3.23989 0
M  V30 1715 N 162.591 -1.51276 -0.441967 0
M  V30 1716 C 163.819 -1.67516 -1.21434 0
M  V30 1717 C 164.234 -0.37055 -1.85128 0
M  V30 1718 O 163.591 0.650498 -1.70513 0
M  V30 1719 C 163.642 -2.78748 -2.30177 0
M  V30 1720 O 163.363 -4.04154 -1.69089 0
M  V30 1721 C 164.864 -3.06217 -3.20541 0
M  V30 1722 H 162.084 -0.562276 -0.366178 0
M  V30 1723 H 164.628 -1.97666 -0.524244 0
M  V30 1724 H 162.783 -2.5121 -2.94911 0
M  V30 1725 H 163.197 -4.65894 -2.40922 0
M  V30 1726 H 164.671 -3.8764 -3.92987 0
M  V30 1727 H 165.148 -2.18439 -3.81026 0
M  V30 1728 H 165.754 -3.35397 -2.61513 0
M  V30 1729 N 164.069 0.697108 -1.41344 0
M  V30 1730 C 165.315 1.4593 -1.40827 0
M  V30 1731 C 165.648 1.94193 -0.0167098 0
M  V30 1732 O 164.923 1.69425 0.955263 0
M  V30 1733 C 165.206 2.67229 -2.41373 0
M  V30 1734 C 165.059 2.24741 -3.8963 0
M  V30 1735 C 166.378 3.69423 -2.39196 0
M  V30 1736 H 163.497 0.529303 -0.512842 0
M  V30 1737 H 166.139 0.794112 -1.72609 0
M  V30 1738 H 164.289 3.23982 -2.14401 0
M  V30 1739 H 165.961 1.73327 -4.27499 0
M  V30 1740 H 164.204 1.56542 -4.0457 0
M  V30 1741 H 164.875 3.1177 -4.55525 0
M  V30 1742 H 167.351 3.2234 -2.63128 0
M  V30 1743 H 166.227 4.51907 -3.11563 0
M  V30 1744 H 166.488 4.19012 -1.41001 0
M  V30 1745 N 165.547 1.27147 0.931209 0
M  V30 1746 C 166.477 1.12081 2.04842 0
M  V30 1747 C 167.458 0.0232364 1.70084 0
M  V30 1748 O 168.643 0.197085 1.93197 0
M  V30 1749 C 165.773 0.76354 3.38803 0
M  V30 1750 C 164.727 1.81396 3.87659 0
M  V30 1751 C 164.053 1.31075 5.18385 0
M  V30 1752 C 165.353 3.21739 4.11438 0
M  V30 1753 H 167.047 2.05537 2.17703 0
M  V30 1754 H 164.593 0.989603 1.04608 0
M  V30 1755 H 166.546 0.644982 4.16435 0
M  V30 1756 H 165.27 -0.206727 3.25945 0
M  V30 1757 H 163.929 1.92136 3.12217 0
M  V30 1758 H 163.577 0.330037 5.01916 0
M  V30 1759 H 163.277 2.013 5.52044 0
M  V30 1760 H 164.801 1.20506 5.98591 0
M  V30 1761 H 166.215 3.14019 4.79651 0
M  V30 1762 H 164.612 3.89644 4.56397 0
M  V30 1763 H 165.682 3.67054 3.16859 0
M  V30 1764 N 167.025 -1.13721 1.09112 0
M  V30 1765 C 168.273 -1.84559 0.823562 0
M  V30 1766 C 168.594 -1.83754 -0.652658 0
M  V30 1767 O 167.864 -1.29102 -1.47342 0
M  V30 1768 H 166.444 -0.683376 0.301673 0
M  V30 1769 H 169.106 -1.37771 1.37859 0
M  V30 1770 H 168.202 -2.8917 1.17419 0
M  V30 1771 N 168.503 -0.877838 -1.30888 0
M  V30 1772 C 169.436 -0.283995 -2.26426 0
M  V30 1773 C 170.414 0.591361 -1.51465 0
M  V30 1774 O 171.598 0.54304 -1.80509 0
M  V30 1775 C 168.725 0.597129 -3.33395 0
M  V30 1776 C 167.771 -0.207937 -4.25993 0
M  V30 1777 S 168.604 -1.59158 -5.11301 0
M  V30 1778 C 169.76 -0.716791 -6.21782 0
M  V30 1779 H 169.993 -1.09383 -2.76446 0
M  V30 1780 H 167.526 -0.676828 -1.38775 0
M  V30 1781 H 169.484 1.09978 -3.95493 0
M  V30 1782 H 168.145 1.38099 -2.82113 0
M  V30 1783 H 167.338 0.464163 -5.01858 0
M  V30 1784 H 166.94 -0.642963 -3.68432 0
M  V30 1785 H 169.232 0.0692833 -6.77465 0
M  V30 1786 H 170.175 -1.44682 -6.93161 0
M  V30 1787 H 170.583 -0.280855 -5.63801 0
M  V30 1788 N 169.982 1.44106 -0.638065 0
M  V30 1789 C 170.93 2.3248 0.0748149 0
M  V30 1790 C 171.924 1.47746 0.828702 0
M  V30 1791 O 173.13 1.64049 0.740816 0
M  V30 1792 H 169.505 0.750771 0.0429686 0
M  V30 1793 H 171.476 2.90348 -0.688504 0
M  V30 1794 C 170.225 3.31843 1.03805 0
M  V30 1795 H 169.548 3.97059 0.467375 0
M  V30 1796 H 170.988 3.96345 1.50622 0
M  V30 1797 C 169.447 2.61291 2.1267 0
M  V30 1798 O 169.977 2.41702 3.20847 0
M  V30 1799 N 168.183 2.20915 1.88798 0
M  V30 1800 H 167.73 2.37047 1.00829 0
M  V30 1801 H 167.688 1.74038 2.61836 0
M  V30 1802 N 171.46 0.379036 1.52974 0
M  V30 1803 C 172.39 -0.452706 2.29069 0
M  V30 1804 C 173.371 -1.07237 1.32039 0
M  V30 1805 O 174.556 -1.08708 1.60923 0
M  V30 1806 C 171.686 -1.5856 3.08992 0
M  V30 1807 C 170.64 -1.0925 4.13822 0
M  V30 1808 C 169.966 -2.31668 4.81907 0
M  V30 1809 C 171.266 -0.167702 5.22031 0
M  V30 1810 H 172.96 0.182181 2.98845 0
M  V30 1811 H 170.506 0.0890592 1.43724 0
M  V30 1812 H 172.459 -2.1742 3.6098 0
M  V30 1813 H 171.183 -2.24792 2.36931 0
M  V30 1814 H 169.842 -0.526494 3.628 0
M  V30 1815 H 169.49 -2.96386 4.06404 0
M  V30 1816 H 169.19 -1.9934 5.52754 0
M  V30 1817 H 170.714 -2.91189 5.36695 0
M  V30 1818 H 172.128 -0.664186 5.6944 0
M  V30 1819 H 170.525 0.0653265 6.00064 0
M  V30 1820 H 171.595 0.786347 4.78482 0
M  V30 1821 N 172.938 -1.57226 0.108567 0
M  V30 1822 C 174.163 -1.99604 -0.563303 0
M  V30 1823 C 174.588 -0.987563 -1.6009 0
M  V30 1824 O 173.946 0.0421687 -1.81251 0
M  V30 1825 C 173.994 -3.40902 -1.17552 0
M  V30 1826 O 173.098 -3.42896 -2.2912 0
M  V30 1827 H 172.439 -0.648704 -0.1417 0
M  V30 1828 H 174.969 -2.03679 0.193961 0
M  V30 1829 H 174.979 -3.78886 -1.51357 0
M  V30 1830 H 173.654 -4.1382 -0.415445 0
M  V30 1831 H 172.231 -3.1672 -1.96832 0
M  V30 1832 N 174.416 0.165178 -1.56732 0
M  V30 1833 C 175.366 1.20917 -1.93295 0
M  V30 1834 C 176.35 1.39488 -0.801985 0
M  V30 1835 O 177.542 1.41356 -1.06525 0
M  V30 1836 C 174.671 2.54718 -2.3016 0
M  V30 1837 C 173.757 2.39815 -3.49785 0
M  V30 1838 N 174.148 1.94637 -4.66851 0
M  V30 1839 C 172.446 2.70623 -3.54513 0
M  V30 1840 C 173.147 1.92344 -5.4898 0
M  V30 1841 N 172.123 2.34978 -4.9019 0
M  V30 1842 H 175.925 0.851675 -2.81289 0
M  V30 1843 H 173.439 0.373399 -1.58049 0
M  V30 1844 H 175.436 3.30165 -2.54552 0
M  V30 1845 H 174.096 2.91265 -1.43508 0
M  V30 1846 H 175.107 1.6488 -4.90953 0
M  V30 1847 H 171.784 3.11167 -2.78354 0
M  V30 1848 H 173.174 1.5906 -6.52801 0
M  V30 1849 N 175.894 1.51508 0.433938 0
M  V30 1850 C 177.142 1.6402 1.18075 0
M  V30 1851 C 177.463 0.360328 1.91642 0
M  V30 1852 O 176.733 -0.623945 1.85698 0
M  V30 1853 H 175.313 0.6045 0.43885 0
M  V30 1854 H 177.975 1.88452 0.497178 0
M  V30 1855 H 177.071 2.46949 1.90847 0
M  V30 1856 N 177.372 -0.689602 1.41712 0
M  V30 1857 C 178.62 -1.4468 1.4111 0
M  V30 1858 C 178.941 -1.94986 0.0232196 0
M  V30 1859 O 178.211 -1.72097 -0.935913 0
M  V30 1860 H 176.791 -0.536847 0.519427 0
M  V30 1861 H 179.453 -0.815825 1.77004 0
M  V30 1862 H 178.549 -2.30706 2.10193 0
M  V30 1863 N 178.85 -1.27639 -0.924453 0
M  V30 1864 C 179.8 -1.07295 -2.01176 0
M  V30 1865 C 180.784 5.77352e-05 -1.609 0
M  V30 1866 O 181.976 -0.218855 -1.75642 0
M  V30 1867 C 179.105 -0.725592 -3.35544 0
M  V30 1868 C 178.191 -1.83691 -3.82254 0
M  V30 1869 N 178.582 -3.07697 -4.01443 0
M  V30 1870 C 176.88 -1.72433 -4.11319 0
M  V30 1871 C 177.581 -3.80037 -4.40394 0
M  V30 1872 N 176.557 -3.0782 -4.48049 0
M  V30 1873 H 180.359 -2.01399 -2.14046 0
M  V30 1874 H 177.873 -1.18401 -1.11153 0
M  V30 1875 H 179.87 -0.560959 -4.13109 0
M  V30 1876 H 178.53 0.207782 -3.24034 0
M  V30 1877 H 179.541 -3.43424 -3.8766 0
M  V30 1878 H 176.218 -0.862005 -4.08504 0
M  V30 1879 H 177.608 -4.86632 -4.63291 0
M  V30 1880 N 180.328 1.1314 -1.09713 0
M  V30 1881 C 181.258 2.20748 -0.761102 0
M  V30 1882 C 182.239 1.68061 0.262566 0
M  V30 1883 O 183.424 1.93765 0.129977 0
M  V30 1884 C 180.554 3.46812 -0.184054 0
M  V30 1885 C 179.508 4.12606 -1.13757 0
M  V30 1886 C 178.834 5.33031 -0.422083 0
M  V30 1887 C 180.134 4.59603 -2.48118 0
M  V30 1888 H 181.828 2.49113 -1.66082 0
M  V30 1889 H 179.374 1.19734 -0.799987 0
M  V30 1890 H 181.327 4.21353 0.0631215 0
M  V30 1891 H 180.051 3.17851 0.750868 0
M  V30 1892 H 178.71 3.40036 -1.37007 0
M  V30 1893 H 178.358 5.00335 0.517072 0
M  V30 1894 H 178.058 5.77999 -1.05788 0
M  V30 1895 H 179.582 6.10325 -0.183277 0
M  V30 1896 H 180.996 5.25552 -2.29059 0
M  V30 1897 H 179.393 5.15321 -3.07514 0
M  V30 1898 H 180.463 3.73971 -3.08665 0
M  V30 1899 N 181.806 0.884767 1.30421 0
M  V30 1900 C 183.034 0.518044 2.0031 0
M  V30 1901 C 183.449 -0.893408 1.66324 0
M  V30 1902 O 182.806 -1.5875 0.900262 0
M  V30 1903 C 182.857 0.682997 3.54989 0
M  V30 1904 O 182.578 2.03888 3.87764 0
M  V30 1905 C 184.079 0.31924 4.42149 0
M  V30 1906 H 181.299 0.200265 0.640418 0
M  V30 1907 H 183.843 1.19001 1.6631 0
M  V30 1908 H 181.998 0.0584052 3.87356 0
M  V30 1909 H 182.412 2.05735 4.82466 0
M  V30 1910 H 183.886 0.485555 5.4986 0
M  V30 1911 H 184.363 -0.742717 4.32875 0
M  V30 1912 H 184.969 0.920147 4.15227 0
M  V30 1913 N 183.284 -1.43765 0.645699 0
M  V30 1914 C 184.234 -2.27884 -0.0726442 0
M  V30 1915 C 185.218 -1.39483 -0.802086 0
M  V30 1916 O 186.41 -1.63174 -0.685791 0
M  V30 1917 C 183.539 -3.27055 -1.04356 0
M  V30 1918 C 182.625 -4.22944 -0.312985 0
M  V30 1919 N 183.016 -5.01391 0.666386 0
M  V30 1920 C 181.314 -4.42528 -0.55546 0
M  V30 1921 C 182.015 -5.71217 1.09935 0
M  V30 1922 N 180.991 -5.41856 0.435137 0
M  V30 1923 H 184.793 -2.85949 0.678988 0
M  V30 1924 H 182.307 -1.55378 0.472368 0
M  V30 1925 H 184.304 -3.86089 -1.57292 0
M  V30 1926 H 182.964 -2.70551 -1.79534 0
M  V30 1927 H 183.975 -5.07252 1.04481 0
M  V30 1928 H 180.652 -3.97104 -1.28899 0
M  V30 1929 H 182.042 -6.44202 1.90929 0
M  V30 1930 N 184.763 -0.387143 -1.52771 0
M  V30 1931 C 186.011 0.195349 -2.01154 0
M  V30 1932 C 186.332 1.475 -1.27549 0
M  V30 1933 O 185.602 1.91878 -0.394924 0
M  V30 1934 H 184.182 0.075178 -0.743207 0
M  V30 1935 H 186.844 -0.518337 -1.87881 0
M  V30 1936 H 185.94 0.407096 -3.09434 0
M  V30 1937 N 186.241 1.57166 -0.116904 0
M  V30 1938 C 187.466 1.999 0.55271 0
M  V30 1939 C 187.891 0.996039 1.59564 0
M  V30 1940 O 187.249 -0.032556 1.81271 0
M  V30 1941 C 187.297 3.4152 1.15742 0
M  V30 1942 O 186.401 3.44106 2.27299 0
M  V30 1943 H 185.742 0.649447 0.138258 0
M  V30 1944 H 188.272 2.03573 -0.204759 0
M  V30 1945 H 188.282 3.79684 1.49346 0
M  V30 1946 H 186.957 4.14034 0.393493 0
M  V30 1947 H 185.534 3.17759 1.9515 0
M  V30 1948 N 187.719 -0.156864 1.56817 0
M  V30 1949 C 189.13 -0.717916 1.72345 0
M  V30 1950 C 189.481 -1.82124 0.729747 0
M  V30 1951 O 188.606 -2.16141 -0.105781 0
M  V30 1952 C 189.201 -1.30904 3.12489 0
M  V30 1953 C 187.76 -1.81676 3.29653 0
M  V30 1954 C 186.907 -0.701349 2.68284 0
M  V30 1955 H 189.858 0.0686989 1.58551 0
M  V30 1956 H 189.879 -2.17882 3.11942 0
M  V30 1957 H 189.391 -0.505796 3.8479 0
M  V30 1958 H 187.492 -2.64598 2.62333 0
M  V30 1959 H 187.605 -1.95226 4.3752 0
M  V30 1960 H 185.969 -1.12548 2.28484 0
M  V30 1961 H 186.752 0.0902846 3.43181 0
M  V30 1962 N 189.197 -1.51736 -0.425897 0
M  V30 1963 C 190.443 -1.65214 -1.1761 0
M  V30 1964 C 190.776 -0.372778 -1.90589 0
M  V30 1965 O 190.051 0.628139 -1.84078 0
M  V30 1966 C 190.334 -2.86312 -2.18398 0
M  V30 1967 C 190.187 -4.24254 -1.49426 0
M  V30 1968 C 191.506 -3.02925 -3.19256 0
M  V30 1969 H 188.625 -0.601263 -0.426206 0
M  V30 1970 H 191.267 -1.8425 -0.463882 0
M  V30 1971 H 189.417 -2.70213 -2.79137 0
M  V30 1972 H 191.089 -4.52046 -0.919362 0
M  V30 1973 H 189.332 -4.26426 -0.796432 0
M  V30 1974 H 190.003 -5.05001 -2.22885 0
M  V30 1975 H 192.479 -3.1781 -2.68581 0
M  V30 1976 H 191.355 -3.89199 -3.8706 0
M  V30 1977 H 191.616 -2.15497 -3.86023 0
M  V30 1978 N 190.675 0.682077 -1.42076 0
M  V30 1979 C 191.623 1.81707 -1.45208 0
M  V30 1980 C 192.617 1.66183 -0.328591 0
M  V30 1981 O 193.823 1.7288 -0.501264 0
M  V30 1982 H 190.198 0.599014 -0.454628 0
M  V30 1983 H 192.169 1.76183 -2.40836 0
M  V30 1984 C 190.918 3.19816 -1.36428 0
M  V30 1985 H 190.241 3.32385 -2.22171 0
M  V30 1986 H 191.681 3.99272 -1.42681 0
M  V30 1987 C 190.14 3.36809 -0.078191 0
M  V30 1988 O 190.67 3.92124 0.87188 0
M  V30 1989 N 188.876 2.906 0.00229266 0
M  V30 1990 H 188.423 2.45772 -0.771616 0
M  V30 1991 H 188.381 3.02347 0.862179 0
M  V30 1992 N 192.153 1.28127 0.917671 0
M  V30 1993 C 193.4 1.15052 1.66641 0
M  V30 1994 C 193.728 -0.301677 1.92146 0
M  V30 1995 O 192.983 -1.23622 1.51711 0
M  V30 1996 C 193.282 1.89018 3.03327 0
M  V30 1997 C 192.948 3.38832 2.97496 0
M  V30 1998 C 191.61 3.79693 2.95613 0
M  V30 1999 C 193.962 4.34378 2.88036 0
M  V30 2000 C 191.29 5.14447 2.82066 0
M  V30 2001 C 193.642 5.69201 2.7603 0
M  V30 2002 C 192.306 6.09343 2.72502 0
M  V30 2003 H 191.576 0.421006 0.609783 0
M  V30 2004 H 194.223 1.58855 1.06945 0
M  V30 2005 H 192.528 1.37752 3.66785 0
M  V30 2006 H 194.225 1.76321 3.60156 0
M  V30 2007 H 190.815 3.06342 2.99754 0
M  V30 2008 H 194.999 4.03775 2.88581 0
M  V30 2009 H 190.255 5.44681 2.77728 0
M  V30 2010 H 194.429 6.42901 2.67678 0
M  V30 2011 H 192.056 7.13712 2.61762 0
M  V30 2012 N 193.631 -1.12557 1.10312 0
M  V30 2013 C 194.856 -1.88405 0.867085 0
M  V30 2014 C 195.281 -1.79038 -0.576817 0
M  V30 2015 O 194.639 -1.14439 -1.40618 0
M  V30 2016 C 194.687 -3.3563 1.31851 0
M  V30 2017 O 193.791 -4.09565 0.482734 0
M  V30 2018 H 193.132 -0.585455 0.313271 0
M  V30 2019 H 195.662 -1.42352 1.4696 0
M  V30 2020 H 195.672 -3.86469 1.3079 0
M  V30 2021 H 194.347 -3.41765 2.37001 0
M  V30 2022 H 192.924 -3.68695 0.558448 0
M  V30 2023 N 195.109 -0.891671 -1.2995 0
M  V30 2024 C 196.357 -0.512486 -1.95494 0
M  V30 2025 C 196.678 0.942776 -1.70695 0
M  V30 2026 O 195.948 1.66374 -1.03424 0
M  V30 2027 H 194.528 -0.186533 -0.723336 0
M  V30 2028 H 197.19 -1.13621 -1.58355 0
M  V30 2029 H 196.286 -0.688342 -3.04415 0
M  V30 2030 N 196.587 1.43421 -0.653314 0
M  V30 2031 C 197.836 2.01032 -0.164076 0
M  V30 2032 C 198.149 1.52147 1.22926 0
M  V30 2033 O 199.355 2.02031 1.81371 0
M  V30 2034 C 197.811 3.59082 -0.24252 0
M  V30 2035 C 197.419 4.1696 -1.63855 0
M  V30 2036 C 199.163 4.24079 0.18911 0
M  V30 2037 C 197.07 5.67304 -1.67092 0
M  V30 2038 H 196 0.751798 -0.0575769 0
M  V30 2039 H 198.651 1.6439 -0.815362 0
M  V30 2040 H 197.033 3.93125 0.476276 0
M  V30 2041 H 198.207 3.94416 -2.38271 0
M  V30 2042 H 196.522 3.64335 -2.01616 0
M  V30 2043 H 199.119 5.34381 0.184775 0
M  V30 2044 H 199.462 3.98005 1.22056 0
M  V30 2045 H 199.995 3.94918 -0.477938 0
M  V30 2046 H 196.734 5.98145 -2.68146 0
M  V30 2047 H 196.254 5.91904 -0.970014 0
M  V30 2048 H 197.933 6.31344 -1.4147 0
M  V30 2049 N 198.065 0.39524 1.52563 0
M  V30 2050 C 198.997 -0.472201 2.24283 0
M  V30 2051 C 200.01 -1.02178 1.26742 0
M  V30 2052 O 201.199 -0.923097 1.52778 0
M  V30 2053 C 198.299 -1.66775 2.95024 0
M  V30 2054 C 197.472 -1.2445 4.19322 0
M  V30 2055 C 196.531 -2.30539 4.7301 0
M  V30 2056 O 195.557 -1.91702 5.35947 0
M  V30 2057 N 196.759 -3.6253 4.53379 0
M  V30 2058 H 199.524 0.142282 2.99362 0
M  V30 2059 H 197.085 0.2219 1.60372 0
M  V30 2060 H 199.077 -2.37283 3.27839 0
M  V30 2061 H 197.647 -2.18845 2.23217 0
M  V30 2062 H 196.867 -0.368069 3.92478 0
M  V30 2063 H 198.155 -0.938457 5.0007 0
M  V30 2064 H 197.553 -3.96841 4.03154 0
M  V30 2065 H 196.11 -4.29055 4.90668 0
M  V30 2066 N 199.544 -1.57102 0.125237 0
M  V30 2067 C 200.774 -1.99472 -0.538015 0
M  V30 2068 C 201.182 -1.00395 -1.60366 0
M  V30 2069 O 200.525 0.0103875 -1.83697 0
M  V30 2070 C 200.587 -3.38262 -1.21734 0
M  V30 2071 C 200.251 -4.56021 -0.298897 0
M  V30 2072 C 201.248 -5.17817 0.464943 0
M  V30 2073 C 198.933 -5.01869 -0.208149 0
M  V30 2074 C 200.927 -6.23852 1.3072 0
M  V30 2075 C 198.614 -6.07763 0.637736 0
M  V30 2076 C 199.612 -6.68622 1.39403 0
M  V30 2077 O 199.3 -7.7247 2.22586 0
M  V30 2078 H 199.032 -0.659934 -0.146501 0
M  V30 2079 H 201.586 -2.04321 0.210267 0
M  V30 2080 H 199.816 -3.30185 -2.01282 0
M  V30 2081 H 201.505 -3.6488 -1.77813 0
M  V30 2082 H 202.271 -4.83308 0.404741 0
M  V30 2083 H 198.15 -4.54241 -0.786522 0
M  V30 2084 H 201.694 -6.71284 1.898 0
M  V30 2085 H 197.591 -6.41701 0.699309 0
M  V30 2086 H 198.359 -7.89595 2.15596 0
M  V30 2087 N 201.022 0.148545 -1.56898 0
M  V30 2088 C 201.97 1.20265 -1.99096 0
M  V30 2089 C 202.964 1.44559 -0.883123 0
M  V30 2090 O 204.17 1.4487 -1.0683 0
M  V30 2091 H 200.545 0.404786 -0.63376 0
M  V30 2092 H 202.516 0.82004 -2.86911 0
M  V30 2093 C 201.265 2.52886 -2.3863 0
M  V30 2094 H 200.588 2.35021 -3.23427 0
M  V30 2095 H 202.028 3.25274 -2.7198 0
M  V30 2096 C 200.487 3.13315 -1.23837 0
M  V30 2097 O 201.017 3.98077 -0.538268 0
M  V30 2098 N 199.223 2.72742 -1.00301 0
M  V30 2099 H 198.77 2.03912 -1.5741 0
M  V30 2100 H 198.728 3.13507 -0.236838 0
M  V30 2101 N 202.5 1.5196 0.417844 0
M  V30 2102 C 203.747 1.65591 1.16559 0
M  V30 2103 C 204.075 0.381565 1.90721 0
M  V30 2104 O 203.33 -0.635156 1.85106 0
M  V30 2105 C 203.629 2.82269 2.19223 0
M  V30 2106 C 203.295 4.20819 1.61933 0
M  V30 2107 C 201.957 4.58506 1.46033 0
M  V30 2108 C 204.309 5.07196 1.20008 0
M  V30 2109 C 201.637 5.80257 0.867113 0
M  V30 2110 C 203.989 6.29544 0.621086 0
M  V30 2111 C 202.653 6.65987 0.449144 0
M  V30 2112 H 201.923 0.605939 0.42652 0
M  V30 2113 H 204.57 1.86041 0.45397 0
M  V30 2114 H 202.875 2.56118 2.96498 0
M  V30 2115 H 204.572 2.90012 2.76936 0
M  V30 2116 H 201.162 3.91116 1.7529 0
M  V30 2117 H 205.346 4.7867 1.31105 0
M  V30 2118 H 200.602 6.07124 0.721833 0
M  V30 2119 H 204.776 6.95805 0.287798 0
M  V30 2120 H 202.403 7.60199 -0.012632 0
M  V30 2121 N 203.978 -0.674533 1.42435 0
M  V30 2122 C 205.224 -1.43671 1.43131 0
M  V30 2123 C 205.557 -1.94142 0.0476021 0
M  V30 2124 O 204.832 -1.70924 -0.928188 0
M  V30 2125 C 205.115 -2.63355 2.45594 0
M  V30 2126 C 204.968 -2.18514 3.93156 0
M  V30 2127 C 206.287 -3.65571 2.45043 0
M  V30 2128 H 203.406 -0.521077 0.521198 0
M  V30 2129 H 206.048 -0.766551 1.7385 0
M  V30 2130 H 204.198 -3.2053 2.19528 0
M  V30 2131 H 205.87 -1.66504 4.30202 0
M  V30 2132 H 204.113 -1.50086 4.07009 0
M  V30 2133 H 204.784 -3.04484 4.60428 0
M  V30 2134 H 207.26 -3.18113 2.68223 0
M  V30 2135 H 206.136 -4.46893 3.18713 0
M  V30 2136 H 206.397 -4.16716 1.47649 0
M  V30 2137 N 205.456 -1.28612 -0.910864 0
M  V30 2138 C 206.366 -1.14643 -2.0468 0
M  V30 2139 C 207.382 -0.0723121 -1.7385 0
M  V30 2140 O 208.558 -0.282178 -1.99413 0
M  V30 2141 C 205.623 -0.812561 -3.37044 0
M  V30 2142 C 204.684 -1.96935 -3.81465 0
M  V30 2143 C 203.917 -1.65131 -5.07511 0
M  V30 2144 O 204.14 -0.567013 -5.67575 0
M  V30 2145 O 203.074 -2.49585 -5.47714 0
M  V30 2146 H 206.9 -2.1001 -2.19384 0
M  V30 2147 H 204.485 -1.07958 -1.03274 0
M  V30 2148 H 206.367 -0.640441 -4.16505 0
M  V30 2149 H 205.042 0.111426 -3.23508 0
M  V30 2150 H 203.949 -2.19664 -3.02818 0
M  V30 2151 H 205.282 -2.87414 -3.99567 0
M  V30 2152 N 206.934 1.1197 -1.10907 0
M  V30 2153 C 208.164 1.8713 -0.875553 0
M  V30 2154 C 208.572 1.8016 0.577843 0
M  V30 2155 O 207.915 1.17699 1.41042 0
M  V30 2156 C 207.977 3.37005 -1.2517 0
M  V30 2157 C 207.641 3.67748 -2.71313 0
M  V30 2158 C 208.638 3.65698 -3.69542 0
M  V30 2159 C 206.323 3.96928 -3.07821 0
M  V30 2160 C 208.317 3.92395 -5.023 0
M  V30 2161 C 206.004 4.23284 -4.40765 0
M  V30 2162 C 207.002 4.21005 -5.37814 0
M  V30 2163 O 206.69 4.46704 -6.68364 0
M  V30 2164 H 206.422 0.598786 -0.313737 0
M  V30 2165 H 208.976 1.42568 -1.47863 0
M  V30 2166 H 207.206 3.82146 -0.591741 0
M  V30 2167 H 208.895 3.93519 -0.994877 0
M  V30 2168 H 209.661 3.43211 -3.42682 0
M  V30 2169 H 205.54 3.97841 -2.32902 0
M  V30 2170 H 209.084 3.90531 -5.78041 0
M  V30 2171 H 204.981 4.45246 -4.67361 0
M  V30 2172 H 205.749 4.64299 -6.74069 0
M  V30 2173 N 208.412 0.89855 1.29475 0
M  V30 2174 C 209.66 0.522847 1.9522 0
M  V30 2175 C 209.981 -0.93371 1.71192 0
M  V30 2176 O 209.251 -1.65823 1.04305 0
M  V30 2177 H 207.831 0.190366 0.722336 0
M  V30 2178 H 210.493 1.14459 1.5775 0
M  V30 2179 H 209.589 0.704476 3.04045 0
M  V30 2180 N 209.89 -1.43072 0.660911 0
M  V30 2181 C 211.136 -2.0202 0.177708 0
M  V30 2182 C 211.469 -1.52066 -1.20787 0
M  V30 2183 O 210.744 -0.716987 -1.80802 0
M  V30 2184 C 211.027 -3.59561 0.197019 0
M  V30 2185 C 210.88 -4.19727 1.61706 0
M  V30 2186 C 212.199 -4.37664 -0.462396 0
M  V30 2187 H 209.318 -0.734034 0.0660494 0
M  V30 2188 H 211.96 -1.70272 0.843058 0
M  V30 2189 H 210.11 -3.86739 -0.369527 0
M  V30 2190 H 211.782 -4.03553 2.23479 0
M  V30 2191 H 210.025 -3.76084 2.16201 0
M  V30 2192 H 210.696 -5.28834 1.58237 0
M  V30 2193 H 213.172 -4.16095 0.0197215 0
M  V30 2194 H 212.048 -5.47305 -0.418188 0
M  V30 2195 H 212.309 -4.14493 -1.53778 0
M  V30 2196 N 211.368 -0.403325 -1.52352 0
M  V30 2197 C 212.645 0.232611 -1.94212 0
M  V30 2198 C 213.025 1.63133 -1.33981 0
M  V30 2199 O 212.373 2.22659 -0.513344 0
M  V30 2200 C 212.583 0.244811 -3.4814 0
M  V30 2201 C 213.931 0.46698 -4.22024 0
M  V30 2202 O 214.955 0.324419 -3.5472 0
M  V30 2203 O 213.814 0.74747 -5.41364 0
M  V30 2204 H 210.908 0.148223 -0.813609 0
M  V30 2205 H 213.454 -0.458848 -1.63379 0
M  V30 2206 H 212.226 -0.734378 -3.84347 0
M  V30 2207 H 211.849 0.980611 -3.85318 0
M  V30 2208 N 212.846 1.57033 -0.133567 0
M  V30 2209 C 214.257 1.82593 0.389464 0
M  V30 2210 C 214.608 1.05156 1.6564 0
M  V30 2211 O 213.733 0.292644 2.14412 0
M  V30 2212 C 214.328 3.31204 0.713377 0
M  V30 2213 C 212.887 3.57393 1.18098 0
M  V30 2214 C 212.034 2.76598 0.197126 0
M  V30 2215 H 214.985 1.54598 -0.358481 0
M  V30 2216 H 215.006 3.46627 1.56939 0
M  V30 2217 H 214.518 3.87537 -0.2089 0
M  V30 2218 H 212.619 3.06433 2.11966 0
M  V30 2219 H 212.732 4.65915 1.11624 0
M  V30 2220 H 211.096 2.45257 0.687088 0
M  V30 2221 H 211.879 3.35697 -0.718504 0
M  V30 2222 N 214.325 -0.140222 1.56975 0
M  V30 2223 C 215.235 -1.19223 2.02047 0
M  V30 2224 C 216.251 -1.46612 0.937062 0
M  V30 2225 O 217.427 -1.58148 1.24704 0
M  V30 2226 C 214.492 -2.50414 2.39778 0
M  V30 2227 C 213.553 -2.30612 3.621 0
M  V30 2228 C 212.786 -3.55547 3.98023 0
M  V30 2229 O 213.009 -4.62004 3.34528 0
M  V30 2230 O 211.943 -3.47808 4.91237 0
M  V30 2231 H 215.769 -0.839559 2.91865 0
M  V30 2232 H 213.354 -0.349453 1.45256 0
M  V30 2233 H 215.236 -3.27747 2.64877 0
M  V30 2234 H 213.911 -2.85198 1.53114 0
M  V30 2235 H 212.818 -1.51207 3.4218 0
M  V30 2236 H 214.151 -2.00741 4.49404 0
M  V30 2237 N 215.803 -1.52179 -0.40978 0
M  V30 2238 C 217.031 -1.70054 -1.17853 0
M  V30 2239 C 217.446 -0.409735 -1.843 0
M  V30 2240 O 216.803 0.614183 -1.71855 0
M  V30 2241 C 216.854 -2.83568 -2.24213 0
M  V30 2242 O 216.575 -4.0765 -1.60478 0
M  V30 2243 C 218.076 -3.12947 -3.13973 0
M  V30 2244 H 215.296 -0.569917 -0.354169 0
M  V30 2245 H 217.84 -1.98734 -0.482198 0
M  V30 2246 H 215.995 -2.57409 -2.89516 0
M  V30 2247 H 216.409 -4.70899 -2.30986 0
M  V30 2248 H 217.883 -3.95889 -3.84677 0
M  V30 2249 H 218.36 -2.26472 -3.76307 0
M  V30 2250 H 218.966 -3.40868 -2.5434 0
M  V30 2251 N 217.281 0.66697 -1.42791 0
M  V30 2252 C 218.231 1.77313 -1.43332 0
M  V30 2253 C 219.215 1.5801 -0.303586 0
M  V30 2254 O 220.407 1.68356 -0.546385 0
M  V30 2255 C 217.536 3.15822 -1.34578 0
M  V30 2256 C 216.622 3.40721 -2.52528 0
M  V30 2257 N 217.013 3.36162 -3.77927 0
M  V30 2258 C 215.311 3.71387 -2.46956 0
M  V30 2259 C 216.012 3.60762 -4.56318 0
M  V30 2260 N 214.988 3.81908 -3.86843 0
M  V30 2261 H 218.79 1.72193 -2.38174 0
M  V30 2262 H 216.304 0.868114 -1.3725 0
M  V30 2263 H 218.301 3.951 -1.33048 0
M  V30 2264 H 216.961 3.22133 -0.407453 0
M  V30 2265 H 217.972 3.15885 -4.10411 0
M  V30 2266 H 214.649 3.84897 -1.61743 0
M  V30 2267 H 216.039 3.63132 -5.65318 0
M  V30 2268 N 218.759 1.29093 0.90403 0
M  V30 2269 C 220.005 1.16986 1.65656 0
M  V30 2270 C 220.338 -0.278925 1.92186 0
M  V30 2271 O 219.613 -1.2019 1.5292 0
M  V30 2272 C 219.896 1.97908 3.0084 0
M  V30 2273 C 219.749 3.50903 2.81403 0
M  V30 2274 C 221.068 1.80208 4.01513 0
M  V30 2275 H 218.187 0.426346 0.601164 0
M  V30 2276 H 220.829 1.58518 1.04747 0
M  V30 2277 H 218.979 1.62616 3.52829 0
M  V30 2278 H 220.651 3.96153 2.36348 0
M  V30 2279 H 218.894 3.76045 2.1627 0
M  V30 2280 H 219.565 4.02791 3.77443 0
M  V30 2281 H 222.041 2.11025 3.58619 0
M  V30 2282 H 220.917 2.39184 4.94047 0
M  V30 2283 H 221.178 0.756119 4.35586 0
M  V30 2284 N 220.237 -1.11381 1.11499 0
M  V30 2285 C 221.486 -1.82494 0.858993 0
M  V30 2286 C 221.799 -1.85605 -0.617278 0
M  V30 2287 O 223.005 -2.52824 -0.989552 0
M  V30 2288 C 221.461 -3.27745 1.48699 0
M  V30 2289 C 221.069 -3.32961 2.99735 0
M  V30 2290 C 222.813 -4.03754 1.31085 0
M  V30 2291 C 220.72 -4.72612 3.55516 0
M  V30 2292 H 219.65 -0.683802 0.317696 0
M  V30 2293 H 222.301 -1.25331 1.34031 0
M  V30 2294 H 220.683 -3.84844 0.933339 0
M  V30 2295 H 221.857 -2.85741 3.61509 0
M  V30 2296 H 220.172 -2.70433 3.16631 0
M  V30 2297 H 222.769 -5.06891 1.70192 0
M  V30 2298 H 223.112 -4.15527 0.253496 0
M  V30 2299 H 223.645 -3.53043 1.83318 0
M  V30 2300 H 220.384 -4.66036 4.60967 0
M  V30 2301 H 219.904 -5.2024 2.98513 0
M  V30 2302 H 221.583 -5.4157 3.53992 0
M  V30 2303 N 221.715 -0.905404 -1.28997 0
M  V30 2304 C 222.992 -0.453513 -1.9027 0
M  V30 2305 C 223.372 1.06721 -1.82137 0
M  V30 2306 O 222.72 1.91159 -1.25182 0
M  V30 2307 C 222.93 -0.974494 -3.35119 0
M  V30 2308 C 224.278 -1.0216 -4.12127 0
M  V30 2309 O 225.302 -0.922557 -3.44046 0
M  V30 2310 O 224.161 -1.17121 -5.33802 0
M  V30 2311 H 221.255 -0.142347 -0.814657 0
M  V30 2312 H 223.801 -0.995642 -1.37423 0
M  V30 2313 H 222.573 -2.01848 -3.35221 0
M  V30 2314 H 222.196 -0.412706 -3.95452 0
M  V30 2315 N 223.193 1.4272 -0.668489 0
M  V30 2316 C 224.423 2.05668 -0.196063 0
M  V30 2317 C 224.831 1.5028 1.14946 0
M  V30 2318 O 224.174 0.6348 1.72383 0
M  V30 2319 C 224.236 3.59469 -0.0468879 0
M  V30 2320 C 223.9 4.37518 -1.32012 0
M  V30 2321 C 224.897 4.68584 -2.25222 0
M  V30 2322 C 222.582 4.77266 -1.56596 0
M  V30 2323 C 224.576 5.38326 -3.41297 0
M  V30 2324 C 222.263 5.4675 -2.72962 0
M  V30 2325 C 223.261 5.77204 -3.65137 0
M  V30 2326 O 222.949 6.45264 -4.79468 0
M  V30 2327 H 222.681 0.669382 -0.0943599 0
M  V30 2328 H 225.235 1.83954 -0.913788 0
M  V30 2329 H 223.465 3.79817 0.726357 0
M  V30 2330 H 225.154 4.04071 0.384852 0
M  V30 2331 H 225.92 4.38382 -2.07477 0
M  V30 2332 H 221.799 4.52959 -0.857249 0
M  V30 2333 H 225.343 5.62014 -4.13263 0
M  V30 2334 H 221.24 5.76369 -2.90635 0
M  V30 2335 H 222.008 6.63753 -4.78931 0
M  V30 2336 N 224.671 0.411399 1.52136 0
M  V30 2337 C 225.948 -0.222308 1.94333 0
M  V30 2338 C 226.328 -1.6242 1.34844 0
M  V30 2339 O 225.676 -2.22384 0.525145 0
M  V30 2340 C 225.886 -0.226345 3.48265 0
M  V30 2341 C 227.234 -0.444592 4.22266 0
M  V30 2342 O 228.258 -0.305602 3.54887 0
M  V30 2343 O 227.117 -0.718749 5.41753 0
M  V30 2344 H 224.211 -0.143907 0.814383 0
M  V30 2345 H 226.757 0.467506 1.63133 0
M  V30 2346 H 225.529 0.75475 3.83952 0
M  V30 2347 H 225.152 -0.960163 3.85832 0
M  V30 2348 N 226.149 -1.5696 0.141893 0
M  V30 2349 C 227.426 -1.87553 -0.555281 0
M  V30 2350 C 227.806 -1.04699 -1.83306 0
M  V30 2351 O 227.154 -0.132346 -2.28116 0
M  V30 2352 C 227.364 -3.39093 -0.825664 0
M  V30 2353 C 228.712 -4.08199 -1.16869 0
M  V30 2354 O 229.736 -3.44242 -0.915185 0
M  V30 2355 O 228.595 -5.21139 -1.6455 0
M  V30 2356 H 225.689 -0.777188 -0.282679 0
M  V30 2357 H 228.235 -1.68763 0.17812 0
M  V30 2358 H 227.007 -3.91221 0.0788633 0
M  V30 2359 H 226.63 -3.63393 -1.61343 0
M  V30 2360 N 227.627 0.131896 -1.57047 0
M  V30 2361 C 228.873 0.843179 -1.84441 0
M  V30 2362 C 229.206 1.80129 -0.725749 0
M  V30 2363 O 228.481 1.92624 0.269469 0
M  V30 2364 C 228.764 1.60442 -3.22382 0
M  V30 2365 C 228.617 0.666782 -4.4483 0
M  V30 2366 C 229.936 2.56354 -3.5773 0
M  V30 2367 H 227.055 0.305081 -0.670891 0
M  V30 2368 H 229.697 0.107839 -1.89694 0
M  V30 2369 H 227.847 2.23128 -3.18035 0
M  V30 2370 H 229.519 0.0497646 -4.61273 0
M  V30 2371 H 227.762 -0.022609 -4.33794 0
M  V30 2372 H 228.433 1.23579 -5.37989 0
M  V30 2373 H 230.909 2.0378 -3.62785 0
M  V30 2374 H 229.785 3.06657 -4.5525 0
M  V30 2375 H 230.046 3.38419 -2.84473 0
M  V30 2376 N 229.106 1.52395 0.401703 0
M  V30 2377 C 230.522 1.41363 0.740864 0
M  V30 2378 C 230.722 0.523982 1.94568 0
M  V30 2379 O 229.778 -0.00741204 2.52499 0
M  V30 2380 C 231.091 2.84011 0.987847 0
M  V30 2381 C 232.639 2.93404 1.09011 0
M  V30 2382 C 233.114 4.37036 1.3698 0
M  V30 2383 N 234.605 4.40304 1.43829 0
M  V30 2384 C 235.34 5.48508 1.67112 0
M  V30 2385 N 234.836 6.66819 1.87949 0
M  V30 2386 N 236.629 5.36034 1.69187 0
M  V30 2387 H 228.78 2.08765 -0.391262 0
M  V30 2388 H 231.043 0.941265 -0.112798 0
M  V30 2389 H 230.749 3.51265 0.174835 0
M  V30 2390 H 230.623 3.25502 1.906 0
M  V30 2391 H 233.01 2.26325 1.8937 0
M  V30 2392 H 233.091 2.55359 0.15015 0
M  V30 2393 H 232.735 5.04676 0.571353 0
M  V30 2394 H 232.665 4.72623 2.3224 0
M  V30 2395 H 235.156 3.55024 1.29486 0
M  V30 2396 H 235.469 7.45063 2.05185 0
M  V30 2397 H 233.814 6.6987 1.85199 0
M  V30 2398 H 237.005 4.42579 1.52451 0
M  V30 2399 H 237.178 6.20434 1.86993 0
M  V30 2400 N 230.584 -0.659388 1.43143 0
M  V30 2401 C 231.494 -1.80167 1.50256 0
M  V30 2402 C 232.51 -1.69571 0.390106 0
M  V30 2403 O 233.686 -1.90849 0.643319 0
M  V30 2404 C 230.751 -3.16409 1.41725 0
M  V30 2405 C 229.812 -3.38848 2.63591 0
M  V30 2406 C 229.045 -4.68591 2.55458 0
M  V30 2407 O 229.268 -5.47532 1.59891 0
M  V30 2408 O 228.202 -4.92614 3.45854 0
M  V30 2409 H 232.028 -1.77121 2.46702 0
M  V30 2410 H 229.613 -0.817092 1.25076 0
M  V30 2411 H 231.495 -3.9768 1.39387 0
M  V30 2412 H 230.17 -3.20059 0.484118 0
M  V30 2413 H 229.077 -2.57366 2.71502 0
M  V30 2414 H 230.41 -3.4004 3.55856 0
M  V30 2415 N 232.062 -1.29571 -0.897171 0
M  V30 2416 C 233.009 -1.14916 -2.00158 0
M  V30 2417 C 233.979 -0.0418149 -1.66047 0
M  V30 2418 O 235.164 -0.209793 -1.89643 0
M  V30 2419 C 232.304 -0.834307 -3.34863 0
M  V30 2420 C 231.417 -2.02234 -3.8174 0
M  V30 2421 C 230.552 -1.64664 -5.05034 0
M  V30 2422 C 229.591 -2.80033 -5.44286 0
M  V30 2423 N 228.728 -2.42843 -6.58765 0
M  V30 2424 H 233.568 -2.09403 -2.12025 0
M  V30 2425 H 231.105 -1.042 -1.0383 0
M  V30 2426 H 233.063 -0.632436 -4.12379 0
M  V30 2427 H 231.693 0.0736656 -3.22716 0
M  V30 2428 H 230.745 -2.33583 -3.00238 0
M  V30 2429 H 232.057 -2.88673 -4.06779 0
M  V30 2430 H 231.211 -1.4078 -5.9014 0
M  V30 2431 H 229.95 -0.753766 -4.8184 0
M  V30 2432 H 228.955 -3.04596 -4.57713 0
M  V30 2433 H 230.18 -3.69989 -5.6946 0
M  V30 2434 H 228.126 -1.56046 -6.3717 0
M  V30 2435 H 228.043 -3.22815 -6.83613 0
M  V30 2436 H 229.311 -2.22285 -7.47134 0
M  V30 2437 N 233.54 1.10788 -1.12088 0
M  V30 2438 C 234.503 2.15207 -0.788577 0
M  V30 2439 C 235.503 1.59609 0.195317 0
M  V30 2440 O 236.693 1.74174 -0.0300193 0
M  V30 2441 C 233.825 3.4047 -0.171174 0
M  V30 2442 H 235.018 2.46116 -1.71368 0
M  V30 2443 H 232.571 1.26089 -0.923652 0
M  V30 2444 H 233.306 3.15176 0.763832 0
M  V30 2445 H 233.091 3.82109 -0.879514 0
M  V30 2446 H 234.581 4.17576 0.04496 0
M  V30 2447 N 235.018 0.912232 1.28515 0
M  V30 2448 C 236.434 0.610159 1.47476 0
M  V30 2449 C 236.634 -0.844955 1.82928 0
M  V30 2450 O 235.69 -1.62416 1.93332 0
M  V30 2451 C 237.003 1.54675 2.57868 0
M  V30 2452 C 238.551 1.55331 2.71738 0
M  V30 2453 C 239.026 2.47649 3.85272 0
M  V30 2454 N 240.517 2.45767 3.92623 0
M  V30 2455 C 241.252 3.13896 4.79851 0
M  V30 2456 N 240.748 3.9135 5.71679 0
M  V30 2457 N 242.541 3.02991 4.73448 0
M  V30 2458 H 234.692 1.85318 1.03783 0
M  V30 2459 H 236.955 0.794777 0.516753 0
M  V30 2460 H 236.661 2.5841 2.38574 0
M  V30 2461 H 236.535 1.27671 3.54937 0
M  V30 2462 H 238.922 0.52335 2.90422 0
M  V30 2463 H 239.003 1.86378 1.75205 0
M  V30 2464 H 238.647 3.50745 3.67342 0
M  V30 2465 H 238.577 2.13904 4.81199 0
M  V30 2466 H 241.068 1.89503 3.26951 0
M  V30 2467 H 241.381 4.40359 6.35062 0
M  V30 2468 H 239.726 3.95455 5.71524 0
M  V30 2469 H 242.917 2.41987 4.007 0
M  V30 2470 H 243.09 3.5636 5.41213 0
M  V30 2471 N 236.496 -1.42363 0.676048 0
M  V30 2472 C 237.426 -2.33497 0.0124832 0
M  V30 2473 C 238.407 -1.50748 -0.787981 0
M  V30 2474 O 239.592 -1.79346 -0.744884 0
M  V30 2475 C 236.722 -3.34377 -0.938582 0
M  V30 2476 C 235.676 -4.27289 -0.246622 0
M  V30 2477 C 235.002 -5.18386 -1.31071 0
M  V30 2478 C 236.302 -5.14916 0.875125 0
M  V30 2479 H 237.996 -2.89233 0.773593 0
M  V30 2480 H 235.542 -1.39073 0.37346 0
M  V30 2481 H 237.495 -3.97044 -1.41188 0
M  V30 2482 H 236.219 -2.76947 -1.73113 0
M  V30 2483 H 234.878 -3.66018 0.206456 0
M  V30 2484 H 234.526 -4.57282 -2.09528 0
M  V30 2485 H 234.226 -5.81378 -0.852839 0
M  V30 2486 H 235.75 -5.83929 -1.78492 0
M  V30 2487 H 237.164 -5.71262 0.482983 0
M  V30 2488 H 235.561 -5.86747 1.25887 0
M  V30 2489 H 236.631 -4.53242 1.72335 0
M  V30 2490 N 237.974 -0.419461 -1.51915 0
M  V30 2491 C 238.924 0.418496 -2.24126 0
M  V30 2492 C 239.908 1.00495 -1.25656 0
M  V30 2493 O 241.1 0.926058 -1.50842 0
M  V30 2494 C 238.229 1.52899 -3.07371 0
M  V30 2495 C 237.315 0.952797 -4.13258 0
M  V30 2496 N 237.706 0.104175 -5.05693 0
M  V30 2497 C 236.004 1.22224 -4.28926 0
M  V30 2498 C 236.705 -0.21752 -5.81293 0
M  V30 2499 N 235.681 0.394293 -5.42168 0
M  V30 2500 H 239.483 -0.236048 -2.92951 0
M  V30 2501 H 236.997 -0.230481 -1.60756 0
M  V30 2502 H 238.994 2.14199 -3.57665 0
M  V30 2503 H 237.654 2.18605 -2.40088 0
M  V30 2504 H 238.665 -0.260924 -5.17242 0
M  V30 2505 H 235.342 1.87812 -3.72871 0
M  V30 2506 H 236.732 -0.906992 -6.6575 0
M  V30 2507 N 239.452 1.56882 -0.150215 0
M  V30 2508 C 240.868 1.58263 0.20617 0
M  V30 2509 C 241.068 1.16464 1.64434 0
M  V30 2510 O 240.124 0.866422 2.3717 0
M  V30 2511 C 241.437 3.00649 -0.0555025 0
M  V30 2512 C 242.985 3.12999 0.00795388 0
M  V30 2513 C 243.46 4.5744 -0.226429 0
M  V30 2514 N 244.951 4.62875 -0.173469 0
M  V30 2515 C 245.686 5.72454 -0.329288 0
M  V30 2516 N 245.182 6.90669 -0.543005 0
M  V30 2517 N 246.975 5.61467 -0.266666 0
M  V30 2518 H 239.126 1.82345 -1.08922 0
M  V30 2519 H 241.389 0.844149 -0.431413 0
M  V30 2520 H 241.095 3.3563 -1.05096 0
M  V30 2521 H 240.969 3.71337 0.66246 0
M  V30 2522 H 243.356 2.77857 0.993966 0
M  V30 2523 H 243.437 2.4479 -0.742388 0
M  V30 2524 H 243.081 4.93287 -1.20956 0
M  V30 2525 H 243.011 5.2378 0.544274 0
M  V30 2526 H 245.502 3.77898 -0.0130709 0
M  V30 2527 H 245.815 7.70045 -0.651922 0
M  V30 2528 H 244.16 6.92581 -0.579366 0
M  V30 2529 H 247.351 4.67992 -0.100441 0
M  V30 2530 H 247.524 6.46816 -0.391535 0
M  V30 2531 N 240.93 -0.123565 1.57115 0
M  V30 2532 C 242.341 -0.681198 1.73829 0
M  V30 2533 C 242.692 -1.80535 0.768214 0
M  V30 2534 O 241.817 -2.16317 -0.0599103 0
M  V30 2535 C 242.412 -1.24246 3.15196 0
M  V30 2536 C 240.971 -1.74643 3.33432 0
M  V30 2537 C 240.118 -0.644284 2.69711 0
M  V30 2538 H 243.069 0.102315 1.5837 0
M  V30 2539 H 243.09 -2.11216 3.16493 0
M  V30 2540 H 242.602 -0.424062 3.85776 0
M  V30 2541 H 240.703 -2.58974 2.67886 0
M  V30 2542 H 240.816 -1.85902 4.41562 0
M  V30 2543 H 239.18 -1.07676 2.3082 0
M  V30 2544 H 239.963 0.163058 3.42913 0
M  V30 2545 N 242.408 -1.52605 -0.393616 0
M  V30 2546 C 243.355 -1.77055 -1.48054 0
M  V30 2547 C 244.325 -0.61358 -1.54352 0
M  V30 2548 O 245.51 -0.852806 -1.70681 0
M  V30 2549 C 242.65 -1.94108 -2.85335 0
M  V30 2550 C 241.763 -3.21792 -2.88226 0
M  V30 2551 C 240.898 -3.29188 -4.16904 0
M  V30 2552 C 239.937 -4.51013 -4.13828 0
M  V30 2553 N 239.074 -4.55716 -5.34105 0
M  V30 2554 H 243.914 -2.69815 -1.26506 0
M  V30 2555 H 241.451 -1.33683 -0.61379 0
M  V30 2556 H 243.409 -2.01979 -3.65049 0
M  V30 2557 H 242.039 -1.04713 -3.05344 0
M  V30 2558 H 241.091 -3.23015 -2.00911 0
M  V30 2559 H 242.403 -4.11557 -2.8182 0
M  V30 2560 H 241.557 -3.36216 -5.05018 0
M  V30 2561 H 240.296 -2.37389 -4.26026 0
M  V30 2562 H 239.301 -4.44115 -3.24102 0
M  V30 2563 H 240.526 -5.44123 -4.06333 0
M  V30 2564 H 238.472 -3.66807 -5.43865 0
M  V30 2565 H 238.389 -5.39346 -5.29756 0
M  V30 2566 H 239.657 -4.66993 -6.2413 0
M  V30 2567 N 243.887 0.651787 -1.4349 0
M  V30 2568 C 244.817 1.77621 -1.51569 0
M  V30 2569 C 245.798 1.66022 -0.370253 0
M  V30 2570 O 246.983 1.85095 -0.587658 0
M  V30 2571 C 244.113 3.16056 -1.43966 0
M  V30 2572 C 243.067 3.4242 -2.56774 0
M  V30 2573 C 242.393 4.8067 -2.34223 0
M  V30 2574 C 243.693 3.37023 -3.99015 0
M  V30 2575 H 245.387 1.71117 -2.45681 0
M  V30 2576 H 242.933 0.821825 -1.18246 0
M  V30 2577 H 244.886 3.94472 -1.48221 0
M  V30 2578 H 243.61 3.23293 -0.463586 0
M  V30 2579 H 242.269 2.66375 -2.51873 0
M  V30 2580 H 241.917 4.84585 -1.34856 0
M  V30 2581 H 241.617 4.9927 -3.09844 0
M  V30 2582 H 243.141 5.61342 -2.40265 0
M  V30 2583 H 244.555 4.05374 -4.05395 0
M  V30 2584 H 242.952 3.67159 -4.74673 0
M  V30 2585 H 244.022 2.3518 -4.2405 0
M  V30 2586 N 245.365 1.30045 0.890287 0
M  V30 2587 C 246.614 1.17929 1.63633 0
M  V30 2588 C 246.927 -0.266204 1.9378 0
M  V30 2589 O 248.133 -0.508804 2.6669 0
M  V30 2590 C 246.589 2.06317 2.94892 0
M  V30 2591 C 246.197 3.55745 2.72305 0
M  V30 2592 C 247.941 2.0295 3.72843 0
M  V30 2593 C 245.848 4.36205 3.99348 0
M  V30 2594 H 244.778 0.437782 0.613892 0
M  V30 2595 H 247.429 1.54754 0.986075 0
M  V30 2596 H 245.811 1.6237 3.61182 0
M  V30 2597 H 246.985 4.07805 2.1455 0
M  V30 2598 H 245.3 3.6088 2.07737 0
M  V30 2599 H 247.897 2.60319 4.67053 0
M  V30 2600 H 248.24 1.0117 4.0382 0
M  V30 2601 H 248.773 2.4499 3.13408 0
M  V30 2602 H 245.512 5.38659 3.73533 0
M  V30 2603 H 245.032 3.8891 4.56628 0
M  V30 2604 H 246.711 4.47362 4.67415 0
M  V30 2605 N 246.843 -1.10192 1.12674 0
M  V30 2606 C 248.089 -1.82475 0.884915 0
M  V30 2607 C 248.422 -1.85093 -0.58773 0
M  V30 2608 O 247.697 -1.3134 -1.43457 0
M  V30 2609 C 247.98 -3.29018 1.46353 0
M  V30 2610 C 247.833 -3.34718 3.00473 0
M  V30 2611 C 249.152 -4.25473 1.12519 0
M  V30 2612 H 246.271 -0.662492 0.322915 0
M  V30 2613 H 248.913 -1.2913 1.39375 0
M  V30 2614 H 247.063 -3.74576 1.03077 0
M  V30 2615 H 248.735 -2.97622 3.52447 0
M  V30 2616 H 246.978 -2.74541 3.35872 0
M  V30 2617 H 247.649 -4.37918 3.36053 0
M  V30 2618 H 250.125 -3.88161 1.499 0
M  V30 2619 H 249.001 -5.26365 1.55663 0
M  V30 2620 H 249.262 -4.42084 0.0377407 0
M  V30 2621 N 248.321 -0.919034 -1.28029 0
M  V30 2622 C 249.284 -0.416182 -2.2539 0
M  V30 2623 C 250.284 0.460438 -1.54067 0
M  V30 2624 O 251.474 0.262744 -1.72207 0
M  V30 2625 C 248.606 0.402707 -3.38513 0
M  V30 2626 H 249.799 -1.27629 -2.71387 0
M  V30 2627 H 247.352 -0.698919 -1.39803 0
M  V30 2628 H 248.087 1.282 -2.97885 0
M  V30 2629 H 247.872 -0.225698 -3.9145 0
M  V30 2630 H 249.362 0.745191 -4.10897 0
M  V30 2631 N 249.799 1.42003 -0.683588 0
M  V30 2632 C 251.047 2.01015 -0.209101 0
M  V30 2633 C 251.368 1.54365 1.19149 0
M  V30 2634 O 250.638 0.769083 1.80172 0
M  V30 2635 H 249.218 0.743294 -0.074315 0
M  V30 2636 H 251.88 1.73798 -0.882066 0
M  V30 2637 H 250.976 3.11343 -0.2172 0
M  V30 2638 N 251.277 0.427512 1.51691 0
M  V30 2639 C 252.24 -0.377132 2.26076 0
M  V30 2640 C 253.24 -0.958089 1.29141 0
M  V30 2641 O 254.43 -0.83408 1.52934 0
M  V30 2642 C 251.562 -1.53262 3.04506 0
M  V30 2643 H 252.755 0.27464 2.9864 0
M  V30 2644 H 250.308 0.180445 1.55255 0
M  V30 2645 H 251.043 -2.22072 2.36335 0
M  V30 2646 H 250.828 -1.12232 3.75694 0
M  V30 2647 H 252.318 -2.10135 3.60878 0
M  V30 2648 N 252.755 -1.56801 0.158532 0
M  V30 2649 C 253.98 -2.01295 -0.499516 0
M  V30 2650 C 254.405 -1.03799 -1.56867 0
M  V30 2651 O 253.763 -0.0155162 -1.81293 0
M  V30 2652 C 253.811 -3.44469 -1.06647 0
M  V30 2653 O 252.915 -3.50012 -2.18095 0
M  V30 2654 H 252.256 -0.652884 -0.12099 0
M  V30 2655 H 254.786 -2.02958 0.258661 0
M  V30 2656 H 254.796 -3.8351 -1.39227 0
M  V30 2657 H 253.471 -4.14932 -0.283581 0
M  V30 2658 H 252.048 -3.22822 -1.86656 0
M  V30 2659 N 254.233 0.115231 -1.57178 0
M  V30 2660 C 255.196 1.12526 -1.99676 0
M  V30 2661 C 256.196 1.34095 -0.88742 0
M  V30 2662 O 257.386 1.30548 -1.15337 0
M  V30 2663 C 254.518 2.4789 -2.34015 0
M  V30 2664 H 255.711 0.759912 -2.90113 0
M  V30 2665 H 253.264 0.359648 -1.52106 0
M  V30 2666 H 253.999 2.89339 -1.4647 0
M  V30 2667 H 253.784 2.33588 -3.14927 0
M  V30 2668 H 255.274 3.20575 -2.67622 0
M  V30 2669 N 255.711 1.52812 0.385517 0
M  V30 2670 C 256.941 1.71658 1.14966 0
M  V30 2671 C 257.349 0.436253 1.84102 0
M  V30 2672 O 256.692 -0.599313 1.73649 0
M  V30 2673 C 256.754 2.81309 2.23843 0
M  V30 2674 C 256.418 4.22313 1.74644 0
M  V30 2675 C 257.415 5.05352 1.22129 0
M  V30 2676 C 255.1 4.68648 1.80761 0
M  V30 2677 C 257.094 6.32807 0.763838 0
M  V30 2678 C 254.781 5.96086 1.34627 0
M  V30 2679 C 255.779 6.77996 0.825264 0
M  V30 2680 O 255.467 8.03045 0.370669 0
M  V30 2681 H 255.199 0.578022 0.350523 0
M  V30 2682 H 257.753 2.00263 0.456509 0
M  V30 2683 H 255.983 2.48133 2.96592 0
M  V30 2684 H 257.672 2.88524 2.85497 0
M  V30 2685 H 258.438 4.70736 1.16758 0
M  V30 2686 H 254.317 4.04979 2.20256 0
M  V30 2687 H 257.861 6.96689 0.356494 0
M  V30 2688 H 253.758 6.30205 1.39686 0
M  V30 2689 H 254.526 8.17021 0.491829 0
M  V30 2690 N 257.189 -0.644168 1.43834 0
M  V30 2691 C 258.6 -1.22554 1.40845 0
M  V30 2692 C 258.951 -1.9585 0.117115 0
M  V30 2693 O 258.076 -2.01734 -0.783086 0
M  V30 2694 C 258.671 -2.22907 2.55143 0
M  V30 2695 C 257.23 -2.76501 2.5539 0
M  V30 2696 C 256.377 -1.51287 2.32396 0
M  V30 2697 H 259.328 -0.43563 1.52604 0
M  V30 2698 H 259.349 -3.05259 2.2715 0
M  V30 2699 H 258.861 -1.69533 3.49114 0
M  V30 2700 H 256.962 -3.33914 1.65324 0
M  V30 2701 H 257.075 -3.23429 3.53455 0
M  V30 2702 H 255.439 -1.78957 1.81236 0
M  V30 2703 H 256.222 -0.998336 3.28463 0
M  V30 2704 N 258.668 -1.30515 -0.883378 0
M  V30 2705 C 260.084 -1.08881 -1.16692 0
M  V30 2706 C 260.284 0.149409 -2.00945 0
M  V30 2707 O 259.34 0.84257 -2.38027 0
M  V30 2708 C 260.653 -2.35319 -1.87204 0
M  V30 2709 C 262.201 -2.40799 -1.99962 0
M  V30 2710 C 262.676 -3.67083 -2.73887 0
M  V30 2711 N 264.167 -3.679 -2.81432 0
M  V30 2712 C 264.902 -4.62303 -3.3921 0
M  V30 2713 N 264.398 -5.67052 -3.98025 0
M  V30 2714 N 266.191 -4.49845 -3.3704 0
M  V30 2715 H 258.342 -2.09951 -0.321633 0
M  V30 2716 H 260.605 -0.92556 -0.205043 0
M  V30 2717 H 260.311 -3.25689 -1.3274 0
M  V30 2718 H 260.185 -2.44089 -2.87577 0
M  V30 2719 H 262.572 -1.50907 -2.53597 0
M  V30 2720 H 262.653 -2.36003 -0.98673 0
M  V30 2721 H 262.297 -4.57334 -2.20925 0
M  V30 2722 H 262.227 -3.69141 -3.75556 0
M  V30 2723 H 264.718 -2.92171 -2.39676 0
M  V30 2724 H 265.031 -6.35184 -4.40183 0
M  V30 2725 H 263.376 -5.70842 -3.96439 0
M  V30 2726 H 266.567 -3.67194 -2.90321 0
M  V30 2727 H 266.74 -5.23597 -3.81772 0
M  V30 2728 N 260.146 1.09593 -1.13257 0
M  V30 2729 C 261.395 1.81105 -0.887917 0
M  V30 2730 C 261.708 1.86563 0.587672 0
M  V30 2731 O 262.914 2.54367 0.949204 0
M  V30 2732 C 261.37 3.25338 -1.53895 0
M  V30 2733 C 260.978 3.28151 -3.04994 0
M  V30 2734 C 262.722 4.01617 -1.37492 0
M  V30 2735 C 260.629 4.66897 -3.6299 0
M  V30 2736 H 259.559 0.678661 -0.328534 0
M  V30 2737 H 262.21 1.23183 -1.36008 0
M  V30 2738 H 260.592 3.8331 -0.994446 0
M  V30 2739 H 261.766 2.79953 -3.66009 0
M  V30 2740 H 260.081 2.65361 -3.20893 0
M  V30 2741 H 262.678 5.04119 -1.78235 0
M  V30 2742 H 263.021 4.15072 -0.31957 0
M  V30 2743 H 263.554 3.50082 -1.88912 0
M  V30 2744 H 260.293 4.58643 -4.68323 0
M  V30 2745 H 259.813 5.15426 -3.06752 0
M  V30 2746 H 261.492 5.3587 -3.62563 0
M  V30 2747 N 261.624 0.925811 1.2754 0
M  V30 2748 C 262.873 0.561084 1.93739 0
M  V30 2749 C 263.186 -0.901685 1.73577 0
M  V30 2750 O 264.392 -1.37511 2.34101 0
M  V30 2751 C 262.848 0.952668 3.47062 0
M  V30 2752 C 262.456 2.43599 3.75983 0
M  V30 2753 C 264.2 0.659103 4.19352 0
M  V30 2754 C 262.107 2.76707 5.22673 0
M  V30 2755 H 261.037 0.206122 0.725279 0
M  V30 2756 H 263.688 1.12637 1.44863 0
M  V30 2757 H 262.07 0.316053 3.94737 0
M  V30 2758 H 263.244 3.12035 3.39073 0
M  V30 2759 H 261.559 2.70125 3.16893 0
M  V30 2760 H 264.156 0.882985 5.27359 0
M  V30 2761 H 264.499 -0.403607 4.14339 0
M  V30 2762 H 265.032 1.25473 3.77494 0
M  V30 2763 H 261.771 3.8188 5.32774 0
M  V30 2764 H 261.291 2.12919 5.60737 0
M  V30 2765 H 262.97 2.6435 5.90532 0
M  V30 2766 N 263.102 -1.41638 0.69111 0
M  V30 2767 C 264.379 -1.95036 0.148421 0
M  V30 2768 C 264.759 -1.63072 -1.34055 0
M  V30 2769 O 264.107 -0.93538 -2.08478 0
M  V30 2770 C 264.317 -3.46279 0.434951 0
M  V30 2771 C 265.665 -4.23069 0.360275 0
M  V30 2772 O 266.689 -3.54277 0.369613 0
M  V30 2773 O 265.548 -5.45583 0.316534 0
M  V30 2774 H 262.642 -0.826908 0.0123654 0
M  V30 2775 H 265.188 -1.5138 0.766963 0
M  V30 2776 H 263.96 -3.6281 1.46576 0
M  V30 2777 H 263.583 -3.97019 -0.214787 0
M  V30 2778 N 264.58 -0.43555 -1.51462 0
M  V30 2779 C 265.827 0.131514 -2.02072 0
M  V30 2780 C 266.155 1.42868 -1.31981 0
M  V30 2781 O 265.41 1.91076 -0.422883 0
M  V30 2782 C 265.709 0.39942 -3.55161 0
M  V30 2783 C 265.375 -0.81172 -4.43533 0
M  V30 2784 C 264.037 -1.14387 -4.67407 0
M  V30 2785 C 266.389 -1.61976 -4.95392 0
M  V30 2786 C 263.717 -2.28477 -5.40384 0
M  V30 2787 C 266.069 -2.75164 -5.6962 0
M  V30 2788 C 264.733 -3.08835 -5.91758 0
M  V30 2789 H 264.003 0.0481244 -0.739436 0
M  V30 2790 H 266.65 -0.58238 -1.8243 0
M  V30 2791 H 264.955 1.19519 -3.73125 0
M  V30 2792 H 266.652 0.85157 -3.91854 0
M  V30 2793 H 263.242 -0.542898 -4.25148 0
M  V30 2794 H 267.426 -1.37637 -4.76833 0
M  V30 2795 H 262.682 -2.5488 -5.55739 0
M  V30 2796 H 266.856 -3.38147 -6.08793 0
M  V30 2797 H 264.483 -3.97353 -6.48086 0
M  V30 2798 N 266.058 1.56714 -0.166846 0
M  V30 2799 C 267.021 2.16539 0.751232 0
M  V30 2800 C 268.021 1.11228 1.16125 0
M  V30 2801 O 269.211 1.36765 1.07894 0
M  V30 2802 C 266.343 2.74462 2.02196 0
M  V30 2803 H 267.536 2.99013 0.230499 0
M  V30 2804 H 265.089 1.56081 0.0826982 0
M  V30 2805 H 265.824 1.95709 2.58589 0
M  V30 2806 H 265.609 3.51527 1.73698 0
M  V30 2807 H 267.099 3.20489 2.67725 0
M  V30 2808 N 267.536 -0.106894 1.57237 0
M  V30 2809 C 268.483 -1.13049 2.01217 0
M  V30 2810 C 269.453 -1.40471 0.886403 0
M  V30 2811 O 270.638 -1.52133 1.15153 0
M  V30 2812 C 267.778 -2.4487 2.43172 0
M  V30 2813 C 266.891 -2.24281 3.69218 0
M  V30 2814 C 266.026 -3.49417 4.00101 0
M  V30 2815 C 265.065 -3.24038 5.19294 0
M  V30 2816 N 264.202 -4.41409 5.45988 0
M  V30 2817 H 269.042 -0.748456 2.88448 0
M  V30 2818 H 266.579 -0.358054 1.42676 0
M  V30 2819 H 268.537 -3.21786 2.65537 0
M  V30 2820 H 267.167 -2.80944 1.58967 0
M  V30 2821 H 266.219 -1.38224 3.54398 0
M  V30 2822 H 267.531 -2.01512 4.56283 0
M  V30 2823 H 266.685 -4.34746 4.2318 0
M  V30 2824 H 265.424 -3.75229 3.11535 0
M  V30 2825 H 264.429 -2.37102 4.96047 0
M  V30 2826 H 265.654 -2.99584 6.09447 0
M  V30 2827 H 263.6 -4.67319 4.60379 0
M  V30 2828 H 263.517 -4.21788 6.274 0
M  V30 2829 H 264.785 -5.27836 5.73593 0
M  V30 2830 N 269.014 -1.53014 -0.377408 0
M  V30 2831 C 270.261 -1.68623 -1.12128 0
M  V30 2832 C 270.589 -0.431997 -1.89642 0
M  V30 2833 O 269.844 0.585855 -1.86725 0
M  V30 2834 C 270.143 -2.87982 -2.11663 0
M  V30 2835 C 269.809 -4.24964 -1.50719 0
M  V30 2836 C 268.471 -4.62217 -1.33825 0
M  V30 2837 C 270.823 -5.10199 -1.06519 0
M  V30 2838 C 268.151 -5.82352 -0.712963 0
M  V30 2839 C 270.503 -6.30969 -0.453955 0
M  V30 2840 C 269.167 -6.66944 -0.272411 0
M  V30 2841 H 268.437 -0.617034 -0.410305 0
M  V30 2842 H 271.084 -1.8718 -0.404484 0
M  V30 2843 H 269.389 -2.63889 -2.89603 0
M  V30 2844 H 271.086 -2.97253 -2.6915 0
M  V30 2845 H 267.676 -3.95626 -1.64858 0
M  V30 2846 H 271.86 -4.81978 -1.18368 0
M  V30 2847 H 267.116 -6.08824 -0.560611 0
M  V30 2848 H 271.29 -6.96324 -0.103217 0
M  V30 2849 H 268.917 -7.59898 0.214181 0
M  V30 2850 N 270.492 0.636531 -1.44174 0
M  V30 2851 C 271.908 0.954104 -1.27941 0
M  V30 2852 C 272.108 2.0039 -0.211248 0
M  V30 2853 O 271.164 2.49236 0.404695 0
M  V30 2854 C 272.477 1.4225 -2.64925 0
M  V30 2855 C 274.025 1.53827 -2.72592 0
M  V30 2856 C 274.5 2.04053 -4.10032 0
M  V30 2857 N 275.991 2.11331 -4.12182 0
M  V30 2858 C 276.726 2.51352 -5.15374 0
M  V30 2859 N 276.222 2.90549 -6.2893 0
M  V30 2860 N 278.015 2.51438 -5.02728 0
M  V30 2861 H 270.166 -0.0578386 -2.12321 0
M  V30 2862 H 272.429 0.0367406 -0.947288 0
M  V30 2863 H 272.135 0.725466 -3.44136 0
M  V30 2864 H 272.009 2.39451 -2.9145 0
M  V30 2865 H 274.396 2.22628 -1.93702 0
M  V30 2866 H 274.477 0.550154 -2.49814 0
M  V30 2867 H 274.121 1.35848 -4.89395 0
M  V30 2868 H 274.051 3.03726 -4.30184 0
M  V30 2869 H 276.542 1.83745 -3.30222 0
M  V30 2870 H 276.855 3.19884 -7.03487 0
M  V30 2871 H 275.2 2.88313 -6.32377 0
M  V30 2872 H 278.391 2.20203 -4.13072 0
M  V30 2873 H 278.564 2.82304 -5.83274 0
M  V30 2874 N 271.97 1.30982 0.876444 0
M  V30 2875 C 272.88 1.2003 2.01569 0
M  V30 2876 C 273.896 0.11838 1.73597 0
M  V30 2877 O 275.072 0.33495 1.98595 0
M  V30 2878 C 272.137 0.901637 3.34771 0
M  V30 2879 C 271.198 2.06979 3.76109 0
M  V30 2880 C 270.431 1.78529 5.02954 0
M  V30 2881 O 270.654 0.717296 5.65872 0
M  V30 2882 O 269.588 2.64019 5.40905 0
M  V30 2883 H 273.414 2.15753 2.13739 0
M  V30 2884 H 270.999 1.10658 1.00375 0
M  V30 2885 H 272.881 0.750645 4.1466 0
M  V30 2886 H 271.556 -0.0256141 3.2369 0
M  V30 2887 H 270.463 2.27616 2.96887 0
M  V30 2888 H 271.796 2.97907 3.91807 0
M  V30 2889 N 273.449 -1.08991 1.13837 0
M  V30 2890 C 274.698 -1.80631 0.897509 0
M  V30 2891 C 275.011 -1.86872 -0.57777 0
M  V30 2892 O 276.217 -2.54866 -0.935701 0
M  V30 2893 C 274.673 -3.24517 1.55618 0
M  V30 2894 C 274.281 -3.26529 3.0673 0
M  V30 2895 C 276.025 -4.00882 1.3962 0
M  V30 2896 C 273.932 -4.64965 3.65461 0
M  V30 2897 H 272.862 -0.67691 0.332129 0
M  V30 2898 H 275.513 -1.2246 1.3666 0
M  V30 2899 H 273.895 -3.82778 1.01476 0
M  V30 2900 H 275.069 -2.78008 3.67489 0
M  V30 2901 H 273.384 -2.63656 3.22296 0
M  V30 2902 H 275.981 -5.03167 1.80906 0
M  V30 2903 H 276.324 -4.14896 0.341578 0
M  V30 2904 H 276.857 -3.49075 1.90766 0
M  V30 2905 H 273.596 -4.56153 4.70749 0
M  V30 2906 H 273.116 -5.13792 3.09481 0
M  V30 2907 H 274.795 -5.3394 3.654 0
M  V30 2908 N 274.927 -0.932562 -1.27047 0
M  V30 2909 C 275.89 -0.440064 -2.24936 0
M  V30 2910 C 276.89 0.444071 -1.54547 0
M  V30 2911 O 278.08 0.244465 -1.72476 0
M  V30 2912 C 275.212 0.36678 -3.38921 0
M  V30 2913 H 276.405 -1.305 -2.70018 0
M  V30 2914 H 273.958 -0.713707 -1.39054 0
M  V30 2915 H 274.693 1.25033 -2.99228 0
M  V30 2916 H 274.478 -0.267204 -3.91188 0
M  V30 2917 H 275.968 0.701567 -4.11665 0
M  V30 2918 N 276.405 1.4127 -0.698611 0
M  V30 2919 C 277.682 1.94955 -0.158762 0
M  V30 2920 C 278.062 1.63781 1.33188 0
M  V30 2921 O 277.41 0.946423 2.07979 0
M  V30 2922 C 277.62 3.46044 -0.453309 0
M  V30 2923 C 278.968 4.22872 -0.382707 0
M  V30 2924 O 279.992 3.54076 -0.388396 0
M  V30 2925 O 278.851 5.45407 -0.345463 0
M  V30 2926 H 275.945 0.82683 -0.0167505 0
M  V30 2927 H 278.491 1.50971 -0.77498 0
M  V30 2928 H 277.263 3.62028 -1.48498 0
M  V30 2929 H 276.886 3.97128 0.19373 0
M  V30 2930 N 277.883 0.443576 1.51229 0
M  V30 2931 C 278.793 -0.370721 2.31652 0
M  V30 2932 C 279.809 -1.02186 1.40833 0
M  V30 2933 O 280.985 -1.01586 1.73903 0
M  V30 2934 C 278.05 -1.45376 3.14749 0
M  V30 2935 C 277.111 -0.822099 4.21355 0
M  V30 2936 C 276.344 -1.85353 5.0048 0
M  V30 2937 O 276.567 -3.07656 4.80316 0
M  V30 2938 O 275.501 -1.4406 5.84406 0
M  V30 2939 H 279.327 0.286002 3.0235 0
M  V30 2940 H 276.912 0.20598 1.47973 0
M  V30 2941 H 278.794 -2.08173 3.66391 0
M  V30 2942 H 277.469 -2.09445 2.46809 0
M  V30 2943 H 276.376 -0.155909 3.73775 0
M  V30 2944 H 277.709 -0.224797 4.91686 0
M  V30 2945 N 279.361 -1.56624 0.175154 0
M  V30 2946 C 280.607 -1.9729 -0.469506 0
M  V30 2947 C 280.94 -1.06128 -1.62636 0
M  V30 2948 O 280.215 -0.109183 -1.94193 0
M  V30 2949 C 280.498 -3.47375 -0.948804 0
M  V30 2950 C 280.351 -4.49317 0.208491 0
M  V30 2951 C 281.67 -4.00652 -1.82116 0
M  V30 2952 H 278.789 -0.717317 -0.16919 0
M  V30 2953 H 281.431 -1.88184 0.262062 0
M  V30 2954 H 279.581 -3.55267 -1.57219 0
M  V30 2955 H 281.253 -4.53482 0.845682 0
M  V30 2956 H 279.496 -4.25121 0.863395 0
M  V30 2957 H 280.167 -5.51741 -0.169059 0
M  V30 2958 H 282.643 -3.95416 -1.2956 0
M  V30 2959 H 281.519 -5.06075 -2.12554 0
M  V30 2960 H 281.78 -3.44699 -2.7683 0
M  V30 2961 N 280.839 0.0985539 -1.57292 0
M  V30 2962 C 282.087 0.801092 -1.85545 0
M  V30 2963 C 282.408 1.79438 -0.763353 0
M  V30 2964 O 281.678 1.94763 0.21073 0
M  V30 2965 H 280.258 0.29884 -0.684619 0
M  V30 2966 H 282.92 0.0810064 -1.94732 0
M  V30 2967 H 282.016 1.3338 -2.82163 0
M  V30 2968 N 282.317 1.53212 0.369288 0
M  V30 2969 C 283.28 1.7872 1.43498 0
M  V30 2970 C 284.28 0.657554 1.46741 0
M  V30 2971 O 285.47 0.925736 1.47566 0
M  V30 2972 C 282.602 1.90591 2.82645 0
M  V30 2973 H 283.795 2.73894 1.22156 0
M  V30 2974 H 281.348 1.44233 0.602203 0
M  V30 2975 H 282.083 0.974709 3.09306 0
M  V30 2976 H 281.868 2.72751 2.8169 0
M  V30 2977 H 283.358 2.11931 3.59826 0
M  V30 2978 N 283.795 -0.628877 1.44509 0
M  V30 2979 C 285.025 -1.41349 1.50678 0
M  V30 2980 C 285.433 -1.88745 0.131075 0
M  V30 2981 O 284.776 -1.61592 -0.87371 0
M  V30 2982 C 284.838 -2.66608 2.41165 0
M  V30 2983 C 284.502 -2.40993 3.88293 0
M  V30 2984 C 285.499 -2.0268 4.78766 0
M  V30 2985 C 283.184 -2.54563 4.33016 0
M  V30 2986 C 285.178 -1.78269 6.11963 0
M  V30 2987 C 282.865 -2.29766 5.6626 0
M  V30 2988 C 283.863 -1.91678 6.55552 0
M  V30 2989 O 283.551 -1.67158 7.86329 0
M  V30 2990 H 283.283 -0.439851 0.51333 0
M  V30 2991 H 285.837 -0.776084 1.90174 0
M  V30 2992 H 284.067 -3.32994 1.96601 0
M  V30 2993 H 285.756 -3.28615 2.38259 0
M  V30 2994 H 286.522 -1.91751 4.45485 0
M  V30 2995 H 282.401 -2.83179 3.63773 0
M  V30 2996 H 285.945 -1.48465 6.81619 0
M  V30 2997 H 281.842 -2.40306 5.99102 0
M  V30 2998 H 282.61 -1.81386 7.98149 0
M  V30 2999 N 285.273 -1.31445 -0.869486 0
M  V30 3000 C 286.203 -1.21727 -1.99261 0
M  V30 3001 C 287.184 -0.104359 -1.6978 0
M  V30 3002 O 288.369 -0.289038 -1.92037 0
M  V30 3003 C 285.499 -0.924317 -3.34774 0
M  V30 3004 C 284.453 -1.99685 -3.78563 0
M  V30 3005 C 283.779 -1.55658 -5.11541 0
M  V30 3006 C 285.079 -3.41003 -3.95619 0
M  V30 3007 H 286.773 -2.1569 -2.07649 0
M  V30 3008 H 284.319 -1.03839 -0.997675 0
M  V30 3009 H 286.272 -0.842934 -4.12883 0
M  V30 3010 H 284.996 0.0509793 -3.2656 0
M  V30 3011 H 283.655 -2.06813 -3.02694 0
M  V30 3012 H 283.303 -0.569132 -4.9977 0
M  V30 3013 H 283.003 -2.27409 -5.41811 0
M  V30 3014 H 284.527 -1.48928 -5.92159 0
M  V30 3015 H 285.941 -3.36547 -4.64122 0
M  V30 3016 H 284.338 -4.10975 -4.37286 0
M  V30 3017 H 285.408 -3.81754 -2.98985 0
M  V30 3018 N 286.751 1.08385 -1.14413 0
M  V30 3019 C 287.684 2.14642 -0.774871 0
M  V30 3020 C 288.662 1.60761 0.243876 0
M  V30 3021 O 289.846 1.88031 0.132883 0
M  V30 3022 C 286.973 3.38366 -0.150491 0
M  V30 3023 C 286.019 4.10997 -1.13945 0
M  V30 3024 S 286.852 4.63797 -2.67679 0
M  V30 3025 C 288.008 5.90808 -2.06631 0
M  V30 3026 H 288.241 2.45633 -1.67487 0
M  V30 3027 H 285.774 1.20498 -0.96538 0
M  V30 3028 H 287.732 4.09996 0.203334 0
M  V30 3029 H 286.393 3.05572 0.72694 0
M  V30 3030 H 285.586 4.99783 -0.65059 0
M  V30 3031 H 285.188 3.4528 -1.43727 0
M  V30 3032 H 287.48 6.62411 -1.4219 0
M  V30 3033 H 288.423 6.4439 -2.93542 0
M  V30 3034 H 288.831 5.4383 -1.51357 0
M  V30 3035 N 288.23 0.939286 1.26551 0
M  V30 3036 C 289.476 0.586715 1.94128 0
M  V30 3037 C 289.809 -0.8717 1.73537 0
M  V30 3038 O 289.084 -1.62339 1.07127 0
M  V30 3039 C 289.367 0.927497 3.4795 0
M  V30 3040 C 289.22 2.44052 3.77834 0
M  V30 3041 C 290.539 0.441569 4.37879 0
M  V30 3042 H 287.658 0.21463 0.705055 0
M  V30 3043 H 290.3 1.17316 1.49455 0
M  V30 3044 H 288.45 0.428431 3.8613 0
M  V30 3045 H 290.122 3.01216 3.4938 0
M  V30 3046 H 288.365 2.8848 3.23978 0
M  V30 3047 H 289.036 2.62947 4.85348 0
M  V30 3048 H 291.512 0.869448 4.06915 0
M  V30 3049 H 290.388 0.708856 5.44304 0
M  V30 3050 H 290.649 -0.658467 4.37169 0
M  V30 3051 N 289.708 -1.40897 0.706093 0
M  V30 3052 C 290.985 -1.94868 0.169099 0
M  V30 3053 C 291.365 -1.64485 -1.32318 0
M  V30 3054 O 290.713 -0.95744 -2.07474 0
M  V30 3055 C 290.923 -3.45798 0.471654 0
M  V30 3056 C 292.271 -4.22663 0.405127 0
M  V30 3057 O 293.295 -3.53865 0.407168 0
M  V30 3058 O 292.154 -5.45216 0.374383 0
M  V30 3059 H 289.248 -0.82673 0.0211352 0
M  V30 3060 H 291.794 -1.50558 0.782976 0
M  V30 3061 H 290.566 -3.61235 1.50416 0
M  V30 3062 H 290.189 -3.97225 -0.172666 0
M  V30 3063 N 291.186 -0.45159 -1.50991 0
M  V30 3064 C 292.119 0.398179 -2.24699 0
M  V30 3065 C 293.097 1.01276 -1.27208 0
M  V30 3066 O 294.281 1.05247 -1.56382 0
M  V30 3067 C 291.408 1.55618 -3.00833 0
M  V30 3068 C 290.454 1.0609 -4.13095 0
M  V30 3069 S 291.287 -0.00865136 -5.35499 0
M  V30 3070 C 292.443 1.15369 -6.15175 0
M  V30 3071 H 292.676 -0.227555 -2.96428 0
M  V30 3072 H 290.209 -0.236251 -1.52582 0
M  V30 3073 H 292.167 2.21997 -3.45293 0
M  V30 3074 H 290.828 2.15337 -2.28667 0
M  V30 3075 H 290.021 1.92726 -4.65696 0
M  V30 3076 H 289.623 0.47513 -3.7097 0
M  V30 3077 H 291.915 2.06925 -6.45126 0
M  V30 3078 H 292.858 0.667344 -7.04948 0
M  V30 3079 H 293.266 1.3987 -5.46897 0
M  V30 3080 N 292.664 1.56529 -0.183458 0
M  V30 3081 C 293.627 2.17324 0.728223 0
M  V30 3082 C 294.627 1.12453 1.14939 0
M  V30 3083 O 295.817 1.37902 1.06437 0
M  V30 3084 C 292.949 2.76591 1.99274 0
M  V30 3085 H 294.142 2.99241 0.198772 0
M  V30 3086 H 291.695 1.5616 0.0661391 0
M  V30 3087 H 292.43 1.98441 2.56499 0
M  V30 3088 H 292.215 3.5335 1.69959 0
M  V30 3089 H 293.705 3.23311 2.6431 0
M  V30 3090 N 294.142 -0.090211 1.57342 0
M  V30 3091 C 295.092 -1.11557 1.98844 0
M  V30 3092 C 296.076 -1.35503 0.867624 0
M  V30 3093 O 297.268 -1.36113 1.13148 0
M  V30 3094 C 294.397 -2.43446 2.42051 0
M  V30 3095 C 293.483 -2.22853 3.60828 0
M  V30 3096 N 293.874 -1.72141 4.75606 0
M  V30 3097 C 292.172 -2.53401 3.67021 0
M  V30 3098 C 292.873 -1.65932 5.57531 0
M  V30 3099 N 291.849 -2.11323 5.00843 0
M  V30 3100 H 295.651 -0.716499 2.85032 0
M  V30 3101 H 293.165 -0.297567 1.59651 0
M  V30 3102 H 295.162 -3.17644 2.70014 0
M  V30 3103 H 293.822 -2.84087 1.57241 0
M  V30 3104 H 294.833 -1.41268 4.98261 0
M  V30 3105 H 291.51 -2.97532 2.92884 0
M  V30 3106 H 292.9 -1.27733 6.59647 0
M  V30 3107 N 295.62 -1.53406 -0.361157 0
M  V30 3108 C 296.869 -1.69022 -1.10066 0
M  V30 3109 C 297.182 -0.450838 -1.90333 0
M  V30 3110 O 298.388 -0.487617 -2.67085 0
M  V30 3111 C 296.844 -2.98812 -2.00598 0
M  V30 3112 C 296.452 -4.30027 -1.25621 0
M  V30 3113 C 298.196 -3.23795 -2.74513 0
M  V30 3114 C 296.103 -5.50903 -2.1508 0
M  V30 3115 H 295.033 -0.629776 -0.414606 0
M  V30 3116 H 297.684 -1.79907 -0.361348 0
M  V30 3117 H 296.066 -2.8174 -2.78278 0
M  V30 3118 H 297.24 -4.57745 -0.529739 0
M  V30 3119 H 295.555 -4.11522 -0.635496 0
M  V30 3120 H 298.152 -4.11289 -3.41681 0
M  V30 3121 H 298.495 -2.40045 -3.40123 0
M  V30 3122 H 299.028 -3.41561 -2.03914 0
M  V30 3123 H 295.767 -6.37143 -1.54041 0
M  V30 3124 H 295.287 -5.27459 -2.85565 0
M  V30 3125 H 296.966 -5.85865 -2.74538 0
M  V30 3126 N 297.098 0.621204 -1.44841 0
M  V30 3127 C 298.061 1.71459 -1.521 0
M  V30 3128 C 299.061 1.55696 -0.401933 0
M  V30 3129 O 300.251 1.61011 -0.664925 0
M  V30 3130 C 297.383 3.10624 -1.40447 0
M  V30 3131 H 298.576 1.66394 -2.49506 0
M  V30 3132 H 296.129 0.835745 -1.3208 0
M  V30 3133 H 296.864 3.21277 -0.441737 0
M  V30 3134 H 296.649 3.23473 -2.21602 0
M  V30 3135 H 298.139 3.90293 -1.4853 0
M  V30 3136 N 298.576 1.31904 0.862503 0
M  V30 3137 C 299.824 1.21776 1.61292 0
M  V30 3138 C 300.145 -0.222413 1.93727 0
M  V30 3139 O 299.415 -1.1451 1.58947 0
M  V30 3140 H 297.995 0.447717 0.597962 0
M  V30 3141 H 300.657 1.65326 1.03215 0
M  V30 3142 H 299.753 1.7948 2.5533 0
M  V30 3143 N 300.054 -1.07777 1.14986 0
M  V30 3144 C 300.984 -2.16865 0.865557 0
M  V30 3145 C 301.965 -1.69123 -0.182083 0
M  V30 3146 O 303.15 -1.94164 -0.0373815 0
M  V30 3147 C 300.28 -3.45539 0.349313 0
M  V30 3148 C 299.234 -4.06708 1.33313 0
M  V30 3149 C 298.56 -5.30411 0.675918 0
M  V30 3150 C 299.86 -4.47241 2.69764 0
M  V30 3151 H 301.554 -2.40905 1.77778 0
M  V30 3152 H 299.1 -1.15781 0.856203 0
M  V30 3153 H 301.053 -4.21174 0.137983 0
M  V30 3154 H 299.777 -3.21072 -0.598362 0
M  V30 3155 H 298.436 -3.33112 1.53075 0
M  V30 3156 H 298.084 -5.02232 -0.277767 0
M  V30 3157 H 297.784 -5.72293 1.33244 0
M  V30 3158 H 299.308 -6.08755 0.474262 0
M  V30 3159 H 300.722 -5.14025 2.53873 0
M  V30 3160 H 299.119 -5.00062 3.3175 0
M  V30 3161 H 300.189 -3.58818 3.26156 0
M  V30 3162 N 301.532 -0.945985 -1.26051 0
M  V30 3163 C 302.778 -0.597002 -1.93814 0
M  V30 3164 C 303.111 0.862484 -1.73997 0
M  V30 3165 O 302.386 1.61769 -1.07986 0
M  V30 3166 C 302.669 -0.945937 -3.47454 0
M  V30 3167 C 302.522 -2.46052 -3.76535 0
M  V30 3168 C 303.841 -0.464785 -4.37639 0
M  V30 3169 H 300.96 -0.218366 -0.703907 0
M  V30 3170 H 303.602 -1.18107 -1.48831 0
M  V30 3171 H 301.752 -0.448902 -3.85898 0
M  V30 3172 H 303.424 -3.03065 -3.47778 0
M  V30 3173 H 301.667 -2.90194 -3.22444 0
M  V30 3174 H 302.338 -2.65517 -4.83947 0
M  V30 3175 H 304.814 -0.891016 -4.06448 0
M  V30 3176 H 303.69 -0.737712 -5.4392 0
M  V30 3177 H 303.951 0.635274 -4.37512 0
M  V30 3178 N 303.011 1.40521 -0.713556 0
M  V30 3179 C 303.974 2.29098 -0.0684347 0
M  V30 3180 C 304.974 1.45268 0.689472 0
M  V30 3181 O 306.164 1.66205 0.521677 0
M  V30 3182 C 303.296 3.28446 0.913024 0
M  V30 3183 H 304.489 2.87645 -0.84855 0
M  V30 3184 H 302.042 1.48809 -0.47809 0
M  V30 3185 H 302.777 2.74913 1.72027 0
M  V30 3186 H 302.562 3.90327 0.372472 0
M  V30 3187 H 304.052 3.94777 1.36165 0
M  V30 3188 N 304.489 0.459591 1.5075 0
M  V30 3189 C 305.452 -0.329093 2.26825 0
M  V30 3190 C 306.452 -0.930481 1.31144 0
M  V30 3191 O 307.642 -0.801453 1.54669 0
M  V30 3192 C 304.774 -1.46768 3.07688 0
M  V30 3193 H 305.967 0.337924 2.9799 0
M  V30 3194 H 303.52 0.213336 1.54837 0
M  V30 3195 H 304.255 -2.17009 2.40993 0
M  V30 3196 H 304.04 -1.04238 3.77991 0
M  V30 3197 H 305.53 -2.02433 3.65254 0
M  V30 3198 N 305.967 -1.56429 0.191757 0
M  V30 3199 C 307.215 -1.97095 -0.447006 0
M  V30 3200 C 307.536 -1.07967 -1.62383 0
M  V30 3201 O 306.806 -0.150248 -1.95323 0
M  V30 3202 H 305.386 -0.727832 -0.168135 0
M  V30 3203 H 308.048 -1.92911 0.27771 0
M  V30 3204 H 307.144 -3.01848 -0.793371 0
M  V30 3205 N 307.445 0.0818655 -1.57387 0
M  V30 3206 C 308.691 0.784074 -1.8703 0
M  V30 3207 C 309.024 1.77729 -0.782689 0
M  V30 3208 O 308.299 1.93384 0.208051 0
M  V30 3209 C 308.582 1.50105 -3.27323 0
M  V30 3210 C 308.435 0.524925 -4.46727 0
M  V30 3211 C 309.754 2.44843 -3.65705 0
M  V30 3212 H 306.873 0.283582 -0.680257 0
M  V30 3213 H 309.515 0.0474352 -1.89941 0
M  V30 3214 H 307.665 2.12897 -3.24972 0
M  V30 3215 H 309.337 -0.0970111 -4.61198 0
M  V30 3216 H 307.58 -0.160606 -4.33503 0
M  V30 3217 H 308.251 1.064 -5.41648 0
M  V30 3218 H 310.727 1.92135 -3.69085 0
M  V30 3219 H 309.603 2.92018 -4.64776 0
M  V30 3220 H 309.864 3.29197 -2.95096 0
M  V30 3221 N 308.923 1.53595 0.353017 0
M  V30 3222 C 309.873 1.77299 1.43349 0
M  V30 3223 C 310.857 0.627884 1.48143 0
M  V30 3224 O 312.049 0.88697 1.53173 0
M  V30 3225 C 309.178 1.97757 2.80619 0
M  V30 3226 C 308.264 3.18305 2.80254 0
M  V30 3227 N 308.655 4.39967 2.49526 0
M  V30 3228 C 306.953 3.19283 3.11407 0
M  V30 3229 C 307.654 5.21772 2.57156 0
M  V30 3230 N 306.63 4.58269 2.92388 0
M  V30 3231 H 310.432 2.68963 1.18474 0
M  V30 3232 H 307.946 1.52391 0.561306 0
M  V30 3233 H 309.943 2.1287 3.58458 0
M  V30 3234 H 308.603 1.07329 3.06448 0
M  V30 3235 H 309.614 4.67482 2.22893 0
M  V30 3236 H 306.291 2.3879 3.4247 0
M  V30 3237 H 307.681 6.2885 2.36638 0
M  V30 3238 N 310.401 -0.613514 1.45168 0
M  V30 3239 C 311.812 -1.19539 1.43413 0
M  V30 3240 C 312.163 -1.95558 0.158632 0
M  V30 3241 O 311.288 -2.0335 -0.740119 0
M  V30 3242 C 311.883 -2.17445 2.59813 0
M  V30 3243 C 310.442 -2.71022 2.61197 0
M  V30 3244 C 309.589 -1.46323 2.35552 0
M  V30 3245 H 312.54 -0.403163 1.53494 0
M  V30 3246 H 312.561 -3.00373 2.33574 0
M  V30 3247 H 312.073 -1.62089 3.52631 0
M  V30 3248 H 310.174 -3.30332 1.7237 0
M  V30 3249 H 310.287 -3.15859 3.60236 0
M  V30 3250 H 308.651 -1.75072 1.84992 0
M  V30 3251 H 309.434 -0.92844 3.30507 0
M  V30 3252 N 311.879 -1.3236 -0.855495 0
M  V30 3253 C 312.827 -1.2118 -1.9854 0
M  V30 3254 C 313.821 -0.116788 -1.68997 0
M  V30 3255 O 315.027 -0.279657 -1.77814 0
M  V30 3256 H 311.402 -0.375608 -0.651477 0
M  V30 3257 H 313.373 -2.16743 -2.05098 0
M  V30 3258 C 312.122 -0.950849 -3.34446 0
M  V30 3259 H 311.445 -1.78563 -3.57708 0
M  V30 3260 H 312.885 -0.912863 -4.14057 0
M  V30 3261 C 311.344 0.346404 -3.35114 0
M  V30 3262 O 311.874 1.35855 -3.7803 0
M  V30 3263 N 310.08 0.36808 -2.88259 0
M  V30 3264 H 309.627 -0.456102 -2.5353 0
M  V30 3265 H 309.585 1.23591 -2.89089 0
M  V30 3266 N 313.357 1.07166 -1.15556 0
M  V30 3267 C 314.768 1.6127 -0.940693 0
M  V30 3268 C 315.119 1.89251 0.517551 0
M  V30 3269 O 314.244 1.65937 1.38903 0
M  V30 3270 C 314.839 2.92993 -1.7012 0
M  V30 3271 C 313.398 3.43832 -1.53156 0
M  V30 3272 C 312.545 2.1786 -1.71558 0
M  V30 3273 H 315.496 0.90229 -1.30554 0
M  V30 3274 H 315.517 3.62007 -1.17181 0
M  V30 3275 H 315.029 2.72596 -2.76248 0
M  V30 3276 H 313.13 3.69307 -0.494294 0
M  V30 3277 H 313.243 4.19747 -2.30975 0
M  V30 3278 H 311.607 2.2765 -1.14225 0
M  V30 3279 H 312.39 1.99956 -2.79056 0
M  V30 3280 N 314.835 0.952656 1.25548 0
M  V30 3281 C 316.081 0.607272 1.93494 0
M  V30 3282 C 316.414 -0.853245 1.74452 0
M  V30 3283 O 315.689 -1.61194 1.08843 0
M  V30 3284 C 315.972 0.96435 3.46947 0
M  V30 3285 C 315.825 2.48045 3.75225 0
M  V30 3286 C 317.144 0.487987 4.37386 0
M  V30 3287 H 314.263 0.222096 0.702739 0
M  V30 3288 H 316.905 1.18895 1.48203 0
M  V30 3289 H 315.055 0.469361 3.85654 0
M  V30 3290 H 316.727 3.04905 3.46166 0
M  V30 3291 H 314.97 2.919 3.209 0
M  V30 3292 H 315.641 2.6808 4.82532 0
M  V30 3293 H 318.117 0.912558 4.0597 0
M  V30 3294 H 316.993 0.766547 5.43521 0
M  V30 3295 H 317.254 -0.612063 4.37843 0
M  V30 3296 N 316.313 -1.40141 0.720998 0
M  V30 3297 C 317.724 -1.83678 0.334553 0
M  V30 3298 C 318.075 -1.6027 -1.13173 0
M  V30 3299 O 317.2 -1.08643 -1.87152 0
M  V30 3300 C 317.795 -3.33437 0.600437 0
M  V30 3301 C 316.354 -3.75447 0.267642 0
M  V30 3302 C 315.501 -2.63296 0.870097 0
M  V30 3303 H 318.452 -1.29331 0.919732 0
M  V30 3304 H 318.473 -3.80269 -0.132517 0
M  V30 3305 H 317.985 -3.50442 1.66768 0
M  V30 3306 H 316.086 -3.64035 -0.794329 0
M  V30 3307 H 316.199 -4.73344 0.74042 0
M  V30 3308 H 314.563 -2.52954 0.297739 0
M  V30 3309 H 315.346 -2.83112 1.94172 0
M  V30 3310 N 317.792 -0.46758 -1.50504 0
M  V30 3311 C 319.022 0.086288 -2.0642 0
M  V30 3312 C 319.43 1.34369 -1.33197 0
M  V30 3313 O 318.773 1.79431 -0.393747 0
M  V30 3314 C 318.835 0.443846 -3.5675 0
M  V30 3315 C 318.499 -0.711035 -4.51435 0
M  V30 3316 C 319.496 -1.59205 -4.94924 0
M  V30 3317 C 317.181 -0.900363 -4.94165 0
M  V30 3318 C 319.175 -2.64683 -5.79846 0
M  V30 3319 C 316.862 -1.95837 -5.7887 0
M  V30 3320 C 317.86 -2.82997 -6.21612 0
M  V30 3321 O 317.548 -3.86977 -7.0463 0
M  V30 3322 H 317.28 -0.00217814 -0.675996 0
M  V30 3323 H 319.834 -0.654346 -1.94698 0
M  V30 3324 H 318.064 1.23762 -3.6636 0
M  V30 3325 H 319.753 0.932386 -3.95046 0
M  V30 3326 H 320.519 -1.45745 -4.62583 0
M  V30 3327 H 316.398 -0.231427 -4.60419 0
M  V30 3328 H 319.942 -3.32745 -6.13128 0
M  V30 3329 H 315.839 -2.09305 -6.10624 0
M  V30 3330 H 316.607 -3.83923 -7.22873 0
M  V30 3331 N 319.27 1.56325 -0.20005 0
M  V30 3332 C 320.233 2.18084 0.705132 0
M  V30 3333 C 321.233 1.13666 1.1374 0
M  V30 3334 O 322.423 1.39023 1.04968 0
M  V30 3335 C 319.555 2.78689 1.96329 0
M  V30 3336 H 320.748 2.99435 0.167023 0
M  V30 3337 H 318.301 1.56221 0.0495725 0
M  V30 3338 H 319.036 2.0115 2.5438 0
M  V30 3339 H 318.821 3.55133 1.66202 0
M  V30 3340 H 320.311 3.26096 2.60866 0
M  V30 3341 N 320.748 -0.0735177 1.57428 0
M  V30 3342 C 321.698 -1.09442 2.00016 0
M  V30 3343 C 322.682 -1.34575 0.881947 0
M  V30 3344 O 323.874 -1.34905 1.14585 0
M  V30 3345 C 321.003 -2.40865 2.4462 0
M  V30 3346 C 320.089 -2.19014 3.63172 0
M  V30 3347 N 320.48 -1.67087 4.77405 0
M  V30 3348 C 318.778 -2.49494 3.69688 0
M  V30 3349 C 319.479 -1.6001 5.5926 0
M  V30 3350 N 318.455 -2.05999 5.03056 0
M  V30 3351 H 322.257 -0.686227 2.85776 0
M  V30 3352 H 319.771 -0.280617 1.59957 0
M  V30 3353 H 321.768 -3.14763 2.73368 0
M  V30 3354 H 320.428 -2.82403 1.60246 0
M  V30 3355 H 321.439 -1.35975 4.99731 0
M  V30 3356 H 318.116 -2.94409 2.96023 0
M  V30 3357 H 319.506 -1.2073 6.60964 0
M  V30 3358 N 322.226 -1.5378 -0.344866 0
M  V30 3359 C 323.473 -1.70963 -1.08526 0
M  V30 3360 C 323.801 -0.472126 -1.88683 0
M  V30 3361 O 323.056 0.546116 -1.87926 0
M  V30 3362 C 323.355 -2.92407 -2.05506 0
M  V30 3363 C 323.021 -4.28066 -1.41671 0
M  V30 3364 C 321.683 -4.64951 -1.2399 0
M  V30 3365 C 324.035 -5.12344 -0.956726 0
M  V30 3366 C 321.363 -5.83733 -0.589277 0
M  V30 3367 C 323.715 -6.3179 -0.320015 0
M  V30 3368 C 322.379 -6.67372 -0.130881 0
M  V30 3369 H 321.649 -0.625598 -0.397124 0
M  V30 3370 H 324.296 -1.87995 -0.36469 0
M  V30 3371 H 322.601 -2.69973 -2.8394 0
M  V30 3372 H 324.298 -3.02895 -2.62784 0
M  V30 3373 H 320.888 -3.99034 -1.56429 0
M  V30 3374 H 325.072 -4.8438 -1.08118 0
M  V30 3375 H 320.328 -6.09877 -0.431344 0
M  V30 3376 H 324.502 -6.96386 0.0445072 0
M  V30 3377 H 322.129 -7.59273 0.375318 0
M  V30 3378 N 323.704 0.605807 -1.45491 0
M  V30 3379 C 324.95 1.36679 -1.49823 0
M  V30 3380 C 325.283 1.93693 -0.140175 0
M  V30 3381 O 324.558 1.75158 0.845581 0
M  V30 3382 C 324.841 2.51337 -2.57879 0
M  V30 3383 C 324.694 1.99508 -4.03134 0
M  V30 3384 C 326.013 3.53463 -2.62205 0
M  V30 3385 H 323.132 0.495617 -0.545466 0
M  V30 3386 H 325.774 0.682732 -1.7731 0
M  V30 3387 H 323.924 3.09691 -2.34571 0
M  V30 3388 H 325.596 1.45789 -4.37656 0
M  V30 3389 H 323.839 1.30496 -4.13707 0
M  V30 3390 H 324.51 2.82169 -4.74431 0
M  V30 3391 H 326.986 3.04953 -2.83095 0
M  V30 3392 H 325.862 4.31178 -3.39672 0
M  V30 3393 H 326.123 4.09197 -1.67363 0
M  V30 3394 N 325.182 1.32811 0.848464 0
M  V30 3395 C 326.41 1.26739 1.63538 0
M  V30 3396 C 326.825 -0.163484 1.88091 0
M  V30 3397 O 326.182 -1.10258 1.45429 0
M  V30 3398 C 326.233 2.03013 2.99112 0
M  V30 3399 O 325.954 3.40518 2.75643 0
M  V30 3400 C 327.455 2.04038 3.93552 0
M  V30 3401 H 324.675 0.437024 0.509167 0
M  V30 3402 H 327.219 1.75033 1.05753 0
M  V30 3403 H 325.374 1.58426 3.53525 0
M  V30 3404 H 325.788 3.79635 3.61908 0
M  V30 3405 H 327.262 2.61877 4.85926 0
M  V30 3406 H 327.739 1.0282 4.26995 0
M  V30 3407 H 328.345 2.486 3.45077 0
M  V30 3408 N 326.66 -1.06551 1.16123 0
M  V30 3409 C 327.888 -1.83005 0.965237 0
M  V30 3410 C 328.303 -1.82423 -0.486542 0
M  V30 3411 O 327.66 -1.24152 -1.33763 0
M  V30 3412 C 327.711 -3.29733 1.48183 0
M  V30 3413 O 327.432 -3.30416 2.87674 0
M  V30 3414 C 328.933 -4.22926 1.32848 0
M  V30 3415 H 326.153 -0.577118 0.342309 0
M  V30 3416 H 328.697 -1.3445 1.54089 0
M  V30 3417 H 326.852 -3.75609 0.948517 0
M  V30 3418 H 327.266 -4.22149 3.11272 0
M  V30 3419 H 328.74 -5.23916 1.73827 0
M  V30 3420 H 329.217 -4.38346 0.273692 0
M  V30 3421 H 329.823 -3.82894 1.85127 0
M  V30 3422 N 328.138 -0.959301 -1.25041 0
M  V30 3423 C 329.366 -0.633949 -1.96948 0
M  V30 3424 C 329.781 0.794916 -1.7125 0
M  V30 3425 O 329.138 1.53231 -0.991287 0
M  V30 3426 C 329.189 -0.888805 -3.50403 0
M  V30 3427 O 328.91 -2.26149 -3.75218 0
M  V30 3428 C 330.411 -0.576482 -4.39536 0
M  V30 3429 H 327.631 -0.237263 -0.627652 0
M  V30 3430 H 330.175 -1.28495 -1.59089 0
M  V30 3431 H 328.33 -0.284145 -3.86357 0
M  V30 3432 H 328.744 -2.33514 -4.6965 0
M  V30 3433 H 330.218 -0.805314 -5.46094 0
M  V30 3434 H 330.695 0.489075 -4.36468 0
M  V30 3435 H 331.301 -1.16067 -4.09156 0
M  V30 3436 N 329.616 1.39756 -0.72842 0
M  V30 3437 C 330.844 2.04948 -0.283528 0
M  V30 3438 C 331.259 1.54908 1.0793 0
M  V30 3439 O 330.616 0.711135 1.68075 0
M  V30 3440 C 330.667 3.60498 -0.268957 0
M  V30 3441 O 330.388 4.08695 -1.57798 0
M  V30 3442 C 331.889 4.4288 0.192912 0
M  V30 3443 H 329.109 0.659243 -0.125056 0
M  V30 3444 H 331.653 1.78927 -0.990226 0
M  V30 3445 H 329.808 3.85444 0.388801 0
M  V30 3446 H 330.222 5.02977 -1.48709 0
M  V30 3447 H 331.696 5.51791 0.151952 0
M  V30 3448 H 332.173 4.21418 1.23708 0
M  V30 3449 H 332.779 4.23069 -0.435039 0
M  V30 3450 N 331.094 0.475555 1.50254 0
M  V30 3451 C 332.044 -0.335025 2.25525 0
M  V30 3452 C 333.028 -0.957625 1.29299 0
M  V30 3453 O 334.22 -0.869436 1.54175 0
M  V30 3454 C 331.349 -1.41385 3.12834 0
M  V30 3455 C 330.435 -0.798762 4.1651 0
M  V30 3456 N 330.826 0.0835815 5.05731 0
M  V30 3457 C 329.124 -1.06221 4.33166 0
M  V30 3458 C 329.825 0.433113 5.80085 0
M  V30 3459 N 328.801 -0.1928 5.43258 0
M  V30 3460 H 332.603 0.344612 2.91873 0
M  V30 3461 H 330.117 0.289986 1.5979 0
M  V30 3462 H 332.114 -2.00777 3.65368 0
M  V30 3463 H 330.774 -2.09543 2.48036 0
M  V30 3464 H 331.785 0.452715 5.15918 0
M  V30 3465 H 328.462 -1.73844 3.79585 0
M  V30 3466 H 329.852 1.15346 6.61925 0
M  V30 3467 N 332.573 -1.56217 0.208337 0
M  V30 3468 C 333.52 -2.19699 -0.707192 0
M  V30 3469 C 334.49 -1.14836 -1.20008 0
M  V30 3470 O 335.675 -1.4314 -1.26157 0
M  V30 3471 C 332.815 -2.87061 -1.91546 0
M  V30 3472 C 331.928 -4.06483 -1.46271 0
M  V30 3473 C 331.063 -4.61665 -2.62752 0
M  V30 3474 C 330.102 -5.73417 -2.14147 0
M  V30 3475 N 329.239 -6.22948 -3.23853 0
M  V30 3476 H 334.079 -2.97575 -0.159111 0
M  V30 3477 H 331.616 -1.46948 -0.0667874 0
M  V30 3478 H 333.574 -3.24294 -2.62468 0
M  V30 3479 H 332.204 -2.11725 -2.43664 0
M  V30 3480 H 331.256 -3.74825 -0.648886 0
M  V30 3481 H 332.568 -4.87271 -1.06622 0
M  V30 3482 H 331.722 -5.01272 -3.41776 0
M  V30 3483 H 330.461 -3.80013 -3.05682 0
M  V30 3484 H 329.466 -5.33326 -1.33581 0
M  V30 3485 H 330.691 -6.56897 -1.72232 0
M  V30 3486 H 328.637 -5.44213 -3.6629 0
M  V30 3487 H 328.554 -6.98823 -2.88414 0
M  V30 3488 H 329.822 -6.6721 -4.03052 0
M  V30 3489 N 334.051 0.0651679 -1.57465 0
M  V30 3490 C 335.279 0.775808 -1.91804 0
M  V30 3491 C 335.694 1.70782 -0.804916 0
M  V30 3492 O 335.051 1.81153 0.221311 0
M  V30 3493 C 335.102 1.56381 -3.25925 0
M  V30 3494 O 334.823 0.669248 -4.32958 0
M  V30 3495 C 336.324 2.37485 -3.7432 0
M  V30 3496 H 333.544 0.2202 -0.63384 0
M  V30 3497 H 336.088 0.0334587 -2.04473 0
M  V30 3498 H 334.243 2.25837 -3.14764 0
M  V30 3499 H 334.657 1.21801 -5.10162 0
M  V30 3500 H 336.131 2.88223 -4.70778 0
M  V30 3501 H 336.608 3.17307 -3.03666 0
M  V30 3502 H 337.214 1.73173 -3.88447 0
M  V30 3503 N 335.529 1.53961 0.336706 0
M  V30 3504 C 336.459 1.85417 1.41925 0
M  V30 3505 C 337.44 0.709856 1.5458 0
M  V30 3506 O 338.625 0.962396 1.68676 0
M  V30 3507 C 335.755 2.06985 2.78881 0
M  V30 3508 C 334.709 3.22813 2.81026 0
M  V30 3509 C 334.035 3.29727 4.20932 0
M  V30 3510 C 335.335 4.60767 2.45949 0
M  V30 3511 H 337.029 2.76079 1.15848 0
M  V30 3512 H 334.575 1.32839 0.555859 0
M  V30 3513 H 336.528 2.27575 3.54665 0
M  V30 3514 H 335.252 1.13061 3.06406 0
M  V30 3515 H 333.911 3.0209 2.07695 0
M  V30 3516 H 333.559 2.33385 4.45579 0
M  V30 3517 H 333.259 4.07566 4.23277 0
M  V30 3518 H 334.783 3.52536 4.98549 0
M  V30 3519 H 336.197 4.81325 3.11446 0
M  V30 3520 H 334.594 5.4106 2.59566 0
M  V30 3521 H 335.664 4.6391 1.41122 0
M  V30 3522 N 337.007 -0.598083 1.45811 0
M  V30 3523 C 338.423 -0.919847 1.30426 0
M  V30 3524 C 338.623 -1.99759 0.264303 0
M  V30 3525 O 337.679 -2.50221 -0.338472 0
M  V30 3526 C 338.992 -1.35176 2.68603 0
M  V30 3527 C 340.54 -1.46546 2.76574 0
M  V30 3528 C 341.015 -1.9311 4.15298 0
M  V30 3529 N 342.506 -2.00328 4.1764 0
M  V30 3530 C 343.241 -2.37599 5.21856 0
M  V30 3531 N 342.737 -2.73771 6.36413 0
M  V30 3532 N 344.53 -2.38021 5.09218 0
M  V30 3533 H 336.681 0.114111 2.12093 0
M  V30 3534 H 338.944 -0.0116121 0.947929 0
M  V30 3535 H 338.65 -0.633969 3.45939 0
M  V30 3536 H 338.524 -2.3164 2.97696 0
M  V30 3537 H 340.911 -2.17415 1.99537 0
M  V30 3538 H 340.992 -0.483727 2.51185 0
M  V30 3539 H 340.636 -1.22824 4.92825 0
M  V30 3540 H 340.566 -2.92213 4.38086 0
M  V30 3541 H 343.057 -1.74925 3.34977 0
M  V30 3542 H 343.37 -3.0112 7.11721 0
M  V30 3543 H 341.715 -2.71445 6.39799 0
M  V30 3544 H 344.906 -2.09174 4.18765 0
M  V30 3545 H 345.079 -2.66741 5.90554 0
M  V30 3546 N 338.485 -1.33259 -0.841409 0
M  V30 3547 C 339.733 -1.24326 -1.59334 0
M  V30 3548 C 340.054 0.191564 -1.94057 0
M  V30 3549 O 339.324 1.11967 -1.60749 0
M  V30 3550 H 337.904 -0.457174 -0.590763 0
M  V30 3551 H 340.566 -1.66947 -1.00571 0
M  V30 3552 H 339.662 -1.8352 -2.52442 0
M  V30 3553 N 339.963 1.05934 -1.16686 0
M  V30 3554 C 341.374 1.60263 -0.957745 0
M  V30 3555 C 341.725 1.89789 0.49745 0
M  V30 3556 O 340.85 1.67401 1.37135 0
M  V30 3557 C 341.445 2.91172 -1.73218 0
M  V30 3558 C 340.004 3.42188 -1.56794 0
M  V30 3559 C 339.151 2.16028 -1.73859 0
M  V30 3560 H 342.102 0.888392 -1.31504 0
M  V30 3561 H 342.123 3.60744 -1.21014 0
M  V30 3562 H 341.635 2.6965 -2.79124 0
M  V30 3563 H 339.736 3.68762 -0.533437 0
M  V30 3564 H 339.849 4.17273 -2.35414 0
M  V30 3565 H 338.213 2.26426 -1.16633 0
M  V30 3566 H 338.996 1.96985 -2.81161 0
M  V30 3567 N 341.441 0.965919 1.2453 0
M  V30 3568 C 342.857 0.67216 1.44756 0
M  V30 3569 C 343.057 -0.766609 1.86347 0
M  V30 3570 O 342.113 -1.5407 2.00047 0
M  V30 3571 C 343.426 1.65473 2.51076 0
M  V30 3572 C 344.974 1.66716 2.64905 0
M  V30 3573 C 345.449 2.63766 3.74421 0
M  V30 3574 N 346.94 2.62198 3.81846 0
M  V30 3575 C 347.675 3.33966 4.66106 0
M  V30 3576 N 347.171 4.15245 5.54566 0
M  V30 3577 N 348.964 3.22799 4.60171 0
M  V30 3578 H 341.115 1.89553 0.958293 0
M  V30 3579 H 343.378 0.815979 0.482579 0
M  V30 3580 H 343.084 2.68296 2.27399 0
M  V30 3581 H 342.958 1.4261 3.49202 0
M  V30 3582 H 345.345 0.646057 2.87941 0
M  V30 3583 H 345.426 1.93642 1.67142 0
M  V30 3584 H 345.07 3.6601 3.52135 0
M  V30 3585 H 345 2.34121 4.71694 0
M  V30 3586 H 347.491 2.032 3.18619 0
M  V30 3587 H 347.804 4.66898 6.15814 0
M  V30 3588 H 346.149 4.1934 5.54237 0
M  V30 3589 H 349.34 2.58764 3.90075 0
M  V30 3590 H 349.513 3.78994 5.25612 0
M  V30 3591 N 342.919 -1.39368 0.735821 0
M  V30 3592 C 344.167 -2.00101 0.283562 0
M  V30 3593 C 344.488 -1.5868 -1.13338 0
M  V30 3594 O 343.758 -0.835423 -1.77193 0
M  V30 3595 H 342.338 -0.740024 0.101851 0
M  V30 3596 H 345 -1.70404 0.945962 0
M  V30 3597 H 344.096 -3.10323 0.332604 0
M  V30 3598 N 344.397 -0.483516 -1.5 0
M  V30 3599 C 345.645 0.067027 -2.01989 0
M  V30 3600 C 345.966 1.3909 -1.36671 0
M  V30 3601 O 345.236 1.88978 -0.516152 0
M  V30 3602 H 343.816 0.0277606 -0.746484 0
M  V30 3603 H 346.478 -0.636773 -1.84204 0
M  V30 3604 H 345.574 0.209484 -3.11396 0
M  V30 3605 N 345.875 1.56104 -0.216619 0
M  V30 3606 C 346.808 2.16026 0.735395 0
M  V30 3607 C 347.786 1.1032 1.1945 0
M  V30 3608 O 348.97 1.38549 1.27814 0
M  V30 3609 C 346.097 2.73656 1.99575 0
M  V30 3610 C 345.143 3.92146 1.67702 0
M  V30 3611 S 345.976 5.29397 0.806145 0
M  V30 3612 C 347.132 5.90463 2.07617 0
M  V30 3613 H 347.365 2.96439 0.226072 0
M  V30 3614 H 344.898 1.544 -0.00136639 0
M  V30 3615 H 346.856 3.075 2.71945 0
M  V30 3616 H 345.517 1.93245 2.47619 0
M  V30 3617 H 344.71 4.30954 2.61332 0
M  V30 3618 H 344.312 3.59423 1.03398 0
M  V30 3619 H 346.604 6.06136 3.02664 0
M  V30 3620 H 347.547 6.86589 1.73207 0
M  V30 3621 H 347.955 5.19252 2.21445 0
M  V30 3622 N 347.353 -0.0568162 1.57498 0
M  V30 3623 C 348.602 -0.752001 1.87157 0
M  V30 3624 C 348.915 -1.77978 0.811375 0
M  V30 3625 O 350.121 -2.52559 0.996293 0
M  V30 3626 C 348.577 -1.38844 3.3204 0
M  V30 3627 C 348.185 -0.398456 4.46225 0
M  V30 3628 C 349.929 -2.06512 3.70882 0
M  V30 3629 C 347.836 -1.04166 5.82154 0
M  V30 3630 H 346.766 -0.28461 0.698222 0
M  V30 3631 H 349.417 -0.00561272 1.83499 0
M  V30 3632 H 347.799 -2.1836 3.30356 0
M  V30 3633 H 348.973 0.367977 4.59328 0
M  V30 3634 H 347.288 0.174592 4.16034 0
M  V30 3635 H 349.885 -2.55437 4.6974 0
M  V30 3636 H 350.228 -2.87117 3.01445 0
M  V30 3637 H 350.761 -1.33808 3.7462 0
M  V30 3638 H 347.5 -0.275614 6.5492 0
M  V30 3639 H 347.02 -1.7786 5.72823 0
M  V30 3640 H 348.699 -1.55715 6.27982 0
M  V30 3641 N 348.832 -1.54138 -0.328536 0
M  V30 3642 C 349.762 -1.86167 -1.40939 0
M  V30 3643 C 350.743 -0.718044 -1.54202 0
M  V30 3644 O 351.928 -0.971328 -1.68163 0
M  V30 3645 C 349.058 -2.08461 -2.77779 0
M  V30 3646 C 348.012 -3.24299 -2.7931 0
M  V30 3647 C 347.338 -3.31955 -4.19178 0
M  V30 3648 C 348.638 -4.62065 -2.43502 0
M  V30 3649 H 350.332 -2.76689 -1.14383 0
M  V30 3650 H 347.878 -1.33132 -0.548806 0
M  V30 3651 H 349.831 -2.29453 -3.53454 0
M  V30 3652 H 348.555 -1.14684 -3.05802 0
M  V30 3653 H 347.214 -3.03187 -2.0609 0
M  V30 3654 H 346.862 -2.35745 -4.44335 0
M  V30 3655 H 346.562 -4.09805 -4.2111 0
M  V30 3656 H 348.086 -3.55175 -4.96672 0
M  V30 3657 H 349.5 -4.8297 -3.08889 0
M  V30 3658 H 347.897 -5.42429 -2.56693 0
M  V30 3659 H 348.967 -4.64652 -1.38659 0
M  V30 3660 N 350.31 0.590341 -1.46126 0
M  V30 3661 C 351.55 1.35995 -1.52593 0
M  V30 3662 C 351.914 1.91243 -0.170368 0
M  V30 3663 O 353.115 2.68576 -0.109775 0
M  V30 3664 C 351.386 2.46465 -2.58823 0
M  V30 3665 S 352.945 3.33953 -2.84641 0
M  V30 3666 H 349.763 0.463425 -0.53922 0
M  V30 3667 H 352.365 0.67944 -1.83314 0
M  V30 3668 H 351.069 2.04256 -3.5596 0
M  V30 3669 H 350.6 3.19297 -2.2981 0
M  V30 3670 H 352.615 4.45094 -2.19331 0
M  V30 3671 N 351.788 1.33704 0.83433 0
M  V30 3672 C 352.72 1.20172 1.9517 0
M  V30 3673 C 353.733 0.131572 1.62267 0
M  V30 3674 O 354.922 0.382406 1.74356 0
M  V30 3675 C 352.022 0.821716 3.28787 0
M  V30 3676 C 351.195 1.98446 3.89792 0
M  V30 3677 C 350.254 1.58469 5.01771 0
M  V30 3678 O 349.28 2.29968 5.20676 0
M  V30 3679 N 350.482 0.492291 5.78409 0
M  V30 3680 H 353.247 2.16429 2.07313 0
M  V30 3681 H 350.808 1.26509 1.0103 0
M  V30 3682 H 352.8 0.536291 4.01131 0
M  V30 3683 H 351.37 -0.0503058 3.1256 0
M  V30 3684 H 350.59 2.43526 3.09982 0
M  V30 3685 H 351.878 2.76236 4.27283 0
M  V30 3686 H 351.276 -0.102349 5.65607 0
M  V30 3687 H 349.833 0.266555 6.51255 0
M  V30 3688 N 353.266 -1.05314 1.17247 0
M  V30 3689 C 354.176 -2.16538 0.90268 0
M  V30 3690 C 355.192 -1.73523 -0.128707 0
M  V30 3691 O 356.368 -2.01337 0.0502701 0
M  V30 3692 C 353.433 -3.44167 0.418356 0
M  V30 3693 C 352.494 -4.01635 1.51618 0
M  V30 3694 C 351.727 -5.23171 1.05487 0
M  V30 3695 O 351.95 -5.70327 -0.0914715 0
M  V30 3696 O 350.884 -5.72848 1.8474 0
M  V30 3697 H 354.71 -2.42145 1.83302 0
M  V30 3698 H 352.295 -1.15037 0.953246 0
M  V30 3699 H 354.177 -4.21112 0.155726 0
M  V30 3700 H 352.852 -3.20063 -0.48385 0
M  V30 3701 H 351.759 -3.26135 1.83268 0
M  V30 3702 H 353.092 -4.30053 2.39405 0
M  V30 3703 N 354.744 -0.972509 -1.24016 0
M  V30 3704 C 355.676 -0.464375 -2.24446 0
M  V30 3705 C 356.689 0.4295 -1.57032 0
M  V30 3706 O 357.878 0.234902 -1.76948 0
M  V30 3707 C 354.978 0.348385 -3.37105 0
M  V30 3708 C 354.151 -0.53673 -4.34094 0
M  V30 3709 C 353.21 0.220838 -5.25736 0
M  V30 3710 O 352.236 -0.386867 -5.67884 0
M  V30 3711 N 353.438 1.50907 -5.60542 0
M  V30 3712 H 356.203 -1.32788 -2.68677 0
M  V30 3713 H 353.764 -0.844877 -1.38107 0
M  V30 3714 H 355.756 0.863341 -3.95384 0
M  V30 3715 H 354.326 1.11285 -2.92121 0
M  V30 3716 H 353.546 -1.23261 -3.74433 0
M  V30 3717 H 354.834 -1.14022 -4.95859 0
M  V30 3718 H 354.232 2.02444 -5.28236 0
M  V30 3719 H 352.789 1.96962 -6.21329 0
M  V30 3720 N 356.222 1.38976 -0.743202 0
M  V30 3721 C 357.469 2.00343 -0.294752 0
M  V30 3722 C 357.797 1.58983 1.12047 0
M  V30 3723 O 357.052 0.813809 1.77977 0
M  V30 3724 C 357.351 3.55647 -0.353517 0
M  V30 3725 C 357.017 4.16685 -1.72292 0
M  V30 3726 C 355.679 4.3307 -2.09771 0
M  V30 3727 C 358.031 4.50464 -2.62168 0
M  V30 3728 C 355.359 4.80526 -3.36618 0
M  V30 3729 C 357.711 4.99332 -3.88395 0
M  V30 3730 C 356.375 5.13924 -4.25956 0
M  V30 3731 H 355.645 0.733108 -0.107857 0
M  V30 3732 H 358.292 1.6618 -0.951651 0
M  V30 3733 H 356.597 3.89884 0.386954 0
M  V30 3734 H 358.294 4.00998 0.0117269 0
M  V30 3735 H 354.884 4.04339 -1.42155 0
M  V30 3736 H 359.068 4.37416 -2.3448 0
M  V30 3737 H 354.324 4.90008 -3.65653 0
M  V30 3738 H 358.498 5.2444 -4.58187 0
M  V30 3739 H 356.125 5.50457 -5.2431 0
M  V30 3740 N 357.7 0.491464 1.49741 0
M  V30 3741 C 358.663 -0.280906 2.27472 0
M  V30 3742 C 359.663 -0.902454 1.33088 0
M  V30 3743 O 360.853 -0.768465 1.56334 0
M  V30 3744 C 357.985 -1.40209 3.10732 0
M  V30 3745 H 359.178 0.401056 2.97206 0
M  V30 3746 H 356.731 0.246131 1.5435 0
M  V30 3747 H 357.466 -2.11849 2.45541 0
M  V30 3748 H 357.251 -0.961969 3.80117 0
M  V30 3749 H 358.741 -1.9464 3.69466 0
M  V30 3750 N 359.178 -1.55987 0.224894 0
M  V30 3751 C 360.125 -2.20436 -0.68385 0
M  V30 3752 C 361.095 -1.16102 -1.18783 0
M  V30 3753 O 362.28 -1.4447 -1.24632 0
M  V30 3754 C 359.42 -2.89076 -1.88491 0
M  V30 3755 C 358.533 -4.08012 -1.41951 0
M  V30 3756 C 357.668 -4.64426 -2.5784 0
M  V30 3757 C 356.707 -5.75656 -2.08053 0
M  V30 3758 N 355.844 -6.26347 -3.17227 0
M  V30 3759 H 360.684 -2.97727 -0.12754 0
M  V30 3760 H 358.221 -1.47011 -0.0511978 0
M  V30 3761 H 360.179 -3.27059 -2.59014 0
M  V30 3762 H 358.809 -2.14298 -2.41405 0
M  V30 3763 H 357.861 -3.75492 -0.609095 0
M  V30 3764 H 359.173 -4.88375 -1.01447 0
M  V30 3765 H 358.327 -5.04869 -3.3644 0
M  V30 3766 H 357.066 -3.83233 -3.01635 0
M  V30 3767 H 356.071 -5.34712 -1.27916 0
M  V30 3768 H 357.296 -6.58686 -1.65255 0
M  V30 3769 H 355.242 -5.48067 -3.60497 0
M  V30 3770 H 355.159 -7.01843 -2.80986 0
M  V30 3771 H 356.427 -6.71447 -3.95953 0
M  V30 3772 N 360.656 0.0484629 -1.57525 0
M  V30 3773 C 361.588 1.08222 -2.02041 0
M  V30 3774 C 362.601 1.33621 -0.930012 0
M  V30 3775 O 363.79 1.3145 -1.20761 0
M  V30 3776 C 360.89 2.42818 -2.36416 0
M  V30 3777 C 360.063 2.37049 -3.67596 0
M  V30 3778 C 359.122 3.53937 -3.89378 0
M  V30 3779 O 358.148 3.34308 -4.60681 0
M  V30 3780 N 359.35 4.75126 -3.3352 0
M  V30 3781 H 362.115 0.702946 -2.9134 0
M  V30 3782 H 359.676 0.236745 -1.6016 0
M  V30 3783 H 361.668 3.197 -2.48141 0
M  V30 3784 H 360.238 2.72661 -1.52888 0
M  V30 3785 H 359.458 1.45395 -3.66407 0
M  V30 3786 H 360.746 2.30318 -4.53686 0
M  V30 3787 H 360.144 4.93976 -2.75688 0
M  V30 3788 H 358.701 5.49439 -3.50656 0
M  V30 3789 N 362.134 1.5431 0.320358 0
M  V30 3790 C 363.383 1.7188 1.05546 0
M  V30 3791 C 363.696 0.501143 1.89071 0
M  V30 3792 O 364.902 0.558258 2.65699 0
M  V30 3793 C 363.358 3.04025 1.92605 0
M  V30 3794 C 362.966 4.33207 1.14176 0
M  V30 3795 C 364.71 3.30959 2.65832 0
M  V30 3796 C 362.617 5.56412 2.00399 0
M  V30 3797 H 361.547 0.640547 0.397763 0
M  V30 3798 H 364.198 1.80802 0.313522 0
M  V30 3799 H 362.58 2.89019 2.7071 0
M  V30 3800 H 363.754 4.58989 0.40819 0
M  V30 3801 H 362.069 4.13062 0.526165 0
M  V30 3802 H 364.666 4.20203 3.30656 0
M  V30 3803 H 365.009 2.48979 3.33639 0
M  V30 3804 H 365.542 3.46847 1.94787 0
M  V30 3805 H 362.281 6.41004 1.37094 0
M  V30 3806 H 361.801 5.34844 2.7148 0
M  V30 3807 H 363.48 5.92938 2.58908 0
M  V30 3808 N 363.613 -0.582584 1.46437 0
M  V30 3809 C 364.89 -1.34276 1.4223 0
M  V30 3810 C 365.27 -2.10835 0.10583 0
M  V30 3811 O 364.618 -2.09485 -0.912596 0
M  V30 3812 C 364.828 -2.26865 2.65204 0
M  V30 3813 C 366.176 -2.88691 3.11356 0
M  V30 3814 O 367.2 -2.37178 2.65753 0
M  V30 3815 O 366.059 -3.82255 3.90568 0
M  V30 3816 H 363.153 -0.603326 0.565621 0
M  V30 3817 H 365.699 -0.603591 1.58603 0
M  V30 3818 H 364.471 -1.69724 3.52576 0
M  V30 3819 H 364.094 -3.08122 2.5129 0
M  V30 3820 N 365.091 -1.34144 -0.827227 0
M  V30 3821 C 366.038 -1.25364 -1.93785 0
M  V30 3822 C 367.008 -0.129774 -1.65592 0
M  V30 3823 O 368.193 -0.310024 -1.88264 0
M  V30 3824 C 365.333 -1.01064 -3.2997 0
M  V30 3825 C 364.446 -2.22185 -3.70484 0
M  V30 3826 C 363.581 -1.91203 -4.95595 0
M  V30 3827 C 362.62 -3.08491 -5.28677 0
M  V30 3828 N 361.757 -2.77421 -6.44967 0
M  V30 3829 H 366.597 -2.20347 -2.00627 0
M  V30 3830 H 364.134 -1.09558 -0.981608 0
M  V30 3831 H 366.092 -0.850139 -4.08446 0
M  V30 3832 H 364.722 -0.0975026 -3.22653 0
M  V30 3833 H 363.774 -2.4917 -2.87434 0
M  V30 3834 H 365.086 -3.0983 -3.90905 0
M  V30 3835 H 364.24 -1.71864 -5.81848 0
M  V30 3836 H 362.979 -1.00812 -4.77167 0
M  V30 3837 H 361.984 -3.28431 -4.40923 0
M  V30 3838 H 363.209 -3.99655 -5.49047 0
M  V30 3839 H 361.155 -1.89601 -6.28003 0
M  V30 3840 H 361.072 -3.58598 -6.6554 0
M  V30 3841 H 362.34 -2.61577 -7.34301 0
M  V30 3842 N 366.569 1.04691 -1.17803 0
M  V30 3843 C 367.532 2.10724 -0.901545 0
M  V30 3844 C 368.532 1.6042 0.110437 0
M  V30 3845 O 369.722 1.7377 -0.122303 0
M  V30 3846 C 366.854 3.39084 -0.351409 0
M  V30 3847 H 368.047 2.36686 -1.84174 0
M  V30 3848 H 365.6 1.21015 -0.98919 0
M  V30 3849 H 366.335 3.18782 0.59569 0
M  V30 3850 H 366.12 3.76909 -1.08083 0
M  V30 3851 H 367.61 4.17227 -0.176451 0
M  V30 3852 N 368.047 0.979072 1.23499 0
M  V30 3853 C 369.296 0.642751 1.91185 0
M  V30 3854 C 369.609 -0.827253 1.77245 0
M  V30 3855 O 370.815 -1.27458 2.39722 0
M  V30 3856 C 369.271 1.09901 3.42709 0
M  V30 3857 C 368.879 2.59327 3.65313 0
M  V30 3858 C 370.623 0.836371 4.16179 0
M  V30 3859 C 368.53 2.98627 5.10467 0
M  V30 3860 H 367.46 0.236698 0.715884 0
M  V30 3861 H 370.111 1.1868 1.39955 0
M  V30 3862 H 368.493 0.48319 3.93041 0
M  V30 3863 H 369.667 3.26136 3.25533 0
M  V30 3864 H 367.982 2.83323 3.05151 0
M  V30 3865 H 370.579 1.10586 5.23139 0
M  V30 3866 H 370.922 -0.227509 4.15678 0
M  V30 3867 H 371.455 1.41371 3.71832 0
M  V30 3868 H 368.194 4.04133 5.16098 0
M  V30 3869 H 367.714 2.3651 5.51201 0
M  V30 3870 H 369.393 2.89159 5.78788 0
M  V30 3871 N 369.525 -1.3858 0.750561 0
M  V30 3872 C 370.772 -2.00184 0.305373 0
M  V30 3873 C 371.1 -1.59575 -1.11203 0
M  V30 3874 O 370.355 -0.823236 -1.77542 0
M  V30 3875 C 370.654 -3.55455 0.372373 0
M  V30 3876 C 370.32 -4.15765 1.745 0
M  V30 3877 C 368.982 -4.31951 2.12065 0
M  V30 3878 C 371.334 -4.49067 2.64553 0
M  V30 3879 C 368.662 -4.78734 3.39162 0
M  V30 3880 C 371.014 -4.97265 3.91038 0
M  V30 3881 C 369.678 -5.11658 4.28676 0
M  V30 3882 H 368.948 -0.732526 0.111744 0
M  V30 3883 H 371.595 -1.65673 0.960451 0
M  V30 3884 H 369.9 -3.90084 -0.366272 0
M  V30 3885 H 371.597 -4.00999 0.00953918 0
M  V30 3886 H 368.187 -4.03579 1.44297 0
M  V30 3887 H 372.371 -4.36166 2.36796 0
M  V30 3888 H 367.627 -4.88062 3.68246 0
M  V30 3889 H 371.801 -5.22003 4.60962 0
M  V30 3890 H 369.428 -5.47668 5.27222 0
M  V30 3891 N 371.003 -0.499398 -1.49478 0
M  V30 3892 C 372.414 -0.051215 -1.8663 0
M  V30 3893 C 372.765 1.36238 -1.41186 0
M  V30 3894 O 371.89 2.01502 -0.789051 0
M  V30 3895 C 372.485 -0.0861651 -3.3869 0
M  V30 3896 C 371.044 0.30667 -3.75149 0
M  V30 3897 C 370.191 -0.459397 -2.73468 0
M  V30 3898 H 373.142 -0.712264 -1.41818 0
M  V30 3899 H 373.163 0.709507 -3.73826 0
M  V30 3900 H 372.675 -1.11512 -3.71735 0
M  V30 3901 H 370.776 1.33892 -3.47712 0
M  V30 3902 H 370.889 -0.0116669 -4.79099 0
M  V30 3903 H 369.253 0.0905645 -2.54539 0
M  V30 3904 H 370.036 -1.4884 -3.09357 0
M  V30 3905 N 372.481 1.55866 -0.233164 0
M  V30 3906 C 373.729 1.9821 0.394593 0
M  V30 3907 C 374.05 1.12234 1.59463 0
M  V30 3908 O 373.32 0.201981 1.94856 0
M  V30 3909 H 371.9 0.732034 0.148778 0
M  V30 3910 H 374.562 1.92107 -0.32876 0
M  V30 3911 H 373.658 3.03845 0.713063 0
M  V30 3912 N 373.959 -0.0401083 1.57549 0
M  V30 3913 C 375.208 -0.732108 1.87944 0
M  V30 3914 C 375.521 -1.77107 0.830206 0
M  V30 3915 O 376.727 -2.51488 1.02302 0
M  V30 3916 C 375.183 -1.35315 3.33494 0
M  V30 3917 C 374.791 -0.351105 4.46622 0
M  V30 3918 C 376.535 -2.02566 3.73051 0
M  V30 3919 C 374.442 -0.979859 5.83226 0
M  V30 3920 H 373.372 -0.277188 0.701201 0
M  V30 3921 H 376.023 0.0138501 1.83495 0
M  V30 3922 H 374.405 -2.14844 3.32653 0
M  V30 3923 H 375.579 0.416674 4.58912 0
M  V30 3924 H 373.894 0.218708 4.15825 0
M  V30 3925 H 376.491 -2.50441 4.72423 0
M  V30 3926 H 376.834 -2.83904 3.04474 0
M  V30 3927 H 377.367 -1.29827 3.76018 0
M  V30 3928 H 374.106 -0.206135 6.55176 0
M  V30 3929 H 373.626 -1.71774 5.74677 0
M  V30 3930 H 375.305 -1.49046 6.29599 0
M  V30 3931 N 375.437 -1.54477 -0.31217 0
M  V30 3932 C 376.369 -1.81011 -1.40598 0
M  V30 3933 C 377.382 -0.692546 -1.47335 0
M  V30 3934 O 378.571 -0.969847 -1.49854 0
M  V30 3935 C 375.671 -1.92307 -2.79054 0
M  V30 3936 C 374.844 -3.22594 -2.95384 0
M  V30 3937 C 373.903 -3.24448 -4.1427 0
M  V30 3938 O 372.929 -3.98035 -4.06887 0
M  V30 3939 N 374.131 -2.49042 -5.24365 0
M  V30 3940 H 376.896 -2.75408 -1.18196 0
M  V30 3941 H 374.457 -1.53914 -0.502202 0
M  V30 3942 H 376.449 -1.90962 -3.56813 0
M  V30 3943 H 375.019 -1.04955 -2.94454 0
M  V30 3944 H 374.239 -3.36806 -2.04831 0
M  V30 3945 H 375.527 -4.08593 -3.03198 0
M  V30 3946 H 374.925 -1.88867 -5.33241 0
M  V30 3947 H 373.482 -2.53463 -6.005 0
M  V30 3948 N 376.915 0.57481 -1.46744 0
M  V30 3949 C 378.163 1.33009 -1.52161 0
M  V30 3950 C 378.484 1.94185 -0.178092 0
M  V30 3951 O 377.754 1.7899 0.796196 0
M  V30 3952 H 376.334 0.493873 -0.560445 0
M  V30 3953 H 378.996 0.672589 -1.82927 0
M  V30 3954 H 378.092 2.13273 -2.27862 0
M  V30 3955 N 378.394 1.34581 0.820102 0
M  V30 3956 C 379.642 1.26845 1.57336 0
M  V30 3957 C 379.963 -0.160667 1.94337 0
M  V30 3958 O 379.233 -1.09396 1.6251 0
M  V30 3959 H 377.813 0.466514 0.583415 0
M  V30 3960 H 380.475 1.68526 0.979027 0
M  V30 3961 H 379.571 1.87513 2.4949 0
M  V30 3962 N 379.872 -1.04064 1.18357 0
M  V30 3963 C 381.283 -1.58719 0.98312 0
M  V30 3964 C 381.634 -1.90556 -0.467193 0
M  V30 3965 O 380.759 -1.69561 -1.34454 0
M  V30 3966 C 381.354 -2.88379 1.77828 0
M  V30 3967 C 379.913 -3.3965 1.62218 0
M  V30 3968 C 379.06 -2.13235 1.77274 0
M  V30 3969 H 382.011 -0.867359 1.32901 0
M  V30 3970 H 382.032 -3.58773 1.26737 0
M  V30 3971 H 381.544 -2.65176 2.83379 0
M  V30 3972 H 379.645 -3.67866 0.592036 0
M  V30 3973 H 379.758 -4.13475 2.42023 0
M  V30 3974 H 378.122 -2.24542 1.20221 0
M  V30 3975 H 378.905 -1.92487 2.8426 0
M  V30 3976 N 381.35 -0.985608 -1.22978 0
M  V30 3977 C 382.28 -0.549649 -2.26939 0
M  V30 3978 C 383.261 0.419803 -1.64838 0
M  V30 3979 O 384.446 0.31203 -1.91677 0
M  V30 3980 C 381.576 0.143652 -3.47003 0
M  V30 3981 C 380.53 -0.743606 -4.21491 0
M  V30 3982 C 379.856 0.0822027 -5.34637 0
M  V30 3983 C 381.156 -2.03694 -4.80943 0
M  V30 3984 H 382.85 -1.41862 -2.63658 0
M  V30 3985 H 380.396 -0.683571 -1.26741 0
M  V30 3986 H 382.349 0.459985 -4.18882 0
M  V30 3987 H 381.073 1.04711 -3.09359 0
M  V30 3988 H 379.732 -1.04347 -3.51436 0
M  V30 3989 H 379.38 0.986359 -4.93234 0
M  V30 3990 H 379.08 -0.508377 -5.85397 0
M  V30 3991 H 380.604 0.392797 -6.09335 0
M  V30 3992 H 382.018 -1.78504 -5.44802 0
M  V30 3993 H 380.415 -2.57573 -5.42011 0
M  V30 3994 H 381.485 -2.72042 -4.01399 0
M  V30 3995 N 382.828 1.3818 -0.7579 0
M  V30 3996 C 383.761 2.28055 -0.0814093 0
M  V30 3997 C 384.739 1.45603 0.723779 0
M  V30 3998 O 385.923 1.74961 0.701491 0
M  V30 3999 C 383.05 3.2676 0.891394 0
M  V30 4000 C 382.096 4.26153 0.171909 0
M  V30 4001 S 382.929 5.23434 -1.13035 0
M  V30 4002 C 384.085 6.25694 -0.160727 0
M  V30 4003 H 384.318 2.85082 -0.84353 0
M  V30 4004 H 381.851 1.44246 -0.550671 0
M  V30 4005 H 383.809 3.8414 1.44731 0
M  V30 4006 H 382.47 2.68706 1.62652 0
M  V30 4007 H 381.663 4.95738 0.908843 0
M  V30 4008 H 381.265 3.72691 -0.312606 0
M  V30 4009 H 383.557 6.74161 0.671773 0
M  V30 4010 H 384.5 7.03285 -0.824353 0
M  V30 4011 H 384.908 5.64064 0.221892 0
M  V30 4012 N 384.306 0.507319 1.49211 0
M  V30 4013 C 385.256 -0.287112 2.26185 0
M  V30 4014 C 386.24 -0.929983 1.31302 0
M  V30 4015 O 387.432 -0.836538 1.55984 0
M  V30 4016 C 384.561 -1.34718 3.15763 0
M  V30 4017 C 383.647 -0.710235 4.18111 0
M  V30 4018 N 384.038 0.190836 5.0544 0
M  V30 4019 C 382.336 -0.97009 4.35322 0
M  V30 4020 C 383.037 0.55606 5.79036 0
M  V30 4021 N 382.013 -0.0775232 5.43545 0
M  V30 4022 H 385.815 0.406445 2.91076 0
M  V30 4023 H 383.329 0.323814 1.59139 0
M  V30 4024 H 385.326 -1.92982 3.69545 0
M  V30 4025 H 383.986 -2.04235 2.52424 0
M  V30 4026 H 384.997 0.562047 5.14841 0
M  V30 4027 H 381.674 -1.65753 3.83187 0
M  V30 4028 H 383.064 1.2936 6.5933 0
M  V30 4029 N 385.784 -1.5574 0.241426 0
M  V30 4030 C 387.03 -1.99104 -0.385406 0
M  V30 4031 C 387.363 -1.1293 -1.57988 0
M  V30 4032 O 386.638 -0.191449 -1.93555 0
M  V30 4033 C 386.921 -3.51087 -0.800616 0
M  V30 4034 C 386.774 -4.48028 0.398874 0
M  V30 4035 C 388.093 -4.08015 -1.64959 0
M  V30 4036 H 385.212 -0.723848 -0.138614 0
M  V30 4037 H 387.854 -1.86903 0.341642 0
M  V30 4038 H 386.004 -3.61615 -1.4201 0
M  V30 4039 H 387.676 -4.49487 1.03726 0
M  V30 4040 H 385.919 -4.21077 1.04293 0
M  V30 4041 H 386.59 -5.51962 0.0651056 0
M  V30 4042 H 389.066 -4.00555 -1.12672 0
M  V30 4043 H 387.942 -5.14635 -1.90898 0
M  V30 4044 H 388.203 -3.56131 -2.61961 0
M  V30 4045 N 387.262 0.0317525 -1.57568 0
M  V30 4046 C 388.511 0.722131 -1.8833 0
M  V30 4047 C 388.824 1.76664 -0.839587 0
M  V30 4048 O 390.03 2.50942 -1.03635 0
M  V30 4049 C 388.486 1.33544 -3.34207 0
M  V30 4050 C 388.094 0.327415 -4.46802 0
M  V30 4051 C 389.838 2.00585 -3.7412 0
M  V30 4052 C 387.745 0.948915 -5.83738 0
M  V30 4053 H 386.675 0.273466 -0.702661 0
M  V30 4054 H 389.326 -0.0235811 -1.83485 0
M  V30 4055 H 387.708 2.13077 -3.33788 0
M  V30 4056 H 388.882 -0.441006 -4.58685 0
M  V30 4057 H 387.197 -0.240758 -4.15703 0
M  V30 4058 H 389.794 2.47932 -4.73744 0
M  V30 4059 H 390.137 2.82285 -3.05975 0
M  V30 4060 H 390.67 1.27831 -3.76702 0
M  V30 4061 H 387.409 0.171387 -6.55276 0
M  V30 4062 H 386.929 1.68724 -5.7558 0
M  V30 4063 H 388.608 1.45705 -6.3038 0
M  V30 4064 N 388.74 1.54641 0.303973 0
M  V30 4065 C 389.703 1.84646 1.35789 0
M  V30 4066 C 390.703 0.7192 1.4382 0
M  V30 4067 O 391.893 0.987491 1.43507 0
M  V30 4068 C 389.025 2.02407 2.74307 0
M  V30 4069 H 390.218 2.78829 1.10429 0
M  V30 4070 H 387.771 1.46658 0.540487 0
M  V30 4071 H 388.506 1.10502 3.04893 0
M  V30 4072 H 388.291 2.84453 2.69868 0
M  V30 4073 H 389.781 2.27002 3.50514 0
M  V30 4074 N 390.218 -0.567019 1.47046 0
M  V30 4075 C 391.181 -1.65696 1.58359 0
M  V30 4076 C 392.181 -1.54097 0.459441 0
M  V30 4077 O 393.371 -1.58432 0.724225 0
M  V30 4078 C 390.503 -3.05197 1.51879 0
M  V30 4079 H 391.696 -1.57019 2.5551 0
M  V30 4080 H 389.249 -0.786148 1.3509 0
M  V30 4081 H 389.984 -3.19417 0.560673 0
M  V30 4082 H 389.769 -3.15025 2.33455 0
M  V30 4083 H 391.259 -3.84511 1.62913 0
M  V30 4084 N 391.696 -1.35014 -0.812953 0
M  V30 4085 C 392.643 -1.27412 -1.92444 0
M  V30 4086 C 393.613 -0.14733 -1.65445 0
M  V30 4087 O 394.798 -0.329974 -1.87925 0
M  V30 4088 C 391.938 -1.04558 -3.28879 0
M  V30 4089 C 391.051 -2.26101 -3.68106 0
M  V30 4090 C 390.186 -1.96449 -4.9354 0
M  V30 4091 C 389.225 -3.14081 -5.25376 0
M  V30 4092 N 388.362 -2.84246 -6.41988 0
M  V30 4093 H 393.202 -2.22463 -1.98278 0
M  V30 4094 H 390.739 -1.10593 -0.969933 0
M  V30 4095 H 392.697 -0.893413 -4.07522 0
M  V30 4096 H 391.327 -0.131719 -3.22531 0
M  V30 4097 H 390.379 -2.52204 -2.84775 0
M  V30 4098 H 391.691 -3.13959 -3.87597 0
M  V30 4099 H 390.845 -1.78026 -5.79993 0
M  V30 4100 H 389.584 -1.05867 -4.76071 0
M  V30 4101 H 388.589 -3.33089 -4.37415 0
M  V30 4102 H 389.814 -4.05455 -5.44778 0
M  V30 4103 H 387.76 -1.96252 -6.25956 0
M  V30 4104 H 387.677 -3.65637 -6.61699 0
M  V30 4105 H 388.945 -2.6935 -7.31485 0
M  V30 4106 N 393.175 1.03435 -1.18907 0
M  V30 4107 C 394.138 2.09756 -0.923844 0
M  V30 4108 C 395.138 1.60528 0.093416 0
M  V30 4109 O 396.328 1.73631 -0.140727 0
M  V30 4110 C 393.46 3.38692 -0.387354 0
M  V30 4111 H 394.653 2.34719 -1.86674 0
M  V30 4112 H 392.206 1.19959 -1.00197 0
M  V30 4113 H 392.941 3.19396 0.561845 0
M  V30 4114 H 392.726 3.75742 -1.12074 0
M  V30 4115 H 394.216 4.17016 -0.220694 0
M  V30 4116 N 394.653 0.992116 1.22453 0
M  V30 4117 C 395.899 0.668523 1.91464 0
M  V30 4118 C 396.232 -0.797313 1.77078 0
M  V30 4119 O 395.507 -1.5765 1.13916 0
M  V30 4120 C 395.79 1.07424 3.43703 0
M  V30 4121 C 395.643 2.59857 3.67143 0
M  V30 4122 C 396.962 0.626891 4.35612 0
M  V30 4123 H 394.081 0.244341 0.695318 0
M  V30 4124 H 396.723 1.2355 1.44345 0
M  V30 4125 H 394.873 0.591816 3.83966 0
M  V30 4126 H 396.545 3.15764 3.3629 0
M  V30 4127 H 394.788 3.01961 3.11451 0
M  V30 4128 H 395.459 2.83296 4.73759 0
M  V30 4129 H 397.935 1.04125 4.02861 0
M  V30 4130 H 396.811 0.939076 5.40807 0
M  V30 4131 H 397.072 -0.472457 4.39568 0
M  V30 4132 N 396.131 -1.37776 0.765217 0
M  V30 4133 C 397.094 -2.28686 0.153416 0
M  V30 4134 C 398.094 -1.47727 -0.635081 0
M  V30 4135 O 399.284 -1.68027 -0.459632 0
M  V30 4136 C 396.416 -3.31608 -0.790495 0
M  V30 4137 H 397.609 -2.84297 0.954723 0
M  V30 4138 H 395.162 -1.46932 0.53299 0
M  V30 4139 H 395.897 -2.81109 -1.61705 0
M  V30 4140 H 395.682 -3.9144 -0.227348 0
M  V30 4141 H 397.172 -3.99559 -1.21419 0
M  V30 4142 N 397.609 -0.515225 -1.4894 0
M  V30 4143 C 398.539 0.244628 -2.32215 0
M  V30 4144 C 399.52 0.949136 -1.41157 0
M  V30 4145 O 400.705 0.937783 -1.70057 0
M  V30 4146 C 397.835 1.30096 -3.22013 0
M  V30 4147 C 396.789 0.715486 -4.21977 0
M  V30 4148 C 396.115 1.87339 -5.00808 0
M  V30 4149 C 397.415 -0.302982 -5.2142 0
M  V30 4150 H 399.109 -0.450501 -2.95991 0
M  V30 4151 H 396.655 -0.218098 -1.42339 0
M  V30 4152 H 398.608 1.84037 -3.79089 0
M  V30 4153 H 397.332 2.02547 -2.56207 0
M  V30 4154 H 395.991 0.197715 -3.66066 0
M  V30 4155 H 395.639 2.58592 -4.31438 0
M  V30 4156 H 395.339 1.48764 -5.68457 0
M  V30 4157 H 396.863 2.41686 -5.60732 0
M  V30 4158 H 398.277 0.148802 -5.73107 0
M  V30 4159 H 396.674 -0.60532 -5.97039 0
M  V30 4160 H 397.744 -1.21395 -4.69459 0
M  V30 4161 N 399.087 1.5561 -0.249682 0
M  V30 4162 C 400.335 1.98618 0.373548 0
M  V30 4163 C 400.656 1.13919 1.58264 0
M  V30 4164 O 399.926 0.222637 1.94631 0
M  V30 4165 H 398.506 0.733571 0.141006 0
M  V30 4166 H 401.168 1.91748 -0.349117 0
M  V30 4167 H 400.264 3.04584 0.680796 0
M  V30 4168 N 400.565 -0.0233959 1.57583 0
M  V30 4169 C 401.475 -1.03907 2.10334 0
M  V30 4170 C 402.491 -1.39257 1.04323 0
M  V30 4171 O 403.667 -1.48462 1.36091 0
M  V30 4172 C 400.732 -2.31938 2.57693 0
M  V30 4173 C 399.793 -2.03117 3.78209 0
M  V30 4174 C 399.026 -3.25043 4.233 0
M  V30 4175 O 399.249 -4.35916 3.67876 0
M  V30 4176 O 398.183 -3.10411 5.15683 0
M  V30 4177 H 402.009 -0.620748 2.97288 0
M  V30 4178 H 399.594 -0.240743 1.47448 0
M  V30 4179 H 401.476 -3.07196 2.88458 0
M  V30 4180 H 400.151 -2.73055 1.73847 0
M  V30 4181 H 399.058 -1.25408 3.52454 0
M  V30 4182 H 400.391 -1.66852 4.63056 0
M  V30 4183 N 402.043 -1.548 -0.295768 0
M  V30 4184 C 403.006 -1.85363 -1.34808 0
M  V30 4185 C 404.006 -0.726817 -1.43436 0
M  V30 4186 O 405.196 -0.995088 -1.42981 0
M  V30 4187 C 402.328 -2.03859 -2.73229 0
M  V30 4188 H 403.521 -2.7941 -1.08949 0
M  V30 4189 H 401.074 -1.46942 -0.532702 0
M  V30 4190 H 401.809 -1.12117 -3.04303 0
M  V30 4191 H 401.594 -2.8588 -2.68356 0
M  V30 4192 H 403.084 -2.28857 -3.49305 0
M  V30 4193 N 403.521 0.559213 -1.47345 0
M  V30 4194 C 404.451 1.67622 -1.62558 0
M  V30 4195 C 405.432 1.63331 -0.475087 0
M  V30 4196 O 406.617 1.80983 -0.704182 0
M  V30 4197 C 403.747 3.0626 -1.63774 0
M  V30 4198 C 402.701 3.25397 -2.7803 0
M  V30 4199 C 402.027 4.64801 -2.64318 0
M  V30 4200 C 403.327 3.10965 -4.19641 0
M  V30 4201 H 405.021 1.55146 -2.56067 0
M  V30 4202 H 402.567 0.744961 -1.23233 0
M  V30 4203 H 404.52 3.84247 -1.73008 0
M  V30 4204 H 403.244 3.1969 -0.66825 0
M  V30 4205 H 401.903 2.49817 -2.68304 0
M  V30 4206 H 401.551 4.75028 -1.65401 0
M  V30 4207 H 401.251 4.78555 -3.40968 0
M  V30 4208 H 402.775 5.44926 -2.75478 0
M  V30 4209 H 404.189 3.78772 -4.30354 0
M  V30 4210 H 402.586 3.36229 -4.97062 0
M  V30 4211 H 403.656 2.07736 -4.38148 0
M  V30 4212 N 404.999 1.35443 0.805782 0
M  V30 4213 C 405.931 1.24285 1.92577 0
M  V30 4214 C 406.944 0.165962 1.61952 0
M  V30 4215 O 408.133 0.419303 1.73505 0
M  V30 4216 C 405.233 0.891272 3.2697 0
M  V30 4217 C 404.406 2.06669 3.85495 0
M  V30 4218 C 403.465 1.69077 4.98297 0
M  V30 4219 O 402.491 2.4096 5.15681 0
M  V30 4220 N 403.693 0.614869 5.77234 0
M  V30 4221 H 406.458 2.20777 2.02676 0
M  V30 4222 H 404.019 1.28623 0.983243 0
M  V30 4223 H 406.011 0.621256 3.99903 0
M  V30 4224 H 404.581 0.016004 3.12596 0
M  V30 4225 H 403.801 2.50046 3.04747 0
M  V30 4226 H 405.089 2.85237 4.21328 0
M  V30 4227 H 404.487 0.017648 5.65697 0
M  V30 4228 H 403.044 0.404636 6.50543 0
M  V30 4229 N 406.477 -1.02803 1.19454 0
M  V30 4230 C 407.754 -1.73299 0.907013 0
M  V30 4231 C 408.134 -2.02772 -0.587086 0
M  V30 4232 O 407.482 -1.68304 -1.54551 0
M  V30 4233 C 407.692 -3.00912 1.76785 0
M  V30 4234 C 409.04 -3.74403 2.00268 0
M  V30 4235 O 410.064 -3.10841 1.73943 0
M  V30 4236 O 408.923 -4.88675 2.4466 0
M  V30 4237 H 406.017 -0.754727 0.338106 0
M  V30 4238 H 408.563 -1.08754 1.30271 0
M  V30 4239 H 407.335 -2.75366 2.7801 0
M  V30 4240 H 406.958 -3.73197 1.37149 0
M  V30 4241 N 407.956 -0.998596 -1.21925 0
M  V30 4242 C 409.233 -0.593401 -1.86382 0
M  V30 4243 C 409.613 0.92916 -1.89552 0
M  V30 4244 O 408.961 1.81347 -1.39017 0
M  V30 4245 C 409.171 -1.22039 -3.26967 0
M  V30 4246 C 410.519 -1.32449 -4.03413 0
M  V30 4247 O 411.543 -1.17522 -3.36254 0
M  V30 4248 O 410.402 -1.56395 -5.23644 0
M  V30 4249 H 407.496 -0.202385 -0.801854 0
M  V30 4250 H 410.042 -1.09484 -1.29659 0
M  V30 4251 H 408.814 -2.26158 -3.19325 0
M  V30 4252 H 408.437 -0.704906 -3.91301 0
M  V30 4253 N 409.434 1.37368 -0.772513 0
M  V30 4254 C 410.681 1.99673 -0.337182 0
M  V30 4255 C 411.009 1.61324 1.0865 0
M  V30 4256 O 410.264 0.851377 1.7621 0
M  V30 4257 C 410.563 3.54817 -0.428876 0
M  V30 4258 C 410.229 4.12936 -1.81092 0
M  V30 4259 C 408.891 4.28523 -2.1891 0
M  V30 4260 C 411.243 4.44801 -2.71664 0
M  V30 4261 C 408.571 4.73277 -3.46735 0
M  V30 4262 C 410.923 4.90981 -3.98899 0
M  V30 4263 C 409.587 5.04773 -4.36761 0
M  V30 4264 H 408.857 0.730656 -0.123384 0
M  V30 4265 H 411.504 1.64124 -0.986686 0
M  V30 4266 H 409.809 3.90618 0.304167 0
M  V30 4267 H 411.506 4.00933 -0.0733334 0
M  V30 4268 H 408.096 4.01233 -1.50699 0
M  V30 4269 H 412.28 4.32344 -2.43706 0
M  V30 4270 H 407.536 4.82142 -3.75964 0
M  V30 4271 H 411.71 5.14603 -4.69208 0
M  V30 4272 H 409.337 5.39211 -5.35868 0
M  V30 4273 N 410.912 0.523116 1.48665 0
M  V30 4274 C 411.859 -0.243398 2.29513 0
M  V30 4275 C 412.829 -0.940139 1.36933 0
M  V30 4276 O 414.014 -0.942503 1.65896 0
M  V30 4277 C 411.154 -1.28855 3.20141 0
M  V30 4278 C 410.267 -0.60135 4.27794 0
M  V30 4279 C 409.402 -1.62884 5.05611 0
M  V30 4280 C 408.441 -0.924726 6.05075 0
M  V30 4281 N 407.578 -1.89744 6.75975 0
M  V30 4282 H 412.418 0.452234 2.94549 0
M  V30 4283 H 409.955 0.234858 1.45213 0
M  V30 4284 H 411.913 -1.90674 3.71079 0
M  V30 4285 H 410.543 -1.95266 2.57043 0
M  V30 4286 H 409.595 0.130623 3.80176 0
M  V30 4287 H 410.907 -0.0481585 4.98777 0
M  V30 4288 H 410.061 -2.32149 5.60528 0
M  V30 4289 H 408.8 -2.21592 4.34452 0
M  V30 4290 H 407.805 -0.217966 5.49368 0
M  V30 4291 H 409.03 -0.343851 6.78229 0
M  V30 4292 H 406.976 -2.47373 6.07571 0
M  V30 4293 H 406.893 -1.3955 7.43009 0
M  V30 4294 H 408.161 -2.58229 7.35485 0
M  V30 4295 N 412.39 -1.55475 0.257931 0
M  V30 4296 C 413.636 -1.99502 -0.364266 0
M  V30 4297 C 413.969 -1.146 -1.56782 0
M  V30 4298 O 413.244 -0.211968 -1.93342 0
M  V30 4299 C 413.527 -3.51917 -0.763333 0
M  V30 4300 C 413.38 -4.4758 0.446371 0
M  V30 4301 C 414.699 -4.09742 -1.60623 0
M  V30 4302 H 411.818 -0.725277 -0.130929 0
M  V30 4303 H 414.46 -1.8653 0.361446 0
M  V30 4304 H 412.61 -3.63101 -1.38166 0
M  V30 4305 H 414.282 -4.48362 1.08487 0
M  V30 4306 H 412.525 -4.19947 1.08753 0
M  V30 4307 H 413.196 -5.51862 0.123645 0
M  V30 4308 H 415.672 -4.01727 -1.08418 0
M  V30 4309 H 414.548 -5.16631 -1.85429 0
M  V30 4310 H 414.809 -3.58889 -2.58169 0
M  V30 4311 N 413.868 0.0150385 -1.57593 0
M  V30 4312 C 415.098 0.713359 -1.93894 0
M  V30 4313 C 415.506 1.68663 -0.857289 0
M  V30 4314 O 414.849 1.82876 0.173788 0
M  V30 4315 C 414.911 1.51348 -3.26089 0
M  V30 4316 C 414.575 0.703451 -4.51554 0
M  V30 4317 C 415.572 -0.00237924 -5.199 0
M  V30 4318 C 413.257 0.653854 -4.98026 0
M  V30 4319 C 415.251 -0.746955 -6.33008 0
M  V30 4320 C 412.938 -0.0944578 -6.11027 0
M  V30 4321 C 413.936 -0.793609 -6.78374 0
M  V30 4322 O 413.624 -1.52974 -7.89211 0
M  V30 4323 H 413.356 0.204637 -0.644282 0
M  V30 4324 H 415.91 -0.0276411 -2.05381 0
M  V30 4325 H 414.14 2.29862 -3.10967 0
M  V30 4326 H 415.829 2.09572 -3.47612 0
M  V30 4327 H 416.595 0.0268803 -4.84993 0
M  V30 4328 H 412.474 1.18756 -4.45441 0
M  V30 4329 H 416.018 -1.2932 -6.85509 0
M  V30 4330 H 411.915 -0.125591 -6.45378 0
M  V30 4331 H 412.683 -1.44488 -8.05646 0
M  V30 4332 N 415.346 1.54954 0.287554 0
M  V30 4333 C 416.309 1.86076 1.33823 0
M  V30 4334 C 417.309 0.734414 1.43049 0
M  V30 4335 O 418.499 1.00266 1.42452 0
M  V30 4336 C 415.631 2.05305 2.72144 0
M  V30 4337 H 416.824 2.79984 1.07465 0
M  V30 4338 H 414.377 1.47223 0.524902 0
M  V30 4339 H 415.112 1.1373 3.03704 0
M  V30 4340 H 414.897 2.873 2.66836 0
M  V30 4341 H 416.387 2.30706 3.48087 0
M  V30 4342 N 416.824 -0.551391 1.4764 0
M  V30 4343 C 417.771 -1.65796 1.60563 0
M  V30 4344 C 418.741 -1.59932 0.448428 0
M  V30 4345 O 419.926 -1.78679 0.669222 0
M  V30 4346 C 417.066 -3.04108 1.63133 0
M  V30 4347 C 416.179 -3.20365 2.89811 0
M  V30 4348 C 415.314 -4.49109 2.8368 0
M  V30 4349 C 414.353 -4.58819 4.05156 0
M  V30 4350 N 413.49 -5.78926 3.97227 0
M  V30 4351 H 418.33 -1.54088 2.5507 0
M  V30 4352 H 415.867 -0.75052 1.26513 0
M  V30 4353 H 417.825 -3.84207 1.62606 0
M  V30 4354 H 416.455 -3.14637 0.721341 0
M  V30 4355 H 415.507 -2.33659 3.00179 0
M  V30 4356 H 416.819 -3.23402 3.79753 0
M  V30 4357 H 415.973 -5.37475 2.81434 0
M  V30 4358 H 414.712 -4.4856 1.91431 0
M  V30 4359 H 413.717 -3.68864 4.077 0
M  V30 4360 H 414.942 -4.61124 4.98539 0
M  V30 4361 H 412.888 -5.79314 3.07785 0
M  V30 4362 H 412.805 -5.83367 4.80853 0
M  V30 4363 H 414.073 -6.69637 3.99007 0
M  V30 4364 N 418.302 -1.35869 -0.798587 0
M  V30 4365 C 419.718 -1.16082 -1.09532 0
M  V30 4366 C 419.918 0.0213124 -2.01489 0
M  V30 4367 O 418.974 0.689488 -2.42904 0
M  V30 4368 C 420.287 -2.46748 -1.7186 0
M  V30 4369 C 421.835 -2.53028 -1.84244 0
M  V30 4370 C 422.31 -3.83758 -2.49988 0
M  V30 4371 N 423.801 -3.85053 -2.57465 0
M  V30 4372 C 424.536 -4.8294 -3.09122 0
M  V30 4373 N 424.032 -5.91217 -3.61157 0
M  V30 4374 N 425.825 -4.70369 -3.0775 0
M  V30 4375 H 417.976 -2.11571 -0.187461 0
M  V30 4376 H 420.239 -0.936726 -0.145765 0
M  V30 4377 H 419.945 -3.33471 -1.11759 0
M  V30 4378 H 419.819 -2.61883 -2.71472 0
M  V30 4379 H 422.206 -1.66729 -2.43486 0
M  V30 4380 H 422.287 -2.418 -0.834643 0
M  V30 4381 H 421.931 -4.70459 -1.91393 0
M  V30 4382 H 421.861 -3.92278 -3.5132 0
M  V30 4383 H 424.352 -3.06822 -2.20609 0
M  V30 4384 H 424.665 -6.61892 -3.98896 0
M  V30 4385 H 423.01 -5.94899 -3.59333 0
M  V30 4386 H 426.201 -3.84914 -2.66381 0
M  V30 4387 H 426.374 -5.46816 -3.47701 0
M  V30 4388 N 419.78 1.02168 -1.19998 0
M  V30 4389 C 421.026 1.75945 -1.00852 0
M  V30 4390 C 421.359 1.88702 0.458828 0
M  V30 4391 O 420.634 1.40911 1.34069 0
M  V30 4392 C 420.917 3.18154 -1.68671 0
M  V30 4393 C 420.77 3.13224 -3.22817 0
M  V30 4394 C 422.089 4.16711 -1.41561 0
M  V30 4395 H 419.208 0.638673 -0.367785 0
M  V30 4396 H 421.85 1.19222 -1.4794 0
M  V30 4397 H 420 3.66586 -1.28636 0
M  V30 4398 H 421.672 2.72635 -3.72112 0
M  V30 4399 H 419.915 2.50751 -3.53986 0
M  V30 4400 H 420.586 4.13728 -3.65422 0
M  V30 4401 H 423.062 3.76913 -1.76284 0
M  V30 4402 H 421.938 5.14391 -1.91553 0
M  V30 4403 H 422.199 4.40774 -0.342193 0
M  V30 4404 N 421.258 1.00505 1.21394 0
M  V30 4405 C 422.504 0.688793 1.90745 0
M  V30 4406 C 422.837 -0.778486 1.77914 0
M  V30 4407 O 422.112 -1.56433 1.15581 0
M  V30 4408 C 422.395 1.11063 3.42545 0
M  V30 4409 C 422.248 2.63737 3.64367 0
M  V30 4410 C 423.567 0.673059 4.34923 0
M  V30 4411 H 420.686 0.251702 0.692687 0
M  V30 4412 H 423.328 1.25074 1.43026 0
M  V30 4413 H 421.478 0.632508 3.83317 0
M  V30 4414 H 423.15 3.19313 3.32922 0
M  V30 4415 H 421.393 3.05248 3.08231 0
M  V30 4416 H 422.064 2.88305 4.70727 0
M  V30 4417 H 424.54 1.08392 4.01734 0
M  V30 4418 H 423.416 0.996383 5.39781 0
M  V30 4419 H 423.677 -0.425808 4.40045 0
M  V30 4420 N 422.737 -1.36956 0.779787 0
M  V30 4421 C 423.647 -2.33965 0.172491 0
M  V30 4422 C 424.663 -1.60574 -0.670222 0
M  V30 4423 O 425.839 -1.92617 -0.588263 0
M  V30 4424 C 422.904 -3.39761 -0.690173 0
M  V30 4425 C 421.965 -4.28964 0.169924 0
M  V30 4426 C 421.198 -5.29707 -0.651662 0
M  V30 4427 O 421.421 -5.38238 -1.88827 0
M  V30 4428 O 420.355 -6.01873 -0.0566264 0
M  V30 4429 H 424.181 -2.87647 0.974321 0
M  V30 4430 H 421.766 -1.39258 0.541078 0
M  V30 4431 H 423.648 -4.04471 -1.1824 0
M  V30 4432 H 422.323 -2.88394 -1.47006 0
M  V30 4433 H 421.23 -3.67326 0.708696 0
M  V30 4434 H 422.563 -4.83656 0.913085 0
M  V30 4435 N 424.215 -0.530993 -1.48385 0
M  V30 4436 C 425.163 0.244595 -2.3131 0
M  V30 4437 C 426.157 0.93451 -1.41291 0
M  V30 4438 O 427.363 0.85878 -1.58193 0
M  V30 4439 H 423.738 0.0977472 -0.74562 0
M  V30 4440 H 425.709 -0.474369 -2.94605 0
M  V30 4441 C 424.458 1.2779 -3.23365 0
M  V30 4442 H 423.781 0.756439 -3.92579 0
M  V30 4443 H 425.221 1.79198 -3.84271 0
M  V30 4444 C 423.68 2.31205 -2.45042 0
M  V30 4445 O 424.21 3.37661 -2.17596 0
M  V30 4446 N 422.416 2.04446 -2.0652 0
M  V30 4447 H 421.963 1.17891 -2.2904 0
M  V30 4448 H 421.921 2.73861 -1.54427 0
M  V30 4449 N 425.693 1.55336 -0.266172 0
M  V30 4450 C 426.656 2.20878 0.612001 0
M  V30 4451 C 427.656 1.18388 1.08816 0
M  V30 4452 O 428.846 1.4335 0.989774 0
M  V30 4453 C 425.978 2.86765 1.84332 0
M  V30 4454 H 427.171 2.99873 0.0398718 0
M  V30 4455 H 424.724 1.56291 -0.0167309 0
M  V30 4456 H 425.459 2.11759 2.45619 0
M  V30 4457 H 425.244 3.61862 1.5099 0
M  V30 4458 H 426.734 3.36867 2.46801 0
M  V30 4459 N 427.171 -0.0066808 1.57599 0
M  V30 4460 C 428.118 -1.00024 2.08 0
M  V30 4461 C 429.088 -1.34549 0.973943 0
M  V30 4462 O 430.273 -1.44502 1.24595 0
M  V30 4463 C 427.413 -2.2891 2.58252 0
M  V30 4464 C 426.526 -2.00346 3.82734 0
M  V30 4465 C 425.661 -3.23265 4.21513 0
M  V30 4466 C 424.7 -2.90357 5.3885 0
M  V30 4467 N 423.837 -4.05793 5.72954 0
M  V30 4468 H 428.677 -0.563499 2.92624 0
M  V30 4469 H 426.214 -0.266592 1.44664 0
M  V30 4470 H 428.172 -3.04247 2.85464 0
M  V30 4471 H 426.802 -2.70265 1.76512 0
M  V30 4472 H 425.854 -1.15406 3.62471 0
M  V30 4473 H 427.166 -1.72086 4.68175 0
M  V30 4474 H 426.32 -4.06953 4.49971 0
M  V30 4475 H 425.059 -3.54657 3.34768 0
M  V30 4476 H 424.064 -2.05075 5.10122 0
M  V30 4477 H 425.289 -2.60219 6.27266 0
M  V30 4478 H 423.235 -4.37094 4.89167 0
M  V30 4479 H 423.152 -3.81034 6.52954 0
M  V30 4480 H 424.42 -4.90289 6.06001 0
M  V30 4481 N 428.649 -1.55105 -0.279332 0
M  V30 4482 C 430.065 -1.46803 -0.626187 0
M  V30 4483 C 430.265 -0.676939 -1.89789 0
M  V30 4484 O 429.321 -0.19326 -2.51759 0
M  V30 4485 C 430.634 -2.90962 -0.759034 0
M  V30 4486 C 432.182 -3.01138 -0.853504 0
M  V30 4487 C 432.657 -4.46539 -1.01818 0
M  V30 4488 N 434.148 -4.50341 -1.08386 0
M  V30 4489 C 434.883 -5.60053 -1.22996 0
M  V30 4490 N 434.379 -6.79645 -1.34366 0
M  V30 4491 N 436.172 -5.47783 -1.26056 0
M  V30 4492 H 428.323 -2.04996 0.555921 0
M  V30 4493 H 430.586 -0.929325 0.187239 0
M  V30 4494 H 430.292 -3.51544 0.104852 0
M  V30 4495 H 430.166 -3.39619 -1.64131 0
M  V30 4496 H 432.553 -2.40658 -1.70786 0
M  V30 4497 H 432.634 -2.55745 0.0532466 0
M  V30 4498 H 432.278 -5.0762 -0.168504 0
M  V30 4499 H 432.208 -4.89583 -1.93948 0
M  V30 4500 H 434.699 -3.64191 -1.00864 0
M  V30 4501 H 435.012 -7.59012 -1.4533 0
M  V30 4502 H 433.357 -6.82469 -1.31382 0
M  V30 4503 H 436.548 -4.53294 -1.168 0
M  V30 4504 H 436.721 -6.33331 -1.37098 0
M  V30 4505 N 430.127 0.543554 -1.4793 0
M  V30 4506 C 431.057 1.65888 -1.64327 0
M  V30 4507 C 432.038 1.62818 -0.492383 0
M  V30 4508 O 433.223 1.80226 -0.723338 0
M  V30 4509 C 430.353 3.04506 -1.67013 0
M  V30 4510 C 429.307 3.2243 -2.81466 0
M  V30 4511 C 428.633 4.61972 -2.69233 0
M  V30 4512 C 429.933 3.06496 -4.22915 0
M  V30 4513 H 431.627 1.52421 -2.57698 0
M  V30 4514 H 429.173 0.731849 -1.24016 0
M  V30 4515 H 431.126 3.82391 -1.77074 0
M  V30 4516 H 429.85 3.18964 -0.70212 0
M  V30 4517 H 428.509 2.46957 -2.70938 0
M  V30 4518 H 428.157 4.73247 -1.7043 0
M  V30 4519 H 427.857 4.74911 -3.46025 0
M  V30 4520 H 429.381 5.41974 -2.81242 0
M  V30 4521 H 430.795 3.74186 -4.34348 0
M  V30 4522 H 429.192 3.30938 -5.006 0
M  V30 4523 H 430.262 2.03077 -4.40327 0
M  V30 4524 N 431.605 1.3629 0.791371 0
M  V30 4525 C 432.568 1.30309 1.88553 0
M  V30 4526 C 433.568 0.211204 1.59407 0
M  V30 4527 O 434.758 0.465865 1.67855 0
M  V30 4528 C 431.89 1.01956 3.25297 0
M  V30 4529 H 433.083 2.27614 1.95273 0
M  V30 4530 H 430.636 1.21035 0.988953 0
M  V30 4531 H 431.371 0.050998 3.2426 0
M  V30 4532 H 431.156 1.80968 3.4784 0
M  V30 4533 H 432.646 1.0037 4.05359 0
M  V30 4534 N 433.083 -1.0153 1.20538 0
M  V30 4535 C 434.046 -2.0826 0.957098 0
M  V30 4536 C 435.046 -1.60657 -0.0678655 0
M  V30 4537 O 436.236 -1.73385 0.168332 0
M  V30 4538 C 433.368 -3.38033 0.441188 0
M  V30 4539 H 434.561 -2.31719 1.90384 0
M  V30 4540 H 432.114 -1.1835 1.02093 0
M  V30 4541 H 432.849 -3.20249 -0.510961 0
M  V30 4542 H 432.634 -3.73911 1.18038 0
M  V30 4543 H 434.124 -4.16613 0.287009 0
M  V30 4544 N 434.561 -1.01147 -1.20859 0
M  V30 4545 C 435.524 -0.582224 -2.21682 0
M  V30 4546 C 436.524 0.344887 -1.57058 0
M  V30 4547 O 437.714 0.134281 -1.73682 0
M  V30 4548 C 434.846 0.150496 -3.40568 0
M  V30 4549 H 436.039 -1.47408 -2.61172 0
M  V30 4550 H 433.592 -0.800695 -1.34233 0
M  V30 4551 H 434.327 1.0575 -3.06574 0
M  V30 4552 H 434.112 -0.515444 -3.88697 0
M  V30 4553 H 435.602 0.438344 -4.15293 0
M  V30 4554 N 436.039 1.36541 -0.78704 0
M  V30 4555 C 436.969 2.32659 -0.197992 0
M  V30 4556 C 437.95 1.56533 0.665697 0
M  V30 4557 O 439.135 1.84698 0.60001 0
M  V30 4558 C 436.265 3.40778 0.669901 0
M  V30 4559 C 435.219 4.27897 -0.0937039 0
M  V30 4560 C 434.545 5.27163 0.894629 0
M  V30 4561 C 435.845 5.06334 -1.28154 0
M  V30 4562 H 437.539 2.82171 -1.00099 0
M  V30 4563 H 435.085 1.35665 -0.482793 0
M  V30 4564 H 437.038 4.07008 1.09191 0
M  V30 4565 H 435.762 2.89827 1.50558 0
M  V30 4566 H 434.421 3.6322 -0.49666 0
M  V30 4567 H 434.069 4.72486 1.72527 0
M  V30 4568 H 433.769 5.86317 0.388149 0
M  V30 4569 H 435.293 5.96266 1.31525 0
M  V30 4570 H 436.707 5.65617 -0.93541 0
M  V30 4571 H 435.104 5.74888 -1.72115 0
M  V30 4572 H 436.174 4.38114 -2.07807 0
M  V30 4573 N 437.518 0.538854 1.48102 0
M  V30 4574 C 438.45 -0.256278 2.27763 0
M  V30 4575 C 439.463 -0.89633 1.35904 0
M  V30 4576 O 440.652 -0.773275 1.60881 0
M  V30 4577 C 437.752 -1.37896 3.09577 0
M  V30 4578 C 436.925 -0.839159 4.29275 0
M  V30 4579 C 435.984 -1.84405 4.9283 0
M  V30 4580 O 435.01 -1.39746 5.51779 0
M  V30 4581 N 436.212 -3.17666 4.85869 0
M  V30 4582 H 438.977 0.426968 2.96643 0
M  V30 4583 H 436.538 0.373747 1.57527 0
M  V30 4584 H 438.53 -2.04955 3.48963 0
M  V30 4585 H 437.1 -1.96572 2.4306 0
M  V30 4586 H 436.32 0.00769287 3.94199 0
M  V30 4587 H 437.608 -0.457548 5.06739 0
M  V30 4588 H 437.006 -3.56609 4.39143 0
M  V30 4589 H 435.563 -3.80334 5.29329 0
M  V30 4590 N 438.996 -1.55193 0.274407 0
M  V30 4591 C 439.944 -2.23924 -0.629362 0
M  V30 4592 C 440.938 -1.23602 -1.1584 0
M  V30 4593 O 442.144 -1.41535 -1.11211 0
M  V30 4594 H 438.519 -0.718637 -0.221507 0
M  V30 4595 H 440.49 -2.98388 -0.0268322 0
M  V30 4596 C 439.239 -2.97329 -1.80252 0
M  V30 4597 H 438.562 -3.74313 -1.40462 0
M  V30 4598 H 440.002 -3.48743 -2.41152 0
M  V30 4599 C 438.461 -2.0276 -2.69054 0
M  V30 4600 O 438.991 -1.57836 -3.69392 0
M  V30 4601 N 437.197 -1.69275 -2.36208 0
M  V30 4602 H 436.744 -2.06004 -1.54661 0
M  V30 4603 H 436.702 -1.06271 -2.95895 0
M  V30 4604 N 440.474 -0.00167713 -1.576 0
M  V30 4605 C 441.384 1.00548 -2.1196 0
M  V30 4606 C 442.4 1.3758 -1.06526 0
M  V30 4607 O 443.576 1.46278 -1.38436 0
M  V30 4608 C 440.641 2.27809 -2.6135 0
M  V30 4609 C 439.702 1.97074 -3.81393 0
M  V30 4610 C 438.935 3.18267 -4.28417 0
M  V30 4611 O 439.158 4.30009 -3.74765 0
M  V30 4612 O 438.092 3.02167 -5.20556 0
M  V30 4613 H 441.918 0.573373 -2.98238 0
M  V30 4614 H 439.503 0.217255 -1.47812 0
M  V30 4615 H 441.385 3.02568 -2.93309 0
M  V30 4616 H 440.06 2.70254 -1.78169 0
M  V30 4617 H 438.967 1.19785 -3.54404 0
M  V30 4618 H 440.3 1.59464 -4.65652 0
M  V30 4619 N 441.952 1.55251 0.271103 0
M  V30 4620 C 443.2 1.75599 1.00047 0
M  V30 4621 C 443.521 0.561188 1.8675 0
M  V30 4622 O 442.791 -0.423846 1.9126 0
M  V30 4623 H 441.371 0.647562 0.372387 0
M  V30 4624 H 444.033 1.92656 0.294876 0
M  V30 4625 H 443.129 2.65766 1.6363 0
M  V30 4626 N 443.43 -0.535701 1.48216 0
M  V30 4627 C 444.677 -1.29183 1.55942 0
M  V30 4628 C 445.005 -1.93125 0.230857 0
M  V30 4629 O 444.26 -1.79556 -0.778331 0
M  V30 4630 C 444.559 -2.4068 2.64212 0
M  V30 4631 C 444.225 -1.94428 4.06827 0
M  V30 4632 C 442.887 -1.81532 4.45645 0
M  V30 4633 C 445.239 -1.59405 4.96225 0
M  V30 4634 C 442.567 -1.31939 5.71672 0
M  V30 4635 C 444.919 -1.11276 6.22736 0
M  V30 4636 C 443.583 -0.969924 6.60416 0
M  V30 4637 H 442.853 -0.472715 0.570632 0
M  V30 4638 H 445.5 -0.598437 1.81909 0
M  V30 4639 H 443.805 -3.15666 2.32083 0
M  V30 4640 H 445.502 -2.98822 2.67407 0
M  V30 4641 H 442.092 -2.05415 3.76168 0
M  V30 4642 H 446.276 -1.68231 4.66917 0
M  V30 4643 H 441.532 -1.19562 5.99596 0
M  V30 4644 H 445.706 -0.832453 6.91407 0
M  V30 4645 H 443.333 -0.583436 7.57958 0
M  V30 4646 N 444.908 -1.36708 -0.784132 0
M  V30 4647 C 446.136 -1.34398 -1.57305 0
M  V30 4648 C 446.551 0.0735577 -1.88657 0
M  V30 4649 O 445.908 1.03193 -1.50524 0
M  V30 4650 C 445.959 -2.17053 -2.89085 0
M  V30 4651 O 445.68 -3.53281 -2.59083 0
M  V30 4652 C 447.181 -2.22583 -3.83369 0
M  V30 4653 H 444.401 -0.460819 -0.487736 0
M  V30 4654 H 446.945 -1.79879 -0.972819 0
M  V30 4655 H 445.1 -1.75113 -3.45564 0
M  V30 4656 H 445.514 -3.9647 -3.43383 0
M  V30 4657 H 446.988 -2.84763 -4.72878 0
M  V30 4658 H 447.465 -1.23075 -4.21603 0
M  V30 4659 H 448.071 -2.64781 -3.32823 0
M  V30 4660 N 446.386 1.0089 -1.21074 0
M  V30 4661 C 447.316 2.1145 -0.990523 0
M  V30 4662 C 448.297 1.69897 0.0831699 0
M  V30 4663 O 449.482 1.94052 -0.0758853 0
M  V30 4664 C 446.612 3.42914 -0.550177 0
M  V30 4665 C 445.566 3.98244 -1.56799 0
M  V30 4666 C 444.892 5.25568 -0.984013 0
M  V30 4667 C 446.192 4.30752 -2.95381 0
M  V30 4668 H 447.886 2.3013 -1.91521 0
M  V30 4669 H 445.432 1.10592 -0.92225 0
M  V30 4670 H 447.385 4.19653 -0.383305 0
M  V30 4671 H 446.109 3.24014 0.41015 0
M  V30 4672 H 444.768 3.23621 -1.72236 0
M  V30 4673 H 444.416 5.02998 -0.0155216 0
M  V30 4674 H 444.116 5.63551 -1.66384 0
M  V30 4675 H 445.64 6.04955 -0.828378 0
M  V30 4676 H 447.054 4.98349 -2.8341 0
M  V30 4677 H 445.451 4.79869 -3.60341 0
M  V30 4678 H 446.521 3.39192 -3.46521 0
M  V30 4679 N 447.864 1.01787 1.20321 0
M  V30 4680 C 449.113 0.703249 1.89043 0
M  V30 4681 C 449.426 -0.770445 1.79787 0
M  V30 4682 O 450.632 -1.19767 2.43656 0
M  V30 4683 C 449.088 1.20749 3.3904 0
M  V30 4684 C 448.696 2.70817 3.56878 0
M  V30 4685 C 450.44 0.968352 4.13308 0
M  V30 4686 C 448.347 3.14716 5.00708 0
M  V30 4687 H 447.277 0.259354 0.707991 0
M  V30 4688 H 449.928 1.23072 1.36108 0
M  V30 4689 H 448.31 0.607989 3.91305 0
M  V30 4690 H 449.484 3.36327 3.14993 0
M  V30 4691 H 447.799 2.92888 2.95983 0
M  V30 4692 H 450.396 1.27173 5.19356 0
M  V30 4693 H 450.739 -0.095149 4.16191 0
M  V30 4694 H 451.272 1.53129 3.67146 0
M  V30 4695 H 448.011 4.20347 5.02979 0
M  V30 4696 H 447.531 2.53927 5.43398 0
M  V30 4697 H 449.21 3.07426 5.69296 0
M  V30 4698 N 449.342 -1.36122 0.79427 0
M  V30 4699 C 450.567 -2.03891 0.379871 0
M  V30 4700 C 450.992 -1.59488 -0.997251 0
M  V30 4701 O 450.35 -0.765652 -1.64339 0
M  V30 4702 C 450.398 -3.57687 0.457442 0
M  V30 4703 O 449.502 -4.08931 -0.5338 0
M  V30 4704 H 448.843 -0.6443 0.160541 0
M  V30 4705 H 451.373 -1.73976 1.07673 0
M  V30 4706 H 451.383 -4.06721 0.322792 0
M  V30 4707 H 450.058 -3.89357 1.46199 0
M  V30 4708 H 448.635 -3.71154 -0.360409 0
M  V30 4709 N 450.82 -0.546701 -1.47814 0
M  V30 4710 C 452.068 -0.0187037 -2.02091 0
M  V30 4711 C 452.389 1.33168 -1.42447 0
M  V30 4712 O 451.659 1.86619 -0.595839 0
M  V30 4713 H 450.239 -0.00392531 -0.74699 0
M  V30 4714 H 452.901 -0.714327 -1.81338 0
M  V30 4715 H 451.997 0.0772219 -3.12004 0
M  V30 4716 N 452.299 1.55045 -0.282633 0
M  V30 4717 C 453.547 1.99365 0.331334 0
M  V30 4718 C 453.868 1.1725 1.55812 0
M  V30 4719 O 453.138 0.263871 1.94115 0
M  V30 4720 H 451.718 0.736397 0.125414 0
M  V30 4721 H 454.38 1.90964 -0.389711 0
M  V30 4722 H 453.476 3.0596 0.616036 0
M  V30 4723 N 453.777 0.010035 1.57597 0
M  V30 4724 C 455.005 -0.683413 1.95287 0
M  V30 4725 C 455.42 -1.66747 0.885481 0
M  V30 4726 O 454.777 -1.82003 -0.134629 0
M  V30 4727 C 454.828 -1.40652 3.33015 0
M  V30 4728 O 454.549 -0.461916 4.35658 0
M  V30 4729 C 456.05 -2.19356 3.85225 0
M  V30 4730 H 453.27 -0.189708 0.643624 0
M  V30 4731 H 455.814 0.0641359 2.04399 0
M  V30 4732 H 453.969 -2.10562 3.2518 0
M  V30 4733 H 454.383 -0.973215 5.15392 0
M  V30 4734 H 455.857 -2.65433 4.83993 0
M  V30 4735 H 456.334 -3.02457 3.18459 0
M  V30 4736 H 456.94 -1.54442 3.96267 0
M  V30 4737 N 455.255 -1.55392 -0.262866 0
M  V30 4738 C 456.532 -1.67204 -1.01499 0
M  V30 4739 C 456.912 -0.545186 -2.03939 0
M  V30 4740 O 456.26 0.453467 -2.23955 0
M  V30 4741 C 456.47 -3.06847 -1.6627 0
M  V30 4742 C 457.818 -3.64928 -2.17054 0
M  V30 4743 O 458.842 -3.09545 -1.76239 0
M  V30 4744 O 457.701 -4.61984 -2.91947 0
M  V30 4745 H 454.795 -0.679467 -0.471438 0
M  V30 4746 H 457.341 -1.67729 -0.257918 0
M  V30 4747 H 456.113 -3.80309 -0.920915 0
M  V30 4748 H 455.736 -3.10266 -2.48638 0
M  V30 4749 N 456.733 0.527833 -1.48498 0
M  V30 4750 C 457.681 1.65313 -1.63628 0
M  V30 4751 C 458.675 1.6177 -0.502676 0
M  V30 4752 O 459.881 1.66601 -0.681469 0
M  V30 4753 H 456.256 0.547518 -0.515488 0
M  V30 4754 H 458.227 1.49696 -2.58135 0
M  V30 4755 C 456.976 3.03576 -1.6952 0
M  V30 4756 H 456.299 3.06997 -2.56111 0
M  V30 4757 H 457.739 3.81923 -1.84149 0
M  V30 4758 C 456.198 3.34089 -0.43432 0
M  V30 4759 O 456.728 3.99151 0.451852 0
M  V30 4760 N 454.934 2.88991 -0.305368 0
M  V30 4761 H 454.481 2.36222 -1.02747 0
M  V30 4762 H 454.439 3.09776 0.537249 0
M  V30 4763 N 458.211 1.37122 0.776871 0
M  V30 4764 C 459.161 1.28989 1.88005 0
M  V30 4765 C 460.145 0.178765 1.59904 0
M  V30 4766 O 461.337 0.412705 1.72121 0
M  V30 4767 C 458.466 1.09402 3.25402 0
M  V30 4768 C 457.552 2.25036 3.59471 0
M  V30 4769 N 457.943 3.50407 3.64759 0
M  V30 4770 C 456.241 2.17078 3.89607 0
M  V30 4771 C 456.942 4.26628 3.95428 0
M  V30 4772 N 455.918 3.55709 4.11062 0
M  V30 4773 H 459.72 2.2394 1.90337 0
M  V30 4774 H 457.234 1.30021 0.973052 0
M  V30 4775 H 459.231 1.01661 4.04315 0
M  V30 4776 H 457.891 0.153632 3.24336 0
M  V30 4777 H 458.902 3.8438 3.47091 0
M  V30 4778 H 455.579 1.31067 3.96393 0
M  V30 4779 H 456.969 5.35107 4.06338 0
M  V30 4780 N 459.689 -1.00246 1.21608 0
M  V30 4781 C 460.619 -2.10921 1.00172 0
M  V30 4782 C 461.6 -1.69938 -0.0741587 0
M  V30 4783 O 462.785 -1.94009 0.0861753 0
M  V30 4784 C 459.915 -3.42618 0.568355 0
M  V30 4785 C 458.869 -3.97407 1.58909 0
M  V30 4786 C 458.195 -5.25038 1.01187 0
M  V30 4787 C 459.495 -4.2918 2.97661 0
M  V30 4788 H 461.189 -2.29112 1.92739 0
M  V30 4789 H 458.735 -1.10101 0.928102 0
M  V30 4790 H 460.688 -4.19444 0.405555 0
M  V30 4791 H 459.412 -3.24227 -0.392961 0
M  V30 4792 H 458.071 -3.22703 1.73949 0
M  V30 4793 H 457.719 -5.02982 0.0421965 0
M  V30 4794 H 457.419 -5.62661 1.6937 0
M  V30 4795 H 458.943 -6.04507 0.860448 0
M  V30 4796 H 460.357 -4.96839 2.86049 0
M  V30 4797 H 458.754 -4.77952 3.6288 0
M  V30 4798 H 459.824 -3.3735 3.48315 0
M  V30 4799 N 461.167 -1.02423 -1.1978 0
M  V30 4800 C 462.097 -0.62157 -2.25075 0
M  V30 4801 C 463.078 0.367148 -1.6609 0
M  V30 4802 O 464.263 0.250892 -1.92573 0
M  V30 4803 C 461.393 0.0331826 -3.47284 0
M  V30 4804 C 460.347 -0.877323 -4.18912 0
M  V30 4805 C 459.673 -0.0879296 -5.34628 0
M  V30 4806 C 460.973 -2.18892 -4.74219 0
M  V30 4807 H 462.667 -1.50179 -2.59011 0
M  V30 4808 H 460.213 -0.723547 -1.24502 0
M  V30 4809 H 462.166 0.326488 -4.20133 0
M  V30 4810 H 460.89 0.948164 -3.12534 0
M  V30 4811 H 459.549 -1.15475 -3.47938 0
M  V30 4812 H 459.197 0.828941 -4.96123 0
M  V30 4813 H 458.897 -0.694359 -5.83483 0
M  V30 4814 H 460.421 0.198743 -6.10276 0
M  V30 4815 H 461.835 -1.95746 -5.38847 0
M  V30 4816 H 460.232 -2.74686 -5.33542 0
M  V30 4817 H 461.302 -2.84674 -3.92541 0
M  V30 4818 N 462.645 1.35699 -0.801477 0
M  V30 4819 C 463.575 2.32436 -0.222658 0
M  V30 4820 C 464.556 1.5723 0.649057 0
M  V30 4821 O 465.741 1.85324 0.580387 0
M  V30 4822 C 462.871 3.41469 0.633719 0
M  V30 4823 C 461.825 4.27774 -0.139083 0
M  V30 4824 C 461.151 5.28082 0.838666 0
M  V30 4825 C 462.451 5.04946 -1.33517 0
M  V30 4826 H 464.145 2.81094 -1.03086 0
M  V30 4827 H 461.691 1.35146 -0.497155 0
M  V30 4828 H 463.644 4.08143 1.04868 0
M  V30 4829 H 462.368 2.91408 1.47475 0
M  V30 4830 H 461.027 3.62673 -0.535156 0
M  V30 4831 H 460.675 4.7429 1.67506 0
M  V30 4832 H 460.375 5.86695 0.32594 0
M  V30 4833 H 461.899 5.97628 1.25194 0
M  V30 4834 H 463.313 5.64593 -0.995349 0
M  V30 4835 H 461.71 5.7303 -1.78202 0
M  V30 4836 H 462.78 4.35886 -2.12442 0
M  V30 4837 N 464.123 0.554532 1.47522 0
M  V30 4838 C 465.369 0.0295227 2.02779 0
M  V30 4839 C 465.702 -1.31582 1.42828 0
M  V30 4840 O 464.977 -1.85561 0.582872 0
M  V30 4841 C 465.26 -0.0664057 3.60039 0
M  V30 4842 C 465.113 1.30585 4.30427 0
M  V30 4843 C 466.432 -0.781162 4.33112 0
M  V30 4844 H 463.551 0.0122027 0.736899 0
M  V30 4845 H 466.193 0.716305 1.7598 0
M  V30 4846 H 464.343 -0.651307 3.83002 0
M  V30 4847 H 466.015 1.93374 4.18813 0
M  V30 4848 H 464.258 1.88125 3.90886 0
M  V30 4849 H 464.929 1.19147 5.38988 0
M  V30 4850 H 467.405 -0.284565 4.15126 0
M  V30 4851 H 466.281 -0.817237 5.42782 0
M  V30 4852 H 466.542 -1.83672 4.0214 0
M  V30 4853 N 465.601 -1.54893 0.290851 0
M  V30 4854 C 466.878 -1.91991 -0.373989 0
M  V30 4855 C 467.258 -1.21694 -1.72493 0
M  V30 4856 O 466.606 -0.34917 -2.25816 0
M  V30 4857 C 466.816 -3.45419 -0.498703 0
M  V30 4858 C 468.164 -4.1748 -0.774298 0
M  V30 4859 O 469.188 -3.51398 -0.582908 0
M  V30 4860 O 468.047 -5.3445 -1.14129 0
M  V30 4861 H 465.141 -0.800593 -0.207315 0
M  V30 4862 H 467.687 -1.66297 0.338164 0
M  V30 4863 H 466.459 -3.88688 0.451392 0
M  V30 4864 H 466.082 -3.77117 -1.25972 0
M  V30 4865 N 467.08 -0.0183926 -1.57589 0
M  V30 4866 C 468.01 0.965596 -2.12599 0
M  V30 4867 C 468.991 1.34641 -1.0395 0
M  V30 4868 O 470.176 1.42693 -1.31729 0
M  V30 4869 C 467.306 2.25149 -2.64434 0
M  V30 4870 C 466.26 2.01175 -3.77773 0
M  V30 4871 C 465.586 3.35937 -4.15994 0
M  V30 4872 C 466.886 1.35953 -5.04296 0
M  V30 4873 H 468.58 0.507504 -2.95067 0
M  V30 4874 H 466.126 0.242671 -1.41941 0
M  V30 4875 H 468.079 2.94357 -3.01549 0
M  V30 4876 H 466.803 2.73105 -1.79112 0
M  V30 4877 H 465.462 1.34388 -3.4108 0
M  V30 4878 H 465.11 3.81631 -3.27669 0
M  V30 4879 H 464.81 3.20705 -4.92364 0
M  V30 4880 H 466.334 4.0643 -4.55683 0
M  V30 4881 H 467.748 1.95144 -5.39065 0
M  V30 4882 H 466.145 1.31152 -5.85593 0
M  V30 4883 H 467.215 0.331071 -4.83768 0
M  V30 4884 N 468.558 1.5553 0.254621 0
M  V30 4885 C 469.974 1.4778 0.602753 0
M  V30 4886 C 470.174 0.707047 1.88688 0
M  V30 4887 O 469.23 0.233288 2.5142 0
M  V30 4888 C 470.543 2.92133 0.712648 0
M  V30 4889 C 472.091 3.02458 0.805488 0
M  V30 4890 C 472.566 4.48102 0.947009 0
M  V30 4891 N 474.057 4.52008 1.01207 0
M  V30 4892 C 474.792 5.61939 1.1407 0
M  V30 4893 N 474.288 6.81697 1.23536 0
M  V30 4894 N 476.081 5.49719 1.17325 0
M  V30 4895 H 468.232 2.04085 -0.588463 0
M  V30 4896 H 470.495 0.926229 -0.202001 0
M  V30 4897 H 470.201 3.51332 -0.160766 0
M  V30 4898 H 470.075 3.42187 1.58707 0
M  V30 4899 H 472.462 2.43344 1.66936 0
M  V30 4900 H 472.543 2.55627 -0.0939266 0
M  V30 4901 H 472.187 5.07824 0.087725 0
M  V30 4902 H 472.117 4.92607 1.86135 0
M  V30 4903 H 474.608 3.65749 0.950577 0
M  V30 4904 H 474.921 7.61228 1.33236 0
M  V30 4905 H 473.266 6.84473 1.20508 0
M  V30 4906 H 476.457 4.55095 1.09573 0
M  V30 4907 H 476.63 6.35432 1.27005 0
M  V30 4908 N 470.036 -0.519951 1.48776 0
M  V30 4909 C 471.447 -1.10177 1.50725 0
M  V30 4910 C 471.798 -1.94153 0.282678 0
M  V30 4911 O 470.923 -2.07645 -0.609298 0
M  V30 4912 C 471.518 -2.00482 2.73116 0
M  V30 4913 C 470.077 -2.53862 2.77905 0
M  V30 4914 C 469.224 -1.31047 2.44381 0
M  V30 4915 H 472.175 -0.30473 1.55747 0
M  V30 4916 H 472.196 -2.8491 2.52203 0
M  V30 4917 H 471.708 -1.39335 3.62225 0
M  V30 4918 H 469.809 -3.18702 1.93029 0
M  V30 4919 H 469.922 -2.9231 3.79594 0
M  V30 4920 H 468.286 -1.62953 1.95751 0
M  V30 4921 H 469.069 -0.71637 3.35743 0
M  V30 4922 N 471.514 -1.37532 -0.769588 0
M  V30 4923 C 472.446 -1.29347 -1.89214 0
M  V30 4924 C 473.459 -0.208842 -1.61455 0
M  V30 4925 O 474.648 -0.465158 -1.72333 0
M  V30 4926 C 471.748 -0.977649 -3.24492 0
M  V30 4927 C 470.921 -2.16817 -3.7988 0
M  V30 4928 C 469.98 -1.82229 -4.93639 0
M  V30 4929 O 469.006 -2.54548 -5.09111 0
M  V30 4930 N 470.208 -0.767696 -5.75401 0
M  V30 4931 H 472.973 -2.26073 -1.96751 0
M  V30 4932 H 470.534 -1.31185 -0.948795 0
M  V30 4933 H 472.526 -0.727065 -3.98115 0
M  V30 4934 H 471.096 -0.0988777 -3.12444 0
M  V30 4935 H 470.316 -2.58038 -2.9801 0
M  V30 4936 H 471.604 -2.96308 -4.13617 0
M  V30 4937 H 471.002 -0.167626 -5.65452 0
M  V30 4938 H 469.559 -0.576973 -6.49241 0
M  V30 4939 N 472.992 0.995999 -1.22138 0
M  V30 4940 C 473.924 2.08745 -0.946485 0
M  V30 4941 C 474.937 1.62633 0.0737356 0
M  V30 4942 O 476.126 1.77782 -0.159886 0
M  V30 4943 C 473.226 3.36516 -0.401305 0
M  V30 4944 C 472.399 4.11672 -1.47801 0
M  V30 4945 C 471.458 5.17728 -0.940461 0
M  V30 4946 O 470.484 5.45482 -1.62596 0
M  V30 4947 N 471.686 5.80005 0.239723 0
M  V30 4948 H 474.451 2.32908 -1.88611 0
M  V30 4949 H 472.012 1.16152 -1.12785 0
M  V30 4950 H 474.004 4.04691 -0.0270837 0
M  V30 4951 H 472.574 3.0944 0.443354 0
M  V30 4952 H 471.794 3.38171 -2.02568 0
M  V30 4953 H 473.082 4.58657 -2.20253 0
M  V30 4954 H 472.48 5.5982 0.813518 0
M  V30 4955 H 471.037 6.4943 0.555361 0
M  V30 4956 N 474.47 1.03057 1.19235 0
M  V30 4957 C 475.4 0.633497 2.24742 0
M  V30 4958 C 476.381 -0.358335 1.66283 0
M  V30 4959 O 477.566 -0.240676 1.92703 0
M  V30 4960 C 474.696 -0.0147648 3.47297 0
M  V30 4961 C 473.65 0.899527 4.18441 0
M  V30 4962 C 472.976 0.116281 5.34574 0
M  V30 4963 C 474.276 2.21404 4.73051 0
M  V30 4964 H 475.97 1.5155 2.58211 0
M  V30 4965 H 473.516 0.73014 1.24117 0
M  V30 4966 H 475.469 -0.304202 4.20301 0
M  V30 4967 H 474.193 -0.931577 3.13032 0
M  V30 4968 H 472.852 1.17319 3.47321 0
M  V30 4969 H 472.5 -0.802619 4.96555 0
M  V30 4970 H 472.2 0.725293 5.83107 0
M  V30 4971 H 473.724 -0.166376 6.10373 0
M  V30 4972 H 475.138 1.98601 5.37802 0
M  V30 4973 H 473.535 2.77512 5.32078 0
M  V30 4974 H 474.605 2.86752 3.91026 0
M  V30 4975 N 475.948 -1.35272 0.808662 0
M  V30 4976 C 477.176 -2.02946 0.402537 0
M  V30 4977 C 477.591 -1.60937 -0.987147 0
M  V30 4978 O 476.948 -0.807917 -1.63643 0
M  V30 4979 C 476.999 -3.58317 0.47868 0
M  V30 4980 O 476.72 -3.98799 1.81358 0
M  V30 4981 C 478.221 -4.43251 0.0656281 0
M  V30 4982 H 475.441 -0.650831 0.163279 0
M  V30 4983 H 477.985 -1.72849 1.09286 0
M  V30 4984 H 476.14 -3.87055 -0.163415 0
M  V30 4985 H 476.554 -4.93451 1.77781 0
M  V30 4986 H 478.028 -5.51738 0.170017 0
M  V30 4987 H 478.505 -4.27913 -0.989278 0
M  V30 4988 H 479.111 -4.19813 0.68096 0
M  V30 4989 N 477.426 -0.562348 -1.47226 0
M  V30 4990 C 478.674 -0.0401371 -2.0206 0
M  V30 4991 C 478.995 1.3165 -1.43852 0
M  V30 4992 O 478.265 1.85976 -0.615599 0
M  V30 4993 H 476.845 -0.0118479 -0.746906 0
M  V30 4994 H 479.507 -0.73352 -1.8057 0
M  V30 4995 H 478.603 0.0441254 -3.12069 0
M  V30 4996 N 478.904 1.54736 -0.299062 0
M  V30 4997 C 479.851 2.23448 0.577899 0
M  V30 4998 C 480.821 1.21637 1.13109 0
M  V30 4999 O 482.006 1.50252 1.17597 0
M  V30 5000 C 479.146 2.9774 1.74484 0
M  V30 5001 C 478.259 4.1432 1.22323 0
M  V30 5002 C 477.394 4.76199 2.35388 0
M  V30 5003 C 476.433 5.84927 1.80351 0
M  V30 5004 N 475.57 6.4077 2.86982 0
M  V30 5005 H 480.41 2.97996 -0.0146545 0
M  V30 5006 H 477.947 1.47088 -0.0190013 0
M  V30 5007 H 479.905 3.39045 2.43114 0
M  V30 5008 H 478.535 2.25572 2.30905 0
M  V30 5009 H 477.587 3.7797 0.429249 0
M  V30 5010 H 478.899 4.92659 0.780309 0
M  V30 5011 H 478.053 5.20346 3.11969 0
M  V30 5012 H 476.792 3.97188 2.83006 0
M  V30 5013 H 475.797 5.40207 1.02259 0
M  V30 5014 H 477.022 6.65821 1.3364 0
M  V30 5015 H 474.968 5.64643 3.33938 0
M  V30 5016 H 474.885 7.1445 2.4718 0
M  V30 5017 H 476.153 6.89574 3.63466 0
M  V30 5018 N 480.382 0.0267497 1.57577 0
M  V30 5019 C 481.61 -0.662661 1.96001 0
M  V30 5020 C 482.025 -1.65799 0.903117 0
M  V30 5021 O 481.382 -1.82135 -0.115317 0
M  V30 5022 C 481.433 -1.37112 3.34488 0
M  V30 5023 O 481.154 -0.415683 4.36123 0
M  V30 5024 C 482.655 -2.15257 3.8753 0
M  V30 5025 H 479.875 -0.18287 0.6456 0
M  V30 5026 H 482.419 0.0858116 2.0432 0
M  V30 5027 H 480.574 -2.07101 3.27395 0
M  V30 5028 H 480.988 -0.918496 5.16395 0
M  V30 5029 H 482.462 -2.60285 4.86781 0
M  V30 5030 H 482.939 -2.99063 3.21649 0
M  V30 5031 H 483.545 -1.50231 3.97883 0
M  V30 5032 N 481.861 -1.55662 -0.24637 0
M  V30 5033 C 482.824 -1.89558 -1.28842 0
M  V30 5034 C 483.824 -0.772082 -1.41052 0
M  V30 5035 O 485.014 -1.04007 -1.39743 0
M  V30 5036 C 482.146 -2.12449 -2.66605 0
M  V30 5037 H 483.339 -2.82735 -1.00004 0
M  V30 5038 H 480.892 -1.48562 -0.485684 0
M  V30 5039 H 481.627 -1.21742 -3.00582 0
M  V30 5040 H 481.412 -2.94273 -2.59125 0
M  V30 5041 H 482.902 -2.39854 -3.41847 0
M  V30 5042 N 483.339 0.512053 -1.4905 0
M  V30 5043 C 484.249 1.64139 -1.67617 0
M  V30 5044 C 485.265 1.64786 -0.558701 0
M  V30 5045 O 486.441 1.8341 -0.832034 0
M  V30 5046 C 483.506 3.00548 -1.72835 0
M  V30 5047 C 482.567 3.10615 -2.96339 0
M  V30 5048 C 481.8 4.40517 -3.01298 0
M  V30 5049 O 482.023 5.28671 -2.14157 0
M  V30 5050 O 480.957 4.55325 -3.93653 0
M  V30 5051 H 484.783 1.51407 -2.63267 0
M  V30 5052 H 482.368 0.687131 -1.32661 0
M  V30 5053 H 484.25 3.81641 -1.78683 0
M  V30 5054 H 482.925 3.13566 -0.803616 0
M  V30 5055 H 481.832 2.2875 -2.96014 0
M  V30 5056 H 483.165 3.0252 -3.88256 0
M  V30 5057 N 484.817 1.37938 0.762283 0
M  V30 5058 C 485.764 1.34467 1.87583 0
M  V30 5059 C 486.734 0.208633 1.64785 0
M  V30 5060 O 487.919 0.399494 1.86571 0
M  V30 5061 C 485.059 1.16692 3.24772 0
M  V30 5062 C 484.172 2.39608 3.59461 0
M  V30 5063 C 483.307 2.14631 4.85908 0
M  V30 5064 C 482.346 3.33364 5.13357 0
M  V30 5065 N 481.483 3.07877 6.30996 0
M  V30 5066 H 486.323 2.29669 1.89885 0
M  V30 5067 H 483.86 1.14116 0.928219 0
M  V30 5068 H 485.818 1.04405 4.03925 0
M  V30 5069 H 484.448 0.251333 3.2182 0
M  V30 5070 H 483.5 2.626 2.75219 0
M  V30 5071 H 484.812 3.28128 3.75678 0
M  V30 5072 H 483.966 1.99429 5.72986 0
M  V30 5073 H 482.705 1.23463 4.71814 0
M  V30 5074 H 481.71 3.49094 4.24751 0
M  V30 5075 H 482.935 4.25395 5.29354 0
M  V30 5076 H 480.881 2.19348 6.18241 0
M  V30 5077 H 480.798 3.89944 6.47673 0
M  V30 5078 H 482.066 2.96313 7.20985 0
M  V30 5079 N 486.295 -0.989507 1.22664 0
M  V30 5080 C 487.541 -1.7321 1.05481 0
M  V30 5081 C 487.874 -1.89852 -0.408635 0
M  V30 5082 O 487.149 -1.44416 -1.30285 0
M  V30 5083 C 487.432 -3.1357 1.77047 0
M  V30 5084 C 487.285 -3.04555 3.31008 0
M  V30 5085 C 488.604 -4.12812 1.5256 0
M  V30 5086 H 485.723 -0.628697 0.384589 0
M  V30 5087 H 488.365 -1.15258 1.51049 0
M  V30 5088 H 486.515 -3.63046 1.3831 0
M  V30 5089 H 488.187 -2.62674 3.7921 0
M  V30 5090 H 486.43 -2.41278 3.6051 0
M  V30 5091 H 487.101 -4.03894 3.76263 0
M  V30 5092 H 489.577 -3.72106 1.86215 0
M  V30 5093 H 488.453 -5.09132 2.05124 0
M  V30 5094 H 488.714 -4.39711 0.458936 0
M  V30 5095 N 487.773 -1.03688 -1.18687 0
M  V30 5096 C 488.703 -0.645407 -2.24403 0
M  V30 5097 C 489.684 0.349511 -1.66471 0
M  V30 5098 O 490.869 0.230453 -1.92828 0
M  V30 5099 C 487.999 -0.00365337 -3.473 0
M  V30 5100 C 486.953 -0.921705 -4.17958 0
M  V30 5101 C 486.279 -0.144629 -5.34504 0
M  V30 5102 C 487.579 -2.23909 -4.71871 0
M  V30 5103 H 489.273 -1.52917 -2.57404 0
M  V30 5104 H 486.819 -0.736711 -1.23728 0
M  V30 5105 H 488.772 0.281908 -4.20456 0
M  V30 5106 H 487.496 0.914963 -3.13522 0
M  V30 5107 H 486.155 -1.19159 -3.46694 0
M  V30 5108 H 485.803 0.776274 -4.96974 0
M  V30 5109 H 485.503 -0.756206 -5.82714 0
M  V30 5110 H 487.027 0.134004 -6.10453 0
M  V30 5111 H 488.441 -2.0145 -5.36741 0
M  V30 5112 H 486.838 -2.8033 -5.30599 0
M  V30 5113 H 487.908 -2.88822 -3.895 0
M  V30 5114 N 489.251 1.34841 -0.815825 0
M  V30 5115 C 490.528 1.92908 -0.323416 0
M  V30 5116 C 490.908 1.74479 1.18828 0
M  V30 5117 O 490.256 1.11928 1.99209 0
M  V30 5118 C 490.466 3.40957 -0.744952 0
M  V30 5119 C 491.814 4.18107 -0.739716 0
M  V30 5120 O 492.838 3.49511 -0.68708 0
M  V30 5121 O 491.697 5.40517 -0.806456 0
M  V30 5122 H 488.791 0.822436 -0.0867646 0
M  V30 5123 H 491.337 1.4386 -0.90014 0
M  V30 5124 H 490.109 3.4814 -1.78646 0
M  V30 5125 H 489.732 3.97341 -0.143535 0
M  V30 5126 N 490.729 0.570148 1.46925 0
M  V30 5127 C 491.639 -0.173061 2.33961 0
M  V30 5128 C 492.655 -0.898825 1.48987 0
M  V30 5129 O 493.831 -0.864825 1.81887 0
M  V30 5130 C 490.896 -1.18177 3.25937 0
M  V30 5131 C 489.957 -0.462041 4.26806 0
M  V30 5132 C 489.19 -1.4227 5.14388 0
M  V30 5133 O 489.413 -2.65842 5.04662 0
M  V30 5134 O 488.347 -0.940127 5.94513 0
M  V30 5135 H 492.173 0.541216 2.98839 0
M  V30 5136 H 489.758 0.330647 1.45695 0
M  V30 5137 H 491.64 -1.76372 3.82715 0
M  V30 5138 H 490.315 -1.87774 2.63671 0
M  V30 5139 H 489.222 0.161429 3.73752 0
M  V30 5140 H 490.555 0.192719 4.91823 0
M  V30 5141 N 492.207 -1.54576 0.307264 0
M  V30 5142 C 493.453 -2.0056 -0.300612 0
M  V30 5143 C 493.786 -1.1953 -1.53057 0
M  V30 5144 O 493.061 -0.27337 -1.92569 0
M  V30 5145 C 493.344 -3.54167 -0.650987 0
M  V30 5146 C 493.197 -4.45933 0.588539 0
M  V30 5147 C 494.516 -4.14645 -1.47506 0
M  V30 5148 H 491.635 -0.729075 -0.107788 0
M  V30 5149 H 494.277 -1.85286 0.420606 0
M  V30 5150 H 492.427 -3.67313 -1.26544 0
M  V30 5151 H 494.099 -4.44683 1.22697 0
M  V30 5152 H 492.342 -4.16274 1.22058 0
M  V30 5153 H 493.013 -5.51189 0.299153 0
M  V30 5154 H 495.489 -4.04973 -0.955821 0
M  V30 5155 H 494.365 -5.22269 -1.68899 0
M  V30 5156 H 494.626 -3.66921 -2.4662 0
M  V30 5157 N 493.685 -0.035106 -1.57561 0
M  V30 5158 C 494.933 0.64096 -1.91667 0
M  V30 5159 C 495.254 1.72323 -0.912681 0
M  V30 5160 O 494.524 1.95849 0.0449089 0
M  V30 5161 H 493.104 0.239743 -0.707483 0
M  V30 5162 H 495.766 -0.084321 -1.94718 0
M  V30 5163 H 494.862 1.08987 -2.92452 0
M  V30 5164 N 495.163 1.55791 0.238111 0
M  V30 5165 C 496.412 1.77234 0.962868 0
M  V30 5166 C 496.725 0.600661 1.86149 0
M  V30 5167 O 497.931 0.698315 2.62366 0
M  V30 5168 C 496.387 3.13808 1.76218 0
M  V30 5169 C 495.995 4.3865 0.910518 0
M  V30 5170 C 497.739 3.44585 2.47914 0
M  V30 5171 C 495.646 5.66252 1.70623 0
M  V30 5172 H 494.576 0.660731 0.36325 0
M  V30 5173 H 497.227 1.8221 0.217242 0
M  V30 5174 H 495.609 3.02963 2.55009 0
M  V30 5175 H 496.783 4.60507 0.164316 0
M  V30 5176 H 495.098 4.15271 0.30647 0
M  V30 5177 H 497.695 4.3714 3.07917 0
M  V30 5178 H 498.038 2.66314 3.19973 0
M  V30 5179 H 498.571 3.56685 1.76127 0
M  V30 5180 H 495.31 6.47369 1.02923 0
M  V30 5181 H 494.83 5.48483 2.42748 0
M  V30 5182 H 496.509 6.05829 2.27114 0
M  V30 5183 N 496.642 -0.504142 1.49319 0
M  V30 5184 C 497.87 -1.28256 1.62351 0
M  V30 5185 C 498.285 -1.86502 0.293682 0
M  V30 5186 O 497.642 -1.67678 -0.720449 0
M  V30 5187 C 497.693 -2.41507 2.68992 0
M  V30 5188 O 497.414 -1.85656 3.96817 0
M  V30 5189 C 498.915 -3.32929 2.927 0
M  V30 5190 H 496.135 -0.389115 0.546654 0
M  V30 5191 H 498.679 -0.605531 1.95329 0
M  V30 5192 H 496.834 -3.05046 2.38801 0
M  V30 5193 H 497.248 -2.59981 4.55533 0
M  V30 5194 H 498.722 -4.0868 3.71058 0
M  V30 5195 H 499.199 -3.89733 2.02496 0
M  V30 5196 H 499.805 -2.75158 3.24296 0
M  V30 5197 N 498.12 -1.38341 -0.754957 0
M  V30 5198 C 499.366 -1.34672 -1.51628 0
M  V30 5199 C 499.699 0.0636036 -1.94096 0
M  V30 5200 O 498.974 1.0245 -1.6533 0
M  V30 5201 C 499.257 -2.30116 -2.76981 0
M  V30 5202 C 499.11 -3.80003 -2.4066 0
M  V30 5203 C 500.429 -2.23715 -3.78998 0
M  V30 5204 H 497.548 -0.490517 -0.550056 0
M  V30 5205 H 500.19 -1.69178 -0.864807 0
M  V30 5206 H 498.34 -2.00821 -3.3257 0
M  V30 5207 H 500.012 -4.19966 -1.90856 0
M  V30 5208 H 498.255 -3.97751 -1.73137 0
M  V30 5209 H 498.926 -4.42244 -3.30339 0
M  V30 5210 H 501.402 -2.49574 -3.32945 0
M  V30 5211 H 500.278 -2.9261 -4.64403 0
M  V30 5212 H 500.539 -1.23554 -4.24484 0
M  V30 5213 N 499.598 0.982988 -1.23187 0
M  V30 5214 C 500.546 2.09616 -1.00817 0
M  V30 5215 C 501.54 1.6932 0.0519995 0
M  V30 5216 O 502.746 1.79715 -0.101284 0
M  V30 5217 H 499.121 0.685628 -0.308899 0
M  V30 5218 H 501.092 2.25652 -1.95253 0
M  V30 5219 C 499.841 3.42249 -0.613243 0
M  V30 5220 H 499.164 3.73705 -1.42073 0
M  V30 5221 H 500.604 4.21086 -0.496208 0
M  V30 5222 C 499.063 3.30002 0.678233 0
M  V30 5223 O 499.593 3.6263 1.72807 0
M  V30 5224 N 497.799 2.83164 0.653165 0
M  V30 5225 H 497.346 2.56811 -0.201492 0
M  V30 5226 H 497.304 2.75352 1.51752 0
M  V30 5227 N 501.076 1.04316 1.18135 0
M  V30 5228 C 502.023 0.636398 2.21853 0
M  V30 5229 C 502.993 -0.357039 1.62217 0
M  V30 5230 O 504.178 -0.250453 1.89149 0
M  V30 5231 C 501.318 0.00812779 3.45099 0
M  V30 5232 C 500.431 1.04933 4.19062 0
M  V30 5233 C 499.566 0.389313 5.29771 0
M  V30 5234 C 498.605 1.41544 5.9551 0
M  V30 5235 N 497.742 0.78021 6.97751 0
M  V30 5236 H 502.582 1.52536 2.56002 0
M  V30 5237 H 500.119 0.76304 1.25762 0
M  V30 5238 H 502.077 -0.373497 4.15525 0
M  V30 5239 H 500.707 -0.844336 3.11562 0
M  V30 5240 H 499.759 1.54888 3.47439 0
M  V30 5241 H 501.071 1.82862 4.64072 0
M  V30 5242 H 500.225 -0.0463805 6.06682 0
M  V30 5243 H 498.964 -0.422038 4.8587 0
M  V30 5244 H 497.969 1.86124 5.17337 0
M  V30 5245 H 499.194 2.22854 6.41493 0
M  V30 5246 H 497.14 -0.0107899 6.55999 0
M  V30 5247 H 497.057 1.49716 7.41027 0
M  V30 5248 H 498.325 0.368996 7.78626 0
M  V30 5249 N 502.554 -1.34406 0.822964 0
M  V30 5250 C 503.502 -2.31428 0.233165 0
M  V30 5251 C 504.496 -1.57404 -0.626118 0
M  V30 5252 O 505.702 -1.72402 -0.517453 0
M  V30 5253 H 502.077 -0.749863 0.0566557 0
M  V30 5254 H 504.048 -2.78699 1.06628 0
M  V30 5255 C 502.797 -3.42653 -0.590264 0
M  V30 5256 H 502.12 -3.99753 0.0616129 0
M  V30 5257 H 503.56 -4.12778 -0.969054 0
M  V30 5258 C 502.019 -2.87112 -1.76262 0
M  V30 5259 O 502.549 -2.81995 -2.8608 0
M  V30 5260 N 500.755 -2.43934 -1.57938 0
M  V30 5261 H 500.302 -2.48296 -0.686078 0
M  V30 5262 H 500.26 -2.07123 -2.36532 0
M  V30 5263 N 504.032 -0.577932 -1.46621 0
M  V30 5264 C 505.26 -0.0671642 -2.06791 0
M  V30 5265 C 505.675 1.23571 -1.42743 0
M  V30 5266 O 505.032 1.74602 -0.531062 0
M  V30 5267 C 505.083 0.110357 -3.61332 0
M  V30 5268 O 504.804 -1.14095 -4.22982 0
M  V30 5269 C 506.305 0.656025 -4.38419 0
M  V30 5270 H 503.525 -0.0552732 -0.66872 0
M  V30 5271 H 506.069 -0.797242 -1.8832 0
M  V30 5272 H 504.224 0.790637 -3.79246 0
M  V30 5273 H 504.638 -0.951742 -5.15793 0
M  V30 5274 H 506.112 0.729438 -5.47159 0
M  V30 5275 H 506.589 1.67195 -4.06131 0
M  V30 5276 H 507.195 0.0107692 -4.25299 0
M  V30 5277 N 505.51 1.54411 -0.315457 0
M  V30 5278 C 506.759 1.99599 0.290395 0
M  V30 5279 C 507.072 1.20746 1.53882 0
M  V30 5280 O 508.278 1.56272 2.22017 0
M  V30 5281 C 506.734 3.5539 0.56797 0
M  V30 5282 C 506.342 4.43068 -0.662945 0
M  V30 5283 C 508.086 4.09067 1.13422 0
M  V30 5284 C 505.993 5.90317 -0.357722 0
M  V30 5285 H 504.923 0.745592 0.112286 0
M  V30 5286 H 507.574 1.78477 -0.426418 0
M  V30 5287 H 505.956 3.72468 1.34476 0
M  V30 5288 H 507.13 4.37765 -1.43869 0
M  V30 5289 H 505.445 4.00238 -1.14884 0
M  V30 5290 H 508.042 5.16663 1.37707 0
M  V30 5291 H 508.385 3.60552 2.08106 0
M  V30 5292 H 508.918 3.95589 0.418805 0
M  V30 5293 H 505.657 6.4301 -1.27351 0
M  V30 5294 H 505.177 5.98592 0.380472 0
M  V30 5295 H 506.856 6.4699 0.0354284 0
M  V30 5296 N 506.988 0.0434614 1.5754 0
M  V30 5297 C 508.399 -0.493343 1.80064 0
M  V30 5298 C 508.75 -1.71388 0.955023 0
M  V30 5299 O 507.875 -2.15736 0.169434 0
M  V30 5300 C 508.47 -0.90179 3.26578 0
M  V30 5301 C 507.029 -1.38362 3.50047 0
M  V30 5302 C 506.176 -0.355129 2.75017 0
M  V30 5303 H 509.127 0.2694 1.56397 0
M  V30 5304 H 509.148 -1.76523 3.37075 0
M  V30 5305 H 508.66 -0.013271 3.88098 0
M  V30 5306 H 506.761 -2.29159 2.93798 0
M  V30 5307 H 506.874 -1.3811 4.58762 0
M  V30 5308 H 505.238 -0.826348 2.40922 0
M  V30 5309 H 506.021 0.525172 3.39259 0
M  V30 5310 N 508.466 -1.55915 -0.229846 0
M  V30 5311 C 509.696 -1.82352 -0.971152 0
M  V30 5312 C 510.104 -0.619231 -1.7878 0
M  V30 5313 O 509.447 0.421597 -1.78797 0
M  V30 5314 C 509.509 -3.02399 -1.9441 0
M  V30 5315 C 509.173 -4.37739 -1.31277 0
M  V30 5316 C 510.17 -5.15074 -0.706757 0
M  V30 5317 C 507.855 -4.84454 -1.32702 0
M  V30 5318 C 509.849 -6.37281 -0.123413 0
M  V30 5319 C 507.536 -6.06605 -0.739831 0
M  V30 5320 C 508.534 -6.82858 -0.139071 0
M  V30 5321 O 508.222 -8.027 0.439007 0
M  V30 5322 H 507.954 -0.61035 -0.290601 0
M  V30 5323 H 510.508 -2.03839 -0.252746 0
M  V30 5324 H 508.738 -2.76709 -2.70128 0
M  V30 5325 H 510.427 -3.15779 -2.55026 0
M  V30 5326 H 511.193 -4.80093 -0.688131 0
M  V30 5327 H 507.072 -4.25081 -1.78402 0
M  V30 5328 H 510.616 -6.96741 0.346124 0
M  V30 5329 H 506.513 -6.4106 -0.755841 0
M  V30 5330 H 507.281 -8.17824 0.332521 0
M  V30 5331 N 509.944 0.496216 -1.49584 0
M  V30 5332 C 511.221 1.25755 -1.49816 0
M  V30 5333 C 511.601 2.09859 -0.228572 0
M  V30 5334 O 510.949 2.14449 0.788908 0
M  V30 5335 C 511.159 2.11017 -2.7798 0
M  V30 5336 C 512.507 2.70047 -3.27658 0
M  V30 5337 O 513.531 2.21281 -2.79129 0
M  V30 5338 O 512.39 3.58834 -4.1219 0
M  V30 5339 H 509.484 0.569322 -0.599834 0
M  V30 5340 H 512.03 0.510094 -1.61852 0
M  V30 5341 H 510.802 1.48879 -3.61871 0
M  V30 5342 H 510.425 2.92947 -2.68827 0
M  V30 5343 N 511.423 1.38739 0.74761 0
M  V30 5344 C 512.834 1.31507 1.32524 0
M  V30 5345 C 513.185 -0.0263963 1.96182 0
M  V30 5346 O 512.31 -0.92849 1.95469 0
M  V30 5347 C 512.905 2.38162 2.40966 0
M  V30 5348 C 511.464 2.34489 2.94434 0
M  V30 5349 C 510.611 2.20712 1.67873 0
M  V30 5350 H 513.562 1.4901 0.546043 0
M  V30 5351 H 513.583 2.04222 3.21051 0
M  V30 5352 H 513.095 3.35783 1.94605 0
M  V30 5353 H 511.196 1.40467 3.45108 0
M  V30 5354 H 511.309 3.28861 3.48407 0
M  V30 5355 H 509.673 1.67667 1.91729 0
M  V30 5356 H 510.456 3.20285 1.23582 0
M  V30 5357 N 512.901 -0.976442 1.23707 0
M  V30 5358 C 513.811 -2.10359 1.03856 0
M  V30 5359 C 514.827 -1.73991 -0.0180919 0
M  V30 5360 O 516.003 -2.0061 0.178211 0
M  V30 5361 C 513.068 -3.40809 0.636387 0
M  V30 5362 C 512.129 -3.91179 1.76854 0
M  V30 5363 C 511.362 -5.15404 1.38546 0
M  V30 5364 O 511.585 -5.69754 0.27142 0
M  V30 5365 O 510.519 -5.5994 2.20797 0
M  V30 5366 H 514.345 -2.29997 1.98331 0
M  V30 5367 H 511.93 -1.08742 1.02448 0
M  V30 5368 H 513.812 -4.19269 0.423223 0
M  V30 5369 H 512.487 -3.22493 -0.279322 0
M  V30 5370 H 511.394 -3.13819 2.03638 0
M  V30 5371 H 512.727 -4.13958 2.6627 0
M  V30 5372 N 514.379 -1.04941 -1.1758 0
M  V30 5373 C 515.604 -0.778253 -1.92245 0
M  V30 5374 C 516.029 0.659707 -1.76152 0
M  V30 5375 O 515.387 1.45803 -1.07755 0
M  V30 5376 C 515.435 -1.16051 -3.41416 0
M  V30 5377 O 514.539 -0.291153 -4.11371 0
M  V30 5378 H 513.88 -0.285619 -0.599431 0
M  V30 5379 H 516.41 -1.40159 -1.49052 0
M  V30 5380 H 516.42 -1.12619 -3.92149 0
M  V30 5381 H 515.095 -2.208 -3.52449 0
M  V30 5382 H 513.672 -0.385851 -3.70898 0
M  V30 5383 N 515.857 1.33968 -0.830081 0
M  V30 5384 C 517.268 1.80439 -0.479455 0
M  V30 5385 C 517.619 1.68756 1.00079 0
M  V30 5386 O 516.744 1.23171 1.77927 0
M  V30 5387 C 517.339 3.27611 -0.863505 0
M  V30 5388 C 515.898 3.72133 -0.565145 0
M  V30 5389 C 515.045 2.55549 -1.07657 0
M  V30 5390 H 517.996 1.21614 -1.0196 0
M  V30 5391 H 518.017 3.8012 -0.170083 0
M  V30 5392 H 517.529 3.36082 -1.94089 0
M  V30 5393 H 515.63 3.69196 0.502536 0
M  V30 5394 H 515.743 4.65963 -1.11422 0
M  V30 5395 H 514.107 2.49788 -0.497807 0
M  V30 5396 H 514.89 2.66786 -2.16055 0
M  V30 5397 N 517.335 0.585699 1.46312 0
M  V30 5398 C 518.582 0.0724211 2.0237 0
M  V30 5399 C 518.91 -1.28868 1.45683 0
M  V30 5400 O 518.165 -1.85853 0.612945 0
M  V30 5401 C 518.464 -0.0401312 3.57377 0
M  V30 5402 C 518.13 1.25376 4.33119 0
M  V30 5403 C 516.792 1.60824 4.5353 0
M  V30 5404 C 519.144 2.10987 4.76586 0
M  V30 5405 C 516.472 2.81676 5.14661 0
M  V30 5406 C 518.824 3.31068 5.39052 0
M  V30 5407 C 517.488 3.66794 5.5769 0
M  V30 5408 H 516.758 0.0265007 0.740526 0
M  V30 5409 H 519.405 0.762935 1.75646 0
M  V30 5410 H 517.71 -0.813791 3.83255 0
M  V30 5411 H 519.407 -0.453078 3.98432 0
M  V30 5412 H 515.997 0.967808 4.1753 0
M  V30 5413 H 520.181 1.84904 4.60569 0
M  V30 5414 H 515.437 3.0949 5.27282 0
M  V30 5415 H 519.611 3.97672 5.71691 0
M  V30 5416 H 517.238 4.60529 6.04828 0
M  V30 5417 N 518.813 -1.54241 0.323641 0
M  V30 5418 C 520.059 -2.00867 -0.279323 0
M  V30 5419 C 520.392 -1.21146 -1.5178 0
M  V30 5420 O 519.667 -0.29378 -1.92269 0
M  V30 5421 C 519.95 -3.54837 -0.613387 0
M  V30 5422 C 519.803 -4.45284 0.635803 0
M  V30 5423 C 521.122 -4.16186 -1.43099 0
M  V30 5424 H 518.241 -0.730177 -0.100049 0
M  V30 5425 H 520.883 -1.84829 0.440235 0
M  V30 5426 H 519.033 -3.68634 -1.22641 0
M  V30 5427 H 520.705 -4.43357 1.27406 0
M  V30 5428 H 518.948 -4.14956 1.26466 0
M  V30 5429 H 519.619 -5.5084 0.357597 0
M  V30 5430 H 522.095 -4.05964 -0.912814 0
M  V30 5431 H 520.971 -5.24031 -1.6335 0
M  V30 5432 H 521.232 -3.69516 -2.42715 0
M  V30 5433 N 520.291 -0.0518155 -1.57515 0
M  V30 5434 C 521.519 0.631395 -1.9703 0
M  V30 5435 C 521.934 1.64341 -0.92938 0
M  V30 5436 O 521.291 1.82296 0.0863266 0
M  V30 5437 C 521.342 1.31774 -3.36627 0
M  V30 5438 O 521.063 0.346247 -4.3673 0
M  V30 5439 C 522.564 2.09065 -3.90905 0
M  V30 5440 H 519.784 0.172576 -0.648428 0
M  V30 5441 H 522.328 -0.118306 -2.04158 0
M  V30 5442 H 520.483 2.01867 -3.30649 0
M  V30 5443 H 520.897 0.836226 -5.17791 0
M  V30 5444 H 522.371 2.52508 -4.9086 0
M  V30 5445 H 522.848 2.93908 -3.26366 0
M  V30 5446 H 523.454 1.43882 -4.00223 0
M  V30 5447 N 521.769 1.56035 0.221574 0
M  V30 5448 C 522.994 1.83476 0.967026 0
M  V30 5449 C 523.419 0.632139 1.7716 0
M  V30 5450 O 522.777 -0.419082 1.7639 0
M  V30 5451 C 522.825 3.08907 1.86034 0
M  V30 5452 O 521.929 2.876 2.95567 0
M  V30 5453 H 521.27 0.604913 0.273817 0
M  V30 5454 H 523.8 2.03247 0.234893 0
M  V30 5455 H 523.81 3.3901 2.27016 0
M  V30 5456 H 522.485 3.96068 1.26898 0
M  V30 5457 H 521.062 2.6873 2.58532 0
M  V30 5458 N 523.247 -0.488276 1.49845 0
M  V30 5459 C 524.495 -1.23911 1.59657 0
M  V30 5460 C 524.816 -1.92816 0.291005 0
M  V30 5461 O 524.086 -1.83328 -0.690485 0
M  V30 5462 H 522.666 -0.460357 0.588286 0
M  V30 5463 H 525.328 -0.564794 1.86537 0
M  V30 5464 H 524.424 -1.99625 2.39909 0
M  V30 5465 N 524.725 -1.39134 -0.740242 0
M  V30 5466 C 525.974 -1.35384 -1.49512 0
M  V30 5467 C 526.287 0.04919 -1.95538 0
M  V30 5468 O 527.493 0.209257 -2.70692 0
M  V30 5469 C 525.949 -2.37812 -2.70136 0
M  V30 5470 C 525.557 -3.83804 -2.31081 0
M  V30 5471 C 527.301 -2.4313 -3.47977 0
M  V30 5472 C 525.208 -4.77886 -3.48395 0
M  V30 5473 H 524.138 -0.503297 -0.561434 0
M  V30 5474 H 526.789 -1.64754 -0.807974 0
M  V30 5475 H 525.171 -2.01505 -3.40899 0
M  V30 5476 H 526.345 -4.29123 -1.67898 0
M  V30 5477 H 524.66 -3.81732 -1.66343 0
M  V30 5478 H 527.257 -3.10614 -4.35228 0
M  V30 5479 H 527.6 -1.45423 -3.90074 0
M  V30 5480 H 528.133 -2.78304 -2.84239 0
M  V30 5481 H 524.872 -5.76836 -3.11353 0
M  V30 5482 H 524.392 -4.3725 -4.10576 0
M  V30 5483 H 526.071 -4.96538 -4.148 0
M  V30 5484 N 526.204 0.969867 -1.24223 0
M  V30 5485 C 527.62 1.23809 -1.00716 0
M  V30 5486 C 527.82 1.99469 0.285358 0
M  V30 5487 O 526.876 2.31764 1.00207 0
M  V30 5488 C 528.189 2.02734 -2.2208 0
M  V30 5489 C 529.737 2.15834 -2.26681 0
M  V30 5490 C 530.212 2.98154 -3.47661 0
M  V30 5491 N 531.703 3.05737 -3.47964 0
M  V30 5492 C 532.438 3.69785 -4.38231 0
M  V30 5493 N 531.934 4.35569 -5.3875 0
M  V30 5494 N 533.727 3.66775 -4.25949 0
M  V30 5495 H 525.878 0.463294 -2.07286 0
M  V30 5496 H 528.141 0.267348 -0.909521 0
M  V30 5497 H 527.847 1.54524 -3.15935 0
M  V30 5498 H 527.721 3.0347 -2.24021 0
M  V30 5499 H 530.108 2.63248 -1.33359 0
M  V30 5500 H 530.189 1.14453 -2.28767 0
M  V30 5501 H 529.833 2.51435 -4.41297 0
M  V30 5502 H 529.763 3.99729 -3.42818 0
M  V30 5503 H 532.254 2.58941 -2.75242 0
M  V30 5504 H 532.567 4.82251 -6.03866 0
M  V30 5505 H 530.912 4.34244 -5.42639 0
M  V30 5506 H 534.103 3.14558 -3.46657 0
M  V30 5507 H 534.276 4.16407 -4.96497 0
M  V30 5508 N 527.682 1.05563 1.17022 0
M  V30 5509 C 528.931 0.763036 1.8671 0
M  V30 5510 C 529.244 -0.712857 1.82147 0
M  V30 5511 O 530.45 -1.11955 2.47343 0
M  V30 5512 C 528.906 1.31474 3.35026 0
M  V30 5513 C 528.514 2.82034 3.48081 0
M  V30 5514 C 530.258 1.09935 4.10018 0
M  V30 5515 C 528.165 3.30486 4.90442 0
M  V30 5516 H 527.095 0.281747 0.699382 0
M  V30 5517 H 529.746 1.2734 1.32124 0
M  V30 5518 H 528.128 0.732171 3.89173 0
M  V30 5519 H 529.302 3.46178 3.04133 0
M  V30 5520 H 527.617 3.02156 2.86515 0
M  V30 5521 H 530.214 1.43632 5.15048 0
M  V30 5522 H 530.557 0.0373072 4.16283 0
M  V30 5523 H 531.09 1.64732 3.62089 0
M  V30 5524 H 527.829 4.36137 4.89352 0
M  V30 5525 H 527.349 2.71086 5.35044 0
M  V30 5526 H 529.028 3.25382 5.59227 0
M  V30 5527 N 529.16 -1.33526 0.837174 0
M  V30 5528 C 530.408 -1.97446 0.431211 0
M  V30 5529 C 530.729 -1.6665 -1.01255 0
M  V30 5530 O 529.999 -0.964559 -1.70508 0
M  V30 5531 H 528.579 -0.73043 0.156463 0
M  V30 5532 H 531.241 -1.62918 1.06976 0
M  V30 5533 H 530.337 -3.07001 0.561877 0
M  V30 5534 N 530.638 -0.59345 -1.46 0
M  V30 5535 C 531.866 -0.0890934 -2.06708 0
M  V30 5536 C 532.281 1.2205 -1.44046 0
M  V30 5537 O 531.638 1.74029 -0.549551 0
M  V30 5538 C 531.689 0.0720263 -3.61428 0
M  V30 5539 O 531.41 -1.18574 -4.21748 0
M  V30 5540 C 532.911 0.609487 -4.3909 0
M  V30 5541 H 530.131 -0.0623628 -0.668096 0
M  V30 5542 H 532.675 -0.817171 -1.87464 0
M  V30 5543 H 530.83 0.750369 -3.80063 0
M  V30 5544 H 531.244 -1.0064 -5.14754 0
M  V30 5545 H 532.718 0.671363 -5.47902 0
M  V30 5546 H 533.195 1.62878 -4.07882 0
M  V30 5547 H 533.801 -0.03434 -4.25286 0
M  V30 5548 N 532.116 1.54067 -0.331816 0
M  V30 5549 C 533.079 2.23275 0.517768 0
M  V30 5550 C 534.079 1.22897 1.03697 0
M  V30 5551 O 535.269 1.47419 0.928084 0
M  V30 5552 C 532.401 2.94326 1.72004 0
M  V30 5553 H 533.594 2.99773 -0.0873507 0
M  V30 5554 H 531.147 1.56079 -0.0830042 0
M  V30 5555 H 531.882 2.21986 2.36417 0
M  V30 5556 H 531.667 3.67941 1.35507 0
M  V30 5557 H 533.157 3.47031 2.32291 0
M  V30 5558 N 533.594 0.0601682 1.57485 0
M  V30 5559 C 534.557 -0.896373 2.10945 0
M  V30 5560 C 535.557 -1.23402 1.03095 0
M  V30 5561 O 536.747 -1.16921 1.29132 0
M  V30 5562 C 533.879 -2.20346 2.60116 0
M  V30 5563 H 535.072 -0.432778 2.96761 0
M  V30 5564 H 532.625 -0.188372 1.55161 0
M  V30 5565 H 533.36 -2.71268 1.7772 0
M  V30 5566 H 533.145 -1.9714 3.38937 0
M  V30 5567 H 534.635 -2.88846 3.01592 0
M  V30 5568 N 535.072 -1.5615 -0.213296 0
M  V30 5569 C 536.318 -1.79812 -0.937849 0
M  V30 5570 C 536.651 -0.631201 -1.83656 0
M  V30 5571 O 535.926 0.369165 -1.90964 0
M  V30 5572 C 536.209 -3.13613 -1.76972 0
M  V30 5573 C 536.062 -4.40766 -0.89695 0
M  V30 5574 C 537.381 -3.43931 -2.7459 0
M  V30 5575 H 534.5 -0.654138 -0.339518 0
M  V30 5576 H 537.142 -1.88877 -0.20623 0
M  V30 5577 H 535.292 -3.06015 -2.39347 0
M  V30 5578 H 536.964 -4.60392 -0.289306 0
M  V30 5579 H 535.207 -4.33326 -0.202756 0
M  V30 5580 H 535.878 -5.30843 -1.51358 0
M  V30 5581 H 538.354 -3.5171 -2.22349 0
M  V30 5582 H 537.23 -4.38706 -3.29891 0
M  V30 5583 H 537.491 -2.6651 -3.52739 0
M  V30 5584 N 536.55 0.480323 -1.50102 0
M  V30 5585 C 537.778 1.25657 -1.64371 0
M  V30 5586 C 538.193 1.86011 -0.323316 0
M  V30 5587 O 537.55 1.68803 0.693682 0
M  V30 5588 C 537.601 2.37197 -2.728 0
M  V30 5589 O 537.322 1.7932 -3.9972 0
M  V30 5590 C 538.823 3.2823 -2.9796 0
M  V30 5591 H 536.043 0.380369 -0.552775 0
M  V30 5592 H 538.587 0.574379 -1.96268 0
M  V30 5593 H 536.742 3.01208 -2.43623 0
M  V30 5594 H 537.156 2.52701 -4.59611 0
M  V30 5595 H 538.63 4.02725 -3.77513 0
M  V30 5596 H 539.107 3.86462 -2.08671 0
M  V30 5597 H 539.713 2.69964 -3.28633 0
M  V30 5598 N 538.028 1.39524 0.732853 0
M  V30 5599 C 539.256 1.40143 1.52209 0
M  V30 5600 C 539.671 -0.00348836 1.888 0
M  V30 5601 O 539.028 -0.975357 1.5425 0
M  V30 5602 C 539.079 2.27632 2.8083 0
M  V30 5603 O 538.8 3.62654 2.45792 0
M  V30 5604 C 540.301 2.36658 3.74844 0
M  V30 5605 H 537.521 0.478604 0.470297 0
M  V30 5606 H 540.065 1.83366 0.905388 0
M  V30 5607 H 538.22 1.87818 3.38826 0
M  V30 5608 H 538.634 4.08941 3.28431 0
M  V30 5609 H 540.108 3.02118 4.61984 0
M  V30 5610 H 540.585 1.38638 4.16745 0
M  V30 5611 H 541.191 2.76951 3.22766 0
M  V30 5612 N 539.506 -0.963266 1.24736 0
M  V30 5613 C 540.922 -1.23273 1.01371 0
M  V30 5614 C 541.122 -1.99618 -0.274776 0
M  V30 5615 O 540.178 -2.32293 -0.989769 0
M  V30 5616 C 541.491 -2.01554 2.23152 0
M  V30 5617 C 543.039 -2.14629 2.27823 0
M  V30 5618 C 543.514 -2.96307 3.49237 0
M  V30 5619 N 545.005 -3.03887 3.49581 0
M  V30 5620 C 545.74 -3.67456 4.40186 0
M  V30 5621 N 545.236 -4.32706 5.41052 0
M  V30 5622 N 547.029 -3.64511 4.27888 0
M  V30 5623 H 539.18 -0.452294 2.07528 0
M  V30 5624 H 541.443 -0.262521 0.910926 0
M  V30 5625 H 541.149 -1.52847 3.1675 0
M  V30 5626 H 541.023 -3.02278 2.25628 0
M  V30 5627 H 543.41 -2.62537 1.34753 0
M  V30 5628 H 543.491 -1.13238 2.2937 0
M  V30 5629 H 543.135 -2.49091 4.42624 0
M  V30 5630 H 543.065 -3.97905 3.44933 0
M  V30 5631 H 545.556 -2.57477 2.76611 0
M  V30 5632 H 545.869 -4.79042 6.06415 0
M  V30 5633 H 544.214 -4.31361 5.44934 0
M  V30 5634 H 547.405 -3.12715 3.4832 0
M  V30 5635 H 547.578 -4.13768 4.98698 0
M  V30 5636 N 540.985 -1.06182 -1.16461 0
M  V30 5637 C 542.233 -0.776326 -1.86595 0
M  V30 5638 C 542.554 0.69921 -1.82033 0
M  V30 5639 O 541.824 1.50579 -1.2531 0
M  V30 5640 H 540.404 -0.284184 -0.690832 0
M  V30 5641 H 543.066 -1.34308 -1.41235 0
M  V30 5642 H 542.162 -1.10022 -2.92064 0
M  V30 5643 N 542.463 1.3308 -0.844243 0
M  V30 5644 C 543.71 1.97605 -0.44255 0
M  V30 5645 C 544.038 1.66856 0.999458 0
M  V30 5646 O 543.293 0.943586 1.7145 0
M  V30 5647 C 543.592 3.52045 -0.616354 0
M  V30 5648 C 543.258 4.02757 -2.02726 0
M  V30 5649 C 541.92 4.16316 -2.41317 0
M  V30 5650 C 544.272 4.29776 -2.9486 0
M  V30 5651 C 541.6 4.54232 -3.71335 0
M  V30 5652 C 543.952 4.69146 -4.24364 0
M  V30 5653 C 542.616 4.80911 -4.62904 0
M  V30 5654 H 541.886 0.723088 -0.161941 0
M  V30 5655 H 544.533 1.58663 -1.0723 0
M  V30 5656 H 542.838 3.91681 0.0966812 0
M  V30 5657 H 544.535 3.99981 -0.285756 0
M  V30 5658 H 541.125 3.9268 -1.71756 0
M  V30 5659 H 545.309 4.18818 -2.6628 0
M  V30 5660 H 540.565 4.61535 -4.00993 0
M  V30 5661 H 544.739 4.89008 -4.95827 0
M  V30 5662 H 542.366 5.10048 -5.63698 0
M  V30 5663 N 543.941 0.601185 1.45683 0
M  V30 5664 C 545.189 0.0936957 2.01883 0
M  V30 5665 C 545.51 -1.2779 1.47291 0
M  V30 5666 O 544.78 -1.84279 0.664691 0
M  V30 5667 H 543.36 0.0316466 0.746329 0
M  V30 5668 H 546.022 0.781137 1.78562 0
M  V30 5669 H 545.118 0.0386297 3.12076 0
M  V30 5670 N 545.419 -1.53889 0.339982 0
M  V30 5671 C 546.349 -2.27843 -0.510856 0
M  V30 5672 C 547.33 -1.29267 -1.10563 0
M  V30 5673 O 548.515 -1.58104 -1.12768 0
M  V30 5674 C 545.645 -3.04857 -1.66372 0
M  V30 5675 C 544.599 -4.10907 -1.19746 0
M  V30 5676 C 543.925 -4.75855 -2.43857 0
M  V30 5677 C 545.225 -5.21435 -0.300501 0
M  V30 5678 H 546.919 -2.99212 0.106067 0
M  V30 5679 H 544.465 -1.43904 0.0524533 0
M  V30 5680 H 546.418 -3.5533 -2.26537 0
M  V30 5681 H 545.142 -2.31133 -2.30749 0
M  V30 5682 H 543.801 -3.61342 -0.618654 0
M  V30 5683 H 543.449 -3.9873 -3.06633 0
M  V30 5684 H 543.149 -5.47502 -2.13343 0
M  V30 5685 H 544.673 -5.2911 -3.04754 0
M  V30 5686 H 546.087 -5.67565 -0.80889 0
M  V30 5687 H 544.484 -6.00036 -0.0874076 0
M  V30 5688 H 545.554 -4.80328 0.664321 0
M  V30 5689 N 546.897 -0.0685191 -1.57451 0
M  V30 5690 C 547.807 0.914677 -2.16034 0
M  V30 5691 C 548.823 1.32938 -1.12265 0
M  V30 5692 O 549.999 1.40275 -1.44516 0
M  V30 5693 C 547.064 2.16519 -2.70777 0
M  V30 5694 C 546.125 1.80721 -3.89408 0
M  V30 5695 C 545.358 2.9981 -4.41531 0
M  V30 5696 O 545.581 4.13727 -3.92666 0
M  V30 5697 O 544.515 2.79817 -5.32903 0
M  V30 5698 H 548.341 0.446364 -3.00402 0
M  V30 5699 H 545.926 0.154367 -1.486 0
M  V30 5700 H 547.808 2.89856 -3.05878 0
M  V30 5701 H 546.483 2.62454 -1.89471 0
M  V30 5702 H 545.39 1.04646 -3.59166 0
M  V30 5703 H 546.723 1.39571 -4.71997 0
M  V30 5704 N 548.375 1.56261 0.205012 0
M  V30 5705 C 549.285 1.96944 1.27476 0
M  V30 5706 C 550.301 0.875636 1.50362 0
M  V30 5707 O 551.477 1.18058 1.6317 0
M  V30 5708 C 548.542 2.29219 2.60115 0
M  V30 5709 C 547.603 3.52255 2.45387 0
M  V30 5710 C 546.836 3.8298 3.71701 0
M  V30 5711 O 547.059 3.15138 4.75441 0
M  V30 5712 O 545.993 4.76435 3.67823 0
M  V30 5713 H 549.819 2.88144 0.959527 0
M  V30 5714 H 547.404 1.43686 0.409217 0
M  V30 5715 H 549.286 2.51098 3.3842 0
M  V30 5716 H 547.961 1.4119 2.91285 0
M  V30 5717 H 546.868 3.35635 1.65227 0
M  V30 5718 H 548.201 4.40719 2.19152 0
M  V30 5719 N 549.853 -0.472356 1.50355 0
M  V30 5720 C 550.786 -1.58923 1.63764 0
M  V30 5721 C 551.764 -1.55173 0.485793 0
M  V30 5722 O 552.948 -1.74815 0.705132 0
M  V30 5723 C 550.075 -2.97497 1.61905 0
M  V30 5724 C 549.121 -3.19405 2.82635 0
M  V30 5725 S 549.954 -2.99441 4.43954 0
M  V30 5726 C 551.11 -4.40359 4.44786 0
M  V30 5727 H 551.343 -1.47309 2.58239 0
M  V30 5728 H 548.876 -0.659601 1.39602 0
M  V30 5729 H 550.834 -3.77389 1.61518 0
M  V30 5730 H 549.495 -3.06502 0.686683 0
M  V30 5731 H 548.688 -4.20636 2.77636 0
M  V30 5732 H 548.29 -2.47283 2.80583 0
M  V30 5733 H 550.582 -5.32969 4.1827 0
M  V30 5734 H 551.525 -4.50403 5.46391 0
M  V30 5735 H 551.933 -4.22378 3.74509 0
M  V30 5736 N 551.331 -1.39911 -0.725443 0
M  V30 5737 C 552.608 -1.28158 -1.47766 0
M  V30 5738 C 552.988 0.104545 -2.10841 0
M  V30 5739 O 552.336 1.11657 -1.99361 0
M  V30 5740 C 552.546 -2.41306 -2.52135 0
M  V30 5741 C 553.894 -2.81076 -3.18247 0
M  V30 5742 O 554.918 -2.40827 -2.62452 0
M  V30 5743 O 553.777 -3.50581 -4.19231 0
M  V30 5744 H 550.871 -0.502761 -0.656628 0
M  V30 5745 H 553.417 -1.51808 -0.758456 0
M  V30 5746 H 552.189 -3.33932 -2.03974 0
M  V30 5747 H 551.812 -2.19374 -3.31603 0
M  V30 5748 N 552.809 0.956637 -1.25245 0
M  V30 5749 C 553.719 2.0868 -1.0719 0
M  V30 5750 C 554.735 1.73997 -0.00959074 0
M  V30 5751 O 555.911 2.00301 -0.210104 0
M  V30 5752 C 552.976 3.39754 -0.690526 0
M  V30 5753 C 552.037 3.88316 -1.83055 0
M  V30 5754 C 551.27 5.13134 -1.46728 0
M  V30 5755 O 551.493 5.6925 -0.362029 0
M  V30 5756 O 550.427 5.56356 -2.29677 0
M  V30 5757 H 554.253 2.26813 -2.01965 0
M  V30 5758 H 551.838 1.07098 -1.04165 0
M  V30 5759 H 553.72 4.18543 -0.489871 0
M  V30 5760 H 552.395 3.22896 0.227981 0
M  V30 5761 H 551.302 3.1054 -2.08604 0
M  V30 5762 H 552.635 4.09669 -2.72822 0
M  V30 5763 N 554.287 1.06798 1.15896 0
M  V30 5764 C 555.536 0.782796 1.8589 0
M  V30 5765 C 555.849 -0.693498 1.82893 0
M  V30 5766 O 557.055 -1.09325 2.48516 0
M  V30 5767 C 555.511 1.3502 3.33613 0
M  V30 5768 C 555.119 2.8571 3.45071 0
M  V30 5769 C 556.863 1.14278 4.08829 0
M  V30 5770 C 554.77 3.35669 4.86909 0
M  V30 5771 H 553.7 0.289149 0.696354 0
M  V30 5772 H 556.351 1.28734 1.30766 0
M  V30 5773 H 554.733 0.773407 3.88374 0
M  V30 5774 H 555.907 3.49385 3.00445 0
M  V30 5775 H 554.222 3.05178 2.83294 0
M  V30 5776 H 556.819 1.49087 5.13495 0
M  V30 5777 H 557.162 0.0814575 4.1622 0
M  V30 5778 H 557.695 1.68563 3.60321 0
M  V30 5779 H 554.434 4.41302 4.84698 0
M  V30 5780 H 553.954 2.76745 5.32139 0
M  V30 5781 H 555.633 3.31296 5.55745 0
M  V30 5782 N 555.766 -1.3263 0.851289 0
M  V30 5783 C 556.729 -2.27247 0.298541 0
M  V30 5784 C 557.729 -1.51467 -0.539847 0
M  V30 5785 O 558.919 -1.7061 -0.351843 0
M  V30 5786 C 556.051 -3.35964 -0.578004 0
M  V30 5787 H 557.244 -2.7765 1.13359 0
M  V30 5788 H 554.797 -1.43245 0.625354 0
M  V30 5789 H 555.532 -2.90823 -1.435 0
M  V30 5790 H 555.317 -3.92094 0.0220539 0
M  V30 5791 H 556.807 -4.06472 -0.957626 0
M  V30 5792 N 557.244 -0.608902 -1.45362 0
M  V30 5793 C 558.207 0.0992563 -2.28985 0
M  V30 5794 C 559.207 0.793841 -1.39838 0
M  V30 5795 O 560.397 0.641804 -1.61946 0
M  V30 5796 C 557.529 1.15073 -3.20891 0
M  V30 5797 H 558.722 -0.635964 -2.93079 0
M  V30 5798 H 556.275 -0.368007 -1.51906 0
M  V30 5799 H 557.01 1.91667 -2.616 0
M  V30 5800 H 556.795 0.656867 -3.86559 0
M  V30 5801 H 558.285 1.64665 -3.83765 0
M  V30 5802 N 558.722 1.53707 -0.348139 0
M  V30 5803 C 559.971 2.0017 0.247992 0
M  V30 5804 C 560.284 1.23983 1.51286 0
M  V30 5805 O 561.49 1.60946 2.18652 0
M  V30 5806 C 559.946 3.56515 0.492459 0
M  V30 5807 C 559.554 4.41562 -0.756777 0
M  V30 5808 C 561.298 4.11381 1.0472 0
M  V30 5809 C 559.205 5.89426 -0.482856 0
M  V30 5810 H 558.135 0.747806 0.0964452 0
M  V30 5811 H 560.786 1.77532 -0.464179 0
M  V30 5812 H 559.168 3.75236 1.26545 0
M  V30 5813 H 560.342 4.34615 -1.53122 0
M  V30 5814 H 558.657 3.97711 -1.23348 0
M  V30 5815 H 561.254 5.19468 1.26717 0
M  V30 5816 H 561.597 3.64885 2.00411 0
M  V30 5817 H 562.13 3.96389 0.334801 0
M  V30 5818 H 558.869 6.40164 -1.40962 0
M  V30 5819 H 558.389 5.99264 0.253416 0
M  V30 5820 H 560.068 6.4692 -0.101816 0
M  V30 5821 N 560.2 0.0768682 1.57412 0
M  V30 5822 C 561.449 -0.590679 1.92857 0
M  V30 5823 C 561.762 -1.70461 0.959293 0
M  V30 5824 O 562.968 -2.43207 1.20675 0
M  V30 5825 C 561.424 -1.10204 3.42612 0
M  V30 5826 C 561.032 -0.0188447 4.47996 0
M  V30 5827 C 562.776 -1.74336 3.87049 0
M  V30 5828 C 560.683 -0.544536 5.88888 0
M  V30 5829 H 559.613 -0.224411 0.71983 0
M  V30 5830 H 562.264 0.149924 1.82887 0
M  V30 5831 H 560.646 -1.89577 3.47673 0
M  V30 5832 H 561.82 0.755936 4.54557 0
M  V30 5833 H 560.135 0.526555 4.13057 0
M  V30 5834 H 562.732 -2.14708 4.89699 0
M  V30 5835 H 563.075 -2.60537 3.24694 0
M  V30 5836 H 563.608 -1.01577 3.84613 0
M  V30 5837 H 560.347 0.280426 6.549 0
M  V30 5838 H 559.867 -1.28673 5.85836 0
M  V30 5839 H 561.546 -1.01933 6.3892 0
M  V30 5840 N 561.678 -1.56367 -0.196722 0
M  V30 5841 C 562.926 -1.80172 -0.915554 0
M  V30 5842 C 563.247 -0.649649 -1.8386 0
M  V30 5843 O 562.517 0.332111 -1.93064 0
M  V30 5844 H 561.097 -0.664592 -0.341067 0
M  V30 5845 H 563.759 -1.93844 -0.202622 0
M  V30 5846 H 562.855 -2.7327 -1.50764 0
M  V30 5847 N 563.156 0.464375 -1.50603 0
M  V30 5848 C 564.086 1.56944 -1.72889 0
M  V30 5849 C 565.067 1.59979 -0.577997 0
M  V30 5850 O 566.252 1.76138 -0.817855 0
M  V30 5851 C 563.382 2.95225 -1.8292 0
M  V30 5852 C 562.336 3.07056 -2.98162 0
M  V30 5853 C 561.662 4.47051 -2.93343 0
M  V30 5854 C 562.962 2.83648 -4.38567 0
M  V30 5855 H 564.656 1.38547 -2.65415 0
M  V30 5856 H 562.202 0.665082 -1.27721 0
M  V30 5857 H 564.155 3.72467 -1.97095 0
M  V30 5858 H 562.879 3.14793 -0.870209 0
M  V30 5859 H 561.538 2.32248 -2.83648 0
M  V30 5860 H 561.186 4.63547 -1.95276 0
M  V30 5861 H 560.886 4.55902 -3.70712 0
M  V30 5862 H 562.41 5.26304 -3.09575 0
M  V30 5863 H 563.824 3.50636 -4.53572 0
M  V30 5864 H 562.221 3.03937 -5.17438 0
M  V30 5865 H 563.291 1.79451 -4.50472 0
M  V30 5866 N 564.634 1.40294 0.718013 0
M  V30 5867 C 565.88 1.38645 1.48005 0
M  V30 5868 C 566.213 -0.0121202 1.94196 0
M  V30 5869 O 565.488 -0.980309 1.67989 0
M  V30 5870 C 565.771 2.37379 2.70782 0
M  V30 5871 C 565.624 3.8625 2.30501 0
M  V30 5872 C 566.943 2.33685 3.72933 0
M  V30 5873 H 564.062 0.504928 0.536858 0
M  V30 5874 H 566.704 1.71411 0.819649 0
M  V30 5875 H 564.854 2.09568 3.27129 0
M  V30 5876 H 566.526 4.24879 1.79655 0
M  V30 5877 H 564.769 4.02202 1.6253 0
M  V30 5878 H 565.44 4.50847 3.18498 0
M  V30 5879 H 567.916 2.58314 3.2621 0
M  V30 5880 H 566.792 3.0482 4.56482 0
M  V30 5881 H 567.053 1.34765 4.21059 0
M  V30 5882 N 566.112 -0.949982 1.2575 0
M  V30 5883 C 567.042 -2.06483 1.09028 0
M  V30 5884 C 568.023 -1.701 -0.00201532 0
M  V30 5885 O 569.208 -1.93469 0.168383 0
M  V30 5886 C 566.338 -3.39899 0.71316 0
M  V30 5887 C 565.292 -3.90309 1.75621 0
M  V30 5888 C 564.618 -5.20274 1.23365 0
M  V30 5889 C 565.918 -4.16169 3.15596 0
M  V30 5890 H 567.612 -2.20731 2.02283 0
M  V30 5891 H 565.158 -1.06066 0.973964 0
M  V30 5892 H 567.111 -4.17346 0.58309 0
M  V30 5893 H 565.835 -3.25602 -0.255091 0
M  V30 5894 H 564.494 -3.15035 1.8748 0
M  V30 5895 H 564.142 -5.02351 0.255491 0
M  V30 5896 H 563.842 -5.54971 1.93082 0
M  V30 5897 H 565.366 -6.00314 1.11607 0
M  V30 5898 H 566.78 -4.84259 3.06864 0
M  V30 5899 H 565.177 -4.62131 3.82825 0
M  V30 5900 H 566.247 -3.22273 3.6231 0
M  V30 5901 N 567.59 -1.07411 -1.15328 0
M  V30 5902 C 568.537 -0.694995 -2.20087 0
M  V30 5903 C 569.507 0.313904 -1.63107 0
M  V30 5904 O 570.692 0.200216 -1.89747 0
M  V30 5905 C 567.832 -0.0996218 -3.44956 0
M  V30 5906 C 566.945 -1.16007 -4.16133 0
M  V30 5907 C 566.08 -0.529636 -5.28553 0
M  V30 5908 C 565.119 -1.57283 -5.91548 0
M  V30 5909 N 564.256 -0.964932 -6.95438 0
M  V30 5910 H 569.096 -1.5927 -2.51867 0
M  V30 5911 H 566.633 -0.796115 -1.23695 0
M  V30 5912 H 568.591 0.263197 -4.16369 0
M  V30 5913 H 567.221 0.761435 -3.13691 0
M  V30 5914 H 566.273 -1.64045 -3.4321 0
M  V30 5915 H 567.585 -1.95101 -4.59061 0
M  V30 5916 H 566.739 -0.114487 -6.06592 0
M  V30 5917 H 565.478 0.29307 -4.86819 0
M  V30 5918 H 564.483 -1.99775 -5.12221 0
M  V30 5919 H 565.708 -2.39783 -6.35359 0
M  V30 5920 H 563.654 -0.16314 -6.55797 0
M  V30 5921 H 563.571 -1.69311 -7.36797 0
M  V30 5922 H 564.839 -0.575305 -7.77374 0
M  V30 5923 N 569.068 1.32177 -0.85831 0
M  V30 5924 C 570.016 2.30729 -0.294442 0
M  V30 5925 C 571.01 1.59009 0.584165 0
M  V30 5926 O 572.216 1.73713 0.471562 0
M  V30 5927 H 568.591 0.748097 -0.0765171 0
M  V30 5928 H 570.562 2.75774 -1.1398 0
M  V30 5929 C 569.311 3.44098 0.499208 0
M  V30 5930 H 568.634 3.99449 -0.167579 0
M  V30 5931 H 570.074 4.15202 0.859273 0
M  V30 5932 C 568.533 2.91684 1.68588 0
M  V30 5933 O 569.063 2.89481 2.78503 0
M  V30 5934 N 567.269 2.48036 1.51415 0
M  V30 5935 H 566.816 2.50027 0.620006 0
M  V30 5936 H 566.774 2.13322 2.30957 0
M  V30 5937 N 570.547 0.616602 1.45037 0
M  V30 5938 C 571.793 0.115501 2.02471 0
M  V30 5939 C 572.126 -1.25406 1.4828 0
M  V30 5940 O 571.401 -1.82922 0.661051 0
M  V30 5941 C 571.684 0.0863588 3.59996 0
M  V30 5942 C 571.537 1.48723 4.24501 0
M  V30 5943 C 572.856 -0.596762 4.36035 0
M  V30 5944 H 569.975 0.0434461 0.735718 0
M  V30 5945 H 572.617 0.7903 1.72784 0
M  V30 5946 H 570.767 -0.488277 3.85419 0
M  V30 5947 H 572.439 2.10964 4.10234 0
M  V30 5948 H 570.682 2.04534 3.82555 0
M  V30 5949 H 571.353 1.419 5.3345 0
M  V30 5950 H 573.829 -0.10824 4.15959 0
M  V30 5951 H 572.705 -0.586289 5.4576 0
M  V30 5952 H 572.966 -1.66451 4.09569 0
M  V30 5953 N 572.025 -1.5352 0.356285 0
M  V30 5954 C 573.273 -2.00719 -0.235837 0
M  V30 5955 C 573.594 -1.24551 -1.5004 0
M  V30 5956 O 572.864 -0.356185 -1.92635 0
M  V30 5957 H 571.444 -0.741542 -0.0901366 0
M  V30 5958 H 574.106 -1.88887 0.480378 0
M  V30 5959 H 573.202 -3.08551 -0.469357 0
M  V30 5960 N 573.503 -0.0852151 -1.57369 0
M  V30 5961 C 574.728 0.592872 -1.98746 0
M  V30 5962 C 575.153 1.61538 -0.963689 0
M  V30 5963 O 574.511 1.81168 0.069071 0
M  V30 5964 C 574.559 1.22599 -3.39119 0
M  V30 5965 O 573.663 2.34185 -3.39457 0
M  V30 5966 H 573.004 0.151314 -0.646529 0
M  V30 5967 H 575.534 -0.163703 -2.03944 0
M  V30 5968 H 575.544 1.56965 -3.76598 0
M  V30 5969 H 574.219 0.476831 -4.13158 0
M  V30 5970 H 572.796 2.01512 -3.13763 0
M  V30 5971 N 574.981 1.5647 0.188427 0
M  V30 5972 C 575.891 1.98285 1.2538 0
M  V30 5973 C 576.907 0.891535 1.49424 0
M  V30 5974 O 578.083 1.19782 1.61908 0
M  V30 5975 C 575.148 2.31965 2.57669 0
M  V30 5976 C 574.209 3.54838 2.41638 0
M  V30 5977 C 573.442 3.86901 3.67618 0
M  V30 5978 O 573.665 3.20163 4.72072 0
M  V30 5979 O 572.599 4.80309 3.62749 0
M  V30 5980 H 576.425 2.89145 0.928912 0
M  V30 5981 H 574.01 1.44112 0.393955 0
M  V30 5982 H 575.892 2.54673 3.35737 0
M  V30 5983 H 574.567 1.44271 2.89771 0
M  V30 5984 H 573.474 3.37369 1.61658 0
M  V30 5985 H 574.807 4.43019 2.14465 0
M  V30 5986 N 576.459 -0.456382 1.50847 0
M  V30 5987 C 577.391 -1.57033 1.66953 0
M  V30 5988 C 578.404 -1.53207 0.550593 0
M  V30 5989 O 579.593 -1.58328 0.824285 0
M  V30 5990 C 576.693 -2.95937 1.65149 0
M  V30 5991 C 575.866 -3.24475 2.93317 0
M  V30 5992 C 574.925 -4.43007 2.83957 0
M  V30 5993 O 573.951 -4.42592 3.57912 0
M  V30 5994 N 575.153 -5.45503 1.9851 0
M  V30 5995 H 577.918 -1.43629 2.63042 0
M  V30 5996 H 575.479 -0.645037 1.48495 0
M  V30 5997 H 577.471 -3.73224 1.56481 0
M  V30 5998 H 576.041 -3.03036 0.767343 0
M  V30 5999 H 575.261 -2.35664 3.16 0
M  V30 6000 H 576.549 -3.4036 3.78196 0
M  V30 6001 H 575.947 -5.48668 1.37766 0
M  V30 6002 H 574.504 -6.21716 1.95735 0
M  V30 6003 N 577.937 -1.40673 -0.710563 0
M  V30 6004 C 578.9 -1.4108 -1.80635 0
M  V30 6005 C 579.9 -0.303783 -1.57904 0
M  V30 6006 O 581.09 -0.562937 -1.64853 0
M  V30 6007 C 578.222 -1.20748 -3.18799 0
M  V30 6008 H 579.415 -2.38612 -1.81671 0
M  V30 6009 H 576.968 -1.26595 -0.916704 0
M  V30 6010 H 577.703 -0.239964 -3.23411 0
M  V30 6011 H 577.488 -2.00941 -3.36698 0
M  V30 6012 H 578.978 -1.23833 -3.98817 0
M  V30 6013 N 579.415 0.9433 -1.26252 0
M  V30 6014 C 580.345 2.05902 -1.10122 0
M  V30 6015 C 581.326 1.70099 -0.00700552 0
M  V30 6016 O 582.511 1.93377 -0.178641 0
M  V30 6017 C 579.641 3.39516 -0.731175 0
M  V30 6018 C 578.595 3.89372 -1.77688 0
M  V30 6019 C 577.921 5.19613 -1.26122 0
M  V30 6020 C 579.221 4.14489 -3.17799 0
M  V30 6021 H 580.915 2.19655 -2.03451 0
M  V30 6022 H 578.461 1.05548 -0.979576 0
M  V30 6023 H 580.414 4.17031 -0.605215 0
M  V30 6024 H 579.138 3.25733 0.23782 0
M  V30 6025 H 577.797 3.14036 -1.89148 0
M  V30 6026 H 577.445 5.02208 -0.282128 0
M  V30 6027 H 577.145 5.53939 -1.96023 0
M  V30 6028 H 578.669 5.99713 -1.14789 0
M  V30 6029 H 580.083 4.82625 -3.09428 0
M  V30 6030 H 578.48 4.60094 -3.85271 0
M  V30 6031 H 579.55 3.20347 -3.64014 0
M  V30 6032 N 580.893 1.08022 1.14757 0
M  V30 6033 C 581.803 0.718292 2.23333 0
M  V30 6034 C 582.819 -0.273477 1.71837 0
M  V30 6035 O 583.995 -0.118406 2.01052 0
M  V30 6036 C 581.06 0.128855 3.4646 0
M  V30 6037 C 580.121 1.17473 4.12915 0
M  V30 6038 C 579.354 0.61333 5.30164 0
M  V30 6039 O 579.577 -0.568458 5.6756 0
M  V30 6040 O 578.511 1.3615 5.86299 0
M  V30 6041 H 582.337 1.62394 2.56636 0
M  V30 6042 H 579.922 0.853628 1.22611 0
M  V30 6043 H 581.804 -0.197249 4.20938 0
M  V30 6044 H 580.479 -0.750014 3.14891 0
M  V30 6045 H 579.386 1.5533 3.40328 0
M  V30 6046 H 580.719 2.02574 4.48581 0
M  V30 6047 N 582.371 -1.3172 0.865308 0
M  V30 6048 C 583.281 -2.32394 0.320935 0
M  V30 6049 C 584.297 -1.64511 -0.566746 0
M  V30 6050 O 585.473 -1.95969 -0.464575 0
M  V30 6051 C 582.538 -3.43462 -0.472701 0
M  V30 6052 C 581.599 -4.27015 0.442385 0
M  V30 6053 C 580.832 -5.32779 -0.313469 0
M  V30 6054 O 581.055 -5.49158 -1.54214 0
M  V30 6055 O 579.989 -6.01015 0.326257 0
M  V30 6056 H 583.815 -2.80868 1.15528 0
M  V30 6057 H 581.4 -1.35535 0.628545 0
M  V30 6058 H 583.282 -4.11172 -0.922781 0
M  V30 6059 H 581.957 -2.97159 -1.28367 0
M  V30 6060 H 580.864 -3.62075 0.940866 0
M  V30 6061 H 582.197 -4.76871 1.21882 0
M  V30 6062 N 583.85 -0.624285 -1.44708 0
M  V30 6063 C 584.812 0.0749638 -2.29077 0
M  V30 6064 C 585.812 0.778965 -1.40673 0
M  V30 6065 O 587.003 0.624591 -1.62618 0
M  V30 6066 C 584.135 1.11663 -3.22094 0
M  V30 6067 H 585.327 -0.667013 -2.92388 0
M  V30 6068 H 582.88 -0.384098 -1.51507 0
M  V30 6069 H 583.615 1.88881 -2.63618 0
M  V30 6070 H 583.401 0.61583 -3.87234 0
M  V30 6071 H 584.891 1.60585 -3.8549 0
M  V30 6072 N 585.328 1.53329 -0.364422 0
M  V30 6073 C 586.744 1.59594 -0.0133165 0
M  V30 6074 C 586.944 1.37959 1.46865 0
M  V30 6075 O 586 1.18418 2.2301 0
M  V30 6076 C 587.313 2.97032 -0.468213 0
M  V30 6077 C 588.861 3.10138 -0.422334 0
M  V30 6078 C 589.336 4.49986 -0.853024 0
M  V30 6079 N 590.827 4.56098 -0.808037 0
M  V30 6080 C 591.562 5.62495 -1.11299 0
M  V30 6081 N 591.058 6.7665 -1.48717 0
M  V30 6082 N 592.851 5.52473 -1.03586 0
M  V30 6083 H 585.002 1.65644 -1.32951 0
M  V30 6084 H 587.265 0.77684 -0.543345 0
M  V30 6085 H 586.971 3.18 -1.5023 0
M  V30 6086 H 586.845 3.76918 0.145775 0
M  V30 6087 H 589.232 2.88881 0.602622 0
M  V30 6088 H 589.313 2.32263 -1.0718 0
M  V30 6089 H 588.957 4.7198 -1.87609 0
M  V30 6090 H 588.887 5.26289 -0.180819 0
M  V30 6091 H 591.378 3.74131 -0.532361 0
M  V30 6092 H 591.691 7.53776 -1.70415 0
M  V30 6093 H 590.036 6.78044 -1.52581 0
M  V30 6094 H 593.227 4.6217 -0.742736 0
M  V30 6095 H 593.4 6.35295 -1.27686 0
M  V30 6096 N 586.806 0.0935595 1.57322 0
M  V30 6097 C 587.738 -0.895923 2.10964 0
M  V30 6098 C 588.751 -1.24705 1.04654 0
M  V30 6099 O 589.94 -1.20044 1.32105 0
M  V30 6100 C 587.04 -2.20546 2.57318 0
M  V30 6101 C 586.213 -2.0299 3.87445 0
M  V30 6102 C 585.272 -3.17443 4.19662 0
M  V30 6103 O 584.298 -2.91474 4.88909 0
M  V30 6104 N 585.5 -4.43168 3.74943 0
M  V30 6105 H 588.265 -0.437788 2.96485 0
M  V30 6106 H 585.826 -0.0915863 1.61641 0
M  V30 6107 H 587.818 -2.9606 2.75917 0
M  V30 6108 H 586.388 -2.57789 1.76816 0
M  V30 6109 H 585.608 -1.11815 3.78009 0
M  V30 6110 H 586.896 -1.88535 4.7258 0
M  V30 6111 H 586.294 -4.67149 3.19043 0
M  V30 6112 H 584.851 -5.15637 3.987 0
M  V30 6113 N 588.284 -1.56567 -0.180126 0
M  V30 6114 C 589.7 -1.50488 -0.531559 0
M  V30 6115 C 589.9 -0.796267 -1.851 0
M  V30 6116 O 588.956 -0.352978 -2.50021 0
M  V30 6117 C 590.269 -2.95201 -0.572456 0
M  V30 6118 C 591.817 -3.05957 -0.660264 0
M  V30 6119 C 592.292 -4.5211 -0.732135 0
M  V30 6120 N 593.783 -4.56322 -0.795262 0
M  V30 6121 C 594.518 -5.66742 -0.871296 0
M  V30 6122 N 594.014 -6.86815 -0.908708 0
M  V30 6123 N 595.807 -5.54691 -0.909639 0
M  V30 6124 H 587.958 -2.01045 0.685165 0
M  V30 6125 H 590.221 -0.915536 0.245962 0
M  V30 6126 H 589.927 -3.50165 0.328208 0
M  V30 6127 H 589.801 -3.49369 -1.422 0
M  V30 6128 H 592.188 -2.51032 -1.55136 0
M  V30 6129 H 592.269 -2.54888 0.215783 0
M  V30 6130 H 591.913 -5.07664 0.154664 0
M  V30 6131 H 591.843 -5.00926 -1.6242 0
M  V30 6132 H 594.334 -3.69868 -0.77499 0
M  V30 6133 H 594.647 -7.66718 -0.967654 0
M  V30 6134 H 592.992 -6.89443 -0.877132 0
M  V30 6135 H 596.183 -4.59804 -0.877353 0
M  V30 6136 H 596.356 -6.40768 -0.965434 0
M  V30 6137 N 589.762 0.448376 -1.51087 0
M  V30 6138 C 591.008 1.20049 -1.6345 0
M  V30 6139 C 591.341 1.91121 -0.344444 0
M  V30 6140 O 590.616 1.83125 0.655396 0
M  V30 6141 C 590.899 2.22624 -2.83038 0
M  V30 6142 C 590.752 1.55708 -4.21989 0
M  V30 6143 C 592.071 3.23718 -2.98152 0
M  V30 6144 H 589.19 0.435085 -0.59487 0
M  V30 6145 H 591.832 0.491183 -1.83541 0
M  V30 6146 H 589.982 2.83117 -2.66039 0
M  V30 6147 H 591.654 0.986367 -4.50631 0
M  V30 6148 H 589.897 0.859647 -4.25197 0
M  V30 6149 H 590.568 2.30357 -5.01637 0
M  V30 6150 H 593.044 2.73269 -3.13788 0
M  V30 6151 H 591.92 3.92795 -3.83411 0
M  V30 6152 H 592.181 3.89179 -2.09743 0
M  V30 6153 N 591.24 1.41047 0.703093 0
M  V30 6154 C 592.203 1.42036 1.79884 0
M  V30 6155 C 593.203 0.312153 1.57741 0
M  V30 6156 O 594.393 0.571672 1.64553 0
M  V30 6157 C 591.525 1.22437 3.18154 0
M  V30 6158 H 592.718 2.39572 1.80403 0
M  V30 6159 H 590.271 1.27079 0.909977 0
M  V30 6160 H 591.006 0.257112 3.23279 0
M  V30 6161 H 590.791 2.02723 3.35627 0
M  V30 6162 H 592.281 1.25946 3.98155 0
M  V30 6163 N 592.718 -0.936591 1.26751 0
M  V30 6164 C 593.681 -2.01752 1.08761 0
M  V30 6165 C 594.681 -1.60763 0.0344435 0
M  V30 6166 O 595.871 -1.71963 0.278258 0
M  V30 6167 C 593.003 -3.34543 0.655271 0
M  V30 6168 H 594.196 -2.19143 2.04735 0
M  V30 6169 H 591.749 -1.11618 1.09413 0
M  V30 6170 H 592.484 -3.22851 -0.30626 0
M  V30 6171 H 592.269 -3.65647 1.41578 0
M  V30 6172 H 593.759 -4.13944 0.551378 0
M  V30 6173 N 594.196 -1.08629 -1.14182 0
M  V30 6174 C 595.126 -0.740003 -2.21464 0
M  V30 6175 C 596.107 0.278591 -1.67803 0
M  V30 6176 O 597.292 0.148461 -1.93632 0
M  V30 6177 C 594.422 -0.150952 -3.46972 0
M  V30 6178 C 593.376 -1.09815 -4.13672 0
M  V30 6179 C 592.702 -0.3712 -5.3341 0
M  V30 6180 C 594.002 -2.43722 -4.61949 0
M  V30 6181 H 595.696 -1.63697 -2.50686 0
M  V30 6182 H 593.242 -0.788526 -1.20492 0
M  V30 6183 H 595.195 0.103325 -4.21273 0
M  V30 6184 H 593.919 0.781164 -3.1712 0
M  V30 6185 H 592.578 -1.33756 -3.41328 0
M  V30 6186 H 592.226 0.564792 -4.99819 0
M  V30 6187 H 591.926 -1.00267 -5.78982 0
M  V30 6188 H 593.45 -0.12503 -6.10472 0
M  V30 6189 H 594.864 -2.24034 -5.27714 0
M  V30 6190 H 593.261 -3.02582 -5.18232 0
M  V30 6191 H 594.331 -3.05082 -3.76899 0
M  V30 6192 N 595.674 1.31259 -0.872281 0
M  V30 6193 C 596.902 2.00795 -0.498907 0
M  V30 6194 C 597.317 1.65464 0.909238 0
M  V30 6195 O 596.674 0.885073 1.59602 0
M  V30 6196 C 596.725 3.55625 -0.649092 0
M  V30 6197 O 596.446 3.89692 -2.00179 0
M  V30 6198 C 597.947 4.42434 -0.277034 0
M  V30 6199 H 595.167 0.642299 -0.194145 0
M  V30 6200 H 597.711 1.67438 -1.17408 0
M  V30 6201 H 595.866 3.87394 -0.0214402 0
M  V30 6202 H 596.28 4.84407 -2.01122 0
M  V30 6203 H 597.754 5.50299 -0.433064 0
M  V30 6204 H 598.231 4.32146 0.783989 0
M  V30 6205 H 598.837 4.16086 -0.880483 0
M  V30 6206 N 597.152 0.631951 1.44375 0
M  V30 6207 C 598.062 -0.073674 2.34484 0
M  V30 6208 C 599.078 -0.834825 1.52665 0
M  V30 6209 O 600.254 -0.786902 1.85391 0
M  V30 6210 C 597.319 -1.04247 3.30656 0
M  V30 6211 C 596.38 -0.280602 4.28382 0
M  V30 6212 C 595.613 -1.20325 5.19959 0
M  V30 6213 O 595.836 -2.44199 5.15484 0
M  V30 6214 O 594.77 -0.687128 5.97965 0
M  V30 6215 H 598.596 0.667477 2.96274 0
M  V30 6216 H 596.181 0.392144 1.44162 0
M  V30 6217 H 598.063 -1.59981 3.89851 0
M  V30 6218 H 596.738 -1.76422 2.71398 0
M  V30 6219 H 595.645 0.319804 3.72731 0
M  V30 6220 H 596.978 0.401144 4.90563 0
M  V30 6221 N 598.631 -1.53133 0.372548 0
M  V30 6222 C 599.578 -2.25951 -0.470631 0
M  V30 6223 C 600.548 -1.26895 -1.07176 0
M  V30 6224 O 601.733 -1.55691 -1.10294 0
M  V30 6225 C 598.873 -3.05726 -1.6008 0
M  V30 6226 C 597.986 -4.19684 -1.02416 0
M  V30 6227 C 597.121 -4.86888 -2.124 0
M  V30 6228 C 596.16 -5.92866 -1.52238 0
M  V30 6229 N 595.297 -6.53732 -2.56084 0
M  V30 6230 H 600.137 -2.97587 0.156816 0
M  V30 6231 H 597.674 -1.4683 0.0891571 0
M  V30 6232 H 599.632 -3.50258 -2.26661 0
M  V30 6233 H 598.262 -2.36331 -2.1988 0
M  V30 6234 H 597.314 -3.79588 -0.248426 0
M  V30 6235 H 598.626 -4.95821 -0.544366 0
M  V30 6236 H 597.78 -5.34638 -2.86787 0
M  V30 6237 H 596.519 -4.10239 -2.63734 0
M  V30 6238 H 595.524 -5.4447 -0.763685 0
M  V30 6239 H 596.749 -6.71439 -1.0172 0
M  V30 6240 H 594.695 -5.79932 -3.06618 0
M  V30 6241 H 594.612 -7.25429 -2.12811 0
M  V30 6242 H 595.88 -7.0613 -3.30152 0
M  V30 6243 N 600.109 -0.101901 -1.5727 0
M  V30 6244 C 601.356 0.560197 -1.94597 0
M  V30 6245 C 601.684 1.67767 -0.984101 0
M  V30 6246 O 600.939 1.95699 -0.00489193 0
M  V30 6247 C 601.238 1.14898 -3.38427 0
M  V30 6248 C 600.904 0.154613 -4.50635 0
M  V30 6249 C 599.566 -0.118861 -4.81053 0
M  V30 6250 C 601.918 -0.523979 -5.18559 0
M  V30 6251 C 599.246 -1.0775 -5.76721 0
M  V30 6252 C 601.598 -1.47114 -6.15256 0
M  V30 6253 C 600.262 -1.75278 -6.44076 0
M  V30 6254 H 599.532 0.204991 -0.712081 0
M  V30 6255 H 602.179 -0.17918 -1.9066 0
M  V30 6256 H 600.484 1.96476 -3.38976 0
M  V30 6257 H 602.181 1.66909 -3.64613 0
M  V30 6258 H 598.771 0.377948 -4.2693 0
M  V30 6259 H 602.955 -0.325851 -4.95229 0
M  V30 6260 H 598.211 -1.30263 -5.97362 0
M  V30 6261 H 602.385 -2.00274 -6.66981 0
M  V30 6262 H 600.012 -2.49717 -7.18015 0
M  V30 6263 N 601.587 1.56661 0.17182 0
M  V30 6264 C 602.998 1.71652 0.734329 0
M  V30 6265 C 603.349 0.712335 1.82812 0
M  V30 6266 O 602.474 -0.126401 2.16031 0
M  V30 6267 C 603.069 3.11226 1.3388 0
M  V30 6268 C 601.628 3.27904 1.84813 0
M  V30 6269 C 600.775 2.67603 0.726917 0
M  V30 6270 H 603.726 1.5861 -0.0535665 0
M  V30 6271 H 603.747 3.09849 2.20849 0
M  V30 6272 H 603.259 3.8429 0.54249 0
M  V30 6273 H 601.36 2.59796 2.6709 0
M  V30 6274 H 601.473 4.35637 1.99392 0
M  V30 6275 H 599.837 2.274 1.14723 0
M  V30 6276 H 600.62 3.43252 -0.0575334 0
M  V30 6277 N 603.065 -0.440357 1.51323 0
M  V30 6278 C 603.995 -1.54174 1.75364 0
M  V30 6279 C 604.976 -1.59039 0.603375 0
M  V30 6280 O 606.161 -1.74815 0.845774 0
M  V30 6281 C 603.291 -2.92277 1.87593 0
M  V30 6282 C 602.245 -3.02274 3.03009 0
M  V30 6283 C 601.571 -4.42327 3.00418 0
M  V30 6284 C 602.871 -2.76634 4.43024 0
M  V30 6285 H 604.565 -1.34307 2.67585 0
M  V30 6286 H 602.111 -0.644678 1.28763 0
M  V30 6287 H 604.064 -3.69284 2.02995 0
M  V30 6288 H 602.788 -3.13369 0.920179 0
M  V30 6289 H 601.447 -2.27706 2.87307 0
M  V30 6290 H 601.095 -4.60382 2.02626 0
M  V30 6291 H 600.795 -4.49946 3.77918 0
M  V30 6292 H 602.319 -5.21312 3.17909 0
M  V30 6293 H 603.733 -3.43376 4.59093 0
M  V30 6294 H 602.13 -2.95666 5.22208 0
M  V30 6295 H 603.2 -1.72262 4.5327 0
M  V30 6296 N 604.543 -1.41418 -0.695603 0
M  V30 6297 C 605.773 -1.43921 -1.48224 0
M  V30 6298 C 606.181 -0.0428855 -1.89151 0
M  V30 6299 O 605.524 0.948138 -1.5734 0
M  V30 6300 C 605.586 -2.28466 -2.77567 0
M  V30 6301 C 605.25 -3.76629 -2.58844 0
M  V30 6302 C 606.247 -4.6879 -2.24793 0
M  V30 6303 C 603.932 -4.2067 -2.74485 0
M  V30 6304 C 605.926 -6.02981 -2.06622 0
M  V30 6305 C 603.613 -5.54926 -2.55931 0
M  V30 6306 C 604.611 -6.45897 -2.2205 0
M  V30 6307 O 604.299 -7.77675 -2.03657 0
M  V30 6308 H 604.031 -0.492252 -0.463318 0
M  V30 6309 H 606.585 -1.86347 -0.863952 0
M  V30 6310 H 604.815 -1.80853 -3.41802 0
M  V30 6311 H 606.504 -2.2267 -3.39371 0
M  V30 6312 H 607.27 -4.36055 -2.12323 0
M  V30 6313 H 603.149 -3.50167 -2.9984 0
M  V30 6314 H 606.693 -6.73951 -1.80099 0
M  V30 6315 H 602.59 -5.8724 -2.67991 0
M  V30 6316 H 603.358 -7.88819 -2.1842 0
M  V30 6317 N 606.021 0.929856 -1.27246 0
M  V30 6318 C 606.953 2.03434 -1.0558 0
M  V30 6319 C 607.966 1.62795 -0.0125762 0
M  V30 6320 O 609.155 1.76685 -0.2539 0
M  V30 6321 C 606.255 3.33915 -0.57912 0
M  V30 6322 C 605.428 4.03259 -1.69415 0
M  V30 6323 C 604.487 5.12014 -1.21357 0
M  V30 6324 O 603.513 5.36097 -1.91282 0
M  V30 6325 N 604.715 5.8046 -0.0680622 0
M  V30 6326 H 607.48 2.22583 -2.00691 0
M  V30 6327 H 605.041 1.1001 -1.18783 0
M  V30 6328 H 607.033 4.03978 -0.241563 0
M  V30 6329 H 605.603 3.11355 0.278703 0
M  V30 6330 H 604.823 3.26958 -2.20209 0
M  V30 6331 H 606.111 4.46337 -2.44255 0
M  V30 6332 H 605.509 5.63345 0.515626 0
M  V30 6333 H 604.066 6.51461 0.210332 0
M  V30 6334 N 607.499 1.09233 1.13605 0
M  V30 6335 C 608.776 0.739633 1.81077 0
M  V30 6336 C 609.156 -0.775595 1.96336 0
M  V30 6337 O 608.504 -1.69726 1.52988 0
M  V30 6338 C 608.714 1.47636 3.16235 0
M  V30 6339 C 610.062 1.64087 3.91613 0
M  V30 6340 O 611.086 1.43871 3.25852 0
M  V30 6341 O 609.945 1.97511 5.0956 0
M  V30 6342 H 607.039 0.265464 0.783236 0
M  V30 6343 H 609.585 1.19441 1.20549 0
M  V30 6344 H 608.357 2.50818 3.00344 0
M  V30 6345 H 607.98 1.01362 3.84462 0
M  V30 6346 O 609.016 -1.25824 1.01246 0
M  V30 6347 H 609.707 -1.81718 0.670699 0
M  V30 END ATOM
M  V30 BEGIN BOND
M  V30 END BOND
M  V30 END CTAB
M  END
$$$$
