drugbank_target|Q5L1E2 2,3-diketo-5-methylthiopentyl-1-phosphate enolase (DB06881)
 OpenBabel12092120383D

  0  0  0     0  0            999 V3000
M  V30 BEGIN CTAB
M  V30 COUNTS 6399 6463 0 0 0
M  V30 BEGIN ATOM
M  V30 1 H -0.908 1.98254 -0.117106 0
M  V30 2 N 0 1.576 0 0
M  V30 3 C 0.933 2.03868 1.02534 0
M  V30 4 C 1.911 0.928543 1.3348 0
M  V30 5 O 3.095 1.19667 1.45644 0
M  V30 6 C 0.222 2.43627 2.35294 0
M  V30 7 C -0.732 3.65373 2.2001 0
M  V30 8 S 0.101 5.13292 1.52614 0
M  V30 9 C 1.257 5.56322 2.86805 0
M  V30 10 H 1.49 2.90518 0.631377 0
M  V30 11 H -0.977 1.52953 0.210867 0
M  V30 12 H 0.981 2.67203 3.11629 0
M  V30 13 H -0.358 1.57376 2.7183 0
M  V30 14 H -1.165 3.90944 3.18086 0
M  V30 15 H -1.563 3.418 1.51819 0
M  V30 16 H 0.729 5.58782 3.83104 0
M  V30 17 H 1.672 6.56266 2.65933 0
M  V30 18 H 2.08 4.83886 2.90714 0
M  V30 19 N 1.4781 -0.272755 1.55222 0
M  V30 20 C 2.7031 -1.02683 1.80197 0
M  V30 21 C 3.1281 -1.79142 0.573551 0
M  V30 22 O 2.4861 -1.74917 -0.476849 0
M  V30 23 C 2.5341 -1.9609 3.02624 0
M  V30 24 O 1.6381 -3.04863 2.77727 0
M  V30 25 H 0.9791 -0.293557 0.595584 0
M  V30 26 H 3.5091 -0.30159 2.02365 0
M  V30 27 H 3.5191 -2.38039 3.31363 0
M  V30 28 H 2.1941 -1.39851 3.91682 0
M  V30 29 H 0.7711 -2.67228 2.60084 0
M  V30 30 N 2.9562 -1.48159 -0.537278 0
M  V30 31 C 3.9192 -1.61665 -1.62472 0
M  V30 32 C 4.9192 -0.490395 -1.5314 0
M  V30 33 O 6.1092 -0.755998 -1.5694 0
M  V30 34 C 3.2412 -1.57997 -3.02076 0
M  V30 35 H 4.4342 -2.58621 -1.51839 0
M  V30 36 H 1.9872 -1.36647 -0.758771 0
M  V30 37 H 2.7222 -0.624913 -3.18222 0
M  V30 38 H 2.5072 -2.39755 -3.10258 0
M  V30 39 H 3.9972 -1.70627 -3.81151 0
M  V30 40 N 4.4343 0.785586 -1.36625 0
M  V30 41 C 5.6803 1.54591 -1.31261 0
M  V30 42 C 6.0133 1.93906 0.106823 0
M  V30 43 O 5.2883 1.63007 1.06108 0
M  V30 44 C 5.5713 2.82038 -2.23889 0
M  V30 45 C 5.4243 2.49066 -3.74548 0
M  V30 46 C 6.7433 3.83887 -2.15217 0
M  V30 47 H 3.8623 0.560846 -0.478143 0
M  V30 48 H 6.5043 0.902278 -1.67209 0
M  V30 49 H 4.6543 3.36961 -1.93363 0
M  V30 50 H 6.3263 2.00164 -4.15611 0
M  V30 51 H 4.5693 1.81954 -3.93796 0
M  V30 52 H 5.2403 3.40109 -4.34776 0
M  V30 53 H 7.7163 3.38421 -2.42096 0
M  V30 54 H 6.5923 4.70806 -2.82193 0
M  V30 55 H 6.8533 4.27131 -1.14068 0
M  V30 56 N 5.9124 1.20967 1.01018 0
M  V30 57 C 6.8454 0.907578 2.09376 0
M  V30 58 C 7.8234 -0.142868 1.61971 0
M  V30 59 O 9.0074 -0.0150391 1.88494 0
M  V30 60 C 6.1344 0.361791 3.36762 0
M  V30 61 C 5.1804 1.39423 4.03068 0
M  V30 62 S 6.0134 2.96159 4.4615 0
M  V30 63 C 7.1694 2.43173 5.7673 0
M  V30 64 H 7.4024 1.82519 2.34678 0
M  V30 65 H 4.9354 1.03884 1.14225 0
M  V30 66 H 6.8934 0.0534523 4.10465 0
M  V30 67 H 5.5544 -0.53443 3.0952 0
M  V30 68 H 4.7474 0.961853 4.94737 0
M  V30 69 H 4.3494 1.65038 3.35617 0
M  V30 70 H 6.6414 1.83335 6.52223 0
M  V30 71 H 7.5844 3.33264 6.24773 0
M  V30 72 H 7.9924 1.85069 5.33301 0
M  V30 73 N 7.3905 -1.2043 1.01659 0
M  V30 74 C 8.3535 -2.21433 0.591616 0
M  V30 75 C 9.3535 -1.57203 -0.338226 0
M  V30 76 O 10.5435 -1.73737 -0.126918 0
M  V30 77 C 7.6755 -3.40628 -0.136058 0
M  V30 78 H 8.8685 -2.60545 1.48514 0
M  V30 79 H 6.4215 -1.33893 0.806379 0
M  V30 80 H 7.1565 -3.07019 -1.04449 0
M  V30 81 H 6.9415 -3.88475 0.531917 0
M  V30 82 H 8.4315 -4.15475 -0.420735 0
M  V30 83 N 8.8686 -0.792821 -1.36206 0
M  V30 84 C 10.0966 -0.378825 -2.03402 0
M  V30 85 C 10.5116 1.00586 -1.59774 0
M  V30 86 O 9.8686 1.64574 -0.788764 0
M  V30 87 C 9.9196 -0.43683 -3.58851 0
M  V30 88 O 9.6406 -1.76691 -4.00889 0
M  V30 89 C 11.1416 -0.0138943 -4.43298 0
M  V30 90 H 8.3616 -0.155673 -0.652692 0
M  V30 91 H 10.9056 -1.07261 -1.74113 0
M  V30 92 H 9.0606 0.208575 -3.86838 0
M  V30 93 H 9.4746 -1.72011 -4.95492 0
M  V30 94 H 10.9486 -0.105615 -5.51899 0
M  V30 95 H 11.4256 1.03915 -4.2673 0
M  V30 96 H 12.0316 -0.63192 -4.20579 0
M  V30 97 N 10.3467 1.47872 -0.545128 0
M  V30 98 C 11.5767 2.06589 -0.0210534 0
M  V30 99 C 11.9847 1.39997 1.27269 0
M  V30 100 O 11.3277 0.486421 1.77143 0
M  V30 101 C 11.3897 3.58574 0.257933 0
M  V30 102 C 11.0537 4.47132 -0.944573 0
M  V30 103 C 12.0507 4.85986 -1.84699 0
M  V30 104 C 9.7357 4.88821 -1.15584 0
M  V30 105 C 11.7297 5.65314 -2.94446 0
M  V30 106 C 9.4167 5.67916 -2.25642 0
M  V30 107 C 10.4147 6.06073 -3.14905 0
M  V30 108 O 10.1027 6.83578 -4.23057 0
M  V30 109 H 9.8347 0.674971 -0.0372899 0
M  V30 110 H 12.3887 1.91037 -0.754599 0
M  V30 111 H 10.6187 3.72295 1.04564 0
M  V30 112 H 12.3077 3.99356 0.72592 0
M  V30 113 H 13.0737 4.54388 -1.69577 0
M  V30 114 H 8.9527 4.58595 -0.470279 0
M  V30 115 H 12.4967 5.95016 -3.64145 0
M  V30 116 H 8.3937 5.98927 -2.40742 0
M  V30 117 H 9.1617 7.01954 -4.20954 0
M  V30 118 N 11.8248 0.280983 1.55075 0
M  V30 119 C 12.7548 -0.597469 2.25727 0
M  V30 120 C 13.7358 -1.15417 1.24952 0
M  V30 121 O 14.9208 -1.18722 1.53684 0
M  V30 122 C 12.0508 -1.7789 2.98283 0
M  V30 123 C 11.0048 -1.35347 4.06036 0
M  V30 124 C 10.3308 -2.61846 4.66198 0
M  V30 125 C 11.6308 -0.499354 5.19907 0
M  V30 126 H 13.3248 -0.00824265 2.99399 0
M  V30 127 H 10.8708 -0.0025244 1.44 0
M  V30 128 H 12.8238 -2.39937 3.46422 0
M  V30 129 H 11.5478 -2.39405 2.22155 0
M  V30 130 H 10.2068 -0.756156 3.58717 0
M  V30 131 H 9.8548 -3.21632 3.86732 0
M  V30 132 H 9.5548 -2.3409 5.38958 0
M  V30 133 H 11.0788 -3.24732 5.1709 0
M  V30 134 H 12.4928 -1.02498 5.64063 0
M  V30 135 H 10.8898 -0.316424 5.99265 0
M  V30 136 H 11.9598 0.480459 4.82514 0
M  V30 137 N 13.3029 -1.57598 0.00835791 0
M  V30 138 C 14.2329 -2.1198 -0.979113 0
M  V30 139 C 15.2139 -1.03091 -1.35301 0
M  V30 140 O 16.3989 -1.30818 -1.43528 0
M  V30 141 C 13.5289 -2.62995 -2.26828 0
M  V30 142 C 12.4829 -3.76485 -2.03576 0
M  V30 143 C 11.8089 -4.13846 -3.38579 0
M  V30 144 C 13.1089 -5.0342 -1.39161 0
M  V30 145 H 14.8029 -2.94738 -0.526281 0
M  V30 146 H 12.3489 -1.41783 -0.251704 0
M  V30 147 H 14.3019 -2.99669 -2.96271 0
M  V30 148 H 13.0259 -1.7737 -2.7424 0
M  V30 149 H 11.6849 -3.40217 -1.36557 0
M  V30 150 H 11.3329 -3.25232 -3.83709 0
M  V30 151 H 11.0329 -4.90312 -3.23834 0
M  V30 152 H 12.5569 -4.53086 -4.09323 0
M  V30 153 H 13.9709 -5.37812 -1.98573 0
M  V30 154 H 12.3679 -5.84746 -1.34878 0
M  V30 155 H 13.4379 -4.83548 -0.361868 0
M  V30 156 N 14.781 0.264519 -1.55364 0
M  V30 157 C 15.731 1.32966 -1.85214 0
M  V30 158 C 16.715 1.44306 -0.711653 0
M  V30 159 O 17.907 1.47844 -0.973192 0
M  V30 160 C 15.036 2.68839 -2.13495 0
M  V30 161 C 14.122 2.61575 -3.33825 0
M  V30 162 N 14.513 2.23933 -4.53528 0
M  V30 163 C 12.811 2.92621 -3.36584 0
M  V30 164 C 13.512 2.26868 -5.35636 0
M  V30 165 N 12.488 2.65677 -4.74254 0
M  V30 166 H 16.29 1.02884 -2.75304 0
M  V30 167 H 13.804 0.473157 -1.55354 0
M  V30 168 H 15.801 3.45685 -2.33039 0
M  V30 169 H 14.461 2.99802 -1.24694 0
M  V30 170 H 15.472 1.95769 -4.79474 0
M  V30 171 H 12.149 3.2824 -2.58002 0
M  V30 172 H 13.539 2.00254 -6.41364 0
M  V30 173 N 16.2591 1.48442 0.529413 0
M  V30 174 C 17.5361 1.46978 1.29062 0
M  V30 175 C 17.9161 0.181769 2.10316 0
M  V30 176 O 17.2641 -0.836481 2.12639 0
M  V30 177 C 17.4741 2.7321 2.17157 0
M  V30 178 C 18.8221 3.21562 2.77278 0
M  V30 179 O 19.8461 2.74131 2.27444 0
M  V30 180 O 18.7051 4.04094 3.67927 0
M  V30 181 H 15.7991 0.587003 0.582543 0
M  V30 182 H 18.3451 1.60676 0.546021 0
M  V30 183 H 17.1171 3.58465 1.56903 0
M  V30 184 H 16.7401 2.62235 2.98862 0
M  V30 185 N 17.7372 -0.778329 1.37039 0
M  V30 186 C 18.6472 -1.92253 1.34446 0
M  V30 187 C 19.6632 -1.72267 0.244991 0
M  V30 188 O 20.8392 -1.95615 0.479258 0
M  V30 189 C 17.9042 -3.27282 1.144 0
M  V30 190 C 16.9652 -3.59969 2.33925 0
M  V30 191 C 16.1982 -4.88555 2.14825 0
M  V30 192 O 16.4212 -5.59113 1.12912 0
M  V30 193 O 15.3552 -5.20153 3.02861 0
M  V30 194 H 19.1812 -1.97392 2.30803 0
M  V30 195 H 16.7662 -0.920154 1.17701 0
M  V30 196 H 18.6482 -4.08062 1.05182 0
M  V30 197 H 17.3232 -3.23011 0.211124 0
M  V30 198 H 16.2302 -2.7945 2.48714 0
M  V30 199 H 17.5632 -3.68976 3.25757 0
M  V30 200 N 19.2153 -1.21501 -1.00376 0
M  V30 201 C 20.4433 -1.059 -1.77744 0
M  V30 202 C 20.8583 0.391125 -1.84704 0
M  V30 203 O 20.2153 1.27133 -1.30933 0
M  V30 204 C 20.2663 -1.65111 -3.21591 0
M  V30 205 O 19.9873 -3.0445 -3.15027 0
M  V30 206 C 21.4883 -1.54637 -4.15454 0
M  V30 207 H 18.7083 -0.371825 -0.558558 0
M  V30 208 H 21.2523 -1.60865 -1.26264 0
M  V30 209 H 19.4073 -1.14235 -3.70175 0
M  V30 210 H 19.8213 -3.3278 -4.0541 0
M  V30 211 H 21.2953 -2.00808 -5.14179 0
M  V30 212 H 21.7723 -0.501022 -4.36333 0
M  V30 213 H 22.3783 -2.04767 -3.72761 0
M  V30 214 N 20.6934 1.19889 -1.02296 0
M  V30 215 C 21.9704 1.85148 -0.630832 0
M  V30 216 C 22.3504 1.91385 0.890782 0
M  V30 217 O 21.6984 1.42642 1.78509 0
M  V30 218 C 21.9084 3.24442 -1.28602 0
M  V30 219 C 23.2564 4.00663 -1.4055 0
M  V30 220 O 24.2804 3.33818 -1.24273 0
M  V30 221 O 23.1394 5.20387 -1.66913 0
M  V30 222 H 20.2334 0.797613 -0.218499 0
M  V30 223 H 22.7794 1.27427 -1.12074 0
M  V30 224 H 21.5514 3.14704 -2.32545 0
M  V30 225 H 21.1744 3.89802 -0.7836 0
M  V30 226 N 22.1715 0.800033 1.35784 0
M  V30 227 C 23.4205 0.37387 1.98205 0
M  V30 228 C 23.7335 -1.06302 1.64193 0
M  V30 229 O 24.9395 -1.59198 2.19928 0
M  V30 230 C 23.3955 0.617532 3.54562 0
M  V30 231 C 23.0035 2.06654 3.9749 0
M  V30 232 C 24.7475 0.256401 4.23725 0
M  V30 233 C 22.6545 2.2563 5.46667 0
M  V30 234 H 21.5845 0.136055 0.741623 0
M  V30 235 H 24.2355 0.983166 1.54939 0
M  V30 236 H 22.6175 -0.0616248 3.95952 0
M  V30 237 H 23.7915 2.78296 3.67271 0
M  V30 238 H 22.1065 2.38691 3.41197 0
M  V30 239 H 24.7035 0.376318 5.33374 0
M  V30 240 H 25.0465 -0.796692 4.08606 0
M  V30 241 H 25.5795 0.889214 3.87734 0
M  V30 242 H 22.3185 3.2936 5.66747 0
M  V30 243 H 21.8385 1.58504 5.78478 0
M  V30 244 H 23.5175 2.06861 6.1304 0
M  V30 245 N 23.6496 -1.47581 0.552962 0
M  V30 246 C 25.0656 -1.5818 0.212424 0
M  V30 247 C 25.2656 -1.55213 -1.28496 0
M  V30 248 O 24.3216 -1.45329 -2.06484 0
M  V30 249 C 25.6346 -2.88865 0.835318 0
M  V30 250 C 27.1826 -3.0244 0.806156 0
M  V30 251 C 27.6576 -4.35819 1.40804 0
M  V30 252 N 29.1486 -4.42444 1.37103 0
M  V30 253 C 29.8836 -5.44202 1.80641 0
M  V30 254 N 29.3796 -6.52795 2.32015 0
M  V30 255 N 31.1726 -5.35222 1.71738 0
M  V30 256 H 23.3236 -1.47753 1.52587 0
M  V30 257 H 25.5866 -0.702941 0.636064 0
M  V30 258 H 25.2926 -2.9676 1.88749 0
M  V30 259 H 25.1666 -3.7579 0.325848 0
M  V30 260 H 27.5536 -2.94144 -0.237317 0
M  V30 261 H 27.6346 -2.17068 1.35334 0
M  V30 262 H 27.2786 -4.44871 2.45056 0
M  V30 263 H 27.2086 -5.19916 0.836338 0
M  V30 264 H 29.6996 -3.6456 0.995202 0
M  V30 265 H 30.0126 -7.26609 2.63171 0
M  V30 266 H 28.3576 -6.53696 2.36023 0
M  V30 267 H 31.5486 -4.49284 1.31382 0
M  V30 268 H 31.7216 -6.14389 2.05987 0
M  V30 269 N 25.1277 -0.289203 -1.54924 0
M  V30 270 C 26.0747 0.592115 -2.23075 0
M  V30 271 C 27.0447 1.13881 -1.20915 0
M  V30 272 O 28.2297 1.18551 -1.495 0
M  V30 273 C 25.3697 1.76376 -2.96623 0
M  V30 274 C 24.4827 1.24959 -4.13533 0
M  V30 275 C 23.6177 2.38416 -4.74691 0
M  V30 276 C 22.6567 1.84072 -5.83767 0
M  V30 277 N 21.7937 2.91057 -6.38929 0
M  V30 278 H 26.6337 0.00432038 -2.98 0
M  V30 279 H 24.1707 -0.00963529 -1.47097 0
M  V30 280 H 26.1287 2.45268 -3.3749 0
M  V30 281 H 24.7587 2.32337 -2.24097 0
M  V30 282 H 23.8107 0.453307 -3.77689 0
M  V30 283 H 25.1227 0.811662 -4.92152 0
M  V30 284 H 24.2767 3.15276 -5.18349 0
M  V30 285 H 23.0157 2.8553 -3.95378 0
M  V30 286 H 22.0207 1.05697 -5.39545 0
M  V30 287 H 23.2457 1.37877 -6.64956 0
M  V30 288 H 21.1917 3.37526 -5.62505 0
M  V30 289 H 21.1087 2.51724 -7.12861 0
M  V30 290 H 22.3767 3.6785 -6.87246 0
M  V30 291 N 26.6058 1.57591 -0.0167156 0
M  V30 292 C 27.5528 2.09462 0.969251 0
M  V30 293 C 28.5228 0.99381 1.33089 0
M  V30 294 O 29.7078 1.26726 1.42636 0
M  V30 295 C 26.8478 2.61622 2.25051 0
M  V30 296 C 25.9608 3.85666 1.94642 0
M  V30 297 C 25.0958 4.26266 3.16972 0
M  V30 298 C 24.1348 5.43101 2.82326 0
M  V30 299 N 23.2718 5.78915 3.97243 0
M  V30 300 H 28.1118 2.93428 0.519997 0
M  V30 301 H 25.6488 1.45044 0.245087 0
M  V30 302 H 27.6068 2.89949 2.99976 0
M  V30 303 H 26.2368 1.80505 2.67615 0
M  V30 304 H 25.2888 3.64145 1.10013 0
M  V30 305 H 26.6008 4.70678 1.65117 0
M  V30 306 H 25.7548 4.55963 4.00228 0
M  V30 307 H 24.4938 3.39996 3.49648 0
M  V30 308 H 23.4988 5.1311 1.97479 0
M  V30 309 H 24.7238 6.3106 2.50879 0
M  V30 310 H 22.6698 4.95602 4.29785 0
M  V30 311 H 22.5868 6.58539 3.71299 0
M  V30 312 H 23.8548 6.13212 4.81239 0
M  V30 313 N 28.0839 -0.256276 1.55502 0
M  V30 314 C 29.0469 -1.30047 1.88734 0
M  V30 315 C 30.0469 -1.4154 0.763086 0
M  V30 316 O 31.2369 -1.40403 1.03115 0
M  V30 317 C 28.3689 -2.67953 2.10747 0
M  V30 318 H 29.5619 -1.01802 2.82093 0
M  V30 319 H 27.1149 -0.495134 1.4825 0
M  V30 320 H 27.8499 -3.01351 1.19825 0
M  V30 321 H 27.6349 -2.60993 2.92617 0
M  V30 322 H 29.1249 -3.43368 2.37673 0
M  V30 323 N 29.562 -1.4872 -0.521534 0
M  V30 324 C 30.472 -1.66569 -1.65203 0
M  V30 325 C 31.488 -0.548197 -1.65139 0
M  V30 326 O 32.664 -0.820339 -1.83936 0
M  V30 327 C 29.729 -1.70917 -3.01642 0
M  V30 328 C 28.79 -2.94356 -3.12495 0
M  V30 329 C 28.023 -2.98487 -4.42426 0
M  V30 330 O 28.246 -2.10786 -5.30024 0
M  V30 331 O 27.18 -3.90746 -4.57822 0
M  V30 332 H 31.006 -2.62298 -1.5308 0
M  V30 333 H 28.591 -1.3222 -0.695565 0
M  V30 334 H 30.473 -1.7625 -3.82771 0
M  V30 335 H 29.148 -0.783633 -3.14071 0
M  V30 336 H 28.055 -2.94552 -2.3063 0
M  V30 337 H 29.388 -3.86322 -3.04986 0
M  V30 338 N 31.0401 0.771051 -1.3745 0
M  V30 339 C 32.2881 1.52661 -1.32435 0
M  V30 340 C 32.6091 1.9479 0.0905024 0
M  V30 341 O 31.8791 1.66348 1.03466 0
M  V30 342 H 30.4591 0.566218 -0.487244 0
M  V30 343 H 33.1211 0.917636 -1.71946 0
M  V30 344 H 32.2171 2.42568 -1.96385 0
M  V30 345 N 32.5182 1.22032 0.997298 0
M  V30 346 C 33.7672 1.03637 1.73038 0
M  V30 347 C 34.0802 -0.429475 1.90827 0
M  V30 348 O 35.2862 -0.732995 2.61418 0
M  V30 349 C 33.7422 1.80582 3.11317 0
M  V30 350 C 33.3502 3.31387 3.01474 0
M  V30 351 C 35.0942 1.70621 3.88701 0
M  V30 352 C 33.0012 4.00791 4.3488 0
M  V30 353 H 31.9312 0.384179 0.648785 0
M  V30 354 H 34.5822 1.4584 1.11368 0
M  V30 355 H 32.9642 1.31175 3.73643 0
M  V30 356 H 34.1382 3.88155 2.4834 0
M  V30 357 H 32.4532 3.41976 2.37575 0
M  V30 358 H 35.0502 2.19799 4.87434 0
M  V30 359 H 35.3932 0.665823 4.10941 0
M  V30 360 H 35.9262 2.17547 3.33044 0
M  V30 361 H 32.6652 5.05064 4.1784 0
M  V30 362 H 32.1852 3.48811 4.87945 0
M  V30 363 H 33.8642 4.06139 5.03647 0
M  V30 364 N 33.9963 -1.19345 1.0293 0
M  V30 365 C 34.9593 -2.20793 0.615069 0
M  V30 366 C 35.9593 -1.57553 -0.321533 0
M  V30 367 O 37.1493 -1.73862 -0.108483 0
M  V30 368 C 34.2813 -3.40754 -0.0999222 0
M  V30 369 H 35.4743 -2.58955 1.51269 0
M  V30 370 H 33.0273 -1.3303 0.820534 0
M  V30 371 H 33.7623 -3.0811 -1.01187 0
M  V30 372 H 33.5473 -3.87889 0.57309 0
M  V30 373 H 35.0373 -4.15898 -0.376645 0
M  V30 374 N 35.4744 -0.807222 -1.35358 0
M  V30 375 C 36.4044 -0.232509 -2.3234 0
M  V30 376 C 37.3854 0.642386 -1.57504 0
M  V30 377 O 38.5704 0.572526 -1.85569 0
M  V30 378 C 35.7004 0.619238 -3.41735 0
M  V30 379 C 34.6544 -0.157215 -4.27711 0
M  V30 380 C 33.9804 0.816273 -5.28433 0
M  V30 381 C 35.2804 -1.35656 -5.04376 0
M  V30 382 H 36.9744 -1.04276 -2.80654 0
M  V30 383 H 34.5204 -0.50288 -1.34934 0
M  V30 384 H 36.4734 1.03137 -4.08584 0
M  V30 385 H 35.1974 1.46239 -2.92031 0
M  V30 386 H 33.8564 -0.550525 -3.62443 0
M  V30 387 H 33.5044 1.65494 -4.74996 0
M  V30 388 H 33.2044 0.301067 -5.86828 0
M  V30 389 H 34.7284 1.22659 -5.98153 0
M  V30 390 H 36.1424 -1.01927 -5.64166 0
M  V30 391 H 34.5394 -1.8063 -5.7227 0
M  V30 392 H 35.6094 -2.14288 -4.34981 0
M  V30 393 N 36.9525 1.47285 -0.560781 0
M  V30 394 C 38.2005 2.02064 -0.0379868 0
M  V30 395 C 38.5215 1.43711 1.31803 0
M  V30 396 O 37.7915 0.61362 1.86042 0
M  V30 397 H 36.3715 0.746918 -0.0110531 0
M  V30 398 H 39.0335 1.80648 -0.731598 0
M  V30 399 H 38.1295 3.12064 0.0474463 0
M  V30 400 N 38.4306 0.297415 1.54768 0
M  V30 401 C 39.3606 -0.573494 2.26348 0
M  V30 402 C 40.3416 -1.14085 1.26169 0
M  V30 403 O 41.5266 -1.17086 1.54934 0
M  V30 404 C 38.6566 -1.74716 3.00153 0
M  V30 405 C 37.6106 -1.31032 4.07449 0
M  V30 406 C 36.9366 -2.56887 4.68949 0
M  V30 407 C 38.2366 -0.444183 5.20408 0
M  V30 408 H 39.9306 0.0235131 2.99391 0
M  V30 409 H 37.4766 0.0127488 1.43994 0
M  V30 410 H 39.4296 -2.3625 3.48947 0
M  V30 411 H 38.1536 -2.37035 2.24682 0
M  V30 412 H 36.8126 -0.718066 3.59499 0
M  V30 413 H 36.4606 -3.17512 3.90122 0
M  V30 414 H 36.1606 -2.2836 5.41411 0
M  V30 415 H 37.6846 -3.19229 5.20505 0
M  V30 416 H 39.0986 -0.9651 5.65118 0
M  V30 417 H 37.4956 -0.252846 5.99567 0
M  V30 418 H 38.5656 0.531609 4.81977 0
M  V30 419 N 39.9087 -1.5758 0.0250728 0
M  V30 420 C 41.1367 -1.9593 -0.664747 0
M  V30 421 C 41.5517 -0.901352 -1.65895 0
M  V30 422 O 40.9087 0.117255 -1.82123 0
M  V30 423 C 40.9597 -3.34342 -1.37468 0
M  V30 424 O 40.6807 -4.36079 -0.420324 0
M  V30 425 C 42.1817 -3.873 -2.1567 0
M  V30 426 H 39.4017 -0.645405 -0.183557 0
M  V30 427 H 41.9457 -2.04329 0.0836372 0
M  V30 428 H 40.1007 -3.27175 -2.0745 0
M  V30 429 H 40.5147 -5.16297 -0.923991 0
M  V30 430 H 41.9887 -4.86504 -2.60803 0
M  V30 431 H 42.4657 -3.21331 -2.99405 0
M  V30 432 H 43.0717 -3.97723 -1.50654 0
M  V30 433 N 41.3868 0.248026 -1.55636 0
M  V30 434 C 42.6358 0.974134 -1.76617 0
M  V30 435 C 42.9488 1.86528 -0.588796 0
M  V30 436 O 44.1548 2.62805 -0.681594 0
M  V30 437 C 42.6108 1.78213 -3.12679 0
M  V30 438 C 42.2188 0.93843 -4.38061 0
M  V30 439 C 43.9628 2.50104 -3.42999 0
M  V30 440 C 41.8698 1.74225 -5.65155 0
M  V30 441 H 40.7998 0.36745 -0.658405 0
M  V30 442 H 43.4508 0.22884 -1.82067 0
M  V30 443 H 41.8328 2.56933 -3.01333 0
M  V30 444 H 43.0068 0.193635 -4.60393 0
M  V30 445 H 41.3218 0.332905 -4.15067 0
M  V30 446 H 43.9188 3.10694 -4.3517 0
M  V30 447 H 44.2618 3.21662 -2.64271 0
M  V30 448 H 44.7948 1.78395 -3.55556 0
M  V30 449 H 41.5338 1.07043 -6.46701 0
M  V30 450 H 41.0538 2.46235 -5.46926 0
M  V30 451 H 42.7328 2.30967 -6.0437 0
M  V30 452 N 42.8649 1.48995 0.513639 0
M  V30 453 C 44.1129 1.57531 1.26604 0
M  V30 454 C 44.4339 0.258236 1.93283 0
M  V30 455 O 43.7039 -0.721502 1.8213 0
M  V30 456 H 42.2839 0.580387 0.470276 0
M  V30 457 H 44.9459 1.85552 0.596373 0
M  V30 458 H 44.0419 2.36486 2.03669 0
M  V30 459 N 44.343 -0.763751 1.37857 0
M  V30 460 C 45.571 -1.55293 1.36718 0
M  V30 461 C 45.986 -1.88745 -0.0455434 0
M  V30 462 O 45.343 -1.52039 -1.00947 0
M  V30 463 C 45.394 -2.85831 2.2132 0
M  V30 464 O 45.115 -2.5381 3.57089 0
M  V30 465 C 46.616 -3.80023 2.28249 0
M  V30 466 H 43.836 -0.480841 0.468009 0
M  V30 467 H 46.38 -0.946009 1.81303 0
M  V30 468 H 44.535 -3.42926 1.80223 0
M  V30 469 H 44.949 -3.37459 4.01524 0
M  V30 470 H 46.423 -4.68599 2.91752 0
M  V30 471 H 46.9 -4.1973 1.2932 0
M  V30 472 H 47.506 -3.28855 2.69693 0
M  V30 473 N 45.8211 -1.22559 -0.990812 0
M  V30 474 C 47.0671 -1.06303 -1.73411 0
M  V30 475 C 47.4221 0.397442 -1.8825 0
M  V30 476 O 46.7151 1.29062 -1.41611 0
M  V30 477 C 46.9091 -1.71011 -3.13831 0
M  V30 478 C 46.7381 -3.232 -3.12685 0
M  V30 479 C 45.5081 -3.92314 -3.18461 0
M  V30 480 C 47.7061 -4.20107 -2.96673 0
M  V30 481 N 45.6881 -5.31571 -3.07091 0
M  V30 482 C 47.0591 -5.46208 -2.93354 0
M  V30 483 C 49.1141 -4.10973 -2.8108 0
M  V30 484 C 47.8171 -6.64225 -2.76039 0
M  V30 485 C 49.8431 -5.28642 -2.65126 0
M  V30 486 C 49.2051 -6.53663 -2.62496 0
M  V30 487 H 45.3041 -0.443441 -0.644115 0
M  V30 488 H 47.8881 -1.55131 -1.17654 0
M  V30 489 H 46.0591 -1.2473 -3.67827 0
M  V30 490 H 47.7911 -1.47828 -3.76735 0
M  V30 491 H 44.5461 -3.43326 -3.26227 0
M  V30 492 H 44.9701 -6.0455 -3.0471 0
M  V30 493 H 49.6121 -3.15098 -2.8191 0
M  V30 494 H 47.3301 -7.60246 -2.73954 0
M  V30 495 H 50.9161 -5.23407 -2.54039 0
M  V30 496 H 49.7961 -7.43182 -2.50302 0
M  V30 497 N 47.2992 1.18797 -1.03562 0
M  V30 498 C 48.5272 1.92599 -0.755869 0
M  V30 499 C 48.9422 1.75886 0.686271 0
M  V30 500 O 48.2992 1.08517 1.46732 0
M  V30 501 C 48.3502 3.44159 -1.10619 0
M  V30 502 O 48.0712 3.60341 -2.4917 0
M  V30 503 C 49.5722 4.3507 -0.850214 0
M  V30 504 H 46.7922 0.611587 -0.276048 0
M  V30 505 H 49.3362 1.50742 -1.38192 0
M  V30 506 H 47.4912 3.83823 -0.525194 0
M  V30 507 H 47.9052 4.54128 -2.62427 0
M  V30 508 H 49.3792 5.39989 -1.14523 0
M  V30 509 H 49.8562 4.38673 0.215176 0
M  V30 510 H 50.4622 4.01097 -1.41426 0
M  V30 511 N 48.7773 0.814389 1.34928 0
M  V30 512 C 50.0543 0.321363 1.92942 0
M  V30 513 C 50.4343 -1.19014 1.74353 0
M  V30 514 O 49.7823 -1.99328 1.11716 0
M  V30 515 C 49.9923 0.741323 3.41036 0
M  V30 516 C 51.3403 0.735266 4.18185 0
M  V30 517 O 52.3643 0.68336 3.49584 0
M  V30 518 O 51.2233 0.800703 5.40602 0
M  V30 519 H 48.3173 0.0858893 0.822528 0
M  V30 520 H 50.8633 0.898609 1.43955 0
M  V30 521 H 49.6353 1.78276 3.4833 0
M  V30 522 H 49.2583 0.139307 3.97356 0
M  V30 523 N 50.2554 -1.46986 0.568584 0
M  V30 524 C 51.1854 -2.32946 -0.160753 0
M  V30 525 C 52.1664 -1.44487 -0.897631 0
M  V30 526 O 53.3514 -1.73327 -0.875867 0
M  V30 527 C 50.4814 -3.26494 -1.18403 0
M  V30 528 C 49.4354 -4.24282 -0.562895 0
M  V30 529 C 48.7614 -5.07236 -1.69163 0
M  V30 530 C 50.0614 -5.19989 0.490761 0
M  V30 531 H 51.7554 -2.94175 0.556916 0
M  V30 532 H 49.3014 -1.4146 0.26927 0
M  V30 533 H 51.2544 -3.85477 -1.70251 0
M  V30 534 H 49.9784 -2.63343 -1.93179 0
M  V30 535 H 48.6374 -3.66541 -0.0656164 0
M  V30 536 H 48.2854 -4.4048 -2.42871 0
M  V30 537 H 47.9854 -5.7345 -1.28174 0
M  V30 538 H 49.5094 -5.6908 -2.21314 0
M  V30 539 H 50.9234 -5.73271 0.0579047 0
M  V30 540 H 49.3204 -5.94469 0.820165 0
M  V30 541 H 50.3904 -4.64777 1.3824 0
M  V30 542 N 51.7335 -0.305618 -1.54608 0
M  V30 543 C 53.1445 0.186098 -1.8577 0
M  V30 544 C 53.4955 1.53058 -1.22751 0
M  V30 545 O 52.6205 2.09888 -0.526893 0
M  V30 546 C 53.2155 0.344449 -3.37044 0
M  V30 547 C 51.7745 0.780384 -3.68221 0
M  V30 548 C 50.9215 -0.108554 -2.77087 0
M  V30 549 H 53.8725 -0.526485 -1.49712 0
M  V30 550 H 53.8935 1.17828 -3.61796 0
M  V30 551 H 53.4055 -0.634235 -3.82883 0
M  V30 552 H 51.5065 1.76945 -3.27904 0
M  V30 553 H 51.6195 0.596572 -4.75371 0
M  V30 554 H 49.9835 0.412931 -2.5133 0
M  V30 555 H 50.7665 -1.08368 -3.25747 0
M  V30 556 N 53.2116 1.57565 -0.0334293 0
M  V30 557 C 54.1746 2.09393 0.932048 0
M  V30 558 C 55.1746 1.00986 1.25134 0
M  V30 559 O 56.3646 1.27129 1.19096 0
M  V30 560 C 53.4966 2.56338 2.2473 0
M  V30 561 H 54.6896 2.95984 0.483085 0
M  V30 562 H 52.2426 1.54819 0.21468 0
M  V30 563 H 52.9776 1.7309 2.74245 0
M  V30 564 H 52.7626 3.35542 2.02865 0
M  V30 565 H 54.2526 2.96646 2.93923 0
M  V30 566 N 54.6897 -0.239769 1.55765 0
M  V30 567 C 55.6197 -1.30052 1.9393 0
M  V30 568 C 56.6007 -1.49839 0.805132 0
M  V30 569 O 57.7857 -1.62328 1.06599 0
M  V30 570 C 54.9157 -2.65391 2.2402 0
M  V30 571 C 53.8697 -2.60289 3.39755 0
M  V30 572 C 53.1957 -3.99489 3.55405 0
M  V30 573 C 54.4957 -2.16654 4.75246 0
M  V30 574 H 56.1897 -0.983573 2.82783 0
M  V30 575 H 53.7357 -0.471701 1.36055 0
M  V30 576 H 55.6887 -3.3974 2.49308 0
M  V30 577 H 54.4127 -2.98736 1.32 0
M  V30 578 H 53.0717 -1.88398 3.14487 0
M  V30 579 H 52.7197 -4.30112 2.60793 0
M  V30 580 H 52.4197 -3.96962 4.33238 0
M  V30 581 H 53.9437 -4.75528 3.83022 0
M  V30 582 H 55.3577 -2.80737 4.99859 0
M  V30 583 H 53.7547 -2.25223 5.56232 0
M  V30 584 H 54.8247 -1.11835 4.71827 0
M  V30 585 N 56.1678 -1.49265 -0.50573 0
M  V30 586 C 57.0778 -1.68312 -1.63427 0
M  V30 587 C 58.0938 -0.565682 -1.64548 0
M  V30 588 O 59.2698 -0.839801 -1.83055 0
M  V30 589 C 56.3348 -1.74107 -2.99813 0
M  V30 590 C 55.3958 -2.97653 -3.09356 0
M  V30 591 C 54.6288 -3.03163 -4.39236 0
M  V30 592 O 54.8518 -2.16396 -5.27758 0
M  V30 593 O 53.7858 -3.9558 -4.53652 0
M  V30 594 H 57.6118 -2.63907 -1.50289 0
M  V30 595 H 55.1968 -1.32951 -0.681502 0
M  V30 596 H 57.0788 -1.803 -3.80881 0
M  V30 597 H 55.7538 -0.816901 -3.13223 0
M  V30 598 H 54.6608 -2.96981 -2.27493 0
M  V30 599 H 55.9938 -3.89535 -3.00871 0
M  V30 600 N 57.6459 0.756429 -1.3826 0
M  V30 601 C 58.5779 1.87971 -1.31147 0
M  V30 602 C 59.5909 1.61248 -0.224239 0
M  V30 603 O 60.7799 1.71881 -0.481581 0
M  V30 604 C 57.8799 3.23545 -1.00857 0
M  V30 605 C 57.0529 3.77794 -2.20432 0
M  V30 606 C 56.1119 4.91877 -1.86931 0
M  V30 607 O 55.1379 5.06659 -2.59395 0
M  V30 608 N 56.3399 5.74643 -0.822568 0
M  V30 609 H 59.1049 1.94585 -2.2794 0
M  V30 610 H 56.6659 0.936234 -1.32084 0
M  V30 611 H 58.6579 3.97403 -0.765021 0
M  V30 612 H 57.2279 3.12335 -0.128687 0
M  V30 613 H 56.4479 2.95534 -2.6087 0
M  V30 614 H 57.7359 4.10771 -3.00241 0
M  V30 615 H 57.1339 5.65266 -0.221575 0
M  V30 616 H 55.6909 6.48661 -0.638899 0
M  V30 617 N 59.124 1.23083 0.984299 0
M  V30 618 C 60.034 1.02515 2.11016 0
M  V30 619 C 61.05 -0.0291702 1.73976 0
M  V30 620 O 62.226 0.165434 2.00719 0
M  V30 621 C 59.291 0.614673 3.41208 0
M  V30 622 C 58.352 1.74359 3.92297 0
M  V30 623 C 57.585 1.35261 5.16275 0
M  V30 624 O 57.808 0.235136 5.69915 0
M  V30 625 O 56.742 2.17227 5.61334 0
M  V30 626 H 60.568 1.96862 2.31255 0
M  V30 627 H 58.153 1.01753 1.09392 0
M  V30 628 H 60.035 0.396518 4.1953 0
M  V30 629 H 58.71 -0.299851 3.22308 0
M  V30 630 H 57.617 2.01635 3.1511 0
M  V30 631 H 58.95 2.63629 4.15645 0
M  V30 632 N 60.6021 -1.18246 1.0419 0
M  V30 633 C 61.5341 -2.2142 0.592088 0
M  V30 634 C 62.5471 -1.59233 -0.338909 0
M  V30 635 O 63.7361 -1.78002 -0.133231 0
M  V30 636 C 60.8361 -3.38546 -0.154854 0
M  V30 637 C 60.0091 -4.3031 0.784328 0
M  V30 638 C 59.0681 -5.26138 0.0804583 0
M  V30 639 O 58.0941 -5.64738 0.711292 0
M  V30 640 N 59.2961 -5.68261 -1.18574 0
M  V30 641 H 62.0611 -2.60636 1.47949 0
M  V30 642 H 59.6221 -1.33044 0.922544 0
M  V30 643 H 61.6141 -3.99678 -0.635606 0
M  V30 644 H 60.1841 -2.98012 -0.943811 0
M  V30 645 H 59.4041 -3.66764 1.44491 0
M  V30 646 H 60.6921 -4.8852 1.42218 0
M  V30 647 H 60.0901 -5.38957 -1.71876 0
M  V30 648 H 58.6471 -6.31584 -1.61074 0
M  V30 649 N 62.0802 -0.821533 -1.34494 0
M  V30 650 C 63.0102 -0.257138 -2.3208 0
M  V30 651 C 63.9912 0.625645 -1.58176 0
M  V30 652 O 65.1762 0.552811 -1.86166 0
M  V30 653 C 62.3062 0.582958 -3.42372 0
M  V30 654 C 61.2602 -0.202571 -4.2752 0
M  V30 655 C 60.5862 0.760179 -5.29269 0
M  V30 656 C 61.8862 -1.40998 -5.02908 0
M  V30 657 H 63.5802 -1.07247 -2.79532 0
M  V30 658 H 61.1262 -0.517163 -1.34393 0
M  V30 659 H 63.0792 0.987972 -4.09655 0
M  V30 660 H 61.8032 1.43133 -2.93565 0
M  V30 661 H 60.4622 -0.588936 -3.61838 0
M  V30 662 H 60.1102 1.60447 -4.76724 0
M  V30 663 H 59.8102 0.238809 -5.87115 0
M  V30 664 H 61.3342 1.16308 -5.9942 0
M  V30 665 H 62.7482 -1.07905 -5.63054 0
M  V30 666 H 61.1452 -1.86689 -5.70322 0
M  V30 667 H 62.2152 -2.1889 -4.32684 0
M  V30 668 N 63.5583 1.46682 -0.576371 0
M  V30 669 C 64.9743 1.57822 -0.237562 0
M  V30 670 C 65.1743 1.57237 1.26011 0
M  V30 671 O 64.2303 1.48596 2.04146 0
M  V30 672 C 65.5433 2.87499 -0.881168 0
M  V30 673 C 67.0913 3.01119 -0.85417 0
M  V30 674 C 67.5663 4.33524 -1.4772 0
M  V30 675 N 69.0573 4.40207 -1.44125 0
M  V30 676 C 69.7923 5.4126 -1.89276 0
M  V30 677 N 69.2883 6.49021 -2.42371 0
M  V30 678 N 71.0813 5.32422 -1.80231 0
M  V30 679 H 63.2323 1.45306 -1.54919 0
M  V30 680 H 65.4953 0.692733 -0.647167 0
M  V30 681 H 65.2013 2.9372 -1.93447 0
M  V30 682 H 65.0753 3.75224 -0.385592 0
M  V30 683 H 67.4623 2.94485 0.190491 0
M  V30 684 H 67.5433 2.14887 -1.3877 0
M  V30 685 H 67.1873 4.40916 -2.52103 0
M  V30 686 H 67.1173 5.1852 -0.918947 0
M  V30 687 H 69.6083 3.62931 -1.05307 0
M  V30 688 H 69.9213 7.2233 -2.74698 0
M  V30 689 H 68.2663 6.49858 -2.46393 0
M  V30 690 H 71.4573 4.47137 -1.38514 0
M  V30 691 H 71.6303 6.11034 -2.15735 0
M  V30 692 N 65.0364 0.313813 1.54444 0
M  V30 693 C 65.9834 -0.55655 2.23989 0
M  V30 694 C 66.9534 -1.11943 1.22711 0
M  V30 695 O 68.1384 -1.16158 1.51367 0
M  V30 696 C 65.2784 -1.71635 2.99392 0
M  V30 697 C 64.3914 -1.18364 4.15468 0
M  V30 698 C 63.5264 -2.30834 4.78424 0
M  V30 699 C 62.5654 -1.74762 5.86622 0
M  V30 700 N 61.7024 -2.80855 6.43479 0
M  V30 701 H 66.5424 0.0430893 2.97969 0
M  V30 702 H 64.0794 0.0330359 1.47063 0
M  V30 703 H 66.0374 -2.39868 3.41349 0
M  V30 704 H 64.6674 -2.28742 2.27765 0
M  V30 705 H 63.7194 -0.393163 3.78363 0
M  V30 706 H 65.0314 -0.733262 4.93381 0
M  V30 707 H 64.1854 -3.0699 5.23299 0
M  V30 708 H 62.9244 -2.79204 3.99871 0
M  V30 709 H 61.9294 -0.970995 5.41158 0
M  V30 710 H 63.1544 -1.2728 6.67066 0
M  V30 711 H 61.1004 -3.28535 5.67804 0
M  V30 712 H 61.0174 -2.40351 7.16776 0
M  V30 713 H 62.2854 -3.5687 6.93011 0
M  V30 714 N 66.5145 -1.57545 0.0417849 0
M  V30 715 C 67.4645 -2.07483 -0.945247 0
M  V30 716 C 68.4485 -0.977983 -1.27767 0
M  V30 717 O 69.6405 -1.24142 -1.26166 0
M  V30 718 C 66.7695 -2.61576 -2.22335 0
M  V30 719 C 65.8555 -3.78213 -1.91874 0
M  V30 720 N 66.2465 -4.88344 -1.31733 0
M  V30 721 C 64.5445 -3.8694 -2.21796 0
M  V30 722 C 65.2455 -5.69462 -1.1869 0
M  V30 723 N 64.2215 -5.16771 -1.68666 0
M  V30 724 H 68.0235 -2.90029 -0.475441 0
M  V30 725 H 65.5375 -1.61581 -0.162911 0
M  V30 726 H 67.5345 -2.95651 -2.93932 0
M  V30 727 H 66.1945 -1.80465 -2.69931 0
M  V30 728 H 67.2055 -5.08335 -0.990729 0
M  V30 729 H 63.8825 -3.16757 -2.71977 0
M  V30 730 H 65.2725 -6.68023 -0.720793 0
M  V30 731 N 67.9926 0.231505 -1.5589 0
M  V30 732 C 68.9396 1.28682 -1.91598 0
M  V30 733 C 69.9096 1.47071 -0.771974 0
M  V30 734 O 71.0946 1.60802 -1.027 0
M  V30 735 C 68.2346 2.6342 -2.22944 0
M  V30 736 C 67.3476 2.52912 -3.50228 0
M  V30 737 C 66.4826 3.80106 -3.7107 0
M  V30 738 C 65.5216 3.64279 -4.91902 0
M  V30 739 N 64.6586 4.834 -5.09184 0
M  V30 740 H 69.4986 0.975305 -2.81588 0
M  V30 741 H 67.0356 0.470299 -1.39379 0
M  V30 742 H 68.9936 3.41869 -2.39126 0
M  V30 743 H 67.6236 2.92687 -1.36139 0
M  V30 744 H 66.6756 1.6595 -3.42294 0
M  V30 745 H 67.9876 2.37133 -4.38827 0
M  V30 746 H 67.1416 4.66999 -3.87295 0
M  V30 747 H 65.8806 3.98799 -2.80733 0
M  V30 748 H 64.8856 2.7577 -4.75637 0
M  V30 749 H 66.1106 3.47067 -5.83714 0
M  V30 750 H 64.0566 5.02425 -4.21788 0
M  V30 751 H 63.9736 4.70311 -5.91898 0
M  V30 752 H 65.2416 5.71747 -5.29835 0
M  V30 753 N 69.4707 1.49531 0.497807 0
M  V30 754 C 70.7187 1.58865 1.24926 0
M  V30 755 C 71.0397 0.278721 1.92998 0
M  V30 756 O 70.3097 -0.702144 1.82885 0
M  V30 757 H 68.8897 0.585343 0.464094 0
M  V30 758 H 71.5517 1.86174 0.57666 0
M  V30 759 H 70.6477 2.38633 2.01149 0
M  V30 760 N 70.9488 -0.749086 1.3866 0
M  V30 761 C 71.8588 -1.89358 1.38494 0
M  V30 762 C 72.8748 -1.71708 0.281476 0
M  V30 763 O 74.0508 -1.94554 0.520643 0
M  V30 764 C 71.1158 -3.24782 1.21316 0
M  V30 765 C 70.1768 -3.54926 2.41508 0
M  V30 766 C 69.4098 -4.83888 2.2514 0
M  V30 767 O 69.6328 -5.56592 1.24746 0
M  V30 768 O 68.5668 -5.13612 3.13826 0
M  V30 769 H 72.3928 -1.92452 2.34938 0
M  V30 770 H 69.9778 -0.894981 1.19626 0
M  V30 771 H 71.8598 -4.05739 1.13814 0
M  V30 772 H 70.5348 -3.2249 0.279592 0
M  V30 773 H 69.4418 -2.74112 2.54585 0
M  V30 774 H 70.7748 -3.61983 3.3351 0
M  V30 775 N 72.4269 -1.23603 -0.977757 0
M  V30 776 C 73.6729 -1.07129 -1.72195 0
M  V30 777 C 74.0059 0.390501 -1.90233 0
M  V30 778 O 73.2809 1.28902 -1.45653 0
M  V30 779 C 73.5639 -1.80031 -3.11867 0
M  V30 780 C 73.4169 -3.33899 -3.01383 0
M  V30 781 C 74.7359 -1.56492 -4.11337 0
M  V30 782 H 71.8549 -0.390571 -0.624999 0
M  V30 783 H 74.4969 -1.52142 -1.13811 0
M  V30 784 H 72.6469 -1.41768 -3.6171 0
M  V30 785 H 74.3189 -3.81699 -2.59043 0
M  V30 786 H 72.5619 -3.62796 -2.37827 0
M  V30 787 H 73.2329 -3.801 -4.00285 0
M  V30 788 H 75.7089 -1.89757 -3.70313 0
M  V30 789 H 74.5849 -2.09973 -5.07151 0
M  V30 790 H 74.8459 -0.500874 -4.39254 0
M  V30 791 N 73.905 1.17692 -1.04816 0
M  V30 792 C 75.151 1.88137 -0.75711 0
M  V30 793 C 75.484 1.80604 0.713841 0
M  V30 794 O 74.759 1.21146 1.52164 0
M  V30 795 C 75.042 3.38318 -1.2334 0
M  V30 796 C 74.895 3.54622 -2.76701 0
M  V30 797 C 76.214 4.32214 -0.829415 0
M  V30 798 H 73.333 0.683163 -0.27651 0
M  V30 799 H 75.975 1.38424 -1.30149 0
M  V30 800 H 74.125 3.80787 -0.770286 0
M  V30 801 H 75.797 3.21194 -3.31107 0
M  V30 802 H 74.04 2.97026 -3.16161 0
M  V30 803 H 74.711 4.60028 -3.05088 0
M  V30 804 H 77.187 3.97565 -1.22805 0
M  V30 805 H 76.063 5.35838 -1.19033 0
M  V30 806 H 76.324 4.41294 0.266891 0
M  V30 807 N 75.3831 0.828654 1.34056 0
M  V30 808 C 76.3461 0.259927 2.27721 0
M  V30 809 C 77.3461 -0.565478 1.50529 0
M  V30 810 O 78.5361 -0.38075 1.69988 0
M  V30 811 C 75.6681 -0.634944 3.34935 0
M  V30 812 H 76.8611 1.0863 2.79534 0
M  V30 813 H 74.4141 0.600951 1.44285 0
M  V30 814 H 75.1491 -1.48416 2.88346 0
M  V30 815 H 74.9341 -0.0444999 3.92075 0
M  V30 816 H 76.4241 -1.02648 4.04788 0
M  V30 817 N 76.8612 -1.46375 0.584142 0
M  V30 818 C 78.1102 -2.01585 0.0679741 0
M  V30 819 C 78.4232 -1.46109 -1.30045 0
M  V30 820 O 79.6292 -1.93148 -1.90804 0
M  V30 821 C 78.0852 -3.5983 0.0709207 0
M  V30 822 C 77.6932 -4.24303 1.43775 0
M  V30 823 C 79.4372 -4.22693 -0.391228 0
M  V30 824 C 77.3442 -5.74631 1.39834 0
M  V30 825 H 76.2742 -0.753689 0.0216421 0
M  V30 826 H 78.9252 -1.68093 0.736001 0
M  V30 827 H 77.3072 -3.90405 -0.663299 0
M  V30 828 H 78.4812 -4.05335 2.19181 0
M  V30 829 H 76.7962 -3.73539 1.84004 0
M  V30 830 H 79.3932 -5.3289 -0.439524 0
M  V30 831 H 79.7362 -3.91728 -1.40906 0
M  V30 832 H 80.2692 -3.96749 0.288974 0
M  V30 833 H 77.0082 -6.10258 2.39303 0
M  V30 834 H 76.5282 -5.95858 0.686505 0
M  V30 835 H 78.2072 -6.37375 1.11187 0
M  V30 836 N 78.3393 -0.321999 -1.54275 0
M  V30 837 C 79.2493 0.553631 -2.27974 0
M  V30 838 C 80.2653 1.13054 -1.32268 0
M  V30 839 O 81.4413 1.15084 -1.6528 0
M  V30 840 C 78.5063 1.69927 -3.02201 0
M  V30 841 C 77.5673 1.15433 -4.1349 0
M  V30 842 C 76.8003 2.24537 -4.84168 0
M  V30 843 O 77.0233 3.44852 -4.5435 0
M  V30 844 O 75.9573 1.90044 -5.7111 0
M  V30 845 H 79.7833 -0.0448345 -3.03667 0
M  V30 846 H 77.3683 -0.0877418 -1.49142 0
M  V30 847 H 79.2503 2.3663 -3.48689 0
M  V30 848 H 77.9253 2.28395 -2.29385 0
M  V30 849 H 76.8323 0.452436 -3.71354 0
M  V30 850 H 78.1653 0.614805 -4.88345 0
M  V30 851 N 79.8174 1.5752 -0.0501392 0
M  V30 852 C 80.7274 2.14952 0.939827 0
M  V30 853 C 81.7434 1.10706 1.34239 0
M  V30 854 O 82.9194 1.42869 1.41952 0
M  V30 855 C 79.9844 2.68232 2.19665 0
M  V30 856 C 79.0454 3.87272 1.85253 0
M  V30 857 C 78.2784 4.38002 3.04943 0
M  V30 858 O 78.5014 3.87811 4.18281 0
M  V30 859 O 77.4354 5.29602 2.86017 0
M  V30 860 H 81.2614 2.9986 0.481392 0
M  V30 861 H 78.8464 1.4841 0.171699 0
M  V30 862 H 80.7284 3.02475 2.93406 0
M  V30 863 H 79.4034 1.86395 2.64648 0
M  V30 864 H 78.3104 3.5792 1.0883 0
M  V30 865 H 79.6434 4.70336 1.4507 0
M  V30 866 N 81.2955 -0.223234 1.56011 0
M  V30 867 C 82.2255 -1.27988 1.95298 0
M  V30 868 C 83.2065 -1.48976 0.820979 0
M  V30 869 O 84.3915 -1.61188 1.08315 0
M  V30 870 C 81.5215 -2.63 2.26822 0
M  V30 871 C 80.4755 -2.56671 3.42497 0
M  V30 872 C 79.8015 -3.95697 3.59622 0
M  V30 873 C 81.1015 -2.11601 4.77517 0
M  V30 874 H 82.7955 -0.953525 2.8381 0
M  V30 875 H 80.3415 -0.457244 1.36548 0
M  V30 876 H 82.2945 -3.37077 2.52898 0
M  V30 877 H 81.0185 -2.9732 1.35161 0
M  V30 878 H 79.6775 -1.85051 3.16467 0
M  V30 879 H 79.3255 -4.27322 2.6534 0
M  V30 880 H 79.0255 -3.92345 4.37424 0
M  V30 881 H 80.5495 -4.71438 3.88044 0
M  V30 882 H 81.9635 -2.7542 5.02809 0
M  V30 883 H 80.3605 -2.19311 5.5859 0
M  V30 884 H 81.4305 -1.06824 4.72987 0
M  V30 885 N 82.7736 -1.49793 -0.48987 0
M  V30 886 C 84.0216 -1.59525 -1.24081 0
M  V30 887 C 84.3426 -0.288953 -1.92847 0
M  V30 888 O 83.6126 0.692436 -1.83254 0
M  V30 889 H 82.1926 -0.587796 -0.460983 0
M  V30 890 H 84.8546 -1.86477 -0.566778 0
M  V30 891 H 83.9506 -2.39696 -1.99881 0
M  V30 892 N 84.2517 0.741722 -1.39055 0
M  V30 893 C 85.1617 1.88621 -1.39496 0
M  V30 894 C 86.1777 1.71557 -0.290578 0
M  V30 895 O 87.3537 1.94275 -0.530954 0
M  V30 896 C 84.4187 3.24134 -1.23037 0
M  V30 897 C 83.4797 3.5364 -2.43387 0
M  V30 898 C 82.7127 4.82687 -2.27703 0
M  V30 899 O 82.9357 5.55922 -1.27696 0
M  V30 900 O 81.8697 5.1194 -3.16545 0
M  V30 901 H 85.6957 1.91203 -2.35956 0
M  V30 902 H 83.2807 0.888625 -1.20099 0
M  V30 903 H 85.1627 4.0513 -1.15964 0
M  V30 904 H 83.8377 3.22337 -0.296691 0
M  V30 905 H 82.7447 2.72758 -2.56035 0
M  V30 906 H 84.0777 3.60209 -3.35425 0
M  V30 907 N 85.7298 1.2412 0.971189 0
M  V30 908 C 86.9548 1.10667 1.75407 0
M  V30 909 C 87.3798 -0.337048 1.85056 0
M  V30 910 O 86.7378 -1.24396 1.31892 0
M  V30 911 C 86.7858 1.74726 3.15441 0
M  V30 912 O 85.8898 1.01566 3.99697 0
M  V30 913 H 85.2308 0.387341 0.539317 0
M  V30 914 H 87.7608 1.64358 1.2185 0
M  V30 915 H 87.7708 1.80341 3.6598 0
M  V30 916 H 86.4458 2.79773 3.07734 0
M  V30 917 H 85.0228 1.03713 3.58187 0
M  V30 918 N 87.2079 -1.17134 1.05439 0
M  V30 919 C 88.1179 -2.24878 0.668365 0
M  V30 920 C 89.1339 -1.71186 -0.311687 0
M  V30 921 O 90.3099 -2.00738 -0.163161 0
M  V30 922 C 87.3749 -3.46662 0.051648 0
M  V30 923 C 86.4359 -4.15429 1.08246 0
M  V30 924 C 85.6689 -5.31399 0.495082 0
M  V30 925 O 85.8919 -5.66153 -0.694743 0
M  V30 926 O 84.8259 -5.89187 1.23056 0
M  V30 927 H 88.6519 -2.60189 1.56637 0
M  V30 928 H 86.2369 -1.24482 0.826104 0
M  V30 929 H 88.1189 -4.20394 -0.290966 0
M  V30 930 H 86.7939 -3.13142 -0.819971 0
M  V30 931 H 85.7009 -3.43704 1.47711 0
M  V30 932 H 87.0339 -4.52982 1.92532 0
M  V30 933 N 88.686 -0.835752 -1.33615 0
M  V30 934 C 90.102 -0.523139 -1.50783 0
M  V30 935 C 90.302 0.950171 -1.77691 0
M  V30 936 O 89.358 1.73411 -1.83534 0
M  V30 937 C 90.671 -1.39378 -2.66448 0
M  V30 938 C 92.219 -1.39223 -2.80332 0
M  V30 939 C 92.694 -2.24765 -3.99055 0
M  V30 940 N 94.185 -2.22458 -4.06284 0
M  V30 941 C 94.92 -2.85386 -4.97336 0
M  V30 942 N 94.416 -3.57354 -5.93523 0
M  V30 943 N 96.209 -2.74872 -4.90308 0
M  V30 944 H 88.36 -1.78952 -1.14411 0
M  V30 945 H 90.623 -0.763297 -0.562212 0
M  V30 946 H 90.329 -2.44061 -2.53234 0
M  V30 947 H 90.203 -1.0676 -3.61776 0
M  V30 948 H 92.59 -0.353136 -2.92979 0
M  V30 949 H 92.671 -1.75846 -1.85773 0
M  V30 950 H 92.315 -3.28732 -3.87167 0
M  V30 951 H 92.245 -1.85485 -4.92852 0
M  V30 952 H 94.736 -1.70119 -3.37443 0
M  V30 953 H 95.049 -4.02584 -6.59656 0
M  V30 954 H 93.394 -3.61461 -5.93608 0
M  V30 955 H 96.585 -2.18213 -4.14126 0
M  V30 956 H 96.758 -3.24199 -5.61069 0
M  V30 957 N 90.1641 1.46063 -0.591896 0
M  V30 958 C 91.4101 2.02638 -0.0811191 0
M  V30 959 C 91.7431 1.4613 1.27905 0
M  V30 960 O 91.0181 0.629908 1.84017 0
M  V30 961 C 91.3011 3.60091 -0.0252436 0
M  V30 962 C 91.1541 4.26965 -1.41496 0
M  V30 963 C 92.4731 4.3496 0.670685 0
M  V30 964 H 89.5921 0.73635 -0.0309524 0
M  V30 965 H 92.2341 1.741 -0.760859 0
M  V30 966 H 90.3841 3.84535 0.553624 0
M  V30 967 H 92.0561 4.13756 -2.0397 0
M  V30 968 H 90.2991 3.85971 -1.98011 0
M  V30 969 H 90.9701 5.35781 -1.32825 0
M  V30 970 H 93.4461 4.15716 0.178825 0
M  V30 971 H 92.3221 5.44686 0.678837 0
M  V30 972 H 92.5831 4.06685 1.73379 0
M  V30 973 N 91.6422 0.330177 1.54103 0
M  V30 974 C 92.5902 -0.548226 2.26047 0
M  V30 975 C 93.5842 -1.11309 1.27698 0
M  V30 976 O 94.7902 -1.06036 1.45452 0
M  V30 977 H 91.1652 -0.195456 0.726155 0
M  V30 978 H 93.1362 0.0807567 2.98291 0
M  V30 979 C 91.8852 -1.69415 3.03634 0
M  V30 980 H 91.2082 -1.26876 3.79134 0
M  V30 981 H 92.6482 -2.28423 3.5721 0
M  V30 982 C 91.1072 -2.61569 2.12328 0
M  V30 983 O 91.6372 -3.63462 1.7105 0
M  V30 984 N 89.8432 -2.29952 1.77681 0
M  V30 985 H 89.3902 -1.47134 2.11446 0
M  V30 986 H 89.3482 -2.91871 1.16869 0
M  V30 987 N 93.1203 -1.57491 0.0584922 0
M  V30 988 C 94.0833 -2.1085 -0.898617 0
M  V30 989 C 95.0833 -1.02964 -1.23511 0
M  V30 990 O 96.2733 -1.29007 -1.17059 0
M  V30 991 C 93.4053 -2.59881 -2.20623 0
M  V30 992 H 94.5983 -2.96715 -0.435936 0
M  V30 993 H 92.1513 -1.55141 -0.190023 0
M  V30 994 H 92.8863 -1.77431 -2.71457 0
M  V30 995 H 92.6713 -3.38727 -1.97501 0
M  V30 996 H 94.1613 -3.01285 -2.89166 0
M  V30 997 N 94.5984 0.214957 -1.56127 0
M  V30 998 C 95.8284 0.953707 -1.8327 0
M  V30 999 C 96.2364 1.78181 -0.636262 0
M  V30 1000 O 95.5794 1.79191 0.404516 0
M  V30 1001 C 95.6414 1.91516 -3.0424 0
M  V30 1002 C 95.3054 1.27094 -4.38972 0
M  V30 1003 C 96.3024 0.657575 -5.15725 0
M  V30 1004 C 93.9874 1.28073 -4.85698 0
M  V30 1005 C 95.9814 0.0625968 -6.37369 0
M  V30 1006 C 93.6684 0.681914 -6.07283 0
M  V30 1007 C 94.6664 0.0739046 -6.8296 0
M  V30 1008 O 94.3544 -0.515582 -8.02245 0
M  V30 1009 H 94.0864 0.284764 -0.613095 0
M  V30 1010 H 96.6404 0.233283 -2.04071 0
M  V30 1011 H 94.8704 2.67475 -2.79274 0
M  V30 1012 H 96.5594 2.52001 -3.18198 0
M  V30 1013 H 97.3254 0.642288 -4.80728 0
M  V30 1014 H 93.2044 1.74337 -4.26764 0
M  V30 1015 H 96.7484 -0.412593 -6.96379 0
M  V30 1016 H 92.6454 0.694636 -6.41752 0
M  V30 1017 H 93.4134 -0.410544 -8.1747 0
M  V30 1018 N 96.0765 1.50051 0.48192 0
M  V30 1019 C 97.3235 1.60498 1.23477 0
M  V30 1020 C 97.6515 0.300331 1.92167 0
M  V30 1021 O 96.9065 -0.713094 1.82246 0
M  V30 1022 C 97.2055 2.72717 2.30998 0
M  V30 1023 C 96.8715 4.13572 1.79636 0
M  V30 1024 C 95.5335 4.519 1.65348 0
M  V30 1025 C 97.8855 5.01649 1.41412 0
M  V30 1026 C 95.2135 5.76057 1.11244 0
M  V30 1027 C 97.5655 6.26343 0.887538 0
M  V30 1028 C 96.2295 6.63483 0.731207 0
M  V30 1029 H 95.4995 0.587303 0.451836 0
M  V30 1030 H 98.1465 1.83948 0.532468 0
M  V30 1031 H 96.4515 2.43312 3.07094 0
M  V30 1032 H 98.1485 2.78006 2.88988 0
M  V30 1033 H 94.7385 3.83329 1.91721 0
M  V30 1034 H 98.9225 4.72679 1.51289 0
M  V30 1035 H 94.1785 6.03516 0.978686 0
M  V30 1036 H 98.3525 6.93958 0.582654 0
M  V30 1037 H 95.9795 7.59568 0.309806 0
M  V30 1038 N 97.5546 -0.734337 1.39446 0
M  V30 1039 C 98.8026 -1.49096 1.36436 0
M  V30 1040 C 99.1236 -1.94961 -0.0388255 0
M  V30 1041 O 98.3936 -1.69033 -0.990191 0
M  V30 1042 H 96.9736 -0.5531 0.502085 0
M  V30 1043 H 99.6356 -0.871725 1.74319 0
M  V30 1044 H 98.7316 -2.37276 2.02747 0
M  V30 1045 N 99.0327 -1.24633 -0.964593 0
M  V30 1046 C 99.9797 -1.04144 -2.05968 0
M  V30 1047 C 100.95 0.046262 -1.66036 0
M  V30 1048 O 102.135 -0.108972 -1.90489 0
M  V30 1049 C 99.2747 -0.65563 -3.38815 0
M  V30 1050 C 98.3877 -1.81714 -3.91923 0
M  V30 1051 C 97.5227 -1.37662 -5.13052 0
M  V30 1052 C 96.5617 -2.50788 -5.58365 0
M  V30 1053 N 95.6987 -2.07582 -6.70712 0
M  V30 1054 H 100.539 -1.9787 -2.22827 0
M  V30 1055 H 98.0757 -0.9855 -1.09208 0
M  V30 1056 H 100.034 -0.412954 -4.15151 0
M  V30 1057 H 98.6637 0.244627 -3.21872 0
M  V30 1058 H 97.7157 -2.1734 -3.12198 0
M  V30 1059 H 99.0277 -2.66705 -4.21509 0
M  V30 1060 H 98.1817 -1.093 -5.96773 0
M  V30 1061 H 96.9207 -0.497293 -4.85158 0
M  V30 1062 H 95.9257 -2.79906 -4.73215 0
M  V30 1063 H 97.1507 -3.39283 -5.88272 0
M  V30 1064 H 95.0967 -1.22051 -6.44546 0
M  V30 1065 H 95.0137 -2.86125 -6.99763 0
M  V30 1066 H 96.2817 -1.82369 -7.57867 0
M  V30 1067 N 100.511 1.16574 -1.06058 0
M  V30 1068 C 101.927 1.3904 -0.783585 0
M  V30 1069 C 102.127 1.91784 0.618145 0
M  V30 1070 O 101.183 2.11511 1.37911 0
M  V30 1071 C 102.496 2.37329 -1.84649 0
M  V30 1072 C 104.044 2.51018 -1.86973 0
M  V30 1073 C 104.519 3.52588 -2.92311 0
M  V30 1074 N 106.01 3.60113 -2.91329 0
M  V30 1075 C 106.745 4.38486 -3.69482 0
M  V30 1076 N 106.241 5.20302 -4.57447 0
M  V30 1077 N 108.034 4.33446 -3.57885 0
M  V30 1078 H 100.185 0.806725 -1.96483 0
M  V30 1079 H 102.448 0.417117 -0.851303 0
M  V30 1080 H 102.154 2.05663 -2.85299 0
M  V30 1081 H 102.028 3.36946 -1.6955 0
M  V30 1082 H 104.415 2.81989 -0.869827 0
M  V30 1083 H 104.496 1.51445 -2.0615 0
M  V30 1084 H 104.14 3.22354 -3.92492 0
M  V30 1085 H 104.07 4.51886 -2.70383 0
M  V30 1086 H 106.561 3.01707 -2.27555 0
M  V30 1087 H 106.874 5.77311 -5.13743 0
M  V30 1088 H 105.219 5.19653 -4.61503 0
M  V30 1089 H 108.41 3.68586 -2.88551 0
M  V30 1090 H 108.583 4.94279 -4.19037 0
M  V30 1091 N 101.989 0.842826 1.3317 0
M  V30 1092 C 102.919 0.294028 2.31641 0
M  V30 1093 C 103.9 -0.600401 1.59151 0
M  V30 1094 O 105.085 -0.523124 1.87022 0
M  V30 1095 C 102.215 -0.528416 3.43257 0
M  V30 1096 C 101.169 0.27056 4.27144 0
M  V30 1097 C 100.495 -0.675881 5.30411 0
M  V30 1098 C 101.795 1.48981 5.00602 0
M  V30 1099 H 103.489 1.11681 2.77791 0
M  V30 1100 H 101.035 0.538478 1.33553 0
M  V30 1101 H 102.988 -0.922674 4.11175 0
M  V30 1102 H 101.712 -1.38445 2.95805 0
M  V30 1103 H 100.371 0.646427 3.60856 0
M  V30 1104 H 100.019 -1.52842 4.79216 0
M  V30 1105 H 99.7189 -0.145374 5.8742 0
M  V30 1106 H 101.243 -1.06757 6.01195 0
M  V30 1107 H 102.657 1.16849 5.61266 0
M  V30 1108 H 101.054 1.95739 5.6728 0
M  V30 1109 H 102.124 2.25746 4.29147 0
M  V30 1110 N 103.467 -1.45747 0.599634 0
M  V30 1111 C 104.414 -2.30467 -0.123849 0
M  V30 1112 C 105.384 -1.41632 -0.86774 0
M  V30 1113 O 106.569 -1.70568 -0.855056 0
M  V30 1114 C 103.709 -3.26402 -1.12051 0
M  V30 1115 C 102.822 -4.3034 -0.37832 0
M  V30 1116 C 101.957 -5.13389 -1.364 0
M  V30 1117 C 100.996 -6.09061 -0.609171 0
M  V30 1118 N 100.133 -6.84918 -1.54374 0
M  V30 1119 H 104.973 -2.91802 0.604627 0
M  V30 1120 H 102.51 -1.43797 0.309972 0
M  V30 1121 H 104.468 -3.80482 -1.7114 0
M  V30 1122 H 103.098 -2.66839 -1.8165 0
M  V30 1123 H 102.15 -3.78984 0.327929 0
M  V30 1124 H 103.462 -4.98354 0.210997 0
M  V30 1125 H 102.616 -5.7183 -2.02719 0
M  V30 1126 H 101.355 -4.45376 -1.98725 0
M  V30 1127 H 100.36 -5.49758 0.0676979 0
M  V30 1128 H 101.585 -6.79099 0.00891991 0
M  V30 1129 H 99.531 -6.19601 -2.15478 0
M  V30 1130 H 99.448 -7.49254 -1.00766 0
M  V30 1131 H 100.716 -7.47906 -2.19676 0
M  V30 1132 N 104.945 -0.338344 -1.53925 0
M  V30 1133 C 106.361 0.0137736 -1.59594 0
M  V30 1134 C 106.561 1.49186 -1.35447 0
M  V30 1135 O 105.617 2.24987 -1.14616 0
M  V30 1136 C 106.93 -0.41773 -2.97784 0
M  V30 1137 C 108.478 -0.369633 -3.1081 0
M  V30 1138 C 108.953 -0.776524 -4.51369 0
M  V30 1139 N 110.444 -0.730506 -4.57403 0
M  V30 1140 C 111.179 -1.01736 -5.64303 0
M  V30 1141 N 110.675 -1.3721 -6.79077 0
M  V30 1142 N 112.468 -0.941942 -5.54151 0
M  V30 1143 H 104.619 -1.3012 -1.67876 0
M  V30 1144 H 106.882 -0.530082 -0.78595 0
M  V30 1145 H 106.588 -1.44811 -3.20504 0
M  V30 1146 H 106.462 0.209729 -3.76616 0
M  V30 1147 H 108.849 0.651568 -2.87817 0
M  V30 1148 H 108.93 -1.03223 -2.34049 0
M  V30 1149 H 108.574 -1.79571 -4.75096 0
M  V30 1150 H 108.504 -0.0914649 -5.26521 0
M  V30 1151 H 110.995 -0.468783 -3.74981 0
M  V30 1152 H 111.308 -1.57597 -7.5656 0
M  V30 1153 H 109.653 -1.4105 -6.80536 0
M  V30 1154 H 112.844 -0.664184 -4.63364 0
M  V30 1155 H 113.017 -1.16884 -6.37371 0
M  V30 1156 N 106.423 1.57458 -0.0668435 0
M  V30 1157 C 107.386 2.11323 0.887422 0
M  V30 1158 C 108.386 1.03618 1.22964 0
M  V30 1159 O 109.576 1.29626 1.16373 0
M  V30 1160 C 106.708 2.61048 2.19242 0
M  V30 1161 H 107.901 2.96942 0.420194 0
M  V30 1162 H 105.454 1.55239 0.181793 0
M  V30 1163 H 106.189 1.78868 2.70512 0
M  V30 1164 H 105.974 3.39769 1.95702 0
M  V30 1165 H 107.464 3.02814 2.87565 0
M  V30 1166 N 107.901 -0.206675 1.56239 0
M  V30 1167 C 109.15 -0.926964 1.79138 0
M  V30 1168 C 109.463 -1.84901 0.638043 0
M  V30 1169 O 110.669 -2.60906 0.751033 0
M  V30 1170 C 109.125 -1.6986 3.17294 0
M  V30 1171 C 108.733 -0.821956 4.40395 0
M  V30 1172 C 110.477 -2.40922 3.4951 0
M  V30 1173 C 108.384 -1.59179 5.69575 0
M  V30 1174 H 107.314 -0.349864 0.667915 0
M  V30 1175 H 109.965 -0.180487 1.8261 0
M  V30 1176 H 108.347 -2.48853 3.08039 0
M  V30 1177 H 109.521 -0.0715019 4.60745 0
M  V30 1178 H 107.836 -0.222741 4.15804 0
M  V30 1179 H 110.433 -2.99047 4.43255 0
M  V30 1180 H 110.776 -3.14542 2.72707 0
M  V30 1181 H 111.309 -1.68905 3.60161 0
M  V30 1182 H 108.048 -0.898589 6.49312 0
M  V30 1183 H 107.568 -2.31648 5.53262 0
M  V30 1184 H 109.247 -2.14862 6.10281 0
M  V30 1185 N 109.379 -1.50304 -0.473955 0
M  V30 1186 C 110.625 -1.61389 -1.22806 0
M  V30 1187 C 110.958 -0.311955 -1.91678 0
M  V30 1188 O 110.233 0.686384 -1.81986 0
M  V30 1189 C 110.516 -2.79219 -2.27396 0
M  V30 1190 C 110.369 -4.19286 -1.62848 0
M  V30 1191 C 111.688 -2.92614 -3.28732 0
M  V30 1192 H 108.807 -0.587399 -0.445119 0
M  V30 1193 H 111.449 -1.82681 -0.522265 0
M  V30 1194 H 109.599 -2.61195 -2.87592 0
M  V30 1195 H 111.271 -4.48892 -1.06271 0
M  V30 1196 H 109.514 -4.23677 -0.931693 0
M  V30 1197 H 110.185 -4.97655 -2.38838 0
M  V30 1198 H 112.661 -3.09105 -2.78556 0
M  V30 1199 H 111.537 -3.76688 -3.99246 0
M  V30 1200 H 111.798 -2.03107 -3.92683 0
M  V30 1201 N 110.857 0.726932 -1.39834 0
M  V30 1202 C 111.804 1.841 -1.39197 0
M  V30 1203 C 112.774 1.642 -0.250502 0
M  V30 1204 O 113.959 1.85494 -0.446846 0
M  V30 1205 C 111.099 3.21697 -1.24919 0
M  V30 1206 C 110.212 3.53247 -2.48678 0
M  V30 1207 C 109.347 4.80289 -2.26928 0
M  V30 1208 C 108.386 5.04707 -3.4632 0
M  V30 1209 N 107.523 6.22956 -3.23836 0
M  V30 1210 H 112.363 1.83979 -2.34427 0
M  V30 1211 H 109.9 0.898876 -1.16442 0
M  V30 1212 H 111.858 4.01137 -1.1465 0
M  V30 1213 H 110.488 3.21076 -0.333153 0
M  V30 1214 H 109.54 2.68447 -2.69519 0
M  V30 1215 H 110.852 3.67205 -3.37582 0
M  V30 1216 H 110.006 5.67725 -2.13947 0
M  V30 1217 H 108.745 4.68519 -1.35431 0
M  V30 1218 H 107.75 4.1573 -3.5979 0
M  V30 1219 H 108.975 5.18357 -4.38729 0
M  V30 1220 H 106.921 6.12459 -2.35011 0
M  V30 1221 H 106.838 6.37539 -4.063 0
M  V30 1222 H 108.106 7.1321 -3.14566 0
M  V30 1223 N 112.336 1.25143 0.95797 0
M  V30 1224 C 113.585 1.0909 1.69654 0
M  V30 1225 C 113.898 -0.368548 1.92097 0
M  V30 1226 O 115.104 -0.649455 2.63618 0
M  V30 1227 C 113.56 1.90395 3.05414 0
M  V30 1228 C 113.168 3.4081 2.90779 0
M  V30 1229 C 114.912 1.82901 3.83076 0
M  V30 1230 C 112.819 4.14423 4.21909 0
M  V30 1231 H 111.749 0.404625 0.636235 0
M  V30 1232 H 114.4 1.4931 1.06672 0
M  V30 1233 H 112.782 1.42996 3.69281 0
M  V30 1234 H 113.956 3.95859 2.35865 0
M  V30 1235 H 112.271 3.49361 2.26575 0
M  V30 1236 H 114.868 2.35196 4.80195 0
M  V30 1237 H 115.211 0.796224 4.08615 0
M  V30 1238 H 115.744 2.28033 3.25954 0
M  V30 1239 H 112.483 5.18102 4.01561 0
M  V30 1240 H 112.003 3.64159 4.76601 0
M  V30 1241 H 113.682 4.21956 4.90471 0
M  V30 1242 N 113.814 -1.1601 1.06675 0
M  V30 1243 C 114.777 -2.18724 0.685001 0
M  V30 1244 C 115.777 -1.58496 -0.271246 0
M  V30 1245 O 116.967 -1.74119 -0.0531156 0
M  V30 1246 C 114.099 -3.40899 0.00853648 0
M  V30 1247 H 115.292 -2.54011 1.59431 0
M  V30 1248 H 112.845 -1.30352 0.862441 0
M  V30 1249 H 113.58 -3.11173 -0.913337 0
M  V30 1250 H 113.365 -3.8587 0.696204 0
M  V30 1251 H 114.855 -4.16886 -0.24414 0
M  V30 1252 N 115.292 -0.849877 -1.32721 0
M  V30 1253 C 116.522 -0.46408 -2.0132 0
M  V30 1254 C 116.93 0.94246 -1.64056 0
M  V30 1255 O 116.273 1.6257 -0.855379 0
M  V30 1256 C 116.335 -0.517887 -3.5575 0
M  V30 1257 C 115.999 -1.88248 -4.16427 0
M  V30 1258 C 116.996 -2.84726 -4.35002 0
M  V30 1259 C 114.681 -2.17832 -4.52609 0
M  V30 1260 C 116.675 -4.08945 -4.8892 0
M  V30 1261 C 114.362 -3.42304 -5.06232 0
M  V30 1262 C 115.36 -4.37677 -5.24335 0
M  V30 1263 O 115.048 -5.59946 -5.76815 0
M  V30 1264 H 114.78 -0.181327 -0.651227 0
M  V30 1265 H 117.334 -1.14713 -1.70382 0
M  V30 1266 H 115.564 0.221997 -3.86062 0
M  V30 1267 H 117.253 -0.148366 -4.05629 0
M  V30 1268 H 118.019 -2.63174 -4.07388 0
M  V30 1269 H 113.898 -1.44385 -4.37806 0
M  V30 1270 H 117.442 -4.83396 -5.02966 0
M  V30 1271 H 113.339 -3.63709 -5.33278 0
M  V30 1272 H 114.107 -5.61838 -5.95214 0
M  V30 1273 N 116.77 1.45427 -0.607355 0
M  V30 1274 C 118.181 1.85756 -0.187535 0
M  V30 1275 C 118.532 1.5077 1.25551 0
M  V30 1276 O 117.657 0.93427 1.95193 0
M  V30 1277 C 118.252 3.37154 -0.333572 0
M  V30 1278 C 116.811 3.76387 0.0315542 0
M  V30 1279 C 115.958 2.69377 -0.658117 0
M  V30 1280 H 118.909 1.36231 -0.81405 0
M  V30 1281 H 118.93 3.78014 0.43428 0
M  V30 1282 H 118.442 3.62586 -1.38393 0
M  V30 1283 H 116.543 3.56571 1.0811 0
M  V30 1284 H 116.656 4.77731 -0.361935 0
M  V30 1285 H 115.02 2.5452 -0.0957873 0
M  V30 1286 H 115.803 2.97646 -1.7106 0
M  V30 1287 N 118.248 0.346503 1.53744 0
M  V30 1288 C 119.476 -0.25041 2.05379 0
M  V30 1289 C 119.891 -1.43979 1.22129 0
M  V30 1290 O 119.248 -1.80677 0.257321 0
M  V30 1291 C 119.299 -0.662575 3.55376 0
M  V30 1292 O 119.02 0.479515 4.35468 0
M  V30 1293 C 120.521 -1.31989 4.23195 0
M  V30 1294 H 117.741 -0.0478198 0.669294 0
M  V30 1295 H 120.285 0.499346 1.9831 0
M  V30 1296 H 118.44 -1.36227 3.62658 0
M  V30 1297 H 118.854 0.15037 5.24284 0
M  V30 1298 H 120.328 -1.55902 5.29527 0
M  V30 1299 H 120.805 -2.27436 3.75725 0
M  V30 1300 H 121.411 -0.662154 4.20114 0
M  V30 1301 N 119.726 -1.57421 0.075193 0
M  V30 1302 C 120.972 -1.93905 -0.594025 0
M  V30 1303 C 121.305 -0.955701 -1.69056 0
M  V30 1304 O 120.58 0.0145373 -1.94495 0
M  V30 1305 C 120.863 -3.40638 -1.1678 0
M  V30 1306 C 120.716 -4.49733 -0.0776792 0
M  V30 1307 C 122.035 -3.88259 -2.07228 0
M  V30 1308 H 119.154 -0.705105 -0.214466 0
M  V30 1309 H 121.796 -1.8947 0.141854 0
M  V30 1310 H 119.946 -3.44549 -1.79494 0
M  V30 1311 H 121.618 -4.57942 0.555573 0
M  V30 1312 H 119.861 -4.29751 0.591286 0
M  V30 1313 H 120.532 -5.49549 -0.519603 0
M  V30 1314 H 123.008 -3.86376 -1.54445 0
M  V30 1315 H 121.884 -4.91533 -2.44308 0
M  V30 1316 H 122.145 -3.26396 -2.98191 0
M  V30 1317 N 121.204 0.198386 -1.56346 0
M  V30 1318 C 122.152 1.26538 -1.95169 0
M  V30 1319 C 123.146 1.47295 -0.836685 0
M  V30 1320 O 124.352 1.48195 -1.02167 0
M  V30 1321 H 120.727 0.424744 -0.620561 0
M  V30 1322 H 122.698 0.910904 -2.84157 0
M  V30 1323 C 121.447 2.6035 -2.30463 0
M  V30 1324 H 120.77 2.45192 -3.15786 0
M  V30 1325 H 122.21 3.33762 -2.61494 0
M  V30 1326 C 120.669 3.17096 -1.13806 0
M  V30 1327 O 121.199 3.99588 -0.41135 0
M  V30 1328 N 119.405 2.75795 -0.915736 0
M  V30 1329 H 118.952 2.08816 -1.50843 0
M  V30 1330 H 118.91 3.14101 -0.136979 0
M  V30 1331 N 122.682 1.50554 0.465978 0
M  V30 1332 C 123.929 1.61798 1.21768 0
M  V30 1333 C 124.257 0.320696 1.91838 0
M  V30 1334 O 123.512 -0.693724 1.82992 0
M  V30 1335 C 123.811 2.75152 2.28093 0
M  V30 1336 C 123.477 4.15454 1.75239 0
M  V30 1337 C 122.139 4.53628 1.60546 0
M  V30 1338 C 124.491 5.03121 1.36083 0
M  V30 1339 C 121.819 5.77204 1.05128 0
M  V30 1340 C 124.171 6.27249 0.821056 0
M  V30 1341 C 122.835 6.64221 0.660795 0
M  V30 1342 H 122.105 0.592063 0.445582 0
M  V30 1343 H 124.752 1.84503 0.512927 0
M  V30 1344 H 123.057 2.46556 3.04496 0
M  V30 1345 H 124.754 2.81055 2.86023 0
M  V30 1346 H 121.344 3.85341 1.87644 0
M  V30 1347 H 125.528 4.74257 1.46267 0
M  V30 1348 H 120.784 6.0452 0.91462 0
M  V30 1349 H 124.958 6.94537 0.509018 0
M  V30 1350 H 122.585 7.59854 0.229226 0
M  V30 1351 N 124.16 -0.719506 1.40217 0
M  V30 1352 C 125.385 -1.51371 1.4178 0
M  V30 1353 C 125.81 -1.88091 0.0182355 0
M  V30 1354 O 125.168 -1.52997 -0.972707 0
M  V30 1355 C 125.216 -2.768 2.31115 0
M  V30 1356 O 124.32 -3.73349 1.7517 0
M  V30 1357 H 123.661 -0.456529 0.482159 0
M  V30 1358 H 126.191 -0.88644 1.844 0
M  V30 1359 H 126.201 -3.25371 2.46167 0
M  V30 1360 H 124.876 -2.49407 3.3282 0
M  V30 1361 H 123.453 -3.32179 1.69444 0
M  V30 1362 N 125.638 -1.25649 -0.95132 0
M  V30 1363 C 126.601 -1.06399 -2.03007 0
M  V30 1364 C 127.601 -0.0156794 -1.60792 0
M  V30 1365 O 128.791 -0.25817 -1.72276 0
M  V30 1366 C 125.923 -0.616184 -3.35285 0
M  V30 1367 H 127.116 -2.02164 -2.21517 0
M  V30 1368 H 124.669 -1.08103 -1.12887 0
M  V30 1369 H 125.404 0.343917 -3.22471 0
M  V30 1370 H 125.189 -1.37301 -3.67275 0
M  V30 1371 H 126.679 -0.503032 -4.14559 0
M  V30 1372 N 127.117 1.15442 -1.07289 0
M  V30 1373 C 128.394 1.82306 -0.708792 0
M  V30 1374 C 128.774 1.94991 0.808807 0
M  V30 1375 O 128.122 1.50085 1.72298 0
M  V30 1376 C 128.332 3.18695 -1.42247 0
M  V30 1377 C 129.68 3.94341 -1.57417 0
M  V30 1378 O 130.704 3.28247 -1.38319 0
M  V30 1379 O 129.563 5.12839 -1.88834 0
M  V30 1380 H 126.657 0.787628 -0.252132 0
M  V30 1381 H 129.203 1.22559 -1.17377 0
M  V30 1382 H 127.975 3.04557 -2.45684 0
M  V30 1383 H 127.598 3.86128 -0.948223 0
M  V30 1384 N 128.595 0.856903 1.32268 0
M  V30 1385 C 129.525 0.31858 2.31316 0
M  V30 1386 C 130.506 -0.583487 1.59779 0
M  V30 1387 O 131.691 -0.503259 1.87566 0
M  V30 1388 C 128.821 -0.491979 3.43798 0
M  V30 1389 C 127.775 0.315849 4.26833 0
M  V30 1390 C 127.101 -0.619586 5.31098 0
M  V30 1391 C 128.401 1.54282 4.98993 0
M  V30 1392 H 130.095 1.14621 2.76591 0
M  V30 1393 H 127.641 0.552613 1.32974 0
M  V30 1394 H 129.594 -0.879012 4.1213 0
M  V30 1395 H 128.318 -1.35299 2.97257 0
M  V30 1396 H 126.977 0.684664 3.6015 0
M  V30 1397 H 126.625 -1.47751 4.8081 0
M  V30 1398 H 126.325 -0.0830621 5.87541 0
M  V30 1399 H 127.849 -1.00375 6.02293 0
M  V30 1400 H 129.263 1.22796 5.59995 0
M  V30 1401 H 127.66 2.01745 5.65172 0
M  V30 1402 H 128.73 2.30285 4.26728 0
M  V30 1403 N 130.073 -1.45103 0.615059 0
M  V30 1404 C 131.484 -1.85654 0.197383 0
M  V30 1405 C 131.835 -1.51433 -1.24749 0
M  V30 1406 O 130.96 -0.944608 -1.94695 0
M  V30 1407 C 131.555 -3.36972 0.351448 0
M  V30 1408 C 130.114 -3.76398 -0.011593 0
M  V30 1409 C 129.261 -2.69024 0.672394 0
M  V30 1410 H 132.212 -1.35797 0.821263 0
M  V30 1411 H 132.233 -3.78239 -0.414227 0
M  V30 1412 H 131.745 -3.61847 1.40314 0
M  V30 1413 H 129.846 -3.5714 -1.06217 0
M  V30 1414 H 129.959 -4.77532 0.387265 0
M  V30 1415 H 128.323 -2.54465 0.109284 0
M  V30 1416 H 129.106 -2.96735 1.72636 0
M  V30 1417 N 131.551 -0.354651 -1.53558 0
M  V30 1418 C 132.514 0.484566 -2.24019 0
M  V30 1419 C 133.514 1.01861 -1.24422 0
M  V30 1420 O 134.704 0.906097 -1.4878 0
M  V30 1421 C 131.836 1.67615 -2.96847 0
M  V30 1422 H 133.029 -0.131843 -2.9961 0
M  V30 1423 H 130.582 -0.106165 -1.55939 0
M  V30 1424 H 131.317 2.33095 -2.25471 0
M  V30 1425 H 131.102 1.30029 -3.69912 0
M  V30 1426 H 132.592 2.27114 -3.50441 0
M  V30 1427 N 133.029 1.57378 -0.0835403 0
M  V30 1428 C 133.959 2.1641 0.87686 0
M  V30 1429 C 134.94 1.09429 1.30228 0
M  V30 1430 O 136.125 1.37516 1.37124 0
M  V30 1431 C 133.255 2.73517 2.14022 0
M  V30 1432 C 132.209 3.85769 1.85381 0
M  V30 1433 C 131.535 4.29529 3.18448 0
M  V30 1434 C 132.835 5.09486 1.14984 0
M  V30 1435 H 134.529 2.96914 0.385059 0
M  V30 1436 H 132.075 1.42823 0.18377 0
M  V30 1437 H 134.028 3.13463 2.81636 0
M  V30 1438 H 132.752 1.90252 2.65465 0
M  V30 1439 H 131.411 3.46345 1.20169 0
M  V30 1440 H 131.059 3.43169 3.67755 0
M  V30 1441 H 130.759 5.05204 3.00071 0
M  V30 1442 H 132.283 4.72099 3.8724 0
M  V30 1443 H 133.697 5.46674 1.72687 0
M  V30 1444 H 132.094 5.90515 1.06826 0
M  V30 1445 H 133.164 4.84724 0.130749 0
M  V30 1446 N 134.507 -0.190092 1.56449 0
M  V30 1447 C 135.437 -1.23816 1.97969 0
M  V30 1448 C 136.418 -1.47201 0.852395 0
M  V30 1449 O 137.603 -1.58854 1.1171 0
M  V30 1450 C 134.733 -2.5813 2.3235 0
M  V30 1451 C 133.687 -2.49348 3.47864 0
M  V30 1452 C 133.013 -3.8798 3.67934 0
M  V30 1453 C 134.313 -2.01424 4.81898 0
M  V30 1454 H 136.007 -0.89311 2.85769 0
M  V30 1455 H 133.553 -0.428177 1.37487 0
M  V30 1456 H 135.506 -3.31637 2.59991 0
M  V30 1457 H 134.23 -2.94386 1.41438 0
M  V30 1458 H 132.889 -1.78297 3.20321 0
M  V30 1459 H 132.537 -4.21597 2.74344 0
M  V30 1460 H 132.237 -3.82978 4.45648 0
M  V30 1461 H 133.761 -4.63101 3.97957 0
M  V30 1462 H 135.175 -2.64693 5.08538 0
M  V30 1463 H 133.572 -2.07413 5.63116 0
M  V30 1464 H 134.642 -0.967677 4.75146 0
M  V30 1465 N 135.985 -1.50799 -0.457987 0
M  V30 1466 C 137.231 -1.62683 -1.21088 0
M  V30 1467 C 137.564 -0.332268 -1.91336 0
M  V30 1468 O 136.839 0.667043 -1.82704 0
M  V30 1469 C 137.122 -2.81615 -2.24422 0
M  V30 1470 C 136.975 -4.20989 -1.58392 0
M  V30 1471 C 138.294 -2.96085 -3.2561 0
M  V30 1472 H 135.413 -0.592087 -0.438864 0
M  V30 1473 H 138.055 -1.83225 -0.50286 0
M  V30 1474 H 136.205 -2.64231 -2.84806 0
M  V30 1475 H 137.877 -4.49994 -1.01504 0
M  V30 1476 H 136.12 -4.24641 -0.886704 0
M  V30 1477 H 136.791 -5.0016 -2.33547 0
M  V30 1478 H 139.267 -3.12042 -2.75262 0
M  V30 1479 H 138.143 -3.80902 -3.95228 0
M  V30 1480 H 138.404 -2.0726 -3.90507 0
M  V30 1481 N 137.463 0.71206 -1.40597 0
M  V30 1482 C 138.691 1.50111 -1.42388 0
M  V30 1483 C 139.106 1.88784 -0.0245395 0
M  V30 1484 O 138.463 1.55681 0.952351 0
M  V30 1485 C 138.514 2.7742 -2.31776 0
M  V30 1486 O 138.235 2.40382 -3.66262 0
M  V30 1487 C 139.736 3.7129 -2.42196 0
M  V30 1488 H 136.956 0.46314 -0.485533 0
M  V30 1489 H 139.5 0.878068 -1.8469 0
M  V30 1490 H 137.655 3.36001 -1.92827 0
M  V30 1491 H 138.069 3.22324 -4.13772 0
M  V30 1492 H 139.543 4.57448 -3.08943 0
M  V30 1493 H 140.02 4.14641 -1.44809 0
M  V30 1494 H 140.626 3.18619 -2.81712 0
M  V30 1495 N 138.941 1.26152 0.944643 0
M  V30 1496 C 140.169 1.14259 1.72489 0
M  V30 1497 C 140.584 -0.302555 1.8636 0
M  V30 1498 O 139.941 -1.20741 1.36849 0
M  V30 1499 C 139.992 1.80266 3.13347 0
M  V30 1500 O 139.713 3.19133 3.00143 0
M  V30 1501 C 141.214 1.74283 4.07603 0
M  V30 1502 H 138.434 0.398051 0.540181 0
M  V30 1503 H 140.978 1.66706 1.18446 0
M  V30 1504 H 139.133 1.31766 3.64303 0
M  V30 1505 H 139.547 3.51744 3.89071 0
M  V30 1506 H 141.021 2.25111 5.04013 0
M  V30 1507 H 141.498 0.708631 4.33446 0
M  V30 1508 H 142.104 2.22319 3.62567 0
M  V30 1509 N 140.419 -1.14872 1.07899 0
M  V30 1510 C 141.666 -1.85789 0.805532 0
M  V30 1511 C 141.994 -1.82649 -0.668561 0
M  V30 1512 O 141.249 -1.24858 -1.50695 0
M  V30 1513 C 141.548 -3.34223 1.26609 0
M  V30 1514 C 141.214 -3.57555 2.74709 0
M  V30 1515 C 139.876 -3.63631 3.1516 0
M  V30 1516 C 142.228 -3.66803 3.70277 0
M  V30 1517 C 139.556 -3.76473 4.49983 0
M  V30 1518 C 141.908 -3.8117 5.04869 0
M  V30 1519 C 140.572 -3.85494 5.44932 0
M  V30 1520 H 139.842 -0.679849 0.294765 0
M  V30 1521 H 142.489 -1.3572 1.35101 0
M  V30 1522 H 140.794 -3.86536 0.640103 0
M  V30 1523 H 142.491 -3.87511 1.03132 0
M  V30 1524 H 139.081 -3.5347 2.42398 0
M  V30 1525 H 143.265 -3.61404 3.40149 0
M  V30 1526 H 138.521 -3.7808 4.80484 0
M  V30 1527 H 142.695 -3.87268 5.78789 0
M  V30 1528 H 140.322 -3.95197 6.49403 0
M  V30 1529 N 141.898 -0.863906 -1.31812 0
M  V30 1530 C 143.146 -0.470904 -1.96537 0
M  V30 1531 C 143.467 0.978771 -1.68657 0
M  V30 1532 O 142.737 1.6853 -0.998717 0
M  V30 1533 H 141.317 -0.171148 -0.72713 0
M  V30 1534 H 143.979 -1.10236 -1.60729 0
M  V30 1535 H 143.075 -0.623616 -3.05806 0
M  V30 1536 N 143.376 1.44774 -0.622745 0
M  V30 1537 C 144.323 2.30635 0.0871679 0
M  V30 1538 C 145.293 1.42994 0.845097 0
M  V30 1539 O 146.478 1.71907 0.827812 0
M  V30 1540 C 143.618 3.28144 1.06844 0
M  V30 1541 C 142.731 4.30888 0.309809 0
M  V30 1542 C 141.866 5.15494 1.28215 0
M  V30 1543 C 140.905 6.09953 0.512198 0
M  V30 1544 N 140.042 6.87287 1.43458 0
M  V30 1545 H 144.882 2.90803 -0.650974 0
M  V30 1546 H 142.419 1.43286 -0.33281 0
M  V30 1547 H 144.377 3.83157 1.65066 0
M  V30 1548 H 143.007 2.69695 1.77382 0
M  V30 1549 H 142.059 3.78414 -0.388181 0
M  V30 1550 H 143.371 4.97955 -0.290254 0
M  V30 1551 H 142.525 5.74983 1.93596 0
M  V30 1552 H 141.264 4.48481 1.91614 0
M  V30 1553 H 140.269 5.49581 -0.155151 0
M  V30 1554 H 141.494 6.78999 -0.116958 0
M  V30 1555 H 139.44 6.2295 2.05594 0
M  V30 1556 H 139.357 7.50763 0.888335 0
M  V30 1557 H 140.625 7.51306 2.07749 0
M  V30 1558 N 144.854 0.36279 1.53368 0
M  V30 1559 C 145.784 -0.476976 2.28576 0
M  V30 1560 C 146.765 -1.08631 1.30894 0
M  V30 1561 O 147.95 -1.10409 1.59761 0
M  V30 1562 C 145.08 -1.61828 3.07293 0
M  V30 1563 C 144.034 -1.13633 4.1264 0
M  V30 1564 C 143.36 -2.36766 4.79423 0
M  V30 1565 C 144.66 -0.223061 5.21823 0
M  V30 1566 H 146.354 0.150474 2.99022 0
M  V30 1567 H 143.9 0.0738103 1.43811 0
M  V30 1568 H 145.853 -2.21237 3.58653 0
M  V30 1569 H 144.577 -2.27292 2.34533 0
M  V30 1570 H 143.236 -0.564945 3.62221 0
M  V30 1571 H 142.884 -3.0068 4.03238 0
M  V30 1572 H 142.584 -2.05192 5.50609 0
M  V30 1573 H 144.108 -2.96865 5.33576 0
M  V30 1574 H 145.522 -0.724545 5.68703 0
M  V30 1575 H 143.919 0.001678 6.001 0
M  V30 1576 H 144.989 0.735553 4.79289 0
M  V30 1577 N 146.332 -1.57332 0.0918853 0
M  V30 1578 C 147.557 -1.98995 -0.584442 0
M  V30 1579 C 147.982 -0.970528 -1.61128 0
M  V30 1580 O 147.34 0.0613904 -1.81196 0
M  V30 1581 C 147.388 -3.39636 -1.21161 0
M  V30 1582 O 146.492 -3.40447 -2.32744 0
M  V30 1583 H 145.833 -0.647165 -0.148572 0
M  V30 1584 H 148.363 -2.03873 0.172347 0
M  V30 1585 H 148.373 -3.7726 -1.55367 0
M  V30 1586 H 147.048 -4.13356 -0.459313 0
M  V30 1587 H 145.625 -3.14614 -2.0018 0
M  V30 1588 N 147.81 0.181792 -1.56548 0
M  V30 1589 C 148.74 1.22765 -1.98623 0
M  V30 1590 C 149.721 1.46747 -0.860189 0
M  V30 1591 O 150.906 1.58259 -1.12551 0
M  V30 1592 C 148.036 2.56894 -2.33715 0
M  V30 1593 C 146.99 2.475 -3.49182 0
M  V30 1594 C 146.316 3.86023 -3.69986 0
M  V30 1595 C 147.616 1.98866 -4.82959 0
M  V30 1596 H 149.31 0.877942 -2.86239 0
M  V30 1597 H 146.856 0.42088 -1.37712 0
M  V30 1598 H 148.809 3.30253 -2.61746 0
M  V30 1599 H 147.533 2.93632 -1.42997 0
M  V30 1600 H 146.192 1.76596 -3.21262 0
M  V30 1601 H 145.84 4.20136 -2.76576 0
M  V30 1602 H 145.54 3.80609 -4.47672 0
M  V30 1603 H 147.064 4.60984 -4.00407 0
M  V30 1604 H 148.478 2.61992 -5.09934 0
M  V30 1605 H 146.875 2.04424 -5.64208 0
M  V30 1606 H 147.945 0.942465 -4.75653 0
M  V30 1607 N 149.288 1.51039 0.449983 0
M  V30 1608 C 150.565 1.53612 1.21089 0
M  V30 1609 C 150.945 0.292997 2.09057 0
M  V30 1610 O 150.293 -0.72259 2.16774 0
M  V30 1611 C 150.503 2.84337 2.0237 0
M  V30 1612 C 151.851 3.35807 2.59843 0
M  V30 1613 O 152.875 2.85802 2.12593 0
M  V30 1614 O 151.734 4.23029 3.45989 0
M  V30 1615 H 148.828 0.617057 0.550608 0
M  V30 1616 H 151.374 1.63344 0.460082 0
M  V30 1617 H 150.146 3.66278 1.37681 0
M  V30 1618 H 149.769 2.77708 2.84542 0
M  V30 1619 N 150.766 -0.704594 1.40972 0
M  V30 1620 C 152.014 -1.46169 1.39568 0
M  V30 1621 C 152.335 -1.95 0.00253745 0
M  V30 1622 O 151.605 -1.71095 -0.954114 0
M  V30 1623 H 150.185 -0.542326 0.513704 0
M  V30 1624 H 152.847 -0.834553 1.76128 0
M  V30 1625 H 151.943 -2.32922 2.07735 0
M  V30 1626 N 152.244 -1.26651 -0.937939 0
M  V30 1627 C 153.154 -1.10276 -2.07066 0
M  V30 1628 C 154.17 -0.0354197 -1.73964 0
M  V30 1629 O 155.346 -0.239816 -1.99967 0
M  V30 1630 C 152.411 -0.740887 -3.38691 0
M  V30 1631 C 151.472 -1.88799 -3.85556 0
M  V30 1632 C 150.705 -1.54329 -5.10899 0
M  V30 1633 O 150.928 -0.446494 -5.6865 0
M  V30 1634 O 149.862 -2.37911 -5.52885 0
M  V30 1635 H 153.688 -2.05309 -2.23789 0
M  V30 1636 H 151.273 -1.05743 -1.0554 0
M  V30 1637 H 153.155 -0.55195 -4.1777 0
M  V30 1638 H 151.83 0.180022 -3.23199 0
M  V30 1639 H 150.737 -2.13191 -3.07409 0
M  V30 1640 H 152.07 -2.78874 -4.05574 0
M  V30 1641 N 153.722 1.14298 -1.08507 0
M  V30 1642 C 154.968 1.85633 -0.816581 0
M  V30 1643 C 155.301 1.82784 0.656021 0
M  V30 1644 O 154.576 1.25926 1.48233 0
M  V30 1645 C 154.859 3.34223 -1.34041 0
M  V30 1646 C 154.712 3.45639 -2.87843 0
M  V30 1647 C 156.031 4.29356 -0.9665 0
M  V30 1648 H 153.15 0.67402 -0.298104 0
M  V30 1649 H 155.792 1.34214 -1.34487 0
M  V30 1650 H 153.942 3.78144 -0.89104 0
M  V30 1651 H 155.614 3.10498 -3.41158 0
M  V30 1652 H 153.857 2.86817 -3.25451 0
M  V30 1653 H 154.528 4.50089 -3.19569 0
M  V30 1654 H 157.004 3.93457 -1.35391 0
M  V30 1655 H 155.88 5.3178 -1.3602 0
M  V30 1656 H 156.141 4.41919 0.126362 0
M  V30 1657 N 155.201 0.870884 1.31352 0
M  V30 1658 C 156.617 0.562932 1.49343 0
M  V30 1659 C 156.817 -0.902725 1.80148 0
M  V30 1660 O 155.873 -1.68484 1.88067 0
M  V30 1661 C 157.186 1.46393 2.62659 0
M  V30 1662 C 158.734 1.46607 2.76542 0
M  V30 1663 C 159.209 2.35266 3.92955 0
M  V30 1664 N 160.7 2.33151 4.00243 0
M  V30 1665 C 161.435 2.98471 4.89594 0
M  V30 1666 N 160.931 3.72964 5.8384 0
M  V30 1667 N 162.724 2.87775 4.82848 0
M  V30 1668 H 154.875 1.81923 1.09626 0
M  V30 1669 H 157.138 0.777934 0.541777 0
M  V30 1670 H 156.844 2.50689 2.46674 0
M  V30 1671 H 156.718 1.16314 3.58819 0
M  V30 1672 H 159.105 0.43069 2.9194 0
M  V30 1673 H 159.186 1.8071 1.81046 0
M  V30 1674 H 158.83 3.38881 3.78315 0
M  V30 1675 H 158.76 1.98487 4.87761 0
M  V30 1676 H 161.251 1.79006 3.32814 0
M  V30 1677 H 161.564 4.19932 6.4875 0
M  V30 1678 H 159.909 3.77073 5.83816 0
M  V30 1679 H 163.1 2.29116 4.08195 0
M  V30 1680 H 163.273 3.38961 5.52277 0
M  V30 1681 N 156.679 -1.44442 0.630414 0
M  V30 1682 C 157.609 -2.33418 -0.0618083 0
M  V30 1683 C 158.59 -1.48165 -0.835541 0
M  V30 1684 O 159.775 -1.76886 -0.801564 0
M  V30 1685 C 156.905 -3.31222 -1.04449 0
M  V30 1686 C 155.859 -4.26288 -0.382436 0
M  V30 1687 C 155.185 -5.13954 -1.47497 0
M  V30 1688 C 156.485 -5.1744 0.710865 0
M  V30 1689 H 158.179 -2.91548 0.681184 0
M  V30 1690 H 155.725 -1.40191 0.329026 0
M  V30 1691 H 157.678 -3.92351 -1.53748 0
M  V30 1692 H 156.402 -2.71299 -1.81836 0
M  V30 1693 H 155.061 -3.6649 0.0899054 0
M  V30 1694 H 154.709 -4.50385 -2.2397 0
M  V30 1695 H 154.409 -5.7837 -1.03737 0
M  V30 1696 H 155.933 -5.77955 -1.96979 0
M  V30 1697 H 157.347 -5.72509 0.300996 0
M  V30 1698 H 155.744 -5.90455 1.07156 0
M  V30 1699 H 156.814 -4.58496 1.57829 0
M  V30 1700 N 158.157 -0.370918 -1.53173 0
M  V30 1701 C 159.087 0.464847 -2.28826 0
M  V30 1702 C 160.068 1.07936 -1.31468 0
M  V30 1703 O 161.253 1.0956 -1.60344 0
M  V30 1704 C 158.383 1.60196 -3.08147 0
M  V30 1705 C 157.337 1.11443 -4.13237 0
M  V30 1706 C 156.663 2.3422 -4.80672 0
M  V30 1707 C 157.963 0.195384 -5.21934 0
M  V30 1708 H 159.657 -0.166329 -2.98938 0
M  V30 1709 H 157.203 -0.0814359 -1.4377 0
M  V30 1710 H 159.156 2.19332 -3.59822 0
M  V30 1711 H 157.88 2.26045 -2.35735 0
M  V30 1712 H 156.539 0.545727 -3.62515 0
M  V30 1713 H 156.187 2.98537 -4.04827 0
M  V30 1714 H 155.887 2.02269 -5.51689 0
M  V30 1715 H 157.411 2.94032 -5.35143 0
M  V30 1716 H 158.825 0.694375 -5.69079 0
M  V30 1717 H 157.222 -0.0335027 -6.00091 0
M  V30 1718 H 158.292 -0.760961 -4.78892 0
M  V30 1719 N 159.635 1.57281 -0.100228 0
M  V30 1720 C 160.912 1.86014 0.604812 0
M  V30 1721 C 161.292 0.998025 1.86018 0
M  V30 1722 O 160.64 0.0718184 2.28387 0
M  V30 1723 C 160.85 3.36784 0.915278 0
M  V30 1724 C 162.198 4.04957 1.27651 0
M  V30 1725 O 163.222 3.41695 1.00613 0
M  V30 1726 O 162.081 5.16593 1.7831 0
M  V30 1727 H 159.175 0.76942 0.303185 0
M  V30 1728 H 161.721 1.69176 -0.133313 0
M  V30 1729 H 160.493 3.91292 0.0248896 0
M  V30 1730 H 160.116 3.58987 1.70921 0
M  V30 1731 N 161.113 -0.173488 1.56642 0
M  V30 1732 C 162.043 -1.2171 1.99271 0
M  V30 1733 C 163.024 -1.46289 0.867959 0
M  V30 1734 O 164.209 -1.5766 1.13388 0
M  V30 1735 C 161.339 -2.55651 2.35074 0
M  V30 1736 C 160.293 -2.45645 3.50489 0
M  V30 1737 C 159.619 -3.84056 3.72028 0
M  V30 1738 C 160.919 -1.96302 4.84007 0
M  V30 1739 H 162.613 -0.86275 2.867 0
M  V30 1740 H 160.159 -0.413571 1.37933 0
M  V30 1741 H 162.112 -3.2886 2.63494 0
M  V30 1742 H 160.836 -2.92869 1.44552 0
M  V30 1743 H 159.495 -1.7489 3.22194 0
M  V30 1744 H 159.143 -4.18664 2.788 0
M  V30 1745 H 158.843 -3.7823 4.49684 0
M  V30 1746 H 160.367 -4.58854 4.02846 0
M  V30 1747 H 161.781 -2.59284 5.11317 0
M  V30 1748 H 160.178 -2.01429 5.65284 0
M  V30 1749 H 161.248 -0.917226 4.76146 0
M  V30 1750 N 162.591 -1.51276 -0.441967 0
M  V30 1751 C 163.501 -1.75092 -1.56141 0
M  V30 1752 C 164.517 -0.634963 -1.62001 0
M  V30 1753 O 165.693 -0.916686 -1.79329 0
M  V30 1754 C 162.758 -1.86666 -2.92158 0
M  V30 1755 C 161.819 -3.10506 -2.96453 0
M  V30 1756 C 161.052 -3.21519 -4.25982 0
M  V30 1757 O 161.275 -2.38586 -5.18105 0
M  V30 1758 O 160.209 -4.14465 -4.36466 0
M  V30 1759 H 164.035 -2.70044 -1.38961 0
M  V30 1760 H 161.62 -1.35722 -0.624499 0
M  V30 1761 H 163.502 -1.96292 -3.72891 0
M  V30 1762 H 162.177 -0.949014 -3.09476 0
M  V30 1763 H 161.084 -3.06363 -2.14692 0
M  V30 1764 H 162.417 -4.01945 -2.84079 0
M  V30 1765 N 164.069 0.697108 -1.41344 0
M  V30 1766 C 165.316 1.45714 -1.40619 0
M  V30 1767 C 165.644 1.94494 -0.0147907 0
M  V30 1768 O 164.899 1.69794 0.973066 0
M  V30 1769 C 165.198 2.68553 -2.35826 0
M  V30 1770 C 164.864 2.38438 -3.82698 0
M  V30 1771 C 163.526 2.29936 -4.22709 0
M  V30 1772 C 165.878 2.13567 -4.75435 0
M  V30 1773 C 163.206 1.94656 -5.53467 0
M  V30 1774 C 165.558 1.79797 -6.06511 0
M  V30 1775 C 164.222 1.69789 -6.45545 0
M  V30 1776 H 163.492 0.533206 -0.51456 0
M  V30 1777 H 166.139 0.796901 -1.74131 0
M  V30 1778 H 164.444 3.39503 -1.95563 0
M  V30 1779 H 166.141 3.2669 -2.32539 0
M  V30 1780 H 162.731 2.4595 -3.51008 0
M  V30 1781 H 166.915 2.19082 -4.45328 0
M  V30 1782 H 162.171 1.8546 -5.82593 0
M  V30 1783 H 166.345 1.59572 -6.77872 0
M  V30 1784 H 163.972 1.4222 -7.46778 0
M  V30 1785 N 165.547 1.27147 0.931209 0
M  V30 1786 C 166.958 1.12044 1.49342 0
M  V30 1787 C 167.309 -0.295795 1.93957 0
M  V30 1788 O 166.434 -1.18835 1.80852 0
M  V30 1789 C 167.029 2.02781 2.71414 0
M  V30 1790 C 165.588 1.91794 3.2387 0
M  V30 1791 C 164.735 1.95543 1.96617 0
M  V30 1792 H 167.686 1.40091 0.745672 0
M  V30 1793 H 167.707 1.58156 3.46074 0
M  V30 1794 H 167.219 3.05848 2.38911 0
M  V30 1795 H 165.32 0.916992 3.6114 0
M  V30 1796 H 165.433 2.77852 3.90302 0
M  V30 1797 H 163.797 1.39722 2.12955 0
M  V30 1798 H 164.58 3.00259 1.66432 0
M  V30 1799 N 167.025 -1.13721 1.09112 0
M  V30 1800 C 168.302 -1.81155 0.737706 0
M  V30 1801 C 168.682 -1.96253 -0.777683 0
M  V30 1802 O 168.03 -1.52807 -1.69889 0
M  V30 1803 C 168.24 -3.16392 1.47299 0
M  V30 1804 C 169.588 -3.91787 1.63671 0
M  V30 1805 O 170.612 -3.26005 1.43524 0
M  V30 1806 O 169.471 -5.0977 1.96969 0
M  V30 1807 H 166.565 -0.783518 0.26463 0
M  V30 1808 H 169.111 -1.20676 1.19312 0
M  V30 1809 H 167.883 -3.0061 2.50498 0
M  V30 1810 H 167.506 -3.8457 1.00953 0
M  V30 1811 N 168.503 -0.877838 -1.30888 0
M  V30 1812 C 169.413 -0.343096 -2.32078 0
M  V30 1813 C 170.429 0.551022 -1.65045 0
M  V30 1814 O 171.605 0.445854 -1.96403 0
M  V30 1815 C 168.67 0.439905 -3.43898 0
M  V30 1816 C 167.731 -0.483111 -4.26573 0
M  V30 1817 C 166.964 0.262616 -5.33053 0
M  V30 1818 O 167.187 1.48967 -5.50604 0
M  V30 1819 O 166.121 -0.383593 -6.00676 0
M  V30 1820 H 169.947 -1.18203 -2.79753 0
M  V30 1821 H 167.532 -0.64145 -1.34929 0
M  V30 1822 H 169.414 0.883504 -4.12034 0
M  V30 1823 H 168.089 1.25526 -2.98371 0
M  V30 1824 H 166.996 -0.975374 -3.61161 0
M  V30 1825 H 168.329 -1.26427 -4.75686 0
M  V30 1826 N 169.982 1.44106 -0.638065 0
M  V30 1827 C 171.228 2.02815 -0.15409 0
M  V30 1828 C 171.583 1.49342 1.21304 0
M  V30 1829 O 170.876 0.670699 1.79478 0
M  V30 1830 C 171.07 3.5729 -0.0887327 0
M  V30 1831 C 170.899 4.2575 -1.44799 0
M  V30 1832 C 169.669 4.62443 -2.03653 0
M  V30 1833 C 171.867 4.55746 -2.38327 0
M  V30 1834 N 169.849 5.15903 -3.32741 0
M  V30 1835 C 171.22 5.10364 -3.52036 0
M  V30 1836 C 173.275 4.37703 -2.3732 0
M  V30 1837 C 171.978 5.48837 -4.64941 0
M  V30 1838 C 174.004 4.77229 -3.49294 0
M  V30 1839 C 173.366 5.31966 -4.61726 0
M  V30 1840 H 169.465 0.775519 -0.100466 0
M  V30 1841 H 172.049 1.755 -0.843071 0
M  V30 1842 H 170.22 3.84201 0.569548 0
M  V30 1843 H 171.952 4.02671 0.404711 0
M  V30 1844 H 168.707 4.46987 -1.56523 0
M  V30 1845 H 169.131 5.47102 -3.98758 0
M  V30 1846 H 173.773 3.94671 -1.51641 0
M  V30 1847 H 171.491 5.9082 -5.51323 0
M  V30 1848 H 175.077 4.64976 -3.49698 0
M  V30 1849 H 173.957 5.61986 -5.46939 0
M  V30 1850 N 171.46 0.379036 1.52974 0
M  V30 1851 C 172.407 -0.461048 2.26148 0
M  V30 1852 C 173.377 -1.06637 1.27349 0
M  V30 1853 O 174.562 -1.09633 1.56157 0
M  V30 1854 C 171.702 -1.58782 3.06402 0
M  V30 1855 C 170.815 -1.00636 4.20115 0
M  V30 1856 C 169.95 -2.10334 4.87784 0
M  V30 1857 C 168.989 -1.49724 5.93506 0
M  V30 1858 N 168.126 -2.5331 6.54812 0
M  V30 1859 H 172.966 0.169429 2.97518 0
M  V30 1860 H 170.503 0.0953806 1.4679 0
M  V30 1861 H 172.461 -2.25174 3.51215 0
M  V30 1862 H 171.091 -2.18876 2.37261 0
M  V30 1863 H 170.143 -0.232332 3.7969 0
M  V30 1864 H 171.455 -0.523343 4.96047 0
M  V30 1865 H 170.609 -2.84519 5.35849 0
M  V30 1866 H 169.348 -2.61992 4.11353 0
M  V30 1867 H 168.353 -0.740598 5.44789 0
M  V30 1868 H 169.578 -0.988732 6.71864 0
M  V30 1869 H 167.524 -3.04156 5.81227 0
M  V30 1870 H 167.441 -2.09734 7.26325 0
M  V30 1871 H 168.709 -3.27155 7.07524 0
M  V30 1872 N 172.938 -1.57226 0.108567 0
M  V30 1873 C 174.354 -1.5766 -0.248058 0
M  V30 1874 C 174.554 -1.12063 -1.67464 0
M  V30 1875 O 173.61 -0.803236 -2.39383 0
M  V30 1876 C 174.923 -3.0069 -0.0242287 0
M  V30 1877 C 176.471 -3.12868 -0.0909372 0
M  V30 1878 C 176.946 -4.57879 0.105067 0
M  V30 1879 N 178.437 -4.63172 0.0506846 0
M  V30 1880 C 179.172 -5.73126 0.177396 0
M  V30 1881 N 178.668 -6.91866 0.359696 0
M  V30 1882 N 180.461 -5.61977 0.117709 0
M  V30 1883 H 172.612 -1.85169 1.04049 0
M  V30 1884 H 174.875 -0.85529 0.40888 0
M  V30 1885 H 174.581 -3.38299 0.961604 0
M  V30 1886 H 174.455 -3.6945 -0.76068 0
M  V30 1887 H 176.842 -2.75124 -1.06729 0
M  V30 1888 H 176.923 -2.46672 0.677225 0
M  V30 1889 H 176.567 -4.96321 1.07834 0
M  V30 1890 H 176.497 -5.22153 -0.682954 0
M  V30 1891 H 178.988 -3.778 -0.0871266 0
M  V30 1892 H 179.301 -7.71503 0.447529 0
M  V30 1893 H 177.646 -6.93874 0.395536 0
M  V30 1894 H 180.837 -4.68094 -0.0236741 0
M  V30 1895 H 181.01 -6.47627 0.219905 0
M  V30 1896 N 174.416 0.165178 -1.56732 0
M  V30 1897 C 175.348 1.22911 -1.93457 0
M  V30 1898 C 176.361 1.40152 -0.828333 0
M  V30 1899 O 177.55 1.40046 -1.10677 0
M  V30 1900 C 174.65 2.59686 -2.17753 0
M  V30 1901 C 173.823 2.63663 -3.48999 0
M  V30 1902 C 172.882 3.81845 -3.62051 0
M  V30 1903 O 171.908 3.67559 -4.34613 0
M  V30 1904 N 173.11 4.98557 -2.97357 0
M  V30 1905 H 175.875 0.917118 -2.85323 0
M  V30 1906 H 173.436 0.354895 -1.57962 0
M  V30 1907 H 175.428 3.37225 -2.23743 0
M  V30 1908 H 173.998 2.83251 -1.32242 0
M  V30 1909 H 173.218 1.72173 -3.54612 0
M  V30 1910 H 174.506 2.63336 -4.35352 0
M  V30 1911 H 173.904 5.13065 -2.38287 0
M  V30 1912 H 172.461 5.73936 -3.08934 0
M  V30 1913 N 175.894 1.51508 0.433938 0
M  V30 1914 C 177.141 1.64345 1.18309 0
M  V30 1915 C 177.469 0.361315 1.91115 0
M  V30 1916 O 176.724 -0.654753 1.84422 0
M  V30 1917 C 177.023 2.79928 2.22205 0
M  V30 1918 C 176.689 4.19078 1.66387 0
M  V30 1919 C 175.351 4.56932 1.50887 0
M  V30 1920 C 177.703 5.05894 1.25381 0
M  V30 1921 C 175.031 5.79305 0.928608 0
M  V30 1922 C 177.383 6.2885 0.687823 0
M  V30 1923 C 176.047 6.65473 0.519755 0
M  V30 1924 H 175.317 0.601381 0.432923 0
M  V30 1925 H 177.964 1.85549 0.473676 0
M  V30 1926 H 176.269 2.52959 2.99197 0
M  V30 1927 H 177.966 2.87059 2.79997 0
M  V30 1928 H 174.556 3.89234 1.79428 0
M  V30 1929 H 178.74 4.77253 1.36175 0
M  V30 1930 H 173.996 6.06324 0.786186 0
M  V30 1931 H 178.17 6.95461 0.361581 0
M  V30 1932 H 175.797 7.6017 0.0679979 0
M  V30 1933 N 177.372 -0.689602 1.41712 0
M  V30 1934 C 178.783 -1.26973 1.36875 0
M  V30 1935 C 179.134 -1.96124 0.054748 0
M  V30 1936 O 178.259 -1.99141 -0.84687 0
M  V30 1937 C 178.854 -2.30912 2.47922 0
M  V30 1938 C 177.413 -2.84486 2.46464 0
M  V30 1939 C 176.56 -1.58603 2.27465 0
M  V30 1940 H 179.511 -0.48396 1.51141 0
M  V30 1941 H 179.532 -3.12331 2.17323 0
M  V30 1942 H 179.044 -1.80554 3.43543 0
M  V30 1943 H 177.145 -3.39005 1.54617 0
M  V30 1944 H 177.258 -3.34511 3.42986 0
M  V30 1945 H 175.622 -1.84632 1.75451 0
M  V30 1946 H 176.405 -1.10233 3.25121 0
M  V30 1947 N 178.85 -1.27639 -0.924453 0
M  V30 1948 C 180.098 -1.13941 -1.66918 0
M  V30 1949 C 180.419 0.314589 -1.92446 0
M  V30 1950 O 179.689 1.21964 -1.53303 0
M  V30 1951 H 178.269 -0.418678 -0.618642 0
M  V30 1952 H 180.931 -1.60213 -1.10985 0
M  V30 1953 H 180.027 -1.67094 -2.63602 0
M  V30 1954 N 180.328 1.1314 -1.09713 0
M  V30 1955 C 181.739 1.66029 -0.853885 0
M  V30 1956 C 182.09 1.86241 0.617142 0
M  V30 1957 O 181.215 1.5834 1.47503 0
M  V30 1958 C 181.81 3.01599 -1.5435 0
M  V30 1959 C 180.369 3.51467 -1.34714 0
M  V30 1960 C 179.516 2.26648 -1.59769 0
M  V30 1961 H 182.467 0.970226 -1.25588 0
M  V30 1962 H 182.488 3.67709 -0.978267 0
M  V30 1963 H 182 2.86856 -2.6141 0
M  V30 1964 H 180.101 3.71408 -0.297838 0
M  V30 1965 H 180.214 4.314 -2.08401 0
M  V30 1966 H 178.578 2.33385 -1.01998 0
M  V30 1967 H 179.361 2.14467 -2.68065 0
M  V30 1968 N 181.806 0.884767 1.30421 0
M  V30 1969 C 183.222 0.57874 1.48737 0
M  V30 1970 C 183.422 -0.883567 1.81095 0
M  V30 1971 O 182.478 -1.6648 1.89844 0
M  V30 1972 C 183.791 1.49171 2.61091 0
M  V30 1973 C 185.339 1.49532 2.74971 0
M  V30 1974 C 185.814 2.39421 3.90438 0
M  V30 1975 N 187.305 2.37383 3.97748 0
M  V30 1976 C 188.04 3.03647 4.86401 0
M  V30 1977 N 187.536 3.79136 5.79852 0
M  V30 1978 N 189.329 2.9288 4.79768 0
M  V30 1979 H 181.48 1.83075 1.0769 0
M  V30 1980 H 183.743 0.783637 0.533495 0
M  V30 1981 H 183.449 2.53291 2.44001 0
M  V30 1982 H 183.323 1.20113 3.57565 0
M  V30 1983 H 185.71 0.46163 2.91467 0
M  V30 1984 H 185.791 1.8262 1.79119 0
M  V30 1985 H 185.435 3.42874 3.74699 0
M  V30 1986 H 185.365 2.03649 4.85628 0
M  V30 1987 H 187.856 1.82525 3.30897 0
M  V30 1988 H 188.169 4.26789 6.4426 0
M  V30 1989 H 186.514 3.83243 5.79784 0
M  V30 1990 H 189.705 2.33433 4.05742 0
M  V30 1991 H 189.878 3.448 5.4865 0
M  V30 1992 N 183.284 -1.43765 0.645699 0
M  V30 1993 C 184.531 -2.01898 0.15604 0
M  V30 1994 C 184.859 -1.50887 -1.22733 0
M  V30 1995 O 184.114 -0.689271 -1.8316 0
M  V30 1996 C 184.413 -3.57238 0.107679 0
M  V30 1997 C 184.079 -4.27564 1.43178 0
M  V30 1998 C 182.741 -4.46492 1.7944 0
M  V30 1999 C 185.093 -4.67454 2.30513 0
M  V30 2000 C 182.421 -5.02573 3.02716 0
M  V30 2001 C 184.773 -5.24901 3.53074 0
M  V30 2002 C 183.437 -5.42046 3.89541 0
M  V30 2003 H 182.707 -0.738797 0.057099 0
M  V30 2004 H 185.354 -1.72341 0.834912 0
M  V30 2005 H 183.659 -3.86293 -0.654618 0
M  V30 2006 H 185.356 -3.99965 -0.287938 0
M  V30 2007 H 181.946 -4.13171 1.13963 0
M  V30 2008 H 186.13 -4.5253 2.0379 0
M  V30 2009 H 181.386 -5.14033 3.31028 0
M  V30 2010 H 185.56 -5.54758 4.20971 0
M  V30 2011 H 183.187 -5.85268 4.85145 0
M  V30 2012 N 184.763 -0.387143 -1.52771 0
M  V30 2013 C 186.011 0.195349 -2.01154 0
M  V30 2014 C 186.332 1.475 -1.27549 0
M  V30 2015 O 185.602 1.91878 -0.394924 0
M  V30 2016 H 184.182 0.075178 -0.743207 0
M  V30 2017 H 186.844 -0.518337 -1.87881 0
M  V30 2018 H 185.94 0.407096 -3.09434 0
M  V30 2019 N 186.241 1.57166 -0.116904 0
M  V30 2020 C 187.49 1.94298 0.541407 0
M  V30 2021 C 187.803 1.00236 1.67964 0
M  V30 2022 O 189.009 1.26826 2.40057 0
M  V30 2023 C 187.465 3.45306 1.01449 0
M  V30 2024 C 187.073 4.47899 -0.0951738 0
M  V30 2025 C 188.817 3.91361 1.6443 0
M  V30 2026 C 186.724 5.90083 0.394491 0
M  V30 2027 H 185.654 0.725308 0.206019 0
M  V30 2028 H 188.305 1.82446 -0.196419 0
M  V30 2029 H 186.687 3.52385 1.80667 0
M  V30 2030 H 187.861 4.52486 -0.871374 0
M  V30 2031 H 186.176 4.11583 -0.631505 0
M  V30 2032 H 188.773 4.95004 2.02176 0
M  V30 2033 H 189.116 3.3122 2.52189 0
M  V30 2034 H 189.649 3.87073 0.917559 0
M  V30 2035 H 186.388 6.53974 -0.447004 0
M  V30 2036 H 185.908 5.88921 1.13722 0
M  V30 2037 H 187.587 6.41307 0.856399 0
M  V30 2038 N 187.719 -0.156864 1.56817 0
M  V30 2039 C 188.996 -0.899244 1.73704 0
M  V30 2040 C 189.376 -1.99771 0.682254 0
M  V30 2041 O 188.724 -2.26515 -0.300522 0
M  V30 2042 C 188.934 -1.45075 3.17418 0
M  V30 2043 C 190.282 -1.91802 3.7881 0
M  V30 2044 O 191.306 -1.54838 3.20786 0
M  V30 2045 O 190.165 -2.5994 4.80722 0
M  V30 2046 H 187.259 -0.424267 0.709878 0
M  V30 2047 H 189.805 -0.143561 1.69092 0
M  V30 2048 H 188.577 -0.660846 3.85679 0
M  V30 2049 H 188.2 -2.27021 3.26416 0
M  V30 2050 N 189.197 -1.51736 -0.425897 0
M  V30 2051 C 190.445 -1.64644 -1.17204 0
M  V30 2052 C 190.766 -0.370486 -1.91448 0
M  V30 2053 O 190.036 0.614088 -1.86026 0
M  V30 2054 H 188.616 -0.606819 -0.435638 0
M  V30 2055 H 191.278 -1.88713 -0.487177 0
M  V30 2056 H 190.374 -2.47958 -1.89534 0
M  V30 2057 N 190.675 0.682077 -1.42076 0
M  V30 2058 C 191.924 1.43786 -1.41451 0
M  V30 2059 C 192.237 1.95574 -0.0317074 0
M  V30 2060 O 193.443 2.71326 0.0971462 0
M  V30 2061 C 191.899 2.60071 -2.48779 0
M  V30 2062 C 191.507 2.15013 -3.93031 0
M  V30 2063 C 193.251 3.37626 -2.57311 0
M  V30 2064 C 191.158 3.28336 -4.91883 0
M  V30 2065 H 190.088 0.540143 -0.526082 0
M  V30 2066 H 192.739 0.739157 -1.67955 0
M  V30 2067 H 191.121 3.32275 -2.15429 0
M  V30 2068 H 192.295 1.5001 -4.35699 0
M  V30 2069 H 190.61 1.50416 -3.88284 0
M  V30 2070 H 193.207 4.22012 -3.28345 0
M  V30 2071 H 193.55 3.83727 -1.61429 0
M  V30 2072 H 194.083 2.72488 -2.89819 0
M  V30 2073 H 190.822 2.87234 -5.89217 0
M  V30 2074 H 190.342 3.92145 -4.53853 0
M  V30 2075 H 192.021 3.93913 -5.13265 0
M  V30 2076 N 192.153 1.28127 0.917671 0
M  V30 2077 C 193.569 1.05749 1.19538 0
M  V30 2078 C 193.769 -0.202633 2.00479 0
M  V30 2079 O 192.825 -0.905382 2.3571 0
M  V30 2080 C 194.138 2.30273 1.93378 0
M  V30 2081 C 195.686 2.35412 2.06277 0
M  V30 2082 C 196.161 3.59692 2.83524 0
M  V30 2083 N 197.652 3.60309 2.91087 0
M  V30 2084 C 198.387 4.53147 3.51348 0
M  V30 2085 N 197.883 5.563 4.12919 0
M  V30 2086 N 199.676 4.40751 3.48849 0
M  V30 2087 H 191.827 2.09024 0.377184 0
M  V30 2088 H 194.09 0.919798 0.22951 0
M  V30 2089 H 193.796 3.22055 1.41328 0
M  V30 2090 H 193.67 2.36378 2.93947 0
M  V30 2091 H 196.057 1.4413 2.57508 0
M  V30 2092 H 196.138 2.33304 1.04895 0
M  V30 2093 H 195.782 4.51316 2.32973 0
M  V30 2094 H 195.712 3.59054 3.85211 0
M  V30 2095 H 198.203 2.85714 2.47338 0
M  V30 2096 H 198.516 6.2329 4.56869 0
M  V30 2097 H 196.861 5.60131 4.11435 0
M  V30 2098 H 200.052 3.59367 2.99955 0
M  V30 2099 H 200.225 5.13291 3.9552 0
M  V30 2100 N 193.631 -1.12557 1.10312 0
M  V30 2101 C 194.908 -1.80363 0.756878 0
M  V30 2102 C 195.288 -1.97067 -0.756824 0
M  V30 2103 O 194.636 -1.54601 -1.68259 0
M  V30 2104 C 194.846 -3.14812 1.50647 0
M  V30 2105 C 196.194 -3.90029 1.67817 0
M  V30 2106 O 197.218 -3.24464 1.46974 0
M  V30 2107 O 196.077 -5.07652 2.02365 0
M  V30 2108 H 193.171 -0.780667 0.272926 0
M  V30 2109 H 195.717 -1.19404 1.20586 0
M  V30 2110 H 194.489 -2.97936 2.53672 0
M  V30 2111 H 194.112 -3.83478 1.05026 0
M  V30 2112 N 195.109 -0.891671 -1.2995 0
M  V30 2113 C 196.525 -0.58662 -1.48428 0
M  V30 2114 C 196.725 0.873951 -1.81561 0
M  V30 2115 O 195.781 1.65471 -1.90724 0
M  V30 2116 C 197.094 -1.50553 -2.60296 0
M  V30 2117 C 198.642 -1.50988 -2.74175 0
M  V30 2118 C 199.117 -2.41488 -3.89163 0
M  V30 2119 N 200.608 -2.39489 -3.96483 0
M  V30 2120 C 201.343 -3.06223 -4.84784 0
M  V30 2121 N 200.839 -3.82206 -5.77833 0
M  V30 2122 N 202.632 -2.95421 -4.78208 0
M  V30 2123 H 194.783 -1.83644 -1.06718 0
M  V30 2124 H 197.046 -0.786455 -0.529332 0
M  V30 2125 H 196.752 -2.54581 -2.42654 0
M  V30 2126 H 196.626 -1.22008 -3.56923 0
M  V30 2127 H 199.013 -0.47708 -2.91218 0
M  V30 2128 H 199.094 -1.83567 -1.78148 0
M  V30 2129 H 198.738 -3.44857 -3.72876 0
M  V30 2130 H 198.668 -2.06222 -4.84541 0
M  V30 2131 H 201.159 -1.84278 -3.29924 0
M  V30 2132 H 201.472 -4.302 -6.41988 0
M  V30 2133 H 199.817 -3.86313 -5.77743 0
M  V30 2134 H 203.008 -2.35581 -4.04499 0
M  V30 2135 H 203.181 -3.47704 -5.46814 0
M  V30 2136 N 196.587 1.43421 -0.653314 0
M  V30 2137 C 197.833 2.02111 -0.166992 0
M  V30 2138 C 198.166 1.51423 1.21592 0
M  V30 2139 O 197.441 0.707389 1.8118 0
M  V30 2140 C 197.724 3.5966 -0.177948 0
M  V30 2141 C 197.577 4.20579 -1.59478 0
M  V30 2142 C 198.896 4.37413 0.4856 0
M  V30 2143 H 196.015 0.734374 -0.0621557 0
M  V30 2144 H 198.657 1.70717 -0.834016 0
M  V30 2145 H 196.807 3.86537 0.390032 0
M  V30 2146 H 198.479 4.04732 -2.21336 0
M  V30 2147 H 196.722 3.77226 -2.14204 0
M  V30 2148 H 197.393 5.29665 -1.5543 0
M  V30 2149 H 199.869 4.161 0.00234528 0
M  V30 2150 H 198.745 5.47075 0.447207 0
M  V30 2151 H 199.006 4.13672 1.55974 0
M  V30 2152 N 198.065 0.39524 1.52563 0
M  V30 2153 C 199.313 -0.184678 2.01254 0
M  V30 2154 C 199.634 -1.46822 1.28329 0
M  V30 2155 O 198.904 -1.91666 0.405094 0
M  V30 2156 H 197.484 -0.0712355 0.743596 0
M  V30 2157 H 200.146 0.528293 1.87603 0
M  V30 2158 H 199.242 -0.390681 3.09645 0
M  V30 2159 N 199.544 -1.57102 0.125237 0
M  V30 2160 C 200.79 -1.95697 -0.532035 0
M  V30 2161 C 201.123 -1.009 -1.6593 0
M  V30 2162 O 200.398 -0.047347 -1.94442 0
M  V30 2163 C 200.681 -3.44181 -1.05884 0
M  V30 2164 C 200.534 -4.49752 0.0654392 0
M  V30 2165 C 201.853 -3.94655 -1.9477 0
M  V30 2166 H 198.972 -0.711571 -0.191925 0
M  V30 2167 H 201.614 -1.88923 0.20206 0
M  V30 2168 H 199.764 -3.50085 -1.68442 0
M  V30 2169 H 201.436 -4.55943 0.700982 0
M  V30 2170 H 199.679 -4.27653 0.727709 0
M  V30 2171 H 200.35 -5.50924 -0.344505 0
M  V30 2172 H 202.826 -3.91094 -1.42074 0
M  V30 2173 H 201.702 -4.99057 -2.28546 0
M  V30 2174 H 201.963 -3.35718 -2.87656 0
M  V30 2175 N 201.022 0.148545 -1.56898 0
M  V30 2176 C 201.972 1.1886 -1.94567 0
M  V30 2177 C 202.956 1.3863 -0.816735 0
M  V30 2178 O 204.148 1.40218 -1.08018 0
M  V30 2179 C 201.277 2.52262 -2.32849 0
M  V30 2180 C 200.363 2.36092 -3.52309 0
M  V30 2181 N 200.754 1.89674 -4.6889 0
M  V30 2182 C 199.052 2.66848 -3.57363 0
M  V30 2183 C 199.753 1.86511 -5.50989 0
M  V30 2184 N 198.729 2.29766 -4.92655 0
M  V30 2185 H 202.531 0.821793 -2.82177 0
M  V30 2186 H 200.045 0.356615 -1.58436 0
M  V30 2187 H 202.042 3.27447 -2.58039 0
M  V30 2188 H 200.702 2.89727 -1.46589 0
M  V30 2189 H 201.713 1.59663 -4.92674 0
M  V30 2190 H 198.39 3.08198 -2.81639 0
M  V30 2191 H 199.78 1.52128 -6.54452 0
M  V30 2192 N 202.5 1.5196 0.417844 0
M  V30 2193 C 203.448 1.75278 1.52907 0
M  V30 2194 C 204.442 0.619611 1.57662 0
M  V30 2195 O 205.648 0.801457 1.61173 0
M  V30 2196 H 202.023 0.554141 0.508362 0
M  V30 2197 H 203.994 2.68389 1.30422 0
M  V30 2198 C 202.743 1.91262 2.90369 0
M  V30 2199 H 202.066 2.77872 2.8745 0
M  V30 2200 H 203.506 2.11581 3.67436 0
M  V30 2201 C 201.965 0.677431 3.30019 0
M  V30 2202 O 202.495 -0.158799 4.01386 0
M  V30 2203 N 200.701 0.515851 2.85985 0
M  V30 2204 H 200.248 1.19744 2.28077 0
M  V30 2205 H 200.206 -0.309315 3.12875 0
M  V30 2206 N 203.978 -0.674533 1.42435 0
M  V30 2207 C 205.394 -0.98769 1.25367 0
M  V30 2208 C 205.594 -2.00879 0.158044 0
M  V30 2209 O 204.65 -2.48075 -0.470633 0
M  V30 2210 C 205.963 -1.49224 2.6106 0
M  V30 2211 C 207.511 -1.61 2.68417 0
M  V30 2212 C 207.986 -2.14852 4.04478 0
M  V30 2213 N 209.477 -2.22185 4.06434 0
M  V30 2214 C 210.212 -2.64928 5.08528 0
M  V30 2215 N 209.708 -3.07121 6.21006 0
M  V30 2216 N 211.501 -2.64679 4.95885 0
M  V30 2217 H 203.652 0.00152503 2.124 0
M  V30 2218 H 205.915 -0.0618434 0.945981 0
M  V30 2219 H 205.621 -0.816453 3.42092 0
M  V30 2220 H 205.495 -2.47094 2.84999 0
M  V30 2221 H 207.882 -2.27686 1.87732 0
M  V30 2222 H 207.963 -0.616195 2.48267 0
M  V30 2223 H 207.607 -1.48775 4.85622 0
M  V30 2224 H 207.537 -3.15024 4.2198 0
M  V30 2225 H 210.028 -1.92435 3.25234 0
M  V30 2226 H 210.341 -3.38423 6.94759 0
M  V30 2227 H 208.686 -3.04978 6.24511 0
M  V30 2228 H 211.877 -2.31078 4.07088 0
M  V30 2229 H 212.05 -2.9767 5.75584 0
M  V30 2230 N 205.456 -1.28612 -0.910864 0
M  V30 2231 C 206.867 -1.14406 -1.47541 0
M  V30 2232 C 207.218 0.264901 -1.94403 0
M  V30 2233 O 206.343 1.15942 -1.82719 0
M  V30 2234 C 206.938 -2.07073 -2.68153 0
M  V30 2235 C 205.497 -1.96923 -3.20778 0
M  V30 2236 C 204.644 -1.98646 -1.93481 0
M  V30 2237 H 207.595 -1.41259 -0.723291 0
M  V30 2238 H 207.616 -1.63642 -3.43514 0
M  V30 2239 H 207.128 -3.09611 -2.34015 0
M  V30 2240 H 205.229 -0.97433 -3.59635 0
M  V30 2241 H 205.342 -2.84026 -3.85832 0
M  V30 2242 H 203.706 -1.43093 -2.10705 0
M  V30 2243 H 204.489 -3.02868 -1.61634 0
M  V30 2244 N 206.934 1.1197 -1.10907 0
M  V30 2245 C 207.864 2.19928 -0.784473 0
M  V30 2246 C 208.845 1.6833 0.244726 0
M  V30 2247 O 210.03 1.93892 0.109418 0
M  V30 2248 C 207.16 3.46597 -0.220827 0
M  V30 2249 C 206.114 4.11376 -1.18127 0
M  V30 2250 C 205.44 5.32554 -0.478594 0
M  V30 2251 C 206.74 4.56945 -2.52979 0
M  V30 2252 H 208.434 2.47337 -1.68715 0
M  V30 2253 H 205.98 1.18879 -0.812642 0
M  V30 2254 H 207.933 4.21396 0.0184278 0
M  V30 2255 H 206.657 3.1863 0.717113 0
M  V30 2256 H 205.316 3.38564 -1.40606 0
M  V30 2257 H 204.964 5.00856 0.463976 0
M  V30 2258 H 204.664 5.76844 -1.11912 0
M  V30 2259 H 206.188 6.10096 -0.248 0
M  V30 2260 H 207.602 5.23093 -2.3462 0
M  V30 2261 H 205.999 5.1203 -3.12962 0
M  V30 2262 H 207.069 3.70676 -3.12614 0
M  V30 2263 N 208.412 0.89855 1.29475 0
M  V30 2264 C 209.342 0.39201 2.30186 0
M  V30 2265 C 210.323 -0.532359 1.61555 0
M  V30 2266 O 211.508 -0.443331 1.89072 0
M  V30 2267 C 208.638 -0.382353 3.45189 0
M  V30 2268 C 207.592 0.451483 4.25612 0
M  V30 2269 C 206.918 -0.450307 5.328 0
M  V30 2270 C 208.218 1.70079 4.93832 0
M  V30 2271 H 209.912 1.23362 2.72804 0
M  V30 2272 H 207.458 0.594638 1.31149 0
M  V30 2273 H 209.411 -0.747451 4.14718 0
M  V30 2274 H 208.135 -1.25774 3.01411 0
M  V30 2275 H 206.794 0.798897 3.57789 0
M  V30 2276 H 206.442 -1.32379 4.85268 0
M  V30 2277 H 206.142 0.103902 5.87508 0
M  V30 2278 H 207.666 -0.811623 6.05182 0
M  V30 2279 H 209.08 1.40549 5.55805 0
M  V30 2280 H 207.477 2.19623 5.58467 0
M  V30 2281 H 208.547 2.43744 4.19186 0
M  V30 2282 N 209.89 -1.43072 0.660911 0
M  V30 2283 C 210.823 -2.28074 -0.0758862 0
M  V30 2284 C 211.801 -1.40271 -0.822362 0
M  V30 2285 O 212.985 -1.69713 -0.820352 0
M  V30 2286 C 210.112 -3.19843 -1.11437 0
M  V30 2287 C 209.158 -4.23957 -0.465069 0
M  V30 2288 S 209.991 -5.29978 0.767078 0
M  V30 2289 C 211.147 -6.25314 -0.270682 0
M  V30 2290 H 211.38 -2.90216 0.645139 0
M  V30 2291 H 208.913 -1.47697 0.449995 0
M  V30 2292 H 210.871 -3.73257 -1.70849 0
M  V30 2293 H 209.532 -2.56863 -1.80776 0
M  V30 2294 H 208.725 -4.88299 -1.24819 0
M  V30 2295 H 208.327 -3.73959 0.0551242 0
M  V30 2296 H 210.619 -6.67932 -1.13459 0
M  V30 2297 H 211.562 -7.07293 0.337916 0
M  V30 2298 H 211.97 -5.61195 -0.609937 0
M  V30 2299 N 211.368 -0.403325 -1.52352 0
M  V30 2300 C 212.593 0.176499 -2.06648 0
M  V30 2301 C 213.018 1.38577 -1.27193 0
M  V30 2302 O 212.376 1.7879 -0.300637 0
M  V30 2303 C 212.424 0.511061 -3.5696 0
M  V30 2304 O 211.528 1.60294 -3.79973 0
M  V30 2305 H 210.869 0.0167337 -0.663789 0
M  V30 2306 H 213.399 -0.574848 -1.96359 0
M  V30 2307 H 213.409 0.771362 -4.00642 0
M  V30 2308 H 212.084 -0.37296 -4.14224 0
M  V30 2309 H 210.661 1.33526 -3.48174 0
M  V30 2310 N 212.846 1.57033 -0.133567 0
M  V30 2311 C 214.095 1.94861 0.520768 0
M  V30 2312 C 214.408 1.02012 1.66892 0
M  V30 2313 O 215.614 1.29365 2.38699 0
M  V30 2314 C 214.07 3.46362 0.977809 0
M  V30 2315 C 213.678 4.47773 -0.142674 0
M  V30 2316 C 215.422 3.93083 1.60269 0
M  V30 2317 C 213.329 5.90468 0.331883 0
M  V30 2318 H 212.259 0.727453 0.198315 0
M  V30 2319 H 214.91 1.82227 -0.215759 0
M  V30 2320 H 213.292 3.54282 1.7692 0
M  V30 2321 H 214.466 4.51536 -0.919317 0
M  V30 2322 H 212.781 4.10891 -0.675124 0
M  V30 2323 H 215.378 4.97121 1.96914 0
M  V30 2324 H 215.721 3.33876 2.48662 0
M  V30 2325 H 216.254 3.88025 0.876453 0
M  V30 2326 H 212.993 6.53463 -0.516341 0
M  V30 2327 H 212.513 5.90094 1.07469 0
M  V30 2328 H 214.192 6.42179 0.788332 0
M  V30 2329 N 214.325 -0.140222 1.56975 0
M  V30 2330 C 215.572 -0.851687 1.83719 0
M  V30 2331 C 215.9 -1.80862 0.715485 0
M  V30 2332 O 215.155 -1.93464 -0.294956 0
M  V30 2333 C 215.454 -1.65386 3.16832 0
M  V30 2334 C 215.12 -0.843112 4.42947 0
M  V30 2335 C 213.782 -0.619464 4.77196 0
M  V30 2336 C 216.134 -0.276582 5.20466 0
M  V30 2337 C 213.462 0.181312 5.8642 0
M  V30 2338 C 215.814 0.51127 6.30531 0
M  V30 2339 C 214.478 0.745432 6.63325 0
M  V30 2340 H 213.748 -0.311654 0.672274 0
M  V30 2341 H 216.395 -0.115006 1.91154 0
M  V30 2342 H 214.7 -2.46084 3.04877 0
M  V30 2343 H 216.397 -2.20793 3.34741 0
M  V30 2344 H 212.987 -1.0275 4.16101 0
M  V30 2345 H 217.171 -0.436632 4.94376 0
M  V30 2346 H 212.427 0.372165 6.10266 0
M  V30 2347 H 216.601 0.957354 6.89788 0
M  V30 2348 H 214.228 1.36778 7.47794 0
M  V30 2349 N 215.803 -1.52179 -0.40978 0
M  V30 2350 C 216.75 -1.75475 -1.49924 0
M  V30 2351 C 217.72 -0.597175 -1.54994 0
M  V30 2352 O 218.905 -0.834655 -1.71575 0
M  V30 2353 C 216.045 -1.9107 -2.87378 0
M  V30 2354 C 215.158 -3.18717 -2.91622 0
M  V30 2355 C 214.293 -3.24747 -4.20372 0
M  V30 2356 C 213.332 -4.46598 -4.18588 0
M  V30 2357 N 212.469 -4.50025 -5.38908 0
M  V30 2358 H 217.309 -2.68458 -1.29361 0
M  V30 2359 H 214.846 -1.33024 -0.627934 0
M  V30 2360 H 216.804 -1.98096 -3.6717 0
M  V30 2361 H 215.434 -1.01469 -3.06437 0
M  V30 2362 H 214.486 -3.20866 -2.04326 0
M  V30 2363 H 215.798 -4.08544 -2.86169 0
M  V30 2364 H 214.952 -3.30841 -5.08556 0
M  V30 2365 H 213.691 -2.32857 -4.28519 0
M  V30 2366 H 212.696 -4.40652 -3.28794 0
M  V30 2367 H 213.921 -5.39783 -4.12081 0
M  V30 2368 H 211.867 -3.61017 -5.47725 0
M  V30 2369 H 211.784 -5.33697 -5.35447 0
M  V30 2370 H 213.052 -4.60347 -6.29048 0
M  V30 2371 N 217.281 0.66697 -1.42791 0
M  V30 2372 C 218.529 1.42417 -1.43394 0
M  V30 2373 C 218.85 1.94925 -0.0542373 0
M  V30 2374 O 218.12 1.73564 0.908415 0
M  V30 2375 H 216.7 0.528515 -0.527902 0
M  V30 2376 H 219.362 0.787562 -1.78279 0
M  V30 2377 H 218.458 2.27333 -2.13837 0
M  V30 2378 N 218.759 1.29093 0.90403 0
M  V30 2379 C 219.692 1.08176 2.00931 0
M  V30 2380 C 220.67 -0.005083 1.62599 0
M  V30 2381 O 221.854 0.144765 1.87943 0
M  V30 2382 C 218.981 0.645897 3.32484 0
M  V30 2383 C 218.027 1.73081 3.89801 0
M  V30 2384 S 218.86 3.32905 4.19446 0
M  V30 2385 C 220.016 2.91176 5.54046 0
M  V30 2386 H 220.249 2.01752 2.18365 0
M  V30 2387 H 217.782 1.13191 1.0501 0
M  V30 2388 H 219.74 0.401131 4.08535 0
M  V30 2389 H 218.401 -0.270188 3.12936 0
M  V30 2390 H 217.594 1.37768 4.84805 0
M  V30 2391 H 217.196 1.92888 3.20422 0
M  V30 2392 H 219.488 2.37952 6.34338 0
M  V30 2393 H 220.431 3.85014 5.94281 0
M  V30 2394 H 220.839 2.296 5.15698 0
M  V30 2395 N 220.237 -1.11381 1.11499 0
M  V30 2396 C 221.486 -1.82494 0.858993 0
M  V30 2397 C 221.799 -1.85605 -0.617278 0
M  V30 2398 O 223.005 -2.52824 -0.989552 0
M  V30 2399 C 221.461 -3.27745 1.48699 0
M  V30 2400 C 221.069 -3.32961 2.99735 0
M  V30 2401 C 222.813 -4.03754 1.31085 0
M  V30 2402 C 220.72 -4.72612 3.55516 0
M  V30 2403 H 219.65 -0.683802 0.317696 0
M  V30 2404 H 222.301 -1.25331 1.34031 0
M  V30 2405 H 220.683 -3.84844 0.933339 0
M  V30 2406 H 221.857 -2.85741 3.61509 0
M  V30 2407 H 220.172 -2.70433 3.16631 0
M  V30 2408 H 222.769 -5.06891 1.70192 0
M  V30 2409 H 223.112 -4.15527 0.253496 0
M  V30 2410 H 223.645 -3.53043 1.83318 0
M  V30 2411 H 220.384 -4.66036 4.60967 0
M  V30 2412 H 219.904 -5.2024 2.98513 0
M  V30 2413 H 221.583 -5.4157 3.53992 0
M  V30 2414 N 221.715 -0.905404 -1.28997 0
M  V30 2415 C 222.963 -0.533192 -1.9494 0
M  V30 2416 C 223.284 0.924618 -1.71685 0
M  V30 2417 O 222.554 1.65268 -1.05183 0
M  V30 2418 H 221.134 -0.194194 -0.721317 0
M  V30 2419 H 223.796 -1.15294 -1.57141 0
M  V30 2420 H 222.892 -0.72059 -3.03667 0
M  V30 2421 N 223.193 1.4272 -0.668489 0
M  V30 2422 C 224.609 1.55992 -0.33745 0
M  V30 2423 C 224.809 1.64933 1.15756 0
M  V30 2424 O 223.865 1.61278 1.94282 0
M  V30 2425 C 225.178 2.81314 -1.06222 0
M  V30 2426 C 226.726 2.95078 -1.04394 0
M  V30 2427 C 227.201 4.23252 -1.74991 0
M  V30 2428 N 228.692 4.3015 -1.71829 0
M  V30 2429 C 229.427 5.28127 -2.23315 0
M  V30 2430 N 228.923 6.32293 -2.83156 0
M  V30 2431 N 230.716 5.19882 -2.13726 0
M  V30 2432 H 222.867 1.3516 -1.63846 0
M  V30 2433 H 225.13 0.650174 -0.689912 0
M  V30 2434 H 224.836 2.80823 -2.11734 0
M  V30 2435 H 224.71 3.72012 -0.62344 0
M  V30 2436 H 227.097 2.951 0.0028244 0
M  V30 2437 H 227.178 2.05627 -1.52155 0
M  V30 2438 H 226.822 4.2399 -2.79633 0
M  V30 2439 H 226.752 5.11626 -1.24685 0
M  V30 2440 H 229.243 3.55499 -1.28175 0
M  V30 2441 H 229.556 7.03398 -3.20079 0
M  V30 2442 H 227.901 6.32873 -2.87223 0
M  V30 2443 H 231.092 4.37423 -1.66669 0
M  V30 2444 H 231.265 5.96077 -2.54158 0
M  V30 2445 N 224.671 0.411399 1.52136 0
M  V30 2446 C 225.948 -0.222308 1.94333 0
M  V30 2447 C 226.328 -1.6242 1.34844 0
M  V30 2448 O 225.676 -2.22384 0.525145 0
M  V30 2449 C 225.886 -0.226345 3.48265 0
M  V30 2450 C 227.234 -0.444592 4.22266 0
M  V30 2451 O 228.258 -0.305602 3.54887 0
M  V30 2452 O 227.117 -0.718749 5.41753 0
M  V30 2453 H 224.211 -0.143907 0.814383 0
M  V30 2454 H 226.757 0.467506 1.63133 0
M  V30 2455 H 225.529 0.75475 3.83952 0
M  V30 2456 H 225.152 -0.960163 3.85832 0
M  V30 2457 N 226.149 -1.5696 0.141893 0
M  V30 2458 C 227.079 -2.19516 -0.795936 0
M  V30 2459 C 228.06 -1.14187 -1.26077 0
M  V30 2460 O 229.245 -1.42511 -1.31925 0
M  V30 2461 C 226.375 -2.81272 -2.03723 0
M  V30 2462 C 225.329 -3.92384 -1.70936 0
M  V30 2463 C 224.655 -4.41052 -3.02287 0
M  V30 2464 C 225.955 -5.13403 -0.959954 0
M  V30 2465 H 227.649 -2.98138 -0.274596 0
M  V30 2466 H 225.195 -1.43406 -0.130636 0
M  V30 2467 H 227.148 -3.237 -2.69808 0
M  V30 2468 H 225.872 -1.99973 -2.58221 0
M  V30 2469 H 224.531 -3.50566 -1.07232 0
M  V30 2470 H 224.179 -3.56582 -3.54765 0
M  V30 2471 H 223.879 -5.15993 -2.81114 0
M  V30 2472 H 225.403 -4.86146 -3.69451 0
M  V30 2473 H 226.817 -5.52706 -1.52279 0
M  V30 2474 H 225.214 -5.94073 -0.848357 0
M  V30 2475 H 226.284 -4.84875 0.0492434 0
M  V30 2476 N 227.627 0.131896 -1.57047 0
M  V30 2477 C 228.59 1.14638 -1.98471 0
M  V30 2478 C 229.59 1.35029 -0.873148 0
M  V30 2479 O 230.78 1.31764 -1.13946 0
M  V30 2480 C 227.912 2.50358 -2.31373 0
M  V30 2481 H 229.105 0.79064 -2.8929 0
M  V30 2482 H 226.658 0.375761 -1.51716 0
M  V30 2483 H 227.393 2.90876 -1.43393 0
M  V30 2484 H 227.178 2.36915 -3.12432 0
M  V30 2485 H 228.668 3.23395 -2.64207 0
M  V30 2486 N 229.106 1.52395 0.401703 0
M  V30 2487 C 230.336 1.70429 1.1678 0
M  V30 2488 C 230.744 0.416702 1.84554 0
M  V30 2489 O 230.087 -0.617697 1.73003 0
M  V30 2490 C 230.149 2.78919 2.26814 0
M  V30 2491 C 229.813 4.20437 1.79113 0
M  V30 2492 C 230.81 5.04028 1.27482 0
M  V30 2493 C 228.495 4.66704 1.85722 0
M  V30 2494 C 230.489 6.31961 0.830913 0
M  V30 2495 C 228.176 5.94625 1.40942 0
M  V30 2496 C 229.174 6.77082 0.897128 0
M  V30 2497 O 228.862 8.02607 0.455822 0
M  V30 2498 H 228.594 0.574272 0.356634 0
M  V30 2499 H 231.148 1.99767 0.477724 0
M  V30 2500 H 229.378 2.44973 2.99207 0
M  V30 2501 H 231.067 2.8548 2.88541 0
M  V30 2502 H 231.833 4.69471 1.21744 0
M  V30 2503 H 227.712 4.0262 2.24539 0
M  V30 2504 H 231.256 6.96271 0.430368 0
M  V30 2505 H 227.153 6.28688 1.46362 0
M  V30 2506 H 227.921 8.16453 0.578457 0
M  V30 2507 N 230.584 -0.659388 1.43143 0
M  V30 2508 C 231.514 -1.78422 1.50625 0
M  V30 2509 C 232.495 -1.66216 0.361443 0
M  V30 2510 O 233.68 -1.85404 0.577834 0
M  V30 2511 C 230.81 -3.16815 1.42287 0
M  V30 2512 C 229.764 -3.43777 2.54954 0
M  V30 2513 C 229.09 -4.81905 2.31671 0
M  V30 2514 C 230.39 -3.39134 3.97222 0
M  V30 2515 H 232.084 -1.72417 2.44771 0
M  V30 2516 H 229.63 -0.828084 1.17808 0
M  V30 2517 H 231.583 -3.95253 1.46127 0
M  V30 2518 H 230.307 -3.23534 0.446435 0
M  V30 2519 H 228.966 -2.67707 2.50457 0
M  V30 2520 H 228.614 -4.85294 1.32284 0
M  V30 2521 H 228.314 -5.00906 3.07192 0
M  V30 2522 H 229.838 -5.62609 2.37284 0
M  V30 2523 H 231.252 -4.07518 4.03239 0
M  V30 2524 H 229.649 -3.69671 4.72719 0
M  V30 2525 H 230.719 -2.37426 4.22797 0
M  V30 2526 N 232.062 -1.29571 -0.897171 0
M  V30 2527 C 233.29 -1.20583 -1.68129 0
M  V30 2528 C 233.705 0.233181 -1.87354 0
M  V30 2529 O 233.062 1.15579 -1.41236 0
M  V30 2530 C 233.113 -1.91772 -3.06441 0
M  V30 2531 O 232.834 -3.30053 -2.88091 0
M  V30 2532 C 234.335 -1.89291 -4.00854 0
M  V30 2533 H 231.555 -0.417826 -0.525036 0
M  V30 2534 H 234.099 -1.70987 -1.12177 0
M  V30 2535 H 232.254 -1.45196 -3.59161 0
M  V30 2536 H 232.668 -3.65942 -3.75748 0
M  V30 2537 H 234.142 -2.43662 -4.95311 0
M  V30 2538 H 234.619 -0.869014 -4.30517 0
M  V30 2539 H 235.225 -2.35622 -3.54066 0
M  V30 2540 N 233.54 1.10788 -1.12088 0
M  V30 2541 C 234.765 1.87002 -0.896949 0
M  V30 2542 C 235.19 1.79933 0.548261 0
M  V30 2543 O 234.548 1.16662 1.38779 0
M  V30 2544 C 234.596 3.3349 -1.37174 0
M  V30 2545 O 233.7 4.08745 -0.547831 0
M  V30 2546 H 233.041 0.580397 -0.322545 0
M  V30 2547 H 235.571 1.39996 -1.49206 0
M  V30 2548 H 235.581 3.84339 -1.36922 0
M  V30 2549 H 234.256 3.37951 -2.42408 0
M  V30 2550 H 232.833 3.6776 -0.617034 0
M  V30 2551 N 235.018 0.912232 1.28515 0
M  V30 2552 C 235.928 0.404506 2.31086 0
M  V30 2553 C 236.944 -0.50707 1.66448 0
M  V30 2554 O 238.12 -0.393624 1.97516 0
M  V30 2555 C 235.185 -0.348572 3.44943 0
M  V30 2556 C 234.246 0.59604 4.25142 0
M  V30 2557 C 233.479 -0.121194 5.33562 0
M  V30 2558 O 233.702 -1.34317 5.5436 0
M  V30 2559 O 232.636 0.542716 5.99448 0
M  V30 2560 H 236.462 1.25579 2.76521 0
M  V30 2561 H 234.047 0.676998 1.33181 0
M  V30 2562 H 235.929 -0.77395 4.14232 0
M  V30 2563 H 234.604 -1.17571 3.01594 0
M  V30 2564 H 233.511 1.07079 3.58448 0
M  V30 2565 H 234.844 1.38995 4.72167 0
M  V30 2566 N 236.496 -1.42363 0.676048 0
M  V30 2567 C 237.426 -2.33497 0.0124832 0
M  V30 2568 C 238.407 -1.50748 -0.787981 0
M  V30 2569 O 239.592 -1.79346 -0.744884 0
M  V30 2570 C 236.722 -3.34377 -0.938582 0
M  V30 2571 C 235.676 -4.27289 -0.246622 0
M  V30 2572 C 235.002 -5.18386 -1.31071 0
M  V30 2573 C 236.302 -5.14916 0.875125 0
M  V30 2574 H 237.996 -2.89233 0.773593 0
M  V30 2575 H 235.542 -1.39073 0.37346 0
M  V30 2576 H 237.495 -3.97044 -1.41188 0
M  V30 2577 H 236.219 -2.76947 -1.73113 0
M  V30 2578 H 234.878 -3.66018 0.206456 0
M  V30 2579 H 234.526 -4.57282 -2.09528 0
M  V30 2580 H 234.226 -5.81378 -0.852839 0
M  V30 2581 H 235.75 -5.83929 -1.78492 0
M  V30 2582 H 237.164 -5.71262 0.482983 0
M  V30 2583 H 235.561 -5.86747 1.25887 0
M  V30 2584 H 236.631 -4.53242 1.72335 0
M  V30 2585 N 237.974 -0.419461 -1.51915 0
M  V30 2586 C 238.921 0.400927 -2.27291 0
M  V30 2587 C 239.891 1.03224 -1.30131 0
M  V30 2588 O 241.076 1.05455 -1.59009 0
M  V30 2589 C 238.216 1.50603 -3.10504 0
M  V30 2590 C 237.329 0.89462 -4.22635 0
M  V30 2591 C 236.464 1.97328 -4.93189 0
M  V30 2592 C 235.503 1.33935 -5.97267 0
M  V30 2593 N 234.64 2.3586 -6.61298 0
M  V30 2594 H 239.48 -0.248251 -2.96964 0
M  V30 2595 H 237.017 -0.134266 -1.46486 0
M  V30 2596 H 238.975 2.15783 -3.57062 0
M  V30 2597 H 237.605 2.12509 -2.42981 0
M  V30 2598 H 236.657 0.131583 -3.80172 0
M  V30 2599 H 237.969 0.391641 -4.9726 0
M  V30 2600 H 237.123 2.70211 -5.43204 0
M  V30 2601 H 235.862 2.50994 -4.18155 0
M  V30 2602 H 234.867 0.595896 -5.46561 0
M  V30 2603 H 236.092 0.810252 -6.74249 0
M  V30 2604 H 234.038 2.88639 -5.89087 0
M  V30 2605 H 233.955 1.90403 -7.3163 0
M  V30 2606 H 235.223 3.08282 -7.15949 0
M  V30 2607 N 239.452 1.56882 -0.150215 0
M  V30 2608 C 240.399 2.16922 0.788244 0
M  V30 2609 C 241.369 1.10303 1.24187 0
M  V30 2610 O 242.554 1.38359 1.31383 0
M  V30 2611 C 239.694 2.79754 2.02068 0
M  V30 2612 C 238.807 4.00775 1.61257 0
M  V30 2613 C 237.942 4.51595 2.79705 0
M  V30 2614 C 236.981 5.65074 2.35282 0
M  V30 2615 N 236.118 6.10499 3.4675 0
M  V30 2616 H 240.958 2.96779 0.269444 0
M  V30 2617 H 238.495 1.46599 0.12128 0
M  V30 2618 H 240.453 3.14329 2.74323 0
M  V30 2619 H 239.083 2.02536 2.51354 0
M  V30 2620 H 238.135 3.72158 0.787553 0
M  V30 2621 H 239.447 4.82978 1.24633 0
M  V30 2622 H 238.601 4.88242 3.60145 0
M  V30 2623 H 237.34 3.68406 3.19576 0
M  V30 2624 H 236.345 5.28 1.53283 0
M  V30 2625 H 237.57 6.50052 1.96493 0
M  V30 2626 H 235.516 5.30243 3.86236 0
M  V30 2627 H 235.433 6.87637 3.14152 0
M  V30 2628 H 236.701 6.51791 4.27537 0
M  V30 2629 N 240.93 -0.123565 1.57115 0
M  V30 2630 C 241.862 -1.17739 1.96648 0
M  V30 2631 C 242.875 -1.37906 0.865201 0
M  V30 2632 O 244.064 -1.37062 1.14351 0
M  V30 2633 C 241.164 -2.53821 2.24562 0
M  V30 2634 C 240.337 -2.54317 3.55867 0
M  V30 2635 C 239.396 -3.72112 3.72047 0
M  V30 2636 O 238.422 -3.55907 4.44206 0
M  V30 2637 N 239.624 -4.90498 3.10471 0
M  V30 2638 H 242.389 -0.841147 2.87654 0
M  V30 2639 H 239.95 -0.31289 1.58848 0
M  V30 2640 H 241.942 -3.31175 2.32606 0
M  V30 2641 H 240.512 -2.79645 1.39705 0
M  V30 2642 H 239.732 -1.62711 3.59053 0
M  V30 2643 H 241.02 -2.51701 4.42181 0
M  V30 2644 H 240.418 -5.06567 2.51806 0
M  V30 2645 H 238.975 -5.65544 3.24043 0
M  V30 2646 N 242.408 -1.52605 -0.393616 0
M  V30 2647 C 243.371 -1.76415 -1.46323 0
M  V30 2648 C 244.371 -0.634126 -1.47768 0
M  V30 2649 O 245.561 -0.902142 -1.4902 0
M  V30 2650 C 242.693 -1.8607 -2.85641 0
M  V30 2651 H 243.886 -2.71916 -1.26498 0
M  V30 2652 H 241.439 -1.43257 -0.625073 0
M  V30 2653 H 242.174 -0.925378 -3.10817 0
M  V30 2654 H 241.959 -2.68235 -2.85993 0
M  V30 2655 H 243.449 -2.06179 -3.63153 0
M  V30 2656 N 243.887 0.651787 -1.4349 0
M  V30 2657 C 244.817 1.77621 -1.51569 0
M  V30 2658 C 245.798 1.66022 -0.370253 0
M  V30 2659 O 246.983 1.85095 -0.587658 0
M  V30 2660 C 244.113 3.16056 -1.43966 0
M  V30 2661 C 243.067 3.4242 -2.56774 0
M  V30 2662 C 242.393 4.8067 -2.34223 0
M  V30 2663 C 243.693 3.37023 -3.99015 0
M  V30 2664 H 245.387 1.71117 -2.45681 0
M  V30 2665 H 242.933 0.821825 -1.18246 0
M  V30 2666 H 244.886 3.94472 -1.48221 0
M  V30 2667 H 243.61 3.23293 -0.463586 0
M  V30 2668 H 242.269 2.66375 -2.51873 0
M  V30 2669 H 241.917 4.84585 -1.34856 0
M  V30 2670 H 241.617 4.9927 -3.09844 0
M  V30 2671 H 243.141 5.61342 -2.40265 0
M  V30 2672 H 244.555 4.05374 -4.05395 0
M  V30 2673 H 242.952 3.67159 -4.74673 0
M  V30 2674 H 244.022 2.3518 -4.2405 0
M  V30 2675 N 245.365 1.30045 0.890287 0
M  V30 2676 C 246.613 1.18327 1.63839 0
M  V30 2677 C 246.934 -0.263455 1.93212 0
M  V30 2678 O 246.204 -1.17856 1.56482 0
M  V30 2679 H 244.784 0.434933 0.607324 0
M  V30 2680 H 247.446 1.631 1.06698 0
M  V30 2681 H 246.542 1.74024 2.59079 0
M  V30 2682 N 246.843 -1.10192 1.12674 0
M  V30 2683 C 248.091 -1.81845 0.881861 0
M  V30 2684 C 248.412 -1.85737 -0.593867 0
M  V30 2685 O 247.682 -1.33724 -1.4316 0
M  V30 2686 H 246.262 -0.673432 0.323261 0
M  V30 2687 H 248.924 -1.33316 1.42172 0
M  V30 2688 H 248.02 -2.85288 1.2656 0
M  V30 2689 N 248.321 -0.919034 -1.28029 0
M  V30 2690 C 249.567 -0.555757 -1.95036 0
M  V30 2691 C 249.9 0.899198 -1.72128 0
M  V30 2692 O 249.175 1.64023 -1.04531 0
M  V30 2693 C 249.458 -0.872024 -3.49382 0
M  V30 2694 C 249.311 -2.3801 -3.81669 0
M  V30 2695 C 250.63 -0.37185 -4.38526 0
M  V30 2696 H 247.749 -0.203386 -0.708381 0
M  V30 2697 H 250.391 -1.14924 -1.51303 0
M  V30 2698 H 248.541 -0.366946 -3.86763 0
M  V30 2699 H 250.213 -2.9562 -3.54128 0
M  V30 2700 H 248.456 -2.83289 -3.28526 0
M  V30 2701 H 249.127 -2.55192 -4.8947 0
M  V30 2702 H 251.603 -0.804602 -4.08247 0
M  V30 2703 H 250.479 -0.622173 -5.45362 0
M  V30 2704 H 250.74 0.727934 -4.36066 0
M  V30 2705 N 249.799 1.42003 -0.683588 0
M  V30 2706 C 251.076 1.95112 -0.138075 0
M  V30 2707 C 251.456 1.62359 1.34918 0
M  V30 2708 O 250.804 0.924311 2.08971 0
M  V30 2709 C 251.014 3.46505 -0.416581 0
M  V30 2710 C 252.362 4.23254 -0.337834 0
M  V30 2711 O 253.386 3.54468 -0.35082 0
M  V30 2712 O 252.245 5.45743 -0.287596 0
M  V30 2713 H 249.339 0.826961 -0.00797996 0
M  V30 2714 H 251.885 1.51784 -0.758924 0
M  V30 2715 H 250.657 3.63582 -1.4465 0
M  V30 2716 H 250.28 3.969 0.235839 0
M  V30 2717 N 251.277 0.427512 1.51691 0
M  V30 2718 C 252.207 -0.3796 2.30394 0
M  V30 2719 C 253.188 -1.02982 1.35384 0
M  V30 2720 O 254.373 -1.03534 1.643 0
M  V30 2721 C 251.503 -1.48649 3.1388 0
M  V30 2722 C 250.457 -0.960294 4.17088 0
M  V30 2723 C 249.783 -2.16219 4.89033 0
M  V30 2724 C 251.083 -0.00153679 5.223 0
M  V30 2725 H 252.777 0.277164 2.98114 0
M  V30 2726 H 250.323 0.134739 1.43368 0
M  V30 2727 H 252.276 -2.05826 3.67714 0
M  V30 2728 H 251 -2.1714 2.43962 0
M  V30 2729 H 249.659 -0.410806 3.64291 0
M  V30 2730 H 249.307 -2.83307 4.15628 0
M  V30 2731 H 249.007 -1.81654 5.58816 0
M  V30 2732 H 250.531 -2.73968 5.45687 0
M  V30 2733 H 251.945 -0.482687 5.71264 0
M  V30 2734 H 250.342 0.256199 5.99553 0
M  V30 2735 H 251.412 0.938174 4.75738 0
M  V30 2736 N 252.755 -1.56801 0.158532 0
M  V30 2737 C 254.001 -1.96781 -0.490405 0
M  V30 2738 C 254.334 -1.04397 -1.63753 0
M  V30 2739 O 253.609 -0.0885805 -1.94298 0
M  V30 2740 C 253.892 -3.4635 -0.985594 0
M  V30 2741 C 253.745 -4.49512 0.160824 0
M  V30 2742 C 255.064 -3.98697 -1.86355 0
M  V30 2743 H 252.183 -0.715482 -0.176788 0
M  V30 2744 H 254.825 -1.88451 0.242088 0
M  V30 2745 H 252.975 -3.53579 -1.60978 0
M  V30 2746 H 254.647 -4.54353 0.797537 0
M  V30 2747 H 252.89 -4.26013 0.818256 0
M  V30 2748 H 253.561 -5.51531 -0.227569 0
M  V30 2749 H 256.037 -3.94019 -1.33746 0
M  V30 2750 H 254.913 -5.03792 -2.17909 0
M  V30 2751 H 255.174 -3.41744 -2.8047 0
M  V30 2752 N 254.233 0.115231 -1.57178 0
M  V30 2753 C 255.18 1.14115 -2.00615 0
M  V30 2754 C 256.15 1.40939 -0.878941 0
M  V30 2755 O 257.335 1.52741 -1.14345 0
M  V30 2756 C 254.475 2.46156 -2.4187 0
M  V30 2757 C 253.588 2.26236 -3.68024 0
M  V30 2758 C 252.723 3.51534 -3.98243 0
M  V30 2759 C 251.762 3.26787 -5.17568 0
M  V30 2760 N 250.899 4.44298 -5.43639 0
M  V30 2761 H 255.739 0.763743 -2.88047 0
M  V30 2762 H 253.276 0.365615 -1.42484 0
M  V30 2763 H 255.234 3.23189 -2.63827 0
M  V30 2764 H 253.864 2.81783 -1.57475 0
M  V30 2765 H 252.916 1.40102 -3.5366 0
M  V30 2766 H 254.228 2.03929 -4.55208 0
M  V30 2767 H 253.382 4.36984 -4.20868 0
M  V30 2768 H 252.121 3.76876 -3.09541 0
M  V30 2769 H 251.126 2.39729 -4.94783 0
M  V30 2770 H 252.351 3.02812 -6.0785 0
M  V30 2771 H 250.297 4.69754 -4.57895 0
M  V30 2772 H 250.214 4.25109 -6.25154 0
M  V30 2773 H 251.482 5.3087 -5.70786 0
M  V30 2774 N 255.711 1.52812 0.385517 0
M  V30 2775 C 256.988 1.5861 1.14465 0
M  V30 2776 C 257.368 0.381402 2.07626 0
M  V30 2777 O 256.716 -0.629999 2.19643 0
M  V30 2778 C 256.926 2.92664 1.90128 0
M  V30 2779 C 258.274 3.46526 2.45367 0
M  V30 2780 O 259.298 2.94562 2.0028 0
M  V30 2781 O 258.157 4.37323 3.27736 0
M  V30 2782 H 255.251 0.639855 0.523941 0
M  V30 2783 H 257.797 1.65149 0.390389 0
M  V30 2784 H 256.569 3.71788 1.22022 0
M  V30 2785 H 256.192 2.89527 2.72507 0
M  V30 2786 N 257.189 -0.644168 1.43834 0
M  V30 2787 C 258.466 -1.40188 1.36406 0
M  V30 2788 C 258.846 -2.11094 0.0163124 0
M  V30 2789 O 258.194 -2.05426 -1.00062 0
M  V30 2790 C 258.404 -2.3791 2.55343 0
M  V30 2791 C 259.752 -3.01637 2.98832 0
M  V30 2792 O 260.776 -2.48237 2.55455 0
M  V30 2793 O 259.635 -3.98477 3.74003 0
M  V30 2794 H 256.729 -0.626773 0.539523 0
M  V30 2795 H 259.275 -0.670317 1.559 0
M  V30 2796 H 258.047 -1.84525 3.4506 0
M  V30 2797 H 257.67 -3.18503 2.37995 0
M  V30 2798 N 258.668 -1.30515 -0.883378 0
M  V30 2799 C 259.578 -1.18959 -2.02203 0
M  V30 2800 C 260.594 -0.109172 -1.73657 0
M  V30 2801 O 261.77 -0.324413 -1.9877 0
M  V30 2802 C 258.835 -0.883871 -3.35244 0
M  V30 2803 C 257.896 -2.04982 -3.77201 0
M  V30 2804 C 257.129 -1.75859 -5.03894 0
M  V30 2805 O 257.352 -0.687276 -5.66244 0
M  V30 2806 O 256.286 -2.61146 -5.42297 0
M  V30 2807 H 260.112 -2.14616 -2.1488 0
M  V30 2808 H 257.697 -1.10124 -1.0096 0
M  V30 2809 H 259.579 -0.728644 -4.15053 0
M  V30 2810 H 258.254 0.0427798 -3.23672 0
M  V30 2811 H 257.161 -2.26038 -2.9809 0
M  V30 2812 H 258.494 -2.95825 -3.93381 0
M  V30 2813 N 260.146 1.09593 -1.13257 0
M  V30 2814 C 261.395 1.81105 -0.887917 0
M  V30 2815 C 261.708 1.86563 0.587672 0
M  V30 2816 O 262.914 2.54367 0.949204 0
M  V30 2817 C 261.37 3.25338 -1.53895 0
M  V30 2818 C 260.978 3.28151 -3.04994 0
M  V30 2819 C 262.722 4.01617 -1.37492 0
M  V30 2820 C 260.629 4.66897 -3.6299 0
M  V30 2821 H 259.559 0.678661 -0.328534 0
M  V30 2822 H 262.21 1.23183 -1.36008 0
M  V30 2823 H 260.592 3.8331 -0.994446 0
M  V30 2824 H 261.766 2.79953 -3.66009 0
M  V30 2825 H 260.081 2.65361 -3.20893 0
M  V30 2826 H 262.678 5.04119 -1.78235 0
M  V30 2827 H 263.021 4.15072 -0.31957 0
M  V30 2828 H 263.554 3.50082 -1.88912 0
M  V30 2829 H 260.293 4.58643 -4.68323 0
M  V30 2830 H 259.813 5.15426 -3.06752 0
M  V30 2831 H 261.492 5.3587 -3.62563 0
M  V30 2832 N 261.624 0.925811 1.2754 0
M  V30 2833 C 262.554 0.440748 2.29303 0
M  V30 2834 C 263.535 -0.497971 1.62648 0
M  V30 2835 O 264.72 -0.403126 1.8997 0
M  V30 2836 C 261.85 -0.309048 3.45922 0
M  V30 2837 C 260.804 0.54166 4.24559 0
M  V30 2838 C 260.13 -0.337191 5.33636 0
M  V30 2839 C 261.43 1.80516 4.90114 0
M  V30 2840 H 263.124 1.29121 2.70126 0
M  V30 2841 H 260.67 0.622323 1.29858 0
M  V30 2842 H 262.623 -0.659315 4.1621 0
M  V30 2843 H 261.347 -1.19352 3.04011 0
M  V30 2844 H 260.006 0.874609 3.56014 0
M  V30 2845 H 259.654 -1.22056 4.87966 0
M  V30 2846 H 259.354 0.228497 5.87156 0
M  V30 2847 H 260.878 -0.683072 6.06767 0
M  V30 2848 H 262.292 1.52307 5.52698 0
M  V30 2849 H 260.689 2.3142 5.53683 0
M  V30 2850 H 261.759 2.52581 4.13921 0
M  V30 2851 N 263.102 -1.41638 0.69111 0
M  V30 2852 C 264.349 -2.01299 0.220193 0
M  V30 2853 C 264.677 -1.54715 -1.17871 0
M  V30 2854 O 263.932 -0.747193 -1.80874 0
M  V30 2855 C 264.231 -3.56714 0.221277 0
M  V30 2856 C 263.897 -4.22792 1.56709 0
M  V30 2857 C 262.559 -4.40557 1.93554 0
M  V30 2858 C 264.911 -4.59883 2.45268 0
M  V30 2859 C 262.239 -4.92688 3.18552 0
M  V30 2860 C 264.591 -5.13403 3.69595 0
M  V30 2861 C 263.255 -5.29379 4.06589 0
M  V30 2862 H 262.525 -0.736606 0.0805743 0
M  V30 2863 H 265.172 -1.69598 0.889319 0
M  V30 2864 H 263.477 -3.8818 -0.531391 0
M  V30 2865 H 265.174 -4.00678 -0.160547 0
M  V30 2866 H 261.764 -4.09336 1.2705 0
M  V30 2867 H 265.948 -4.45817 2.18084 0
M  V30 2868 H 261.204 -5.03242 3.47214 0
M  V30 2869 H 265.378 -5.41084 4.38407 0
M  V30 2870 H 263.005 -5.69537 5.03519 0
M  V30 2871 N 264.58 -0.43555 -1.51462 0
M  V30 2872 C 265.857 0.191364 -1.94662 0
M  V30 2873 C 266.237 1.60254 -1.37411 0
M  V30 2874 O 265.585 2.2152 -0.560458 0
M  V30 2875 C 265.795 0.17091 -3.48581 0
M  V30 2876 C 267.143 0.377357 -4.2292 0
M  V30 2877 O 268.167 0.249104 -3.55328 0
M  V30 2878 O 267.026 0.63247 -5.42828 0
M  V30 2879 H 264.12 0.130932 -0.816569 0
M  V30 2880 H 266.666 -0.4934 -1.62369 0
M  V30 2881 H 265.438 -0.815738 -3.82703 0
M  V30 2882 H 265.061 0.898659 -3.87311 0
M  V30 2883 N 266.058 1.56714 -0.166846 0
M  V30 2884 C 267.283 2.01557 0.488833 0
M  V30 2885 C 267.708 1.0463 1.56314 0
M  V30 2886 O 267.066 0.0251304 1.81283 0
M  V30 2887 C 267.114 3.4503 1.04818 0
M  V30 2888 O 266.218 3.51163 2.16236 0
M  V30 2889 H 265.559 0.653516 0.117526 0
M  V30 2890 H 268.089 2.02818 -0.269421 0
M  V30 2891 H 268.099 3.84243 1.37191 0
M  V30 2892 H 266.774 4.15077 0.261572 0
M  V30 2893 H 265.351 3.23807 1.84942 0
M  V30 2894 N 267.536 -0.106894 1.57237 0
M  V30 2895 C 268.446 -1.14911 2.0453 0
M  V30 2896 C 269.462 -1.44592 0.96795 0
M  V30 2897 O 270.638 -1.55468 1.2803 0
M  V30 2898 C 267.703 -2.45272 2.45036 0
M  V30 2899 C 266.764 -2.22879 3.66911 0
M  V30 2900 C 265.997 -3.47024 4.05475 0
M  V30 2901 O 266.22 -4.54804 3.44252 0
M  V30 2902 O 265.154 -3.3731 4.98504 0
M  V30 2903 H 268.98 -0.777461 2.9358 0
M  V30 2904 H 266.565 -0.318563 1.45964 0
M  V30 2905 H 268.447 -3.22055 2.71769 0
M  V30 2906 H 267.122 -2.81886 1.59129 0
M  V30 2907 H 266.029 -1.43915 3.45311 0
M  V30 2908 H 267.362 -1.91163 4.53561 0
M  V30 2909 N 269.014 -1.53014 -0.377408 0
M  V30 2910 C 269.944 -1.81589 -1.46791 0
M  V30 2911 C 270.925 -0.668622 -1.56408 0
M  V30 2912 O 272.11 -0.917337 -1.71168 0
M  V30 2913 C 269.24 -1.99519 -2.8427 0
M  V30 2914 C 268.194 -3.15249 -2.89486 0
M  V30 2915 C 267.52 -3.18451 -4.29527 0
M  V30 2916 C 268.82 -4.54084 -2.58079 0
M  V30 2917 H 270.514 -2.7291 -1.23127 0
M  V30 2918 H 268.06 -1.31319 -0.590883 0
M  V30 2919 H 270.013 -2.18092 -3.60575 0
M  V30 2920 H 268.737 -1.04897 -3.09296 0
M  V30 2921 H 267.396 -2.96477 -2.15631 0
M  V30 2922 H 267.044 -2.2149 -4.5161 0
M  V30 2923 H 266.744 -3.962 -4.33934 0
M  V30 2924 H 268.268 -3.39193 -5.07721 0
M  V30 2925 H 269.682 -4.72899 -3.24098 0
M  V30 2926 H 268.079 -5.33987 -2.7382 0
M  V30 2927 H 269.149 -4.60006 -1.53372 0
M  V30 2928 N 270.492 0.636531 -1.44174 0
M  V30 2929 C 271.422 1.76003 -1.53444 0
M  V30 2930 C 272.403 1.65619 -0.387841 0
M  V30 2931 O 273.588 1.84461 -0.607257 0
M  V30 2932 C 270.718 3.14511 -1.4731 0
M  V30 2933 C 269.672 3.39677 -2.60391 0
M  V30 2934 C 268.998 4.78159 -2.39308 0
M  V30 2935 C 270.298 3.32772 -4.02567 0
M  V30 2936 H 271.992 1.68501 -2.47483 0
M  V30 2937 H 269.538 0.809237 -1.19111 0
M  V30 2938 H 271.491 3.92878 -1.52397 0
M  V30 2939 H 270.215 3.22783 -0.49785 0
M  V30 2940 H 268.874 2.63688 -2.54684 0
M  V30 2941 H 268.522 4.83128 -1.39988 0
M  V30 2942 H 268.222 4.95956 -3.15122 0
M  V30 2943 H 269.746 5.58762 -2.46205 0
M  V30 2944 H 271.16 4.01051 -4.09672 0
M  V30 2945 H 269.557 3.62104 -4.7854 0
M  V30 2946 H 270.627 2.30669 -4.2652 0
M  V30 2947 N 271.97 1.30982 0.876444 0
M  V30 2948 C 273.381 1.18277 1.44456 0
M  V30 2949 C 273.732 -0.213265 1.95037 0
M  V30 2950 O 272.857 -1.11057 1.85729 0
M  V30 2951 C 273.452 2.1411 2.62569 0
M  V30 2952 C 272.011 2.05358 3.15444 0
M  V30 2953 C 271.158 2.03706 1.88146 0
M  V30 2954 H 274.109 1.43127 0.685584 0
M  V30 2955 H 274.13 1.72692 3.39054 0
M  V30 2956 H 273.642 3.15706 2.25724 0
M  V30 2957 H 271.743 1.06934 3.56926 0
M  V30 2958 H 271.856 2.94156 3.78166 0
M  V30 2959 H 270.22 1.48629 2.06837 0
M  V30 2960 H 271.003 3.07047 1.53547 0
M  V30 2961 N 273.449 -1.08991 1.13837 0
M  V30 2962 C 274.696 -1.81258 0.902882 0
M  V30 2963 C 275.024 -1.85936 -0.570803 0
M  V30 2964 O 274.279 -1.3267 -1.43865 0
M  V30 2965 C 274.578 -3.27042 1.44147 0
M  V30 2966 C 274.244 -3.4249 2.93276 0
M  V30 2967 C 272.906 -3.46414 3.33992 0
M  V30 2968 C 275.258 -3.4666 3.892 0
M  V30 2969 C 272.586 -3.52091 4.69307 0
M  V30 2970 C 274.938 -3.53872 5.24364 0
M  V30 2971 C 273.602 -3.56066 5.646 0
M  V30 2972 H 272.872 -0.663268 0.330388 0
M  V30 2973 H 275.519 -1.28368 1.42105 0
M  V30 2974 H 273.824 -3.82599 0.844097 0
M  V30 2975 H 275.521 -3.81499 1.23528 0
M  V30 2976 H 272.111 -3.40124 2.60794 0
M  V30 2977 H 276.295 -3.42865 3.58828 0
M  V30 2978 H 271.551 -3.52079 4.9985 0
M  V30 2979 H 275.725 -3.56043 5.98503 0
M  V30 2980 H 273.352 -3.60218 6.69438 0
M  V30 2981 N 274.927 -0.932562 -1.27047 0
M  V30 2982 C 275.837 -0.441219 -2.30414 0
M  V30 2983 C 276.853 0.480525 -1.67233 0
M  V30 2984 O 278.029 0.362151 -1.98117 0
M  V30 2985 C 275.094 0.293651 -3.45454 0
M  V30 2986 C 274.155 -0.663601 -4.2414 0
M  V30 2987 C 273.388 0.0362932 -5.33688 0
M  V30 2988 O 273.611 1.2548 -5.56427 0
M  V30 2989 O 272.545 -0.638015 -5.98509 0
M  V30 2990 H 276.371 -1.29962 -2.74488 0
M  V30 2991 H 273.956 -0.6981 -1.32087 0
M  V30 2992 H 275.838 0.707951 -4.15411 0
M  V30 2993 H 274.513 1.12758 -3.03426 0
M  V30 2994 H 273.42 -1.12768 -3.56699 0
M  V30 2995 H 274.753 -1.46489 -4.69896 0
M  V30 2996 N 276.405 1.4127 -0.698611 0
M  V30 2997 C 277.352 2.30773 -0.0352094 0
M  V30 2998 C 278.322 1.47273 0.768111 0
M  V30 2999 O 279.507 1.76053 0.735524 0
M  V30 3000 C 276.647 3.33346 0.893 0
M  V30 3001 C 275.76 4.31924 0.0809695 0
M  V30 3002 C 274.895 5.21566 1.0071 0
M  V30 3003 C 273.934 6.11811 0.188155 0
M  V30 3004 N 273.071 6.93926 1.06825 0
M  V30 3005 H 277.911 2.86943 -0.804207 0
M  V30 3006 H 275.448 1.4132 -0.408294 0
M  V30 3007 H 277.406 3.91368 1.44523 0
M  V30 3008 H 276.036 2.78719 1.62836 0
M  V30 3009 H 275.088 3.75825 -0.588224 0
M  V30 3010 H 276.4 4.95716 -0.553801 0
M  V30 3011 H 275.554 5.84437 1.62845 0
M  V30 3012 H 274.293 4.58008 1.67572 0
M  V30 3013 H 273.298 5.47986 -0.446254 0
M  V30 3014 H 274.523 6.77425 -0.476716 0
M  V30 3015 H 272.469 6.32973 1.72283 0
M  V30 3016 H 272.386 7.54416 0.489123 0
M  V30 3017 H 273.654 7.61262 1.67632 0
M  V30 3018 N 277.883 0.443576 1.51229 0
M  V30 3019 C 279.299 0.0962001 1.5931 0
M  V30 3020 C 279.499 -1.39501 1.45402 0
M  V30 3021 O 278.555 -2.16557 1.29843 0
M  V30 3022 C 279.868 0.621875 2.94199 0
M  V30 3023 C 281.416 0.582865 3.07525 0
M  V30 3024 C 281.891 1.08562 4.44948 0
M  V30 3025 N 283.382 1.04387 4.51284 0
M  V30 3026 C 284.117 1.40368 5.55954 0
M  V30 3027 N 283.613 1.83664 6.68011 0
M  V30 3028 N 285.406 1.32145 5.46346 0
M  V30 3029 H 277.557 1.41376 1.58514 0
M  V30 3030 H 279.82 0.582965 0.747567 0
M  V30 3031 H 279.526 1.66546 3.09767 0
M  V30 3032 H 279.4 0.0502125 3.77167 0
M  V30 3033 H 281.787 -0.451749 2.91622 0
M  V30 3034 H 281.868 1.191 2.26382 0
M  V30 3035 H 281.512 2.11873 4.61598 0
M  V30 3036 H 281.442 0.453956 5.2464 0
M  V30 3037 H 283.933 0.725986 3.70861 0
M  V30 3038 H 284.246 2.0934 7.43906 0
M  V30 3039 H 282.591 1.87596 6.69203 0
M  V30 3040 H 285.782 0.981808 4.57688 0
M  V30 3041 H 285.955 1.60514 6.27805 0
M  V30 3042 N 279.361 -1.56624 0.175154 0
M  V30 3043 C 280.61 -1.96173 -0.468921 0
M  V30 3044 C 280.923 -1.06401 -1.64128 0
M  V30 3045 O 282.129 -1.35648 -2.35185 0
M  V30 3046 C 280.585 -3.48833 -0.885633 0
M  V30 3047 C 280.193 -4.47237 0.261343 0
M  V30 3048 C 281.937 -3.97194 -1.49791 0
M  V30 3049 C 279.844 -5.9114 -0.175214 0
M  V30 3050 H 278.774 -0.732455 -0.178958 0
M  V30 3051 H 281.425 -1.81591 0.263997 0
M  V30 3052 H 279.807 -3.58848 -1.67464 0
M  V30 3053 H 280.981 -4.4894 1.03871 0
M  V30 3054 H 279.296 -4.08956 0.783827 0
M  V30 3055 H 281.893 -5.02167 -1.83665 0
M  V30 3056 H 282.236 -3.40351 -2.39722 0
M  V30 3057 H 282.769 -3.90212 -0.773267 0
M  V30 3058 H 279.508 -6.51865 0.689414 0
M  V30 3059 H 279.028 -5.92735 -0.91786 0
M  V30 3060 H 280.707 -6.44044 -0.617792 0
M  V30 3061 N 280.839 0.0985539 -1.57292 0
M  V30 3062 C 282.067 0.816318 -1.90115 0
M  V30 3063 C 282.482 1.72451 -0.768509 0
M  V30 3064 O 281.839 1.80643 0.259687 0
M  V30 3065 C 281.89 1.63259 -3.22535 0
M  V30 3066 O 281.611 0.760934 -4.31441 0
M  V30 3067 C 283.112 2.45372 -3.69199 0
M  V30 3068 H 280.332 0.233595 -0.629027 0
M  V30 3069 H 282.876 0.0768229 -2.04356 0
M  V30 3070 H 281.031 2.32463 -3.09903 0
M  V30 3071 H 281.445 1.32595 -5.07463 0
M  V30 3072 H 282.919 2.98144 -4.64558 0
M  V30 3073 H 283.396 3.23677 -2.96867 0
M  V30 3074 H 284.002 1.81373 -3.84687 0
M  V30 3075 N 282.317 1.53212 0.369288 0
M  V30 3076 C 283.227 1.82342 1.47609 0
M  V30 3077 C 284.243 0.711532 1.58787 0
M  V30 3078 O 285.419 1.0012 1.74751 0
M  V30 3079 C 282.484 2.00393 2.8292 0
M  V30 3080 C 281.545 3.24297 2.81301 0
M  V30 3081 C 280.778 3.41478 4.10157 0
M  V30 3082 O 281.001 2.63033 5.06132 0
M  V30 3083 O 279.935 4.34817 4.16194 0
M  V30 3084 H 283.761 2.76366 1.25918 0
M  V30 3085 H 281.346 1.38547 0.559034 0
M  V30 3086 H 283.228 2.13859 3.63101 0
M  V30 3087 H 281.903 1.09559 3.04596 0
M  V30 3088 H 280.81 3.16257 1.99831 0
M  V30 3089 H 282.143 4.15041 2.64578 0
M  V30 3090 N 283.795 -0.628877 1.44509 0
M  V30 3091 C 285.043 -1.38565 1.4712 0
M  V30 3092 C 285.364 -1.94712 0.105899 0
M  V30 3093 O 284.634 -1.75912 -0.862079 0
M  V30 3094 H 283.214 -0.514333 0.541729 0
M  V30 3095 H 285.876 -0.740018 1.80305 0
M  V30 3096 H 284.972 -2.21583 2.19789 0
M  V30 3097 N 285.273 -1.31445 -0.869486 0
M  V30 3098 C 286.22 -1.19135 -1.97675 0
M  V30 3099 C 287.19 -0.0770266 -1.65921 0
M  V30 3100 O 288.375 -0.249972 -1.89155 0
M  V30 3101 C 285.515 -0.905149 -3.33018 0
M  V30 3102 C 284.628 -2.10285 -3.77365 0
M  V30 3103 C 283.763 -1.75339 -5.01427 0
M  V30 3104 C 282.802 -2.91515 -5.38224 0
M  V30 3105 N 281.939 -2.56762 -6.53466 0
M  V30 3106 H 286.779 -2.13853 -2.07535 0
M  V30 3107 H 284.316 -1.06379 -1.01597 0
M  V30 3108 H 286.274 -0.719765 -4.10944 0
M  V30 3109 H 284.904 0.00519624 -3.228 0
M  V30 3110 H 283.956 -2.39899 -2.95216 0
M  V30 3111 H 285.268 -2.97237 -4.00564 0
M  V30 3112 H 284.422 -1.53266 -5.87022 0
M  V30 3113 H 283.161 -0.855801 -4.80133 0
M  V30 3114 H 282.166 -3.14237 -4.51149 0
M  V30 3115 H 283.391 -3.81985 -5.61484 0
M  V30 3116 H 281.337 -1.69526 -6.33717 0
M  V30 3117 H 281.254 -3.37243 -6.76612 0
M  V30 3118 H 282.522 -2.38083 -7.42251 0
M  V30 3119 N 286.751 1.08385 -1.14413 0
M  V30 3120 C 287.714 2.13486 -0.834048 0
M  V30 3121 C 288.714 1.59988 0.161418 0
M  V30 3122 O 289.904 1.74071 -0.0669575 0
M  V30 3123 C 287.036 3.4003 -0.243354 0
M  V30 3124 H 288.229 2.42425 -1.7655 0
M  V30 3125 H 285.782 1.24101 -0.950189 0
M  V30 3126 H 286.517 3.16726 0.696807 0
M  V30 3127 H 286.302 3.80157 -0.960367 0
M  V30 3128 H 287.792 4.17577 -0.0436242 0
M  V30 3129 N 288.23 0.939286 1.26551 0
M  V30 3130 C 289.193 0.451987 2.24699 0
M  V30 3131 C 290.193 -0.435869 1.5478 0
M  V30 3132 O 291.383 -0.235314 1.72603 0
M  V30 3133 C 288.515 -0.348801 3.39111 0
M  V30 3134 H 289.708 1.3193 2.69322 0
M  V30 3135 H 287.261 0.721072 1.38673 0
M  V30 3136 H 287.996 -1.23444 2.99887 0
M  V30 3137 H 287.781 0.287945 3.91041 0
M  V30 3138 H 289.271 -0.679726 4.12031 0
M  V30 3139 N 289.708 -1.40897 0.706093 0
M  V30 3140 C 290.638 -2.33418 0.0620085 0
M  V30 3141 C 291.619 -1.52385 -0.755827 0
M  V30 3142 O 292.804 -1.80886 -0.706674 0
M  V30 3143 C 289.934 -3.36293 -0.867445 0
M  V30 3144 C 288.888 -4.27716 -0.155932 0
M  V30 3145 C 288.214 -5.2105 -1.20046 0
M  V30 3146 C 289.514 -5.12944 0.984149 0
M  V30 3147 H 291.208 -2.87527 0.83477 0
M  V30 3148 H 288.754 -1.38249 0.402875 0
M  V30 3149 H 290.707 -3.99949 -1.32735 0
M  V30 3150 H 289.431 -2.80556 -1.67199 0
M  V30 3151 H 288.09 -3.65498 0.284047 0
M  V30 3152 H 287.738 -4.61624 -1.99781 0
M  V30 3153 H 287.438 -5.83056 -0.729328 0
M  V30 3154 H 288.962 -5.87584 -1.66066 0
M  V30 3155 H 290.376 -5.70109 0.604048 0
M  V30 3156 H 288.773 -5.83945 1.38304 0
M  V30 3157 H 289.843 -4.49485 1.81911 0
M  V30 3158 N 291.186 -0.45159 -1.50991 0
M  V30 3159 C 292.118 0.388634 -2.25881 0
M  V30 3160 C 293.131 0.974041 -1.30446 0
M  V30 3161 O 294.32 0.865758 -1.56099 0
M  V30 3162 C 291.42 1.5571 -3.01011 0
M  V30 3163 C 290.593 1.08801 -4.23652 0
M  V30 3164 C 289.652 2.12825 -4.8124 0
M  V30 3165 O 288.678 1.71678 -5.42693 0
M  V30 3166 N 289.88 3.45453 -4.66522 0
M  V30 3167 H 292.645 -0.25329 -2.98628 0
M  V30 3168 H 290.206 -0.281268 -1.59438 0
M  V30 3169 H 292.198 2.24952 -3.3642 0
M  V30 3170 H 290.768 2.10409 -2.31186 0
M  V30 3171 H 289.988 0.22215 -3.93574 0
M  V30 3172 H 291.276 0.752213 -5.03209 0
M  V30 3173 H 290.674 3.81605 -4.17605 0
M  V30 3174 H 289.231 4.10549 -5.06254 0
M  V30 3175 N 292.664 1.56529 -0.183458 0
M  V30 3176 C 293.574 2.22144 0.754272 0
M  V30 3177 C 294.59 1.21684 1.24374 0
M  V30 3178 O 295.766 1.54385 1.29333 0
M  V30 3179 C 292.831 2.85884 1.96141 0
M  V30 3180 C 291.892 4.01579 1.51765 0
M  V30 3181 C 291.125 4.6227 2.66725 0
M  V30 3182 O 291.348 4.21865 3.83909 0
M  V30 3183 O 290.282 5.51936 2.40104 0
M  V30 3184 H 294.108 3.02861 0.225527 0
M  V30 3185 H 291.693 1.49331 0.0453032 0
M  V30 3186 H 293.575 3.26253 2.66715 0
M  V30 3187 H 292.25 2.08154 2.47899 0
M  V30 3188 H 291.157 3.65856 0.781049 0
M  V30 3189 H 292.49 4.80938 1.04686 0
M  V30 3190 N 294.142 -0.090211 1.57342 0
M  V30 3191 C 295.388 -0.793982 1.86611 0
M  V30 3192 C 295.721 -1.78142 0.773252 0
M  V30 3193 O 294.996 -1.93271 -0.218304 0
M  V30 3194 C 295.279 -1.51839 3.26523 0
M  V30 3195 C 295.132 -0.548609 4.46442 0
M  V30 3196 C 296.451 -2.46779 3.64401 0
M  V30 3197 H 293.57 -0.287186 0.678744 0
M  V30 3198 H 296.212 -0.0575076 1.89913 0
M  V30 3199 H 294.362 -2.14617 3.23839 0
M  V30 3200 H 296.034 0.0725513 4.61243 0
M  V30 3201 H 294.277 0.137614 4.33582 0
M  V30 3202 H 294.948 -1.09271 5.41076 0
M  V30 3203 H 297.424 -1.94089 3.68061 0
M  V30 3204 H 296.3 -2.94479 4.63221 0
M  V30 3205 H 296.561 -3.30758 2.93346 0
M  V30 3206 N 295.62 -1.53406 -0.361157 0
M  V30 3207 C 296.85 -1.73465 -1.1222 0
M  V30 3208 C 297.258 -0.465486 -1.83384 0
M  V30 3209 O 296.601 0.571611 -1.7458 0
M  V30 3210 C 296.663 -2.84834 -2.19339 0
M  V30 3211 C 296.327 -4.25038 -1.67903 0
M  V30 3212 C 297.324 -5.07231 -1.14074 0
M  V30 3213 C 295.009 -4.71464 -1.73282 0
M  V30 3214 C 297.003 -6.33942 -0.663068 0
M  V30 3215 C 294.69 -5.98153 -1.25127 0
M  V30 3216 C 295.688 -6.79223 -0.717296 0
M  V30 3217 O 295.376 -8.03533 -0.242865 0
M  V30 3218 H 295.108 -0.583526 -0.341283 0
M  V30 3219 H 297.662 -2.00964 -0.424591 0
M  V30 3220 H 295.892 -2.5282 -2.92607 0
M  V30 3221 H 297.581 -2.9303 -2.80871 0
M  V30 3222 H 298.347 -4.72534 -1.09254 0
M  V30 3223 H 294.226 -4.08432 -2.13786 0
M  V30 3224 H 297.77 -6.97167 -0.245612 0
M  V30 3225 H 293.667 -6.32347 -1.29642 0
M  V30 3226 H 294.435 -8.177 -0.361786 0
M  V30 3227 N 297.098 0.621204 -1.44841 0
M  V30 3228 C 298.008 1.7612 -1.5498 0
M  V30 3229 C 299.024 1.68477 -0.434927 0
M  V30 3230 O 300.2 1.89076 -0.693693 0
M  V30 3231 C 297.265 3.1254 -1.50065 0
M  V30 3232 C 296.326 3.31741 -2.72482 0
M  V30 3233 C 295.559 4.61653 -2.67792 0
M  V30 3234 O 295.782 5.431 -1.74352 0
M  V30 3235 O 294.716 4.83271 -3.58794 0
M  V30 3236 H 298.542 1.70518 -2.51311 0
M  V30 3237 H 296.127 0.783643 -1.27198 0
M  V30 3238 H 298.009 3.93844 -1.49882 0
M  V30 3239 H 296.684 3.18663 -0.568806 0
M  V30 3240 H 295.591 2.50077 -2.7823 0
M  V30 3241 H 296.924 3.30486 -3.64746 0
M  V30 3242 N 298.576 1.31904 0.862503 0
M  V30 3243 C 299.508 1.16005 1.97675 0
M  V30 3244 C 300.521 0.0971234 1.6251 0
M  V30 3245 O 301.71 0.345337 1.75128 0
M  V30 3246 C 298.81 0.751791 3.30456 0
M  V30 3247 C 297.983 1.90133 3.93914 0
M  V30 3248 C 297.042 1.4779 5.05019 0
M  V30 3249 O 296.068 2.18872 5.25437 0
M  V30 3250 N 297.27 0.369491 5.79323 0
M  V30 3251 H 300.035 2.11982 2.11857 0
M  V30 3252 H 297.596 1.24337 1.03691 0
M  V30 3253 H 299.588 0.451084 4.02178 0
M  V30 3254 H 298.158 -0.116593 3.12382 0
M  V30 3255 H 297.378 2.36896 3.15078 0
M  V30 3256 H 298.666 2.67111 4.33047 0
M  V30 3257 H 298.064 -0.222299 5.65263 0
M  V30 3258 H 296.621 0.128354 6.51674 0
M  V30 3259 N 300.054 -1.07777 1.14986 0
M  V30 3260 C 301.282 -1.84018 0.945773 0
M  V30 3261 C 301.697 -1.81897 -0.505863 0
M  V30 3262 O 301.054 -1.22726 -1.35072 0
M  V30 3263 C 301.105 -3.31287 1.44677 0
M  V30 3264 O 300.826 -3.33449 2.84154 0
M  V30 3265 C 302.327 -4.24311 1.28355 0
M  V30 3266 H 299.547 -0.580716 0.336169 0
M  V30 3267 H 302.091 -1.36077 1.52654 0
M  V30 3268 H 300.246 -3.76594 0.908625 0
M  V30 3269 H 300.66 -4.25427 3.06777 0
M  V30 3270 H 302.134 -5.2573 1.68261 0
M  V30 3271 H 302.611 -4.38612 0.227184 0
M  V30 3272 H 303.217 -3.84836 1.81056 0
M  V30 3273 N 301.532 -0.945985 -1.26051 0
M  V30 3274 C 302.78 -0.594941 -1.93145 0
M  V30 3275 C 303.101 0.86953 -1.7454 0
M  V30 3276 O 302.371 1.61838 -1.10387 0
M  V30 3277 H 300.951 -0.217044 -0.714773 0
M  V30 3278 H 303.613 -1.20235 -1.53393 0
M  V30 3279 H 302.709 -0.816835 -3.01221 0
M  V30 3280 N 303.011 1.40521 -0.713556 0
M  V30 3281 C 303.958 2.30723 -0.059684 0
M  V30 3282 C 304.928 1.48079 0.752448 0
M  V30 3283 O 306.113 1.76823 0.71681 0
M  V30 3284 C 303.253 3.34274 0.857594 0
M  V30 3285 C 302.366 4.31986 0.0351536 0
M  V30 3286 C 301.501 5.22605 0.951724 0
M  V30 3287 C 300.54 6.11976 0.123253 0
M  V30 3288 N 299.677 6.9502 0.99459 0
M  V30 3289 H 304.517 2.86074 -0.834596 0
M  V30 3290 H 302.054 1.40879 -0.42326 0
M  V30 3291 H 304.012 3.92879 1.40364 0
M  V30 3292 H 302.642 2.8043 1.59871 0
M  V30 3293 H 301.694 3.7518 -0.628052 0
M  V30 3294 H 303.006 4.95101 -0.606347 0
M  V30 3295 H 302.16 5.86131 1.56638 0
M  V30 3296 H 300.899 4.59759 1.62705 0
M  V30 3297 H 299.904 5.47482 -0.50435 0
M  V30 3298 H 301.129 6.76881 -0.548539 0
M  V30 3299 H 299.075 6.34764 1.6556 0
M  V30 3300 H 298.992 7.54892 0.40908 0
M  V30 3301 H 300.26 7.62997 1.59549 0
M  V30 3302 N 304.489 0.459591 1.5075 0
M  V30 3303 C 305.905 0.113092 1.59199 0
M  V30 3304 C 306.105 -1.37951 1.46874 0
M  V30 3305 O 305.161 -2.15168 1.32132 0
M  V30 3306 C 306.474 0.653043 2.93523 0
M  V30 3307 C 308.022 0.615449 3.0689 0
M  V30 3308 C 308.497 1.13275 4.43771 0
M  V30 3309 N 309.988 1.09167 4.50152 0
M  V30 3310 C 310.723 1.46256 5.54434 0
M  V30 3311 N 310.219 1.90739 6.66026 0
M  V30 3312 N 312.012 1.37932 5.44914 0
M  V30 3313 H 304.163 1.43049 1.57005 0
M  V30 3314 H 306.426 0.590861 0.741341 0
M  V30 3315 H 306.132 1.69822 3.07983 0
M  V30 3316 H 306.006 0.0902132 3.77092 0
M  V30 3317 H 308.393 -0.420793 2.92084 0
M  V30 3318 H 308.474 1.21495 2.25106 0
M  V30 3319 H 308.118 2.16757 4.59324 0
M  V30 3320 H 308.048 0.509576 5.24129 0
M  V30 3321 H 310.539 0.76528 3.7007 0
M  V30 3322 H 310.852 2.17218 7.41644 0
M  V30 3323 H 309.197 1.94683 6.67176 0
M  V30 3324 H 312.388 1.0303 4.56621 0
M  V30 3325 H 312.561 1.67164 6.26067 0
M  V30 3326 N 305.967 -1.56429 0.191757 0
M  V30 3327 C 307.195 -2.01867 -0.453586 0
M  V30 3328 C 307.61 -1.07191 -1.5542 0
M  V30 3329 O 306.967 -0.0762108 -1.82341 0
M  V30 3330 C 307.018 -3.47017 -1.013 0
M  V30 3331 O 306.739 -4.38078 0.0437005 0
M  V30 3332 C 308.24 -4.07956 -1.73456 0
M  V30 3333 H 305.46 -0.661211 -0.114199 0
M  V30 3334 H 308.004 -2.02295 0.299483 0
M  V30 3335 H 306.159 -3.47298 -1.71647 0
M  V30 3336 H 306.573 -5.23178 -0.372212 0
M  V30 3337 H 308.047 -5.1138 -2.07833 0
M  V30 3338 H 308.524 -3.51222 -2.63704 0
M  V30 3339 H 309.13 -4.11437 -1.07702 0
M  V30 3340 N 307.445 0.0818655 -1.57387 0
M  V30 3341 C 308.375 1.09885 -2.06028 0
M  V30 3342 C 309.356 1.4098 -0.951774 0
M  V30 3343 O 310.541 1.50781 -1.22387 0
M  V30 3344 C 307.671 2.4151 -2.4958 0
M  V30 3345 C 306.625 2.24792 -3.64215 0
M  V30 3346 C 305.951 3.61712 -3.93787 0
M  V30 3347 C 307.251 1.67749 -4.94629 0
M  V30 3348 H 308.945 0.694128 -2.91243 0
M  V30 3349 H 306.491 0.332448 -1.4011 0
M  V30 3350 H 308.444 3.12939 -2.82219 0
M  V30 3351 H 307.168 2.83943 -1.61381 0
M  V30 3352 H 305.827 1.55807 -3.31843 0
M  V30 3353 H 305.475 4.01697 -3.02735 0
M  V30 3354 H 305.175 3.51368 -4.70971 0
M  V30 3355 H 306.699 4.34587 -4.28913 0
M  V30 3356 H 308.113 2.29032 -5.25564 0
M  V30 3357 H 306.51 1.68128 -5.76067 0
M  V30 3358 H 307.58 0.638059 -4.80684 0
M  V30 3359 N 308.923 1.53595 0.353017 0
M  V30 3360 C 310.153 1.74058 1.11299 0
M  V30 3361 C 310.561 0.475205 1.83135 0
M  V30 3362 O 309.904 -0.562344 1.74881 0
M  V30 3363 C 309.966 2.85994 2.17825 0
M  V30 3364 C 309.63 4.25923 1.65647 0
M  V30 3365 C 310.627 5.07829 1.11383 0
M  V30 3366 C 308.312 4.72377 1.7078 0
M  V30 3367 C 310.306 6.34285 0.629439 0
M  V30 3368 C 307.993 5.98808 1.21953 0
M  V30 3369 C 308.991 6.79594 0.681265 0
M  V30 3370 O 308.679 8.03651 0.200248 0
M  V30 3371 H 308.411 0.585327 0.338183 0
M  V30 3372 H 310.965 2.01186 0.413927 0
M  V30 3373 H 309.195 2.54368 2.91262 0
M  V30 3374 H 310.884 2.94515 2.79313 0
M  V30 3375 H 311.65 4.73107 1.06746 0
M  V30 3376 H 307.529 4.0956 2.11617 0
M  V30 3377 H 311.073 6.97288 0.208636 0
M  V30 3378 H 306.97 6.33026 1.26287 0
M  V30 3379 H 307.738 8.1788 0.318416 0
M  V30 3380 N 310.401 -0.613514 1.45168 0
M  V30 3381 C 311.364 -1.7065 1.53007 0
M  V30 3382 C 312.364 -1.5548 0.410184 0
M  V30 3383 O 313.554 -1.60656 0.673455 0
M  V30 3384 C 310.686 -3.09875 1.42093 0
M  V30 3385 H 311.879 -1.65068 2.50385 0
M  V30 3386 H 309.432 -0.828728 1.32521 0
M  V30 3387 H 310.167 -3.21039 0.458769 0
M  V30 3388 H 309.952 -3.22293 2.23315 0
M  V30 3389 H 311.442 -3.895 1.50598 0
M  V30 3390 N 311.879 -1.3236 -0.855495 0
M  V30 3391 C 313.125 -1.23054 -1.612 0
M  V30 3392 C 313.458 0.207404 -1.93089 0
M  V30 3393 O 312.733 1.14432 -1.57275 0
M  V30 3394 C 313.016 -2.08937 -2.93287 0
M  V30 3395 C 312.869 -3.61105 -2.68185 0
M  V30 3396 C 314.188 -1.94986 -3.94549 0
M  V30 3397 H 311.307 -0.448364 -0.584926 0
M  V30 3398 H 313.949 -1.62297 -0.987917 0
M  V30 3399 H 312.099 -1.75599 -3.46551 0
M  V30 3400 H 313.771 -4.04652 -2.21483 0
M  V30 3401 H 312.014 -3.83813 -2.02164 0
M  V30 3402 H 312.685 -4.16522 -3.62234 0
M  V30 3403 H 315.161 -2.24189 -3.5054 0
M  V30 3404 H 314.037 -2.57356 -4.84829 0
M  V30 3405 H 314.298 -0.917263 -4.3248 0
M  V30 3406 N 313.357 1.07166 -1.15556 0
M  V30 3407 C 314.305 2.16517 -0.8499 0
M  V30 3408 C 315.299 1.68468 0.177454 0
M  V30 3409 O 316.505 1.79971 0.0323026 0
M  V30 3410 H 312.88 0.706652 -0.25719 0
M  V30 3411 H 314.851 2.39514 -1.77976 0
M  V30 3412 C 313.6 3.45855 -0.357682 0
M  V30 3413 H 312.923 3.83214 -1.13961 0
M  V30 3414 H 314.363 4.23607 -0.182489 0
M  V30 3415 C 312.822 3.24062 0.921152 0
M  V30 3416 O 313.352 3.48813 1.9923 0
M  V30 3417 N 311.558 2.77539 0.86141 0
M  V30 3418 H 311.105 2.57598 -0.0104408 0
M  V30 3419 H 311.063 2.63337 1.71758 0
M  V30 3420 N 314.835 0.952656 1.25548 0
M  V30 3421 C 315.765 0.489287 2.28316 0
M  V30 3422 C 316.746 -0.463359 1.63667 0
M  V30 3423 O 317.931 -0.36274 1.90782 0
M  V30 3424 C 315.061 -0.235603 3.465 0
M  V30 3425 C 314.015 0.631593 4.23314 0
M  V30 3426 C 313.341 -0.223923 5.34231 0
M  V30 3427 C 314.641 1.90871 4.86174 0
M  V30 3428 H 316.335 1.34822 2.67326 0
M  V30 3429 H 313.881 0.649728 1.28509 0
M  V30 3430 H 315.834 -0.570882 4.17515 0
M  V30 3431 H 314.558 -1.12877 3.06474 0
M  V30 3432 H 313.217 0.949929 3.54079 0
M  V30 3433 H 312.865 -1.11678 4.90446 0
M  V30 3434 H 312.565 0.35299 5.86539 0
M  V30 3435 H 314.089 -0.554214 6.0808 0
M  V30 3436 H 315.503 1.63997 5.49343 0
M  V30 3437 H 313.9 2.43112 5.4865 0
M  V30 3438 H 314.97 2.61304 4.08471 0
M  V30 3439 N 316.313 -1.40141 0.720998 0
M  V30 3440 C 317.541 -2.05096 0.272656 0
M  V30 3441 C 317.956 -1.54334 -1.0875 0
M  V30 3442 O 317.313 -0.702211 -1.6845 0
M  V30 3443 C 317.364 -3.60636 0.249835 0
M  V30 3444 O 317.085 -4.09526 1.55629 0
M  V30 3445 C 318.586 -4.42772 -0.216396 0
M  V30 3446 H 315.806 -0.659897 0.121558 0
M  V30 3447 H 318.35 -1.79449 0.980723 0
M  V30 3448 H 316.505 -3.85232 -0.409237 0
M  V30 3449 H 316.919 -5.03758 1.4604 0
M  V30 3450 H 318.393 -5.51702 -0.181212 0
M  V30 3451 H 318.87 -4.20756 -1.25941 0
M  V30 3452 H 319.476 -4.23294 0.412596 0
M  V30 3453 N 317.792 -0.46758 -1.50504 0
M  V30 3454 C 319.04 0.0884469 -2.01906 0
M  V30 3455 C 319.361 1.40532 -1.35188 0
M  V30 3456 O 318.631 1.89515 -0.496079 0
M  V30 3457 H 317.211 0.0356765 -0.746148 0
M  V30 3458 H 319.873 -0.6172 -1.84869 0
M  V30 3459 H 318.969 0.2425 -3.11156 0
M  V30 3460 N 319.27 1.56325 -0.20005 0
M  V30 3461 C 320.217 2.1932 0.718833 0
M  V30 3462 C 321.187 1.14198 1.20615 0
M  V30 3463 O 322.372 1.42469 1.26914 0
M  V30 3464 C 319.512 2.86041 1.93066 0
M  V30 3465 C 318.625 4.05702 1.48425 0
M  V30 3466 C 317.76 4.60266 2.65196 0
M  V30 3467 C 316.799 5.72273 2.17185 0
M  V30 3468 N 315.936 6.21221 3.27152 0
M  V30 3469 H 320.776 2.97486 0.17489 0
M  V30 3470 H 318.313 1.46911 0.0745794 0
M  V30 3471 H 320.271 3.22897 2.64184 0
M  V30 3472 H 318.901 2.1043 2.44783 0
M  V30 3473 H 317.953 3.74475 0.668755 0
M  V30 3474 H 319.265 4.86699 1.09204 0
M  V30 3475 H 318.419 4.99453 3.4443 0
M  V30 3476 H 317.158 3.78386 3.07693 0
M  V30 3477 H 316.163 5.3261 1.36407 0
M  V30 3478 H 317.388 6.55974 1.75713 0
M  V30 3479 H 315.334 5.42263 3.69171 0
M  V30 3480 H 315.251 6.97284 2.92116 0
M  V30 3481 H 316.519 6.65063 4.06585 0
M  V30 3482 N 320.748 -0.0735177 1.57428 0
M  V30 3483 C 321.976 -0.785969 1.9139 0
M  V30 3484 C 322.391 -1.71207 0.795847 0
M  V30 3485 O 321.748 -1.81033 -0.230915 0
M  V30 3486 C 321.799 -1.58107 3.25091 0
M  V30 3487 O 321.52 -0.6922 4.32597 0
M  V30 3488 C 323.021 -2.39467 3.73055 0
M  V30 3489 H 320.241 -0.223558 0.632663 0
M  V30 3490 H 322.785 -0.044302 2.04452 0
M  V30 3491 H 320.94 -2.27503 3.13562 0
M  V30 3492 H 321.354 -1.24504 5.09508 0
M  V30 3493 H 322.828 -2.90716 4.69242 0
M  V30 3494 H 323.305 -3.18913 3.01979 0
M  V30 3495 H 323.911 -1.7523 3.87523 0
M  V30 3496 N 322.226 -1.5378 -0.344866 0
M  V30 3497 C 323.473 -1.70963 -1.08526 0
M  V30 3498 C 323.801 -0.472126 -1.88683 0
M  V30 3499 O 323.056 0.546116 -1.87926 0
M  V30 3500 C 323.355 -2.92407 -2.05506 0
M  V30 3501 C 323.021 -4.28066 -1.41671 0
M  V30 3502 C 321.683 -4.64951 -1.2399 0
M  V30 3503 C 324.035 -5.12344 -0.956726 0
M  V30 3504 C 321.363 -5.83733 -0.589277 0
M  V30 3505 C 323.715 -6.3179 -0.320015 0
M  V30 3506 C 322.379 -6.67372 -0.130881 0
M  V30 3507 H 321.649 -0.625598 -0.397124 0
M  V30 3508 H 324.296 -1.87995 -0.36469 0
M  V30 3509 H 322.601 -2.69973 -2.8394 0
M  V30 3510 H 324.298 -3.02895 -2.62784 0
M  V30 3511 H 320.888 -3.99034 -1.56429 0
M  V30 3512 H 325.072 -4.8438 -1.08118 0
M  V30 3513 H 320.328 -6.09877 -0.431344 0
M  V30 3514 H 324.502 -6.96386 0.0445072 0
M  V30 3515 H 322.129 -7.59273 0.375318 0
M  V30 3516 N 323.704 0.605807 -1.45491 0
M  V30 3517 C 324.667 1.69836 -1.5391 0
M  V30 3518 C 325.667 1.55261 -0.418424 0
M  V30 3519 O 326.857 1.60296 -0.681965 0
M  V30 3520 C 323.989 3.09117 -1.43734 0
M  V30 3521 H 325.182 1.63738 -2.51257 0
M  V30 3522 H 322.735 0.821689 -1.32959 0
M  V30 3523 H 323.47 3.20791 -0.475788 0
M  V30 3524 H 323.255 3.21104 -2.25021 0
M  V30 3525 H 324.745 3.88696 -1.52661 0
M  V30 3526 N 325.182 1.32811 0.848464 0
M  V30 3527 C 326.112 1.24882 1.97299 0
M  V30 3528 C 327.093 0.131357 1.69592 0
M  V30 3529 O 328.278 0.319553 1.91553 0
M  V30 3530 C 325.408 0.97746 3.33261 0
M  V30 3531 C 324.362 2.05682 3.75338 0
M  V30 3532 C 323.688 1.63777 5.09 0
M  V30 3533 C 324.988 3.47254 3.90144 0
M  V30 3534 H 326.682 2.18966 2.04191 0
M  V30 3535 H 324.228 1.05413 0.981029 0
M  V30 3536 H 326.181 0.908513 4.1149 0
M  V30 3537 H 324.905 0.000980011 3.266 0
M  V30 3538 H 323.564 2.11603 2.99366 0
M  V30 3539 H 323.212 0.648569 4.98801 0
M  V30 3540 H 322.912 2.36 5.38124 0
M  V30 3541 H 324.436 1.5833 5.89715 0
M  V30 3542 H 325.85 3.43888 4.58709 0
M  V30 3543 H 324.247 4.1788 4.30693 0
M  V30 3544 H 325.317 3.86462 2.92874 0
M  V30 3545 N 326.66 -1.06551 1.16123 0
M  V30 3546 C 327.607 -2.13961 0.865414 0
M  V30 3547 C 328.577 -1.65066 -0.185055 0
M  V30 3548 O 329.762 -1.90732 -0.05083 0
M  V30 3549 C 326.902 -3.43113 0.369776 0
M  V30 3550 C 326.015 -4.05756 1.48276 0
M  V30 3551 C 325.15 -5.22773 0.942414 0
M  V30 3552 C 324.189 -5.77395 2.03179 0
M  V30 3553 N 323.326 -6.85731 1.50721 0
M  V30 3554 H 328.166 -2.38605 1.78527 0
M  V30 3555 H 325.703 -1.17072 0.890646 0
M  V30 3556 H 327.661 -4.17151 0.0640643 0
M  V30 3557 H 326.291 -3.18695 -0.513143 0
M  V30 3558 H 325.343 -3.29292 1.9045 0
M  V30 3559 H 326.655 -4.42351 2.30493 0
M  V30 3560 H 325.809 -6.03827 0.589729 0
M  V30 3561 H 324.548 -4.87618 0.0895191 0
M  V30 3562 H 323.553 -4.94981 2.3932 0
M  V30 3563 H 324.778 -6.14603 2.8886 0
M  V30 3564 H 322.724 -6.52499 0.676811 0
M  V30 3565 H 322.641 -7.21254 2.26557 0
M  V30 3566 H 323.909 -7.7047 1.18303 0
M  V30 3567 N 328.138 -0.959301 -1.25041 0
M  V30 3568 C 329.415 -0.533805 -1.88175 0
M  V30 3569 C 329.795 0.988994 -1.865 0
M  V30 3570 O 329.143 1.85677 -1.33177 0
M  V30 3571 C 329.353 -1.11575 -3.30684 0
M  V30 3572 C 330.701 -1.19548 -4.07423 0
M  V30 3573 O 331.725 -1.06765 -3.39823 0
M  V30 3574 O 330.584 -1.39656 -5.28354 0
M  V30 3575 H 327.678 -0.176772 -0.807887 0
M  V30 3576 H 330.224 -1.05303 -1.33076 0
M  V30 3577 H 328.996 -2.15884 -3.26358 0
M  V30 3578 H 328.619 -0.580059 -3.93346 0
M  V30 3579 N 329.616 1.39756 -0.72842 0
M  V30 3580 C 330.563 2.30647 -0.0841519 0
M  V30 3581 C 331.533 1.48869 0.7367 0
M  V30 3582 O 332.718 1.77574 0.698015 0
M  V30 3583 C 329.858 3.35165 0.822091 0
M  V30 3584 C 328.971 4.31999 -0.0106663 0
M  V30 3585 C 328.106 5.23585 0.896241 0
M  V30 3586 C 327.145 6.12072 0.0583381 0
M  V30 3587 N 326.282 6.96035 0.920818 0
M  V30 3588 H 331.122 2.85173 -0.864891 0
M  V30 3589 H 328.659 1.40422 -0.438179 0
M  V30 3590 H 330.617 3.94345 1.36189 0
M  V30 3591 H 329.247 2.8211 1.56888 0
M  V30 3592 H 328.299 3.74492 -0.66781 0
M  V30 3593 H 329.611 4.9443 -0.658825 0
M  V30 3594 H 328.765 5.87759 1.50412 0
M  V30 3595 H 327.504 4.61459 1.57819 0
M  V30 3596 H 326.509 5.46916 -0.562389 0
M  V30 3597 H 327.734 6.76261 -0.6203 0
M  V30 3598 H 325.68 6.36485 1.58818 0
M  V30 3599 H 325.597 7.55284 0.32899 0
M  V30 3600 H 326.865 7.64646 1.51447 0
M  V30 3601 N 331.094 0.475555 1.50254 0
M  V30 3602 C 332.057 -0.305016 2.27161 0
M  V30 3603 C 333.057 -0.916519 1.32123 0
M  V30 3604 O 334.247 -0.785003 1.5551 0
M  V30 3605 C 331.379 -1.43496 3.09227 0
M  V30 3606 H 332.572 0.369511 2.97615 0
M  V30 3607 H 330.125 0.229747 1.54602 0
M  V30 3608 H 330.86 -2.14441 2.43281 0
M  V30 3609 H 330.645 -1.00223 3.79075 0
M  V30 3610 H 332.135 -1.98548 3.67381 0
M  V30 3611 N 332.573 -1.56217 0.208337 0
M  V30 3612 C 333.52 -2.19699 -0.707192 0
M  V30 3613 C 334.49 -1.14836 -1.20008 0
M  V30 3614 O 335.675 -1.4314 -1.26157 0
M  V30 3615 C 332.815 -2.87061 -1.91546 0
M  V30 3616 C 331.928 -4.06483 -1.46271 0
M  V30 3617 C 331.063 -4.61665 -2.62752 0
M  V30 3618 C 330.102 -5.73417 -2.14147 0
M  V30 3619 N 329.239 -6.22948 -3.23853 0
M  V30 3620 H 334.079 -2.97575 -0.159111 0
M  V30 3621 H 331.616 -1.46948 -0.0667874 0
M  V30 3622 H 333.574 -3.24294 -2.62468 0
M  V30 3623 H 332.204 -2.11725 -2.43664 0
M  V30 3624 H 331.256 -3.74825 -0.648886 0
M  V30 3625 H 332.568 -4.87271 -1.06622 0
M  V30 3626 H 331.722 -5.01272 -3.41776 0
M  V30 3627 H 330.461 -3.80013 -3.05682 0
M  V30 3628 H 329.466 -5.33326 -1.33581 0
M  V30 3629 H 330.691 -6.56897 -1.72232 0
M  V30 3630 H 328.637 -5.44213 -3.6629 0
M  V30 3631 H 328.554 -6.98823 -2.88414 0
M  V30 3632 H 329.822 -6.6721 -4.03052 0
M  V30 3633 N 334.051 0.0651679 -1.57465 0
M  V30 3634 C 335.467 0.420105 -1.53972 0
M  V30 3635 C 335.667 1.78782 -0.929474 0
M  V30 3636 O 334.723 2.46771 -0.534839 0
M  V30 3637 C 336.036 0.355084 -2.98596 0
M  V30 3638 C 337.584 0.434792 -3.09965 0
M  V30 3639 C 338.059 0.399609 -4.56253 0
M  V30 3640 N 339.55 0.459488 -4.60915 0
M  V30 3641 C 340.285 0.454584 -5.71595 0
M  V30 3642 N 339.781 0.404102 -6.9162 0
M  V30 3643 N 341.574 0.501635 -5.59857 0
M  V30 3644 H 333.725 -0.830328 -1.95498 0
M  V30 3645 H 335.988 -0.312244 -0.895102 0
M  V30 3646 H 335.694 -0.583357 -3.46828 0
M  V30 3647 H 335.568 1.16275 -3.58831 0
M  V30 3648 H 337.955 1.36366 -2.61703 0
M  V30 3649 H 338.036 -0.40157 -2.52628 0
M  V30 3650 H 337.68 -0.525436 -5.05175 0
M  V30 3651 H 337.61 1.25359 -5.11461 0
M  V30 3652 H 340.101 0.502482 -3.74544 0
M  V30 3653 H 340.414 0.404468 -7.71741 0
M  V30 3654 H 338.759 0.37069 -6.94011 0
M  V30 3655 H 341.95 0.538812 -4.64989 0
M  V30 3656 H 342.123 0.494345 -6.46112 0
M  V30 3657 N 335.529 1.53961 0.336706 0
M  V30 3658 C 336.492 1.81724 1.39675 0
M  V30 3659 C 337.492 0.688532 1.45313 0
M  V30 3660 O 338.682 0.956829 1.45569 0
M  V30 3661 C 335.814 1.96543 2.78538 0
M  V30 3662 H 337.007 2.76424 1.16318 0
M  V30 3663 H 334.56 1.45478 0.571474 0
M  V30 3664 H 335.295 1.0401 3.07168 0
M  V30 3665 H 335.08 2.78665 2.75841 0
M  V30 3666 H 336.57 2.19516 3.5525 0
M  V30 3667 N 337.007 -0.598083 1.45811 0
M  V30 3668 C 337.97 -1.69018 1.54808 0
M  V30 3669 C 338.97 -1.55037 0.426652 0
M  V30 3670 O 340.16 -1.59932 0.690456 0
M  V30 3671 C 337.292 -3.0835 1.45371 0
M  V30 3672 H 338.485 -1.62403 2.52121 0
M  V30 3673 H 336.038 -0.814626 1.33392 0
M  V30 3674 H 336.773 -3.20534 0.492793 0
M  V30 3675 H 336.558 -3.19907 2.26721 0
M  V30 3676 H 338.048 -3.8788 1.54721 0
M  V30 3677 N 338.485 -1.33259 -0.841409 0
M  V30 3678 C 339.395 -1.25332 -1.98316 0
M  V30 3679 C 340.411 -0.164364 -1.73222 0
M  V30 3680 O 341.587 -0.387486 -1.97637 0
M  V30 3681 C 338.652 -0.990078 -3.32262 0
M  V30 3682 C 337.713 -2.16879 -3.70489 0
M  V30 3683 C 336.946 -1.91801 -4.98044 0
M  V30 3684 O 337.169 -0.867075 -5.63771 0
M  V30 3685 O 336.103 -2.78267 -5.33714 0
M  V30 3686 H 339.929 -2.21344 -2.07944 0
M  V30 3687 H 337.514 -1.1328 -0.974058 0
M  V30 3688 H 339.396 -0.860321 -4.12524 0
M  V30 3689 H 338.071 -0.0602155 -3.23644 0
M  V30 3690 H 336.978 -2.35407 -2.90748 0
M  V30 3691 H 338.311 -3.0819 -3.8377 0
M  V30 3692 N 339.963 1.05934 -1.16686 0
M  V30 3693 C 340.893 2.1546 -0.899949 0
M  V30 3694 C 341.874 1.69391 0.155154 0
M  V30 3695 O 343.059 1.94199 0.00648693 0
M  V30 3696 C 340.189 3.44939 -0.404241 0
M  V30 3697 C 339.143 4.04536 -1.39767 0
M  V30 3698 C 338.469 5.29268 -0.760216 0
M  V30 3699 C 339.769 4.42893 -2.76845 0
M  V30 3700 H 341.463 2.38046 -1.81588 0
M  V30 3701 H 339.009 1.14404 -0.874514 0
M  V30 3702 H 340.962 4.20901 -0.204971 0
M  V30 3703 H 339.686 3.21983 0.547206 0
M  V30 3704 H 338.345 3.30635 -1.58355 0
M  V30 3705 H 337.993 5.02611 0.197831 0
M  V30 3706 H 337.693 5.70101 -1.42332 0
M  V30 3707 H 339.217 6.07924 -0.57105 0
M  V30 3708 H 340.631 5.09921 -2.62019 0
M  V30 3709 H 339.028 4.94721 -3.39663 0
M  V30 3710 H 340.098 3.53584 -3.31823 0
M  V30 3711 N 341.441 0.965919 1.2453 0
M  V30 3712 C 342.689 0.625593 1.92174 0
M  V30 3713 C 343.01 -0.841652 1.75901 0
M  V30 3714 O 342.28 -1.60061 1.12948 0
M  V30 3715 H 340.86 0.228388 0.71123 0
M  V30 3716 H 343.522 1.2266 1.51461 0
M  V30 3717 H 342.618 0.864653 2.99884 0
M  V30 3718 N 342.919 -1.39368 0.735821 0
M  V30 3719 C 343.882 -2.2896 0.104874 0
M  V30 3720 C 344.882 -1.46347 -0.666274 0
M  V30 3721 O 346.072 -1.67014 -0.49517 0
M  V30 3722 C 343.204 -3.29857 -0.860656 0
M  V30 3723 H 344.397 -2.86259 0.894205 0
M  V30 3724 H 341.95 -1.48029 0.501704 0
M  V30 3725 H 342.685 -2.77615 -1.67631 0
M  V30 3726 H 342.47 -3.9087 -0.310327 0
M  V30 3727 H 343.96 -3.96893 -1.29867 0
M  V30 3728 N 344.397 -0.483516 -1.5 0
M  V30 3729 C 345.674 0.129337 -1.95172 0
M  V30 3730 C 346.054 1.55802 -1.4244 0
M  V30 3731 O 345.402 2.19625 -0.630649 0
M  V30 3732 C 345.612 0.0599251 -3.48949 0
M  V30 3733 C 346.96 0.242617 -4.23906 0
M  V30 3734 O 347.984 0.135933 -3.55941 0
M  V30 3735 O 346.843 0.459454 -5.44565 0
M  V30 3736 H 343.937 0.104887 -0.820322 0
M  V30 3737 H 346.483 -0.544807 -1.60717 0
M  V30 3738 H 345.255 -0.937079 -3.79914 0
M  V30 3739 H 344.878 0.774984 -3.89974 0
M  V30 3740 N 345.875 1.56104 -0.216619 0
M  V30 3741 C 347.121 1.98466 0.417033 0
M  V30 3742 C 347.454 1.10403 1.59765 0
M  V30 3743 O 346.729 0.160632 1.93836 0
M  V30 3744 C 347.012 3.49769 0.85637 0
M  V30 3745 C 346.865 4.48606 -0.327546 0
M  V30 3746 C 348.184 4.05339 1.7143 0
M  V30 3747 H 345.303 0.721551 0.150112 0
M  V30 3748 H 347.945 1.87423 -0.311864 0
M  V30 3749 H 346.095 3.5931 1.47745 0
M  V30 3750 H 347.767 4.5108 -0.965618 0
M  V30 3751 H 346.01 4.22682 -0.975805 0
M  V30 3752 H 346.681 5.51995 0.0227149 0
M  V30 3753 H 349.157 3.98712 1.19031 0
M  V30 3754 H 348.033 5.11533 1.99061 0
M  V30 3755 H 348.294 3.51918 2.67593 0
M  V30 3756 N 347.353 -0.0568162 1.57498 0
M  V30 3757 C 348.283 -1.06593 2.0775 0
M  V30 3758 C 349.264 -1.39448 0.974082 0
M  V30 3759 O 350.449 -1.48815 1.24771 0
M  V30 3760 C 347.579 -2.37509 2.5339 0
M  V30 3761 C 346.533 -2.1897 3.67745 0
M  V30 3762 C 345.859 -3.55402 3.99492 0
M  V30 3763 C 347.159 -1.59859 4.97235 0
M  V30 3764 H 348.853 -0.647706 2.9231 0
M  V30 3765 H 346.399 -0.310116 1.40621 0
M  V30 3766 H 348.352 -3.08409 2.87162 0
M  V30 3767 H 347.076 -2.8134 1.65878 0
M  V30 3768 H 345.735 -1.50508 3.3428 0
M  V30 3769 H 345.383 -3.9683 3.09088 0
M  V30 3770 H 345.083 -3.43831 4.76502 0
M  V30 3771 H 346.607 -4.27708 4.35773 0
M  V30 3772 H 348.021 -2.20642 5.29141 0
M  V30 3773 H 346.418 -1.58942 5.78669 0
M  V30 3774 H 347.488 -0.561506 4.81638 0
M  V30 3775 N 348.832 -1.54138 -0.328536 0
M  V30 3776 C 349.762 -1.86167 -1.40939 0
M  V30 3777 C 350.743 -0.718044 -1.54202 0
M  V30 3778 O 351.928 -0.971328 -1.68163 0
M  V30 3779 C 349.058 -2.08461 -2.77779 0
M  V30 3780 C 348.012 -3.24299 -2.7931 0
M  V30 3781 C 347.338 -3.31955 -4.19178 0
M  V30 3782 C 348.638 -4.62065 -2.43502 0
M  V30 3783 H 350.332 -2.76689 -1.14383 0
M  V30 3784 H 347.878 -1.33132 -0.548806 0
M  V30 3785 H 349.831 -2.29453 -3.53454 0
M  V30 3786 H 348.555 -1.14684 -3.05802 0
M  V30 3787 H 347.214 -3.03187 -2.0609 0
M  V30 3788 H 346.862 -2.35745 -4.44335 0
M  V30 3789 H 346.562 -4.09805 -4.2111 0
M  V30 3790 H 348.086 -3.55175 -4.96672 0
M  V30 3791 H 349.5 -4.8297 -3.08889 0
M  V30 3792 H 347.897 -5.42429 -2.56693 0
M  V30 3793 H 348.967 -4.64652 -1.38659 0
M  V30 3794 N 350.31 0.590341 -1.46126 0
M  V30 3795 C 351.557 1.34882 -1.5104 0
M  V30 3796 C 351.885 1.93849 -0.159021 0
M  V30 3797 O 351.14 1.76544 0.844436 0
M  V30 3798 C 351.439 2.5032 -2.55097 0
M  V30 3799 C 351.105 2.09394 -3.99331 0
M  V30 3800 C 349.767 1.97947 -4.38601 0
M  V30 3801 C 352.119 1.77712 -4.89967 0
M  V30 3802 C 349.447 1.53065 -5.66381 0
M  V30 3803 C 351.799 1.34312 -6.18177 0
M  V30 3804 C 350.463 1.21436 -6.56361 0
M  V30 3805 H 349.733 0.493568 -0.552695 0
M  V30 3806 H 352.38 0.665539 -1.79563 0
M  V30 3807 H 350.685 3.24062 -2.20207 0
M  V30 3808 H 352.382 3.08541 -2.56132 0
M  V30 3809 H 348.972 2.19235 -3.68285 0
M  V30 3810 H 353.156 1.85445 -4.60352 0
M  V30 3811 H 348.412 1.41733 -5.94745 0
M  V30 3812 H 352.586 1.08849 -6.87841 0
M  V30 3813 H 350.213 0.864345 -7.5527 0
M  V30 3814 N 351.788 1.33704 0.83433 0
M  V30 3815 C 352.736 1.24323 1.96587 0
M  V30 3816 C 353.73 0.143659 1.6879 0
M  V30 3817 O 354.936 0.30791 1.77347 0
M  V30 3818 H 351.311 0.385925 0.645419 0
M  V30 3819 H 353.282 2.19978 2.01624 0
M  V30 3820 C 352.031 1.00394 3.32891 0
M  V30 3821 H 351.354 1.84231 3.54822 0
M  V30 3822 H 352.794 0.97862 4.12552 0
M  V30 3823 C 351.253 -0.293047 3.35623 0
M  V30 3824 O 351.783 -1.29823 3.80143 0
M  V30 3825 N 349.989 -0.322174 2.88809 0
M  V30 3826 H 349.536 0.496379 2.52772 0
M  V30 3827 H 349.494 -1.18977 2.91019 0
M  V30 3828 N 353.266 -1.05314 1.17247 0
M  V30 3829 C 354.512 -1.78557 0.961513 0
M  V30 3830 C 354.845 -1.87419 -0.508697 0
M  V30 3831 O 354.12 -1.37307 -1.37757 0
M  V30 3832 C 354.403 -3.22514 1.60176 0
M  V30 3833 C 354.256 -3.21673 3.14399 0
M  V30 3834 C 355.575 -4.20318 1.30463 0
M  V30 3835 H 352.694 -0.6482 0.350723 0
M  V30 3836 H 355.336 -1.23102 1.44727 0
M  V30 3837 H 353.486 -3.69867 1.18871 0
M  V30 3838 H 355.158 -2.82405 3.64753 0
M  V30 3839 H 353.401 -2.60048 3.47214 0
M  V30 3840 H 354.072 -4.23271 3.54324 0
M  V30 3841 H 356.548 -3.81454 1.66229 0
M  V30 3842 H 355.424 -5.19289 1.77848 0
M  V30 3843 H 355.685 -4.41526 0.22521 0
M  V30 3844 N 354.744 -0.972509 -1.24016 0
M  V30 3845 C 355.991 -0.637034 -1.92219 0
M  V30 3846 C 356.319 0.828418 -1.75976 0
M  V30 3847 O 355.574 1.61206 -1.10955 0
M  V30 3848 C 355.873 -0.963694 -3.44162 0
M  V30 3849 C 355.539 -2.41807 -3.80579 0
M  V30 3850 C 354.201 -2.81556 -3.9023 0
M  V30 3851 C 356.553 -3.36172 -3.98293 0
M  V30 3852 C 353.881 -4.14702 -4.15017 0
M  V30 3853 C 356.233 -4.68952 -4.24578 0
M  V30 3854 C 354.897 -5.08472 -4.32449 0
M  V30 3855 H 354.167 -0.233107 -0.703379 0
M  V30 3856 H 356.814 -1.2249 -1.47202 0
M  V30 3857 H 355.119 -0.29365 -3.90698 0
M  V30 3858 H 356.816 -0.682449 -3.9515 0
M  V30 3859 H 353.406 -2.09988 -3.73635 0
M  V30 3860 H 357.59 -3.06644 -3.90234 0
M  V30 3861 H 352.846 -4.4494 -4.19331 0
M  V30 3862 H 357.02 -5.42037 -4.37229 0
M  V30 3863 H 354.647 -6.11665 -4.51409 0
M  V30 3864 N 356.222 1.38976 -0.743202 0
M  V30 3865 C 357.185 2.28901 -0.117014 0
M  V30 3866 C 358.185 1.46698 0.658503 0
M  V30 3867 O 359.375 1.67274 0.486305 0
M  V30 3868 C 356.507 3.30309 0.84315 0
M  V30 3869 H 357.7 2.8578 -0.909373 0
M  V30 3870 H 355.253 1.47761 -0.509547 0
M  V30 3871 H 355.988 2.785 1.66157 0
M  V30 3872 H 355.773 3.91029 0.289594 0
M  V30 3873 H 357.263 3.97577 1.2776 0
M  V30 3874 N 357.7 0.491464 1.49741 0
M  V30 3875 C 358.93 -0.0534375 2.06531 0
M  V30 3876 C 359.338 -1.32233 1.35318 0
M  V30 3877 O 358.681 -1.78781 0.422243 0
M  V30 3878 C 358.743 -0.387034 3.57411 0
M  V30 3879 C 358.407 0.782764 4.50246 0
M  V30 3880 C 359.404 1.67059 4.92329 0
M  V30 3881 C 357.089 0.978866 4.9267 0
M  V30 3882 C 359.083 2.73874 5.75562 0
M  V30 3883 C 356.77 2.05022 5.75682 0
M  V30 3884 C 357.768 2.92851 6.17031 0
M  V30 3885 O 357.456 3.98138 6.98385 0
M  V30 3886 H 357.188 0.0129324 0.675876 0
M  V30 3887 H 359.742 0.685238 1.93633 0
M  V30 3888 H 357.972 -1.17918 3.68283 0
M  V30 3889 H 359.661 -0.869419 3.96479 0
M  V30 3890 H 360.427 1.53086 4.60206 0
M  V30 3891 H 356.306 0.304646 4.59992 0
M  V30 3892 H 359.85 3.42458 6.07757 0
M  V30 3893 H 355.747 2.18993 6.07217 0
M  V30 3894 H 356.515 3.95374 7.16674 0
M  V30 3895 N 359.178 -1.55987 0.224894 0
M  V30 3896 C 360.426 -1.97998 -0.405099 0
M  V30 3897 C 360.747 -1.11387 -1.60056 0
M  V30 3898 O 360.017 -0.191645 -1.9496 0
M  V30 3899 H 358.597 -0.731235 -0.152658 0
M  V30 3900 H 361.259 -1.92279 0.318567 0
M  V30 3901 H 360.355 -3.03463 -0.729167 0
M  V30 3902 N 360.656 0.0484629 -1.57525 0
M  V30 3903 C 361.586 1.0549 -2.08313 0
M  V30 3904 C 362.567 1.38929 -0.981463 0
M  V30 3905 O 363.752 1.48151 -1.25558 0
M  V30 3906 C 360.882 2.36162 -2.54646 0
M  V30 3907 C 359.836 2.17016 -3.68901 0
M  V30 3908 C 359.162 3.53278 -4.01371 0
M  V30 3909 C 360.462 1.57219 -4.98076 0
M  V30 3910 H 362.156 0.632195 -2.92649 0
M  V30 3911 H 359.702 0.302654 -1.40784 0
M  V30 3912 H 361.655 3.06882 -2.88793 0
M  V30 3913 H 360.379 2.80456 -1.67368 0
M  V30 3914 H 359.038 1.48733 -3.35073 0
M  V30 3915 H 358.686 3.95185 -3.11188 0
M  V30 3916 H 358.386 3.41299 -4.78318 0
M  V30 3917 H 359.91 4.25391 -4.38035 0
M  V30 3918 H 361.324 2.17832 -5.30304 0
M  V30 3919 H 359.721 1.55871 -5.79503 0
M  V30 3920 H 360.791 0.535956 -4.81929 0
M  V30 3921 N 362.134 1.5431 0.320358 0
M  V30 3922 C 363.411 1.63322 1.07635 0
M  V30 3923 C 363.791 0.46912 2.05821 0
M  V30 3924 O 363.139 -0.536274 2.22118 0
M  V30 3925 C 363.349 3.00465 1.77544 0
M  V30 3926 C 364.697 3.56621 2.30449 0
M  V30 3927 O 365.721 3.02791 1.87606 0
M  V30 3928 O 364.58 4.5083 3.08892 0
M  V30 3929 H 361.674 0.661502 0.496331 0
M  V30 3930 H 364.22 1.66656 0.319992 0
M  V30 3931 H 362.992 3.76629 1.06143 0
M  V30 3932 H 362.615 3.00824 2.59982 0
M  V30 3933 N 363.613 -0.582584 1.46437 0
M  V30 3934 C 364.859 -1.34278 1.51978 0
M  V30 3935 C 365.192 -1.93446 0.170973 0
M  V30 3936 O 364.467 -1.76481 -0.817608 0
M  V30 3937 C 364.75 -2.47203 2.61845 0
M  V30 3938 C 364.603 -1.93069 4.06257 0
M  V30 3939 C 365.922 -3.49247 2.67795 0
M  V30 3940 H 363.041 -0.486876 0.553282 0
M  V30 3941 H 365.683 -0.654437 1.78374 0
M  V30 3942 H 363.833 -3.0592 2.39469 0
M  V30 3943 H 365.505 -1.38808 4.3992 0
M  V30 3944 H 363.748 -1.23898 4.1573 0
M  V30 3945 H 364.419 -2.74586 4.7886 0
M  V30 3946 H 366.895 -3.00411 2.8791 0
M  V30 3947 H 365.771 -4.25719 3.46489 0
M  V30 3948 H 366.032 -4.06482 1.73852 0
M  V30 3949 N 365.091 -1.34144 -0.827227 0
M  V30 3950 C 366.021 -1.28005 -1.95287 0
M  V30 3951 C 367.002 -0.158321 -1.69362 0
M  V30 3952 O 368.187 -0.349987 -1.9102 0
M  V30 3953 C 365.317 -1.03036 -3.31664 0
M  V30 3954 C 364.271 -2.11628 -3.72019 0
M  V30 3955 C 363.597 -1.71854 -5.0633 0
M  V30 3956 C 364.897 -3.53417 -3.8457 0
M  V30 3957 H 366.591 -2.22187 -2.00682 0
M  V30 3958 H 364.137 -1.0696 -0.964135 0
M  V30 3959 H 366.09 -0.973863 -4.09993 0
M  V30 3960 H 364.814 -0.0529391 -3.26557 0
M  V30 3961 H 363.473 -2.16339 -2.95961 0
M  V30 3962 H 363.121 -0.727841 -4.97706 0
M  V30 3963 H 362.821 -2.44531 -5.34302 0
M  V30 3964 H 364.345 -1.67692 -5.87122 0
M  V30 3965 H 365.759 -3.51142 -4.5318 0
M  V30 3966 H 364.156 -4.24679 -4.2399 0
M  V30 3967 H 365.226 -3.91072 -2.86689 0
M  V30 3968 N 366.569 1.04691 -1.17803 0
M  V30 3969 C 367.501 2.12571 -0.857097 0
M  V30 3970 C 368.514 1.62174 0.142647 0
M  V30 3971 O 369.703 1.78301 -0.0843387 0
M  V30 3972 C 366.803 3.37915 -0.258216 0
M  V30 3973 C 365.976 4.1757 -1.30207 0
M  V30 3974 C 365.035 5.2125 -0.720029 0
M  V30 3975 O 364.061 5.51888 -1.39314 0
M  V30 3976 N 365.263 5.78466 0.485507 0
M  V30 3977 H 368.028 2.40698 -1.78562 0
M  V30 3978 H 365.589 1.20831 -1.07757 0
M  V30 3979 H 367.581 4.04442 0.144584 0
M  V30 3980 H 366.151 3.07281 0.574199 0
M  V30 3981 H 365.371 3.46458 -1.88043 0
M  V30 3982 H 366.659 4.67586 -2.00601 0
M  V30 3983 H 366.057 5.55866 1.05022 0
M  V30 3984 H 364.614 6.4649 0.830307 0
M  V30 3985 N 368.047 0.979072 1.23499 0
M  V30 3986 C 369.01 0.523244 2.23147 0
M  V30 3987 C 370.01 -0.386406 1.56088 0
M  V30 3988 O 371.2 -0.180283 1.73265 0
M  V30 3989 C 368.332 -0.240739 3.40049 0
M  V30 3990 H 369.525 1.40432 2.64989 0
M  V30 3991 H 367.078 0.764824 1.36309 0
M  V30 3992 H 367.813 -1.13841 3.03662 0
M  V30 3993 H 367.598 0.412207 3.89927 0
M  V30 3994 H 369.088 -0.548297 4.13985 0
M  V30 3995 N 369.525 -1.3858 0.750561 0
M  V30 3996 C 370.455 -2.33102 0.136237 0
M  V30 3997 C 371.436 -1.54713 -0.706965 0
M  V30 3998 O 372.621 -1.83043 -0.648769 0
M  V30 3999 C 369.751 -3.38882 -0.760017 0
M  V30 4000 C 368.705 -4.27995 -0.0197785 0
M  V30 4001 C 368.031 -5.24605 -1.03408 0
M  V30 4002 C 369.331 -5.09554 1.14684 0
M  V30 4003 H 371.025 -2.84726 0.925822 0
M  V30 4004 H 368.571 -1.36898 0.446654 0
M  V30 4005 H 370.524 -4.0397 -1.19943 0
M  V30 4006 H 369.248 -2.85734 -1.58189 0
M  V30 4007 H 367.907 -3.64409 0.400184 0
M  V30 4008 H 367.555 -4.67746 -1.84994 0
M  V30 4009 H 367.255 -5.85081 -0.543464 0
M  V30 4010 H 368.779 -5.9257 -1.47288 0
M  V30 4011 H 370.193 -5.67899 0.785118 0
M  V30 4012 H 368.59 -5.7925 1.56812 0
M  V30 4013 H 369.66 -4.4347 1.96118 0
M  V30 4014 N 371.003 -0.499398 -1.49478 0
M  V30 4015 C 372.419 -0.155261 -1.58843 0
M  V30 4016 C 372.619 1.34008 -1.50479 0
M  V30 4017 O 371.675 2.11589 -1.37791 0
M  V30 4018 C 372.988 -0.730636 -2.91689 0
M  V30 4019 C 374.536 -0.696599 -3.0515 0
M  V30 4020 C 375.011 -1.25001 -4.40612 0
M  V30 4021 N 376.502 -1.21064 -4.47099 0
M  V30 4022 C 377.237 -1.60905 -5.50361 0
M  V30 4023 N 376.733 -2.08331 -6.60735 0
M  V30 4024 N 378.526 -1.52331 -5.41065 0
M  V30 4025 H 370.677 -1.47162 -1.53158 0
M  V30 4026 H 372.94 -0.610309 -0.725415 0
M  V30 4027 H 372.646 -1.77928 -3.03372 0
M  V30 4028 H 372.52 -0.190161 -3.7672 0
M  V30 4029 H 374.907 0.343204 -2.93097 0
M  V30 4030 H 374.988 -1.2742 -2.21806 0
M  V30 4031 H 374.632 -2.28859 -4.53416 0
M  V30 4032 H 374.562 -0.64836 -5.22593 0
M  V30 4033 H 377.053 -0.863128 -3.67911 0
M  V30 4034 H 377.366 -2.36805 -7.35624 0
M  V30 4035 H 375.711 -2.12304 -6.6178 0
M  V30 4036 H 378.902 -1.151 -4.53729 0
M  V30 4037 H 379.075 -1.83704 -6.21415 0
M  V30 4038 N 372.481 1.55866 -0.233164 0
M  V30 4039 C 373.391 2.24431 0.683217 0
M  V30 4040 C 374.407 1.2558 1.2044 0
M  V30 4041 O 375.583 1.58422 1.24356 0
M  V30 4042 C 372.648 2.91979 1.86947 0
M  V30 4043 C 371.709 4.06204 1.38912 0
M  V30 4044 C 370.942 4.70522 2.51883 0
M  V30 4045 O 371.165 4.33865 3.70293 0
M  V30 4046 O 370.099 5.59296 2.22423 0
M  V30 4047 H 373.925 3.03426 0.129059 0
M  V30 4048 H 371.51 1.494 -0.0022283 0
M  V30 4049 H 373.392 3.34573 2.56201 0
M  V30 4050 H 372.067 2.15935 2.41151 0
M  V30 4051 H 370.974 3.68155 0.664259 0
M  V30 4052 H 372.307 4.84025 0.893328 0
M  V30 4053 N 373.959 -0.0401083 1.57549 0
M  V30 4054 C 375.236 -0.767917 1.79896 0
M  V30 4055 C 375.616 -1.9416 0.82856 0
M  V30 4056 O 374.964 -2.2812 -0.131671 0
M  V30 4057 C 375.174 -1.2113 3.27305 0
M  V30 4058 C 376.522 -1.63175 3.91994 0
M  V30 4059 O 377.546 -1.30616 3.31388 0
M  V30 4060 O 376.405 -2.23565 4.98679 0
M  V30 4061 H 373.499 -0.370441 0.739393 0
M  V30 4062 H 376.045 -0.017737 1.69691 0
M  V30 4063 H 374.817 -0.372937 3.89519 0
M  V30 4064 H 374.44 -2.02183 3.42356 0
M  V30 4065 N 375.437 -1.54477 -0.31217 0
M  V30 4066 C 376.347 -1.87695 -1.4074 0
M  V30 4067 C 377.363 -0.769975 -1.56036 0
M  V30 4068 O 378.539 -1.06537 -1.70915 0
M  V30 4069 C 375.604 -2.10755 -2.75287 0
M  V30 4070 C 374.665 -3.34514 -2.69071 0
M  V30 4071 C 373.898 -3.56465 -3.97201 0
M  V30 4072 O 374.121 -2.81637 -4.96021 0
M  V30 4073 O 373.055 -4.49964 -3.9977 0
M  V30 4074 H 376.881 -2.80849 -1.15574 0
M  V30 4075 H 374.466 -1.40526 -0.507228 0
M  V30 4076 H 376.348 -2.27188 -3.54913 0
M  V30 4077 H 375.023 -1.20788 -3.0032 0
M  V30 4078 H 373.93 -3.23456 -1.87955 0
M  V30 4079 H 375.263 -4.24575 -2.48992 0
M  V30 4080 N 376.915 0.57481 -1.46744 0
M  V30 4081 C 377.825 1.711 -1.60505 0
M  V30 4082 C 378.841 1.67008 -0.488307 0
M  V30 4083 O 380.017 1.86774 -0.753495 0
M  V30 4084 C 377.082 3.07608 -1.59932 0
M  V30 4085 C 376.143 3.22904 -2.82898 0
M  V30 4086 C 375.376 4.529 -2.82343 0
M  V30 4087 O 375.599 5.37278 -1.91542 0
M  V30 4088 O 374.533 4.71611 -3.73987 0
M  V30 4089 H 378.359 1.62436 -2.56609 0
M  V30 4090 H 375.944 0.742779 -1.29627 0
M  V30 4091 H 377.826 3.88877 -1.62336 0
M  V30 4092 H 376.501 3.16692 -0.669898 0
M  V30 4093 H 375.408 2.41099 -2.86046 0
M  V30 4094 H 376.741 3.18715 -3.75076 0
M  V30 4095 N 378.394 1.34581 0.820102 0
M  V30 4096 C 379.643 1.26437 1.57151 0
M  V30 4097 C 379.956 -0.163111 1.94919 0
M  V30 4098 O 381.162 -0.366722 2.69012 0
M  V30 4099 C 379.618 2.21658 2.83541 0
M  V30 4100 C 379.226 3.69679 2.53065 0
M  V30 4101 C 380.97 2.22428 3.61561 0
M  V30 4102 C 378.877 4.56761 3.75664 0
M  V30 4103 H 377.807 0.469707 0.589823 0
M  V30 4104 H 380.458 1.59763 0.902656 0
M  V30 4105 H 378.84 1.81287 3.52067 0
M  V30 4106 H 380.014 4.18605 1.92631 0
M  V30 4107 H 378.329 3.71384 1.88316 0
M  V30 4108 H 380.926 2.8471 4.52597 0
M  V30 4109 H 381.269 1.22434 3.97889 0
M  V30 4110 H 381.802 2.61259 2.99981 0
M  V30 4111 H 378.541 5.57702 3.44454 0
M  V30 4112 H 378.061 4.12568 4.35371 0
M  V30 4113 H 379.74 4.71509 4.43044 0
M  V30 4114 N 379.872 -1.04064 1.18357 0
M  V30 4115 C 380.835 -2.10243 0.912707 0
M  V30 4116 C 381.835 -1.60477 -0.101928 0
M  V30 4117 O 383.025 -1.73703 0.131517 0
M  V30 4118 C 380.157 -3.38893 0.369387 0
M  V30 4119 H 381.35 -2.35706 1.85426 0
M  V30 4120 H 378.903 -1.20489 0.995594 0
M  V30 4121 H 379.638 -3.19094 -0.578776 0
M  V30 4122 H 379.423 -3.76331 1.1008 0
M  V30 4123 H 380.913 -4.17128 0.198575 0
M  V30 4124 N 381.35 -0.985608 -1.22978 0
M  V30 4125 C 382.596 -0.65836 -1.91816 0
M  V30 4126 C 382.929 0.806692 -1.76653 0
M  V30 4127 O 382.204 1.58252 -1.13078 0
M  V30 4128 C 382.487 -1.056 -3.44268 0
M  V30 4129 C 382.34 -2.57906 -3.68516 0
M  V30 4130 C 383.659 -0.603781 -4.35939 0
M  V30 4131 H 380.778 -0.24065 -0.696604 0
M  V30 4132 H 383.42 -1.22783 -1.44998 0
M  V30 4133 H 381.57 -0.571445 -3.84274 0
M  V30 4134 H 383.242 -3.13976 -3.3796 0
M  V30 4135 H 381.485 -3.00305 -3.13048 0
M  V30 4136 H 382.156 -2.80779 -4.75255 0
M  V30 4137 H 384.632 -1.01987 -4.03408 0
M  V30 4138 H 383.508 -0.910383 -5.41298 0
M  V30 4139 H 383.769 0.495761 -4.39312 0
M  V30 4140 N 382.828 1.3818 -0.7579 0
M  V30 4141 C 384.239 1.82726 -0.383134 0
M  V30 4142 C 384.59 1.63214 1.08884 0
M  V30 4143 O 383.715 1.13566 1.84205 0
M  V30 4144 C 384.31 3.31728 -0.688631 0
M  V30 4145 C 382.869 3.74606 -0.367091 0
M  V30 4146 C 382.016 2.60896 -0.939599 0
M  V30 4147 H 384.967 1.26847 -0.953699 0
M  V30 4148 H 384.988 3.80487 0.0316492 0
M  V30 4149 H 384.5 3.45898 -1.76001 0
M  V30 4150 H 382.601 3.66013 0.697532 0
M  V30 4151 H 382.714 4.71215 -0.865658 0
M  V30 4152 H 381.078 2.52075 -0.3647 0
M  V30 4153 H 381.861 2.77864 -2.0161 0
M  V30 4154 N 384.306 0.507319 1.49211 0
M  V30 4155 C 385.555 -0.0368315 2.01666 0
M  V30 4156 C 385.868 -1.37459 1.39156 0
M  V30 4157 O 387.074 -2.00579 1.82976 0
M  V30 4158 C 385.53 -0.116089 3.59713 0
M  V30 4159 C 385.138 1.2154 4.31198 0
M  V30 4160 C 386.882 -0.610268 4.2009 0
M  V30 4161 C 384.789 1.09796 5.81119 0
M  V30 4162 H 383.719 -0.0175376 0.753796 0
M  V30 4163 H 386.37 0.647691 1.71689 0
M  V30 4164 H 384.752 -0.8652 3.86433 0
M  V30 4165 H 385.926 1.9783 4.16173 0
M  V30 4166 H 384.241 1.64352 3.82593 0
M  V30 4167 H 386.838 -0.715742 5.29888 0
M  V30 4168 H 387.181 -1.61064 3.8388 0
M  V30 4169 H 387.714 0.0824916 3.97714 0
M  V30 4170 H 384.453 2.0728 6.21864 0
M  V30 4171 H 383.973 0.376058 5.9862 0
M  V30 4172 H 385.652 0.779281 6.4229 0
M  V30 4173 N 385.784 -1.5574 0.241426 0
M  V30 4174 C 386.717 -2.17168 -0.700935 0
M  V30 4175 C 387.695 -1.12206 -1.1768 0
M  V30 4176 O 388.879 -1.40565 -1.25593 0
M  V30 4177 C 386.006 -2.76796 -1.95196 0
M  V30 4178 C 385.052 -3.94764 -1.61442 0
M  V30 4179 S 385.885 -5.30613 -0.72182 0
M  V30 4180 C 387.041 -5.93691 -1.98197 0
M  V30 4181 H 387.274 -2.96761 -0.178882 0
M  V30 4182 H 384.807 -1.54378 0.0259299 0
M  V30 4183 H 386.765 -3.11787 -2.67019 0
M  V30 4184 H 385.426 -1.9716 -2.44514 0
M  V30 4185 H 384.619 -4.35057 -2.54443 0
M  V30 4186 H 384.221 -3.61022 -0.976672 0
M  V30 4187 H 386.513 -6.10874 -2.92983 0
M  V30 4188 H 387.456 -6.89258 -1.62262 0
M  V30 4189 H 387.864 -5.22709 -2.13156 0
M  V30 4190 N 387.262 0.0317525 -1.57568 0
M  V30 4191 C 388.225 1.01783 -2.0536 0
M  V30 4192 C 389.225 1.29203 -0.957253 0
M  V30 4193 O 390.415 1.24251 -1.22095 0
M  V30 4194 C 387.547 2.35137 -2.46827 0
M  V30 4195 H 388.74 0.605062 -2.93733 0
M  V30 4196 H 386.293 0.278514 -1.53799 0
M  V30 4197 H 387.028 2.81168 -1.61602 0
M  V30 4198 H 386.813 2.16566 -3.26866 0
M  V30 4199 H 388.303 3.05938 -2.84239 0
M  V30 4200 N 388.74 1.54641 0.303973 0
M  V30 4201 C 389.69 1.8177 1.37636 0
M  V30 4202 C 390.674 0.674697 1.46071 0
M  V30 4203 O 391.866 0.935251 1.50273 0
M  V30 4204 C 388.995 2.06584 2.74186 0
M  V30 4205 C 388.081 3.2706 2.69986 0
M  V30 4206 N 388.472 4.47682 2.35402 0
M  V30 4207 C 386.77 3.29028 3.01092 0
M  V30 4208 C 387.471 5.29689 2.40426 0
M  V30 4209 N 386.447 4.67339 2.7766 0
M  V30 4210 H 390.249 2.72596 1.09857 0
M  V30 4211 H 387.763 1.541 0.51254 0
M  V30 4212 H 389.76 2.24166 3.51504 0
M  V30 4213 H 388.42 1.17024 3.02879 0
M  V30 4214 H 389.431 4.74336 2.07908 0
M  V30 4215 H 386.108 2.49565 3.34699 0
M  V30 4216 H 387.498 6.3606 2.16512 0
M  V30 4217 N 390.218 -0.567019 1.47046 0
M  V30 4218 C 391.629 -1.14916 1.47143 0
M  V30 4219 C 391.98 -1.94954 0.220767 0
M  V30 4220 O 391.105 -2.05602 -0.67505 0
M  V30 4221 C 391.7 -2.09069 2.666 0
M  V30 4222 C 390.259 -2.62575 2.69687 0
M  V30 4223 C 389.406 -1.38755 2.40088 0
M  V30 4224 H 392.357 -0.354126 1.54699 0
M  V30 4225 H 392.378 -2.92789 2.43011 0
M  V30 4226 H 391.89 -1.50789 3.57609 0
M  V30 4227 H 389.991 -3.24681 1.82792 0
M  V30 4228 H 390.104 -3.04239 3.70102 0
M  V30 4229 H 388.468 -1.69098 1.90468 0
M  V30 4230 H 389.251 -0.822822 3.33293 0
M  V30 4231 N 391.696 -1.35014 -0.812953 0
M  V30 4232 C 392.659 -1.27292 -1.90602 0
M  V30 4233 C 393.659 -0.185817 -1.59723 0
M  V30 4234 O 394.849 -0.439102 -1.68575 0
M  V30 4235 C 391.981 -0.967676 -3.26877 0
M  V30 4236 H 393.174 -2.24479 -1.9887 0
M  V30 4237 H 390.727 -1.19446 -1.00808 0
M  V30 4238 H 391.462 0.0005954 -3.243 0
M  V30 4239 H 391.247 -1.75412 -3.50675 0
M  V30 4240 H 392.737 -0.939085 -4.06904 0
M  V30 4241 N 393.175 1.03435 -1.18907 0
M  V30 4242 C 394.422 1.76743 -0.988334 0
M  V30 4243 C 394.75 1.88447 0.481441 0
M  V30 4244 O 394.005 1.39383 1.37371 0
M  V30 4245 C 394.304 3.19792 -1.59586 0
M  V30 4246 C 393.97 3.28108 -3.09283 0
M  V30 4247 C 392.632 3.30084 -3.5014 0
M  V30 4248 C 394.984 3.27696 -4.05296 0
M  V30 4249 C 392.312 3.29299 -4.85571 0
M  V30 4250 C 394.664 3.28451 -5.4065 0
M  V30 4251 C 393.328 3.28723 -5.80946 0
M  V30 4252 H 392.598 0.64675 -0.361657 0
M  V30 4253 H 395.245 1.21442 -1.48068 0
M  V30 4254 H 393.55 3.78136 -1.02568 0
M  V30 4255 H 395.247 3.75171 -1.41589 0
M  V30 4256 H 391.837 3.27294 -2.76725 0
M  V30 4257 H 396.021 3.25354 -3.74778 0
M  V30 4258 H 391.277 3.2783 -5.16079 0
M  V30 4259 H 395.451 3.27082 -6.14809 0
M  V30 4260 H 393.078 3.27868 -6.85862 0
M  V30 4261 N 394.653 0.992116 1.22453 0
M  V30 4262 C 395.878 0.685644 1.95739 0
M  V30 4263 C 396.303 -0.743 1.72804 0
M  V30 4264 O 395.661 -1.50778 1.00676 0
M  V30 4265 C 395.709 0.996293 3.46564 0
M  V30 4266 O 394.813 0.0945512 4.12292 0
M  V30 4267 H 394.154 0.256694 0.612376 0
M  V30 4268 H 396.684 1.32888 1.5557 0
M  V30 4269 H 396.694 0.93781 3.97076 0
M  V30 4270 H 395.369 2.03733 3.62582 0
M  V30 4271 H 393.946 0.208451 3.72317 0
M  V30 4272 N 396.131 -1.37776 0.765217 0
M  V30 4273 C 397.379 -1.99454 0.325943 0
M  V30 4274 C 397.7 -1.61049 -1.09947 0
M  V30 4275 O 396.97 -0.872821 -1.75381 0
M  V30 4276 H 395.55 -0.737697 0.117525 0
M  V30 4277 H 398.212 -1.68359 0.981895 0
M  V30 4278 H 397.308 -3.09547 0.398353 0
M  V30 4279 N 397.609 -0.515225 -1.4894 0
M  V30 4280 C 398.572 0.244681 -2.2789 0
M  V30 4281 C 399.572 0.881166 -1.34507 0
M  V30 4282 O 400.762 0.743497 -1.57537 0
M  V30 4283 C 397.894 1.35247 -3.12923 0
M  V30 4284 H 399.087 -0.448289 -2.96531 0
M  V30 4285 H 396.64 -0.270656 -1.53939 0
M  V30 4286 H 397.375 2.07916 -2.48881 0
M  V30 4287 H 397.16 0.901374 -3.81599 0
M  V30 4288 H 398.65 1.88737 -3.72516 0
M  V30 4289 N 399.087 1.5561 -0.249682 0
M  V30 4290 C 400.333 1.99306 0.374841 0
M  V30 4291 C 400.666 1.13767 1.57387 0
M  V30 4292 O 399.941 0.201711 1.93451 0
M  V30 4293 C 400.224 3.51507 0.781986 0
M  V30 4294 C 400.077 4.4781 -0.422629 0
M  V30 4295 C 401.396 4.08884 1.62793 0
M  V30 4296 H 398.515 0.724572 0.134773 0
M  V30 4297 H 401.157 1.86719 -0.351549 0
M  V30 4298 H 399.307 3.62363 1.4009 0
M  V30 4299 H 400.979 4.48931 -1.06108 0
M  V30 4300 H 399.222 4.20518 -1.06524 0
M  V30 4301 H 399.893 5.51919 -0.0943766 0
M  V30 4302 H 402.369 4.01147 1.10547 0
M  V30 4303 H 401.245 5.1564 1.88166 0
M  V30 4304 H 401.506 3.57515 2.60068 0
M  V30 4305 N 400.565 -0.0233959 1.57583 0
M  V30 4306 C 401.793 -0.724682 1.93794 0
M  V30 4307 C 402.208 -1.68588 0.849912 0
M  V30 4308 O 401.565 -1.81676 -0.173204 0
M  V30 4309 C 401.616 -1.47684 3.29957 0
M  V30 4310 O 401.337 -0.554222 4.3458 0
M  V30 4311 C 402.838 -2.27477 3.80485 0
M  V30 4312 H 400.058 -0.203317 0.639455 0
M  V30 4313 H 402.602 0.0207653 2.04489 0
M  V30 4314 H 400.757 -2.17412 3.20641 0
M  V30 4315 H 401.171 -1.08232 5.13212 0
M  V30 4316 H 402.645 -2.7564 4.78254 0
M  V30 4317 H 403.122 -3.09144 3.11972 0
M  V30 4318 H 403.728 -1.62813 3.92902 0
M  V30 4319 N 402.043 -1.548 -0.295768 0
M  V30 4320 C 403.454 -1.65274 -0.868411 0
M  V30 4321 C 403.805 -0.56481 -1.87894 0
M  V30 4322 O 402.93 0.29767 -2.14343 0
M  V30 4323 C 403.525 -2.99603 -1.58188 0
M  V30 4324 C 402.084 -3.12181 -2.10286 0
M  V30 4325 C 401.231 -2.6098 -0.93727 0
M  V30 4326 H 404.182 -1.58534 -0.0726422 0
M  V30 4327 H 404.203 -2.91319 -2.44772 0
M  V30 4328 H 403.715 -3.78764 -0.846151 0
M  V30 4329 H 401.816 -2.3775 -2.8689 0
M  V30 4330 H 401.929 -4.18415 -2.33379 0
M  V30 4331 H 400.293 -2.17564 -1.32431 0
M  V30 4332 H 401.076 -3.42623 -0.215414 0
M  V30 4333 N 403.521 0.559213 -1.47345 0
M  V30 4334 C 404.746 1.34676 -1.57725 0
M  V30 4335 C 405.171 1.86723 -0.227164 0
M  V30 4336 O 404.529 1.6286 0.796642 0
M  V30 4337 C 404.577 2.49399 -2.60447 0
M  V30 4338 O 403.681 3.51567 -2.15578 0
M  V30 4339 H 403.022 0.400115 -0.52991 0
M  V30 4340 H 405.552 0.676009 -1.93109 0
M  V30 4341 H 405.562 2.95996 -2.80803 0
M  V30 4342 H 404.237 2.10873 -3.58477 0
M  V30 4343 H 402.814 3.11289 -2.05313 0
M  V30 4344 N 404.999 1.35443 0.805782 0
M  V30 4345 C 405.909 1.30546 1.94923 0
M  V30 4346 C 406.925 0.210233 1.72725 0
M  V30 4347 O 408.101 0.43975 1.9654 0
M  V30 4348 C 405.166 1.07782 3.29521 0
M  V30 4349 C 404.227 2.26625 3.64609 0
M  V30 4350 C 403.46 2.04938 4.92784 0
M  V30 4351 O 403.683 1.01624 5.61274 0
M  V30 4352 O 402.617 2.9232 5.26149 0
M  V30 4353 H 406.443 2.26779 2.02002 0
M  V30 4354 H 404.028 1.15823 0.943682 0
M  V30 4355 H 405.91 0.969392 4.10098 0
M  V30 4356 H 404.585 0.146003 3.23371 0
M  V30 4357 H 403.492 2.43033 2.84404 0
M  V30 4358 H 404.825 3.18257 3.75464 0
M  V30 4359 N 406.477 -1.02803 1.19454 0
M  V30 4360 C 407.724 -1.76217 0.997693 0
M  V30 4361 C 408.052 -1.887 -0.47144 0
M  V30 4362 O 407.307 -1.4011 -1.3663 0
M  V30 4363 C 407.606 -3.18941 1.6128 0
M  V30 4364 C 407.272 -3.26463 3.11019 0
M  V30 4365 C 405.934 -3.28223 3.51885 0
M  V30 4366 C 408.286 -3.25542 4.07028 0
M  V30 4367 C 405.614 -3.26719 4.8731 0
M  V30 4368 C 407.966 -3.25579 5.42385 0
M  V30 4369 C 406.63 -3.25637 5.82681 0
M  V30 4370 H 405.9 -0.644823 0.365082 0
M  V30 4371 H 408.547 -1.20655 1.4871 0
M  V30 4372 H 406.852 -3.77587 1.04572 0
M  V30 4373 H 408.549 -3.74415 1.43577 0
M  V30 4374 H 405.139 -3.25822 2.78457 0
M  V30 4375 H 409.323 -3.23362 3.76498 0
M  V30 4376 H 404.579 -3.25089 5.1781 0
M  V30 4377 H 408.753 -3.23817 6.16535 0
M  V30 4378 H 406.38 -3.24226 6.87591 0
M  V30 4379 N 407.956 -0.998596 -1.21925 0
M  V30 4380 C 409.186 -0.695276 -1.94549 0
M  V30 4381 C 409.594 0.745079 -1.73911 0
M  V30 4382 O 408.937 1.51507 -1.03881 0
M  V30 4383 C 408.999 -0.928485 -3.47303 0
M  V30 4384 C 408.663 -2.35443 -3.91683 0
M  V30 4385 C 409.66 -3.33428 -3.98901 0
M  V30 4386 C 407.345 -2.69038 -4.24174 0
M  V30 4387 C 409.339 -4.63079 -4.37992 0
M  V30 4388 C 407.026 -3.98906 -4.62944 0
M  V30 4389 C 408.024 -4.95738 -4.69822 0
M  V30 4390 O 407.712 -6.23285 -5.07711 0
M  V30 4391 H 407.444 -0.255902 -0.625692 0
M  V30 4392 H 409.998 -1.33767 -1.5587 0
M  V30 4393 H 408.228 -0.228917 -3.86022 0
M  V30 4394 H 409.917 -0.619539 -4.01144 0
M  V30 4395 H 410.683 -3.08807 -3.73983 0
M  V30 4396 H 406.562 -1.94367 -4.18022 0
M  V30 4397 H 410.106 -5.38658 -4.43275 0
M  V30 4398 H 406.003 -4.23314 -4.87314 0
M  V30 4399 H 406.771 -6.27306 -5.25766 0
M  V30 4400 N 409.434 1.37368 -0.772513 0
M  V30 4401 C 410.682 1.99279 -0.336516 0
M  V30 4402 C 411.003 1.6163 1.09091 0
M  V30 4403 O 410.273 0.882109 1.74916 0
M  V30 4404 H 408.853 0.737063 -0.121435 0
M  V30 4405 H 411.515 1.67836 -0.990809 0
M  V30 4406 H 410.611 3.09332 -0.414763 0
M  V30 4407 N 410.912 0.523116 1.48665 0
M  V30 4408 C 412.158 -0.0134963 2.02796 0
M  V30 4409 C 412.491 -1.34582 1.40004 0
M  V30 4410 O 411.766 -1.86756 0.543381 0
M  V30 4411 C 412.049 -0.14276 3.59817 0
M  V30 4412 C 411.902 1.21425 4.331 0
M  V30 4413 C 413.221 -0.872856 4.31357 0
M  V30 4414 H 410.34 -0.00343074 0.736992 0
M  V30 4415 H 412.982 0.678816 1.7746 0
M  V30 4416 H 411.132 -0.732401 3.81534 0
M  V30 4417 H 412.804 1.84447 4.2282 0
M  V30 4418 H 411.047 1.79791 3.94788 0
M  V30 4419 H 411.718 1.07687 5.41394 0
M  V30 4420 H 414.194 -0.372555 4.14429 0
M  V30 4421 H 413.07 -0.932185 5.40927 0
M  V30 4422 H 413.331 -1.92161 3.98154 0
M  V30 4423 N 412.39 -1.55475 0.257931 0
M  V30 4424 C 413.353 -2.20551 -0.623706 0
M  V30 4425 C 414.353 -1.17809 -1.09443 0
M  V30 4426 O 415.543 -1.42823 -0.997362 0
M  V30 4427 C 412.675 -2.85784 -1.8585 0
M  V30 4428 H 413.868 -2.99848 -0.0557743 0
M  V30 4429 H 411.421 -1.56298 0.0084422 0
M  V30 4430 H 412.156 -2.10453 -2.46739 0
M  V30 4431 H 411.941 -3.61057 -1.52907 0
M  V30 4432 H 413.431 -3.35553 -2.48584 0
M  V30 4433 N 413.868 0.0150385 -1.57593 0
M  V30 4434 C 415.279 0.559832 -1.78109 0
M  V30 4435 C 415.63 1.74814 -0.890756 0
M  V30 4436 O 414.755 2.16216 -0.0892482 0
M  V30 4437 C 415.35 1.02238 -3.23006 0
M  V30 4438 C 413.909 1.51258 -3.44671 0
M  V30 4439 C 413.056 0.456955 -2.73509 0
M  V30 4440 H 416.007 -0.211169 -1.57289 0
M  V30 4441 H 416.028 1.88912 -3.30292 0
M  V30 4442 H 415.54 0.157302 -3.87781 0
M  V30 4443 H 413.641 2.39905 -2.8509 0
M  V30 4444 H 413.754 1.55042 -4.5332 0
M  V30 4445 H 412.118 0.915196 -2.37689 0
M  V30 4446 H 412.901 -0.398896 -3.40975 0
M  V30 4447 N 415.346 1.54954 0.287554 0
M  V30 4448 C 416.571 1.79209 1.04397 0
M  V30 4449 C 416.996 0.556431 1.79682 0
M  V30 4450 O 416.354 -0.493518 1.74454 0
M  V30 4451 C 416.402 3.00739 1.98969 0
M  V30 4452 O 415.506 2.74805 3.075 0
M  V30 4453 H 414.847 0.592755 0.299227 0
M  V30 4454 H 417.377 2.02068 0.320886 0
M  V30 4455 H 417.387 3.29077 2.4119 0
M  V30 4456 H 416.062 3.90329 1.43582 0
M  V30 4457 H 414.639 2.57523 2.69697 0
M  V30 4458 N 416.824 -0.551391 1.4764 0
M  V30 4459 C 417.754 -1.66757 1.63445 0
M  V30 4460 C 418.735 -1.63077 0.483742 0
M  V30 4461 O 419.92 -1.80607 0.71377 0
M  V30 4462 C 417.05 -3.05387 1.65396 0
M  V30 4463 C 416.004 -3.23918 2.79752 0
M  V30 4464 C 415.33 -4.63393 2.66779 0
M  V30 4465 C 416.63 -3.08735 4.21284 0
M  V30 4466 H 418.324 -1.53786 2.56886 0
M  V30 4467 H 415.87 -0.738415 1.23626 0
M  V30 4468 H 417.823 -3.83325 1.75043 0
M  V30 4469 H 416.547 -3.19332 0.685195 0
M  V30 4470 H 415.206 -2.48391 2.69625 0
M  V30 4471 H 414.854 -4.74144 1.67918 0
M  V30 4472 H 414.554 -4.7674 3.43501 0
M  V30 4473 H 416.078 -5.43458 2.78364 0
M  V30 4474 H 417.492 -3.76484 4.32357 0
M  V30 4475 H 415.889 -3.33588 4.98838 0
M  V30 4476 H 416.959 -2.0541 4.39243 0
M  V30 4477 N 418.302 -1.35869 -0.798587 0
M  V30 4478 C 419.548 -1.30788 -1.55775 0
M  V30 4479 C 419.903 0.114558 -1.92059 0
M  V30 4480 O 419.196 1.06691 -1.59147 0
M  V30 4481 C 419.39 -2.1556 -2.85077 0
M  V30 4482 C 419.219 -3.65904 -2.61428 0
M  V30 4483 C 417.989 -4.35112 -2.56915 0
M  V30 4484 C 420.187 -4.59375 -2.31255 0
M  V30 4485 N 418.169 -5.71155 -2.25068 0
M  V30 4486 C 419.54 -5.83598 -2.09316 0
M  V30 4487 C 421.595 -4.48035 -2.17185 0
M  V30 4488 C 420.298 -6.97755 -1.74731 0
M  V30 4489 C 422.324 -5.62049 -1.83998 0
M  V30 4490 C 421.686 -6.85305 -1.629 0
M  V30 4491 H 417.785 -0.533855 -0.571422 0
M  V30 4492 H 420.369 -1.7083 -0.934079 0
M  V30 4493 H 418.54 -1.77776 -3.45326 0
M  V30 4494 H 420.272 -2.01938 -3.50718 0
M  V30 4495 H 417.027 -3.87812 -2.71843 0
M  V30 4496 H 417.451 -6.42978 -2.11916 0
M  V30 4497 H 422.093 -3.53338 -2.3219 0
M  V30 4498 H 419.811 -7.92411 -1.58464 0
M  V30 4499 H 423.397 -5.55232 -1.73808 0
M  V30 4500 H 422.277 -7.72034 -1.37596 0
M  V30 4501 N 419.78 1.02168 -1.19998 0
M  V30 4502 C 420.71 2.12488 -0.96804 0
M  V30 4503 C 421.691 1.69799 0.101185 0
M  V30 4504 O 422.876 1.94121 -0.0552993 0
M  V30 4505 C 420.006 3.43479 -0.513776 0
M  V30 4506 C 418.96 3.99884 -1.52566 0
M  V30 4507 C 418.286 5.26582 -0.928214 0
M  V30 4508 C 419.586 4.33861 -2.90795 0
M  V30 4509 H 421.28 2.32149 -1.89069 0
M  V30 4510 H 418.826 1.11564 -0.910468 0
M  V30 4511 H 420.779 4.20036 -0.338774 0
M  V30 4512 H 419.503 3.23561 0.444493 0
M  V30 4513 H 418.162 3.25429 -1.68794 0
M  V30 4514 H 417.81 5.02986 0.0378289 0
M  V30 4515 H 417.51 5.65284 -1.60397 0
M  V30 4516 H 419.034 6.05799 -0.764167 0
M  V30 4517 H 420.448 5.01327 -2.78109 0
M  V30 4518 H 418.845 4.83664 -3.55231 0
M  V30 4519 H 419.915 3.42848 -3.42904 0
M  V30 4520 N 421.258 1.00505 1.21394 0
M  V30 4521 C 422.506 0.686415 1.90086 0
M  V30 4522 C 422.827 -0.785264 1.7849 0
M  V30 4523 O 422.097 -1.56387 1.17983 0
M  V30 4524 H 420.677 0.2509 0.703604 0
M  V30 4525 H 423.339 1.27417 1.47482 0
M  V30 4526 H 422.435 0.959621 2.96981 0
M  V30 4527 N 422.737 -1.36956 0.779787 0
M  V30 4528 C 423.684 -2.30175 0.169697 0
M  V30 4529 C 424.654 -1.51501 -0.68094 0
M  V30 4530 O 425.839 -1.80042 -0.631629 0
M  V30 4531 C 422.979 -3.37985 -0.697131 0
M  V30 4532 C 422.092 -4.31661 0.170992 0
M  V30 4533 C 421.227 -5.2655 -0.701298 0
M  V30 4534 C 420.266 -6.11867 0.168869 0
M  V30 4535 N 419.403 -6.98973 -0.661855 0
M  V30 4536 H 424.243 -2.81767 0.970135 0
M  V30 4537 H 421.78 -1.38699 0.489994 0
M  V30 4538 H 423.738 -3.99128 -1.2146 0
M  V30 4539 H 422.368 -2.87739 -1.46309 0
M  V30 4540 H 421.42 -3.71756 0.80634 0
M  V30 4541 H 422.732 -4.91644 0.841875 0
M  V30 4542 H 421.886 -5.92937 -1.28494 0
M  V30 4543 H 420.625 -4.66998 -1.40584 0
M  V30 4544 H 419.63 -5.44452 0.764986 0
M  V30 4545 H 420.855 -6.73493 0.870863 0
M  V30 4546 H 418.801 -6.41941 -1.35086 0
M  V30 4547 H 418.718 -7.55984 -0.0484447 0
M  V30 4548 H 419.986 -7.6974 -1.22963 0
M  V30 4549 N 424.215 -0.530993 -1.48385 0
M  V30 4550 C 425.145 0.219985 -2.32461 0
M  V30 4551 C 426.126 0.934111 -1.42156 0
M  V30 4552 O 427.311 0.919694 -1.71042 0
M  V30 4553 C 424.441 1.26674 -3.23375 0
M  V30 4554 C 423.395 0.67069 -4.22712 0
M  V30 4555 C 422.721 1.82017 -5.02766 0
M  V30 4556 C 424.021 -0.358268 -5.2107 0
M  V30 4557 H 425.715 -0.48187 -2.95497 0
M  V30 4558 H 423.261 -0.233182 -1.42099 0
M  V30 4559 H 425.214 1.80006 -3.81019 0
M  V30 4560 H 423.938 1.99818 -2.58341 0
M  V30 4561 H 422.597 0.158878 -3.66256 0
M  V30 4562 H 422.245 2.54002 -4.34157 0
M  V30 4563 H 421.945 1.42727 -5.70003 0
M  V30 4564 H 423.469 2.35725 -5.63264 0
M  V30 4565 H 424.883 0.0880081 -5.73232 0
M  V30 4566 H 423.28 -0.66861 -5.96364 0
M  V30 4567 H 424.35 -1.26367 -4.68145 0
M  V30 4568 N 425.693 1.55336 -0.266172 0
M  V30 4569 C 426.623 2.25146 0.618981 0
M  V30 4570 C 427.604 1.23845 1.16604 0
M  V30 4571 O 428.789 1.52544 1.20183 0
M  V30 4572 C 425.919 2.96572 1.80728 0
M  V30 4573 C 424.873 4.04726 1.39215 0
M  V30 4574 C 424.199 4.63678 2.66283 0
M  V30 4575 C 425.499 5.19407 0.548942 0
M  V30 4576 H 427.193 2.99377 0.0368116 0
M  V30 4577 H 424.739 1.43991 0.0162651 0
M  V30 4578 H 426.692 3.44116 2.43232 0
M  V30 4579 H 425.416 2.19861 2.41514 0
M  V30 4580 H 424.075 3.57979 0.790351 0
M  V30 4581 H 423.723 3.83646 3.25308 0
M  V30 4582 H 423.423 5.367 2.39222 0
M  V30 4583 H 424.947 5.13967 3.29651 0
M  V30 4584 H 426.361 5.63059 1.07876 0
M  V30 4585 H 424.758 5.98936 0.373593 0
M  V30 4586 H 425.828 4.8295 -0.434394 0
M  V30 4587 N 427.171 -0.0066808 1.57599 0
M  V30 4588 C 428.587 -0.36267 1.55425 0
M  V30 4589 C 428.787 -1.75209 0.995187 0
M  V30 4590 O 427.843 -2.44616 0.626058 0
M  V30 4591 C 429.156 -0.244017 2.99708 0
M  V30 4592 C 430.704 -0.319451 3.11366 0
M  V30 4593 C 431.179 -0.229998 4.57422 0
M  V30 4594 N 432.67 -0.288105 4.62303 0
M  V30 4595 C 433.405 -0.242127 5.72889 0
M  V30 4596 N 432.901 -0.147133 6.92644 0
M  V30 4597 N 434.694 -0.293502 5.61333 0
M  V30 4598 H 426.845 0.902314 1.92281 0
M  V30 4599 H 429.108 0.34525 0.882896 0
M  V30 4600 H 428.814 0.711678 3.44424 0
M  V30 4601 H 428.688 -1.02877 3.629 0
M  V30 4602 H 431.075 -1.26559 2.66584 0
M  V30 4603 H 431.156 0.495055 2.50964 0
M  V30 4604 H 430.8 0.712566 5.02877 0
M  V30 4605 H 430.73 -1.0629 5.15761 0
M  V30 4606 H 433.221 -0.363126 3.76151 0
M  V30 4607 H 433.534 -0.117763 7.7271 0
M  V30 4608 H 431.879 -0.112857 6.94908 0
M  V30 4609 H 435.07 -0.365864 4.66668 0
M  V30 4610 H 435.243 -0.254204 6.47501 0
M  V30 4611 N 428.649 -1.55105 -0.279332 0
M  V30 4612 C 429.579 -1.90557 -1.34945 0
M  V30 4613 C 430.56 -0.766738 -1.51839 0
M  V30 4614 O 431.745 -1.02434 -1.64988 0
M  V30 4615 C 428.875 -2.17193 -2.71006 0
M  V30 4616 C 427.829 -3.33021 -2.68851 0
M  V30 4617 C 427.155 -3.45123 -4.08405 0
M  V30 4618 C 428.455 -4.69578 -2.28678 0
M  V30 4619 H 430.149 -2.80188 -1.05522 0
M  V30 4620 H 427.695 -1.34811 -0.506173 0
M  V30 4621 H 429.648 -2.40581 -3.45975 0
M  V30 4622 H 428.372 -1.24355 -3.01999 0
M  V30 4623 H 427.031 -3.0959 -1.9634 0
M  V30 4624 H 426.679 -2.49762 -4.3661 0
M  V30 4625 H 426.379 -4.22995 -4.07859 0
M  V30 4626 H 427.903 -3.70796 -4.85121 0
M  V30 4627 H 429.317 -4.92553 -2.93368 0
M  V30 4628 H 427.714 -5.5032 -2.39306 0
M  V30 4629 H 428.784 -4.68828 -1.23807 0
M  V30 4630 N 430.127 0.543554 -1.4793 0
M  V30 4631 C 431.09 1.63156 -1.60975 0
M  V30 4632 C 432.09 1.53346 -0.483899 0
M  V30 4633 O 433.28 1.5726 -0.749339 0
M  V30 4634 C 430.412 3.02743 -1.56716 0
M  V30 4635 H 431.605 1.52934 -2.57975 0
M  V30 4636 H 429.158 0.764557 -1.36324 0
M  V30 4637 H 429.893 3.18484 -0.611418 0
M  V30 4638 H 429.678 3.11272 -2.38438 0
M  V30 4639 H 431.168 3.81871 -1.6901 0
M  V30 4640 N 431.605 1.3629 0.791371 0
M  V30 4641 C 432.853 1.30154 1.5461 0
M  V30 4642 C 433.174 -0.119409 1.94634 0
M  V30 4643 O 432.444 -1.05924 1.64794 0
M  V30 4644 H 431.024 0.478784 0.573389 0
M  V30 4645 H 433.686 1.70565 0.94306 0
M  V30 4646 H 432.782 1.92762 2.45457 0
M  V30 4647 N 433.083 -1.0153 1.20538 0
M  V30 4648 C 434.046 -2.0826 0.957098 0
M  V30 4649 C 435.046 -1.60657 -0.0678655 0
M  V30 4650 O 436.236 -1.73385 0.168332 0
M  V30 4651 C 433.368 -3.38033 0.441188 0
M  V30 4652 H 434.561 -2.31719 1.90384 0
M  V30 4653 H 432.114 -1.1835 1.02093 0
M  V30 4654 H 432.849 -3.20249 -0.510961 0
M  V30 4655 H 432.634 -3.73911 1.18038 0
M  V30 4656 H 434.124 -4.16613 0.287009 0
M  V30 4657 N 434.561 -1.01147 -1.20859 0
M  V30 4658 C 435.838 -0.613136 -1.85742 0
M  V30 4659 C 436.218 0.909004 -1.90526 0
M  V30 4660 O 435.566 1.79862 -1.40932 0
M  V30 4661 C 435.776 -1.255 -3.25654 0
M  V30 4662 C 437.124 -1.3672 -4.01986 0
M  V30 4663 O 438.148 -1.21082 -3.34989 0
M  V30 4664 O 437.007 -1.6194 -5.21956 0
M  V30 4665 H 434.101 -0.210878 -0.799662 0
M  V30 4666 H 436.647 -1.10853 -1.2849 0
M  V30 4667 H 435.419 -2.29532 -3.16908 0
M  V30 4668 H 435.042 -0.746369 -3.90532 0
M  V30 4669 N 436.039 1.36541 -0.78704 0
M  V30 4670 C 437.286 1.99304 -0.358341 0
M  V30 4671 C 437.614 1.62467 1.06933 0
M  V30 4672 O 436.869 0.870019 1.75297 0
M  V30 4673 C 437.168 3.54343 -0.466485 0
M  V30 4674 C 436.834 4.10993 -1.85461 0
M  V30 4675 C 435.496 4.26177 -2.23443 0
M  V30 4676 C 437.848 4.41895 -2.76366 0
M  V30 4677 C 435.176 4.69573 -3.51736 0
M  V30 4678 C 437.528 4.86722 -4.04084 0
M  V30 4679 C 436.192 5.00112 -4.42091 0
M  V30 4680 H 435.462 0.729306 -0.131126 0
M  V30 4681 H 438.109 1.63068 -1.00404 0
M  V30 4682 H 436.414 3.90918 0.262719 0
M  V30 4683 H 438.111 4.00833 -0.115854 0
M  V30 4684 H 434.701 3.99612 -1.54946 0
M  V30 4685 H 438.885 4.29735 -2.48277 0
M  V30 4686 H 434.141 4.78127 -3.81057 0
M  V30 4687 H 438.315 5.09598 -4.7464 0
M  V30 4688 H 435.942 5.33498 -5.41557 0
M  V30 4689 N 437.518 0.538854 1.48102 0
M  V30 4690 C 438.764 0.00801365 2.02798 0
M  V30 4691 C 439.097 -1.3309 1.41424 0
M  V30 4692 O 438.372 -1.86169 0.563158 0
M  V30 4693 C 438.655 -0.104589 3.59948 0
M  V30 4694 C 438.508 1.26012 4.31788 0
M  V30 4695 C 439.827 -0.827055 4.32259 0
M  V30 4696 H 436.946 0.00438624 0.736987 0
M  V30 4697 H 439.588 0.6976 1.7673 0
M  V30 4698 H 437.738 -0.691893 3.82289 0
M  V30 4699 H 439.41 1.88922 4.2084 0
M  V30 4700 H 437.653 1.83968 3.92859 0
M  V30 4701 H 438.324 1.13424 5.40221 0
M  V30 4702 H 440.8 -0.328578 4.14801 0
M  V30 4703 H 439.676 -0.87476 5.41885 0
M  V30 4704 H 439.937 -1.87927 4.0017 0
M  V30 4705 N 438.996 -1.55193 0.274407 0
M  V30 4706 C 439.926 -2.25471 -0.607032 0
M  V30 4707 C 440.907 -1.24461 -1.15946 0
M  V30 4708 O 442.092 -1.53179 -1.19373 0
M  V30 4709 C 439.222 -2.97526 -1.79153 0
M  V30 4710 C 438.176 -4.05459 -1.37067 0
M  V30 4711 C 437.502 -4.65084 -2.6382 0
M  V30 4712 C 438.802 -5.19691 -0.521389 0
M  V30 4713 H 440.496 -2.99393 -0.0209343 0
M  V30 4714 H 438.042 -1.43997 -0.00862866 0
M  V30 4715 H 439.995 -3.45402 -2.41404 0
M  V30 4716 H 438.719 -2.21138 -2.40344 0
M  V30 4717 H 437.378 -3.58393 -0.771355 0
M  V30 4718 H 437.026 -3.85365 -3.23268 0
M  V30 4719 H 436.726 -5.37961 -2.36372 0
M  V30 4720 H 438.25 -5.15708 -3.26921 0
M  V30 4721 H 439.664 -5.63623 -1.04889 0
M  V30 4722 H 438.061 -5.99126 -0.341825 0
M  V30 4723 H 439.131 -4.82713 0.46 0
M  V30 4724 N 440.474 -0.00167713 -1.576 0
M  V30 4725 C 441.721 0.68282 -1.90641 0
M  V30 4726 C 442.049 1.73686 -0.875415 0
M  V30 4727 O 441.304 1.95334 0.119575 0
M  V30 4728 C 441.603 1.36189 -3.30435 0
M  V30 4729 C 441.269 0.440887 -4.48739 0
M  V30 4730 C 439.931 0.187312 -4.80835 0
M  V30 4731 C 442.283 -0.193134 -5.20842 0
M  V30 4732 C 439.611 -0.70855 -5.82406 0
M  V30 4733 C 441.963 -1.07688 -6.23367 0
M  V30 4734 C 440.627 -1.33962 -6.53919 0
M  V30 4735 H 439.897 0.249862 -0.697603 0
M  V30 4736 H 442.544 -0.0575642 -1.91413 0
M  V30 4737 H 440.849 2.17636 -3.25794 0
M  V30 4738 H 442.546 1.89759 -3.5326 0
M  V30 4739 H 439.136 0.648694 -4.23663 0
M  V30 4740 H 443.32 -0.0102445 -4.96299 0
M  V30 4741 H 438.576 -0.920097 -6.04437 0
M  V30 4742 H 442.75 -1.57451 -6.78367 0
M  V30 4743 H 440.377 -2.03549 -7.32442 0
M  V30 4744 N 441.952 1.55251 0.271103 0
M  V30 4745 C 443.363 1.66635 0.842007 0
M  V30 4746 C 443.714 0.594631 1.86972 0
M  V30 4747 O 442.839 -0.263532 2.14789 0
M  V30 4748 C 443.434 3.02082 1.53401 0
M  V30 4749 C 441.993 3.15487 2.05293 0
M  V30 4750 C 441.14 2.62438 0.895631 0
M  V30 4751 H 444.091 1.58629 0.0474117 0
M  V30 4752 H 444.112 2.95176 2.40107 0
M  V30 4753 H 443.624 3.80062 0.785786 0
M  V30 4754 H 441.725 2.42284 2.83071 0
M  V30 4755 H 441.838 4.22075 2.26693 0
M  V30 4756 H 440.202 2.19644 1.28953 0
M  V30 4757 H 440.985 3.42923 0.160878 0
M  V30 4758 N 443.43 -0.535701 1.48216 0
M  V30 4759 C 444.655 -1.32149 1.59848 0
M  V30 4760 C 445.08 -1.86338 0.256842 0
M  V30 4761 O 444.438 -1.64107 -0.770632 0
M  V30 4762 C 444.486 -2.45224 2.64381 0
M  V30 4763 O 443.59 -3.48093 2.21144 0
M  V30 4764 H 442.931 -0.391634 0.536208 0
M  V30 4765 H 445.461 -0.645202 1.94161 0
M  V30 4766 H 445.471 -2.91491 2.85476 0
M  V30 4767 H 444.146 -2.05143 3.61786 0
M  V30 4768 H 442.723 -3.07984 2.10239 0
M  V30 4769 N 444.908 -1.36708 -0.784132 0
M  V30 4770 C 446.319 -1.27947 -1.35965 0
M  V30 4771 C 446.67 0.0784013 -1.96043 0
M  V30 4772 O 445.795 0.979989 -1.92938 0
M  V30 4773 C 446.39 -2.31689 -2.47195 0
M  V30 4774 C 444.949 -2.26601 -3.00548 0
M  V30 4775 C 444.096 -2.16184 -1.73666 0
M  V30 4776 H 447.047 -1.4751 -0.585358 0
M  V30 4777 H 447.068 -1.95638 -3.26352 0
M  V30 4778 H 446.58 -3.30506 -2.03439 0
M  V30 4779 H 444.681 -1.31268 -3.48711 0
M  V30 4780 H 444.794 -3.19508 -3.57004 0
M  V30 4781 H 443.158 -1.62524 -1.96107 0
M  V30 4782 H 443.941 -3.16896 -1.32031 0
M  V30 4783 N 446.386 1.0089 -1.21074 0
M  V30 4784 C 447.616 1.77933 -1.04993 0
M  V30 4785 C 448.024 1.84847 0.403495 0
M  V30 4786 O 447.367 1.30606 1.29181 0
M  V30 4787 C 447.429 3.23541 -1.56722 0
M  V30 4788 C 447.093 3.40214 -3.05129 0
M  V30 4789 C 448.09 3.2881 -4.02716 0
M  V30 4790 C 445.775 3.65781 -3.44252 0
M  V30 4791 C 447.769 3.42732 -5.37414 0
M  V30 4792 C 445.456 3.79346 -4.79103 0
M  V30 4793 C 446.454 3.67827 -5.75493 0
M  V30 4794 O 446.142 3.80965 -7.07899 0
M  V30 4795 H 445.874 0.566157 -0.369381 0
M  V30 4796 H 448.428 1.27826 -1.60779 0
M  V30 4797 H 446.658 3.74766 -0.953285 0
M  V30 4798 H 448.347 3.82245 -1.36543 0
M  V30 4799 H 449.113 3.08986 -3.73835 0
M  V30 4800 H 444.992 3.73831 -2.69762 0
M  V30 4801 H 448.536 3.33658 -6.12632 0
M  V30 4802 H 444.433 3.98672 -5.07672 0
M  V30 4803 H 445.201 3.97937 -7.15254 0
M  V30 4804 N 447.864 1.01787 1.20321 0
M  V30 4805 C 449.112 0.706538 1.89347 0
M  V30 4806 C 449.433 -0.766289 1.79313 0
M  V30 4807 O 448.703 -1.55126 1.19635 0
M  V30 4808 H 447.283 0.258348 0.700903 0
M  V30 4809 H 449.945 1.28974 1.46122 0
M  V30 4810 H 449.041 0.991066 2.95946 0
M  V30 4811 N 449.342 -1.36122 0.79427 0
M  V30 4812 C 450.567 -2.03891 0.379871 0
M  V30 4813 C 450.992 -1.59488 -0.997251 0
M  V30 4814 O 450.35 -0.765652 -1.64339 0
M  V30 4815 C 450.398 -3.57687 0.457442 0
M  V30 4816 O 449.502 -4.08931 -0.5338 0
M  V30 4817 H 448.843 -0.6443 0.160541 0
M  V30 4818 H 451.373 -1.73976 1.07673 0
M  V30 4819 H 451.383 -4.06721 0.322792 0
M  V30 4820 H 450.058 -3.89357 1.46199 0
M  V30 4821 H 448.635 -3.71154 -0.360409 0
M  V30 4822 N 450.82 -0.546701 -1.47814 0
M  V30 4823 C 452.066 -0.0187684 -2.02791 0
M  V30 4824 C 452.399 1.32338 -1.42128 0
M  V30 4825 O 451.674 1.85867 -0.573023 0
M  V30 4826 C 451.957 0.0854985 -3.59998 0
M  V30 4827 C 451.81 -1.283 -4.31114 0
M  V30 4828 C 453.129 0.80412 -4.32691 0
M  V30 4829 H 450.248 -0.0082946 -0.736953 0
M  V30 4830 H 452.89 -0.706962 -1.76358 0
M  V30 4831 H 451.04 0.671609 -3.82651 0
M  V30 4832 H 452.712 -1.91151 -4.19832 0
M  V30 4833 H 450.955 -1.86049 -3.91878 0
M  V30 4834 H 451.626 -1.16287 -5.39612 0
M  V30 4835 H 454.102 0.306576 -4.14969 0
M  V30 4836 H 452.978 0.846011 -5.42341 0
M  V30 4837 H 453.239 1.85802 -4.01161 0
M  V30 4838 N 452.299 1.55045 -0.282633 0
M  V30 4839 C 453.262 2.21515 0.588539 0
M  V30 4840 C 454.262 1.19535 1.07554 0
M  V30 4841 O 455.452 1.44391 0.974514 0
M  V30 4842 C 452.584 2.88704 1.8128 0
M  V30 4843 H 453.777 2.99899 0.00806397 0
M  V30 4844 H 451.33 1.56265 -0.0333067 0
M  V30 4845 H 452.065 2.14352 2.43359 0
M  V30 4846 H 451.85 3.63443 1.47144 0
M  V30 4847 H 453.34 3.39465 2.43214 0
M  V30 4848 N 453.777 0.010035 1.57597 0
M  V30 4849 C 454.707 -0.976857 2.12084 0
M  V30 4850 C 455.688 -1.35191 1.03235 0
M  V30 4851 O 456.873 -1.43389 1.3097 0
M  V30 4852 C 454.003 -2.26548 2.63236 0
M  V30 4853 C 452.957 -2.03175 3.76701 0
M  V30 4854 C 452.283 -3.38138 4.14206 0
M  V30 4855 C 453.583 -1.38625 5.03568 0
M  V30 4856 H 455.277 -0.523145 2.94794 0
M  V30 4857 H 452.823 -0.250195 1.4181 0
M  V30 4858 H 454.776 -2.95952 2.99984 0
M  V30 4859 H 453.5 -2.74051 1.77661 0
M  V30 4860 H 452.159 -1.36195 3.40362 0
M  V30 4861 H 451.807 -3.83363 3.25641 0
M  V30 4862 H 451.507 -3.23312 4.90656 0
M  V30 4863 H 453.031 -4.08841 4.53521 0
M  V30 4864 H 454.445 -1.98 5.38023 0
M  V30 4865 H 452.842 -1.34256 5.84889 0
M  V30 4866 H 453.912 -0.356722 4.83586 0
M  V30 4867 N 455.255 -1.55392 -0.262866 0
M  V30 4868 C 456.165 -1.92077 -1.34698 0
M  V30 4869 C 457.181 -0.819227 -1.53508 0
M  V30 4870 O 458.357 -1.11921 -1.67439 0
M  V30 4871 C 455.422 -2.19407 -2.68443 0
M  V30 4872 C 454.483 -3.42905 -2.58292 0
M  V30 4873 C 453.716 -3.68921 -3.85659 0
M  V30 4874 O 453.939 -2.97275 -4.8681 0
M  V30 4875 O 452.873 -4.62455 -3.85252 0
M  V30 4876 H 456.699 -2.84384 -1.06581 0
M  V30 4877 H 454.284 -1.42069 -0.462264 0
M  V30 4878 H 456.166 -2.38365 -3.47506 0
M  V30 4879 H 454.841 -1.30282 -2.96325 0
M  V30 4880 H 453.748 -3.29272 -1.7757 0
M  V30 4881 H 455.081 -4.32282 -2.35358 0
M  V30 4882 N 456.733 0.527833 -1.48498 0
M  V30 4883 C 458.149 0.856571 -1.34666 0
M  V30 4884 C 458.349 1.98271 -0.35931 0
M  V30 4885 O 457.405 2.51551 0.218703 0
M  V30 4886 C 458.718 1.22207 -2.74747 0
M  V30 4887 C 460.266 1.33183 -2.83251 0
M  V30 4888 C 460.741 1.73075 -4.24039 0
M  V30 4889 N 462.232 1.80174 -4.26722 0
M  V30 4890 C 462.967 2.1243 -5.32598 0
M  V30 4891 N 462.463 2.43096 -6.4875 0
M  V30 4892 N 464.256 2.13454 -5.19994 0
M  V30 4893 H 456.407 -0.215174 -2.11307 0
M  V30 4894 H 458.67 -0.0336281 -0.947403 0
M  V30 4895 H 458.376 0.468195 -3.4857 0
M  V30 4896 H 458.25 2.17173 -3.08409 0
M  V30 4897 H 460.637 2.07647 -2.09683 0
M  V30 4898 H 460.718 0.363333 -2.53206 0
M  V30 4899 H 460.362 0.991712 -4.98124 0
M  V30 4900 H 460.292 2.70979 -4.51529 0
M  V30 4901 H 462.783 1.58744 -3.42942 0
M  V30 4902 H 463.096 2.6682 -7.25277 0
M  V30 4903 H 461.441 2.40611 -6.52021 0
M  V30 4904 H 464.632 1.88956 -4.28268 0
M  V30 4905 H 464.805 2.38261 -6.02608 0
M  V30 4906 N 458.211 1.37122 0.776871 0
M  V30 4907 C 459.121 1.34651 1.9211 0
M  V30 4908 C 460.137 0.246824 1.7224 0
M  V30 4909 O 461.313 0.48134 1.95563 0
M  V30 4910 C 458.378 1.14748 3.2716 0
M  V30 4911 C 457.439 2.34308 3.5972 0
M  V30 4912 C 456.672 2.15345 4.88326 0
M  V30 4913 O 456.895 1.13507 5.58992 0
M  V30 4914 O 455.829 3.03414 5.1983 0
M  V30 4915 H 459.655 2.31013 1.97146 0
M  V30 4916 H 457.24 1.17799 0.918901 0
M  V30 4917 H 459.122 1.05616 4.0795 0
M  V30 4918 H 457.797 0.214562 3.22988 0
M  V30 4919 H 456.704 2.49011 2.79185 0
M  V30 4920 H 458.037 3.26149 3.68629 0
M  V30 4921 N 459.689 -1.00246 1.21608 0
M  V30 4922 C 460.621 -2.09244 0.935401 0
M  V30 4923 C 461.634 -1.62592 -0.0823594 0
M  V30 4924 O 462.823 -1.77865 0.150456 0
M  V30 4925 C 459.923 -3.36724 0.383453 0
M  V30 4926 C 459.096 -4.1245 1.45615 0
M  V30 4927 C 458.155 -5.18219 0.912991 0
M  V30 4928 O 457.181 -5.46337 1.59701 0
M  V30 4929 N 458.383 -5.7987 -0.270478 0
M  V30 4930 H 461.148 -2.33905 1.87373 0
M  V30 4931 H 458.709 -1.16748 1.12167 0
M  V30 4932 H 460.701 -4.047 0.00562157 0
M  V30 4933 H 459.271 -3.09201 -0.459758 0
M  V30 4934 H 458.491 -3.39241 2.00772 0
M  V30 4935 H 459.779 -4.59819 2.17817 0
M  V30 4936 H 459.177 -5.59381 -0.843195 0
M  V30 4937 H 457.734 -6.49126 -0.589794 0
M  V30 4938 N 461.167 -1.02423 -1.1978 0
M  V30 4939 C 462.13 -0.605703 -2.21052 0
M  V30 4940 C 463.13 0.328209 -1.57415 0
M  V30 4941 O 464.32 0.115853 -1.73814 0
M  V30 4942 C 461.452 0.114366 -3.40708 0
M  V30 4943 H 462.645 -1.5017 -2.59594 0
M  V30 4944 H 460.198 -0.814888 -1.33376 0
M  V30 4945 H 460.933 1.02492 -3.07678 0
M  V30 4946 H 460.718 -0.556641 -3.88129 0
M  V30 4947 H 462.208 0.394272 -4.15735 0
M  V30 4948 N 462.645 1.35699 -0.801477 0
M  V30 4949 C 463.575 2.32436 -0.222658 0
M  V30 4950 C 464.556 1.5723 0.649057 0
M  V30 4951 O 465.741 1.85324 0.580387 0
M  V30 4952 C 462.871 3.41469 0.633719 0
M  V30 4953 C 461.825 4.27774 -0.139083 0
M  V30 4954 C 461.151 5.28082 0.838666 0
M  V30 4955 C 462.451 5.04946 -1.33517 0
M  V30 4956 H 464.145 2.81094 -1.03086 0
M  V30 4957 H 461.691 1.35146 -0.497155 0
M  V30 4958 H 463.644 4.08143 1.04868 0
M  V30 4959 H 462.368 2.91408 1.47475 0
M  V30 4960 H 461.027 3.62673 -0.535156 0
M  V30 4961 H 460.675 4.7429 1.67506 0
M  V30 4962 H 460.375 5.86695 0.32594 0
M  V30 4963 H 461.899 5.97628 1.25194 0
M  V30 4964 H 463.313 5.64593 -0.995349 0
M  V30 4965 H 461.71 5.7303 -1.78202 0
M  V30 4966 H 462.78 4.35886 -2.12442 0
M  V30 4967 N 464.123 0.554532 1.47522 0
M  V30 4968 C 465.371 0.0294208 2.02079 0
M  V30 4969 C 465.692 -1.32411 1.43151 0
M  V30 4970 O 464.962 -1.863 0.605728 0
M  V30 4971 H 463.542 0.00788672 0.746958 0
M  V30 4972 H 466.204 0.723934 1.80956 0
M  V30 4973 H 465.3 -0.0606745 3.12041 0
M  V30 4974 N 465.601 -1.54893 0.290851 0
M  V30 4975 C 466.85 -1.99111 -0.322113 0
M  V30 4976 C 467.163 -1.18283 -1.55784 0
M  V30 4977 O 468.369 -1.5272 -2.24475 0
M  V30 4978 C 466.825 -3.54442 -0.624438 0
M  V30 4979 C 466.433 -4.44066 0.592373 0
M  V30 4980 C 468.177 -4.07211 -1.19916 0
M  V30 4981 C 466.084 -5.90812 0.263762 0
M  V30 4982 H 465.014 -0.743712 -0.124133 0
M  V30 4983 H 467.665 -1.79132 0.39797 0
M  V30 4984 H 466.047 -3.70281 -1.40384 0
M  V30 4985 H 467.221 -4.39999 1.36886 0
M  V30 4986 H 465.536 -4.02015 1.08502 0
M  V30 4987 H 468.133 -5.14407 -1.45909 0
M  V30 4988 H 468.476 -3.57196 -2.13815 0
M  V30 4989 H 469.009 -3.94873 -0.481687 0
M  V30 4990 H 465.748 -6.44955 1.17105 0
M  V30 4991 H 465.268 -5.97911 -0.475655 0
M  V30 4992 H 466.947 -6.46852 -0.138354 0
M  V30 4993 N 467.08 -0.0183926 -1.57589 0
M  V30 4994 C 468.043 0.951986 -2.08494 0
M  V30 4995 C 469.043 1.26092 -0.997874 0
M  V30 4996 O 470.233 1.20304 -1.25987 0
M  V30 4997 C 467.365 2.27165 -2.54182 0
M  V30 4998 H 468.558 0.511307 -2.95509 0
M  V30 4999 H 466.111 0.229444 -1.54607 0
M  V30 5000 H 466.846 2.75884 -1.70465 0
M  V30 5001 H 466.631 2.06057 -3.33591 0
M  V30 5002 H 468.121 2.9674 -2.93828 0
M  V30 5003 N 468.558 1.5553 0.254621 0
M  V30 5004 C 469.974 1.4778 0.602753 0
M  V30 5005 C 470.174 0.707047 1.88688 0
M  V30 5006 O 469.23 0.233288 2.5142 0
M  V30 5007 C 470.543 2.92133 0.712648 0
M  V30 5008 C 472.091 3.02458 0.805488 0
M  V30 5009 C 472.566 4.48102 0.947009 0
M  V30 5010 N 474.057 4.52008 1.01207 0
M  V30 5011 C 474.792 5.61939 1.1407 0
M  V30 5012 N 474.288 6.81697 1.23536 0
M  V30 5013 N 476.081 5.49719 1.17325 0
M  V30 5014 H 468.232 2.04085 -0.588463 0
M  V30 5015 H 470.495 0.926229 -0.202001 0
M  V30 5016 H 470.201 3.51332 -0.160766 0
M  V30 5017 H 470.075 3.42187 1.58707 0
M  V30 5018 H 472.462 2.43344 1.66936 0
M  V30 5019 H 472.543 2.55627 -0.0939266 0
M  V30 5020 H 472.187 5.07824 0.087725 0
M  V30 5021 H 472.117 4.92607 1.86135 0
M  V30 5022 H 474.608 3.65749 0.950577 0
M  V30 5023 H 474.921 7.61228 1.33236 0
M  V30 5024 H 473.266 6.84473 1.20508 0
M  V30 5025 H 476.457 4.55095 1.09573 0
M  V30 5026 H 476.63 6.35432 1.27005 0
M  V30 5027 N 470.036 -0.519951 1.48776 0
M  V30 5028 C 470.999 -1.60574 1.6355 0
M  V30 5029 C 471.999 -1.52557 0.508234 0
M  V30 5030 O 473.189 -1.56047 0.774262 0
M  V30 5031 C 470.321 -3.00211 1.61512 0
M  V30 5032 H 471.514 -1.4881 2.60376 0
M  V30 5033 H 469.067 -0.742772 1.37523 0
M  V30 5034 H 469.802 -3.17471 0.662009 0
M  V30 5035 H 469.587 -3.07439 2.43359 0
M  V30 5036 H 471.077 -3.79134 1.75064 0
M  V30 5037 N 471.514 -1.37532 -0.769588 0
M  V30 5038 C 472.444 -1.36172 -1.89682 0
M  V30 5039 C 473.425 -0.23001 -1.68538 0
M  V30 5040 O 474.61 -0.43069 -1.89364 0
M  V30 5041 C 471.74 -1.1701 -3.26995 0
M  V30 5042 C 470.694 -2.27216 -3.62708 0
M  V30 5043 C 470.02 -1.93174 -4.98586 0
M  V30 5044 C 471.32 -3.6941 -3.69234 0
M  V30 5045 H 473.014 -2.30499 -1.91078 0
M  V30 5046 H 470.56 -1.10953 -0.917902 0
M  V30 5047 H 472.513 -1.14688 -4.05493 0
M  V30 5048 H 471.237 -0.191395 -3.26039 0
M  V30 5049 H 469.896 -2.28697 -2.86519 0
M  V30 5050 H 469.544 -0.938281 -4.94171 0
M  V30 5051 H 469.244 -2.66973 -5.23449 0
M  V30 5052 H 470.768 -1.92443 -5.79481 0
M  V30 5053 H 472.182 -3.70047 -4.37879 0
M  V30 5054 H 470.579 -4.4228 -4.05597 0
M  V30 5055 H 471.649 -4.0288 -2.69844 0
M  V30 5056 N 472.992 0.995999 -1.22138 0
M  V30 5057 C 474.22 1.77066 -1.07029 0
M  V30 5058 C 474.635 1.8495 0.379357 0
M  V30 5059 O 473.992 1.3174 1.26297 0
M  V30 5060 C 474.043 3.20533 -1.67155 0
M  V30 5061 O 473.764 3.13082 -3.06449 0
M  V30 5062 C 475.265 4.14461 -1.5728 0
M  V30 5063 H 472.485 0.556179 -0.375374 0
M  V30 5064 H 475.029 1.25238 -1.61666 0
M  V30 5065 H 473.184 3.6944 -1.16589 0
M  V30 5066 H 473.598 4.03283 -3.35355 0
M  V30 5067 H 475.072 5.1289 -2.04078 0
M  V30 5068 H 475.549 4.36005 -0.528795 0
M  V30 5069 H 476.155 3.71449 -2.07136 0
M  V30 5070 N 474.47 1.03057 1.19235 0
M  V30 5071 C 475.747 0.642608 1.84743 0
M  V30 5072 C 476.127 -0.878577 1.91948 0
M  V30 5073 O 475.475 -1.77597 1.43776 0
M  V30 5074 C 475.685 1.30665 3.23616 0
M  V30 5075 C 477.033 1.43098 3.9976 0
M  V30 5076 O 478.057 1.26396 3.3302 0
M  V30 5077 O 476.916 1.70223 5.19313 0
M  V30 5078 H 474.01 0.223573 0.796206 0
M  V30 5079 H 476.556 1.12883 1.26711 0
M  V30 5080 H 475.328 2.34544 3.13217 0
M  V30 5081 H 474.951 0.808405 3.89295 0
M  V30 5082 N 475.948 -1.35272 0.808662 0
M  V30 5083 C 477.225 -1.93077 0.313181 0
M  V30 5084 C 477.605 -1.73847 -1.19752 0
M  V30 5085 O 476.953 -1.1087 -1.998 0
M  V30 5086 C 477.163 -3.41347 0.726859 0
M  V30 5087 C 478.511 -4.18493 0.717532 0
M  V30 5088 O 479.535 -3.4987 0.668535 0
M  V30 5089 O 478.394 -5.40937 0.777779 0
M  V30 5090 H 475.488 -0.822885 0.0824018 0
M  V30 5091 H 478.034 -1.44335 0.892499 0
M  V30 5092 H 476.806 -3.49082 1.76797 0
M  V30 5093 H 476.429 -3.97411 0.122461 0
M  V30 5094 N 477.426 -0.562348 -1.47226 0
M  V30 5095 C 478.358 0.220011 -2.28142 0
M  V30 5096 C 479.371 0.874596 -1.37312 0
M  V30 5097 O 480.56 0.747583 -1.62091 0
M  V30 5098 C 477.66 1.32953 -3.11732 0
M  V30 5099 C 476.833 0.770759 -4.30556 0
M  V30 5100 C 475.892 1.76541 -4.95701 0
M  V30 5101 O 474.918 1.3095 -5.53932 0
M  V30 5102 N 476.12 3.09896 -4.90861 0
M  V30 5103 H 478.885 -0.474107 -2.95926 0
M  V30 5104 H 476.446 -0.398761 -1.56912 0
M  V30 5105 H 478.438 1.99378 -3.5218 0
M  V30 5106 H 477.008 1.92681 -2.46156 0
M  V30 5107 H 476.228 -0.0704056 -3.94137 0
M  V30 5108 H 477.516 0.376872 -5.07402 0
M  V30 5109 H 476.914 3.49577 -4.44761 0
M  V30 5110 H 475.471 3.71865 -5.35313 0
M  V30 5111 N 478.904 1.54736 -0.299062 0
M  V30 5112 C 479.814 2.27127 0.587413 0
M  V30 5113 C 480.83 1.30575 1.15005 0
M  V30 5114 O 482.006 1.63554 1.17525 0
M  V30 5115 C 479.071 2.99645 1.74395 0
M  V30 5116 C 478.132 4.11731 1.21559 0
M  V30 5117 C 477.365 4.80781 2.317 0
M  V30 5118 O 477.588 4.4918 3.51558 0
M  V30 5119 O 476.522 5.68226 1.98501 0
M  V30 5120 H 480.348 3.037 0.000250109 0
M  V30 5121 H 477.933 1.49256 -0.0655919 0
M  V30 5122 H 479.815 3.45138 2.4178 0
M  V30 5123 H 478.49 2.25969 2.31775 0
M  V30 5124 H 477.397 3.70641 0.507514 0
M  V30 5125 H 478.73 4.87379 0.687233 0
M  V30 5126 N 480.382 0.0267497 1.57577 0
M  V30 5127 C 481.793 -0.512413 1.79531 0
M  V30 5128 C 482.144 -1.72391 0.936791 0
M  V30 5129 O 481.269 -2.15903 0.146543 0
M  V30 5130 C 481.864 -0.936378 3.25603 0
M  V30 5131 C 480.423 -1.42067 3.4856 0
M  V30 5132 C 479.57 -0.384278 2.74624 0
M  V30 5133 H 482.521 0.252797 1.56674 0
M  V30 5134 H 482.542 -1.80088 3.35184 0
M  V30 5135 H 482.054 -0.0544332 3.88062 0
M  V30 5136 H 480.155 -2.32262 2.9135 0
M  V30 5137 H 480.268 -1.42968 4.57271 0
M  V30 5138 H 478.632 -0.851855 2.40032 0
M  V30 5139 H 479.415 0.489159 3.39797 0
M  V30 5140 N 481.861 -1.55662 -0.24637 0
M  V30 5141 C 483.108 -1.77519 -0.974335 0
M  V30 5142 C 483.436 -0.591165 -1.85298 0
M  V30 5143 O 482.691 0.425497 -1.91018 0
M  V30 5144 C 482.99 -3.04885 -1.86494 0
M  V30 5145 C 482.656 -4.36209 -1.14161 0
M  V30 5146 C 481.318 -4.71896 -0.941701 0
M  V30 5147 C 483.67 -5.17391 -0.628957 0
M  V30 5148 C 480.998 -5.86299 -0.216852 0
M  V30 5149 C 483.35 -6.32546 0.0824273 0
M  V30 5150 C 482.014 -6.66853 0.293807 0
M  V30 5151 H 481.284 -0.649588 -0.356535 0
M  V30 5152 H 483.931 -1.89934 -0.244394 0
M  V30 5153 H 482.236 -2.87484 -2.66196 0
M  V30 5154 H 483.933 -3.18994 -2.42989 0
M  V30 5155 H 480.523 -4.08174 -1.30736 0
M  V30 5156 H 484.707 -4.90276 -0.770943 0
M  V30 5157 H 479.963 -6.11385 -0.0426124 0
M  V30 5158 H 484.137 -6.94693 0.487292 0
M  V30 5159 H 481.764 -7.55349 0.857428 0
M  V30 5160 N 483.339 0.512053 -1.4905 0
M  V30 5161 C 484.302 1.59704 -1.64399 0
M  V30 5162 C 485.302 1.52285 -0.516317 0
M  V30 5163 O 486.492 1.55635 -0.782527 0
M  V30 5164 C 483.624 2.9935 -1.63102 0
M  V30 5165 H 484.817 1.47428 -2.61161 0
M  V30 5166 H 482.37 0.735469 -1.37915 0
M  V30 5167 H 483.105 3.17116 -0.678836 0
M  V30 5168 H 482.89 3.06144 -2.44986 0
M  V30 5169 H 484.38 3.782 -1.77072 0
M  V30 5170 N 484.817 1.37938 0.762283 0
M  V30 5171 C 486.233 1.18945 1.06415 0
M  V30 5172 C 486.433 0.0321163 2.01474 0
M  V30 5173 O 485.489 -0.624844 2.44647 0
M  V30 5174 C 486.802 2.51218 1.65258 0
M  V30 5175 C 488.35 2.57824 1.7747 0
M  V30 5176 C 488.825 3.90251 2.39725 0
M  V30 5177 N 490.316 3.91744 2.47166 0
M  V30 5178 C 491.051 4.90966 2.96209 0
M  V30 5179 N 490.547 6.00585 3.45354 0
M  V30 5180 N 492.34 4.78363 2.9517 0
M  V30 5181 H 484.491 2.11994 0.131301 0
M  V30 5182 H 486.754 0.940262 0.120879 0
M  V30 5183 H 486.46 3.36317 1.02878 0
M  V30 5184 H 486.334 2.68989 2.64433 0
M  V30 5185 H 488.721 1.73126 2.3898 0
M  V30 5186 H 488.802 2.43928 0.770241 0
M  V30 5187 H 488.446 4.75368 1.78852 0
M  V30 5188 H 488.376 4.01454 3.40796 0
M  V30 5189 H 490.867 3.12563 2.12397 0
M  V30 5190 H 491.18 6.72236 3.81207 0
M  V30 5191 H 489.525 6.04217 3.43434 0
M  V30 5192 H 492.716 3.91841 2.56082 0
M  V30 5193 H 492.889 5.55843 3.33081 0
M  V30 5194 N 486.295 -0.989507 1.22664 0
M  V30 5195 C 487.258 -2.06183 1.00106 0
M  V30 5196 C 488.258 -1.60765 -0.0337726 0
M  V30 5197 O 489.448 -1.72989 0.205072 0
M  V30 5198 C 486.58 -3.37021 0.51279 0
M  V30 5199 H 487.773 -2.27629 1.95256 0
M  V30 5200 H 485.326 -1.16158 1.0458 0
M  V30 5201 H 486.061 -3.21261 -0.442917 0
M  V30 5202 H 485.846 -3.71323 1.25942 0
M  V30 5203 H 487.336 -4.1591 0.375315 0
M  V30 5204 N 487.773 -1.03688 -1.18687 0
M  V30 5205 C 489.02 -0.73803 -1.88572 0
M  V30 5206 C 489.348 0.733973 -1.8012 0
M  V30 5207 O 488.603 1.55098 -1.19344 0
M  V30 5208 C 488.902 -1.14477 -3.3857 0
M  V30 5209 C 488.568 -2.61641 -3.67226 0
M  V30 5210 C 487.23 -3.01846 -3.74757 0
M  V30 5211 C 489.582 -3.56812 -3.79914 0
M  V30 5212 C 486.91 -4.36118 -3.92451 0
M  V30 5213 C 489.262 -4.90799 -3.99123 0
M  V30 5214 C 487.926 -5.3068 -4.04888 0
M  V30 5215 H 487.196 -0.270064 -0.690034 0
M  V30 5216 H 489.843 -1.3012 -1.40503 0
M  V30 5217 H 488.148 -0.500337 -3.88592 0
M  V30 5218 H 489.845 -0.89095 -3.90977 0
M  V30 5219 H 486.435 -2.29498 -3.61979 0
M  V30 5220 H 490.619 -3.26899 -3.73431 0
M  V30 5221 H 485.875 -4.66542 -3.95157 0
M  V30 5222 H 490.049 -5.64451 -4.07882 0
M  V30 5223 H 487.676 -6.34733 -4.18351 0
M  V30 5224 N 489.251 1.34841 -0.815825 0
M  V30 5225 C 490.662 1.80937 -0.46029 0
M  V30 5226 C 491.013 1.67685 1.01863 0
M  V30 5227 O 490.138 1.21277 1.79223 0
M  V30 5228 C 490.733 3.28509 -0.828708 0
M  V30 5229 C 489.292 3.72712 -0.525644 0
M  V30 5230 C 488.439 2.56676 -1.04941 0
M  V30 5231 H 491.39 1.22688 -1.00664 0
M  V30 5232 H 491.411 3.80279 -0.129757 0
M  V30 5233 H 490.923 3.38122 -1.90513 0
M  V30 5234 H 489.024 3.68642 0.541666 0
M  V30 5235 H 489.137 4.67119 -1.06474 0
M  V30 5236 H 487.501 2.50302 -0.471286 0
M  V30 5237 H 488.284 2.69063 -2.13214 0
M  V30 5238 N 490.729 0.570148 1.46925 0
M  V30 5239 C 491.975 0.0510284 2.02736 0
M  V30 5240 C 492.308 -1.3006 1.44215 0
M  V30 5241 O 491.583 -1.84932 0.602521 0
M  V30 5242 C 491.866 -0.028215 3.60089 0
M  V30 5243 C 491.719 1.35142 4.29018 0
M  V30 5244 C 493.038 -0.735181 4.33916 0
M  V30 5245 H 490.157 0.0200178 0.736728 0
M  V30 5246 H 492.799 0.73493 1.75211 0
M  V30 5247 H 490.949 -0.610648 3.83671 0
M  V30 5248 H 492.621 1.97806 4.16738 0
M  V30 5249 H 490.864 1.9226 3.88868 0
M  V30 5250 H 491.535 1.24857 5.37694 0
M  V30 5251 H 494.011 -0.240519 4.15404 0
M  V30 5252 H 492.887 -0.759622 5.43618 0
M  V30 5253 H 493.148 -1.79397 4.04066 0
M  V30 5254 N 492.207 -1.54576 0.307264 0
M  V30 5255 C 493.618 -1.8579 -0.184121 0
M  V30 5256 C 493.969 -1.22914 -1.52927 0
M  V30 5257 O 493.094 -0.529126 -2.09831 0
M  V30 5258 C 493.689 -3.37081 -0.340862 0
M  V30 5259 C 492.248 -3.68304 -0.776465 0
M  V30 5260 C 491.395 -2.77076 0.111503 0
M  V30 5261 H 494.346 -1.49656 0.528078 0
M  V30 5262 H 494.367 -3.61922 -1.17443 0
M  V30 5263 H 493.879 -3.82815 0.638309 0
M  V30 5264 H 491.98 -3.28092 -1.76596 0
M  V30 5265 H 492.093 -4.75434 -0.591512 0
M  V30 5266 H 490.457 -2.51374 -0.410256 0
M  V30 5267 H 491.24 -3.25632 1.08714 0
M  V30 5268 N 493.685 -0.035106 -1.57561 0
M  V30 5269 C 494.91 0.655802 -1.96759 0
M  V30 5270 C 495.335 1.64523 -0.911809 0
M  V30 5271 O 494.693 1.80857 0.126673 0
M  V30 5272 C 494.741 1.33326 -3.35047 0
M  V30 5273 O 493.845 2.44866 -3.31835 0
M  V30 5274 H 493.186 0.171807 -0.641388 0
M  V30 5275 H 495.716 -0.0987369 -2.04362 0
M  V30 5276 H 495.726 1.68867 -3.71413 0
M  V30 5277 H 494.401 0.608033 -4.11431 0
M  V30 5278 H 492.978 2.11392 -3.07193 0
M  V30 5279 N 495.163 1.55791 0.238111 0
M  V30 5280 C 496.126 1.90239 1.27835 0
M  V30 5281 C 497.126 0.779552 1.4064 0
M  V30 5282 O 498.316 1.04747 1.3919 0
M  V30 5283 C 495.448 2.13859 2.65475 0
M  V30 5284 H 496.641 2.83262 0.985034 0
M  V30 5285 H 494.194 1.48818 0.477799 0
M  V30 5286 H 494.929 1.23334 2.99932 0
M  V30 5287 H 494.714 2.95643 2.57561 0
M  V30 5288 H 496.204 2.41664 3.40571 0
M  V30 5289 N 496.642 -0.504142 1.49319 0
M  V30 5290 C 497.89 -1.25598 1.58334 0
M  V30 5291 C 498.211 -1.93114 0.270538 0
M  V30 5292 O 497.481 -1.82585 -0.709891 0
M  V30 5293 H 496.061 -0.466571 0.58337 0
M  V30 5294 H 498.723 -0.584547 1.85928 0
M  V30 5295 H 497.819 -2.02159 2.37778 0
M  V30 5296 N 498.12 -1.38341 -0.754957 0
M  V30 5297 C 499.369 -1.33791 -1.5094 0
M  V30 5298 C 499.682 0.0699267 -1.95475 0
M  V30 5299 O 500.888 0.237956 -2.70455 0
M  V30 5300 C 499.344 -2.34934 -2.72643 0
M  V30 5301 C 498.952 -3.81332 -2.35138 0
M  V30 5302 C 500.696 -2.39425 -3.50536 0
M  V30 5303 C 498.603 -4.74164 -3.53444 0
M  V30 5304 H 497.533 -0.497314 -0.566741 0
M  V30 5305 H 500.184 -1.63888 -0.825403 0
M  V30 5306 H 498.566 -1.97878 -3.43017 0
M  V30 5307 H 499.74 -4.27319 -1.7244 0
M  V30 5308 H 498.055 -3.79946 -1.70382 0
M  V30 5309 H 500.652 -3.0598 -4.38498 0
M  V30 5310 H 500.995 -1.41278 -3.91594 0
M  V30 5311 H 501.528 -2.75274 -2.87174 0
M  V30 5312 H 498.267 -5.73501 -3.17453 0
M  V30 5313 H 497.787 -4.3287 -4.15191 0
M  V30 5314 H 499.466 -4.92111 -4.20043 0
M  V30 5315 N 499.598 0.982988 -1.23187 0
M  V30 5316 C 500.548 2.05962 -0.977942 0
M  V30 5317 C 501.532 1.60725 0.0751148 0
M  V30 5318 O 502.724 1.76471 -0.136683 0
M  V30 5319 C 499.853 3.38564 -0.568276 0
M  V30 5320 C 498.939 3.90407 -1.6566 0
M  V30 5321 N 499.33 4.15359 -2.88635 0
M  V30 5322 C 497.628 4.18915 -1.53058 0
M  V30 5323 C 498.329 4.57642 -3.5908 0
M  V30 5324 N 497.305 4.6192 -2.86584 0
M  V30 5325 H 501.107 2.23208 -1.91195 0
M  V30 5326 H 498.621 1.16555 -1.13087 0
M  V30 5327 H 500.618 4.15276 -0.36764 0
M  V30 5328 H 499.278 3.22712 0.358713 0
M  V30 5329 H 500.289 4.03258 -3.24966 0
M  V30 5330 H 496.966 4.12081 -0.670506 0
M  V30 5331 H 498.356 4.85488 -4.6449 0
M  V30 5332 N 501.076 1.04316 1.18135 0
M  V30 5333 C 502.487 0.775505 1.69832 0
M  V30 5334 C 502.838 -0.703348 1.8316 0
M  V30 5335 O 501.963 -1.54729 1.51287 0
M  V30 5336 C 502.558 1.40112 3.0847 0
M  V30 5337 C 501.117 1.18172 3.57368 0
M  V30 5338 C 500.264 1.49022 2.33854 0
M  V30 5339 H 503.215 1.20925 1.02775 0
M  V30 5340 H 503.236 0.805672 3.71873 0
M  V30 5341 H 502.748 2.47744 2.98738 0
M  V30 5342 H 500.849 0.124258 3.72393 0
M  V30 5343 H 500.962 1.8805 4.40652 0
M  V30 5344 H 499.326 0.909995 2.37889 0
M  V30 5345 H 500.109 2.57768 2.26738 0
M  V30 5346 N 502.554 -1.34406 0.822964 0
M  V30 5347 C 503.802 -1.97892 0.410245 0
M  V30 5348 C 504.123 -1.65567 -1.03017 0
M  V30 5349 O 503.393 -0.94642 -1.71522 0
M  V30 5350 H 501.973 -0.732049 0.148707 0
M  V30 5351 H 504.635 -1.64043 1.05242 0
M  V30 5352 H 503.731 -3.07579 0.529284 0
M  V30 5353 N 504.032 -0.577932 -1.46621 0
M  V30 5354 C 504.962 0.145917 -2.33044 0
M  V30 5355 C 505.943 0.888412 -1.45056 0
M  V30 5356 O 507.128 0.864812 -1.73881 0
M  V30 5357 C 504.258 1.16322 -3.27241 0
M  V30 5358 C 503.212 0.535868 -4.24632 0
M  V30 5359 C 502.538 1.65929 -5.08303 0
M  V30 5360 C 503.838 -0.523861 -5.19666 0
M  V30 5361 H 505.532 -0.575636 -2.93814 0
M  V30 5362 H 503.078 -0.278272 -1.41286 0
M  V30 5363 H 505.031 1.67793 -3.86553 0
M  V30 5364 H 503.755 1.91498 -2.64567 0
M  V30 5365 H 502.414 0.0422759 -3.66576 0
M  V30 5366 H 502.062 2.40061 -4.42018 0
M  V30 5367 H 501.762 1.2452 -5.74255 0
M  V30 5368 H 503.286 2.17686 -5.70478 0
M  V30 5369 H 504.7 -0.0944059 -5.73222 0
M  V30 5370 H 503.097 -0.858 -5.93935 0
M  V30 5371 H 504.167 -1.41197 -4.63887 0
M  V30 5372 N 505.51 1.54411 -0.315457 0
M  V30 5373 C 506.756 2.00716 0.289972 0
M  V30 5374 C 507.089 1.2034 1.5242 0
M  V30 5375 O 506.364 0.283579 1.92422 0
M  V30 5376 C 506.647 3.54507 0.632196 0
M  V30 5377 C 506.5 4.45615 -0.61218 0
M  V30 5378 C 507.819 4.15421 1.45305 0
M  V30 5379 H 504.938 0.729637 0.10392 0
M  V30 5380 H 507.58 1.8506 -0.430427 0
M  V30 5381 H 505.73 3.67979 1.24595 0
M  V30 5382 H 507.402 4.44026 -1.25053 0
M  V30 5383 H 505.645 4.15621 -1.24264 0
M  V30 5384 H 506.316 5.51022 -0.328379 0
M  V30 5385 H 508.792 4.05474 0.934331 0
M  V30 5386 H 507.668 5.23157 1.66127 0
M  V30 5387 H 507.929 3.68223 2.44671 0
M  V30 5388 N 506.988 0.0434614 1.5754 0
M  V30 5389 C 508.399 -0.493343 1.80064 0
M  V30 5390 C 508.75 -1.71388 0.955023 0
M  V30 5391 O 507.875 -2.15736 0.169434 0
M  V30 5392 C 508.47 -0.90179 3.26578 0
M  V30 5393 C 507.029 -1.38362 3.50047 0
M  V30 5394 C 506.176 -0.355129 2.75017 0
M  V30 5395 H 509.127 0.2694 1.56397 0
M  V30 5396 H 509.148 -1.76523 3.37075 0
M  V30 5397 H 508.66 -0.013271 3.88098 0
M  V30 5398 H 506.761 -2.29159 2.93798 0
M  V30 5399 H 506.874 -1.3811 4.58762 0
M  V30 5400 H 505.238 -0.826348 2.40922 0
M  V30 5401 H 506.021 0.525172 3.39259 0
M  V30 5402 N 508.466 -1.55915 -0.229846 0
M  V30 5403 C 509.396 -1.94754 -1.28815 0
M  V30 5404 C 510.377 -0.814657 -1.49323 0
M  V30 5405 O 511.562 -1.07631 -1.61645 0
M  V30 5406 C 508.692 -2.25705 -2.63959 0
M  V30 5407 C 507.646 -3.41406 -2.5812 0
M  V30 5408 C 506.972 -3.57941 -3.97218 0
M  V30 5409 C 508.272 -4.76616 -2.13623 0
M  V30 5410 H 509.966 -2.83404 -0.965547 0
M  V30 5411 H 507.512 -1.36353 -0.463028 0
M  V30 5412 H 509.465 -2.51467 -3.38146 0
M  V30 5413 H 508.189 -1.339 -2.9789 0
M  V30 5414 H 506.848 -3.1568 -1.86391 0
M  V30 5415 H 506.496 -2.63526 -4.28443 0
M  V30 5416 H 506.196 -4.35757 -3.94195 0
M  V30 5417 H 507.72 -3.86042 -4.73079 0
M  V30 5418 H 509.134 -5.01637 -2.77549 0
M  V30 5419 H 507.531 -5.57655 -2.21677 0
M  V30 5420 H 508.601 -4.7253 -1.08829 0
M  V30 5421 N 509.944 0.496216 -1.49584 0
M  V30 5422 C 511.193 1.24668 -1.58558 0
M  V30 5423 C 511.506 1.9359 -0.279703 0
M  V30 5424 O 512.712 2.70365 -0.248048 0
M  V30 5425 C 511.168 2.26388 -2.79779 0
M  V30 5426 C 510.776 1.63384 -4.17145 0
M  V30 5427 C 512.52 3.02233 -2.98086 0
M  V30 5428 C 510.427 2.63243 -5.29582 0
M  V30 5429 H 509.357 0.468995 -0.590389 0
M  V30 5430 H 512.008 0.519985 -1.75978 0
M  V30 5431 H 510.39 3.02241 -2.55863 0
M  V30 5432 H 511.564 0.93491 -4.51216 0
M  V30 5433 H 509.879 0.999121 -4.04236 0
M  V30 5434 H 512.476 3.76919 -3.79257 0
M  V30 5435 H 512.819 3.60132 -2.08831 0
M  V30 5436 H 513.352 2.33495 -3.22063 0
M  V30 5437 H 510.091 2.10119 -6.20911 0
M  V30 5438 H 509.611 3.31363 -4.99959 0
M  V30 5439 H 511.29 3.25575 -5.59115 0
M  V30 5440 N 511.423 1.38739 0.74761 0
M  V30 5441 C 512.672 1.3459 1.50228 0
M  V30 5442 C 512.985 -0.0595592 1.95509 0
M  V30 5443 O 514.191 -0.22361 2.70578 0
M  V30 5444 C 512.647 2.36377 2.71393 0
M  V30 5445 C 512.255 3.82573 2.33113 0
M  V30 5446 C 513.999 2.41281 3.49262 0
M  V30 5447 C 511.906 4.76032 3.50924 0
M  V30 5448 H 510.836 0.500312 0.564096 0
M  V30 5449 H 513.487 1.64324 0.8167 0
M  V30 5450 H 511.869 1.99694 3.41962 0
M  V30 5451 H 513.043 4.28227 1.70171 0
M  V30 5452 H 511.358 3.80844 1.68365 0
M  V30 5453 H 513.955 3.08301 4.36869 0
M  V30 5454 H 514.298 1.43353 3.9084 0
M  V30 5455 H 514.831 2.76793 2.85711 0
M  V30 5456 H 511.57 5.75177 3.14408 0
M  V30 5457 H 511.09 4.35066 4.12889 0
M  V30 5458 H 512.769 4.94331 4.17427 0
M  V30 5459 N 512.901 -0.976442 1.23707 0
M  V30 5460 C 514.317 -1.24341 1.00058 0
M  V30 5461 C 514.517 -1.99315 -0.295932 0
M  V30 5462 O 513.573 -2.3123 -1.01435 0
M  V30 5463 C 514.886 -2.03909 2.21001 0
M  V30 5464 C 516.434 -2.17034 2.25534 0
M  V30 5465 C 516.909 -2.99994 3.46075 0
M  V30 5466 N 518.4 -3.07578 3.46338 0
M  V30 5467 C 519.135 -3.72104 4.36264 0
M  V30 5468 N 518.631 -4.3842 5.36432 0
M  V30 5469 N 520.424 -3.69029 4.23998 0
M  V30 5470 H 512.575 -0.47428 2.07037 0
M  V30 5471 H 514.838 -0.272167 0.908091 0
M  V30 5472 H 514.544 -1.56198 3.15111 0
M  V30 5473 H 514.418 -3.04654 2.22409 0
M  V30 5474 H 516.805 -2.63951 1.31961 0
M  V30 5475 H 516.886 -1.15664 2.28156 0
M  V30 5476 H 516.53 -2.53772 4.39957 0
M  V30 5477 H 516.46 -4.01541 3.40694 0
M  V30 5478 H 518.951 -2.60397 2.73865 0
M  V30 5479 H 519.264 -4.85447 6.013 0
M  V30 5480 H 517.609 -4.37116 5.40328 0
M  V30 5481 H 520.8 -3.16392 3.44984 0
M  V30 5482 H 520.973 -4.19034 4.94282 0
M  V30 5483 N 514.379 -1.04941 -1.1758 0
M  V30 5484 C 515.656 -0.671918 -1.83697 0
M  V30 5485 C 516.036 0.847929 -1.93322 0
M  V30 5486 O 515.384 1.75287 -1.46583 0
M  V30 5487 C 515.594 -1.35797 -3.21497 0
M  V30 5488 C 516.942 -1.4944 -3.97433 0
M  V30 5489 O 517.966 -1.31678 -3.30967 0
M  V30 5490 O 516.825 -1.78463 -5.1654 0
M  V30 5491 H 513.919 -0.236212 -0.792548 0
M  V30 5492 H 516.465 -1.14884 -1.24899 0
M  V30 5493 H 515.237 -2.39498 -3.09446 0
M  V30 5494 H 514.86 -0.870236 -3.8796 0
M  V30 5495 N 515.857 1.33968 -0.830081 0
M  V30 5496 C 517.104 1.98063 -0.421566 0
M  V30 5497 C 517.432 1.65787 1.0171 0
M  V30 5498 O 516.687 0.925348 1.72441 0
M  V30 5499 C 516.986 3.52679 -0.57898 0
M  V30 5500 C 516.652 4.04884 -1.98443 0
M  V30 5501 C 515.314 4.18852 -2.36888 0
M  V30 5502 C 517.666 4.32879 -2.90285 0
M  V30 5503 C 514.994 4.58145 -3.66497 0
M  V30 5504 C 517.346 4.7362 -4.19364 0
M  V30 5505 C 516.01 4.85794 -4.57778 0
M  V30 5506 H 515.28 0.724765 -0.154262 0
M  V30 5507 H 517.927 1.59792 -1.05541 0
M  V30 5508 H 516.232 3.91556 0.138219 0
M  V30 5509 H 517.929 4.00261 -0.243317 0
M  V30 5510 H 514.519 3.9448 -1.67581 0
M  V30 5511 H 518.703 4.21619 -2.61823 0
M  V30 5512 H 513.959 4.65762 -3.96075 0
M  V30 5513 H 518.133 4.9424 -4.90612 0
M  V30 5514 H 515.76 5.15998 -5.58256 0
M  V30 5515 N 517.335 0.585699 1.46312 0
M  V30 5516 C 518.583 0.072278 2.01971 0
M  V30 5517 C 518.904 -1.29345 1.45928 0
M  V30 5518 O 518.174 -1.84973 0.645109 0
M  V30 5519 H 516.754 0.023729 0.746623 0
M  V30 5520 H 519.416 0.762155 1.7938 0
M  V30 5521 H 518.512 0.00552767 3.121 0
M  V30 5522 N 518.813 -1.54241 0.323641 0
M  V30 5523 C 519.743 -2.27289 -0.534993 0
M  V30 5524 C 520.724 -1.28087 -1.11927 0
M  V30 5525 O 521.909 -1.56899 -1.14439 0
M  V30 5526 C 519.039 -3.03075 -1.69596 0
M  V30 5527 C 517.993 -4.09614 -1.24098 0
M  V30 5528 C 517.319 -4.73242 -2.4889 0
M  V30 5529 C 518.619 -5.21087 -0.355789 0
M  V30 5530 H 520.313 -2.99308 0.0743257 0
M  V30 5531 H 517.859 -1.43952 0.0371874 0
M  V30 5532 H 519.812 -3.52907 -2.30293 0
M  V30 5533 H 518.536 -2.28673 -2.33187 0
M  V30 5534 H 517.195 -3.60666 -0.656945 0
M  V30 5535 H 516.843 -3.95455 -3.10845 0
M  V30 5536 H 516.543 -5.45209 -2.19138 0
M  V30 5537 H 518.067 -5.25848 -3.10348 0
M  V30 5538 H 519.481 -5.66675 -0.869042 0
M  V30 5539 H 517.878 -5.9991 -0.151045 0
M  V30 5540 H 518.948 -4.81005 0.613339 0
M  V30 5541 N 520.291 -0.0518155 -1.57515 0
M  V30 5542 C 521.568 0.661727 -1.84067 0
M  V30 5543 C 521.948 1.88999 -0.940351 0
M  V30 5544 O 521.296 2.285 -0.00155404 0
M  V30 5545 C 521.506 1.01841 -3.3381 0
M  V30 5546 C 522.854 1.40043 -4.00841 0
M  V30 5547 O 523.878 1.11073 -3.38439 0
M  V30 5548 O 522.737 1.94111 -5.10865 0
M  V30 5549 H 519.831 0.326702 -0.759733 0
M  V30 5550 H 522.377 -0.0812277 -1.69505 0
M  V30 5551 H 521.149 0.145202 -3.91031 0
M  V30 5552 H 520.772 1.81879 -3.53562 0
M  V30 5553 N 521.769 1.56035 0.221574 0
M  V30 5554 C 522.997 1.8313 0.962864 0
M  V30 5555 C 523.412 0.630934 1.77946 0
M  V30 5556 O 522.769 -0.400519 1.78051 0
M  V30 5557 C 522.82 3.08742 1.88045 0
M  V30 5558 O 522.541 4.24147 1.09686 0
M  V30 5559 C 524.042 3.48824 2.73563 0
M  V30 5560 H 521.262 0.608775 0.282194 0
M  V30 5561 H 523.806 2.03124 0.23681 0
M  V30 5562 H 521.961 2.90723 2.56045 0
M  V30 5563 H 522.375 4.95505 1.71974 0
M  V30 5564 H 523.849 4.39752 3.3365 0
M  V30 5565 H 524.326 2.70575 3.45956 0
M  V30 5566 H 524.932 3.69282 2.10976 0
M  V30 5567 N 523.247 -0.488276 1.49845 0
M  V30 5568 C 524.496 -1.23826 1.59217 0
M  V30 5569 C 524.809 -1.93439 0.289966 0
M  V30 5570 O 526.015 -2.70229 0.262382 0
M  V30 5571 C 524.471 -2.24902 2.80976 0
M  V30 5572 C 524.079 -1.6117 4.18005 0
M  V30 5573 C 525.823 -3.00648 2.99685 0
M  V30 5574 C 523.73 -2.60431 5.3097 0
M  V30 5575 H 522.66 -0.465858 0.592868 0
M  V30 5576 H 525.311 -0.510645 1.76252 0
M  V30 5577 H 523.693 -3.0088 2.57463 0
M  V30 5578 H 524.867 -0.910968 4.51706 0
M  V30 5579 H 523.182 -0.97767 4.0476 0
M  V30 5580 H 525.779 -3.74903 3.81251 0
M  V30 5581 H 526.122 -3.5902 2.10738 0
M  V30 5582 H 526.655 -2.31784 3.23297 0
M  V30 5583 H 523.394 -2.06823 6.22017 0
M  V30 5584 H 522.914 -3.28707 5.01709 0
M  V30 5585 H 524.593 -3.22606 5.60834 0
M  V30 5586 N 524.725 -1.39134 -0.740242 0
M  V30 5587 C 525.971 -1.36273 -1.50192 0
M  V30 5588 C 526.304 0.0430136 -1.94152 0
M  V30 5589 O 525.579 1.00691 -1.66408 0
M  V30 5590 C 525.862 -2.33041 -2.74525 0
M  V30 5591 C 525.715 -3.82535 -2.36617 0
M  V30 5592 C 527.034 -2.27723 -3.76604 0
M  V30 5593 H 524.153 -0.496323 -0.544823 0
M  V30 5594 H 526.795 -1.70085 -0.846815 0
M  V30 5595 H 524.945 -2.04337 -3.30422 0
M  V30 5596 H 526.617 -4.21967 -1.86391 0
M  V30 5597 H 524.86 -3.99565 -1.68909 0
M  V30 5598 H 525.531 -4.45723 -3.2563 0
M  V30 5599 H 528.007 -2.53091 -3.30279 0
M  V30 5600 H 526.883 -2.97519 -4.61274 0
M  V30 5601 H 527.144 -1.28049 -4.2315 0
M  V30 5602 N 526.204 0.969867 -1.24223 0
M  V30 5603 C 527.152 2.08535 -1.03034 0
M  V30 5604 C 528.146 1.69366 0.0340379 0
M  V30 5605 O 529.352 1.79597 -0.12034 0
M  V30 5606 H 525.727 0.682313 -0.316154 0
M  V30 5607 H 527.698 2.23569 -1.97635 0
M  V30 5608 C 526.447 3.4158 -0.649509 0
M  V30 5609 H 525.77 3.72177 -1.46028 0
M  V30 5610 H 527.21 4.20536 -0.540841 0
M  V30 5611 C 525.669 3.30703 0.643194 0
M  V30 5612 O 526.199 3.64443 1.68951 0
M  V30 5613 N 524.405 2.83841 0.623095 0
M  V30 5614 H 523.952 2.56583 -0.228719 0
M  V30 5615 H 523.91 2.76946 1.48823 0
M  V30 5616 N 527.682 1.05563 1.17022 0
M  V30 5617 C 528.645 0.664098 2.19368 0
M  V30 5618 C 529.645 -0.286358 1.5823 0
M  V30 5619 O 530.835 -0.069728 1.7406 0
M  V30 5620 C 527.967 -0.0239932 3.40892 0
M  V30 5621 H 529.16 1.57 2.55521 0
M  V30 5622 H 526.713 0.849964 1.31169 0
M  V30 5623 H 527.448 -0.942988 3.10287 0
M  V30 5624 H 527.233 0.659351 3.86516 0
M  V30 5625 H 528.723 -0.283909 4.16634 0
M  V30 5626 N 529.16 -1.33526 0.837174 0
M  V30 5627 C 530.408 -1.97446 0.431211 0
M  V30 5628 C 530.729 -1.6665 -1.01255 0
M  V30 5629 O 529.999 -0.964559 -1.70508 0
M  V30 5630 H 528.579 -0.73043 0.156463 0
M  V30 5631 H 531.241 -1.62918 1.06976 0
M  V30 5632 H 530.337 -3.07001 0.561877 0
M  V30 5633 N 530.638 -0.59345 -1.46 0
M  V30 5634 C 531.886 -0.082988 -2.0193 0
M  V30 5635 C 532.207 1.28569 -1.46612 0
M  V30 5636 O 531.477 1.84629 -0.654909 0
M  V30 5637 H 530.057 -0.0276882 -0.746487 0
M  V30 5638 H 532.719 -0.771657 -1.78973 0
M  V30 5639 H 531.815 -0.022079 -3.12092 0
M  V30 5640 N 532.116 1.54067 -0.331816 0
M  V30 5641 C 533.364 2.00319 0.267739 0
M  V30 5642 C 533.685 1.22148 1.52003 0
M  V30 5643 O 532.955 0.325494 1.93177 0
M  V30 5644 H 531.535 0.740014 0.101922 0
M  V30 5645 H 534.197 1.89628 -0.450267 0
M  V30 5646 H 533.293 3.07765 0.518385 0
M  V30 5647 N 533.594 0.0601682 1.57485 0
M  V30 5648 C 534.843 -0.611101 1.9222 0
M  V30 5649 C 535.156 -1.71469 0.941159 0
M  V30 5650 O 536.362 -2.44473 1.18089 0
M  V30 5651 C 534.818 -1.13832 3.41424 0
M  V30 5652 C 534.426 -0.0663596 4.47951 0
M  V30 5653 C 536.17 -1.78432 3.85178 0
M  V30 5654 C 534.077 -0.606965 5.88277 0
M  V30 5655 H 533.007 -0.232033 0.71741 0
M  V30 5656 H 535.658 0.130518 1.83035 0
M  V30 5657 H 534.04 -1.93254 3.45643 0
M  V30 5658 H 535.214 0.707682 4.55333 0
M  V30 5659 H 533.529 0.482715 4.13593 0
M  V30 5660 H 536.126 -2.1989 4.87394 0
M  V30 5661 H 536.469 -2.63966 3.21913 0
M  V30 5662 H 537.002 -1.05651 3.83514 0
M  V30 5663 H 533.741 0.21095 6.5516 0
M  V30 5664 H 533.261 -1.34879 5.84438 0
M  V30 5665 H 534.94 -1.08704 6.37803 0
M  V30 5666 N 535.072 -1.5615 -0.213296 0
M  V30 5667 C 536.022 -1.89485 -1.26804 0
M  V30 5668 C 537.006 -0.758713 -1.41889 0
M  V30 5669 O 538.198 -1.02127 -1.44565 0
M  V30 5670 C 535.327 -2.22219 -2.61675 0
M  V30 5671 C 534.413 -3.42245 -2.50458 0
M  V30 5672 N 534.804 -4.60645 -2.089 0
M  V30 5673 C 533.102 -3.46023 -2.81397 0
M  V30 5674 C 533.803 -5.42805 -2.09135 0
M  V30 5675 N 532.779 -4.82732 -2.49941 0
M  V30 5676 H 536.581 -2.78537 -0.937771 0
M  V30 5677 H 534.095 -1.56826 -0.421824 0
M  V30 5678 H 536.092 -2.44278 -3.37837 0
M  V30 5679 H 534.752 -1.34484 -2.95541 0
M  V30 5680 H 535.763 -4.85651 -1.79899 0
M  V30 5681 H 532.44 -2.68654 -3.1958 0
M  V30 5682 H 533.83 -6.47601 -1.79059 0
M  V30 5683 N 536.55 0.480323 -1.50102 0
M  V30 5684 C 537.798 1.23063 -1.60312 0
M  V30 5685 C 538.119 1.92659 -0.301226 0
M  V30 5686 O 537.389 1.83691 0.680753 0
M  V30 5687 H 535.969 0.457231 -0.590719 0
M  V30 5688 H 538.631 0.554893 -1.86834 0
M  V30 5689 H 537.727 1.9835 -2.40964 0
M  V30 5690 N 538.028 1.39524 0.732853 0
M  V30 5691 C 538.978 1.34905 1.83806 0
M  V30 5692 C 539.962 0.229546 1.59254 0
M  V30 5693 O 541.154 0.467255 1.70721 0
M  V30 5694 C 538.283 1.19699 3.21756 0
M  V30 5695 C 537.369 2.36359 3.5213 0
M  V30 5696 N 537.76 3.61834 3.53426 0
M  V30 5697 C 536.058 2.29363 3.82503 0
M  V30 5698 C 536.759 4.38992 3.81655 0
M  V30 5699 N 535.735 3.68606 3.99538 0
M  V30 5700 H 539.537 2.29882 1.83116 0
M  V30 5701 H 537.051 1.33051 0.931194 0
M  V30 5702 H 539.048 1.14472 4.00876 0
M  V30 5703 H 537.708 0.256739 3.23683 0
M  V30 5704 H 538.719 3.95228 3.34686 0
M  V30 5705 H 535.396 1.43612 3.92023 0
M  V30 5706 H 536.786 5.47763 3.89108 0
M  V30 5707 N 539.506 -0.963266 1.24736 0
M  V30 5708 C 540.917 -1.52145 1.08207 0
M  V30 5709 C 541.268 -1.93142 -0.345061 0
M  V30 5710 O 540.393 -1.77769 -1.23399 0
M  V30 5711 C 540.988 -2.76486 1.95808 0
M  V30 5712 C 539.547 -3.28646 1.8349 0
M  V30 5713 C 538.694 -2.01529 1.90476 0
M  V30 5714 H 541.645 -0.781083 1.38148 0
M  V30 5715 H 541.666 -3.49986 1.49297 0
M  V30 5716 H 541.178 -2.46617 2.99669 0
M  V30 5717 H 539.279 -3.63357 0.824787 0
M  V30 5718 H 539.392 -3.97246 2.67829 0
M  V30 5719 H 537.756 -2.16442 1.34258 0
M  V30 5720 H 538.539 -1.7402 2.95926 0
M  V30 5721 N 540.985 -1.06182 -1.16461 0
M  V30 5722 C 542.262 -0.691364 -1.82974 0
M  V30 5723 C 542.642 0.827377 -1.9421 0
M  V30 5724 O 541.99 1.73723 -1.48434 0
M  V30 5725 C 542.2 -1.39199 -3.20038 0
M  V30 5726 C 543.548 -1.53647 -3.95825 0
M  V30 5727 O 544.572 -1.35181 -3.29552 0
M  V30 5728 O 543.431 -1.83932 -5.14618 0
M  V30 5729 H 540.525 -0.244605 -0.789998 0
M  V30 5730 H 543.071 -1.16203 -1.23673 0
M  V30 5731 H 541.843 -2.42766 -3.06888 0
M  V30 5732 H 541.466 -0.911335 -3.87015 0
M  V30 5733 N 542.463 1.3308 -0.844243 0
M  V30 5734 C 543.711 1.97215 -0.441676 0
M  V30 5735 C 544.032 1.67185 1.0037 0
M  V30 5736 O 543.302 0.973588 1.69994 0
M  V30 5737 H 541.882 0.72959 -0.160335 0
M  V30 5738 H 544.544 1.62348 -1.07838 0
M  V30 5739 H 543.64 3.06698 -0.57815 0
M  V30 5740 N 543.941 0.601185 1.45683 0
M  V30 5741 C 544.904 -0.111398 2.28929 0
M  V30 5742 C 545.904 -0.801246 1.39416 0
M  V30 5743 O 547.094 -0.650383 1.61603 0
M  V30 5744 C 544.226 -1.16773 3.20276 0
M  V30 5745 H 545.419 0.620412 2.93413 0
M  V30 5746 H 542.972 0.359946 1.52099 0
M  V30 5747 H 543.707 -1.93051 2.60579 0
M  V30 5748 H 543.492 -0.677358 3.86205 0
M  V30 5749 H 544.982 -1.66698 3.82886 0
M  V30 5750 N 545.419 -1.53889 0.339982 0
M  V30 5751 C 546.668 -2.00035 -0.258604 0
M  V30 5752 C 546.981 -1.23179 -1.51942 0
M  V30 5753 O 548.187 -1.59784 -2.19503 0
M  V30 5754 C 546.643 -3.56249 -0.511359 0
M  V30 5755 C 546.251 -4.41957 0.733349 0
M  V30 5756 C 547.995 -4.1082 -1.069 0
M  V30 5757 C 545.902 -5.89673 0.451591 0
M  V30 5758 H 544.832 -0.747284 -0.10041 0
M  V30 5759 H 547.483 -1.77776 0.454758 0
M  V30 5760 H 545.865 -3.7456 -1.28533 0
M  V30 5761 H 547.039 -4.35421 1.50815 0
M  V30 5762 H 545.354 -3.9836 1.21237 0
M  V30 5763 H 547.951 -5.18789 -1.2947 0
M  V30 5764 H 548.294 -3.63817 -2.02343 0
M  V30 5765 H 548.827 -3.96205 -0.355817 0
M  V30 5766 H 545.566 -6.40903 1.37565 0
M  V30 5767 H 545.086 -5.99122 -0.285193 0
M  V30 5768 H 546.765 -6.46965 0.0675067 0
M  V30 5769 N 546.897 -0.0685191 -1.57451 0
M  V30 5770 C 548.145 0.60016 -1.92983 0
M  V30 5771 C 548.466 1.70348 -0.949028 0
M  V30 5772 O 547.736 1.959 0.00335647 0
M  V30 5773 H 546.316 0.224682 -0.712409 0
M  V30 5774 H 548.978 -0.125605 -1.94495 0
M  V30 5775 H 548.074 1.02759 -2.94698 0
M  V30 5776 N 548.375 1.56261 0.205012 0
M  V30 5777 C 549.623 1.79684 0.925096 0
M  V30 5778 C 549.944 0.63989 1.84202 0
M  V30 5779 O 549.214 -0.342345 1.92885 0
M  V30 5780 H 547.794 0.662774 0.344587 0
M  V30 5781 H 550.456 1.93734 0.212899 0
M  V30 5782 H 549.552 2.72467 1.52211 0
M  V30 5783 N 549.853 -0.472356 1.50355 0
M  V30 5784 C 551.101 -1.22211 1.60962 0
M  V30 5785 C 551.422 -1.92497 0.311439 0
M  V30 5786 O 550.692 -1.8405 -0.671002 0
M  V30 5787 H 549.272 -0.454092 0.593135 0
M  V30 5788 H 551.934 -0.544977 1.87126 0
M  V30 5789 H 551.03 -1.9707 2.42012 0
M  V30 5790 N 551.331 -1.39911 -0.725443 0
M  V30 5791 C 552.747 -1.21725 -1.03224 0
M  V30 5792 C 552.947 -0.0855224 -2.01318 0
M  V30 5793 O 552.003 0.55976 -2.46217 0
M  V30 5794 C 553.316 -2.55511 -1.58539 0
M  V30 5795 C 554.864 -2.62439 -1.70572 0
M  V30 5796 C 555.339 -3.9647 -2.29294 0
M  V30 5797 N 556.83 -3.98159 -2.36692 0
M  V30 5798 C 557.565 -4.98647 -2.83088 0
M  V30 5799 N 557.061 -6.0953 -3.2931 0
M  V30 5800 N 558.854 -4.8602 -2.82384 0
M  V30 5801 H 551.005 -2.12267 -0.075048 0
M  V30 5802 H 553.268 -0.943136 -0.0959066 0
M  V30 5803 H 552.974 -3.38926 -0.939249 0
M  V30 5804 H 552.848 -2.75905 -2.57208 0
M  V30 5805 H 555.235 -1.79401 -2.34306 0
M  V30 5806 H 555.316 -2.45885 -0.705297 0
M  V30 5807 H 554.96 -4.79942 -1.66186 0
M  V30 5808 H 554.89 -4.10349 -3.30032 0
M  V30 5809 H 557.381 -3.18085 -2.04035 0
M  V30 5810 H 557.694 -6.82106 -3.6325 0
M  V30 5811 H 556.039 -6.1311 -3.27294 0
M  V30 5812 H 559.23 -3.98493 -2.45603 0
M  V30 5813 H 559.403 -5.64478 -3.18226 0
M  V30 5814 N 552.809 0.956637 -1.25245 0
M  V30 5815 C 553.772 2.03457 -1.05537 0
M  V30 5816 C 554.772 1.60798 -0.00886317 0
M  V30 5817 O 555.962 1.72384 -0.250865 0
M  V30 5818 C 553.094 3.35543 -0.601965 0
M  V30 5819 H 554.287 2.22372 -2.01223 0
M  V30 5820 H 551.84 1.13344 -1.07623 0
M  V30 5821 H 552.575 3.22323 0.357584 0
M  V30 5822 H 552.36 3.67854 -1.35743 0
M  V30 5823 H 553.85 4.14769 -0.485454 0
M  V30 5824 N 554.287 1.06798 1.15896 0
M  V30 5825 C 555.534 0.787767 1.86549 0
M  V30 5826 C 555.862 -0.685959 1.82002 0
M  V30 5827 O 555.117 -1.5188 1.23414 0
M  V30 5828 C 555.416 1.23414 3.35416 0
M  V30 5829 C 555.082 2.71285 3.6016 0
M  V30 5830 C 553.744 3.11676 3.66622 0
M  V30 5831 C 556.096 3.6676 3.7032 0
M  V30 5832 C 553.424 4.4637 3.8075 0
M  V30 5833 C 555.776 5.01209 3.8597 0
M  V30 5834 C 554.44 5.41229 3.90676 0
M  V30 5835 H 553.71 0.288264 0.682631 0
M  V30 5836 H 556.357 1.338 1.37003 0
M  V30 5837 H 554.662 0.60319 3.87129 0
M  V30 5838 H 556.359 0.994298 3.88477 0
M  V30 5839 H 552.949 2.39015 3.55767 0
M  V30 5840 H 557.133 3.36685 3.64633 0
M  V30 5841 H 552.389 4.76855 3.82648 0
M  V30 5842 H 556.563 5.75067 3.92773 0
M  V30 5843 H 554.19 6.45602 4.01375 0
M  V30 5844 N 555.766 -1.3263 0.851289 0
M  V30 5845 C 557.182 -1.50162 0.5407 0
M  V30 5846 C 557.382 -1.78788 -0.929369 0
M  V30 5847 O 556.438 -1.85545 -1.71258 0
M  V30 5848 C 557.751 -2.64803 1.42478 0
M  V30 5849 C 559.299 -2.78688 1.42485 0
M  V30 5850 C 559.774 -3.96405 2.29407 0
M  V30 5851 N 561.265 -4.0366 2.27184 0
M  V30 5852 C 562 -4.93971 2.9117 0
M  V30 5853 N 561.496 -5.89313 3.64256 0
M  V30 5854 N 563.289 -4.87066 2.80576 0
M  V30 5855 H 555.44 -1.12315 1.80275 0
M  V30 5856 H 557.703 -0.553266 0.769806 0
M  V30 5857 H 557.409 -2.50368 2.46999 0
M  V30 5858 H 557.283 -3.60506 1.10974 0
M  V30 5859 H 559.67 -2.92547 0.387304 0
M  V30 5860 H 559.751 -1.83708 1.78002 0
M  V30 5861 H 559.395 -3.83304 3.33228 0
M  V30 5862 H 559.325 -4.90654 1.91224 0
M  V30 5863 H 561.816 -3.35435 1.74045 0
M  V30 5864 H 562.129 -6.54913 4.10255 0
M  V30 5865 H 560.474 -5.8935 3.68364 0
M  V30 5866 H 563.665 -4.11552 2.23031 0
M  V30 5867 H 563.838 -5.57248 3.30725 0
M  V30 5868 N 557.244 -0.608902 -1.45362 0
M  V30 5869 C 558.207 0.0992563 -2.28985 0
M  V30 5870 C 559.207 0.793841 -1.39838 0
M  V30 5871 O 560.397 0.641804 -1.61946 0
M  V30 5872 C 557.529 1.15073 -3.20891 0
M  V30 5873 H 558.722 -0.635964 -2.93079 0
M  V30 5874 H 556.275 -0.368007 -1.51906 0
M  V30 5875 H 557.01 1.91667 -2.616 0
M  V30 5876 H 556.795 0.656867 -3.86559 0
M  V30 5877 H 558.285 1.64665 -3.83765 0
M  V30 5878 N 558.722 1.53707 -0.348139 0
M  V30 5879 C 559.685 2.23812 0.494058 0
M  V30 5880 C 560.685 1.23989 1.02388 0
M  V30 5881 O 561.875 1.48395 0.912396 0
M  V30 5882 C 559.007 2.96133 1.68872 0
M  V30 5883 H 560.2 2.99663 -0.119141 0
M  V30 5884 H 557.753 1.55983 -0.0995539 0
M  V30 5885 H 558.488 2.24481 2.34049 0
M  V30 5886 H 558.273 3.69357 1.31596 0
M  V30 5887 H 559.763 3.49475 2.28597 0
M  V30 5888 N 560.2 0.0768682 1.57412 0
M  V30 5889 C 561.449 -0.590679 1.92857 0
M  V30 5890 C 561.762 -1.70461 0.959293 0
M  V30 5891 O 562.968 -2.43207 1.20675 0
M  V30 5892 C 561.424 -1.10204 3.42612 0
M  V30 5893 C 561.032 -0.0188447 4.47996 0
M  V30 5894 C 562.776 -1.74336 3.87049 0
M  V30 5895 C 560.683 -0.544536 5.88888 0
M  V30 5896 H 559.613 -0.224411 0.71983 0
M  V30 5897 H 562.264 0.149924 1.82887 0
M  V30 5898 H 560.646 -1.89577 3.47673 0
M  V30 5899 H 561.82 0.755936 4.54557 0
M  V30 5900 H 560.135 0.526555 4.13057 0
M  V30 5901 H 562.732 -2.14708 4.89699 0
M  V30 5902 H 563.075 -2.60537 3.24694 0
M  V30 5903 H 563.608 -1.01577 3.84613 0
M  V30 5904 H 560.347 0.280426 6.549 0
M  V30 5905 H 559.867 -1.28673 5.85836 0
M  V30 5906 H 561.546 -1.01933 6.3892 0
M  V30 5907 N 561.678 -1.56367 -0.196722 0
M  V30 5908 C 562.955 -1.71359 -0.943159 0
M  V30 5909 C 563.335 -0.631192 -2.01443 0
M  V30 5910 O 562.683 0.358071 -2.25677 0
M  V30 5911 C 562.893 -3.13623 -1.53106 0
M  V30 5912 C 564.241 -3.73806 -2.01381 0
M  V30 5913 O 565.265 -3.16742 -1.62951 0
M  V30 5914 O 564.124 -4.73951 -2.7209 0
M  V30 5915 H 561.218 -0.698851 -0.442195 0
M  V30 5916 H 563.764 -1.68672 -0.186547 0
M  V30 5917 H 562.536 -3.83873 -0.758785 0
M  V30 5918 H 562.159 -3.20532 -2.35255 0
M  V30 5919 N 563.156 0.464375 -1.50603 0
M  V30 5920 C 564.119 1.54393 -1.69397 0
M  V30 5921 C 565.119 1.50566 -0.564504 0
M  V30 5922 O 566.309 1.53066 -0.831645 0
M  V30 5923 C 563.441 2.9401 -1.72543 0
M  V30 5924 H 564.634 1.39044 -2.65719 0
M  V30 5925 H 562.187 0.69122 -1.40185 0
M  V30 5926 H 562.922 3.14795 -0.77938 0
M  V30 5927 H 562.707 2.98195 -2.54602 0
M  V30 5928 H 564.197 3.72375 -1.89015 0
M  V30 5929 N 564.634 1.40294 0.718013 0
M  V30 5930 C 565.88 1.38645 1.48005 0
M  V30 5931 C 566.213 -0.0121202 1.94196 0
M  V30 5932 O 565.488 -0.980309 1.67989 0
M  V30 5933 C 565.771 2.37379 2.70782 0
M  V30 5934 C 565.624 3.8625 2.30501 0
M  V30 5935 C 566.943 2.33685 3.72933 0
M  V30 5936 H 564.062 0.504928 0.536858 0
M  V30 5937 H 566.704 1.71411 0.819649 0
M  V30 5938 H 564.854 2.09568 3.27129 0
M  V30 5939 H 566.526 4.24879 1.79655 0
M  V30 5940 H 564.769 4.02202 1.6253 0
M  V30 5941 H 565.44 4.50847 3.18498 0
M  V30 5942 H 567.916 2.58314 3.2621 0
M  V30 5943 H 566.792 3.0482 4.56482 0
M  V30 5944 H 567.053 1.34765 4.21059 0
M  V30 5945 N 566.112 -0.949982 1.2575 0
M  V30 5946 C 567.042 -2.06483 1.09028 0
M  V30 5947 C 568.023 -1.701 -0.00201532 0
M  V30 5948 O 569.208 -1.93469 0.168383 0
M  V30 5949 C 566.338 -3.39899 0.71316 0
M  V30 5950 C 565.292 -3.90309 1.75621 0
M  V30 5951 C 564.618 -5.20274 1.23365 0
M  V30 5952 C 565.918 -4.16169 3.15596 0
M  V30 5953 H 567.612 -2.20731 2.02283 0
M  V30 5954 H 565.158 -1.06066 0.973964 0
M  V30 5955 H 567.111 -4.17346 0.58309 0
M  V30 5956 H 565.835 -3.25602 -0.255091 0
M  V30 5957 H 564.494 -3.15035 1.8748 0
M  V30 5958 H 564.142 -5.02351 0.255491 0
M  V30 5959 H 563.842 -5.54971 1.93082 0
M  V30 5960 H 565.366 -6.00314 1.11607 0
M  V30 5961 H 566.78 -4.84259 3.06864 0
M  V30 5962 H 565.177 -4.62131 3.82825 0
M  V30 5963 H 566.247 -3.22273 3.6231 0
M  V30 5964 N 567.59 -1.07411 -1.15328 0
M  V30 5965 C 568.553 -0.698914 -2.18284 0
M  V30 5966 C 569.553 0.261149 -1.58665 0
M  V30 5967 O 570.743 0.0420277 -1.74149 0
M  V30 5968 C 567.875 -0.0302427 -3.40887 0
M  V30 5969 H 569.068 -1.61045 -2.52991 0
M  V30 5970 H 566.621 -0.870724 -1.298 0
M  V30 5971 H 567.356 0.893505 -3.11748 0
M  V30 5972 H 567.141 -0.720759 -3.85419 0
M  V30 5973 H 568.631 0.21759 -4.17033 0
M  V30 5974 N 569.068 1.32177 -0.85831 0
M  V30 5975 C 570.316 1.96735 -0.462568 0
M  V30 5976 C 570.637 1.6824 0.985911 0
M  V30 5977 O 569.907 0.991564 1.68952 0
M  V30 5978 H 568.487 0.727849 -0.168064 0
M  V30 5979 H 571.149 1.61195 -1.09554 0
M  V30 5980 H 570.245 3.06068 -0.610647 0
M  V30 5981 N 570.547 0.616602 1.45037 0
M  V30 5982 C 571.963 0.280994 1.57107 0
M  V30 5983 C 572.163 -1.21627 1.60653 0
M  V30 5984 O 571.219 -1.9997 1.54169 0
M  V30 5985 C 572.532 0.960116 2.8496 0
M  V30 5986 C 574.08 0.936884 2.98649 0
M  V30 5987 C 574.555 1.59619 4.29285 0
M  V30 5988 N 576.046 1.5621 4.36065 0
M  V30 5989 C 576.781 2.04131 5.35834 0
M  V30 5990 N 576.277 2.60177 6.4209 0
M  V30 5991 N 578.07 1.94845 5.27249 0
M  V30 5992 H 570.221 1.58867 1.40979 0
M  V30 5993 H 572.484 0.666024 0.674623 0
M  V30 5994 H 572.19 2.01473 2.88273 0
M  V30 5995 H 572.064 0.488921 3.74018 0
M  V30 5996 H 574.451 -0.109209 2.94898 0
M  V30 5997 H 574.532 1.44643 2.10979 0
M  V30 5998 H 574.176 2.64166 4.33796 0
M  V30 5999 H 574.106 1.06159 5.15789 0
M  V30 6000 H 576.597 1.15276 3.59889 0
M  V30 6001 H 576.91 2.94513 7.1448 0
M  V30 6002 H 575.255 2.64221 6.42816 0
M  V30 6003 H 578.446 1.50792 4.43147 0
M  V30 6004 H 578.619 2.32504 6.04852 0
M  V30 6005 N 572.025 -1.5352 0.356285 0
M  V30 6006 C 573.436 -1.86282 -0.12492 0
M  V30 6007 C 573.787 -1.27717 -1.48939 0
M  V30 6008 O 572.912 -0.595614 -2.08042 0
M  V30 6009 C 573.507 -3.37995 -0.23345 0
M  V30 6010 C 572.066 -3.70588 -0.658899 0
M  V30 6011 C 571.213 -2.76581 0.199596 0
M  V30 6012 H 574.164 -1.47901 0.575423 0
M  V30 6013 H 574.185 -3.65475 -1.0587 0
M  V30 6014 H 573.697 -3.8059 0.759776 0
M  V30 6015 H 571.798 -3.33544 -1.66069 0
M  V30 6016 H 571.911 -4.77076 -0.439957 0
M  V30 6017 H 570.275 -2.52552 -0.330076 0
M  V30 6018 H 571.058 -3.22008 1.19019 0
M  V30 6019 N 573.503 -0.0852151 -1.57369 0
M  V30 6020 C 574.433 0.874556 -2.16503 0
M  V30 6021 C 575.414 1.30111 -1.09568 0
M  V30 6022 O 576.599 1.36977 -1.37662 0
M  V30 6023 C 573.729 2.13731 -2.73745 0
M  V30 6024 C 572.683 1.84971 -3.85966 0
M  V30 6025 C 572.009 3.17991 -4.29867 0
M  V30 6026 C 573.309 1.14442 -5.09608 0
M  V30 6027 H 575.003 0.381899 -2.96954 0
M  V30 6028 H 572.549 0.18225 -1.42842 0
M  V30 6029 H 574.502 2.81302 -3.13763 0
M  V30 6030 H 573.226 2.65263 -1.90534 0
M  V30 6031 H 571.885 1.19801 -3.46473 0
M  V30 6032 H 571.533 3.6739 -3.4356 0
M  V30 6033 H 571.233 2.99534 -5.05523 0
M  V30 6034 H 572.757 3.86737 -4.72511 0
M  V30 6035 H 574.171 1.72105 -5.46857 0
M  V30 6036 H 572.568 1.06197 -5.90629 0
M  V30 6037 H 573.638 0.12559 -4.84737 0
M  V30 6038 N 574.981 1.5647 0.188427 0
M  V30 6039 C 576.397 1.50204 0.539532 0
M  V30 6040 C 576.597 0.78644 1.85519 0
M  V30 6041 O 575.653 0.339714 2.50204 0
M  V30 6042 C 576.966 2.94893 0.588103 0
M  V30 6043 C 578.514 3.05602 0.67648 0
M  V30 6044 C 578.989 4.51716 0.756101 0
M  V30 6045 N 580.48 4.55894 0.819451 0
M  V30 6046 C 581.215 5.66272 0.90134 0
M  V30 6047 N 580.711 6.86323 0.945118 0
M  V30 6048 N 582.504 5.54201 0.939043 0
M  V30 6049 H 574.655 2.01406 -0.674493 0
M  V30 6050 H 576.918 0.916828 -0.241103 0
M  V30 6051 H 576.624 3.50334 -0.309633 0
M  V30 6052 H 576.498 3.4861 1.44051 0
M  V30 6053 H 578.885 2.50206 1.56465 0
M  V30 6054 H 578.966 2.54999 -0.202262 0
M  V30 6055 H 578.61 5.07739 -0.12774 0
M  V30 6056 H 578.54 5.00058 1.65074 0
M  V30 6057 H 581.031 3.69452 0.794594 0
M  V30 6058 H 581.344 7.66194 1.0083 0
M  V30 6059 H 579.689 6.88968 0.913683 0
M  V30 6060 H 582.88 4.59333 0.901725 0
M  V30 6061 H 583.053 6.40247 0.999402 0
M  V30 6062 N 576.459 -0.456382 1.50847 0
M  V30 6063 C 577.422 -1.53493 1.70213 0
M  V30 6064 C 578.422 -1.50264 0.572481 0
M  V30 6065 O 579.612 -1.52623 0.839751 0
M  V30 6066 C 576.744 -2.93091 1.741 0
M  V30 6067 H 577.937 -1.37633 2.66453 0
M  V30 6068 H 575.49 -0.683776 1.4055 0
M  V30 6069 H 576.225 -3.14378 0.796063 0
M  V30 6070 H 576.01 -2.9684 2.5618 0
M  V30 6071 H 577.5 -3.71368 1.90987 0
M  V30 6072 N 577.937 -1.40673 -0.710563 0
M  V30 6073 C 578.9 -1.4108 -1.80635 0
M  V30 6074 C 579.9 -0.303783 -1.57904 0
M  V30 6075 O 581.09 -0.562937 -1.64853 0
M  V30 6076 C 578.222 -1.20748 -3.18799 0
M  V30 6077 H 579.415 -2.38612 -1.81671 0
M  V30 6078 H 576.968 -1.26595 -0.916704 0
M  V30 6079 H 577.703 -0.239964 -3.23411 0
M  V30 6080 H 577.488 -2.00941 -3.36698 0
M  V30 6081 H 578.978 -1.23833 -3.98817 0
M  V30 6082 N 579.415 0.9433 -1.26252 0
M  V30 6083 C 580.378 2.02326 -1.07689 0
M  V30 6084 C 581.378 1.60779 -0.0259174 0
M  V30 6085 O 582.568 1.72108 -0.269134 0
M  V30 6086 C 579.7 3.34886 -0.63752 0
M  V30 6087 H 580.893 2.20225 -2.0357 0
M  V30 6088 H 578.446 1.12197 -1.08819 0
M  V30 6089 H 579.181 3.22684 0.323377 0
M  V30 6090 H 578.966 3.66393 -1.39637 0
M  V30 6091 H 580.456 4.14231 -0.529418 0
M  V30 6092 N 580.893 1.08022 1.14757 0
M  V30 6093 C 581.856 0.71048 2.1791 0
M  V30 6094 C 582.856 -0.252731 1.58801 0
M  V30 6095 O 584.046 -0.0327915 1.74169 0
M  V30 6096 C 581.178 0.0483203 3.40866 0
M  V30 6097 H 582.371 1.62384 2.52134 0
M  V30 6098 H 579.924 0.877595 1.29337 0
M  V30 6099 H 580.659 -0.876959 3.12218 0
M  V30 6100 H 580.444 0.741189 3.85031 0
M  V30 6101 H 581.934 -0.195471 4.17142 0
M  V30 6102 N 582.371 -1.3172 0.865308 0
M  V30 6103 C 583.281 -2.32394 0.320935 0
M  V30 6104 C 584.297 -1.64511 -0.566746 0
M  V30 6105 O 585.473 -1.95969 -0.464575 0
M  V30 6106 C 582.538 -3.43462 -0.472701 0
M  V30 6107 C 581.599 -4.27015 0.442385 0
M  V30 6108 C 580.832 -5.32779 -0.313469 0
M  V30 6109 O 581.055 -5.49158 -1.54214 0
M  V30 6110 O 579.989 -6.01015 0.326257 0
M  V30 6111 H 583.815 -2.80868 1.15528 0
M  V30 6112 H 581.4 -1.35535 0.628545 0
M  V30 6113 H 583.282 -4.11172 -0.922781 0
M  V30 6114 H 581.957 -2.97159 -1.28367 0
M  V30 6115 H 580.864 -3.62075 0.940866 0
M  V30 6116 H 582.197 -4.76871 1.21882 0
M  V30 6117 N 583.85 -0.624285 -1.44708 0
M  V30 6118 C 584.798 0.0969952 -2.32398 0
M  V30 6119 C 585.792 0.842762 -1.46949 0
M  V30 6120 O 586.998 0.756436 -1.63334 0
M  V30 6121 H 583.373 0.0501306 -0.750327 0
M  V30 6122 H 585.344 -0.660767 -2.90992 0
M  V30 6123 C 584.093 1.06967 -3.30837 0
M  V30 6124 H 583.416 0.505242 -3.96595 0
M  V30 6125 H 584.856 1.54397 -3.94889 0
M  V30 6126 C 583.315 2.15153 -2.5925 0
M  V30 6127 O 583.845 3.23139 -2.3863 0
M  V30 6128 N 582.051 1.90898 -2.19103 0
M  V30 6129 H 581.598 1.03086 -2.36074 0
M  V30 6130 H 581.556 2.63485 -1.71531 0
M  V30 6131 N 585.328 1.53329 -0.364422 0
M  V30 6132 C 586.238 2.29414 0.490552 0
M  V30 6133 C 587.254 1.35335 1.09363 0
M  V30 6134 O 588.43 1.68391 1.10483 0
M  V30 6135 C 585.495 3.06772 1.61529 0
M  V30 6136 C 584.556 4.16516 1.03986 0
M  V30 6137 C 583.789 4.90176 2.111 0
M  V30 6138 O 584.012 4.63687 3.32191 0
M  V30 6139 O 582.946 5.76134 1.74222 0
M  V30 6140 H 586.772 3.03428 -0.12856 0
M  V30 6141 H 584.357 1.48843 -0.128837 0
M  V30 6142 H 586.239 3.55082 2.26924 0
M  V30 6143 H 584.914 2.35596 2.21983 0
M  V30 6144 H 583.821 3.7246 0.349856 0
M  V30 6145 H 585.154 4.89855 0.4799 0
M  V30 6146 N 586.806 0.0935595 1.57322 0
M  V30 6147 C 587.769 -0.851426 2.12799 0
M  V30 6148 C 588.769 -1.21187 1.0569 0
M  V30 6149 O 589.959 -1.14156 1.31583 0
M  V30 6150 C 587.091 -2.14779 2.64731 0
M  V30 6151 H 588.284 -0.369733 2.97612 0
M  V30 6152 H 585.837 -0.155417 1.55525 0
M  V30 6153 H 586.572 -2.67437 1.83434 0
M  V30 6154 H 586.357 -1.89907 3.43042 0
M  V30 6155 H 587.847 -2.82383 3.07651 0
M  V30 6156 N 588.284 -1.56567 -0.180126 0
M  V30 6157 C 589.214 -1.98753 -1.22553 0
M  V30 6158 C 590.195 -0.86175 -1.46656 0
M  V30 6159 O 591.38 -1.12719 -1.58139 0
M  V30 6160 C 588.51 -2.33988 -2.56645 0
M  V30 6161 C 587.464 -3.49445 -2.47128 0
M  V30 6162 C 586.79 -3.70397 -3.8563 0
M  V30 6163 C 588.09 -4.83171 -1.98352 0
M  V30 6164 H 589.784 -2.86332 -0.874896 0
M  V30 6165 H 587.33 -1.37757 -0.419414 0
M  V30 6166 H 589.283 -2.62097 -3.29974 0
M  V30 6167 H 588.007 -1.43309 -2.93479 0
M  V30 6168 H 586.666 -3.2145 -1.76254 0
M  V30 6169 H 586.314 -2.77023 -4.19842 0
M  V30 6170 H 586.014 -4.48077 -3.80132 0
M  V30 6171 H 587.538 -4.00897 -4.60558 0
M  V30 6172 H 588.952 -5.10213 -2.61449 0
M  V30 6173 H 587.349 -5.64425 -2.03823 0
M  V30 6174 H 588.419 -4.75753 -0.937402 0
M  V30 6175 N 589.762 0.448376 -1.51087 0
M  V30 6176 C 590.694 1.56146 -1.67783 0
M  V30 6177 C 591.707 1.52913 -0.55871 0
M  V30 6178 O 592.896 1.57889 -0.83267 0
M  V30 6179 C 589.996 2.95057 -1.66716 0
M  V30 6180 C 589.169 3.22915 -2.95033 0
M  V30 6181 C 588.228 4.41495 -2.86302 0
M  V30 6182 O 587.254 4.40688 -3.60254 0
M  V30 6183 N 588.456 5.44443 -2.014 0
M  V30 6184 H 591.221 1.42232 -2.638 0
M  V30 6185 H 588.782 0.637153 -1.48835 0
M  V30 6186 H 590.774 3.72388 -1.58458 0
M  V30 6187 H 589.344 3.02624 -0.783403 0
M  V30 6188 H 588.564 2.33985 -3.17245 0
M  V30 6189 H 589.852 3.38349 -3.79996 0
M  V30 6190 H 589.25 5.4793 -1.40674 0
M  V30 6191 H 587.807 6.2067 -1.99029 0
M  V30 6192 N 591.24 1.41047 0.703093 0
M  V30 6193 C 592.187 1.42302 1.81711 0
M  V30 6194 C 593.157 0.278336 1.63751 0
M  V30 6195 O 594.342 0.478266 1.84709 0
M  V30 6196 C 591.482 1.30362 3.19531 0
M  V30 6197 C 590.595 2.54638 3.48975 0
M  V30 6198 C 589.73 2.35047 4.76368 0
M  V30 6199 C 588.769 3.54837 4.98756 0
M  V30 6200 N 587.906 3.34363 6.1737 0
M  V30 6201 H 592.746 2.37516 1.79973 0
M  V30 6202 H 590.283 1.1795 0.878983 0
M  V30 6203 H 592.241 1.21443 3.99134 0
M  V30 6204 H 590.871 0.387602 3.20464 0
M  V30 6205 H 589.923 2.74037 2.63833 0
M  V30 6206 H 591.235 3.43766 3.61423 0
M  V30 6207 H 590.389 2.23552 5.64012 0
M  V30 6208 H 589.128 1.43363 4.66153 0
M  V30 6209 H 588.133 3.66795 4.09563 0
M  V30 6210 H 589.358 4.47464 5.10835 0
M  V30 6211 H 587.304 2.45373 6.08382 0
M  V30 6212 H 587.221 4.17063 6.30551 0
M  V30 6213 H 588.489 3.26626 7.07768 0
M  V30 6214 N 592.718 -0.936591 1.26751 0
M  V30 6215 C 593.681 -2.01752 1.08761 0
M  V30 6216 C 594.681 -1.60763 0.0344435 0
M  V30 6217 O 595.871 -1.71963 0.278258 0
M  V30 6218 C 593.003 -3.34543 0.655271 0
M  V30 6219 H 594.196 -2.19143 2.04735 0
M  V30 6220 H 591.749 -1.11618 1.09413 0
M  V30 6221 H 592.484 -3.22851 -0.30626 0
M  V30 6222 H 592.269 -3.65647 1.41578 0
M  V30 6223 H 593.759 -4.13944 0.551378 0
M  V30 6224 N 594.196 -1.08629 -1.14182 0
M  V30 6225 C 595.445 -0.812271 -1.84621 0
M  V30 6226 C 595.758 0.664313 -1.83973 0
M  V30 6227 O 596.964 1.05357 -2.50224 0
M  V30 6228 C 595.42 -1.4031 -3.31423 0
M  V30 6229 C 595.028 -2.91164 -3.40481 0
M  V30 6230 C 596.772 -1.20767 -4.06959 0
M  V30 6231 C 594.679 -3.43373 -4.81507 0
M  V30 6232 H 593.609 -0.30019 -0.691666 0
M  V30 6233 H 596.26 -1.30798 -1.28701 0
M  V30 6234 H 594.642 -0.835096 -3.87094 0
M  V30 6235 H 595.816 -3.5412 -2.94848 0
M  V30 6236 H 594.131 -3.09646 -2.78403 0
M  V30 6237 H 596.728 -1.57237 -5.11058 0
M  V30 6238 H 597.071 -0.147664 -4.16038 0
M  V30 6239 H 597.604 -1.74274 -3.57594 0
M  V30 6240 H 594.343 -4.48958 -4.77616 0
M  V30 6241 H 593.863 -2.85176 -5.27669 0
M  V30 6242 H 595.542 -3.40095 -5.50404 0
M  V30 6243 N 595.674 1.31259 -0.872281 0
M  V30 6244 C 596.951 1.91362 -0.404943 0
M  V30 6245 C 597.331 1.79362 1.11321 0
M  V30 6246 O 596.679 1.20277 1.94283 0
M  V30 6247 C 596.889 3.3749 -0.888893 0
M  V30 6248 C 598.237 4.14593 -0.916384 0
M  V30 6249 O 599.261 3.46282 -0.834701 0
M  V30 6250 O 598.12 5.3661 -1.03498 0
M  V30 6251 H 595.214 0.818016 -0.121569 0
M  V30 6252 H 597.76 1.39912 -0.960346 0
M  V30 6253 H 596.532 3.40249 -1.93251 0
M  V30 6254 H 596.155 3.96375 -0.311932 0
M  V30 6255 N 597.152 0.631951 1.44375 0
M  V30 6256 C 598.568 0.297642 1.568 0
M  V30 6257 C 598.768 -1.19916 1.61934 0
M  V30 6258 O 597.824 -1.98324 1.56281 0
M  V30 6259 C 599.137 0.990286 2.83926 0
M  V30 6260 C 600.685 0.968507 2.97639 0
M  V30 6261 C 601.16 1.64163 4.27568 0
M  V30 6262 N 602.651 1.60826 4.34384 0
M  V30 6263 C 603.386 2.09802 5.33639 0
M  V30 6264 N 602.882 2.66973 6.39294 0
M  V30 6265 N 604.675 2.00426 5.25153 0
M  V30 6266 H 596.826 1.60353 1.39286 0
M  V30 6267 H 599.089 0.673142 0.667521 0
M  V30 6268 H 598.795 2.04519 2.8612 0
M  V30 6269 H 598.669 0.528563 3.73478 0
M  V30 6270 H 601.056 -0.0779247 2.94997 0
M  V30 6271 H 601.137 1.46873 2.09433 0
M  V30 6272 H 600.781 2.68752 4.3097 0
M  V30 6273 H 600.711 1.11624 5.14634 0
M  V30 6274 H 603.202 1.19087 3.58646 0
M  V30 6275 H 603.515 3.02074 7.11316 0
M  V30 6276 H 601.86 2.71024 6.39977 0
M  V30 6277 H 605.051 1.55483 4.41523 0
M  V30 6278 H 605.224 2.38906 6.02352 0
M  V30 6279 N 598.631 -1.53133 0.372548 0
M  V30 6280 C 599.877 -2.02336 -0.207823 0
M  V30 6281 C 600.232 -1.25477 -1.45853 0
M  V30 6282 O 599.525 -0.341971 -1.88524 0
M  V30 6283 C 599.719 -3.53206 -0.545938 0
M  V30 6284 C 599.548 -4.44674 0.670454 0
M  V30 6285 C 598.318 -4.91217 1.18465 0
M  V30 6286 C 600.516 -4.90772 1.53777 0
M  V30 6287 N 598.498 -5.66711 2.36034 0
M  V30 6288 C 599.869 -5.64678 2.56004 0
M  V30 6289 C 601.924 -4.72836 1.55983 0
M  V30 6290 C 600.627 -6.22555 3.60303 0
M  V30 6291 C 602.653 -5.31583 2.59179 0
M  V30 6292 C 602.015 -6.05381 3.6013 0
M  V30 6293 H 598.114 -0.781048 -0.0385783 0
M  V30 6294 H 600.698 -1.87665 0.518664 0
M  V30 6295 H 598.869 -3.68024 -1.24149 0
M  V30 6296 H 600.601 -3.89123 -1.112 0
M  V30 6297 H 597.356 -4.67652 0.748205 0
M  V30 6298 H 597.78 -6.09117 2.95475 0
M  V30 6299 H 602.422 -4.15299 0.792877 0
M  V30 6300 H 600.14 -6.79183 4.37876 0
M  V30 6301 H 603.726 -5.19595 2.61749 0
M  V30 6302 H 602.606 -6.50028 4.38672 0
M  V30 6303 N 600.109 -0.101901 -1.5727 0
M  V30 6304 C 601.357 0.559091 -1.94213 0
M  V30 6305 C 601.678 1.68297 -0.984948 0
M  V30 6306 O 600.948 1.95863 -0.0381975 0
M  V30 6307 H 599.528 0.20952 -0.717015 0
M  V30 6308 H 602.19 -0.166831 -1.94185 0
M  V30 6309 H 601.286 0.96485 -2.96811 0
M  V30 6310 N 601.587 1.56661 0.17182 0
M  V30 6311 C 602.833 1.82235 0.889845 0
M  V30 6312 C 603.166 0.679673 1.81918 0
M  V30 6313 O 602.441 -0.318404 1.91876 0
M  V30 6314 C 602.724 3.18195 1.68595 0
M  V30 6315 C 602.577 4.42989 0.779773 0
M  V30 6316 C 603.896 3.5109 2.65375 0
M  V30 6317 H 601.015 0.66291 0.322056 0
M  V30 6318 H 603.657 1.89358 0.15608 0
M  V30 6319 H 601.807 3.12253 2.3115 0
M  V30 6320 H 603.479 4.60997 0.16714 0
M  V30 6321 H 601.722 4.33711 0.0877964 0
M  V30 6322 H 602.393 5.3467 1.3723 0
M  V30 6323 H 604.869 3.57482 2.12946 0
M  V30 6324 H 603.745 4.47298 3.18144 0
M  V30 6325 H 604.006 2.75768 3.45549 0
M  V30 6326 N 603.065 -0.440357 1.51323 0
M  V30 6327 C 604.311 -1.19181 1.64085 0
M  V30 6328 C 604.644 -1.90936 0.354575 0
M  V30 6329 O 603.919 -1.8347 -0.645675 0
M  V30 6330 C 604.202 -2.2112 2.84215 0
M  V30 6331 C 604.055 -1.53468 4.22809 0
M  V30 6332 C 605.374 -3.22133 2.99864 0
M  V30 6333 H 602.493 -0.431924 0.597169 0
M  V30 6334 H 605.135 -0.481443 1.83799 0
M  V30 6335 H 603.285 -2.81703 2.67537 0
M  V30 6336 H 604.957 -0.962455 4.51148 0
M  V30 6337 H 603.2 -0.837086 4.25647 0
M  V30 6338 H 603.871 -2.27694 5.02852 0
M  V30 6339 H 606.347 -2.71601 3.15233 0
M  V30 6340 H 605.223 -3.90756 3.85488 0
M  V30 6341 H 605.484 -3.88061 2.11804 0
M  V30 6342 N 604.543 -1.41418 -0.695603 0
M  V30 6343 C 605.453 -1.45622 -1.83933 0
M  V30 6344 C 606.469 -0.346825 -1.70508 0
M  V30 6345 O 607.645 -0.59454 -1.92424 0
M  V30 6346 C 604.71 -1.33627 -3.19914 0
M  V30 6347 C 603.771 -2.54882 -3.45447 0
M  V30 6348 C 603.004 -2.43449 -4.7494 0
M  V30 6349 O 603.227 -1.45905 -5.51424 0
M  V30 6350 O 602.161 -3.33206 -5.01256 0
M  V30 6351 H 605.987 -2.42114 -1.83342 0
M  V30 6352 H 603.572 -1.22956 -0.848658 0
M  V30 6353 H 605.454 -1.29221 -4.01098 0
M  V30 6354 H 604.129 -0.402508 -3.21188 0
M  V30 6355 H 603.036 -2.64865 -2.64192 0
M  V30 6356 H 604.369 -3.47087 -3.48987 0
M  V30 6357 N 606.021 0.929856 -1.27246 0
M  V30 6358 C 607.267 1.6798 -1.13625 0
M  V30 6359 C 607.6 1.91586 0.317589 0
M  V30 6360 O 606.875 1.50467 1.23247 0
M  V30 6361 C 607.158 3.04766 -1.91806 0
M  V30 6362 C 607.011 2.88415 -3.45162 0
M  V30 6363 C 608.33 4.05063 -1.72082 0
M  V30 6364 H 605.449 0.609632 -0.414147 0
M  V30 6365 H 608.091 1.0792 -1.56376 0
M  V30 6366 H 606.241 3.56034 -1.55474 0
M  V30 6367 H 607.913 2.44282 -3.91311 0
M  V30 6368 H 606.156 2.23802 -3.71611 0
M  V30 6369 H 606.827 3.85482 -3.95105 0
M  V30 6370 H 609.303 3.62798 -2.03757 0
M  V30 6371 H 608.179 4.98765 -2.29182 0
M  V30 6372 H 608.44 4.37021 -0.668206 0
M  V30 6373 N 607.499 1.09233 1.13605 0
M  V30 6374 C 608.409 0.741939 2.22559 0
M  V30 6375 C 609.425 -0.255236 1.72118 0
M  V30 6376 O 610.601 -0.0970747 2.01166 0
M  V30 6377 C 607.666 0.165595 3.46304 0
M  V30 6378 C 606.727 1.21846 4.11645 0
M  V30 6379 C 605.96 0.669526 5.29484 0
M  V30 6380 O 606.183 -0.508228 5.68131 0
M  V30 6381 O 605.117 1.42361 5.84822 0
M  V30 6382 H 608.943 1.65107 2.54899 0
M  V30 6383 H 606.528 0.866584 1.21699 0
M  V30 6384 H 608.41 -0.152592 4.21124 0
M  V30 6385 H 607.085 -0.716573 3.15669 0
M  V30 6386 H 605.992 1.58931 3.38662 0
M  V30 6387 H 607.325 2.07321 4.46407 0
M  V30 6388 N 608.977 -1.30795 0.87923 0
M  V30 6389 C 609.94 -2.26563 0.346676 0
M  V30 6390 C 610.94 -1.52578 -0.507597 0
M  V30 6391 O 612.13 -1.71318 -0.315575 0
M  V30 6392 C 609.262 -3.37115 -0.506611 0
M  V30 6393 H 610.455 -2.75183 1.19223 0
M  V30 6394 H 608.008 -1.41886 0.655598 0
M  V30 6395 H 608.743 -2.93802 -1.37299 0
M  V30 6396 H 608.528 -3.91959 0.105218 0
M  V30 6397 H 610.018 -4.08412 -0.871192 0
M  V30 6398 O 610.494 -0.779418 -1.41447 0
M  V30 6399 H 611.185 -0.346083 -1.90583 0
M  V30 END ATOM
M  V30 BEGIN BOND
M  V30 END BOND
M  V30 END CTAB
M  END
$$$$
