drugbank_target|Q5L478 Nonstructural protein 5A (DB09027; DB09102; DB09296; DB11574; DB11613; DB13878)
 OpenBabel12092121043D

  0  0  0     0  0            999 V3000
M  V30 BEGIN CTAB
M  V30 COUNTS 6723 6820 0 0 0
M  V30 BEGIN ATOM
M  V30 1 H -0.908 1.98254 -0.117106 0
M  V30 2 N 0 1.576 0 0
M  V30 3 C 1.225 1.95249 0.699468 0
M  V30 4 C 1.65 0.874934 1.66513 0
M  V30 5 O 1.008 -0.166929 1.8053 0
M  V30 6 C 1.056 3.31994 1.40756 0
M  V30 7 O 0.16 3.26298 2.52197 0
M  V30 8 H -0.499 0.637402 0.186051 0
M  V30 9 H 2.031 2.04531 -0.05319 0
M  V30 10 H 2.041 3.6756 1.77098 0
M  V30 11 H 0.716 4.09975 0.69953 0
M  V30 12 H -0.707 3.02408 2.18183 0
M  V30 13 N 1.4781 -0.272755 1.55222 0
M  V30 14 C 2.7261 -1.00234 1.75492 0
M  V30 15 C 3.0471 -1.8681 0.5592 0
M  V30 16 O 2.3171 -1.91215 -0.425882 0
M  V30 17 H 0.8971 -0.373076 0.647166 0
M  V30 18 H 3.5591 -0.296926 1.92625 0
M  V30 19 H 2.6551 -1.63913 2.65592 0
M  V30 20 N 2.9562 -1.48159 -0.537278 0
M  V30 21 C 4.1812 -1.59707 -1.32319 0
M  V30 22 C 4.6062 -0.254859 -1.86365 0
M  V30 23 O 3.9642 0.772378 -1.64024 0
M  V30 24 C 4.0122 -2.6412 -2.45505 0
M  V30 25 O 3.1162 -2.20774 -3.48328 0
M  V30 26 H 2.4572 -0.535791 -0.392204 0
M  V30 27 H 4.9872 -1.94092 -0.647268 0
M  V30 28 H 4.9972 -2.85166 -2.91795 0
M  V30 29 H 3.6722 -3.61567 -2.05528 0
M  V30 30 H 2.2492 -2.09911 -3.08207 0
M  V30 31 N 4.4343 0.785586 -1.36625 0
M  V30 32 C 5.6803 1.5452 -1.32269 0
M  V30 33 C 6.0353 1.92159 0.0962266 0
M  V30 34 O 5.3283 1.60158 1.05167 0
M  V30 35 C 5.5223 2.83007 -2.1827 0
M  V30 36 C 5.3513 2.57925 -3.68382 0
M  V30 37 C 4.1213 2.52752 -4.37544 0
M  V30 38 C 6.3193 2.26861 -4.61561 0
M  V30 39 N 4.3013 2.19608 -5.73276 0
M  V30 40 C 5.6723 2.03738 -5.85569 0
M  V30 41 C 7.7273 2.129 -4.50087 0
M  V30 42 C 6.4303 1.68065 -6.9939 0
M  V30 43 C 8.4563 1.78626 -5.63779 0
M  V30 44 C 7.8183 1.56353 -6.86828 0
M  V30 45 H 3.9173 0.566301 -0.539283 0
M  V30 46 H 6.5013 0.917736 -1.71714 0
M  V30 47 H 4.6723 3.43614 -1.81063 0
M  V30 48 H 6.4043 3.48775 -2.05275 0
M  V30 49 H 3.1593 2.6813 -3.90389 0
M  V30 50 H 3.5833 2.05771 -6.44971 0
M  V30 51 H 8.2253 2.28808 -3.55537 0
M  V30 52 H 5.9433 1.50895 -7.93887 0
M  V30 53 H 9.5293 1.68502 -5.56865 0
M  V30 54 H 8.4093 1.30223 -7.73312 0
M  V30 55 N 5.9124 1.20967 1.01018 0
M  V30 56 C 6.8424 0.988272 2.11555 0
M  V30 57 C 7.8234 -0.0849778 1.69888 0
M  V30 58 O 9.0084 0.0738202 1.9406 0
M  V30 59 C 6.1384 0.546528 3.42973 0
M  V30 60 C 5.0924 1.56375 3.9841 0
M  V30 61 C 4.4184 0.97842 5.25672 0
M  V30 62 C 5.7184 2.94922 4.31066 0
M  V30 63 H 7.4124 1.91276 2.30334 0
M  V30 64 H 4.9584 0.921073 1.1069 0
M  V30 65 H 6.9114 0.378839 4.19694 0
M  V30 66 H 5.6354 -0.413598 3.23971 0
M  V30 67 H 4.2944 1.71891 3.23804 0
M  V30 68 H 3.9424 0.0101688 5.02999 0
M  V30 69 H 3.6424 1.65784 5.63728 0
M  V30 70 H 5.1664 0.821939 6.05043 0
M  V30 71 H 6.5804 2.8288 4.9865 0
M  V30 72 H 4.9774 3.5983 4.80253 0
M  V30 73 H 6.0474 3.4616 3.39561 0
M  V30 74 N 7.3905 -1.2043 1.01659 0
M  V30 75 C 8.8065 -1.41852 0.731442 0
M  V30 76 C 9.0065 -1.89358 -0.688898 0
M  V30 77 O 8.0625 -2.06247 -1.45666 0
M  V30 78 C 9.3755 -2.44019 1.75714 0
M  V30 79 C 10.9235 -2.57785 1.77527 0
M  V30 80 C 11.3985 -3.63194 2.79023 0
M  V30 81 N 12.8895 -3.70678 2.77763 0
M  V30 82 C 13.6245 -4.51897 3.52954 0
M  V30 83 N 13.1205 -5.36921 4.37821 0
M  V30 84 N 14.9135 -4.4643 3.41551 0
M  V30 85 H 7.0645 -0.879093 1.93354 0
M  V30 86 H 9.3275 -0.448425 0.835236 0
M  V30 87 H 9.0335 -2.1611 2.77469 0
M  V30 88 H 8.9075 -3.43007 1.56927 0
M  V30 89 H 11.2945 -2.85023 0.764569 0
M  V30 90 H 11.3755 -1.58992 2.00387 0
M  V30 91 H 11.0195 -3.36699 3.80258 0
M  V30 92 H 10.9495 -4.61609 2.53425 0
M  V30 93 H 13.4405 -3.09944 2.16201 0
M  V30 94 H 13.7535 -5.95981 4.91962 0
M  V30 95 H 12.0985 -5.36424 4.41899 0
M  V30 96 H 15.2895 -3.79042 2.74672 0
M  V30 97 H 15.4625 -5.09491 4.00404 0
M  V30 98 N 8.8686 -0.792821 -1.36206 0
M  V30 99 C 10.1456 -0.290627 -1.93429 0
M  V30 100 C 10.5256 1.21773 -1.72437 0
M  V30 101 O 9.8736 2.0108 -1.08531 0
M  V30 102 C 10.0836 -0.686973 -3.42172 0
M  V30 103 C 11.4316 -0.668643 -4.19302 0
M  V30 104 O 12.4556 -0.627658 -3.50626 0
M  V30 105 O 11.3146 -0.714597 -5.41808 0
M  V30 106 H 8.4086 -0.0727927 -0.82379 0
M  V30 107 H 10.9546 -0.875593 -1.45367 0
M  V30 108 H 9.7266 -1.72711 -3.51122 0
M  V30 109 H 9.3496 -0.0760733 -3.97527 0
M  V30 110 N 10.3467 1.47872 -0.545128 0
M  V30 111 C 11.5927 2.02793 -0.0166104 0
M  V30 112 C 11.9257 1.41987 1.32489 0
M  V30 113 O 11.2007 0.571045 1.85928 0
M  V30 114 C 11.4837 3.59989 0.0893294 0
M  V30 115 C 11.3367 4.3125 -1.27841 0
M  V30 116 C 12.6557 4.32606 0.808724 0
M  V30 117 H 9.7747 0.736962 -0.00751035 0
M  V30 118 H 12.4167 1.76433 -0.705085 0
M  V30 119 H 10.5667 3.82579 0.675681 0
M  V30 120 H 12.2387 4.20035 -1.90704 0
M  V30 121 H 10.4817 3.92076 -1.85632 0
M  V30 122 H 11.1527 5.39736 -1.15713 0
M  V30 123 H 13.6287 4.14936 0.310992 0
M  V30 124 H 12.5047 5.42251 0.851782 0
M  V30 125 H 12.7657 4.00963 1.86229 0
M  V30 126 N 11.8248 0.280983 1.55075 0
M  V30 127 C 13.0708 -0.327573 2.00745 0
M  V30 128 C 13.4258 -1.53045 1.16598 0
M  V30 129 O 12.7188 -1.90221 0.229451 0
M  V30 130 C 12.9128 -0.754656 3.49342 0
M  V30 131 C 12.7418 0.40529 4.4787 0
M  V30 132 C 11.5118 0.890947 4.97383 0
M  V30 133 C 13.7098 1.24371 4.99035 0
M  V30 134 N 11.6918 2.01975 5.79724 0
M  V30 135 C 13.0628 2.22031 5.7888 0
M  V30 136 C 15.1178 1.27638 4.81262 0
M  V30 137 C 13.8208 3.22709 6.42846 0
M  V30 138 C 15.8468 2.27164 5.46031 0
M  V30 139 C 15.2088 3.23556 6.25692 0
M  V30 140 H 11.3078 -0.0848774 0.77738 0
M  V30 141 H 13.8918 0.406342 1.90413 0
M  V30 142 H 12.0628 -1.45778 3.60005 0
M  V30 143 H 13.7948 -1.34105 3.81835 0
M  V30 144 H 10.5498 0.469262 4.71269 0
M  V30 145 H 10.9738 2.58794 6.25584 0
M  V30 146 H 15.6158 0.544936 4.19274 0
M  V30 147 H 13.3338 3.96784 7.0398 0
M  V30 148 H 16.9198 2.30441 5.34217 0
M  V30 149 H 15.7998 3.99309 6.74924 0
M  V30 150 N 13.3029 -1.57598 0.00835791 0
M  V30 151 C 14.5799 -1.82172 -0.712235 0
M  V30 152 C 14.9599 -0.887873 -1.9152 0
M  V30 153 O 14.3079 0.06146 -2.28417 0
M  V30 154 C 14.5179 -3.30875 -1.11008 0
M  V30 155 C 15.8659 -3.96826 -1.51044 0
M  V30 156 O 16.8899 -3.35248 -1.20364 0
M  V30 157 O 15.7489 -5.05318 -2.08125 0
M  V30 158 H 12.8429 -0.750435 -0.347529 0
M  V30 159 H 15.3889 -1.69665 0.0344523 0
M  V30 160 H 14.1609 -3.90481 -0.252982 0
M  V30 161 H 13.7839 -3.48412 -1.9156 0
M  V30 162 N 14.781 0.264519 -1.55364 0
M  V30 163 C 16.027 0.992314 -1.77552 0
M  V30 164 C 16.382 1.83626 -0.574379 0
M  V30 165 O 15.675 1.86648 0.432782 0
M  V30 166 C 15.869 1.9004 -3.02687 0
M  V30 167 C 15.698 1.14583 -4.34857 0
M  V30 168 C 14.468 0.858068 -4.97961 0
M  V30 169 C 16.666 0.532069 -5.1154 0
M  V30 170 N 14.648 0.0775974 -6.13851 0
M  V30 171 C 16.019 -0.113823 -6.19896 0
M  V30 172 C 18.074 0.440763 -4.95945 0
M  V30 173 C 16.777 -0.842231 -7.14352 0
M  V30 174 C 18.803 -0.274072 -5.90765 0
M  V30 175 C 18.165 -0.90867 -6.98515 0
M  V30 176 H 14.264 0.344811 -0.701875 0
M  V30 177 H 16.848 0.267141 -1.92859 0
M  V30 178 H 15.019 2.59775 -2.88741 0
M  V30 179 H 16.751 2.56243 -3.13243 0
M  V30 180 H 13.506 1.16547 -4.59036 0
M  V30 181 H 13.93 -0.300216 -6.76334 0
M  V30 182 H 18.572 0.917064 -4.12735 0
M  V30 183 H 16.29 -1.33019 -7.97077 0
M  V30 184 H 19.876 -0.345151 -5.80775 0
M  V30 185 H 18.756 -1.45299 -7.70622 0
M  V30 186 N 16.2591 1.48442 0.529413 0
M  V30 187 C 17.5081 1.55742 1.28169 0
M  V30 188 C 17.8211 0.236511 1.94165 0
M  V30 189 O 19.0271 0.187761 2.7085 0
M  V30 190 C 17.4831 2.74667 2.32564 0
M  V30 191 C 17.0911 4.13402 1.72636 0
M  V30 192 C 18.8351 2.9128 3.08798 0
M  V30 193 C 16.7421 5.23587 2.74975 0
M  V30 194 H 15.6721 0.579796 0.48203 0
M  V30 195 H 18.3231 1.74776 0.559056 0
M  V30 196 H 16.7051 2.49067 3.07866 0
M  V30 197 H 17.8791 4.49022 1.03519 0
M  V30 198 H 16.1941 4.0191 1.08892 0
M  V30 199 H 18.7911 3.70767 3.85274 0
M  V30 200 H 19.1341 2.00757 3.64695 0
M  V30 201 H 19.6671 3.16782 2.40611 0
M  V30 202 H 16.4061 6.16076 2.23897 0
M  V30 203 H 15.9261 4.92454 3.42417 0
M  V30 204 H 17.6051 5.51724 3.37949 0
M  V30 205 N 17.7372 -0.778329 1.37039 0
M  V30 206 C 18.9772 -1.54973 1.33276 0
M  V30 207 C 19.3412 -1.91816 -0.0839376 0
M  V30 208 O 20.5422 -2.6767 -0.246228 0
M  V30 209 C 18.8132 -2.78517 2.23971 0
M  V30 210 S 20.3722 -3.6865 2.37997 0
M  V30 211 H 17.1902 -0.530639 0.473226 0
M  V30 212 H 19.7922 -0.915806 1.72723 0
M  V30 213 H 18.4962 -2.4952 3.25835 0
M  V30 214 H 18.0272 -3.46875 1.85584 0
M  V30 215 H 20.0422 -4.70182 1.58567 0
M  V30 216 N 19.2153 -1.21501 -1.00376 0
M  V30 217 C 20.4433 -1.059 -1.77744 0
M  V30 218 C 20.8583 0.391125 -1.84704 0
M  V30 219 O 20.2153 1.27133 -1.30933 0
M  V30 220 C 20.2663 -1.65111 -3.21591 0
M  V30 221 O 19.9873 -3.0445 -3.15027 0
M  V30 222 C 21.4883 -1.54637 -4.15454 0
M  V30 223 H 18.7083 -0.371825 -0.558558 0
M  V30 224 H 21.2523 -1.60865 -1.26264 0
M  V30 225 H 19.4073 -1.14235 -3.70175 0
M  V30 226 H 19.8213 -3.3278 -4.0541 0
M  V30 227 H 21.2953 -2.00808 -5.14179 0
M  V30 228 H 21.7723 -0.501022 -4.36333 0
M  V30 229 H 22.3783 -2.04767 -3.72761 0
M  V30 230 N 20.6934 1.19889 -1.02296 0
M  V30 231 C 21.9394 1.89701 -0.717033 0
M  V30 232 C 22.2724 1.7905 0.751989 0
M  V30 233 O 21.5474 1.17891 1.547 0
M  V30 234 C 21.8304 3.40858 -1.16136 0
M  V30 235 C 21.6834 3.60411 -2.69117 0
M  V30 236 C 23.0024 4.33876 -0.737549 0
M  V30 237 H 20.1214 0.688874 -0.261957 0
M  V30 238 H 22.7634 1.41154 -1.27183 0
M  V30 239 H 20.9134 3.82335 -0.689342 0
M  V30 240 H 22.5854 3.28145 -3.2422 0
M  V30 241 H 20.8284 3.03665 -3.0979 0
M  V30 242 H 21.4994 4.66396 -2.95261 0
M  V30 243 H 23.9754 4.00081 -1.14344 0
M  V30 244 H 22.8514 5.38242 -1.0764 0
M  V30 245 H 23.1124 4.40628 0.360436 0
M  V30 246 N 22.1715 0.800033 1.35784 0
M  V30 247 C 23.1015 0.220184 2.3246 0
M  V30 248 C 24.0825 -0.65073 1.57161 0
M  V30 249 O 25.2675 -0.582359 1.85263 0
M  V30 250 C 22.3975 -0.637353 3.41402 0
M  V30 251 C 21.3515 0.134531 4.27789 0
M  V30 252 C 20.6775 -0.844285 5.27992 0
M  V30 253 C 21.9775 1.32979 5.05088 0
M  V30 254 H 23.6715 1.02787 2.81203 0
M  V30 255 H 21.2175 0.495717 1.35199 0
M  V30 256 H 23.1705 -1.05302 4.08031 0
M  V30 257 H 21.8945 -1.47785 2.91251 0
M  V30 258 H 20.5535 0.531296 3.6273 0
M  V30 259 H 20.2015 -1.68011 4.74111 0
M  V30 260 H 19.9015 -0.332184 5.8666 0
M  V30 261 H 21.4255 -1.2583 5.97494 0
M  V30 262 H 22.8395 0.98934 5.64699 0
M  V30 263 H 21.2365 1.77593 5.7322 0
M  V30 264 H 22.3065 2.11978 4.36111 0
M  V30 265 N 23.6496 -1.47581 0.552962 0
M  V30 266 C 24.8776 -2.06875 0.0320556 0
M  V30 267 C 25.2926 -1.40625 -1.25976 0
M  V30 268 O 24.6496 -0.501349 -1.75479 0
M  V30 269 C 24.7006 -3.61092 -0.17167 0
M  V30 270 O 24.4216 -4.24858 1.06899 0
M  V30 271 C 25.9226 -4.37242 -0.730344 0
M  V30 272 H 23.1426 -0.669561 0.043915 0
M  V30 273 H 25.6866 -1.89646 0.765163 0
M  V30 274 H 23.8416 -3.7785 -0.854894 0
M  V30 275 H 24.2556 -5.17334 0.864059 0
M  V30 276 H 25.7296 -5.45842 -0.822203 0
M  V30 277 H 26.2066 -4.03235 -1.74064 0
M  V30 278 H 26.8126 -4.25219 -0.0829543 0
M  V30 279 N 25.1277 -0.289203 -1.54924 0
M  V30 280 C 26.4047 0.376032 -1.91951 0
M  V30 281 C 26.7847 1.72622 -1.21511 0
M  V30 282 O 26.1327 2.25853 -0.346767 0
M  V30 283 C 26.3427 0.502378 -3.45365 0
M  V30 284 C 27.6907 0.778741 -4.17398 0
M  V30 285 O 28.7147 0.586647 -3.51336 0
M  V30 286 O 27.5737 1.14698 -5.34328 0
M  V30 287 H 24.6677 0.208167 -0.800372 0
M  V30 288 H 27.2137 -0.336394 -1.66332 0
M  V30 289 H 25.9857 -0.447255 -3.88736 0
M  V30 290 H 25.6087 1.26373 -3.76982 0
M  V30 291 N 26.6058 1.57591 -0.0167156 0
M  V30 292 C 27.8528 1.91283 0.664597 0
M  V30 293 C 28.1808 0.891949 1.72842 0
M  V30 294 O 27.4358 -0.100931 1.9544 0
M  V30 295 C 27.7348 3.3172 1.33029 0
M  V30 296 C 27.4008 4.4914 0.398047 0
M  V30 297 C 26.0628 4.80992 0.141421 0
M  V30 298 C 28.4148 5.20634 -0.242825 0
M  V30 299 C 25.7428 5.81703 -0.764092 0
M  V30 300 C 28.0948 6.22311 -1.13632 0
M  V30 301 C 26.7588 6.52611 -1.40196 0
M  V30 302 H 26.0288 0.699956 0.243193 0
M  V30 303 H 28.6758 1.9135 -0.0758267 0
M  V30 304 H 26.9808 3.27856 2.14517 0
M  V30 305 H 28.6778 3.55055 1.86379 0
M  V30 306 H 25.2678 4.24262 0.608238 0
M  V30 307 H 29.4518 4.96267 -0.0576019 0
M  V30 308 H 24.7078 6.03532 -0.977732 0
M  V30 309 H 28.8818 6.76834 -1.63917 0
M  V30 310 H 26.5088 7.30467 -2.10529 0
M  V30 311 N 28.0839 -0.256276 1.55502 0
M  V30 312 C 29.0309 -1.31714 1.89526 0
M  V30 313 C 30.0009 -1.4828 0.748479 0
M  V30 314 O 31.1859 -1.62416 1.00128 0
M  V30 315 C 28.3259 -2.66933 2.18725 0
M  V30 316 C 27.4389 -2.58452 3.4616 0
M  V30 317 C 26.5739 -3.85961 3.64976 0
M  V30 318 C 25.6129 -3.72059 4.86044 0
M  V30 319 N 24.7499 -4.9144 5.01429 0
M  V30 320 H 29.5899 -1.01998 2.80001 0
M  V30 321 H 27.1269 -0.492413 1.38613 0
M  V30 322 H 29.0849 -3.4563 2.33657 0
M  V30 323 H 27.7149 -2.94816 1.31466 0
M  V30 324 H 26.7669 -1.71374 3.3961 0
M  V30 325 H 28.0789 -2.44085 4.34999 0
M  V30 326 H 27.2329 -4.73101 3.79816 0
M  V30 327 H 25.9719 -4.03215 2.74353 0
M  V30 328 H 24.9769 -2.83302 4.7119 0
M  V30 329 H 26.2019 -3.56309 5.78118 0
M  V30 330 H 24.1479 -5.09072 4.13741 0
M  V30 331 H 24.0649 -4.79668 5.84341 0
M  V30 332 H 25.3329 -5.80104 5.20672 0
M  V30 333 N 29.562 -1.4872 -0.521534 0
M  V30 334 C 30.79 -1.60843 -1.30142 0
M  V30 335 C 31.205 -0.271897 -1.86832 0
M  V30 336 O 30.562 0.739969 -1.66825 0
M  V30 337 C 30.613 -2.66155 -2.4463 0
M  V30 338 O 30.334 -3.94623 -1.90275 0
M  V30 339 C 31.835 -2.88795 -3.36322 0
M  V30 340 H 29.055 -0.542075 -0.395468 0
M  V30 341 H 31.599 -1.94609 -0.628285 0
M  V30 342 H 29.754 -2.35224 -3.07812 0
M  V30 343 H 30.168 -4.52468 -2.65279 0
M  V30 344 H 31.642 -3.66264 -4.12983 0
M  V30 345 H 32.119 -1.97934 -3.9207 0
M  V30 346 H 32.725 -3.21063 -2.78924 0
M  V30 347 N 31.0401 0.771051 -1.3745 0
M  V30 348 C 32.2861 1.53109 -1.339 0
M  V30 349 C 32.6411 1.9225 0.0758401 0
M  V30 350 O 31.9341 1.61264 1.03463 0
M  V30 351 C 32.1281 2.80676 -2.2126 0
M  V30 352 C 31.9571 2.54003 -3.71096 0
M  V30 353 C 30.7271 2.48097 -4.402 0
M  V30 354 C 32.9251 2.21953 -4.63941 0
M  V30 355 N 30.9071 2.13515 -5.75573 0
M  V30 356 C 32.2781 1.97516 -5.87697 0
M  V30 357 C 34.3331 2.08114 -4.5232 0
M  V30 358 C 33.0361 1.60638 -7.01133 0
M  V30 359 C 35.0621 1.72636 -5.65642 0
M  V30 360 C 34.4241 1.4906 -6.88448 0
M  V30 361 H 30.5231 0.56055 -0.54526 0
M  V30 362 H 33.1071 0.899472 -1.72678 0
M  V30 363 H 31.2781 3.41674 -1.84698 0
M  V30 364 H 33.0101 3.46578 -2.08963 0
M  V30 365 H 29.7651 2.63974 -3.93211 0
M  V30 366 H 30.1891 1.98919 -6.47117 0
M  V30 367 H 34.8311 2.25024 -3.57944 0
M  V30 368 H 32.5491 1.42467 -7.95443 0
M  V30 369 H 36.1351 1.62586 -5.58621 0
M  V30 370 H 35.0151 1.22014 -7.7465 0
M  V30 371 N 32.5182 1.22032 0.997298 0
M  V30 372 C 33.4482 1.01065 2.10495 0
M  V30 373 C 34.4292 -0.0669542 1.69968 0
M  V30 374 O 35.6142 0.0943987 1.9397 0
M  V30 375 C 32.7442 0.582874 3.42374 0
M  V30 376 C 31.6982 1.60592 3.96729 0
M  V30 377 C 31.0242 1.03412 5.24605 0
M  V30 378 C 32.3242 2.99478 4.27914 0
M  V30 379 H 34.0182 1.93708 2.28292 0
M  V30 380 H 31.5642 0.932761 1.09707 0
M  V30 381 H 33.5172 0.423332 4.19268 0
M  V30 382 H 32.2412 -0.379213 3.24391 0
M  V30 383 H 30.9002 1.75316 3.21963 0
M  V30 384 H 30.5482 0.063518 5.0296 0
M  V30 385 H 30.2482 1.71754 5.61938 0
M  V30 386 H 31.7722 0.886066 6.04137 0
M  V30 387 H 33.1862 2.88153 4.95622 0
M  V30 388 H 31.5832 3.64903 4.76409 0
M  V30 389 H 32.6532 3.49742 3.3587 0
M  V30 390 N 33.9963 -1.19345 1.0293 0
M  V30 391 C 34.9283 -2.22036 0.56857 0
M  V30 392 C 35.9413 -1.58865 -0.355779 0
M  V30 393 O 37.1303 -1.77851 -0.152103 0
M  V30 394 C 34.2303 -3.38363 -0.190752 0
M  V30 395 C 33.4033 -4.31118 0.738643 0
M  V30 396 C 32.4623 -5.26194 0.0246497 0
M  V30 397 O 31.4883 -5.65461 0.651354 0
M  V30 398 N 32.6903 -5.66971 -1.24594 0
M  V30 399 H 35.4553 -2.6219 1.45177 0
M  V30 400 H 33.0163 -1.34015 0.908381 0
M  V30 401 H 35.0083 -3.98981 -0.677961 0
M  V30 402 H 33.5783 -2.96994 -0.975366 0
M  V30 403 H 32.7983 -3.68276 1.40593 0
M  V30 404 H 34.0863 -4.90001 1.37029 0
M  V30 405 H 33.4843 -5.37104 -1.77583 0
M  V30 406 H 32.0413 -6.2984 -1.67764 0
M  V30 407 N 35.4744 -0.807222 -1.35358 0
M  V30 408 C 36.6994 -0.399309 -2.0352 0
M  V30 409 C 37.1244 0.981986 -1.60433 0
M  V30 410 O 36.4824 1.63601 -0.781299 0
M  V30 411 C 36.5304 -0.491552 -3.57234 0
M  V30 412 O 35.6344 0.494754 -4.09421 0
M  V30 413 H 34.9754 -0.166682 -0.642739 0
M  V30 414 H 37.5054 -1.09328 -1.72941 0
M  V30 415 H 37.5154 -0.361588 -4.06395 0
M  V30 416 H 36.1904 -1.49907 -3.87944 0
M  V30 417 H 34.7674 0.324977 -3.71481 0
M  V30 418 N 36.9525 1.47285 -0.560781 0
M  V30 419 C 37.8995 2.30058 0.18491 0
M  V30 420 C 38.8695 1.39281 0.904986 0
M  V30 421 O 40.0545 1.68241 0.899979 0
M  V30 422 C 37.1945 3.23317 1.20666 0
M  V30 423 C 36.3075 4.29186 0.492285 0
M  V30 424 C 35.4425 5.09592 1.49964 0
M  V30 425 C 34.4815 6.07232 0.770439 0
M  V30 426 N 33.6185 6.80584 1.72479 0
M  V30 427 H 38.4585 2.93302 -0.527048 0
M  V30 428 H 35.9955 1.44568 -0.271738 0
M  V30 429 H 37.9535 3.75811 1.81168 0
M  V30 430 H 36.5835 2.61929 1.88661 0
M  V30 431 H 35.6355 3.7972 -0.227333 0
M  V30 432 H 36.9475 4.98738 -0.0787929 0
M  V30 433 H 36.1015 5.66254 2.17809 0
M  V30 434 H 34.8405 4.3995 2.10464 0
M  V30 435 H 33.8455 5.49745 0.0780846 0
M  V30 436 H 35.0705 6.78884 0.171134 0
M  V30 437 H 33.0165 6.1367 2.3183 0
M  V30 438 H 32.9335 7.46319 1.20596 0
M  V30 439 H 34.2015 7.41818 2.39428 0
M  V30 440 N 38.4306 0.297415 1.54768 0
M  V30 441 C 39.3606 -0.573494 2.26348 0
M  V30 442 C 40.3416 -1.14085 1.26169 0
M  V30 443 O 41.5266 -1.17086 1.54934 0
M  V30 444 C 38.6566 -1.74716 3.00153 0
M  V30 445 C 37.6106 -1.31032 4.07449 0
M  V30 446 C 36.9366 -2.56887 4.68949 0
M  V30 447 C 38.2366 -0.444183 5.20408 0
M  V30 448 H 39.9306 0.0235131 2.99391 0
M  V30 449 H 37.4766 0.0127488 1.43994 0
M  V30 450 H 39.4296 -2.3625 3.48947 0
M  V30 451 H 38.1536 -2.37035 2.24682 0
M  V30 452 H 36.8126 -0.718066 3.59499 0
M  V30 453 H 36.4606 -3.17512 3.90122 0
M  V30 454 H 36.1606 -2.2836 5.41411 0
M  V30 455 H 37.6846 -3.19229 5.20505 0
M  V30 456 H 39.0986 -0.9651 5.65118 0
M  V30 457 H 37.4956 -0.252846 5.99567 0
M  V30 458 H 38.5656 0.531609 4.81977 0
M  V30 459 N 39.9087 -1.5758 0.0250728 0
M  V30 460 C 40.8387 -2.13007 -0.956575 0
M  V30 461 C 41.8197 -1.0452 -1.342 0
M  V30 462 O 43.0047 -1.32332 -1.42133 0
M  V30 463 C 40.1347 -2.65386 -2.24026 0
M  V30 464 C 39.0887 -3.78623 -1.99571 0
M  V30 465 C 38.4147 -4.17414 -3.3417 0
M  V30 466 C 39.7147 -5.04867 -1.33814 0
M  V30 467 H 41.4087 -2.9528 -0.494991 0
M  V30 468 H 38.9547 -1.42042 -0.236651 0
M  V30 469 H 40.9077 -3.02794 -2.93076 0
M  V30 470 H 39.6317 -1.80268 -2.72343 0
M  V30 471 H 38.2907 -3.41646 -1.32941 0
M  V30 472 H 37.9387 -3.29284 -3.80238 0
M  V30 473 H 37.6387 -4.93719 -3.18615 0
M  V30 474 H 39.1627 -4.57402 -4.04495 0
M  V30 475 H 40.5767 -5.39888 -1.92857 0
M  V30 476 H 38.9737 -5.86144 -1.28669 0
M  V30 477 H 40.0437 -4.83904 -0.310561 0
M  V30 478 N 41.3868 0.248026 -1.55636 0
M  V30 479 C 42.7978 0.817177 -1.67866 0
M  V30 480 C 43.1488 1.86069 -0.622322 0
M  V30 481 O 42.2738 2.15157 0.231618 0
M  V30 482 C 42.8688 1.489 -3.04326 0
M  V30 483 C 41.4278 2.00587 -3.185 0
M  V30 484 C 40.5748 0.856573 -2.63739 0
M  V30 485 H 43.5258 0.0238579 -1.58682 0
M  V30 486 H 43.5468 2.35698 -2.98708 0
M  V30 487 H 43.0588 0.729279 -3.81186 0
M  V30 488 H 41.1598 2.79443 -2.4646 0
M  V30 489 H 41.2728 2.20402 -4.25393 0
M  V30 490 H 39.6368 1.25678 -2.21534 0
M  V30 491 H 40.4198 0.109953 -3.43124 0
M  V30 492 N 42.8649 1.48995 0.513639 0
M  V30 493 C 44.2809 1.35478 0.843682 0
M  V30 494 C 44.4809 0.378213 1.97919 0
M  V30 495 O 43.5369 -0.194689 2.51748 0
M  V30 496 C 44.8499 2.75901 1.1958 0
M  V30 497 C 46.3979 2.84509 1.30474 0
M  V30 498 C 46.8729 4.25671 1.69021 0
M  V30 499 N 48.3639 4.28422 1.76094 0
M  V30 500 C 49.0989 5.34601 2.07338 0
M  V30 501 N 48.5949 6.5104 2.36894 0
M  V30 502 N 50.3879 5.22007 2.08483 0
M  V30 503 H 42.5389 2.11092 -0.235328 0
M  V30 504 H 44.8019 0.947039 -0.0426669 0
M  V30 505 H 44.5079 3.49001 0.434913 0
M  V30 506 H 44.3819 3.10467 2.1422 0
M  V30 507 H 46.7689 2.11655 2.05637 0
M  V30 508 H 46.8499 2.53542 0.339155 0
M  V30 509 H 46.4939 4.99048 0.944135 0
M  V30 510 H 46.4239 4.54094 2.66658 0
M  V30 511 H 48.9149 3.44441 1.55464 0
M  V30 512 H 49.2279 7.2779 2.59887 0
M  V30 513 H 47.5729 6.54287 2.34378 0
M  V30 514 H 50.7639 4.30051 1.84861 0
M  V30 515 H 50.9369 6.04854 2.325 0
M  V30 516 N 44.343 -0.763751 1.37857 0
M  V30 517 C 45.592 -1.51789 1.32827 0
M  V30 518 C 45.905 -1.95426 -0.0823719 0
M  V30 519 O 47.111 -2.70298 -0.255172 0
M  V30 520 C 45.567 -2.74133 2.33193 0
M  V30 521 C 45.175 -2.37562 3.79827 0
M  V30 522 C 46.919 -3.52054 2.37188 0
M  V30 523 C 44.826 -3.56456 4.71904 0
M  V30 524 H 43.756 -0.569896 0.493695 0
M  V30 525 H 46.407 -0.835822 1.63359 0
M  V30 526 H 44.789 -3.4427 1.9569 0
M  V30 527 H 45.963 -1.75157 4.26212 0
M  V30 528 H 44.278 -1.72798 3.78853 0
M  V30 529 H 46.875 -4.40437 3.03182 0
M  V30 530 H 47.218 -3.92486 1.38782 0
M  V30 531 H 47.751 -2.88921 2.7344 0
M  V30 532 H 44.49 -3.21099 5.71468 0
M  V30 533 H 44.01 -4.17938 4.30218 0
M  V30 534 H 45.689 -4.23168 4.89426 0
M  V30 535 N 45.8211 -1.22559 -0.990812 0
M  V30 536 C 47.2321 -1.04791 -1.54518 0
M  V30 537 C 47.5831 0.387998 -1.92325 0
M  V30 538 O 46.7081 1.27328 -1.74976 0
M  V30 539 C 47.3031 -1.896 -2.80779 0
M  V30 540 C 45.8621 -1.76124 -3.32652 0
M  V30 541 C 45.0091 -1.8594 -2.05722 0
M  V30 542 H 47.9601 -1.36374 -0.811662 0
M  V30 543 H 47.9811 -1.41464 -3.53225 0
M  V30 544 H 47.4931 -2.94101 -2.53231 0
M  V30 545 H 45.5941 -0.743643 -3.65104 0
M  V30 546 H 45.7071 -2.58913 -4.03114 0
M  V30 547 H 44.0711 -1.29403 -2.19379 0
M  V30 548 H 44.8541 -2.91976 -1.80568 0
M  V30 549 N 47.2992 1.18797 -1.03562 0
M  V30 550 C 48.5472 1.88278 -0.734569 0
M  V30 551 C 48.8682 1.8043 0.739586 0
M  V30 552 O 48.1382 1.21925 1.53333 0
M  V30 553 H 46.7182 0.696991 -0.268725 0
M  V30 554 H 49.3802 1.44192 -1.31129 0
M  V30 555 H 48.4762 2.94443 -1.03489 0
M  V30 556 N 48.7773 0.814389 1.34928 0
M  V30 557 C 50.0233 0.399013 1.98836 0
M  V30 558 C 50.3563 -1.03314 1.64438 0
M  V30 559 O 49.6313 -1.71811 0.911659 0
M  V30 560 C 49.9143 0.591629 3.55207 0
M  V30 561 C 49.7673 2.06928 3.99376 0
M  V30 562 C 51.0863 0.022199 4.40094 0
M  V30 563 H 48.2053 0.146451 0.722303 0
M  V30 564 H 50.8473 1.02537 1.59957 0
M  V30 565 H 48.9973 0.0584441 3.88456 0
M  V30 566 H 50.6693 2.66544 3.76499 0
M  V30 567 H 48.9123 2.56287 3.49999 0
M  V30 568 H 49.5833 2.1549 5.08201 0
M  V30 569 H 52.0593 0.477643 4.13349 0
M  V30 570 H 50.9353 0.186832 5.48582 0
M  V30 571 H 51.1963 -1.07215 4.28902 0
M  V30 572 N 50.2554 -1.46986 0.568584 0
M  V30 573 C 51.6664 -1.86188 0.138219 0
M  V30 574 C 52.0174 -1.47388 -1.29504 0
M  V30 575 O 51.1424 -0.88219 -1.97602 0
M  V30 576 C 51.7374 -3.3792 0.244065 0
M  V30 577 C 50.2964 -3.76171 -0.131335 0
M  V30 578 C 49.4434 -2.71027 0.586465 0
M  V30 579 H 52.3944 -1.38342 0.777645 0
M  V30 580 H 52.4154 -3.76729 -0.534351 0
M  V30 581 H 51.9274 -3.66128 1.28731 0
M  V30 582 H 50.0284 -3.5358 -1.17526 0
M  V30 583 H 50.1414 -4.78523 0.235146 0
M  V30 584 H 48.5054 -2.54684 0.0282722 0
M  V30 585 H 49.2884 -3.02077 1.63109 0
M  V30 586 N 51.7335 -0.305618 -1.54608 0
M  V30 587 C 52.9805 0.302298 -2.00231 0
M  V30 588 C 53.3085 1.5354 -1.19398 0
M  V30 589 O 52.5635 1.93973 -0.259423 0
M  V30 590 C 52.8625 0.698983 -3.50498 0
M  V30 591 C 52.5285 -0.432903 -4.48817 0
M  V30 592 C 51.1905 -0.743622 -4.75419 0
M  V30 593 C 53.5425 -1.19409 -5.07337 0
M  V30 594 C 50.8705 -1.81857 -5.57804 0
M  V30 595 C 53.2225 -2.25899 -5.90891 0
M  V30 596 C 51.8865 -2.57572 -6.15803 0
M  V30 597 H 51.1565 0.110619 -0.732697 0
M  V30 598 H 53.8035 -0.425674 -1.86709 0
M  V30 599 H 52.1085 1.50711 -3.61654 0
M  V30 600 H 53.8055 1.1806 -3.83227 0
M  V30 601 H 50.3955 -0.18063 -4.28219 0
M  V30 602 H 54.5795 -0.967295 -4.86782 0
M  V30 603 H 49.8355 -2.06864 -5.75341 0
M  V30 604 H 54.0095 -2.85335 -6.35261 0
M  V30 605 H 51.6365 -3.40998 -6.7943 0
M  V30 606 N 53.2116 1.57565 -0.0334293 0
M  V30 607 C 54.1416 2.13511 0.945265 0
M  V30 608 C 55.1226 1.05231 1.33643 0
M  V30 609 O 56.3076 1.33084 1.41429 0
M  V30 610 C 53.4376 2.6657 2.22616 0
M  V30 611 C 52.3916 3.79676 1.97561 0
M  V30 612 C 51.7176 4.1918 3.31952 0
M  V30 613 C 53.0176 5.0557 1.31135 0
M  V30 614 H 54.7116 2.95538 0.479325 0
M  V30 615 H 52.2576 1.42166 0.229115 0
M  V30 616 H 54.2106 3.04344 2.91466 0
M  V30 617 H 52.9346 1.8171 2.71384 0
M  V30 618 H 51.5936 3.42347 1.31127 0
M  V30 619 H 51.2416 3.31296 3.78487 0
M  V30 620 H 50.9416 4.95402 3.15992 0
M  V30 621 H 52.4656 4.59541 4.02063 0
M  V30 622 H 53.8796 5.40903 1.89992 0
M  V30 623 H 52.2766 5.86818 1.25559 0
M  V30 624 H 53.3466 4.84062 0.284894 0
M  V30 625 N 54.6897 -0.239769 1.55765 0
M  V30 626 C 55.9147 -0.988373 1.82335 0
M  V30 627 C 56.3397 -1.77886 0.611421 0
M  V30 628 O 55.6977 -1.75889 -0.439639 0
M  V30 629 C 55.7457 -1.89627 3.06715 0
M  V30 630 O 54.8497 -2.98904 2.84131 0
M  V30 631 H 54.1907 -0.280858 0.601677 0
M  V30 632 H 56.7207 -0.258597 2.02959 0
M  V30 633 H 56.7307 -2.30957 3.36338 0
M  V30 634 H 55.4057 -1.31511 3.9456 0
M  V30 635 H 53.9827 -2.61651 2.65694 0
M  V30 636 N 56.1678 -1.49265 -0.50573 0
M  V30 637 C 57.4078 -1.60128 -1.27038 0
M  V30 638 C 57.7718 -0.279557 -1.89954 0
M  V30 639 O 58.9728 -0.263329 -2.67507 0
M  V30 640 C 57.2438 -2.72507 -2.31246 0
M  V30 641 S 58.8028 -3.0329 -3.17113 0
M  V30 642 H 55.6208 -0.564863 -0.4318 0
M  V30 643 H 58.2228 -1.86902 -0.573397 0
M  V30 644 H 56.9268 -3.67068 -1.83546 0
M  V30 645 H 56.4578 -2.4771 -3.05619 0
M  V30 646 H 58.4728 -2.44448 -4.31809 0
M  V30 647 N 57.6459 0.756429 -1.3826 0
M  V30 648 C 58.5779 1.87971 -1.31147 0
M  V30 649 C 59.5909 1.61248 -0.224239 0
M  V30 650 O 60.7799 1.71881 -0.481581 0
M  V30 651 C 57.8799 3.23545 -1.00857 0
M  V30 652 C 57.0529 3.77794 -2.20432 0
M  V30 653 C 56.1119 4.91877 -1.86931 0
M  V30 654 O 55.1379 5.06659 -2.59395 0
M  V30 655 N 56.3399 5.74643 -0.822568 0
M  V30 656 H 59.1049 1.94585 -2.2794 0
M  V30 657 H 56.6659 0.936234 -1.32084 0
M  V30 658 H 58.6579 3.97403 -0.765021 0
M  V30 659 H 57.2279 3.12335 -0.128687 0
M  V30 660 H 56.4479 2.95534 -2.6087 0
M  V30 661 H 57.7359 4.10771 -3.00241 0
M  V30 662 H 57.1339 5.65266 -0.221575 0
M  V30 663 H 55.6909 6.48661 -0.638899 0
M  V30 664 N 59.124 1.23083 0.984299 0
M  V30 665 C 60.54 0.992637 1.24975 0
M  V30 666 C 60.74 -0.308618 1.99123 0
M  V30 667 O 59.796 -1.02905 2.30579 0
M  V30 668 C 61.109 2.19698 2.05312 0
M  V30 669 C 62.657 2.24147 2.18465 0
M  V30 670 C 63.132 3.44157 3.02192 0
M  V30 671 N 64.623 3.44372 3.09777 0
M  V30 672 C 65.358 4.33886 3.74874 0
M  V30 673 N 64.854 5.3363 4.41827 0
M  V30 674 N 66.647 4.21639 3.71721 0
M  V30 675 H 58.798 2.06731 0.487453 0
M  V30 676 H 61.061 0.906339 0.277944 0
M  V30 677 H 60.767 3.1411 1.58201 0
M  V30 678 H 60.641 2.20465 3.06064 0
M  V30 679 H 63.028 1.30277 2.64786 0
M  V30 680 H 63.109 2.27415 1.17115 0
M  V30 681 H 62.753 4.38332 2.56568 0
M  V30 682 H 62.683 3.3813 4.03702 0
M  V30 683 H 65.174 2.72201 2.62135 0
M  V30 684 H 65.487 5.98196 4.89266 0
M  V30 685 H 63.832 5.37534 4.40548 0
M  V30 686 H 67.023 3.42962 3.18582 0
M  V30 687 H 67.196 4.91604 4.22173 0
M  V30 688 N 60.6021 -1.18246 1.0419 0
M  V30 689 C 61.8501 -1.87886 0.744543 0
M  V30 690 C 62.1711 -1.8082 -0.730006 0
M  V30 691 O 61.4411 -1.22736 -1.52685 0
M  V30 692 H 60.0211 -0.695556 0.272417 0
M  V30 693 H 62.6831 -1.43494 1.31892 0
M  V30 694 H 61.7791 -2.9389 1.05049 0
M  V30 695 N 62.0802 -0.821533 -1.34494 0
M  V30 696 C 63.3102 -0.421272 -2.02259 0
M  V30 697 C 63.7182 0.977047 -1.6202 0
M  V30 698 O 63.0612 1.64348 -0.820703 0
M  V30 699 C 63.1232 -0.44231 -3.56769 0
M  V30 700 C 62.7872 -1.79372 -4.20327 0
M  V30 701 C 63.7842 -2.75435 -4.40944 0
M  V30 702 C 61.4692 -2.08182 -4.57127 0
M  V30 703 C 63.4632 -3.98482 -4.97484 0
M  V30 704 C 61.1502 -3.31489 -5.13379 0
M  V30 705 C 62.1482 -4.26457 -5.33501 0
M  V30 706 O 61.8362 -5.47585 -5.88562 0
M  V30 707 H 61.5682 -0.167473 -0.654927 0
M  V30 708 H 64.1222 -1.11073 -1.72777 0
M  V30 709 H 62.3522 0.303836 -3.85505 0
M  V30 710 H 64.0412 -0.0622925 -4.05852 0
M  V30 711 H 64.8072 -2.54473 -4.12878 0
M  V30 712 H 60.6862 -1.35066 -4.4077 0
M  V30 713 H 64.2302 -4.72618 -5.13106 0
M  V30 714 H 60.1272 -3.52316 -5.40873 0
M  V30 715 H 60.8952 -5.49086 -6.06998 0
M  V30 716 N 63.5583 1.46682 -0.576371 0
M  V30 717 C 64.5053 2.30241 0.160499 0
M  V30 718 C 65.4753 1.40233 0.890162 0
M  V30 719 O 66.6603 1.69186 0.882084 0
M  V30 720 C 63.8003 3.24578 1.1723 0
M  V30 721 C 62.9133 4.29684 0.446736 0
M  V30 722 C 62.0483 5.11154 1.44551 0
M  V30 723 C 61.0873 6.08015 0.70599 0
M  V30 724 N 60.2243 6.82376 1.65251 0
M  V30 725 H 65.0643 2.92727 -0.558127 0
M  V30 726 H 62.6013 1.44272 -0.287056 0
M  V30 727 H 64.5593 3.77711 1.77172 0
M  V30 728 H 63.1893 2.63916 1.85872 0
M  V30 729 H 62.2413 3.79458 -0.267594 0
M  V30 730 H 63.5533 4.98626 -0.131686 0
M  V30 731 H 62.7073 5.68533 2.11791 0
M  V30 732 H 61.4463 4.42158 2.05786 0
M  V30 733 H 60.4513 5.49796 0.0197725 0
M  V30 734 H 61.6763 6.79028 0.09912 0
M  V30 735 H 59.6223 6.16094 2.25308 0
M  V30 736 H 59.5393 7.47556 1.12673 0
M  V30 737 H 60.8073 7.44316 2.31546 0
M  V30 738 N 65.0364 0.313813 1.54444 0
M  V30 739 C 66.2844 -0.291099 1.99993 0
M  V30 740 C 66.6054 -1.53418 1.20366 0
M  V30 741 O 65.8754 -1.93544 0.302927 0
M  V30 742 H 64.4554 -0.110552 0.738774 0
M  V30 743 H 67.1174 0.428106 1.9014 0
M  V30 744 H 66.2134 -0.554268 3.07139 0
M  V30 745 N 66.5145 -1.57545 0.0417849 0
M  V30 746 C 67.7605 -1.92601 -0.635021 0
M  V30 747 C 68.0935 -0.919627 -1.71045 0
M  V30 748 O 67.3685 0.0557892 -1.9442 0
M  V30 749 C 67.6515 -3.38085 -1.23979 0
M  V30 750 C 67.5045 -4.49467 -0.173057 0
M  V30 751 C 68.8235 -3.83776 -2.15416 0
M  V30 752 H 65.9425 -0.700397 -0.229374 0
M  V30 753 H 68.5845 -1.89728 0.101633 0
M  V30 754 H 66.7345 -3.40664 -1.86762 0
M  V30 755 H 68.4065 -4.59018 0.458312 0
M  V30 756 H 66.6495 -4.30909 0.499996 0
M  V30 757 H 67.3205 -5.48323 -0.636054 0
M  V30 758 H 69.7965 -3.83013 -1.62605 0
M  V30 759 H 68.6725 -4.8624 -2.54679 0
M  V30 760 H 68.9335 -3.19998 -3.05047 0
M  V30 761 N 67.9926 0.231505 -1.5589 0
M  V30 762 C 69.2386 0.954429 -1.79617 0
M  V30 763 C 69.5936 1.82367 -0.613199 0
M  V30 764 O 68.8866 1.87524 0.393094 0
M  V30 765 C 69.0806 1.83577 -3.0665 0
M  V30 766 C 68.9096 1.05334 -4.3719 0
M  V30 767 C 67.6796 0.75225 -4.99669 0
M  V30 768 C 69.8776 0.423444 -5.12554 0
M  V30 769 N 67.8596 -0.052627 -6.13877 0
M  V30 770 C 69.2306 -0.245287 -6.19515 0
M  V30 771 C 71.2856 0.335466 -4.96769 0
M  V30 772 C 69.9886 -0.993566 -7.12405 0
M  V30 773 C 72.0146 -0.399321 -5.9005 0
M  V30 774 C 71.3766 -1.05663 -6.9643 0
M  V30 775 H 67.4756 0.329846 -0.709031 0
M  V30 776 H 70.0596 0.226172 -1.93382 0
M  V30 777 H 68.2306 2.53592 -2.94186 0
M  V30 778 H 69.9626 2.49541 -3.18608 0
M  V30 779 H 66.7176 1.06783 -4.61405 0
M  V30 780 H 67.1416 -0.443609 -6.75545 0
M  V30 781 H 71.7836 0.829311 -4.14587 0
M  V30 782 H 69.5016 -1.49896 -7.94076 0
M  V30 783 H 73.0876 -0.468265 -5.79913 0
M  V30 784 H 71.9676 -1.61612 -7.67366 0
M  V30 785 N 69.4707 1.49531 0.497807 0
M  V30 786 C 70.8867 1.36365 0.829266 0
M  V30 787 C 71.0867 0.399184 1.97506 0
M  V30 788 O 70.1427 -0.167977 2.51941 0
M  V30 789 C 71.4557 2.77153 1.16647 0
M  V30 790 C 73.0037 2.85877 1.27449 0
M  V30 791 C 73.4787 4.2744 1.64497 0
M  V30 792 N 74.9697 4.30265 1.7154 0
M  V30 793 C 75.7047 5.3677 2.01656 0
M  V30 794 N 75.2007 6.53516 2.29976 0
M  V30 795 N 76.9937 5.24189 2.02934 0
M  V30 796 H 69.1447 2.10831 -0.257703 0
M  V30 797 H 71.4077 0.946534 -0.0527091 0
M  V30 798 H 71.1137 3.49442 0.397872 0
M  V30 799 H 70.9877 3.12722 2.10915 0
M  V30 800 H 73.3747 2.13824 2.0338 0
M  V30 801 H 73.4557 2.53887 0.312244 0
M  V30 802 H 73.0997 5.00021 0.891151 0
M  V30 803 H 73.0297 4.56896 2.61827 0
M  V30 804 H 75.5207 3.4607 1.51802 0
M  V30 805 H 75.8337 7.30506 2.52153 0
M  V30 806 H 74.1787 6.56737 2.27425 0
M  V30 807 H 77.3697 4.31988 1.80289 0
M  V30 808 H 77.5427 6.07286 2.26071 0
M  V30 809 N 70.9488 -0.749086 1.3866 0
M  V30 810 C 72.1968 -1.50535 1.34847 0
M  V30 811 C 72.5178 -1.94909 -0.0595016 0
M  V30 812 O 71.7878 -1.67973 -1.00806 0
M  V30 813 H 70.3678 -0.558395 0.49619 0
M  V30 814 H 73.0298 -0.890165 1.73384 0
M  V30 815 H 72.1258 -2.39413 2.00219 0
M  V30 816 N 72.4269 -1.23603 -0.977757 0
M  V30 817 C 73.7039 -0.977897 -1.69401 0
M  V30 818 C 74.0839 0.502738 -2.05026 0
M  V30 819 O 73.4319 1.47459 -1.74551 0
M  V30 820 C 73.6419 -1.89077 -2.93345 0
M  V30 821 C 74.9899 -2.15579 -3.65802 0
M  V30 822 O 76.0139 -1.86648 -3.03383 0
M  V30 823 O 74.8729 -2.64658 -4.78141 0
M  V30 824 H 71.9669 -0.369025 -0.740101 0
M  V30 825 H 74.5129 -1.34657 -1.03274 0
M  V30 826 H 73.2849 -2.89158 -2.63634 0
M  V30 827 H 72.9079 -1.52463 -3.67207 0
M  V30 828 N 73.905 1.17692 -1.04816 0
M  V30 829 C 75.153 1.87488 -0.754497 0
M  V30 830 C 75.474 1.81205 0.720407 0
M  V30 831 O 74.744 1.23544 1.52032 0
M  V30 832 H 73.324 0.694101 -0.276102 0
M  V30 833 H 75.986 1.42793 -1.32651 0
M  V30 834 H 75.082 2.93328 -1.06606 0
M  V30 835 N 75.3831 0.828654 1.34056 0
M  V30 836 C 76.6321 0.415828 1.97367 0
M  V30 837 C 76.9451 -1.02796 1.6641 0
M  V30 838 O 78.1511 -1.54497 2.23255 0
M  V30 839 C 76.6071 0.692601 3.53173 0
M  V30 840 C 76.2151 2.15038 3.93017 0
M  V30 841 C 77.9591 0.346222 4.23086 0
M  V30 842 C 75.8661 2.37174 5.41758 0
M  V30 843 H 74.7961 0.151755 0.738571 0
M  V30 844 H 77.4471 1.01581 1.52819 0
M  V30 845 H 75.8291 0.0223764 3.95994 0
M  V30 846 H 77.0031 2.86024 3.61285 0
M  V30 847 H 75.3181 2.45875 3.36057 0
M  V30 848 H 77.9151 0.48937 5.32456 0
M  V30 849 H 78.2581 -0.709842 4.10204 0
M  V30 850 H 78.7911 0.971258 3.85761 0
M  V30 851 H 75.5301 3.41308 5.59633 0
M  V30 852 H 75.0501 1.70738 5.74986 0
M  V30 853 H 76.7291 2.19818 6.08514 0
M  V30 854 N 76.8612 -1.46375 0.584142 0
M  V30 855 C 77.7942 -2.27351 -0.196676 0
M  V30 856 C 78.7722 -1.35715 -0.895561 0
M  V30 857 O 79.9562 -1.65126 -0.90916 0
M  V30 858 C 77.0832 -3.13486 -1.28235 0
M  V30 859 C 76.1292 -4.20896 -0.689145 0
M  V30 860 S 76.9622 -5.33299 0.48507 0
M  V30 861 C 78.1182 -6.23 -0.601767 0
M  V30 862 H 78.3512 -2.93228 0.490395 0
M  V30 863 H 75.8842 -1.49875 0.371071 0
M  V30 864 H 77.8422 -3.63676 -1.90395 0
M  V30 865 H 76.5032 -2.4692 -1.94138 0
M  V30 866 H 75.6962 -4.80997 -1.50527 0
M  V30 867 H 75.2982 -3.73726 -0.143181 0
M  V30 868 H 77.5902 -6.60979 -1.48705 0
M  V30 869 H 78.5332 -7.0809 -0.0374799 0
M  V30 870 H 78.9412 -5.57173 -0.906557 0
M  V30 871 N 78.3393 -0.321999 -1.54275 0
M  V30 872 C 79.2893 0.560185 -2.21011 0
M  V30 873 C 80.2733 1.08283 -1.19011 0
M  V30 874 O 81.4653 1.02011 -1.44647 0
M  V30 875 C 78.5943 1.72137 -2.97025 0
M  V30 876 C 77.6803 1.21369 -4.06363 0
M  V30 877 N 78.0713 0.425566 -5.04007 0
M  V30 878 C 76.3693 1.49255 -4.20284 0
M  V30 879 C 77.0703 0.152601 -5.815 0
M  V30 880 N 76.0463 0.738294 -5.38563 0
M  V30 881 H 79.8483 -0.049265 -2.93859 0
M  V30 882 H 77.3623 -0.127779 -1.61897 0
M  V30 883 H 79.3593 2.36512 -3.43319 0
M  V30 884 H 78.0193 2.33431 -2.25699 0
M  V30 885 H 79.0303 0.068551 -5.17855 0
M  V30 886 H 75.7073 2.11145 -3.60172 0
M  V30 887 H 77.0973 -0.481764 -6.70171 0
M  V30 888 N 79.8174 1.5752 -0.0501392 0
M  V30 889 C 81.0454 1.96963 0.633492 0
M  V30 890 C 81.4604 0.927631 1.6444 0
M  V30 891 O 80.8174 -0.0882665 1.82286 0
M  V30 892 C 80.8684 3.36487 1.32132 0
M  V30 893 O 80.5894 4.36693 0.350894 0
M  V30 894 C 82.0904 3.90682 2.09481 0
M  V30 895 H 79.3104 0.648244 0.173266 0
M  V30 896 H 81.8544 2.0417 -0.116134 0
M  V30 897 H 80.0094 3.30434 2.02218 0
M  V30 898 H 80.4234 5.17702 0.841735 0
M  V30 899 H 81.8974 4.90591 2.5303 0
M  V30 900 H 82.3744 3.26053 2.94255 0
M  V30 901 H 82.9804 4.00069 1.44307 0
M  V30 902 N 81.2955 -0.223234 1.56011 0
M  V30 903 C 82.5235 -0.964812 1.83027 0
M  V30 904 C 82.9385 -1.78013 0.62904 0
M  V30 905 O 82.2955 -1.78008 -0.402414 0
M  V30 906 C 82.3465 -1.88373 3.08542 0
M  V30 907 O 82.0675 -1.10137 4.2403 0
M  V30 908 C 83.5685 -2.73934 3.48533 0
M  V30 909 H 80.7885 -0.282842 0.608475 0
M  V30 910 H 83.3325 -0.238971 2.03099 0
M  V30 911 H 81.4875 -2.56354 2.9045 0
M  V30 912 H 81.9015 -1.72501 4.95322 0
M  V30 913 H 83.3755 -3.34117 4.39397 0
M  V30 914 H 83.8525 -3.46244 2.70207 0
M  V30 915 H 84.4585 -2.11369 3.69057 0
M  V30 916 N 82.7736 -1.49793 -0.48987 0
M  V30 917 C 84.0136 -1.61466 -1.25332 0
M  V30 918 C 84.3776 -0.299688 -1.89647 0
M  V30 919 O 85.5786 -0.291687 -2.67213 0
M  V30 920 C 83.8496 -2.74944 -2.28343 0
M  V30 921 S 85.4086 -3.06637 -3.13878 0
M  V30 922 H 82.2266 -0.569411 -0.425784 0
M  V30 923 H 84.8286 -1.875 -0.553541 0
M  V30 924 H 83.5326 -3.68994 -1.79643 0
M  V30 925 H 83.0636 -2.50938 -3.02975 0
M  V30 926 H 85.0786 -2.49015 -4.29192 0
M  V30 927 N 84.2517 0.741722 -1.39055 0
M  V30 928 C 85.6627 1.31966 -1.32068 0
M  V30 929 C 86.0137 1.96192 0.0180797 0
M  V30 930 O 85.1387 1.95861 0.920196 0
M  V30 931 C 85.7337 2.39954 -2.39181 0
M  V30 932 C 84.2927 2.93438 -2.35735 0
M  V30 933 C 83.4397 1.66936 -2.21422 0
M  V30 934 H 86.3907 0.539721 -1.4924 0
M  V30 935 H 86.4117 3.20182 -2.05581 0
M  V30 936 H 85.9237 1.9318 -3.36605 0
M  V30 937 H 84.0247 3.4451 -1.41929 0
M  V30 938 H 84.1377 3.4701 -3.30335 0
M  V30 939 H 82.5017 1.91016 -1.68478 0
M  V30 940 H 83.2847 1.22224 -3.20806 0
M  V30 941 N 85.7298 1.2412 0.971189 0
M  V30 942 C 86.9698 1.09066 1.7287 0
M  V30 943 C 87.3338 -0.364794 1.88503 0
M  V30 944 O 88.5348 -0.636748 2.61149 0
M  V30 945 C 86.8058 1.80629 3.08396 0
M  V30 946 S 88.3648 1.81263 3.99611 0
M  V30 947 H 85.1828 0.390145 0.594397 0
M  V30 948 H 87.7848 1.57397 1.15959 0
M  V30 949 H 86.4888 2.85647 2.94676 0
M  V30 950 H 86.0198 1.32617 3.70373 0
M  V30 951 H 88.0348 0.877804 4.88374 0
M  V30 952 N 87.2079 -1.17134 1.05439 0
M  V30 953 C 88.4559 -1.87085 0.764429 0
M  V30 954 C 88.7769 -1.81584 -0.710787 0
M  V30 955 O 88.0469 -1.24349 -1.51374 0
M  V30 956 H 86.6269 -0.692627 0.279779 0
M  V30 957 H 89.2889 -1.42087 1.33406 0
M  V30 958 H 88.3849 -2.92759 1.0816 0
M  V30 959 N 88.686 -0.835752 -1.33615 0
M  V30 960 C 89.649 -0.272 -2.2758 0
M  V30 961 C 90.649 0.557487 -1.50827 0
M  V30 962 O 91.839 0.37173 -1.70188 0
M  V30 963 C 88.971 0.617173 -3.35267 0
M  V30 964 H 90.164 -1.10111 -2.78954 0
M  V30 965 H 87.717 -0.608594 -1.43965 0
M  V30 966 H 88.452 1.46884 -2.89129 0
M  V30 967 H 88.237 0.0237066 -3.92093 0
M  V30 968 H 89.727 1.005 -4.05326 0
M  V30 969 N 90.1641 1.46063 -0.591896 0
M  V30 970 C 91.0961 2.28539 0.174001 0
M  V30 971 C 92.1091 1.39047 0.846753 0
M  V30 972 O 93.2981 1.63564 0.714774 0
M  V30 973 C 90.3981 3.14347 1.26645 0
M  V30 974 C 89.5711 4.32021 0.683856 0
M  V30 975 C 88.6301 4.99157 1.66518 0
M  V30 976 O 87.6561 5.56458 1.19763 0
M  V30 977 N 88.8581 4.97005 2.99943 0
M  V30 978 H 91.6231 2.94911 -0.533633 0
M  V30 979 H 89.1841 1.56077 -0.430294 0
M  V30 980 H 91.1761 3.56125 1.92242 0
M  V30 981 H 89.7461 2.49988 1.87682 0
M  V30 982 H 88.9661 3.93915 -0.1498 0
M  V30 983 H 90.2541 5.08059 0.274567 0
M  V30 984 H 89.6521 4.51714 3.40545 0
M  V30 985 H 88.2091 5.42696 3.61004 0
M  V30 986 N 91.6422 0.330177 1.54103 0
M  V30 987 C 92.8912 -0.271336 1.99867 0
M  V30 988 C 93.2042 -1.52723 1.22209 0
M  V30 989 O 94.4102 -2.20515 1.58383 0
M  V30 990 C 92.8662 -0.534032 3.55916 0
M  V30 991 C 92.4742 0.705193 4.42415 0
M  V30 992 C 94.2182 -1.09514 4.1013 0
M  V30 993 C 92.1252 0.414035 5.89949 0
M  V30 994 H 91.0552 -0.105166 0.74663 0
M  V30 995 H 93.7062 0.443429 1.78062 0
M  V30 996 H 92.0882 -1.30915 3.73734 0
M  V30 997 H 93.2622 1.4804 4.36372 0
M  V30 998 H 91.5772 1.18698 3.99124 0
M  V30 999 H 94.1742 -1.3277 5.17954 0
M  V30 1000 H 94.5172 -2.04656 3.62521 0
M  V30 1001 H 95.0502 -0.381038 3.95971 0
M  V30 1002 H 91.7892 1.33481 6.41766 0
M  V30 1003 H 91.3092 -0.323336 5.98928 0
M  V30 1004 H 92.9882 0.0263105 6.46995 0
M  V30 1005 N 93.1203 -1.57491 0.0584922 0
M  V30 1006 C 94.3483 -1.97296 -0.623037 0
M  V30 1007 C 94.7633 -0.936338 -1.63946 0
M  V30 1008 O 94.1203 0.0785981 -1.82331 0
M  V30 1009 C 94.1713 -3.37183 -1.30345 0
M  V30 1010 O 93.8923 -4.36872 -0.32773 0
M  V30 1011 C 95.3933 -3.91788 -2.07406 0
M  V30 1012 H 92.6133 -0.649153 -0.169826 0
M  V30 1013 H 95.1573 -2.04106 0.12696 0
M  V30 1014 H 93.3123 -3.31502 -2.00463 0
M  V30 1015 H 93.7263 -5.18141 -0.814269 0
M  V30 1016 H 95.2003 -4.91926 -2.50425 0
M  V30 1017 H 95.6773 -3.27609 -2.92521 0
M  V30 1018 H 96.2833 -4.00829 -1.42184 0
M  V30 1019 N 94.5984 0.214957 -1.56127 0
M  V30 1020 C 95.8464 0.936518 -1.79091 0
M  V30 1021 C 96.1674 1.84606 -0.628148 0
M  V30 1022 O 95.4374 1.92664 0.35462 0
M  V30 1023 H 94.0174 0.3488 -0.660566 0
M  V30 1024 H 96.6794 0.22523 -1.93594 0
M  V30 1025 H 95.7754 1.53943 -2.71492 0
M  V30 1026 N 96.0765 1.50051 0.48192 0
M  V30 1027 C 97.0265 1.64512 1.5786 0
M  V30 1028 C 98.0105 0.500073 1.52932 0
M  V30 1029 O 99.2025 0.753964 1.60139 0
M  V30 1030 C 96.3315 1.73263 2.9637 0
M  V30 1031 C 95.4175 2.93409 3.06222 0
M  V30 1032 N 95.8085 4.17236 2.85915 0
M  V30 1033 C 94.1065 2.91742 3.37346 0
M  V30 1034 C 94.8075 4.981 3.00451 0
M  V30 1035 N 93.7835 4.3184 3.30174 0
M  V30 1036 H 97.5855 2.57955 1.40842 0
M  V30 1037 H 95.0995 1.47086 0.688439 0
M  V30 1038 H 97.0965 1.81724 3.75209 0
M  V30 1039 H 95.7565 0.809711 3.14442 0
M  V30 1040 H 96.7675 4.46909 2.6171 0
M  V30 1041 H 93.4445 2.08907 3.61475 0
M  V30 1042 H 94.8345 6.06532 2.89082 0
M  V30 1043 N 97.5546 -0.734337 1.39446 0
M  V30 1044 C 98.8006 -1.49613 1.36908 0
M  V30 1045 C 99.1336 -1.94169 -0.0347829 0
M  V30 1046 O 98.4086 -1.66833 -0.999847 0
M  V30 1047 C 98.6916 -2.73534 2.34203 0
M  V30 1048 C 98.5446 -2.34993 3.83534 0
M  V30 1049 C 99.8636 -3.75635 2.29317 0
M  V30 1050 H 96.9826 -0.542714 0.498629 0
M  V30 1051 H 99.6246 -0.839597 1.70443 0
M  V30 1052 H 97.7746 -3.29553 2.05736 0
M  V30 1053 H 99.4466 -1.84601 4.22753 0
M  V30 1054 H 97.6896 -1.67213 4.00278 0
M  V30 1055 H 98.3606 -3.23738 4.47099 0
M  V30 1056 H 100.837 -3.29203 2.54489 0
M  V30 1057 H 99.7126 -4.60008 2.99472 0
M  V30 1058 H 99.9736 -4.22603 1.29842 0
M  V30 1059 N 99.0327 -1.24633 -0.964593 0
M  V30 1060 C 99.9797 -1.04144 -2.05968 0
M  V30 1061 C 100.95 0.046262 -1.66036 0
M  V30 1062 O 102.135 -0.108972 -1.90489 0
M  V30 1063 C 99.2747 -0.65563 -3.38815 0
M  V30 1064 C 98.3877 -1.81714 -3.91923 0
M  V30 1065 C 97.5227 -1.37662 -5.13052 0
M  V30 1066 C 96.5617 -2.50788 -5.58365 0
M  V30 1067 N 95.6987 -2.07582 -6.70712 0
M  V30 1068 H 100.539 -1.9787 -2.22827 0
M  V30 1069 H 98.0757 -0.9855 -1.09208 0
M  V30 1070 H 100.034 -0.412954 -4.15151 0
M  V30 1071 H 98.6637 0.244627 -3.21872 0
M  V30 1072 H 97.7157 -2.1734 -3.12198 0
M  V30 1073 H 99.0277 -2.66705 -4.21509 0
M  V30 1074 H 98.1817 -1.093 -5.96773 0
M  V30 1075 H 96.9207 -0.497293 -4.85158 0
M  V30 1076 H 95.9257 -2.79906 -4.73215 0
M  V30 1077 H 97.1507 -3.39283 -5.88272 0
M  V30 1078 H 95.0967 -1.22051 -6.44546 0
M  V30 1079 H 95.0137 -2.86125 -6.99763 0
M  V30 1080 H 96.2817 -1.82369 -7.57867 0
M  V30 1081 N 100.511 1.16574 -1.06058 0
M  V30 1082 C 101.459 2.22941 -0.663343 0
M  V30 1083 C 102.453 1.66358 0.319593 0
M  V30 1084 O 103.659 1.7905 0.184713 0
M  V30 1085 H 100.034 0.725907 -0.196376 0
M  V30 1086 H 102.005 2.53736 -1.57037 0
M  V30 1087 C 100.754 3.47642 -0.0632808 0
M  V30 1088 H 100.077 3.91493 -0.810733 0
M  V30 1089 H 101.517 4.2363 0.177177 0
M  V30 1090 C 99.9758 3.1509 1.19248 0
M  V30 1091 O 100.506 3.30673 2.28075 0
M  V30 1092 N 98.7118 2.6924 1.09353 0
M  V30 1093 H 98.2588 2.5676 0.207912 0
M  V30 1094 H 98.2168 2.47833 1.93458 0
M  V30 1095 N 101.989 0.842826 1.3317 0
M  V30 1096 C 103.237 0.439577 1.97262 0
M  V30 1097 C 103.558 -1.00548 1.67078 0
M  V30 1098 O 102.828 -1.70098 0.971779 0
M  V30 1099 H 101.408 0.159558 0.72976 0
M  V30 1100 H 104.07 1.07665 1.62463 0
M  V30 1101 H 103.166 0.574886 3.0676 0
M  V30 1102 N 103.467 -1.45747 0.599634 0
M  V30 1103 C 104.692 -2.07178 0.0960198 0
M  V30 1104 C 105.117 -1.44268 -1.207 0
M  V30 1105 O 104.475 -0.532503 -1.73303 0
M  V30 1106 C 104.523 -3.60579 -0.0385348 0
M  V30 1107 O 103.627 -3.97713 -1.0908 0
M  V30 1108 H 102.968 -0.660251 0.0704593 0
M  V30 1109 H 105.498 -1.87124 0.827385 0
M  V30 1110 H 105.508 -4.07298 -0.239304 0
M  V30 1111 H 104.183 -4.05756 0.912947 0
M  V30 1112 H 102.76 -3.62678 -0.867135 0
M  V30 1113 N 104.945 -0.338344 -1.53925 0
M  V30 1114 C 105.878 0.563758 -2.21127 0
M  V30 1115 C 106.856 1.10433 -1.19345 0
M  V30 1116 O 108.04 1.16557 -1.48144 0
M  V30 1117 C 105.167 1.77505 -2.88461 0
M  V30 1118 C 104.213 1.3644 -4.04087 0
M  V30 1119 S 105.046 0.388593 -5.34088 0
M  V30 1120 C 106.202 1.60683 -6.04923 0
M  V30 1121 H 106.435 -0.00704546 -2.97299 0
M  V30 1122 H 103.968 -0.122418 -1.53914 0
M  V30 1123 H 105.926 2.46999 -3.27875 0
M  V30 1124 H 104.587 2.31706 -2.12064 0
M  V30 1125 H 103.78 2.26739 -4.50117 0
M  V30 1126 H 103.382 0.748998 -3.66423 0
M  V30 1127 H 105.674 2.54209 -6.28 0
M  V30 1128 H 106.617 1.18842 -6.98056 0
M  V30 1129 H 107.025 1.80052 -5.35015 0
M  V30 1130 N 106.423 1.57458 -0.0668435 0
M  V30 1131 C 107.839 1.56947 0.289772 0
M  V30 1132 C 108.039 1.07584 1.70376 0
M  V30 1133 O 107.095 0.739486 2.41429 0
M  V30 1134 C 108.408 3.0052 0.103943 0
M  V30 1135 C 109.956 3.12517 0.173857 0
M  V30 1136 C 110.431 4.57997 0.0163682 0
M  V30 1137 N 111.922 4.63144 0.0721352 0
M  V30 1138 C 112.657 5.73394 -0.0253794 0
M  V30 1139 N 112.153 6.92576 -0.176133 0
M  V30 1140 N 113.946 5.62091 0.0313305 0
M  V30 1141 H 106.097 1.87863 -0.991027 0
M  V30 1142 H 108.36 0.86583 -0.38606 0
M  V30 1143 H 108.066 3.40729 -0.871572 0
M  V30 1144 H 107.94 3.67304 0.858366 0
M  V30 1145 H 110.327 2.72197 1.13985 0
M  V30 1146 H 110.408 2.48381 -0.611586 0
M  V30 1147 H 110.052 4.99005 -0.946374 0
M  V30 1148 H 109.982 5.20158 0.821153 0
M  V30 1149 H 112.473 3.77436 0.187263 0
M  V30 1150 H 112.786 7.72418 -0.242821 0
M  V30 1151 H 111.131 6.94678 -0.211429 0
M  V30 1152 H 114.322 4.67867 0.147773 0
M  V30 1153 H 114.495 6.47982 -0.048121 0
M  V30 1154 N 107.901 -0.206675 1.56239 0
M  V30 1155 C 109.15 -0.926964 1.79138 0
M  V30 1156 C 109.463 -1.84901 0.638043 0
M  V30 1157 O 110.669 -2.60906 0.751033 0
M  V30 1158 C 109.125 -1.6986 3.17294 0
M  V30 1159 C 108.733 -0.821956 4.40395 0
M  V30 1160 C 110.477 -2.40922 3.4951 0
M  V30 1161 C 108.384 -1.59179 5.69575 0
M  V30 1162 H 107.314 -0.349864 0.667915 0
M  V30 1163 H 109.965 -0.180487 1.8261 0
M  V30 1164 H 108.347 -2.48853 3.08039 0
M  V30 1165 H 109.521 -0.0715019 4.60745 0
M  V30 1166 H 107.836 -0.222741 4.15804 0
M  V30 1167 H 110.433 -2.99047 4.43255 0
M  V30 1168 H 110.776 -3.14542 2.72707 0
M  V30 1169 H 111.309 -1.68905 3.60161 0
M  V30 1170 H 108.048 -0.898589 6.49312 0
M  V30 1171 H 107.568 -2.31648 5.53262 0
M  V30 1172 H 109.247 -2.14862 6.10281 0
M  V30 1173 N 109.379 -1.50304 -0.473955 0
M  V30 1174 C 110.625 -1.61389 -1.22806 0
M  V30 1175 C 110.958 -0.311955 -1.91678 0
M  V30 1176 O 110.233 0.686384 -1.81986 0
M  V30 1177 C 110.516 -2.79219 -2.27396 0
M  V30 1178 C 110.369 -4.19286 -1.62848 0
M  V30 1179 C 111.688 -2.92614 -3.28732 0
M  V30 1180 H 108.807 -0.587399 -0.445119 0
M  V30 1181 H 111.449 -1.82681 -0.522265 0
M  V30 1182 H 109.599 -2.61195 -2.87592 0
M  V30 1183 H 111.271 -4.48892 -1.06271 0
M  V30 1184 H 109.514 -4.23677 -0.931693 0
M  V30 1185 H 110.185 -4.97655 -2.38838 0
M  V30 1186 H 112.661 -3.09105 -2.78556 0
M  V30 1187 H 111.537 -3.76688 -3.99246 0
M  V30 1188 H 111.798 -2.03107 -3.92683 0
M  V30 1189 N 110.857 0.726932 -1.39834 0
M  V30 1190 C 112.105 1.4837 -1.37225 0
M  V30 1191 C 112.426 1.94979 0.0284857 0
M  V30 1192 O 111.696 1.69555 0.981213 0
M  V30 1193 H 110.276 0.55043 -0.505011 0
M  V30 1194 H 112.938 0.862468 -1.74778 0
M  V30 1195 H 112.034 2.36198 -2.04003 0
M  V30 1196 N 112.336 1.25143 0.95797 0
M  V30 1197 C 113.747 1.08851 1.51685 0
M  V30 1198 C 114.098 -0.33687 1.93286 0
M  V30 1199 O 113.223 -1.22644 1.7829 0
M  V30 1200 C 113.818 1.96978 2.75654 0
M  V30 1201 C 112.377 1.84881 3.27866 0
M  V30 1202 C 111.524 1.91329 2.0072 0
M  V30 1203 H 114.475 1.38478 0.77522 0
M  V30 1204 H 114.496 1.5078 3.4935 0
M  V30 1205 H 114.008 3.00712 2.45345 0
M  V30 1206 H 112.109 0.840182 3.63004 0
M  V30 1207 H 112.222 2.6951 3.96107 0
M  V30 1208 H 110.586 1.35174 2.15871 0
M  V30 1209 H 111.369 2.96661 1.72764 0
M  V30 1210 N 113.814 -1.1601 1.06675 0
M  V30 1211 C 114.761 -2.20525 0.680967 0
M  V30 1212 C 115.731 -1.62904 -0.324283 0
M  V30 1213 O 116.916 -1.89615 -0.212294 0
M  V30 1214 C 114.056 -3.45013 0.0776551 0
M  V30 1215 C 113.169 -4.16863 1.13355 0
M  V30 1216 C 112.304 -5.2888 0.49597 0
M  V30 1217 C 111.343 -5.92537 1.53513 0
M  V30 1218 N 110.48 -6.96038 0.920631 0
M  V30 1219 H 115.32 -2.52876 1.57663 0
M  V30 1220 H 112.857 -1.24199 0.788223 0
M  V30 1221 H 114.815 -4.16193 -0.289704 0
M  V30 1222 H 113.445 -3.132 -0.781393 0
M  V30 1223 H 112.497 -3.44248 1.61857 0
M  V30 1224 H 113.809 -4.60294 1.92174 0
M  V30 1225 H 112.963 -6.06653 0.0758604 0
M  V30 1226 H 111.702 -4.86622 -0.324062 0
M  V30 1227 H 110.707 -5.13482 1.9651 0
M  V30 1228 H 111.932 -6.36873 2.35733 0
M  V30 1229 H 109.878 -6.55888 0.12138 0
M  V30 1230 H 109.795 -7.3786 1.64616 0
M  V30 1231 H 111.063 -7.77725 0.525795 0
M  V30 1232 N 115.292 -0.849877 -1.32721 0
M  V30 1233 C 116.52 -0.464754 -2.01613 0
M  V30 1234 C 116.935 0.937191 -1.63897 0
M  V30 1235 O 116.292 1.61081 -0.857856 0
M  V30 1236 C 116.343 -0.588638 -3.56675 0
M  V30 1237 O 116.064 -1.93535 -3.93034 0
M  V30 1238 C 117.565 -0.2019 -4.4284 0
M  V30 1239 H 114.785 -0.183215 -0.645502 0
M  V30 1240 H 117.329 -1.1455 -1.69407 0
M  V30 1241 H 115.484 0.0443159 -3.87375 0
M  V30 1242 H 115.898 -1.92871 -4.87751 0
M  V30 1243 H 117.372 -0.339599 -5.50954 0
M  V30 1244 H 117.849 0.857224 -4.30753 0
M  V30 1245 H 118.455 -0.809733 -4.17521 0
M  V30 1246 N 116.77 1.45427 -0.607355 0
M  V30 1247 C 118.01 2.04128 -0.105458 0
M  V30 1248 C 118.374 1.46555 1.24039 0
M  V30 1249 O 119.575 1.96608 1.833 0
M  V30 1250 C 117.846 3.57338 -0.0665324 0
M  V30 1251 S 119.405 4.37201 0.374207 0
M  V30 1252 H 116.223 0.709278 -0.0494575 0
M  V30 1253 H 118.825 1.78139 -0.805404 0
M  V30 1254 H 117.529 3.96752 -1.04957 0
M  V30 1255 H 117.06 3.87902 0.655415 0
M  V30 1256 H 119.075 4.6888 1.62377 0
M  V30 1257 N 118.248 0.346503 1.53744 0
M  V30 1258 C 119.473 -0.253074 2.0585 0
M  V30 1259 C 119.898 -1.43202 1.21962 0
M  V30 1260 O 119.256 -1.79783 0.234073 0
M  V30 1261 C 119.304 -0.643193 3.54817 0
M  V30 1262 O 118.408 -1.74286 3.73762 0
M  V30 1263 H 117.749 -0.0413583 0.662711 0
M  V30 1264 H 120.279 0.501574 1.98357 0
M  V30 1265 H 120.289 -0.919526 3.97503 0
M  V30 1266 H 118.964 0.218966 4.15323 0
M  V30 1267 H 117.541 -1.46356 3.42979 0
M  V30 1268 N 119.726 -1.57421 0.075193 0
M  V30 1269 C 120.674 -2.14124 -0.908508 0
M  V30 1270 C 121.668 -1.07898 -1.30592 0
M  V30 1271 O 122.874 -1.26273 -1.28277 0
M  V30 1272 H 119.249 -0.684707 -0.310935 0
M  V30 1273 H 121.22 -2.95634 -0.405374 0
M  V30 1274 C 119.969 -2.72044 -2.16535 0
M  V30 1275 H 119.292 -3.53456 -1.86839 0
M  V30 1276 H 120.732 -3.15311 -2.83469 0
M  V30 1277 C 119.191 -1.66968 -2.92615 0
M  V30 1278 O 119.721 -1.0967 -3.86439 0
M  V30 1279 N 117.927 -1.37923 -2.55784 0
M  V30 1280 H 117.474 -1.84706 -1.79559 0
M  V30 1281 H 117.432 -0.67852 -3.06991 0
M  V30 1282 N 121.204 0.198386 -1.56346 0
M  V30 1283 C 122.432 0.935572 -1.84539 0
M  V30 1284 C 122.847 1.76989 -0.657281 0
M  V30 1285 O 122.204 1.78626 0.374043 0
M  V30 1286 C 122.255 1.8344 -3.11499 0
M  V30 1287 O 121.976 1.03377 -4.25728 0
M  V30 1288 C 123.477 2.68355 -3.52846 0
M  V30 1289 H 120.697 0.273126 -0.612897 0
M  V30 1290 H 123.241 0.20663 -2.03453 0
M  V30 1291 H 121.396 2.51701 -2.94492 0
M  V30 1292 H 121.81 1.64599 -4.98003 0
M  V30 1293 H 123.284 3.27085 -4.44657 0
M  V30 1294 H 123.761 3.41901 -2.75681 0
M  V30 1295 H 124.367 2.05471 -3.72373 0
M  V30 1296 N 122.682 1.50554 0.465978 0
M  V30 1297 C 123.928 1.63006 1.21658 0
M  V30 1298 C 124.283 0.328613 1.89573 0
M  V30 1299 O 123.576 -0.673813 1.79361 0
M  V30 1300 C 123.77 2.75152 2.28093 0
M  V30 1301 C 123.599 4.16075 1.7062 0
M  V30 1302 C 122.369 4.82408 1.50368 0
M  V30 1303 C 124.567 5.00145 1.1983 0
M  V30 1304 N 122.549 6.07532 0.881924 0
M  V30 1305 C 123.92 6.16035 0.700083 0
M  V30 1306 C 125.975 4.85882 1.08733 0
M  V30 1307 C 124.678 7.19228 0.101835 0
M  V30 1308 C 126.704 5.89257 0.503016 0
M  V30 1309 C 126.066 7.04398 0.0152005 0
M  V30 1310 H 122.165 0.650596 0.433877 0
M  V30 1311 H 124.749 1.8769 0.517746 0
M  V30 1312 H 122.92 2.52181 2.95397 0
M  V30 1313 H 124.652 2.76935 2.95109 0
M  V30 1314 H 121.407 4.39788 1.75737 0
M  V30 1315 H 121.831 6.7443 0.589312 0
M  V30 1316 H 126.473 3.97144 1.4504 0
M  V30 1317 H 124.191 8.07637 -0.273426 0
M  V30 1318 H 127.777 5.80286 0.419451 0
M  V30 1319 H 126.657 7.83021 -0.429856 0
M  V30 1320 N 124.16 -0.719506 1.40217 0
M  V30 1321 C 125.11 -1.8251 1.36653 0
M  V30 1322 C 126.094 -1.59028 0.244732 0
M  V30 1323 O 127.286 -1.70268 0.483524 0
M  V30 1324 C 124.415 -3.20599 1.22763 0
M  V30 1325 C 123.501 -3.49858 2.39708 0
M  V30 1326 N 123.892 -3.49957 3.6519 0
M  V30 1327 C 122.19 -3.80297 2.33002 0
M  V30 1328 C 122.891 -3.77449 4.42614 0
M  V30 1329 N 121.867 -3.96002 3.72402 0
M  V30 1330 H 125.669 -1.80914 2.31619 0
M  V30 1331 H 123.183 -0.918455 1.33933 0
M  V30 1332 H 125.18 -3.99766 1.18292 0
M  V30 1333 H 123.84 -3.23424 0.287614 0
M  V30 1334 H 124.851 -3.309 3.98404 0
M  V30 1335 H 121.528 -3.90635 1.47346 0
M  V30 1336 H 122.918 -3.83863 5.51451 0
M  V30 1337 N 125.638 -1.25649 -0.95132 0
M  V30 1338 C 126.886 -1.10375 -1.69298 0
M  V30 1339 C 127.207 0.355339 -1.91735 0
M  V30 1340 O 126.477 1.25188 -1.50681 0
M  V30 1341 H 125.057 -0.405461 -0.627384 0
M  V30 1342 H 127.719 -1.57823 -1.14358 0
M  V30 1343 H 126.815 -1.61465 -2.67087 0
M  V30 1344 N 127.117 1.15442 -1.07289 0
M  V30 1345 C 128.345 1.90096 -0.81676 0
M  V30 1346 C 128.76 1.7798 0.629966 0
M  V30 1347 O 128.117 1.1313 1.43206 0
M  V30 1348 C 128.168 3.40466 -1.21512 0
M  V30 1349 O 127.889 3.52232 -2.60508 0
M  V30 1350 C 129.39 4.32145 -0.988198 0
M  V30 1351 H 126.61 0.602495 -0.295366 0
M  V30 1352 H 129.154 1.4627 -1.42918 0
M  V30 1353 H 127.309 3.81958 -0.647039 0
M  V30 1354 H 127.723 4.45549 -2.76742 0
M  V30 1355 H 129.197 5.36072 -1.31645 0
M  V30 1356 H 129.674 4.39135 0.0755063 0
M  V30 1357 H 130.28 3.96395 -1.54115 0
M  V30 1358 N 128.595 0.856903 1.32268 0
M  V30 1359 C 129.842 0.461386 1.97174 0
M  V30 1360 C 130.17 -0.983491 1.67803 0
M  V30 1361 O 129.425 -1.70541 0.959903 0
M  V30 1362 C 129.724 0.649919 3.51441 0
M  V30 1363 C 129.39 2.0656 4.00804 0
M  V30 1364 C 128.052 2.45279 4.13995 0
M  V30 1365 C 130.404 2.98947 4.26943 0
M  V30 1366 C 127.732 3.75653 4.50668 0
M  V30 1367 C 130.084 4.28822 4.65075 0
M  V30 1368 C 128.748 4.67472 4.76472 0
M  V30 1369 H 128.018 0.168833 0.72151 0
M  V30 1370 H 130.665 1.08739 1.57633 0
M  V30 1371 H 128.97 -0.0593018 3.91755 0
M  V30 1372 H 130.667 0.32391 3.9969 0
M  V30 1373 H 127.257 1.75495 3.91024 0
M  V30 1374 H 131.441 2.70265 4.16258 0
M  V30 1375 H 126.697 4.05379 4.57688 0
M  V30 1376 H 130.871 5.0047 4.84255 0
M  V30 1377 H 128.498 5.68539 5.04646 0
M  V30 1378 N 130.073 -1.45103 0.615059 0
M  V30 1379 C 131.484 -1.85654 0.197383 0
M  V30 1380 C 131.835 -1.51433 -1.24749 0
M  V30 1381 O 130.96 -0.944608 -1.94695 0
M  V30 1382 C 131.555 -3.36972 0.351448 0
M  V30 1383 C 130.114 -3.76398 -0.011593 0
M  V30 1384 C 129.261 -2.69024 0.672394 0
M  V30 1385 H 132.212 -1.35797 0.821263 0
M  V30 1386 H 132.233 -3.78239 -0.414227 0
M  V30 1387 H 131.745 -3.61847 1.40314 0
M  V30 1388 H 129.846 -3.5714 -1.06217 0
M  V30 1389 H 129.959 -4.77532 0.387265 0
M  V30 1390 H 128.323 -2.54465 0.109284 0
M  V30 1391 H 129.106 -2.96735 1.72636 0
M  V30 1392 N 131.551 -0.354651 -1.53558 0
M  V30 1393 C 132.8 0.239504 -2.00273 0
M  V30 1394 C 133.113 1.50759 -1.24623 0
M  V30 1395 O 134.319 2.17968 -1.61871 0
M  V30 1396 C 132.775 0.477341 -3.5672 0
M  V30 1397 C 132.383 -0.775488 -4.41237 0
M  V30 1398 C 134.127 1.02975 -4.11821 0
M  V30 1399 C 132.034 -0.507838 -5.89216 0
M  V30 1400 H 130.964 0.0932743 -0.748208 0
M  V30 1401 H 133.615 -0.471701 -1.77334 0
M  V30 1402 H 131.997 1.24953 -3.7577 0
M  V30 1403 H 133.171 -1.54963 -4.33962 0
M  V30 1404 H 131.486 -1.25033 -3.97185 0
M  V30 1405 H 134.083 1.24513 -5.2 0
M  V30 1406 H 134.426 1.98862 -3.65731 0
M  V30 1407 H 134.959 0.317994 -3.96527 0
M  V30 1408 H 131.698 -1.43674 -6.39561 0
M  V30 1409 H 131.218 0.228011 -5.99366 0
M  V30 1410 H 132.897 -0.129238 -6.46871 0
M  V30 1411 N 133.029 1.57378 -0.0835403 0
M  V30 1412 C 133.977 2.14602 0.89714 0
M  V30 1413 C 134.971 1.08589 1.30018 0
M  V30 1414 O 136.177 1.26952 1.27606 0
M  V30 1415 H 132.552 0.686346 0.3073 0
M  V30 1416 H 134.523 2.95845 0.38969 0
M  V30 1417 C 133.272 2.73188 2.15089 0
M  V30 1418 H 132.595 3.54442 1.84962 0
M  V30 1419 H 134.035 3.1681 2.81793 0
M  V30 1420 C 132.494 1.68517 2.91725 0
M  V30 1421 O 133.024 1.11718 3.85852 0
M  V30 1422 N 131.23 1.39277 2.55049 0
M  V30 1423 H 130.777 1.85655 1.78577 0
M  V30 1424 H 130.735 0.694791 3.06627 0
M  V30 1425 N 134.507 -0.190092 1.56449 0
M  V30 1426 C 135.735 -0.925772 1.85033 0
M  V30 1427 C 136.15 -1.76638 0.666658 0
M  V30 1428 O 135.507 -1.78822 -0.364565 0
M  V30 1429 C 135.558 -1.81786 3.12468 0
M  V30 1430 O 135.279 -1.01118 4.26271 0
M  V30 1431 C 136.78 -2.6648 3.54265 0
M  V30 1432 H 134 -0.269872 0.614337 0
M  V30 1433 H 136.544 -0.195837 2.0356 0
M  V30 1434 H 134.699 -2.50136 2.95822 0
M  V30 1435 H 135.113 -1.61956 4.98869 0
M  V30 1436 H 136.587 -3.24722 4.46385 0
M  V30 1437 H 137.064 -3.40434 2.77491 0
M  V30 1438 H 137.67 -2.03493 3.73458 0
M  V30 1439 N 135.985 -1.50799 -0.457987 0
M  V30 1440 C 137.215 -1.65977 -1.23025 0
M  V30 1441 C 137.623 -0.347918 -1.85974 0
M  V30 1442 O 136.966 0.68148 -1.70592 0
M  V30 1443 C 137.028 -2.70309 -2.3701 0
M  V30 1444 C 136.692 -4.135 -1.94594 0
M  V30 1445 C 137.689 -4.98949 -1.46101 0
M  V30 1446 C 135.374 -4.5949 -2.02915 0
M  V30 1447 C 137.368 -6.28442 -1.06489 0
M  V30 1448 C 135.055 -5.88984 -1.62914 0
M  V30 1449 C 136.053 -6.73286 -1.1478 0
M  V30 1450 O 135.741 -8.00362 -0.75339 0
M  V30 1451 H 135.473 -0.56064 -0.377702 0
M  V30 1452 H 138.027 -1.97857 -0.551537 0
M  V30 1453 H 136.257 -2.337 -3.08093 0
M  V30 1454 H 137.946 -2.74574 -2.98938 0
M  V30 1455 H 138.712 -4.6463 -1.39084 0
M  V30 1456 H 134.591 -3.94009 -2.39328 0
M  V30 1457 H 138.135 -6.94194 -0.688488 0
M  V30 1458 H 134.032 -6.22822 -1.69595 0
M  V30 1459 H 134.8 -8.13744 -0.88108 0
M  V30 1460 N 137.463 0.71206 -1.40597 0
M  V30 1461 C 138.691 1.50111 -1.42388 0
M  V30 1462 C 139.106 1.88784 -0.0245395 0
M  V30 1463 O 138.463 1.55681 0.952351 0
M  V30 1464 C 138.514 2.7742 -2.31776 0
M  V30 1465 O 138.235 2.40382 -3.66262 0
M  V30 1466 C 139.736 3.7129 -2.42196 0
M  V30 1467 H 136.956 0.46314 -0.485533 0
M  V30 1468 H 139.5 0.878068 -1.8469 0
M  V30 1469 H 137.655 3.36001 -1.92827 0
M  V30 1470 H 138.069 3.22324 -4.13772 0
M  V30 1471 H 139.543 4.57448 -3.08943 0
M  V30 1472 H 140.02 4.14641 -1.44809 0
M  V30 1473 H 140.626 3.18619 -2.81712 0
M  V30 1474 N 138.941 1.26152 0.944643 0
M  V30 1475 C 140.169 1.14259 1.72489 0
M  V30 1476 C 140.584 -0.302555 1.8636 0
M  V30 1477 O 139.941 -1.20741 1.36849 0
M  V30 1478 C 139.992 1.80266 3.13347 0
M  V30 1479 O 139.713 3.19133 3.00143 0
M  V30 1480 C 141.214 1.74283 4.07603 0
M  V30 1481 H 138.434 0.398051 0.540181 0
M  V30 1482 H 140.978 1.66706 1.18446 0
M  V30 1483 H 139.133 1.31766 3.64303 0
M  V30 1484 H 139.547 3.51744 3.89071 0
M  V30 1485 H 141.021 2.25111 5.04013 0
M  V30 1486 H 141.498 0.708631 4.33446 0
M  V30 1487 H 142.104 2.22319 3.62567 0
M  V30 1488 N 140.419 -1.14872 1.07899 0
M  V30 1489 C 141.667 -1.85422 0.803941 0
M  V30 1490 C 141.988 -1.83051 -0.67211 0
M  V30 1491 O 141.258 -1.27532 -1.48703 0
M  V30 1492 H 139.838 -0.686537 0.294408 0
M  V30 1493 H 142.5 -1.39226 1.3639 0
M  V30 1494 H 141.596 -2.90399 1.14346 0
M  V30 1495 N 141.898 -0.863906 -1.31812 0
M  V30 1496 C 143.309 -0.52522 -1.7916 0
M  V30 1497 C 143.66 0.957518 -1.71248 0
M  V30 1498 O 142.785 1.74734 -1.27659 0
M  V30 1499 C 143.38 -0.9466 -3.25307 0
M  V30 1500 C 141.939 -0.659668 -3.70574 0
M  V30 1501 C 141.086 -1.14126 -2.52726 0
M  V30 1502 H 144.037 -1.05022 -1.1898 0
M  V30 1503 H 144.058 -0.266766 -3.79564 0
M  V30 1504 H 143.57 -2.02579 -3.31034 0
M  V30 1505 H 141.671 0.408416 -3.70355 0
M  V30 1506 H 141.784 -1.23245 -4.62977 0
M  V30 1507 H 140.148 -0.561216 -2.4844 0
M  V30 1508 H 140.931 -2.22775 -2.61201 0
M  V30 1509 N 143.376 1.44774 -0.622745 0
M  V30 1510 C 144.616 2.04004 -0.127102 0
M  V30 1511 C 144.98 1.47862 1.22478 0
M  V30 1512 O 146.181 1.98541 1.81204 0
M  V30 1513 C 144.452 3.57247 -0.104429 0
M  V30 1514 S 146.011 4.37574 0.327814 0
M  V30 1515 H 142.829 0.708713 -0.0569776 0
M  V30 1516 H 145.431 1.77275 -0.824253 0
M  V30 1517 H 144.135 3.95616 -1.09159 0
M  V30 1518 H 143.666 3.88575 0.614236 0
M  V30 1519 H 145.681 4.70575 1.57395 0
M  V30 1520 N 144.854 0.36279 1.53368 0
M  V30 1521 C 146.082 -0.228613 2.05633 0
M  V30 1522 C 146.497 -1.42676 1.23649 0
M  V30 1523 O 145.854 -1.80394 0.27647 0
M  V30 1524 C 145.905 -0.624845 3.56059 0
M  V30 1525 O 145.626 0.525675 4.34935 0
M  V30 1526 C 147.127 -1.27493 4.24571 0
M  V30 1527 H 144.347 -0.0407183 0.669763 0
M  V30 1528 H 146.891 0.520352 1.97769 0
M  V30 1529 H 145.046 -1.32373 3.64083 0
M  V30 1530 H 145.46 0.205969 5.24095 0
M  V30 1531 H 146.934 -1.50277 5.31151 0
M  V30 1532 H 147.411 -2.23439 3.78116 0
M  V30 1533 H 148.017 -0.617558 4.20792 0
M  V30 1534 N 146.332 -1.57332 0.0918853 0
M  V30 1535 C 147.743 -1.81496 -0.437739 0
M  V30 1536 C 148.094 -1.00727 -1.6837 0
M  V30 1537 O 147.219 -0.235694 -2.15113 0
M  V30 1538 C 147.814 -3.29197 -0.800939 0
M  V30 1539 C 146.373 -3.54136 -1.27532 0
M  V30 1540 C 145.52 -2.75979 -0.270392 0
M  V30 1541 H 148.471 -1.55494 0.317366 0
M  V30 1542 H 148.492 -3.42344 -1.66074 0
M  V30 1543 H 148.004 -3.87955 0.106078 0
M  V30 1544 H 146.105 -3.00705 -2.20016 0
M  V30 1545 H 146.218 -4.62792 -1.23938 0
M  V30 1546 H 144.582 -2.43349 -0.751872 0
M  V30 1547 H 145.365 -3.37484 0.629248 0
M  V30 1548 N 147.81 0.181792 -1.56548 0
M  V30 1549 C 149.035 0.920019 -1.85877 0
M  V30 1550 C 149.46 1.75494 -0.677021 0
M  V30 1551 O 148.818 1.77399 0.374056 0
M  V30 1552 C 148.866 1.78112 -3.13542 0
M  V30 1553 O 147.97 2.88152 -2.95029 0
M  V30 1554 H 147.311 0.258334 -0.611686 0
M  V30 1555 H 149.841 0.183092 -2.03779 0
M  V30 1556 H 149.851 2.18314 -3.44678 0
M  V30 1557 H 148.526 1.16777 -3.99169 0
M  V30 1558 H 147.103 2.51609 -2.75222 0
M  V30 1559 N 149.288 1.51039 0.449983 0
M  V30 1560 C 150.699 1.557 1.03026 0
M  V30 1561 C 151.05 0.372939 1.92623 0
M  V30 1562 O 150.175 -0.511771 2.10261 0
M  V30 1563 C 150.77 2.82171 1.87523 0
M  V30 1564 C 149.329 2.89444 2.40622 0
M  V30 1565 C 148.476 2.50228 1.19504 0
M  V30 1566 H 151.427 1.56999 0.231745 0
M  V30 1567 H 151.448 2.65219 2.72835 0
M  V30 1568 H 150.96 3.68331 1.22286 0
M  V30 1569 H 149.061 2.07685 3.0935 0
M  V30 1570 H 149.174 3.92816 2.74285 0
M  V30 1571 H 147.538 2.03139 1.53644 0
M  V30 1572 H 148.321 3.38719 0.558972 0
M  V30 1573 N 150.766 -0.704594 1.40972 0
M  V30 1574 C 151.729 -1.80035 1.41845 0
M  V30 1575 C 152.729 -1.57774 0.310474 0
M  V30 1576 O 153.919 -1.64613 0.56992 0
M  V30 1577 C 151.051 -3.18284 1.22098 0
M  V30 1578 H 152.244 -1.80658 2.3938 0
M  V30 1579 H 149.797 -0.911329 1.26982 0
M  V30 1580 H 150.532 -3.23306 0.253672 0
M  V30 1581 H 150.317 -3.35843 2.02366 0
M  V30 1582 H 151.807 -3.98289 1.25522 0
M  V30 1583 N 152.244 -1.26651 -0.937939 0
M  V30 1584 C 153.655 -1.1125 -1.49934 0
M  V30 1585 C 154.006 0.306077 -1.93798 0
M  V30 1586 O 153.131 1.19792 -1.80219 0
M  V30 1587 C 153.726 -2.01339 -2.72485 0
M  V30 1588 C 152.285 -1.90074 -3.24883 0
M  V30 1589 C 151.432 -1.94498 -1.97651 0
M  V30 1590 H 154.383 -1.39693 -0.753091 0
M  V30 1591 H 154.404 -1.56319 -3.46907 0
M  V30 1592 H 153.916 -3.04577 -2.40529 0
M  V30 1593 H 152.017 -0.897827 -3.61621 0
M  V30 1594 H 152.13 -2.75778 -3.9177 0
M  V30 1595 H 150.494 -1.38591 -2.13693 0
M  V30 1596 H 151.277 -2.99372 -1.68022 0
M  V30 1597 N 153.722 1.14298 -1.08507 0
M  V30 1598 C 154.67 2.21483 -0.710483 0
M  V30 1599 C 155.664 1.66998 0.284234 0
M  V30 1600 O 156.87 1.79401 0.146692 0
M  V30 1601 H 153.245 0.721578 -0.211729 0
M  V30 1602 H 155.216 2.50348 -1.62384 0
M  V30 1603 C 153.965 3.4743 -0.137007 0
M  V30 1604 H 153.288 3.89686 -0.893592 0
M  V30 1605 H 154.728 4.2391 0.0872789 0
M  V30 1606 C 153.187 3.17548 1.12538 0
M  V30 1607 O 153.717 3.35437 2.21009 0
M  V30 1608 N 151.923 2.71499 1.03617 0
M  V30 1609 H 151.47 2.57143 0.153403 0
M  V30 1610 H 151.428 2.51881 1.88158 0
M  V30 1611 N 155.201 0.870884 1.31352 0
M  V30 1612 C 156.431 0.496049 2.00557 0
M  V30 1613 C 156.839 -0.916241 1.65534 0
M  V30 1614 O 156.182 -1.61188 0.881134 0
M  V30 1615 C 156.244 0.574418 3.54881 0
M  V30 1616 C 155.908 1.94849 4.1338 0
M  V30 1617 C 156.905 2.91611 4.30417 0
M  V30 1618 C 154.59 2.25005 4.49086 0
M  V30 1619 C 156.584 4.16672 4.82352 0
M  V30 1620 C 154.271 3.50315 5.00722 0
M  V30 1621 C 155.269 4.45964 5.17306 0
M  V30 1622 O 154.957 5.69052 5.67833 0
M  V30 1623 H 154.689 0.191664 0.64826 0
M  V30 1624 H 157.243 1.17409 1.68536 0
M  V30 1625 H 155.473 -0.160549 3.86367 0
M  V30 1626 H 157.162 0.212879 4.05341 0
M  V30 1627 H 157.928 2.69622 4.03149 0
M  V30 1628 H 153.807 1.51332 4.35453 0
M  V30 1629 H 157.351 4.91336 4.95211 0
M  V30 1630 H 153.248 3.72147 5.27424 0
M  V30 1631 H 154.016 5.71236 5.86201 0
M  V30 1632 N 156.679 -1.44442 0.630414 0
M  V30 1633 C 157.904 -2.06927 0.139944 0
M  V30 1634 C 158.329 -1.46795 -1.17613 0
M  V30 1635 O 157.687 -0.569144 -1.72135 0
M  V30 1636 C 157.735 -3.6058 0.0379581 0
M  V30 1637 O 156.839 -3.99937 -1.0062 0
M  V30 1638 H 156.18 -0.658608 0.0844483 0
M  V30 1639 H 158.71 -1.85327 0.866891 0
M  V30 1640 H 158.72 -4.07714 -0.152856 0
M  V30 1641 H 157.395 -4.03728 0.998809 0
M  V30 1642 H 155.972 -3.64436 -0.79001 0
M  V30 1643 N 158.157 -0.370918 -1.53173 0
M  V30 1644 C 159.573 -0.0200818 -1.59587 0
M  V30 1645 C 159.773 1.46279 -1.38581 0
M  V30 1646 O 158.829 2.22506 -1.19363 0
M  V30 1647 C 160.142 -0.4808 -2.96831 0
M  V30 1648 C 161.69 -0.435477 -3.09956 0
M  V30 1649 C 162.165 -0.872092 -4.4962 0
M  V30 1650 N 163.656 -0.827364 -4.55751 0
M  V30 1651 C 164.391 -1.13683 -5.62018 0
M  V30 1652 N 163.887 -1.51584 -6.76014 0
M  V30 1653 N 165.68 -1.05927 -5.52029 0
M  V30 1654 H 157.831 -1.33652 -1.65079 0
M  V30 1655 H 160.094 -0.546634 -0.774529 0
M  V30 1656 H 159.8 -1.51577 -3.1736 0
M  V30 1657 H 159.674 0.129796 -3.76977 0
M  V30 1658 H 162.061 0.590371 -2.89134 0
M  V30 1659 H 162.142 -1.08164 -2.31806 0
M  V30 1660 H 161.786 -1.89608 -4.71181 0
M  V30 1661 H 161.716 -0.203127 -5.26208 0
M  V30 1662 H 164.207 -0.548216 -3.73902 0
M  V30 1663 H 164.52 -1.73609 -7.53047 0
M  V30 1664 H 162.865 -1.55454 -6.77391 0
M  V30 1665 H 166.056 -0.762321 -4.61851 0
M  V30 1666 H 166.229 -1.30378 -6.34749 0
M  V30 1667 N 159.635 1.57281 -0.100228 0
M  V30 1668 C 160.598 2.13158 0.842398 0
M  V30 1669 C 161.598 1.06202 1.20738 0
M  V30 1670 O 162.788 1.32066 1.13597 0
M  V30 1671 C 159.92 2.65639 2.13655 0
M  V30 1672 H 161.113 2.97766 0.357114 0
M  V30 1673 H 158.666 1.5559 0.148823 0
M  V30 1674 H 159.401 1.84566 2.66657 0
M  V30 1675 H 159.186 3.43844 1.88451 0
M  V30 1676 H 160.676 3.08846 2.81077 0
M  V30 1677 N 161.113 -0.173488 1.56642 0
M  V30 1678 C 162.043 -1.2171 1.99271 0
M  V30 1679 C 163.024 -1.46289 0.867959 0
M  V30 1680 O 164.209 -1.5766 1.13388 0
M  V30 1681 C 161.339 -2.55651 2.35074 0
M  V30 1682 C 160.293 -2.45645 3.50489 0
M  V30 1683 C 159.619 -3.84056 3.72028 0
M  V30 1684 C 160.919 -1.96302 4.84007 0
M  V30 1685 H 162.613 -0.86275 2.867 0
M  V30 1686 H 160.159 -0.413571 1.37933 0
M  V30 1687 H 162.112 -3.2886 2.63494 0
M  V30 1688 H 160.836 -2.92869 1.44552 0
M  V30 1689 H 159.495 -1.7489 3.22194 0
M  V30 1690 H 159.143 -4.18664 2.788 0
M  V30 1691 H 158.843 -3.7823 4.49684 0
M  V30 1692 H 160.367 -4.58854 4.02846 0
M  V30 1693 H 161.781 -2.59284 5.11317 0
M  V30 1694 H 160.178 -2.01429 5.65284 0
M  V30 1695 H 161.248 -0.917226 4.76146 0
M  V30 1696 N 162.591 -1.51276 -0.441967 0
M  V30 1697 C 163.837 -1.6492 -1.1905 0
M  V30 1698 C 164.192 -0.358731 -1.89026 0
M  V30 1699 O 163.485 0.645193 -1.8041 0
M  V30 1700 C 163.679 -2.78746 -2.23686 0
M  V30 1701 C 163.508 -4.18737 -1.63979 0
M  V30 1702 C 162.278 -4.84739 -1.42674 0
M  V30 1703 C 164.476 -5.01988 -1.11858 0
M  V30 1704 N 162.458 -6.08858 -0.785159 0
M  V30 1705 C 163.829 -6.17071 -0.601989 0
M  V30 1706 C 165.884 -4.87551 -1.0099 0
M  V30 1707 C 164.587 -7.19299 0.0126012 0
M  V30 1708 C 166.613 -5.89983 -0.409206 0
M  V30 1709 C 165.975 -7.04333 0.0968651 0
M  V30 1710 H 162.074 -0.657416 -0.423471 0
M  V30 1711 H 164.658 -1.8849 -0.48782 0
M  V30 1712 H 162.829 -2.56848 -2.91348 0
M  V30 1713 H 164.561 -2.81595 -2.90666 0
M  V30 1714 H 161.316 -4.42528 -1.68719 0
M  V30 1715 H 161.74 -6.75282 -0.481942 0
M  V30 1716 H 166.382 -3.99401 -1.38703 0
M  V30 1717 H 164.1 -8.071 0.401879 0
M  V30 1718 H 167.686 -5.8088 -0.327079 0
M  V30 1719 H 166.566 -7.82238 0.554373 0
M  V30 1720 N 164.069 0.697108 -1.41344 0
M  V30 1721 C 165.485 1.00751 -1.2378 0
M  V30 1722 C 165.685 2.01105 -0.126066 0
M  V30 1723 O 164.741 2.47295 0.51004 0
M  V30 1724 C 166.054 1.53359 -2.58653 0
M  V30 1725 C 167.602 1.6525 -2.65822 0
M  V30 1726 C 168.077 2.2126 -4.01009 0
M  V30 1727 N 169.568 2.28622 -4.02847 0
M  V30 1728 C 170.303 2.72984 -5.04249 0
M  V30 1729 N 169.799 3.16962 -6.16041 0
M  V30 1730 N 171.592 2.72534 -4.91611 0
M  V30 1731 H 163.743 0.0322662 -2.12375 0
M  V30 1732 H 166.006 0.0768853 -0.944877 0
M  V30 1733 H 165.712 0.870773 -3.4075 0
M  V30 1734 H 165.586 2.51597 -2.81032 0
M  V30 1735 H 167.973 2.30644 -1.84086 0
M  V30 1736 H 168.054 0.655614 -2.47256 0
M  V30 1737 H 167.698 1.56482 -4.83193 0
M  V30 1738 H 167.628 3.21698 -4.16915 0
M  V30 1739 H 170.119 1.97585 -3.22131 0
M  V30 1740 H 170.432 3.49434 -6.89287 0
M  V30 1741 H 168.777 3.14875 -6.1958 0
M  V30 1742 H 171.968 2.37525 -4.0336 0
M  V30 1743 H 172.141 3.06789 -5.70775 0
M  V30 1744 N 165.547 1.27147 0.931209 0
M  V30 1745 C 166.793 1.13446 1.68101 0
M  V30 1746 C 167.126 -0.319628 1.91552 0
M  V30 1747 O 166.401 -1.23407 1.50336 0
M  V30 1748 C 166.684 1.91482 3.0497 0
M  V30 1749 C 166.537 3.44855 2.88782 0
M  V30 1750 C 167.856 1.71651 4.05246 0
M  V30 1751 H 164.975 0.413498 0.610072 0
M  V30 1752 H 167.617 1.56261 1.08086 0
M  V30 1753 H 165.767 1.55095 3.56199 0
M  V30 1754 H 167.439 3.9105 2.44698 0
M  V30 1755 H 165.682 3.71373 2.24198 0
M  V30 1756 H 166.353 3.94694 3.85902 0
M  V30 1757 H 168.829 2.0337 3.63015 0
M  V30 1758 H 167.705 2.28651 4.99009 0
M  V30 1759 H 167.966 0.663555 4.37092 0
M  V30 1760 N 167.025 -1.13721 1.09112 0
M  V30 1761 C 167.988 -2.17222 0.731241 0
M  V30 1762 C 168.988 -1.59035 -0.237566 0
M  V30 1763 O 170.178 -1.74192 -0.0161704 0
M  V30 1764 C 167.31 -3.40804 0.0808443 0
M  V30 1765 H 168.503 -2.50573 1.64783 0
M  V30 1766 H 166.056 -1.28493 0.889897 0
M  V30 1767 H 166.791 -3.1304 -0.847127 0
M  V30 1768 H 166.576 -3.84306 0.777896 0
M  V30 1769 H 168.066 -4.1731 -0.155657 0
M  V30 1770 N 168.503 -0.877838 -1.30888 0
M  V30 1771 C 169.466 -0.344265 -2.266 0
M  V30 1772 C 170.466 0.50922 -1.52524 0
M  V30 1773 O 171.656 0.317398 -1.71284 0
M  V30 1774 C 168.788 0.510198 -3.37061 0
M  V30 1775 H 169.981 -1.1893 -2.7531 0
M  V30 1776 H 167.534 -0.654088 -1.41956 0
M  V30 1777 H 168.269 1.37612 -2.93655 0
M  V30 1778 H 168.054 -0.101047 -3.9197 0
M  V30 1779 H 169.544 0.875537 -4.08319 0
M  V30 1780 N 169.982 1.44106 -0.638065 0
M  V30 1781 C 170.892 2.34513 0.0637334 0
M  V30 1782 C 171.908 1.53018 0.828346 0
M  V30 1783 O 173.084 1.85723 0.779036 0
M  V30 1784 C 170.149 3.31095 1.02844 0
M  V30 1785 C 169.21 4.28497 0.26244 0
M  V30 1786 C 168.443 5.20465 1.1812 0
M  V30 1787 O 168.666 5.16514 2.42011 0
M  V30 1788 O 167.6 5.98251 0.661774 0
M  V30 1789 H 171.426 2.95989 -0.68003 0
M  V30 1790 H 169.011 1.43994 -0.398252 0
M  V30 1791 H 170.893 3.90526 1.58327 0
M  V30 1792 H 169.568 2.72144 1.7527 0
M  V30 1793 H 168.475 3.72592 -0.335602 0
M  V30 1794 H 169.808 4.90388 -0.421936 0
M  V30 1795 N 171.46 0.379036 1.52974 0
M  V30 1796 C 172.37 -0.468639 2.29872 0
M  V30 1797 C 173.386 -1.08067 1.36373 0
M  V30 1798 O 174.562 -1.08871 1.69438 0
M  V30 1799 C 171.627 -1.58594 3.083 0
M  V30 1800 C 170.688 -1.00007 4.17489 0
M  V30 1801 C 169.921 -2.06413 4.92168 0
M  V30 1802 O 170.144 -3.27751 4.66835 0
M  V30 1803 O 169.078 -1.68717 5.7777 0
M  V30 1804 H 172.904 0.157508 3.03291 0
M  V30 1805 H 170.489 0.143035 1.48714 0
M  V30 1806 H 172.371 -2.23525 3.57232 0
M  V30 1807 H 171.046 -2.19724 2.37703 0
M  V30 1808 H 169.953 -0.314299 3.72777 0
M  V30 1809 H 171.286 -0.433135 4.90291 0
M  V30 1810 N 172.938 -1.57226 0.108567 0
M  V30 1811 C 174.168 -1.9889 -0.559142 0
M  V30 1812 C 174.576 -0.986889 -1.61422 0
M  V30 1813 O 173.919 0.0298705 -1.83676 0
M  V30 1814 C 173.981 -3.36952 -1.25315 0
M  V30 1815 C 173.645 -4.55679 -0.347248 0
M  V30 1816 C 174.642 -5.18281 0.409996 0
M  V30 1817 C 172.327 -5.0162 -0.261367 0
M  V30 1818 C 174.321 -6.25203 1.24096 0
M  V30 1819 C 172.008 -6.08405 0.573238 0
M  V30 1820 C 173.006 -6.70063 1.32304 0
M  V30 1821 O 172.694 -7.74788 2.14381 0
M  V30 1822 H 172.426 -0.658343 -0.153492 0
M  V30 1823 H 174.98 -2.04532 0.188584 0
M  V30 1824 H 173.21 -3.28032 -2.04773 0
M  V30 1825 H 174.899 -3.62974 -1.81673 0
M  V30 1826 H 175.665 -4.8371 0.353457 0
M  V30 1827 H 171.544 -4.53381 -0.834656 0
M  V30 1828 H 175.088 -6.73259 1.82669 0
M  V30 1829 H 170.985 -6.42406 0.631208 0
M  V30 1830 H 171.753 -7.91837 2.07209 0
M  V30 1831 N 174.416 0.165178 -1.56732 0
M  V30 1832 C 175.662 0.882112 -1.82611 0
M  V30 1833 C 175.995 1.81628 -0.687378 0
M  V30 1834 O 175.27 1.92009 0.310267 0
M  V30 1835 C 175.553 1.67245 -3.18906 0
M  V30 1836 C 175.406 0.760987 -4.43316 0
M  V30 1837 C 176.725 2.63884 -3.52212 0
M  V30 1838 H 173.844 0.319242 -0.664269 0
M  V30 1839 H 176.486 0.148052 -1.89422 0
M  V30 1840 H 174.636 2.29824 -3.1323 0
M  V30 1841 H 176.308 0.147596 -4.61064 0
M  V30 1842 H 174.551 0.0694102 -4.33744 0
M  V30 1843 H 175.222 1.34962 -5.35247 0
M  V30 1844 H 177.698 2.11429 -3.58381 0
M  V30 1845 H 176.574 3.16245 -4.48643 0
M  V30 1846 H 176.835 3.44377 -2.77231 0
M  V30 1847 N 175.894 1.51508 0.433938 0
M  V30 1848 C 176.804 1.75917 1.5521 0
M  V30 1849 C 177.82 0.643545 1.61662 0
M  V30 1850 O 178.996 0.926183 1.7884 0
M  V30 1851 C 176.061 1.88213 2.91164 0
M  V30 1852 C 175.122 3.12074 2.94802 0
M  V30 1853 C 174.355 3.23774 4.24271 0
M  V30 1854 O 174.578 2.4133 5.16833 0
M  V30 1855 O 173.512 4.16774 4.34262 0
M  V30 1856 H 177.338 2.70777 1.37527 0
M  V30 1857 H 174.923 1.36051 0.617293 0
M  V30 1858 H 176.805 1.98267 3.71845 0
M  V30 1859 H 175.48 0.965413 3.08968 0
M  V30 1860 H 174.387 3.07497 2.13065 0
M  V30 1861 H 175.72 4.03446 2.81943 0
M  V30 1862 N 177.372 -0.689602 1.41712 0
M  V30 1863 C 178.618 -1.45181 1.41599 0
M  V30 1864 C 178.951 -1.94181 0.0270081 0
M  V30 1865 O 178.226 -1.6993 -0.946265 0
M  V30 1866 C 178.509 -2.65945 2.42787 0
M  V30 1867 C 178.362 -2.22672 3.90816 0
M  V30 1868 C 179.681 -3.68149 2.41151 0
M  V30 1869 H 176.8 -0.526576 0.515642 0
M  V30 1870 H 179.442 -0.784947 1.73028 0
M  V30 1871 H 177.592 -3.2284 2.16116 0
M  V30 1872 H 179.264 -1.71058 4.28412 0
M  V30 1873 H 177.507 -1.54394 4.05395 0
M  V30 1874 H 178.178 -3.0935 4.57172 0
M  V30 1875 H 180.654 -3.2094 2.64834 0
M  V30 1876 H 179.53 -4.50248 3.13955 0
M  V30 1877 H 179.791 -4.18259 1.43221 0
M  V30 1878 N 178.85 -1.27639 -0.924453 0
M  V30 1879 C 180.078 -1.16989 -1.70649 0
M  V30 1880 C 180.493 0.272869 -1.86818 0
M  V30 1881 O 179.85 1.18549 -1.38753 0
M  V30 1882 C 179.901 -1.85229 -3.10439 0
M  V30 1883 O 179.622 -3.23868 -2.95028 0
M  V30 1884 C 181.123 -1.80746 -4.04779 0
M  V30 1885 H 178.343 -0.406595 -0.53378 0
M  V30 1886 H 180.887 -1.68569 -1.15778 0
M  V30 1887 H 179.042 -1.37545 -3.6216 0
M  V30 1888 H 179.456 -3.57889 -3.83426 0
M  V30 1889 H 180.93 -2.33101 -5.00368 0
M  V30 1890 H 181.407 -0.777499 -4.32263 0
M  V30 1891 H 182.013 -2.28059 -3.58984 0
M  V30 1892 N 180.328 1.1314 -1.09713 0
M  V30 1893 C 181.744 1.36477 -0.827423 0
M  V30 1894 C 181.944 1.93654 0.556817 0
M  V30 1895 O 181 2.15791 1.31112 0
M  V30 1896 C 182.313 2.31334 -1.92106 0
M  V30 1897 C 183.861 2.44943 -1.94864 0
M  V30 1898 C 184.336 3.4311 -3.0338 0
M  V30 1899 N 185.827 3.50662 -3.02639 0
M  V30 1900 C 186.562 4.2651 -3.83246 0
M  V30 1901 N 186.058 5.05485 -4.73768 0
M  V30 1902 N 187.851 4.2184 -3.71493 0
M  V30 1903 H 180.002 0.743807 -1.9895 0
M  V30 1904 H 182.265 0.389823 -0.864143 0
M  V30 1905 H 181.971 1.96483 -2.91698 0
M  V30 1906 H 181.845 3.31381 -1.80184 0
M  V30 1907 H 184.232 2.79079 -0.959099 0
M  V30 1908 H 184.313 1.4481 -2.10864 0
M  V30 1909 H 183.957 3.09704 -4.02549 0
M  V30 1910 H 183.887 4.43055 -2.84622 0
M  V30 1911 H 186.378 2.94315 -2.37039 0
M  V30 1912 H 186.691 5.60675 -5.3185 0
M  V30 1913 H 185.036 5.04708 -4.77802 0
M  V30 1914 H 188.227 3.5922 -3.00131 0
M  V30 1915 H 188.4 4.80697 -4.3455 0
M  V30 1916 N 181.806 0.884767 1.30421 0
M  V30 1917 C 183.052 0.503851 1.96441 0
M  V30 1918 C 183.385 -0.944518 1.69684 0
M  V30 1919 O 182.66 -1.66737 1.00145 0
M  V30 1920 C 182.943 0.779085 3.51571 0
M  V30 1921 C 182.796 2.27807 3.87846 0
M  V30 1922 C 184.115 0.255452 4.39358 0
M  V30 1923 H 181.234 0.184533 0.713524 0
M  V30 1924 H 183.876 1.10872 1.54297 0
M  V30 1925 H 182.026 0.264274 3.876 0
M  V30 1926 H 183.698 2.86127 3.61841 0
M  V30 1927 H 181.941 2.74479 3.35922 0
M  V30 1928 H 182.612 2.42125 4.96064 0
M  V30 1929 H 185.088 0.696079 4.10236 0
M  V30 1930 H 183.964 0.477361 5.4682 0
M  V30 1931 H 184.225 -0.843293 4.33983 0
M  V30 1932 N 183.284 -1.43765 0.645699 0
M  V30 1933 C 184.532 -2.01499 0.155731 0
M  V30 1934 C 184.853 -1.51151 -1.232 0
M  V30 1935 O 184.123 -0.721044 -1.82148 0
M  V30 1936 H 182.703 -0.745003 0.0545817 0
M  V30 1937 H 185.365 -1.76075 0.835677 0
M  V30 1938 H 184.461 -3.1181 0.134577 0
M  V30 1939 N 184.763 -0.387143 -1.52771 0
M  V30 1940 C 186.04 0.253197 -1.93954 0
M  V30 1941 C 186.42 1.64545 -1.32243 0
M  V30 1942 O 185.768 2.23191 -0.489699 0
M  V30 1943 C 185.978 0.281722 -3.47861 0
M  V30 1944 C 187.326 0.511715 -4.21505 0
M  V30 1945 O 188.35 0.362023 -3.54356 0
M  V30 1946 O 187.209 0.804847 -5.40541 0
M  V30 1947 H 184.303 0.156845 -0.811991 0
M  V30 1948 H 186.849 -0.441494 -1.63856 0
M  V30 1949 H 185.621 -0.693571 -3.85104 0
M  V30 1950 H 185.244 1.02142 -3.84256 0
M  V30 1951 N 186.241 1.57166 -0.116904 0
M  V30 1952 C 187.488 1.95123 0.541603 0
M  V30 1953 C 187.816 1.00006 1.6682 0
M  V30 1954 O 187.071 0.0235658 1.95686 0
M  V30 1955 C 187.37 3.39508 1.11664 0
M  V30 1956 C 187.036 4.50762 0.111606 0
M  V30 1957 C 185.698 4.80918 -0.164758 0
M  V30 1958 C 188.05 5.18036 -0.573438 0
M  V30 1959 C 185.378 5.75666 -1.13249 0
M  V30 1960 C 187.73 6.13824 -1.52978 0
M  V30 1961 C 186.394 6.42374 -1.81415 0
M  V30 1962 H 185.664 0.714005 0.198187 0
M  V30 1963 H 188.311 1.9048 -0.197365 0
M  V30 1964 H 186.616 3.40835 1.93232 0
M  V30 1965 H 188.313 3.66189 1.63422 0
M  V30 1966 H 184.903 4.27272 0.337192 0
M  V30 1967 H 189.087 4.94896 -0.373092 0
M  V30 1968 H 184.343 5.96092 -1.35958 0
M  V30 1969 H 188.517 6.65039 -2.06629 0
M  V30 1970 H 186.144 7.15599 -2.56557 0
M  V30 1971 N 187.719 -0.156864 1.56817 0
M  V30 1972 C 188.669 -1.19891 1.93934 0
M  V30 1973 C 189.653 -1.39061 0.809372 0
M  V30 1974 O 190.845 -1.40789 1.07273 0
M  V30 1975 C 187.974 -2.53493 2.31508 0
M  V30 1976 C 187.06 -2.37957 3.51052 0
M  V30 1977 N 187.451 -1.92158 4.67877 0
M  V30 1978 C 185.749 -2.68739 3.55943 0
M  V30 1979 C 186.45 -1.8943 5.49992 0
M  V30 1980 N 185.426 -2.32375 4.91429 0
M  V30 1981 H 189.228 -0.836746 2.81737 0
M  V30 1982 H 186.742 -0.365012 1.58245 0
M  V30 1983 H 188.739 -3.28811 2.56299 0
M  V30 1984 H 187.399 -2.905 1.45051 0
M  V30 1985 H 188.41 -1.62274 4.91821 0
M  V30 1986 H 185.087 -3.09687 2.80001 0
M  V30 1987 H 186.477 -1.55596 6.53636 0
M  V30 1988 N 189.197 -1.51736 -0.425897 0
M  V30 1989 C 190.427 -1.68549 -1.19476 0
M  V30 1990 C 190.835 -0.387288 -1.85194 0
M  V30 1991 O 190.178 0.645142 -1.71999 0
M  V30 1992 C 190.24 -2.75275 -2.31223 0
M  V30 1993 C 189.904 -4.17534 -1.8578 0
M  V30 1994 C 190.901 -5.01936 -1.35485 0
M  V30 1995 C 188.586 -4.6369 -1.93123 0
M  V30 1996 C 190.58 -6.30559 -0.931347 0
M  V30 1997 C 188.267 -5.92307 -1.50384 0
M  V30 1998 C 189.265 -6.75569 -1.00473 0
M  V30 1999 O 188.953 -8.0178 -0.583452 0
M  V30 2000 H 188.685 -0.568525 -0.365725 0
M  V30 2001 H 191.239 -1.98982 -0.509444 0
M  V30 2002 H 189.469 -2.40182 -3.03067 0
M  V30 2003 H 191.158 -2.80853 -2.93047 0
M  V30 2004 H 191.924 -4.67475 -1.29197 0
M  V30 2005 H 187.803 -3.98997 -2.30916 0
M  V30 2006 H 191.347 -6.95498 -0.541084 0
M  V30 2007 H 187.244 -6.2628 -1.56346 0
M  V30 2008 H 188.012 -8.1543 -0.708275 0
M  V30 2009 N 190.675 0.682077 -1.42076 0
M  V30 2010 C 191.921 1.44428 -1.42367 0
M  V30 2011 C 192.254 1.94164 -0.0373056 0
M  V30 2012 O 191.529 1.70429 0.937239 0
M  V30 2013 C 191.812 2.64654 -2.44194 0
M  V30 2014 C 191.665 2.20596 -3.91991 0
M  V30 2015 C 192.984 3.66865 -2.431 0
M  V30 2016 H 190.103 0.523834 -0.518428 0
M  V30 2017 H 192.745 0.77576 -1.73442 0
M  V30 2018 H 190.895 3.2169 -2.17826 0
M  V30 2019 H 192.567 1.68783 -4.29313 0
M  V30 2020 H 190.81 1.52242 -4.06208 0
M  V30 2021 H 191.481 3.06921 -4.58807 0
M  V30 2022 H 193.957 3.19531 -2.66532 0
M  V30 2023 H 192.833 4.48577 -3.16339 0
M  V30 2024 H 193.094 4.17493 -1.45437 0
M  V30 2025 N 192.153 1.28127 0.917671 0
M  V30 2026 C 193.381 1.17892 1.70026 0
M  V30 2027 C 193.796 -0.262958 1.8696 0
M  V30 2028 O 193.153 -1.17811 1.3938 0
M  V30 2029 C 193.204 1.86872 3.09453 0
M  V30 2030 O 192.925 3.25428 2.93306 0
M  V30 2031 C 194.426 1.8289 4.03815 0
M  V30 2032 H 191.646 0.40942 0.531617 0
M  V30 2033 H 194.19 1.69181 1.14883 0
M  V30 2034 H 192.345 1.39464 3.61426 0
M  V30 2035 H 192.759 3.59918 3.81523 0
M  V30 2036 H 194.233 2.35751 4.99125 0
M  V30 2037 H 194.71 0.800412 4.31845 0
M  V30 2038 H 195.316 2.29959 3.57769 0
M  V30 2039 N 193.631 -1.12557 1.10312 0
M  V30 2040 C 194.879 -1.83675 0.843091 0
M  V30 2041 C 195.2 -1.84435 -0.633131 0
M  V30 2042 O 194.47 -1.30657 -1.45964 0
M  V30 2043 H 193.05 -0.680138 0.308904 0
M  V30 2044 H 195.712 -1.36301 1.39313 0
M  V30 2045 H 194.808 -2.87908 1.2048 0
M  V30 2046 N 195.109 -0.891671 -1.2995 0
M  V30 2047 C 196.042 -0.307994 -2.26112 0
M  V30 2048 C 197.02 0.575262 -1.52084 0
M  V30 2049 O 198.204 0.523864 -1.81074 0
M  V30 2050 C 195.331 0.561734 -3.34009 0
M  V30 2051 C 194.377 -0.253107 -4.25748 0
M  V30 2052 S 195.21 -1.64572 -5.09584 0
M  V30 2053 C 196.366 -0.782699 -6.20987 0
M  V30 2054 H 196.599 -1.12309 -2.75271 0
M  V30 2055 H 194.132 -0.691509 -1.38049 0
M  V30 2056 H 196.09 1.05777 -3.96638 0
M  V30 2057 H 194.751 1.35099 -2.83561 0
M  V30 2058 H 193.944 0.410908 -5.02322 0
M  V30 2059 H 193.546 -0.682004 -3.67729 0
M  V30 2060 H 195.838 -0.00257476 -6.775 0
M  V30 2061 H 196.781 -1.52026 -6.91588 0
M  V30 2062 H 197.189 -0.340638 -5.63471 0
M  V30 2063 N 196.587 1.43421 -0.653314 0
M  V30 2064 C 197.815 2.06163 -0.174491 0
M  V30 2065 C 198.23 1.48969 1.1599 0
M  V30 2066 O 197.587 0.621042 1.71608 0
M  V30 2067 C 197.638 3.61417 -0.0774865 0
M  V30 2068 O 197.359 4.16485 -1.35912 0
M  V30 2069 C 198.86 4.41235 0.427402 0
M  V30 2070 H 196.08 0.664946 -0.0899353 0
M  V30 2071 H 198.624 1.83924 -0.893988 0
M  V30 2072 H 196.779 3.82841 0.59257 0
M  V30 2073 H 197.193 5.10153 -1.21839 0
M  V30 2074 H 198.667 5.5021 0.44423 0
M  V30 2075 H 199.144 4.14268 1.45873 0
M  V30 2076 H 199.75 4.2478 -0.210167 0
M  V30 2077 N 198.065 0.39524 1.52563 0
M  V30 2078 C 199.293 -0.184943 2.06072 0
M  V30 2079 C 199.708 -1.40021 1.26647 0
M  V30 2080 O 199.065 -1.79767 0.314672 0
M  V30 2081 C 199.116 -0.549179 3.57304 0
M  V30 2082 O 198.837 0.617813 4.33722 0
M  V30 2083 C 200.338 -1.18459 4.2718 0
M  V30 2084 H 197.558 -0.0265025 0.670476 0
M  V30 2085 H 200.102 0.562184 1.96621 0
M  V30 2086 H 198.257 -1.2462 3.66809 0
M  V30 2087 H 198.671 0.317091 5.23541 0
M  V30 2088 H 200.145 -1.38976 5.34219 0
M  V30 2089 H 200.622 -2.15368 3.82771 0
M  V30 2090 H 201.228 -0.528163 4.22008 0
M  V30 2091 N 199.544 -1.57102 0.125237 0
M  V30 2092 C 200.821 -1.86953 -0.575142 0
M  V30 2093 C 201.201 -1.02749 -1.84407 0
M  V30 2094 O 200.549 -0.108144 -2.28244 0
M  V30 2095 C 200.759 -3.38198 -0.861583 0
M  V30 2096 C 202.107 -4.06937 -1.21192 0
M  V30 2097 O 203.131 -3.43252 -0.951645 0
M  V30 2098 O 201.99 -5.19364 -1.70068 0
M  V30 2099 H 199.084 -0.774147 -0.290906 0
M  V30 2100 H 201.63 -1.68942 0.160211 0
M  V30 2101 H 200.402 -3.91282 0.0373647 0
M  V30 2102 H 200.025 -3.61661 -1.65188 0
M  V30 2103 N 201.022 0.148545 -1.56898 0
M  V30 2104 C 201.97 1.20265 -1.99096 0
M  V30 2105 C 202.964 1.44559 -0.883123 0
M  V30 2106 O 204.17 1.4487 -1.0683 0
M  V30 2107 H 200.545 0.404786 -0.63376 0
M  V30 2108 H 202.516 0.82004 -2.86911 0
M  V30 2109 C 201.265 2.52886 -2.3863 0
M  V30 2110 H 200.588 2.35021 -3.23427 0
M  V30 2111 H 202.028 3.25274 -2.7198 0
M  V30 2112 C 200.487 3.13315 -1.23837 0
M  V30 2113 O 201.017 3.98077 -0.538268 0
M  V30 2114 N 199.223 2.72742 -1.00301 0
M  V30 2115 H 198.77 2.03912 -1.5741 0
M  V30 2116 H 198.728 3.13507 -0.236838 0
M  V30 2117 N 202.5 1.5196 0.417844 0
M  V30 2118 C 203.746 1.65836 1.16732 0
M  V30 2119 C 204.079 0.382881 1.90388 0
M  V30 2120 O 203.354 -0.618368 1.84408 0
M  V30 2121 C 203.637 2.87466 2.16876 0
M  V30 2122 C 203.49 4.25041 1.47174 0
M  V30 2123 C 204.809 3.04613 3.17646 0
M  V30 2124 H 201.928 0.603515 0.423011 0
M  V30 2125 H 204.57 1.84494 0.454105 0
M  V30 2126 H 202.72 2.71689 2.777 0
M  V30 2127 H 204.392 4.52527 0.895376 0
M  V30 2128 H 202.635 4.26843 0.773806 0
M  V30 2129 H 203.306 5.06176 2.20204 0
M  V30 2130 H 205.782 3.1923 2.66892 0
M  V30 2131 H 204.658 3.91247 3.8499 0
M  V30 2132 H 204.919 2.17541 3.84874 0
M  V30 2133 N 203.978 -0.674533 1.42435 0
M  V30 2134 C 204.925 -1.78807 1.45934 0
M  V30 2135 C 205.895 -1.63157 0.311271 0
M  V30 2136 O 207.08 -1.83707 0.515383 0
M  V30 2137 C 204.22 -3.16839 1.36773 0
M  V30 2138 C 203.333 -3.43774 2.61617 0
M  V30 2139 C 202.468 -4.71536 2.44597 0
M  V30 2140 C 201.507 -4.91505 3.64814 0
M  V30 2141 N 200.644 -6.10508 3.46734 0
M  V30 2142 H 205.484 -1.75151 2.41093 0
M  V30 2143 H 203.021 -0.85504 1.19697 0
M  V30 2144 H 204.979 -3.96606 1.29459 0
M  V30 2145 H 203.609 -3.19619 0.452089 0
M  V30 2146 H 202.661 -2.58259 2.79297 0
M  V30 2147 H 203.973 -3.54423 3.50978 0
M  V30 2148 H 203.127 -5.59393 2.3487 0
M  V30 2149 H 201.866 -4.6317 1.52726 0
M  V30 2150 H 200.871 -4.0209 3.74972 0
M  V30 2151 H 202.096 -5.01716 4.57665 0
M  V30 2152 H 200.042 -6.03315 2.5758 0
M  V30 2153 H 199.959 -6.2202 4.29682 0
M  V30 2154 H 201.227 -7.01044 3.40819 0
M  V30 2155 N 205.456 -1.28612 -0.910864 0
M  V30 2156 C 206.696 -1.1719 -1.67469 0
M  V30 2157 C 207.06 0.274441 -1.90028 0
M  V30 2158 O 208.261 0.511425 -2.6389 0
M  V30 2159 C 206.532 -1.95137 -2.99427 0
M  V30 2160 S 208.091 -2.00122 -3.90508 0
M  V30 2161 H 204.909 -0.41806 -0.575106 0
M  V30 2162 H 207.511 -1.6275 -1.08317 0
M  V30 2163 H 206.215 -2.99381 -2.80712 0
M  V30 2164 H 205.746 -1.50137 -3.63624 0
M  V30 2165 H 207.761 -1.10981 -4.8363 0
M  V30 2166 N 206.934 1.1197 -1.10907 0
M  V30 2167 C 208.345 1.65114 -0.871446 0
M  V30 2168 C 208.696 1.86885 0.597353 0
M  V30 2169 O 207.821 1.59896 1.45816 0
M  V30 2170 C 208.416 2.99944 -1.5754 0
M  V30 2171 C 206.975 3.50018 -1.38435 0
M  V30 2172 C 206.122 2.24941 -1.62164 0
M  V30 2173 H 209.073 0.956851 -1.2661 0
M  V30 2174 H 209.094 3.66651 -1.01721 0
M  V30 2175 H 208.606 2.84067 -2.64438 0
M  V30 2176 H 206.707 3.71071 -0.337214 0
M  V30 2177 H 206.82 4.29165 -2.12965 0
M  V30 2178 H 205.184 2.3229 -1.04467 0
M  V30 2179 H 205.967 2.11612 -2.70324 0
M  V30 2180 N 208.412 0.89855 1.29475 0
M  V30 2181 C 209.652 0.530771 1.97388 0
M  V30 2182 C 210.016 -0.905832 1.69289 0
M  V30 2183 O 211.217 -1.38042 2.30646 0
M  V30 2184 C 209.488 0.81369 3.48014 0
M  V30 2185 S 211.047 0.550048 4.35339 0
M  V30 2186 H 207.865 0.196956 0.683176 0
M  V30 2187 H 210.467 1.16074 1.57312 0
M  V30 2188 H 209.171 1.85749 3.65958 0
M  V30 2189 H 208.702 0.171795 3.93025 0
M  V30 2190 H 210.717 -0.605423 4.92493 0
M  V30 2191 N 209.89 -1.43072 0.660911 0
M  V30 2192 C 210.822 -2.29108 -0.0647641 0
M  V30 2193 C 211.835 -1.42928 -0.779448 0
M  V30 2194 O 213.024 -1.66788 -0.635921 0
M  V30 2195 C 210.124 -3.20032 -1.11503 0
M  V30 2196 C 209.297 -4.34792 -0.476955 0
M  V30 2197 C 208.356 -5.06534 -1.42513 0
M  V30 2198 O 207.382 -5.61538 -0.930771 0
M  V30 2199 N 208.584 -5.1075 -2.75889 0
M  V30 2200 H 211.349 -2.92029 0.673731 0
M  V30 2201 H 208.91 -1.53846 0.50427 0
M  V30 2202 H 210.902 -3.64892 -1.75032 0
M  V30 2203 H 209.472 -2.58658 -1.75541 0
M  V30 2204 H 208.692 -3.92752 0.337572 0
M  V30 2205 H 209.98 -5.0879 -0.0318525 0
M  V30 2206 H 209.378 -4.67447 -3.18606 0
M  V30 2207 H 207.935 -5.59302 -3.347 0
M  V30 2208 N 211.368 -0.403325 -1.52352 0
M  V30 2209 C 212.614 0.174605 -2.02047 0
M  V30 2210 C 212.947 1.45282 -1.28867 0
M  V30 2211 O 212.222 1.90483 -0.393257 0
M  V30 2212 C 212.505 0.428238 -3.57545 0
M  V30 2213 C 212.358 -0.866248 -4.4138 0
M  V30 2214 C 213.677 1.21287 -4.23057 0
M  V30 2215 H 210.796 0.0619851 -0.734389 0
M  V30 2216 H 213.438 -0.53565 -1.82293 0
M  V30 2217 H 211.588 1.03327 -3.74507 0
M  V30 2218 H 213.26 -1.50265 -4.3614 0
M  V30 2219 H 211.503 -1.47851 -4.07827 0
M  V30 2220 H 212.174 -0.643249 -5.48239 0
M  V30 2221 H 214.65 0.700703 -4.10158 0
M  V30 2222 H 213.526 1.35909 -5.31808 0
M  V30 2223 H 213.787 2.23193 -3.81625 0
M  V30 2224 N 212.846 1.57033 -0.133567 0
M  V30 2225 C 214.257 1.82593 0.389464 0
M  V30 2226 C 214.608 1.05156 1.6564 0
M  V30 2227 O 213.733 0.292644 2.14412 0
M  V30 2228 C 214.328 3.31204 0.713377 0
M  V30 2229 C 212.887 3.57393 1.18098 0
M  V30 2230 C 212.034 2.76598 0.197126 0
M  V30 2231 H 214.985 1.54598 -0.358481 0
M  V30 2232 H 215.006 3.46627 1.56939 0
M  V30 2233 H 214.518 3.87537 -0.2089 0
M  V30 2234 H 212.619 3.06433 2.11966 0
M  V30 2235 H 212.732 4.65915 1.11624 0
M  V30 2236 H 211.096 2.45257 0.687088 0
M  V30 2237 H 211.879 3.35697 -0.718504 0
M  V30 2238 N 214.325 -0.140222 1.56975 0
M  V30 2239 C 215.288 -1.15689 1.97861 0
M  V30 2240 C 216.288 -1.3549 0.865974 0
M  V30 2241 O 217.478 -1.32367 1.13246 0
M  V30 2242 C 214.61 -2.51582 2.30042 0
M  V30 2243 H 215.803 -0.805971 2.88867 0
M  V30 2244 H 213.356 -0.383801 1.51515 0
M  V30 2245 H 214.091 -2.91632 1.41849 0
M  V30 2246 H 213.876 -2.38569 3.11171 0
M  V30 2247 H 215.366 -3.24792 2.62488 0
M  V30 2248 N 215.803 -1.52179 -0.40978 0
M  V30 2249 C 217.214 -1.58377 -0.988615 0
M  V30 2250 C 217.565 -0.423879 -1.91566 0
M  V30 2251 O 216.69 0.455844 -2.11544 0
M  V30 2252 C 217.285 -2.87044 -1.79976 0
M  V30 2253 C 215.844 -2.95722 -2.32863 0
M  V30 2254 C 214.991 -2.53309 -1.12828 0
M  V30 2255 H 217.942 -1.57558 -0.190039 0
M  V30 2256 H 217.963 -2.7236 -2.65707 0
M  V30 2257 H 217.475 -3.71444 -1.12478 0
M  V30 2258 H 215.576 -2.15814 -3.03735 0
M  V30 2259 H 215.689 -3.99951 -2.63773 0
M  V30 2260 H 214.053 -2.07142 -1.48204 0
M  V30 2261 H 214.836 -3.40082 -0.46897 0
M  V30 2262 N 217.281 0.66697 -1.42791 0
M  V30 2263 C 218.191 1.80962 -1.49299 0
M  V30 2264 C 219.207 1.69775 -0.381108 0
M  V30 2265 O 220.383 1.91188 -0.633188 0
M  V30 2266 C 217.448 3.17156 -1.40045 0
M  V30 2267 C 216.509 3.40242 -2.6179 0
M  V30 2268 C 215.742 4.69939 -2.52969 0
M  V30 2269 O 215.965 5.48372 -1.56985 0
M  V30 2270 O 214.899 4.94441 -3.43237 0
M  V30 2271 H 218.725 1.78427 -2.45759 0
M  V30 2272 H 216.31 0.823713 -1.24641 0
M  V30 2273 H 218.192 3.98413 -1.37276 0
M  V30 2274 H 216.867 3.20312 -0.467138 0
M  V30 2275 H 215.774 2.58802 -2.70134 0
M  V30 2276 H 217.107 3.41923 -3.54047 0
M  V30 2277 N 218.759 1.29093 0.90403 0
M  V30 2278 C 220.006 1.16813 1.65411 0
M  V30 2279 C 220.334 -0.28128 1.92455 0
M  V30 2280 O 219.589 -1.22006 1.53013 0
M  V30 2281 C 219.888 1.92224 3.01305 0
M  V30 2282 C 219.554 3.41968 2.93885 0
M  V30 2283 C 218.216 3.82807 2.91569 0
M  V30 2284 C 220.568 4.37409 2.83413 0
M  V30 2285 C 217.896 5.1741 2.76594 0
M  V30 2286 C 220.248 5.72097 2.69977 0
M  V30 2287 C 218.912 6.12199 2.66024 0
M  V30 2288 H 218.182 0.42745 0.605283 0
M  V30 2289 H 220.829 1.59981 1.05254 0
M  V30 2290 H 219.134 1.41635 3.65304 0
M  V30 2291 H 220.831 1.80131 3.58265 0
M  V30 2292 H 217.421 3.09504 2.96488 0
M  V30 2293 H 221.605 4.06813 2.84283 0
M  V30 2294 H 216.861 5.47596 2.71935 0
M  V30 2295 H 221.035 6.45704 2.60844 0
M  V30 2296 H 218.662 7.16448 2.54178 0
M  V30 2297 N 220.237 -1.11381 1.11499 0
M  V30 2298 C 221.484 -1.83132 0.864231 0
M  V30 2299 C 221.812 -1.84683 -0.610114 0
M  V30 2300 O 221.067 -1.29589 -1.46646 0
M  V30 2301 C 221.366 -3.30026 1.37177 0
M  V30 2302 C 221.032 -3.48634 2.85946 0
M  V30 2303 C 219.694 -3.53421 3.26569 0
M  V30 2304 C 222.046 -3.54837 3.81759 0
M  V30 2305 C 219.374 -3.61967 4.61733 0
M  V30 2306 C 221.726 -3.64915 5.1674 0
M  V30 2307 C 220.39 -3.67962 5.5692 0
M  V30 2308 H 219.66 -0.670127 0.316245 0
M  V30 2309 H 222.307 -1.31354 1.3935 0
M  V30 2310 H 220.612 -3.84304 0.762753 0
M  V30 2311 H 222.309 -3.84034 1.15408 0
M  V30 2312 H 218.899 -3.45579 2.53521 0
M  V30 2313 H 223.083 -3.50399 3.51474 0
M  V30 2314 H 218.339 -3.62603 4.92269 0
M  V30 2315 H 222.513 -3.68658 5.90816 0
M  V30 2316 H 220.14 -3.74336 6.61647 0
M  V30 2317 N 221.715 -0.905404 -1.28997 0
M  V30 2318 C 222.943 -0.549846 -1.9946 0
M  V30 2319 C 223.358 0.866834 -1.67724 0
M  V30 2320 O 222.715 1.57298 -0.925404 0
M  V30 2321 C 222.766 -0.739387 -3.53858 0
M  V30 2322 O 222.487 -2.10031 -3.84472 0
M  V30 2323 C 223.988 -0.389541 -4.41585 0
M  V30 2324 H 221.208 -0.210429 -0.637151 0
M  V30 2325 H 223.752 -1.21632 -1.64396 0
M  V30 2326 H 221.907 -0.120023 -3.87214 0
M  V30 2327 H 222.321 -2.13385 -4.79132 0
M  V30 2328 H 223.795 -0.572972 -5.49018 0
M  V30 2329 H 224.272 0.673756 -4.34001 0
M  V30 2330 H 224.878 -0.986089 -4.1371 0
M  V30 2331 N 223.193 1.4272 -0.668489 0
M  V30 2332 C 224.103 2.34596 0.0139753 0
M  V30 2333 C 225.119 1.5474 0.795703 0
M  V30 2334 O 226.295 1.87334 0.739466 0
M  V30 2335 C 223.36 3.33202 0.957982 0
M  V30 2336 C 222.421 4.28957 0.17149 0
M  V30 2337 C 221.654 5.22853 1.07053 0
M  V30 2338 O 221.877 5.21531 2.31001 0
M  V30 2339 O 220.811 5.9952 0.534727 0
M  V30 2340 H 224.637 2.9448 -0.742661 0
M  V30 2341 H 222.222 1.43117 -0.428705 0
M  V30 2342 H 224.104 3.93796 1.50008 0
M  V30 2343 H 222.779 2.758 1.69458 0
M  V30 2344 H 221.686 3.71796 -0.414558 0
M  V30 2345 H 223.019 4.89383 -0.52586 0
M  V30 2346 N 224.671 0.411399 1.52136 0
M  V30 2347 C 225.917 -0.163888 2.02137 0
M  V30 2348 C 226.25 -1.44597 1.29636 0
M  V30 2349 O 225.525 -1.90272 0.403353 0
M  V30 2350 C 225.808 -0.40927 3.57767 0
M  V30 2351 C 225.661 0.889643 4.40914 0
M  V30 2352 C 226.98 -1.19042 4.23694 0
M  V30 2353 H 224.099 -0.0580896 0.734707 0
M  V30 2354 H 226.741 0.54531 1.82007 0
M  V30 2355 H 224.891 -1.0134 3.7505 0
M  V30 2356 H 226.563 1.52575 4.35337 0
M  V30 2357 H 224.806 1.50011 4.07037 0
M  V30 2358 H 225.477 0.672314 5.4789 0
M  V30 2359 H 227.953 -0.678942 4.10524 0
M  V30 2360 H 226.829 -1.33086 5.32522 0
M  V30 2361 H 227.09 -2.21166 3.82803 0
M  V30 2362 N 226.149 -1.5696 0.141893 0
M  V30 2363 C 227.426 -1.87553 -0.555281 0
M  V30 2364 C 227.806 -1.04699 -1.83306 0
M  V30 2365 O 227.154 -0.132346 -2.28116 0
M  V30 2366 C 227.364 -3.39093 -0.825664 0
M  V30 2367 C 228.712 -4.08199 -1.16869 0
M  V30 2368 O 229.736 -3.44242 -0.915185 0
M  V30 2369 O 228.595 -5.21139 -1.6455 0
M  V30 2370 H 225.689 -0.777188 -0.282679 0
M  V30 2371 H 228.235 -1.68763 0.17812 0
M  V30 2372 H 227.007 -3.91221 0.0788633 0
M  V30 2373 H 226.63 -3.63393 -1.61343 0
M  V30 2374 N 227.627 0.131896 -1.57047 0
M  V30 2375 C 228.875 0.840269 -1.83804 0
M  V30 2376 C 229.196 1.81017 -0.72512 0
M  V30 2377 O 228.466 1.94272 0.251995 0
M  V30 2378 H 227.046 0.313294 -0.678127 0
M  V30 2379 H 229.708 0.122294 -1.94516 0
M  V30 2380 H 228.804 1.39335 -2.79271 0
M  V30 2381 N 229.106 1.52395 0.401703 0
M  V30 2382 C 230.352 1.67065 1.14966 0
M  V30 2383 C 230.685 0.403052 1.89971 0
M  V30 2384 O 229.96 -0.598774 1.85054 0
M  V30 2385 C 230.243 2.8975 2.13815 0
M  V30 2386 C 230.096 4.26578 1.42658 0
M  V30 2387 C 231.415 3.07965 3.14397 0
M  V30 2388 H 228.534 0.607968 0.416587 0
M  V30 2389 H 231.176 1.84965 0.434511 0
M  V30 2390 H 229.326 2.74619 2.74803 0
M  V30 2391 H 230.998 4.53451 0.847329 0
M  V30 2392 H 229.241 4.27639 0.72849 0
M  V30 2393 H 229.912 5.08483 2.14823 0
M  V30 2394 H 232.388 3.22043 2.63491 0
M  V30 2395 H 231.264 3.95308 3.80819 0
M  V30 2396 H 231.525 2.21611 3.82545 0
M  V30 2397 N 230.584 -0.659388 1.43143 0
M  V30 2398 C 232 -0.974337 1.26407 0
M  V30 2399 C 232.2 -2.007 0.179341 0
M  V30 2400 O 231.256 -2.4856 -0.444295 0
M  V30 2401 C 232.569 -1.46447 2.62628 0
M  V30 2402 C 234.117 -1.58144 2.7011 0
M  V30 2403 C 234.592 -2.1055 4.06734 0
M  V30 2404 N 236.083 -2.17861 4.08767 0
M  V30 2405 C 236.818 -2.59519 5.1131 0
M  V30 2406 N 236.314 -3.00518 6.24228 0
M  V30 2407 N 238.107 -2.59404 4.98664 0
M  V30 2408 H 230.258 0.0240528 2.12386 0
M  V30 2409 H 232.521 -0.0518065 0.946583 0
M  V30 2410 H 232.227 -0.780123 3.42939 0
M  V30 2411 H 232.101 -2.44058 2.87603 0
M  V30 2412 H 234.488 -2.25682 1.90136 0
M  V30 2413 H 234.569 -0.589828 2.48907 0
M  V30 2414 H 234.213 -1.43616 4.87172 0
M  V30 2415 H 234.143 -3.10531 4.25298 0
M  V30 2416 H 236.634 -1.88975 3.27257 0
M  V30 2417 H 236.947 -3.31036 6.98309 0
M  V30 2418 H 235.292 -2.98337 6.2771 0
M  V30 2419 H 238.483 -2.26747 4.09516 0
M  V30 2420 H 238.656 -2.91548 5.78709 0
M  V30 2421 N 232.062 -1.29571 -0.897171 0
M  V30 2422 C 232.992 -1.17473 -2.01798 0
M  V30 2423 C 233.973 -0.068323 -1.69963 0
M  V30 2424 O 235.158 -0.248239 -1.92607 0
M  V30 2425 C 232.288 -0.853099 -3.36659 0
M  V30 2426 C 231.242 -1.9161 -3.82713 0
M  V30 2427 C 230.568 -1.44773 -5.14728 0
M  V30 2428 C 231.868 -3.32535 -4.02763 0
M  V30 2429 H 233.562 -2.11237 -2.12177 0
M  V30 2430 H 231.108 -1.01699 -1.01948 0
M  V30 2431 H 233.061 -0.755165 -4.14578 0
M  V30 2432 H 231.785 0.120236 -3.26379 0
M  V30 2433 H 230.444 -2.00346 -3.07013 0
M  V30 2434 H 230.092 -0.462995 -5.00865 0
M  V30 2435 H 229.792 -2.15865 -5.46513 0
M  V30 2436 H 231.316 -1.36334 -5.95185 0
M  V30 2437 H 232.73 -3.26626 -4.71156 0
M  V30 2438 H 231.127 -4.01607 -4.45905 0
M  V30 2439 H 232.197 -3.75326 -3.07016 0
M  V30 2440 N 233.54 1.10788 -1.12088 0
M  V30 2441 C 234.49 2.15158 -0.754401 0
M  V30 2442 C 235.474 1.59026 0.244846 0
M  V30 2443 O 236.666 1.76927 0.0509097 0
M  V30 2444 C 233.795 3.42677 -0.206657 0
M  V30 2445 C 232.881 4.05751 -1.23398 0
M  V30 2446 N 233.272 4.43582 -2.43041 0
M  V30 2447 C 231.57 4.32764 -1.07848 0
M  V30 2448 C 232.271 4.93085 -3.08613 0
M  V30 2449 N 231.247 4.89664 -2.36072 0
M  V30 2450 H 235.049 2.42195 -1.6649 0
M  V30 2451 H 232.563 1.27872 -1.00112 0
M  V30 2452 H 234.56 4.16834 0.0740646 0
M  V30 2453 H 233.22 3.17101 0.698342 0
M  V30 2454 H 234.231 4.35395 -2.80449 0
M  V30 2455 H 230.908 4.16863 -0.230483 0
M  V30 2456 H 232.298 5.31933 -4.10483 0
M  V30 2457 N 235.018 0.912232 1.28515 0
M  V30 2458 C 236.434 0.610159 1.47476 0
M  V30 2459 C 236.634 -0.844955 1.82928 0
M  V30 2460 O 235.69 -1.62416 1.93332 0
M  V30 2461 C 237.003 1.54675 2.57868 0
M  V30 2462 C 238.551 1.55331 2.71738 0
M  V30 2463 C 239.026 2.47649 3.85272 0
M  V30 2464 N 240.517 2.45767 3.92623 0
M  V30 2465 C 241.252 3.13896 4.79851 0
M  V30 2466 N 240.748 3.9135 5.71679 0
M  V30 2467 N 242.541 3.02991 4.73448 0
M  V30 2468 H 234.692 1.85318 1.03783 0
M  V30 2469 H 236.955 0.794777 0.516753 0
M  V30 2470 H 236.661 2.5841 2.38574 0
M  V30 2471 H 236.535 1.27671 3.54937 0
M  V30 2472 H 238.922 0.52335 2.90422 0
M  V30 2473 H 239.003 1.86378 1.75205 0
M  V30 2474 H 238.647 3.50745 3.67342 0
M  V30 2475 H 238.577 2.13904 4.81199 0
M  V30 2476 H 241.068 1.89503 3.26951 0
M  V30 2477 H 241.381 4.40359 6.35062 0
M  V30 2478 H 239.726 3.95455 5.71524 0
M  V30 2479 H 242.917 2.41987 4.007 0
M  V30 2480 H 243.09 3.5636 5.41213 0
M  V30 2481 N 236.496 -1.42363 0.676048 0
M  V30 2482 C 237.726 -2.05561 0.206967 0
M  V30 2483 C 238.134 -1.50887 -1.14148 0
M  V30 2484 O 237.477 -0.643933 -1.72044 0
M  V30 2485 C 237.539 -3.5944 0.0659508 0
M  V30 2486 C 237.203 -4.36812 1.34331 0
M  V30 2487 C 238.2 -4.67383 2.27704 0
M  V30 2488 C 235.885 -4.76429 1.59125 0
M  V30 2489 C 237.879 -5.36509 3.44147 0
M  V30 2490 C 235.566 -5.45294 2.75857 0
M  V30 2491 C 236.564 -5.75259 3.68193 0
M  V30 2492 O 236.252 -6.42712 4.82883 0
M  V30 2493 H 235.984 -0.668872 0.0979084 0
M  V30 2494 H 238.538 -1.83467 0.923531 0
M  V30 2495 H 236.768 -3.80197 -0.706204 0
M  V30 2496 H 238.457 -4.0427 -0.363418 0
M  V30 2497 H 239.223 -4.37275 2.09799 0
M  V30 2498 H 235.102 -4.52498 0.881258 0
M  V30 2499 H 238.646 -5.59814 4.16238 0
M  V30 2500 H 234.543 -5.7482 2.93688 0
M  V30 2501 H 235.311 -6.61204 4.82444 0
M  V30 2502 N 237.974 -0.419461 -1.51915 0
M  V30 2503 C 238.937 0.389116 -2.25873 0
M  V30 2504 C 239.937 0.964924 -1.28631 0
M  V30 2505 O 241.127 0.842179 -1.52489 0
M  V30 2506 C 238.259 1.54874 -3.03689 0
M  V30 2507 H 239.452 -0.258799 -2.98781 0
M  V30 2508 H 237.005 -0.172209 -1.55348 0
M  V30 2509 H 237.74 2.23323 -2.35154 0
M  V30 2510 H 237.525 1.14223 -3.75094 0
M  V30 2511 H 239.015 2.12046 -3.59759 0
M  V30 2512 N 239.452 1.56882 -0.150215 0
M  V30 2513 C 240.863 1.82995 0.370076 0
M  V30 2514 C 241.214 1.06907 1.64515 0
M  V30 2515 O 240.339 0.315369 2.1409 0
M  V30 2516 C 240.934 3.31942 0.678208 0
M  V30 2517 C 239.493 3.58625 1.14301 0
M  V30 2518 C 238.64 2.76792 0.167778 0
M  V30 2519 H 241.591 1.54209 -0.374858 0
M  V30 2520 H 241.612 3.48272 1.53254 0
M  V30 2521 H 241.124 3.87294 -0.249991 0
M  V30 2522 H 239.225 3.08664 2.08704 0
M  V30 2523 H 239.338 4.67073 1.06676 0
M  V30 2524 H 237.702 2.45972 0.661037 0
M  V30 2525 H 238.485 3.34916 -0.754069 0
M  V30 2526 N 240.93 -0.123565 1.57115 0
M  V30 2527 C 241.893 -1.13583 1.99076 0
M  V30 2528 C 242.893 -1.34564 0.880296 0
M  V30 2529 O 244.083 -1.31158 1.14644 0
M  V30 2530 C 241.215 -2.49128 2.32698 0
M  V30 2531 H 242.408 -0.775287 2.89706 0
M  V30 2532 H 239.961 -0.36771 1.51913 0
M  V30 2533 H 240.696 -2.90111 1.44934 0
M  V30 2534 H 240.481 -2.35255 3.13684 0
M  V30 2535 H 241.971 -3.2199 2.65918 0
M  V30 2536 N 242.408 -1.52605 -0.393616 0
M  V30 2537 C 243.648 -1.6911 -1.1481 0
M  V30 2538 C 244.012 -0.41969 -1.87357 0
M  V30 2539 O 245.213 -0.461034 -2.64817 0
M  V30 2540 C 243.484 -2.88909 -2.10395 0
M  V30 2541 S 245.043 -3.25977 -2.93742 0
M  V30 2542 H 241.861 -0.595337 -0.38871 0
M  V30 2543 H 244.463 -1.90641 -0.433178 0
M  V30 2544 H 243.167 -3.79672 -1.55812 0
M  V30 2545 H 242.698 -2.69698 -2.86403 0
M  V30 2546 H 244.713 -2.75806 -4.12487 0
M  V30 2547 N 243.887 0.651787 -1.4349 0
M  V30 2548 C 244.834 1.76462 -1.4876 0
M  V30 2549 C 245.804 1.62641 -0.337189 0
M  V30 2550 O 246.989 1.82864 -0.544544 0
M  V30 2551 C 244.129 3.14623 -1.41796 0
M  V30 2552 C 243.242 3.39568 -2.67053 0
M  V30 2553 C 242.377 4.67585 -2.52068 0
M  V30 2554 C 241.416 4.85639 -3.72587 0
M  V30 2555 N 240.553 6.04915 -3.56402 0
M  V30 2556 H 245.393 1.71293 -2.43849 0
M  V30 2557 H 242.93 0.835889 -1.21043 0
M  V30 2558 H 244.888 3.94496 -1.35753 0
M  V30 2559 H 243.518 3.18859 -0.50288 0
M  V30 2560 H 242.57 2.53783 -2.8337 0
M  V30 2561 H 243.882 3.48795 -3.56572 0
M  V30 2562 H 243.036 5.55586 -2.4374 0
M  V30 2563 H 241.775 4.60681 -1.60075 0
M  V30 2564 H 240.78 3.96073 -3.81321 0
M  V30 2565 H 242.005 4.94372 -4.65589 0
M  V30 2566 H 239.951 5.9914 -2.67146 0
M  V30 2567 H 239.868 6.15106 -4.39524 0
M  V30 2568 H 241.136 6.95533 -3.51929 0
M  V30 2569 N 245.365 1.30045 0.890287 0
M  V30 2570 C 246.776 1.16738 1.45702 0
M  V30 2571 C 247.127 -0.233939 1.948 0
M  V30 2572 O 246.252 -1.13021 1.84541 0
M  V30 2573 C 246.847 2.11313 2.64825 0
M  V30 2574 C 245.406 2.02001 3.17604 0
M  V30 2575 C 244.553 2.01699 1.90296 0
M  V30 2576 H 247.504 1.42392 0.700726 0
M  V30 2577 H 247.525 1.69086 3.40867 0
M  V30 2578 H 247.037 3.13294 2.2906 0
M  V30 2579 H 245.138 1.03142 3.5804 0
M  V30 2580 H 245.251 2.90128 3.81264 0
M  V30 2581 H 243.615 1.46427 2.08402 0
M  V30 2582 H 244.398 3.05402 1.56795 0
M  V30 2583 N 246.843 -1.10192 1.12674 0
M  V30 2584 C 247.773 -2.18652 0.819362 0
M  V30 2585 C 248.754 -1.68698 -0.217915 0
M  V30 2586 O 249.939 -1.94041 -0.0785581 0
M  V30 2587 C 247.069 -3.46202 0.27594 0
M  V30 2588 C 246.023 -4.09444 1.24656 0
M  V30 2589 C 245.349 -5.31725 0.563258 0
M  V30 2590 C 246.649 -4.52863 2.60217 0
M  V30 2591 H 248.343 -2.44622 1.72628 0
M  V30 2592 H 245.889 -1.17571 0.831451 0
M  V30 2593 H 247.842 -4.21372 0.0486149 0
M  V30 2594 H 246.566 -3.1973 -0.666331 0
M  V30 2595 H 245.225 -3.36284 1.45974 0
M  V30 2596 H 244.873 -5.0153 -0.384235 0
M  V30 2597 H 244.573 -5.74991 1.21075 0
M  V30 2598 H 246.097 -6.09624 0.34503 0
M  V30 2599 H 247.511 -5.19294 2.42913 0
M  V30 2600 H 245.908 -5.06986 3.21068 0
M  V30 2601 H 246.978 -3.65656 3.18471 0
M  V30 2602 N 248.321 -0.919034 -1.28029 0
M  V30 2603 C 249.251 -0.428581 -2.29533 0
M  V30 2604 C 250.232 0.50659 -1.62381 0
M  V30 2605 O 251.417 0.413195 -1.89753 0
M  V30 2606 C 248.547 0.327388 -3.45753 0
M  V30 2607 C 247.501 -0.519137 -4.2484 0
M  V30 2608 C 246.827 0.365486 -5.33449 0
M  V30 2609 C 248.127 -1.77914 -4.91064 0
M  V30 2610 H 249.821 -1.27687 -2.70807 0
M  V30 2611 H 247.367 -0.615428 -1.30186 0
M  V30 2612 H 249.32 0.681378 -4.15855 0
M  V30 2613 H 248.044 1.20963 -3.03374 0
M  V30 2614 H 246.703 -0.855717 -3.56473 0
M  V30 2615 H 246.351 1.24642 -4.87312 0
M  V30 2616 H 246.051 -0.197356 -5.87268 0
M  V30 2617 H 247.575 0.715241 -6.06396 0
M  V30 2618 H 248.989 -1.49374 -5.53498 0
M  V30 2619 H 247.386 -2.2848 -5.54903 0
M  V30 2620 H 248.456 -2.50382 -4.15255 0
M  V30 2621 N 249.799 1.42003 -0.683588 0
M  V30 2622 C 251.215 1.55625 -0.353976 0
M  V30 2623 C 251.415 1.66151 1.14 0
M  V30 2624 O 250.471 1.63329 1.92561 0
M  V30 2625 C 251.784 2.80171 -1.092 0
M  V30 2626 C 253.332 2.93954 -1.07518 0
M  V30 2627 C 253.807 4.21372 -1.79471 0
M  V30 2628 N 255.298 4.28303 -1.76381 0
M  V30 2629 C 256.033 5.25729 -2.28904 0
M  V30 2630 N 255.529 6.29254 -2.89846 0
M  V30 2631 N 257.322 5.17586 -2.19228 0
M  V30 2632 H 249.473 1.33415 -1.6527 0
M  V30 2633 H 251.736 0.64282 -0.696769 0
M  V30 2634 H 251.442 2.78561 -2.14701 0
M  V30 2635 H 251.316 3.7133 -0.662862 0
M  V30 2636 H 253.703 2.95086 -0.028475 0
M  V30 2637 H 253.784 2.04002 -1.54328 0
M  V30 2638 H 253.428 4.21001 -2.84114 0
M  V30 2639 H 253.358 5.10275 -1.30104 0
M  V30 2640 H 255.849 3.54119 -1.31939 0
M  V30 2641 H 256.162 6.99964 -3.27522 0
M  V30 2642 H 254.507 6.29791 -2.93919 0
M  V30 2643 H 257.698 4.35631 -1.71299 0
M  V30 2644 H 257.871 5.93348 -2.60466 0
M  V30 2645 N 251.277 0.427512 1.51691 0
M  V30 2646 C 252.187 -0.39527 2.31246 0
M  V30 2647 C 253.203 -1.03674 1.39742 0
M  V30 2648 O 254.379 -1.03425 1.72816 0
M  V30 2649 C 251.444 -1.48706 3.13189 0
M  V30 2650 C 250.505 -0.866743 4.20459 0
M  V30 2651 C 249.738 -1.90651 4.98486 0
M  V30 2652 O 249.961 -3.12733 4.77026 0
M  V30 2653 O 248.895 -1.5025 5.82845 0
M  V30 2654 H 252.721 0.253918 3.02637 0
M  V30 2655 H 250.306 0.190274 1.48183 0
M  V30 2656 H 252.188 -2.12047 3.64162 0
M  V30 2657 H 250.863 -2.12051 2.44573 0
M  V30 2658 H 249.77 -0.195544 3.73589 0
M  V30 2659 H 251.103 -0.276934 4.9142 0
M  V30 2660 N 252.755 -1.56801 0.158532 0
M  V30 2661 C 253.665 -2.20916 -0.789518 0
M  V30 2662 C 254.681 -1.1969 -1.26294 0
M  V30 2663 O 255.857 -1.52308 -1.31773 0
M  V30 2664 C 252.922 -2.82727 -2.00665 0
M  V30 2665 C 251.983 -3.99114 -1.58134 0
M  V30 2666 C 251.216 -4.57968 -2.74045 0
M  V30 2667 O 251.439 -4.15704 -3.90572 0
M  V30 2668 O 250.373 -5.48047 -2.48855 0
M  V30 2669 H 254.199 -3.02464 -0.273681 0
M  V30 2670 H 251.784 -1.4924 -0.0690548 0
M  V30 2671 H 253.666 -3.21968 -2.71872 0
M  V30 2672 H 252.341 -2.04184 -2.51179 0
M  V30 2673 H 251.248 -3.64567 -0.839155 0
M  V30 2674 H 252.581 -4.79212 -1.12325 0
M  V30 2675 N 254.233 0.115231 -1.57178 0
M  V30 2676 C 255.479 0.82357 -1.85325 0
M  V30 2677 C 255.812 1.79349 -0.744814 0
M  V30 2678 O 255.087 1.92899 0.249024 0
M  V30 2679 C 255.37 1.57014 -3.24066 0
M  V30 2680 C 255.223 0.619565 -4.45513 0
M  V30 2681 C 256.542 2.52545 -3.60429 0
M  V30 2682 H 253.661 0.297948 -0.674089 0
M  V30 2683 H 256.303 0.0877138 -1.89797 0
M  V30 2684 H 254.453 2.19742 -3.20383 0
M  V30 2685 H 256.125 0.000837639 -4.613 0
M  V30 2686 H 254.368 -0.0686174 -4.33746 0
M  V30 2687 H 255.039 1.17866 -5.3927 0
M  V30 2688 H 257.515 1.9992 -3.64926 0
M  V30 2689 H 256.391 3.01811 -4.58477 0
M  V30 2690 H 256.652 3.35383 -2.88047 0
M  V30 2691 N 255.711 1.52812 0.385517 0
M  V30 2692 C 256.939 1.71907 1.15133 0
M  V30 2693 C 257.354 0.439004 1.83625 0
M  V30 2694 O 256.711 -0.586765 1.7281 0
M  V30 2695 C 256.762 2.87099 2.19673 0
M  V30 2696 O 256.483 4.10151 1.53973 0
M  V30 2697 C 257.984 3.17902 3.08955 0
M  V30 2698 H 255.204 0.575479 0.345057 0
M  V30 2699 H 257.748 1.99476 0.45052 0
M  V30 2700 H 255.903 2.61982 2.85384 0
M  V30 2701 H 256.317 4.74514 2.23465 0
M  V30 2702 H 257.791 4.01959 3.7833 0
M  V30 2703 H 258.268 2.3243 3.72657 0
M  V30 2704 H 258.874 3.44871 2.48885 0
M  V30 2705 N 257.189 -0.644168 1.43834 0
M  V30 2706 C 258.436 -1.40395 1.4593 0
M  V30 2707 C 258.764 -1.94305 0.0869658 0
M  V30 2708 O 258.019 -1.73288 -0.909378 0
M  V30 2709 C 258.318 -2.59615 2.45631 0
M  V30 2710 C 257.984 -2.2407 3.91284 0
M  V30 2711 C 256.646 -2.14089 4.30952 0
M  V30 2712 C 258.998 -1.95775 4.83034 0
M  V30 2713 C 256.326 -1.73981 5.6031 0
M  V30 2714 C 258.678 -1.57163 6.12766 0
M  V30 2715 C 257.342 -1.45713 6.51402 0
M  V30 2716 H 256.612 -0.513741 0.533995 0
M  V30 2717 H 259.259 -0.731724 1.76969 0
M  V30 2718 H 257.564 -3.32011 2.08028 0
M  V30 2719 H 259.261 -3.17834 2.44504 0
M  V30 2720 H 255.851 -2.32753 3.59895 0
M  V30 2721 H 260.035 -2.02403 4.53152 0
M  V30 2722 H 255.291 -1.63709 5.89075 0
M  V30 2723 H 259.465 -1.34303 6.83327 0
M  V30 2724 H 257.092 -1.14406 7.51542 0
M  V30 2725 N 258.668 -1.30515 -0.883378 0
M  V30 2726 C 259.601 -1.11359 -1.99184 0
M  V30 2727 C 260.579 -0.0207858 -1.62587 0
M  V30 2728 O 261.763 -0.174646 -1.87689 0
M  V30 2729 C 258.89 -0.69871 -3.31415 0
M  V30 2730 C 257.936 -1.79261 -3.86998 0
M  V30 2731 S 258.769 -3.39536 -4.14096 0
M  V30 2732 C 259.925 -2.99954 -5.49344 0
M  V30 2733 H 260.158 -2.052 -2.15128 0
M  V30 2734 H 257.691 -1.14847 -1.03196 0
M  V30 2735 H 259.649 -0.466075 -4.07846 0
M  V30 2736 H 258.31 0.220368 -3.13326 0
M  V30 2737 H 257.503 -1.45464 -4.82552 0
M  V30 2738 H 257.105 -1.97961 -3.17313 0
M  V30 2739 H 259.397 -2.48013 -6.30473 0
M  V30 2740 H 260.34 -3.9442 -5.8808 0
M  V30 2741 H 260.748 -2.37775 -5.1198 0
M  V30 2742 N 260.146 1.09593 -1.13257 0
M  V30 2743 C 261.392 1.82003 -0.89458 0
M  V30 2744 C 261.725 1.85402 0.577906 0
M  V30 2745 O 261 1.32099 1.42759 0
M  V30 2746 C 261.283 3.28237 -1.48096 0
M  V30 2747 C 261.136 3.3312 -3.02244 0
M  V30 2748 C 262.455 4.24871 -1.14774 0
M  V30 2749 H 259.574 0.66077 -0.326424 0
M  V30 2750 H 262.216 1.28389 -1.40058 0
M  V30 2751 H 260.366 3.74024 -1.05062 0
M  V30 2752 H 262.038 2.95748 -3.54021 0
M  V30 2753 H 260.281 2.72756 -3.37323 0
M  V30 2754 H 260.952 4.3613 -3.38371 0
M  V30 2755 H 263.428 3.87361 -1.51957 0
M  V30 2756 H 262.304 5.25532 -1.58452 0
M  V30 2757 H 262.565 4.42058 -0.0611849 0
M  V30 2758 N 261.624 0.925811 1.2754 0
M  V30 2759 C 262.872 0.564138 1.94067 0
M  V30 2760 C 263.193 -0.897188 1.73134 0
M  V30 2761 O 262.463 -1.63573 1.07799 0
M  V30 2762 H 261.043 0.205645 0.718136 0
M  V30 2763 H 263.705 1.1778 1.55287 0
M  V30 2764 H 262.801 0.76881 3.02483 0
M  V30 2765 N 263.102 -1.41638 0.69111 0
M  V30 2766 C 264.032 -2.3347 0.037248 0
M  V30 2767 C 265.013 -1.51575 -0.771947 0
M  V30 2768 O 266.198 -1.80126 -0.72582 0
M  V30 2769 C 263.328 -3.35354 -0.903064 0
M  V30 2770 C 262.282 -4.27526 -0.201288 0
M  V30 2771 C 261.608 -5.19747 -1.25565 0
M  V30 2772 C 262.908 -5.13959 0.929689 0
M  V30 2773 H 264.602 -2.88397 0.804227 0
M  V30 2774 H 262.148 -1.38669 0.388189 0
M  V30 2775 H 264.101 -3.98519 -1.36969 0
M  V30 2776 H 262.825 -2.78767 -1.70166 0
M  V30 2777 H 261.484 -3.65779 0.245265 0
M  V30 2778 H 261.132 -4.59479 -2.04666 0
M  V30 2779 H 260.832 -5.8225 -0.791128 0
M  V30 2780 H 262.356 -5.85789 -1.72288 0
M  V30 2781 H 263.77 -5.70718 0.543546 0
M  V30 2782 H 262.167 -5.85379 1.32103 0
M  V30 2783 H 263.237 -4.51389 1.77133 0
M  V30 2784 N 264.58 -0.43555 -1.51462 0
M  V30 2785 C 265.528 0.391205 -2.29287 0
M  V30 2786 C 266.522 1.02247 -1.35062 0
M  V30 2787 O 267.728 0.957646 -1.52411 0
M  V30 2788 H 264.103 0.144968 -0.737895 0
M  V30 2789 H 266.074 -0.286051 -2.97026 0
M  V30 2790 C 264.823 1.48096 -3.14583 0
M  V30 2791 H 264.146 1.00457 -3.86973 0
M  V30 2792 H 265.586 2.03273 -3.72097 0
M  V30 2793 C 264.045 2.46321 -2.29843 0
M  V30 2794 O 264.575 3.50815 -1.95682 0
M  V30 2795 N 262.781 2.17166 -1.931 0
M  V30 2796 H 262.328 1.32218 -2.21079 0
M  V30 2797 H 262.286 2.83127 -1.36698 0
M  V30 2798 N 266.058 1.56714 -0.166846 0
M  V30 2799 C 266.99 2.14914 0.796537 0
M  V30 2800 C 268.003 1.10357 1.19688 0
M  V30 2801 O 269.192 1.37561 1.13751 0
M  V30 2802 C 266.292 2.67326 2.08303 0
M  V30 2803 C 265.465 3.96493 1.84696 0
M  V30 2804 C 264.524 4.34014 2.97521 0
M  V30 2805 O 263.55 5.01973 2.6835 0
M  V30 2806 N 264.752 3.95208 4.25196 0
M  V30 2807 H 267.517 2.98205 0.299006 0
M  V30 2808 H 265.078 1.61892 0.0160839 0
M  V30 2809 H 267.07 2.89428 2.82867 0
M  V30 2810 H 265.64 1.88649 2.4926 0
M  V30 2811 H 264.86 3.82814 0.940602 0
M  V30 2812 H 266.148 4.8086 1.66285 0
M  V30 2813 H 265.546 3.40487 4.51758 0
M  V30 2814 H 264.103 4.2232 4.96477 0
M  V30 2815 N 267.536 -0.106894 1.57237 0
M  V30 2816 C 268.766 -0.825191 1.89405 0
M  V30 2817 C 269.174 -1.73374 0.757496 0
M  V30 2818 O 268.517 -1.81552 -0.280115 0
M  V30 2819 C 268.579 -1.70102 3.1671 0
M  V30 2820 C 268.243 -0.965523 4.46684 0
M  V30 2821 C 269.24 -0.300741 5.19029 0
M  V30 2822 C 266.925 -0.943105 4.93367 0
M  V30 2823 C 268.919 0.376622 6.36286 0
M  V30 2824 C 266.606 -0.261949 6.10538 0
M  V30 2825 C 267.604 0.396748 6.81847 0
M  V30 2826 O 267.292 1.06701 7.96787 0
M  V30 2827 H 267.024 -0.241852 0.631255 0
M  V30 2828 H 269.578 -0.0921491 2.05193 0
M  V30 2829 H 267.808 -2.47601 2.97036 0
M  V30 2830 H 269.497 -2.29483 3.34802 0
M  V30 2831 H 270.263 -0.309599 4.84011 0
M  V30 2832 H 266.142 -1.44524 4.3776 0
M  V30 2833 H 269.686 0.891334 6.91882 0
M  V30 2834 H 265.583 -0.250896 6.45012 0
M  V30 2835 H 266.351 0.972707 8.127 0
M  V30 2836 N 269.014 -1.53014 -0.377408 0
M  V30 2837 C 269.944 -1.81589 -1.46791 0
M  V30 2838 C 270.925 -0.668622 -1.56408 0
M  V30 2839 O 272.11 -0.917337 -1.71168 0
M  V30 2840 C 269.24 -1.99519 -2.8427 0
M  V30 2841 C 268.194 -3.15249 -2.89486 0
M  V30 2842 C 267.52 -3.18451 -4.29527 0
M  V30 2843 C 268.82 -4.54084 -2.58079 0
M  V30 2844 H 270.514 -2.7291 -1.23127 0
M  V30 2845 H 268.06 -1.31319 -0.590883 0
M  V30 2846 H 270.013 -2.18092 -3.60575 0
M  V30 2847 H 268.737 -1.04897 -3.09296 0
M  V30 2848 H 267.396 -2.96477 -2.15631 0
M  V30 2849 H 267.044 -2.2149 -4.5161 0
M  V30 2850 H 266.744 -3.962 -4.33934 0
M  V30 2851 H 268.268 -3.39193 -5.07721 0
M  V30 2852 H 269.682 -4.72899 -3.24098 0
M  V30 2853 H 268.079 -5.33987 -2.7382 0
M  V30 2854 H 269.149 -4.60006 -1.53372 0
M  V30 2855 N 270.492 0.636531 -1.44174 0
M  V30 2856 C 271.738 1.39826 -1.4689 0
M  V30 2857 C 272.071 1.93947 -0.0990585 0
M  V30 2858 O 271.346 1.73325 0.882544 0
M  V30 2859 C 271.629 2.56751 -2.5249 0
M  V30 2860 C 271.482 2.08014 -3.98811 0
M  V30 2861 C 272.801 3.58946 -2.54649 0
M  V30 2862 H 269.92 0.507075 -0.53483 0
M  V30 2863 H 272.562 0.720188 -1.75822 0
M  V30 2864 H 270.712 3.14597 -2.2795 0
M  V30 2865 H 272.384 1.5504 -4.34466 0
M  V30 2866 H 270.627 1.39242 -4.10846 0
M  V30 2867 H 271.298 2.92169 -4.68339 0
M  V30 2868 H 273.774 3.1089 -2.76563 0
M  V30 2869 H 272.65 4.38286 -3.3045 0
M  V30 2870 H 272.911 4.12655 -1.58646 0
M  V30 2871 N 271.97 1.30982 0.876444 0
M  V30 2872 C 273.218 1.20058 1.62575 0
M  V30 2873 C 273.539 -0.242947 1.93481 0
M  V30 2874 O 272.809 -1.1619 1.57724 0
M  V30 2875 H 271.389 0.44135 0.602677 0
M  V30 2876 H 274.051 1.64222 1.04962 0
M  V30 2877 H 273.147 1.76762 2.57219 0
M  V30 2878 N 273.449 -1.08991 1.13837 0
M  V30 2879 C 274.674 -1.85551 0.926585 0
M  V30 2880 C 275.099 -1.80782 -0.519566 0
M  V30 2881 O 274.457 -1.18855 -1.36906 0
M  V30 2882 C 274.505 -3.31266 1.42462 0
M  V30 2883 O 273.609 -4.07822 0.612789 0
M  V30 2884 H 272.95 -0.575192 0.331738 0
M  V30 2885 H 275.48 -1.37604 1.51414 0
M  V30 2886 H 275.49 -3.82112 1.43019 0
M  V30 2887 H 274.165 -3.34052 2.47754 0
M  V30 2888 H 272.742 -3.66731 0.675463 0
M  V30 2889 N 274.927 -0.932562 -1.27047 0
M  V30 2890 C 275.859 -0.392734 -2.2581 0
M  V30 2891 C 276.872 0.479241 -1.55586 0
M  V30 2892 O 278.061 0.291078 -1.76111 0
M  V30 2893 C 275.161 0.455456 -3.35826 0
M  V30 2894 C 274.334 -0.398355 -4.35582 0
M  V30 2895 C 273.393 0.387985 -5.24768 0
M  V30 2896 O 272.419 -0.206003 -5.68827 0
M  V30 2897 N 273.621 1.68664 -5.55457 0
M  V30 2898 H 276.386 -1.24173 -2.72766 0
M  V30 2899 H 273.947 -0.800511 -1.40725 0
M  V30 2900 H 275.939 0.988692 -3.92437 0
M  V30 2901 H 274.509 1.20522 -2.88432 0
M  V30 2902 H 273.729 -1.11286 -3.78165 0
M  V30 2903 H 275.017 -0.981889 -4.99236 0
M  V30 2904 H 274.415 2.19147 -5.21528 0
M  V30 2905 H 272.972 2.1663 -6.14748 0
M  V30 2906 N 276.405 1.4127 -0.698611 0
M  V30 2907 C 277.335 2.33447 -0.049629 0
M  V30 2908 C 278.316 1.51982 0.763898 0
M  V30 2909 O 279.501 1.80509 0.716257 0
M  V30 2910 C 276.631 3.35828 0.885267 0
M  V30 2911 C 275.585 4.27627 0.178613 0
M  V30 2912 C 274.911 5.20406 1.22807 0
M  V30 2913 C 276.211 5.13459 -0.956933 0
M  V30 2914 H 277.905 2.87966 -0.81951 0
M  V30 2915 H 275.451 1.38461 -0.395538 0
M  V30 2916 H 277.404 3.9924 1.34854 0
M  V30 2917 H 276.128 2.79666 1.68685 0
M  V30 2918 H 274.787 3.65643 -0.26466 0
M  V30 2919 H 274.435 4.60558 2.02226 0
M  V30 2920 H 274.135 5.82661 0.760239 0
M  V30 2921 H 275.659 5.86695 1.69179 0
M  V30 2922 H 277.073 5.70421 -0.573805 0
M  V30 2923 H 275.47 5.8467 -1.35205 0
M  V30 2924 H 276.54 4.50443 -1.79524 0
M  V30 2925 N 277.883 0.443576 1.51229 0
M  V30 2926 C 279.294 -0.0180867 1.86691 0
M  V30 2927 C 279.645 -1.41384 1.36033 0
M  V30 2928 O 278.77 -2.04291 0.713722 0
M  V30 2929 C 279.365 -0.039597 3.38777 0
M  V30 2930 C 277.924 -0.445692 3.73752 0
M  V30 2931 C 277.071 0.357584 2.74985 0
M  V30 2932 H 280.022 0.659138 1.44364 0
M  V30 2933 H 280.043 -0.847761 3.70936 0
M  V30 2934 H 279.555 0.976382 3.75617 0
M  V30 2935 H 277.656 -1.46704 3.42503 0
M  V30 2936 H 277.769 -0.166155 4.78812 0
M  V30 2937 H 276.133 -0.184973 2.54027 0
M  V30 2938 H 276.916 1.37256 3.14668 0
M  V30 2939 N 279.361 -1.56624 0.175154 0
M  V30 2940 C 280.601 -1.98894 -0.471221 0
M  V30 2941 C 280.965 -1.05889 -1.60161 0
M  V30 2942 O 282.166 -1.37315 -2.3108 0
M  V30 2943 C 280.437 -3.44865 -0.938241 0
M  V30 2944 S 281.996 -4.09164 -1.58526 0
M  V30 2945 H 278.814 -0.694686 -0.151434 0
M  V30 2946 H 281.416 -1.93577 0.27352 0
M  V30 2947 H 280.12 -4.10265 -0.10518 0
M  V30 2948 H 279.651 -3.53956 -1.71693 0
M  V30 2949 H 281.666 -4.04528 -2.87352 0
M  V30 2950 N 280.839 0.0985539 -1.57292 0
M  V30 2951 C 281.749 1.13824 -2.05137 0
M  V30 2952 C 282.765 1.44076 -0.975604 0
M  V30 2953 O 283.941 1.54786 -1.28853 0
M  V30 2954 C 281.006 2.43969 -2.46333 0
M  V30 2955 C 280.067 2.2093 -3.68087 0
M  V30 2956 C 279.3 3.44869 -4.0731 0
M  V30 2957 O 279.523 4.52972 -3.46659 0
M  V30 2958 O 278.457 3.34661 -5.00285 0
M  V30 2959 H 282.283 0.761881 -2.93988 0
M  V30 2960 H 279.868 0.310818 -1.46131 0
M  V30 2961 H 281.75 3.20609 -2.73473 0
M  V30 2962 H 280.425 2.81038 -1.60621 0
M  V30 2963 H 279.332 1.42081 -3.46069 0
M  V30 2964 H 280.665 1.88755 -4.54568 0
M  V30 2965 N 282.317 1.53212 0.369288 0
M  V30 2966 C 283.728 1.60943 0.946276 0
M  V30 2967 C 284.079 0.47452 1.90375 0
M  V30 2968 O 283.204 -0.399597 2.12679 0
M  V30 2969 C 283.799 2.91715 1.72302 0
M  V30 2970 C 282.358 3.01792 2.24941 0
M  V30 2971 C 281.505 2.56211 1.06072 0
M  V30 2972 H 284.456 1.58007 0.148198 0
M  V30 2973 H 284.477 2.79309 2.58393 0
M  V30 2974 H 283.989 3.74295 1.0259 0
M  V30 2975 H 282.09 2.23791 2.97906 0
M  V30 2976 H 282.203 4.06803 2.53077 0
M  V30 2977 H 280.567 2.10998 1.4266 0
M  V30 2978 H 281.35 3.41206 0.378639 0
M  V30 2979 N 283.795 -0.628877 1.44509 0
M  V30 2980 C 284.705 -1.7694 1.54044 0
M  V30 2981 C 285.721 -1.68705 0.425987 0
M  V30 2982 O 286.897 -1.89442 0.683656 0
M  V30 2983 C 283.962 -3.13332 1.48405 0
M  V30 2984 C 283.023 -3.33181 2.70719 0
M  V30 2985 C 282.256 -4.63067 2.6534 0
M  V30 2986 O 282.479 -5.44017 1.71469 0
M  V30 2987 O 281.413 -4.85167 3.56226 0
M  V30 2988 H 285.239 -1.71848 2.50403 0
M  V30 2989 H 282.824 -0.790378 1.26781 0
M  V30 2990 H 284.706 -3.94634 1.47791 0
M  V30 2991 H 283.381 -3.1896 0.551898 0
M  V30 2992 H 282.288 -2.51549 2.769 0
M  V30 2993 H 283.621 -3.32416 3.62988 0
M  V30 2994 N 285.273 -1.31445 -0.869486 0
M  V30 2995 C 286.684 -1.19042 -1.43826 0
M  V30 2996 C 287.035 0.202919 -1.95148 0
M  V30 2997 O 286.16 1.10071 -1.86315 0
M  V30 2998 C 286.755 -2.15499 -2.6143 0
M  V30 2999 C 285.314 -2.07028 -3.14351 0
M  V30 3000 C 284.461 -2.04701 -1.87063 0
M  V30 3001 H 287.412 -1.43489 -0.677984 0
M  V30 3002 H 287.433 -1.74488 -3.38134 0
M  V30 3003 H 286.945 -3.16899 -2.24046 0
M  V30 3004 H 285.046 -1.08825 -3.56354 0
M  V30 3005 H 285.159 -2.96157 -3.766 0
M  V30 3006 H 283.523 -1.49724 -2.06046 0
M  V30 3007 H 284.306 -3.07857 -1.51917 0
M  V30 3008 N 286.751 1.08385 -1.14413 0
M  V30 3009 C 288.028 1.77429 -0.823297 0
M  V30 3010 C 288.408 1.9974 0.683163 0
M  V30 3011 O 287.756 1.60739 1.62405 0
M  V30 3012 C 287.966 3.09004 -1.62227 0
M  V30 3013 C 289.314 3.83532 -1.82177 0
M  V30 3014 O 290.338 3.18786 -1.58915 0
M  V30 3015 O 289.197 4.99792 -2.21067 0
M  V30 3016 H 286.291 0.769999 -0.301712 0
M  V30 3017 H 288.837 1.14846 -1.24934 0
M  V30 3018 H 287.609 2.88316 -2.64555 0
M  V30 3019 H 287.232 3.79316 -1.19187 0
M  V30 3020 N 288.23 0.939286 1.26551 0
M  V30 3021 C 289.476 0.586715 1.94128 0
M  V30 3022 C 289.809 -0.8717 1.73537 0
M  V30 3023 O 289.084 -1.62339 1.07127 0
M  V30 3024 C 289.367 0.927497 3.4795 0
M  V30 3025 C 289.22 2.44052 3.77834 0
M  V30 3026 C 290.539 0.441569 4.37879 0
M  V30 3027 H 287.658 0.21463 0.705055 0
M  V30 3028 H 290.3 1.17316 1.49455 0
M  V30 3029 H 288.45 0.428431 3.8613 0
M  V30 3030 H 290.122 3.01216 3.4938 0
M  V30 3031 H 288.365 2.8848 3.23978 0
M  V30 3032 H 289.036 2.62947 4.85348 0
M  V30 3033 H 291.512 0.869448 4.06915 0
M  V30 3034 H 290.388 0.708856 5.44304 0
M  V30 3035 H 290.649 -0.658467 4.37169 0
M  V30 3036 N 289.708 -1.40897 0.706093 0
M  V30 3037 C 290.936 -2.05373 0.250887 0
M  V30 3038 C 291.351 -1.53172 -1.10381 0
M  V30 3039 O 290.708 -0.684305 -1.69185 0
M  V30 3040 C 290.759 -3.6088 0.211571 0
M  V30 3041 O 290.48 -4.11153 1.51276 0
M  V30 3042 C 291.981 -4.42517 -0.263346 0
M  V30 3043 H 289.201 -0.66115 0.114552 0
M  V30 3044 H 291.745 -1.80479 0.961635 0
M  V30 3045 H 289.9 -3.84777 -0.450073 0
M  V30 3046 H 290.314 -5.05279 1.40689 0
M  V30 3047 H 291.788 -5.51479 -0.239718 0
M  V30 3048 H 292.265 -4.19396 -1.30397 0
M  V30 3049 H 292.871 -4.23708 0.367677 0
M  V30 3050 N 291.186 -0.45159 -1.50991 0
M  V30 3051 C 292.432 0.110237 -2.025 0
M  V30 3052 C 292.765 1.41109 -1.33424 0
M  V30 3053 O 292.04 1.89135 -0.453659 0
M  V30 3054 C 292.323 0.314271 -3.58726 0
M  V30 3055 C 292.176 -1.00623 -4.38401 0
M  V30 3056 C 293.495 1.07767 -4.26702 0
M  V30 3057 H 290.614 0.0385897 -0.735989 0
M  V30 3058 H 293.256 -0.593374 -1.80497 0
M  V30 3059 H 291.406 0.913601 -3.77605 0
M  V30 3060 H 293.078 -1.64064 -4.31139 0
M  V30 3061 H 291.321 -1.6075 -4.02917 0
M  V30 3062 H 291.992 -0.817341 -5.45915 0
M  V30 3063 H 294.468 0.56986 -4.12179 0
M  V30 3064 H 293.344 1.18921 -5.35863 0
M  V30 3065 H 293.605 2.10939 -3.88532 0
M  V30 3066 N 292.664 1.56529 -0.183458 0
M  V30 3067 C 293.594 2.21549 0.737456 0
M  V30 3068 C 294.575 1.17489 1.23005 0
M  V30 3069 O 295.76 1.45959 1.281 0
M  V30 3070 C 292.89 2.86575 1.96194 0
M  V30 3071 C 291.844 3.96778 1.60473 0
M  V30 3072 C 291.17 4.48911 2.90487 0
M  V30 3073 C 292.47 5.15767 0.823497 0
M  V30 3074 H 294.164 2.98761 0.195453 0
M  V30 3075 H 291.71 1.43702 0.0925686 0
M  V30 3076 H 293.663 3.30739 2.61131 0
M  V30 3077 H 292.387 2.06749 2.52828 0
M  V30 3078 H 291.046 3.53286 0.978997 0
M  V30 3079 H 290.694 3.65862 3.45186 0
M  V30 3080 H 290.394 5.23265 2.67335 0
M  V30 3081 H 291.918 4.95771 3.56432 0
M  V30 3082 H 293.332 5.56549 1.37571 0
M  V30 3083 H 291.729 5.96114 0.690551 0
M  V30 3084 H 292.799 4.84574 -0.177782 0
M  V30 3085 N 294.142 -0.090211 1.57342 0
M  V30 3086 C 295.37 -0.806224 1.90546 0
M  V30 3087 C 295.785 -1.72041 0.777644 0
M  V30 3088 O 295.142 -1.80778 -0.250103 0
M  V30 3089 C 295.193 -1.61546 3.23396 0
M  V30 3090 O 294.914 -0.738043 4.31839 0
M  V30 3091 C 296.415 -2.4341 3.70495 0
M  V30 3092 H 293.635 -0.230256 0.630257 0
M  V30 3093 H 296.179 -0.0659843 2.04394 0
M  V30 3094 H 294.334 -2.30816 3.11131 0
M  V30 3095 H 294.748 -1.29901 5.08159 0
M  V30 3096 H 296.222 -2.95676 4.66133 0
M  V30 3097 H 296.699 -3.22098 2.98579 0
M  V30 3098 H 297.305 -1.79331 3.85643 0
M  V30 3099 N 295.62 -1.53406 -0.361157 0
M  V30 3100 C 296.845 -1.74024 -1.12829 0
M  V30 3101 C 297.27 -0.470069 -1.82132 0
M  V30 3102 O 296.628 0.57619 -1.719 0
M  V30 3103 C 296.676 -2.90903 -2.13091 0
M  V30 3104 O 295.78 -2.59821 -3.20261 0
M  V30 3105 H 295.121 -0.577804 -0.327168 0
M  V30 3106 H 297.651 -2.00307 -0.41693 0
M  V30 3107 H 297.661 -3.17194 -2.56616 0
M  V30 3108 H 296.336 -3.83034 -1.62042 0
M  V30 3109 H 294.913 -2.44362 -2.81677 0
M  V30 3110 N 297.098 0.621204 -1.44841 0
M  V30 3111 C 298.031 1.7459 -1.46947 0
M  V30 3112 C 299.009 1.59273 -0.327238 0
M  V30 3113 O 300.193 1.81021 -0.525706 0
M  V30 3114 C 297.32 3.12274 -1.31159 0
M  V30 3115 C 296.366 3.46216 -2.49072 0
M  V30 3116 S 297.199 3.4258 -4.11581 0
M  V30 3117 C 298.355 4.82867 -3.98233 0
M  V30 3118 H 298.588 1.72538 -2.42111 0
M  V30 3119 H 296.121 0.796683 -1.32259 0
M  V30 3120 H 298.079 3.91722 -1.22737 0
M  V30 3121 H 296.74 3.11855 -0.374885 0
M  V30 3122 H 295.933 4.4643 -2.33915 0
M  V30 3123 H 295.535 2.74253 -2.54286 0
M  V30 3124 H 297.827 5.7234 -3.62537 0
M  V30 3125 H 298.77 5.0308 -4.98313 0
M  V30 3126 H 299.178 4.57908 -3.30121 0
M  V30 3127 N 298.576 1.31904 0.862503 0
M  V30 3128 C 299.506 1.22782 1.98612 0
M  V30 3129 C 300.487 0.113362 1.69722 0
M  V30 3130 O 301.672 0.299218 1.91881 0
M  V30 3131 C 298.802 0.942058 3.34279 0
M  V30 3132 C 297.756 2.0169 3.77499 0
M  V30 3133 C 297.082 1.58369 5.10709 0
M  V30 3134 C 298.382 3.43096 3.93805 0
M  V30 3135 H 300.076 2.16788 2.06502 0
M  V30 3136 H 297.622 1.04366 0.992154 0
M  V30 3137 H 299.575 0.864818 4.1243 0
M  V30 3138 H 298.299 -0.0336603 3.26583 0
M  V30 3139 H 296.958 2.08416 3.01593 0
M  V30 3140 H 296.606 0.595628 4.99461 0
M  V30 3141 H 296.306 2.30279 5.40597 0
M  V30 3142 H 297.83 1.52067 5.91361 0
M  V30 3143 H 299.244 3.39003 4.62331 0
M  V30 3144 H 297.641 4.13288 4.35101 0
M  V30 3145 H 298.711 3.83334 2.96957 0
M  V30 3146 N 300.054 -1.07777 1.14986 0
M  V30 3147 C 301.282 -1.84018 0.945773 0
M  V30 3148 C 301.697 -1.81897 -0.505863 0
M  V30 3149 O 301.054 -1.22726 -1.35072 0
M  V30 3150 C 301.105 -3.31287 1.44677 0
M  V30 3151 O 300.826 -3.33449 2.84154 0
M  V30 3152 C 302.327 -4.24311 1.28355 0
M  V30 3153 H 299.547 -0.580716 0.336169 0
M  V30 3154 H 302.091 -1.36077 1.52654 0
M  V30 3155 H 300.246 -3.76594 0.908625 0
M  V30 3156 H 300.66 -4.25427 3.06777 0
M  V30 3157 H 302.134 -5.2573 1.68261 0
M  V30 3158 H 302.611 -4.38612 0.227184 0
M  V30 3159 H 303.217 -3.84836 1.81056 0
M  V30 3160 N 301.532 -0.945985 -1.26051 0
M  V30 3161 C 302.809 -0.513816 -1.88731 0
M  V30 3162 C 303.189 1.00872 -1.8544 0
M  V30 3163 O 302.537 1.8708 -1.312 0
M  V30 3164 C 302.747 -1.08062 -3.31849 0
M  V30 3165 C 304.095 -1.1522 -4.08668 0
M  V30 3166 O 305.119 -1.03155 -3.40936 0
M  V30 3167 O 303.978 -1.34044 -5.29806 0
M  V30 3168 H 301.072 -0.168193 -0.809716 0
M  V30 3169 H 303.618 -1.03886 -1.34186 0
M  V30 3170 H 302.39 -2.1241 -3.2863 0
M  V30 3171 H 302.013 -0.538307 -3.93939 0
M  V30 3172 N 303.011 1.40521 -0.713556 0
M  V30 3173 C 304.422 1.83853 -0.324807 0
M  V30 3174 C 304.773 1.59667 1.14021 0
M  V30 3175 O 303.898 1.07649 1.87725 0
M  V30 3176 C 304.493 3.33751 -0.582746 0
M  V30 3177 C 303.052 3.75584 -0.247727 0
M  V30 3178 C 302.199 2.63753 -0.856121 0
M  V30 3179 H 305.15 1.29817 -0.91286 0
M  V30 3180 H 305.171 3.80194 0.152682 0
M  V30 3181 H 304.683 3.51322 -1.64908 0
M  V30 3182 H 302.784 3.63608 0.813624 0
M  V30 3183 H 302.897 4.7373 -0.715307 0
M  V30 3184 H 301.261 2.53108 -0.28432 0
M  V30 3185 H 302.044 2.84137 -1.92668 0
M  V30 3186 N 304.489 0.459591 1.5075 0
M  V30 3187 C 305.714 -0.0996819 2.0716 0
M  V30 3188 C 306.139 -1.33761 1.32249 0
M  V30 3189 O 305.497 -1.77551 0.366786 0
M  V30 3190 C 305.545 -0.378226 3.58611 0
M  V30 3191 O 304.649 -1.46081 3.85661 0
M  V30 3192 H 303.99 0.00791392 0.663953 0
M  V30 3193 H 306.52 0.647329 1.9409 0
M  V30 3194 H 306.53 -0.622135 4.03229 0
M  V30 3195 H 305.205 0.526439 4.12555 0
M  V30 3196 H 303.782 -1.20511 3.5289 0
M  V30 3197 N 305.967 -1.56429 0.191757 0
M  V30 3198 C 306.917 -2.15548 -0.743184 0
M  V30 3199 C 307.901 -1.09531 -1.17863 0
M  V30 3200 O 309.093 -1.35602 -1.13759 0
M  V30 3201 C 306.222 -2.81577 -1.96391 0
M  V30 3202 C 305.308 -3.9478 -1.54951 0
M  V30 3203 N 305.699 -4.98677 -0.845876 0
M  V30 3204 C 303.997 -4.06319 -1.83905 0
M  V30 3205 C 304.698 -5.78183 -0.638724 0
M  V30 3206 N 303.674 -5.30495 -1.18643 0
M  V30 3207 H 307.476 -2.9324 -0.196839 0
M  V30 3208 H 304.99 -1.62398 -0.0081603 0
M  V30 3209 H 306.987 -3.22321 -2.64415 0
M  V30 3210 H 305.647 -2.05371 -2.51501 0
M  V30 3211 H 306.658 -5.15464 -0.501704 0
M  V30 3212 H 303.335 -3.41238 -2.40548 0
M  V30 3213 H 304.725 -6.71851 -0.0807929 0
M  V30 3214 N 307.445 0.0818655 -1.57387 0
M  V30 3215 C 308.694 0.781681 -1.85937 0
M  V30 3216 C 309.007 1.79246 -0.782957 0
M  V30 3217 O 310.213 2.54112 -0.955987 0
M  V30 3218 C 308.669 1.44109 -3.29789 0
M  V30 3219 C 308.277 0.469396 -4.45534 0
M  V30 3220 C 310.021 2.12386 -3.67549 0
M  V30 3221 C 307.928 1.13415 -5.80423 0
M  V30 3222 H 306.858 0.295682 -0.693605 0
M  V30 3223 H 309.509 0.0348051 -1.83467 0
M  V30 3224 H 307.891 2.23588 -3.2684 0
M  V30 3225 H 309.065 -0.294856 -4.59856 0
M  V30 3226 H 307.38 -0.108383 -4.16259 0
M  V30 3227 H 309.977 2.62878 -4.65617 0
M  V30 3228 H 310.32 2.91877 -2.96839 0
M  V30 3229 H 310.853 1.39751 -3.72444 0
M  V30 3230 H 307.592 0.379771 -6.54399 0
M  V30 3231 H 307.112 1.8695 -5.69921 0
M  V30 3232 H 308.791 1.65686 -6.25426 0
M  V30 3233 N 308.923 1.53595 0.353017 0
M  V30 3234 C 310.151 1.74311 1.1146 0
M  V30 3235 C 310.566 0.477854 1.82653 0
M  V30 3236 O 309.923 -0.549977 1.74016 0
M  V30 3237 C 309.974 2.91694 2.13534 0
M  V30 3238 O 309.695 4.13325 1.45238 0
M  V30 3239 C 311.196 3.24384 3.02142 0
M  V30 3240 H 308.416 0.582669 0.332773 0
M  V30 3241 H 310.96 2.00386 0.408107 0
M  V30 3242 H 309.115 2.67977 2.79763 0
M  V30 3243 H 309.529 4.79148 2.13349 0
M  V30 3244 H 311.003 4.09893 3.69718 0
M  V30 3245 H 311.48 2.40282 3.67643 0
M  V30 3246 H 312.086 3.50073 2.41514 0
M  V30 3247 N 310.401 -0.613514 1.45168 0
M  V30 3248 C 311.364 -1.7065 1.53007 0
M  V30 3249 C 312.364 -1.5548 0.410184 0
M  V30 3250 O 313.554 -1.60656 0.673455 0
M  V30 3251 C 310.686 -3.09875 1.42093 0
M  V30 3252 H 311.879 -1.65068 2.50385 0
M  V30 3253 H 309.432 -0.828728 1.32521 0
M  V30 3254 H 310.167 -3.21039 0.458769 0
M  V30 3255 H 309.952 -3.22293 2.23315 0
M  V30 3256 H 311.442 -3.895 1.50598 0
M  V30 3257 N 311.879 -1.3236 -0.855495 0
M  V30 3258 C 312.789 -1.23221 -1.99634 0
M  V30 3259 C 313.805 -0.145983 -1.73387 0
M  V30 3260 O 314.981 -0.366502 -1.98037 0
M  V30 3261 C 312.046 -0.954782 -3.33294 0
M  V30 3262 C 311.107 -2.12937 -3.72769 0
M  V30 3263 C 310.34 -1.86508 -5.00051 0
M  V30 3264 O 310.563 -0.807231 -5.64659 0
M  V30 3265 O 309.497 -2.72591 -5.36636 0
M  V30 3266 H 313.323 -2.19126 -2.1028 0
M  V30 3267 H 310.908 -1.12241 -0.986018 0
M  V30 3268 H 312.79 -0.816519 -4.13414 0
M  V30 3269 H 311.465 -0.0258854 -3.2369 0
M  V30 3270 H 310.372 -2.3231 -2.93228 0
M  V30 3271 H 311.705 -3.04102 -3.87018 0
M  V30 3272 N 313.357 1.07166 -1.15556 0
M  V30 3273 C 314.585 1.83514 -0.955519 0
M  V30 3274 C 315 1.82163 0.49621 0
M  V30 3275 O 314.357 1.23441 1.34419 0
M  V30 3276 C 314.408 3.30515 -1.46432 0
M  V30 3277 O 314.129 3.31937 -2.85918 0
M  V30 3278 C 315.63 4.23625 -1.30603 0
M  V30 3279 H 312.85 0.578926 -0.339244 0
M  V30 3280 H 315.394 1.35265 -1.53374 0
M  V30 3281 H 313.549 3.76106 -0.928584 0
M  V30 3282 H 313.963 4.23794 -3.09029 0
M  V30 3283 H 315.437 5.24831 -1.71047 0
M  V30 3284 H 315.914 4.38485 -0.250441 0
M  V30 3285 H 316.52 3.83871 -1.83094 0
M  V30 3286 N 314.835 0.952656 1.25548 0
M  V30 3287 C 315.798 0.475794 2.24207 0
M  V30 3288 C 316.798 -0.419428 1.55234 0
M  V30 3289 O 317.988 -0.216994 1.72843 0
M  V30 3290 C 315.12 -0.312814 3.39462 0
M  V30 3291 H 316.313 1.34779 2.67908 0
M  V30 3292 H 313.866 0.735739 1.37901 0
M  V30 3293 H 314.601 -1.20257 3.01179 0
M  V30 3294 H 314.386 0.329404 3.90714 0
M  V30 3295 H 315.876 -0.635986 4.12729 0
M  V30 3296 N 316.313 -1.40141 0.720998 0
M  V30 3297 C 317.561 -2.0039 0.262323 0
M  V30 3298 C 317.882 -1.57469 -1.15015 0
M  V30 3299 O 317.152 -0.816582 -1.78069 0
M  V30 3300 H 315.732 -0.741063 0.093996 0
M  V30 3301 H 318.394 -1.71398 0.927835 0
M  V30 3302 H 317.49 -3.10658 0.299671 0
M  V30 3303 N 317.792 -0.46758 -1.50504 0
M  V30 3304 C 319.208 -0.121533 -1.59137 0
M  V30 3305 C 319.408 1.3717 -1.47603 0
M  V30 3306 O 318.464 2.14464 -1.33272 0
M  V30 3307 C 319.777 -0.6686 -2.93173 0
M  V30 3308 C 321.325 -0.631716 -3.06559 0
M  V30 3309 C 321.8 -1.15627 -4.43164 0
M  V30 3310 N 323.291 -1.11553 -4.49567 0
M  V30 3311 C 324.026 -1.49195 -5.5365 0
M  V30 3312 N 323.522 -1.94269 -6.65005 0
M  V30 3313 N 325.315 -1.4082 -5.44175 0
M  V30 3314 H 317.466 -1.4388 -1.56245 0
M  V30 3315 H 319.729 -0.594784 -0.738198 0
M  V30 3316 H 319.435 -1.71453 -3.07078 0
M  V30 3317 H 319.309 -0.11021 -3.77039 0
M  V30 3318 H 321.696 0.405297 -2.92304 0
M  V30 3319 H 321.777 -1.22687 -2.24458 0
M  V30 3320 H 321.421 -2.1919 -4.58168 0
M  V30 3321 H 321.351 -0.537365 -5.23851 0
M  V30 3322 H 323.842 -0.784895 -3.69659 0
M  V30 3323 H 324.155 -2.21148 -7.40482 0
M  V30 3324 H 322.5 -1.98219 -6.66134 0
M  V30 3325 H 325.691 -1.0545 -4.56068 0
M  V30 3326 H 325.864 -1.70481 -6.25172 0
M  V30 3327 N 319.27 1.56325 -0.20005 0
M  V30 3328 C 320.686 1.58839 0.155716 0
M  V30 3329 C 320.886 1.21636 1.60645 0
M  V30 3330 O 319.942 0.941437 2.34293 0
M  V30 3331 C 321.255 3.0032 -0.151124 0
M  V30 3332 C 322.803 3.12866 -0.0916284 0
M  V30 3333 C 323.278 4.56488 -0.371845 0
M  V30 3334 N 324.769 4.62089 -0.320641 0
M  V30 3335 C 325.504 5.71116 -0.511243 0
M  V30 3336 N 325 6.88592 -0.762461 0
M  V30 3337 N 326.793 5.60335 -0.445157 0
M  V30 3338 H 318.944 1.78788 -1.14668 0
M  V30 3339 H 321.207 0.829996 -0.458051 0
M  V30 3340 H 320.913 3.32117 -1.15721 0
M  V30 3341 H 320.787 3.73257 0.543986 0
M  V30 3342 H 323.174 2.80878 0.905065 0
M  V30 3343 H 323.255 2.42304 -0.81989 0
M  V30 3344 H 322.899 4.89189 -1.36588 0
M  V30 3345 H 322.829 5.25246 0.377362 0
M  V30 3346 H 325.32 3.77665 -0.13329 0
M  V30 3347 H 325.633 7.67581 -0.896576 0
M  V30 3348 H 323.978 6.90387 -0.799412 0
M  V30 3349 H 327.169 4.67436 -0.249278 0
M  V30 3350 H 327.342 6.45243 -0.597116 0
M  V30 3351 N 320.748 -0.0735177 1.57428 0
M  V30 3352 C 321.678 -1.0879 2.06608 0
M  V30 3353 C 322.659 -1.40473 0.959237 0
M  V30 3354 O 323.844 -1.5013 1.23185 0
M  V30 3355 C 320.974 -2.40183 2.50857 0
M  V30 3356 C 319.928 -2.22858 3.65402 0
M  V30 3357 C 319.254 -3.59619 3.957 0
M  V30 3358 C 320.554 -1.65123 4.95511 0
M  V30 3359 H 322.248 -0.678673 2.91607 0
M  V30 3360 H 319.794 -0.325013 1.40284 0
M  V30 3361 H 321.747 -3.11437 2.83874 0
M  V30 3362 H 320.471 -2.83083 1.62885 0
M  V30 3363 H 319.13 -1.54045 3.32664 0
M  V30 3364 H 318.778 -4.00086 3.04861 0
M  V30 3365 H 318.478 -3.48866 4.72828 0
M  V30 3366 H 320.002 -4.32306 4.31212 0
M  V30 3367 H 321.416 -2.26241 5.26771 0
M  V30 3368 H 319.813 -1.65071 5.7695 0
M  V30 3369 H 320.883 -0.612559 4.81015 0
M  V30 3370 N 322.226 -1.5378 -0.344866 0
M  V30 3371 C 323.189 -1.80981 -1.40637 0
M  V30 3372 C 324.189 -0.680816 -1.45676 0
M  V30 3373 O 325.379 -0.949095 -1.46075 0
M  V30 3374 C 322.511 -1.95063 -2.79577 0
M  V30 3375 H 323.704 -2.75803 -1.17783 0
M  V30 3376 H 321.257 -1.45173 -0.579181 0
M  V30 3377 H 321.992 -1.02379 -3.07716 0
M  V30 3378 H 321.777 -2.77198 -2.77315 0
M  V30 3379 H 323.267 -2.17629 -3.56409 0
M  V30 3380 N 323.704 0.605807 -1.45491 0
M  V30 3381 C 325.12 0.926751 -1.29936 0
M  V30 3382 C 325.32 1.99896 -0.253706 0
M  V30 3383 O 324.376 2.50038 0.351737 0
M  V30 3384 C 325.689 1.36599 -2.67883 0
M  V30 3385 C 327.237 1.4801 -2.75793 0
M  V30 3386 C 327.712 1.95309 -4.14268 0
M  V30 3387 N 329.203 2.0254 -4.16571 0
M  V30 3388 C 329.938 2.40363 -5.20589 0
M  V30 3389 N 329.434 2.77143 -6.34952 0
M  V30 3390 N 331.227 2.40718 -5.07948 0
M  V30 3391 H 323.378 -0.102862 -2.12151 0
M  V30 3392 H 325.641 0.016639 -0.947854 0
M  V30 3393 H 325.347 0.652306 -3.45598 0
M  V30 3394 H 325.221 2.33215 -2.96463 0
M  V30 3395 H 327.608 2.1847 -1.98381 0
M  V30 3396 H 327.689 0.497041 -2.50925 0
M  V30 3397 H 327.333 1.25436 -4.92167 0
M  V30 3398 H 327.263 2.94532 -4.3653 0
M  V30 3399 H 329.754 1.76699 -3.34045 0
M  V30 3400 H 330.067 3.0489 -7.10114 0
M  V30 3401 H 328.412 2.74834 -6.3835 0
M  V30 3402 H 331.603 2.11392 -4.1765 0
M  V30 3403 H 331.776 2.69869 -5.89131 0
M  V30 3404 N 325.182 1.32811 0.848464 0
M  V30 3405 C 326.43 1.23479 1.59991 0
M  V30 3406 C 326.751 -0.201853 1.93952 0
M  V30 3407 O 326.021 -1.12818 1.60153 0
M  V30 3408 H 324.601 0.454034 0.593179 0
M  V30 3409 H 327.263 1.66412 1.01455 0
M  V30 3410 H 326.359 1.82178 2.53412 0
M  V30 3411 N 326.66 -1.06551 1.16123 0
M  V30 3412 C 327.885 -1.83544 0.965735 0
M  V30 3413 C 328.31 -1.81843 -0.481102 0
M  V30 3414 O 327.668 -1.21732 -1.34354 0
M  V30 3415 C 327.716 -3.28169 1.49457 0
M  V30 3416 O 326.82 -4.0643 0.699157 0
M  V30 3417 H 326.161 -0.568026 0.343864 0
M  V30 3418 H 328.691 -1.34362 1.54299 0
M  V30 3419 H 328.701 -3.78992 1.51092 0
M  V30 3420 H 327.376 -3.28722 2.54784 0
M  V30 3421 H 325.953 -3.65216 0.7531 0
M  V30 3422 N 328.138 -0.959301 -1.25041 0
M  V30 3423 C 329.549 -0.65667 -1.74771 0
M  V30 3424 C 329.9 0.827852 -1.77879 0
M  V30 3425 O 329.025 1.64783 -1.40269 0
M  V30 3426 C 329.62 -1.1853 -3.1739 0
M  V30 3427 C 328.179 -0.932734 -3.6466 0
M  V30 3428 C 327.326 -1.32558 -2.43564 0
M  V30 3429 H 330.277 -1.13558 -1.10862 0
M  V30 3430 H 330.298 -0.547582 -3.76539 0
M  V30 3431 H 329.81 -2.26576 -3.15095 0
M  V30 3432 H 327.911 0.13257 -3.72364 0
M  V30 3433 H 328.024 -1.57248 -4.52559 0
M  V30 3434 H 326.388 -0.743956 -2.43593 0
M  V30 3435 H 327.171 -2.41537 -2.43957 0
M  V30 3436 N 329.616 1.39756 -0.72842 0
M  V30 3437 C 331.027 1.83498 -0.344289 0
M  V30 3438 C 331.378 1.60868 1.12321 0
M  V30 3439 O 330.503 1.09634 1.86573 0
M  V30 3440 C 331.098 3.33114 -0.618112 0
M  V30 3441 C 329.657 3.753 -0.287549 0
M  V30 3442 C 328.804 2.62831 -0.884048 0
M  V30 3443 H 331.755 1.28842 -0.926578 0
M  V30 3444 H 331.776 3.80334 0.112349 0
M  V30 3445 H 331.288 3.49553 -1.68625 0
M  V30 3446 H 329.389 3.64451 0.775012 0
M  V30 3447 H 329.502 4.72945 -0.765512 0
M  V30 3448 H 327.866 2.52792 -0.311149 0
M  V30 3449 H 328.649 2.82078 -1.95671 0
M  V30 3450 N 331.094 0.475555 1.50254 0
M  V30 3451 C 332.319 -0.0777042 2.07254 0
M  V30 3452 C 332.744 -1.3235 1.3366 0
M  V30 3453 O 332.102 -1.77152 0.385597 0
M  V30 3454 C 332.15 -0.340169 3.58992 0
M  V30 3455 O 331.254 -1.41982 3.87188 0
M  V30 3456 H 330.595 0.0149556 0.663832 0
M  V30 3457 H 333.125 0.667878 1.93392 0
M  V30 3458 H 333.135 -0.579332 4.03866 0
M  V30 3459 H 331.81 0.570167 4.11973 0
M  V30 3460 H 330.387 -1.16762 3.54148 0
M  V30 3461 N 332.573 -1.56217 0.208337 0
M  V30 3462 C 333.503 -2.22694 -0.702116 0
M  V30 3463 C 334.484 -1.19432 -1.2112 0
M  V30 3464 O 335.669 -1.47978 -1.25762 0
M  V30 3465 C 332.799 -2.8966 -1.9161 0
M  V30 3466 C 331.753 -3.9928 -1.5414 0
M  V30 3467 C 331.079 -4.53476 -2.83308 0
M  V30 3468 C 332.379 -5.17012 -0.741339 0
M  V30 3469 H 334.073 -2.99034 -0.147898 0
M  V30 3470 H 331.619 -1.43831 -0.0696951 0
M  V30 3471 H 333.572 -3.34852 -2.55836 0
M  V30 3472 H 332.296 -2.10746 -2.49507 0
M  V30 3473 H 330.955 -3.54799 -0.922668 0
M  V30 3474 H 330.603 -3.71308 -3.39322 0
M  V30 3475 H 330.303 -5.27451 -2.58976 0
M  V30 3476 H 331.827 -5.01378 -3.485 0
M  V30 3477 H 333.241 -5.58667 -1.28699 0
M  V30 3478 H 331.638 -5.97137 -0.595627 0
M  V30 3479 H 332.708 -4.8423 0.254851 0
M  V30 3480 N 334.051 0.0651679 -1.57465 0
M  V30 3481 C 335.014 1.06117 -2.03155 0
M  V30 3482 C 336.014 1.31204 -0.929632 0
M  V30 3483 O 337.204 1.26813 -1.19432 0
M  V30 3484 C 334.336 2.4032 -2.41783 0
M  V30 3485 H 335.529 0.667231 -2.92383 0
M  V30 3486 H 333.082 0.311075 -1.53173 0
M  V30 3487 H 333.817 2.84532 -1.55601 0
M  V30 3488 H 333.602 2.23451 -3.22199 0
M  V30 3489 H 335.092 3.11898 -2.77685 0
M  V30 3490 N 335.529 1.53961 0.336706 0
M  V30 3491 C 336.754 1.75797 1.10046 0
M  V30 3492 C 337.179 0.498985 1.81361 0
M  V30 3493 O 336.537 -0.548769 1.72795 0
M  V30 3494 C 336.585 2.94257 2.08436 0
M  V30 3495 O 335.689 2.64883 3.16087 0
M  V30 3496 H 335.03 0.582936 0.317934 0
M  V30 3497 H 337.56 2.00945 0.38501 0
M  V30 3498 H 337.57 3.21237 2.51537 0
M  V30 3499 H 336.245 3.85564 1.55927 0
M  V30 3500 H 334.822 2.48812 2.77753 0
M  V30 3501 N 337.007 -0.598083 1.45811 0
M  V30 3502 C 338.232 -1.3881 1.54099 0
M  V30 3503 C 338.657 -1.8726 0.177578 0
M  V30 3504 O 338.015 -1.6069 -0.839541 0
M  V30 3505 C 338.063 -2.56217 2.53743 0
M  V30 3506 O 337.167 -3.5716 2.06182 0
M  V30 3507 H 336.508 -0.414024 0.519115 0
M  V30 3508 H 339.038 -0.726971 1.91249 0
M  V30 3509 H 339.048 -3.03337 2.72856 0
M  V30 3510 H 337.723 -2.20303 3.5276 0
M  V30 3511 H 336.3 -3.16624 1.96987 0
M  V30 3512 N 338.485 -1.33259 -0.841409 0
M  V30 3513 C 339.71 -1.2775 -1.63385 0
M  V30 3514 C 340.135 0.149188 -1.87507 0
M  V30 3515 O 339.493 1.10498 -1.43736 0
M  V30 3516 C 339.541 -2.05571 -2.96265 0
M  V30 3517 O 338.645 -1.41257 -3.87453 0
M  V30 3518 H 337.986 -0.439627 -0.497618 0
M  V30 3519 H 340.516 -1.75782 -1.04699 0
M  V30 3520 H 340.526 -2.16241 -3.45982 0
M  V30 3521 H 339.201 -3.09309 -2.7803 0
M  V30 3522 H 337.778 -1.39217 -3.45938 0
M  V30 3523 N 339.963 1.05934 -1.16686 0
M  V30 3524 C 340.926 2.11669 -0.879144 0
M  V30 3525 C 341.926 1.60294 0.127445 0
M  V30 3526 O 343.116 1.7389 -0.103865 0
M  V30 3527 C 340.248 3.39438 -0.315425 0
M  V30 3528 H 341.441 2.38626 -1.81653 0
M  V30 3529 H 338.994 1.22058 -0.976299 0
M  V30 3530 H 339.729 3.18132 0.629468 0
M  V30 3531 H 339.514 3.78034 -1.04079 0
M  V30 3532 H 341.004 4.17391 -0.132189 0
M  V30 3533 N 341.441 0.965919 1.2453 0
M  V30 3534 C 342.666 0.643971 1.97149 0
M  V30 3535 C 343.091 -0.779487 1.71189 0
M  V30 3536 O 342.449 -1.5288 0.974553 0
M  V30 3537 C 342.497 0.922557 3.48599 0
M  V30 3538 O 341.601 0.00707672 4.12399 0
M  V30 3539 H 340.942 0.243647 0.617683 0
M  V30 3540 H 343.472 1.29558 1.58353 0
M  V30 3541 H 343.482 0.853373 3.98976 0
M  V30 3542 H 342.157 1.95996 3.66822 0
M  V30 3543 H 340.734 0.12943 3.72675 0
M  V30 3544 N 342.919 -1.39368 0.735821 0
M  V30 3545 C 343.851 -2.2913 0.0567723 0
M  V30 3546 C 344.864 -1.46859 -0.702589 0
M  V30 3547 O 346.053 -1.69925 -0.546616 0
M  V30 3548 C 343.153 -3.25492 -0.943823 0
M  V30 3549 C 342.326 -4.36709 -0.24581 0
M  V30 3550 C 341.385 -5.13376 -1.15463 0
M  V30 3551 O 340.411 -5.65683 -0.631803 0
M  V30 3552 N 341.613 -5.24656 -2.48427 0
M  V30 3553 H 344.378 -2.88047 0.827582 0
M  V30 3554 H 341.939 -1.50957 0.585112 0
M  V30 3555 H 343.931 -3.73657 -1.55443 0
M  V30 3556 H 342.501 -2.676 -1.61583 0
M  V30 3557 H 341.721 -3.9041 0.545286 0
M  V30 3558 H 343.009 -5.08244 0.237891 0
M  V30 3559 H 342.407 -4.83679 -2.93379 0
M  V30 3560 H 340.964 -5.76258 -3.04582 0
M  V30 3561 N 344.397 -0.483516 -1.5 0
M  V30 3562 C 345.327 0.293829 -2.31644 0
M  V30 3563 C 346.308 0.978864 -1.39112 0
M  V30 3564 O 347.493 0.973644 -1.68029 0
M  V30 3565 C 344.623 1.36897 -3.19181 0
M  V30 3566 C 343.577 0.804833 -4.20365 0
M  V30 3567 C 342.903 1.9792 -4.96721 0
M  V30 3568 C 344.203 -0.192313 -5.21946 0
M  V30 3569 H 345.897 -0.387616 -2.9688 0
M  V30 3570 H 343.443 -0.187856 -1.42769 0
M  V30 3571 H 345.396 1.92037 -3.751 0
M  V30 3572 H 344.12 2.07936 -2.51853 0
M  V30 3573 H 342.779 0.275319 -3.65565 0
M  V30 3574 H 342.427 2.67686 -4.25856 0
M  V30 3575 H 342.127 1.60789 -5.65173 0
M  V30 3576 H 343.651 2.53526 -5.55479 0
M  V30 3577 H 345.065 0.270333 -5.72662 0
M  V30 3578 H 343.462 -0.478543 -5.98189 0
M  V30 3579 H 344.532 -1.11409 -4.71928 0
M  V30 3580 N 345.875 1.56104 -0.216619 0
M  V30 3581 C 347.1 2.0301 0.424462 0
M  V30 3582 C 347.525 1.0955 1.52907 0
M  V30 3583 O 346.883 0.0827914 1.81111 0
M  V30 3584 C 346.931 3.4819 0.937883 0
M  V30 3585 O 346.035 3.57865 2.04955 0
M  V30 3586 H 345.376 0.656925 0.0966755 0
M  V30 3587 H 347.906 2.01859 -0.33381 0
M  V30 3588 H 347.916 3.88413 1.24897 0
M  V30 3589 H 346.591 4.15699 0.129387 0
M  V30 3590 H 345.168 3.29527 1.74546 0
M  V30 3591 N 347.353 -0.0568162 1.57498 0
M  V30 3592 C 348.316 -1.05038 2.03715 0
M  V30 3593 C 349.316 -1.30709 0.936577 0
M  V30 3594 O 350.506 -1.26178 1.20103 0
M  V30 3595 C 347.638 -2.39034 2.43055 0
M  V30 3596 H 348.831 -0.651715 2.92733 0
M  V30 3597 H 346.384 -0.302947 1.53336 0
M  V30 3598 H 347.119 -2.83703 1.57108 0
M  V30 3599 H 346.904 -2.21739 3.2338 0
M  V30 3600 H 348.394 -3.10421 2.79336 0
M  V30 3601 N 348.832 -1.54138 -0.328536 0
M  V30 3602 C 350.243 -1.63395 -0.903272 0
M  V30 3603 C 350.594 -0.524828 -1.8905 0
M  V30 3604 O 349.719 0.343068 -2.13663 0
M  V30 3605 C 350.314 -2.9618 -1.64507 0
M  V30 3606 C 348.873 -3.0765 -2.1686 0
M  V30 3607 C 348.02 -2.58933 -0.992416 0
M  V30 3608 H 350.971 -1.58344 -0.106253 0
M  V30 3609 H 350.992 -2.86061 -2.50897 0
M  V30 3610 H 350.504 -3.76884 -0.926302 0
M  V30 3611 H 348.605 -2.31611 -2.91868 0
M  V30 3612 H 348.718 -4.1337 -2.42202 0
M  V30 3613 H 347.082 -2.14706 -1.37016 0
M  V30 3614 H 347.865 -3.42089 -0.288041 0
M  V30 3615 N 350.31 0.590341 -1.46126 0
M  V30 3616 C 351.535 1.37991 -1.54833 0
M  V30 3617 C 351.96 1.87163 -0.187506 0
M  V30 3618 O 351.318 1.61133 0.831008 0
M  V30 3619 C 351.366 2.54867 -2.55098 0
M  V30 3620 O 350.47 3.56061 -2.08073 0
M  V30 3621 H 349.811 0.411265 -0.521303 0
M  V30 3622 H 352.341 0.716819 -1.91632 0
M  V30 3623 H 352.351 3.01886 -2.74461 0
M  V30 3624 H 351.026 2.18429 -3.53923 0
M  V30 3625 H 349.603 3.15574 -1.98664 0
M  V30 3626 N 351.788 1.33704 0.83433 0
M  V30 3627 C 352.718 1.26967 1.95963 0
M  V30 3628 C 353.699 0.149337 1.69443 0
M  V30 3629 O 354.884 0.339852 1.91203 0
M  V30 3630 C 352.014 1.01275 3.32206 0
M  V30 3631 C 350.968 2.09652 3.73136 0
M  V30 3632 C 350.294 1.69166 5.07235 0
M  V30 3633 C 351.594 3.51372 3.86439 0
M  V30 3634 H 353.288 2.2112 2.01857 0
M  V30 3635 H 350.834 1.06447 0.969793 0
M  V30 3636 H 352.787 0.952106 4.10503 0
M  V30 3637 H 351.511 0.0356203 3.26581 0
M  V30 3638 H 350.17 2.14766 2.97104 0
M  V30 3639 H 349.818 0.701437 4.98085 0
M  V30 3640 H 349.518 2.41694 5.35591 0
M  V30 3641 H 351.042 1.64576 5.88003 0
M  V30 3642 H 352.456 3.48734 4.55036 0
M  V30 3643 H 350.853 4.22425 4.26236 0
M  V30 3644 H 351.923 3.89546 2.88759 0
M  V30 3645 N 353.266 -1.05314 1.17247 0
M  V30 3646 C 354.213 -2.13031 0.888058 0
M  V30 3647 C 355.183 -1.65253 -0.167537 0
M  V30 3648 O 356.368 -1.90775 -0.0305974 0
M  V30 3649 C 353.508 -3.42702 0.406147 0
M  V30 3650 C 352.621 -4.04161 1.52572 0
M  V30 3651 C 351.756 -5.21744 0.997808 0
M  V30 3652 C 350.795 -5.75207 2.09291 0
M  V30 3653 N 349.932 -6.84094 1.57986 0
M  V30 3654 H 354.772 -2.36698 1.81048 0
M  V30 3655 H 352.309 -1.16121 0.903013 0
M  V30 3656 H 354.267 -4.17059 0.108305 0
M  V30 3657 H 352.897 -3.19222 -0.479313 0
M  V30 3658 H 351.949 -3.27253 1.93931 0
M  V30 3659 H 353.261 -4.39881 2.35172 0
M  V30 3660 H 352.415 -6.03168 0.653739 0
M  V30 3661 H 351.154 -4.87495 0.141232 0
M  V30 3662 H 350.159 -4.92414 2.44557 0
M  V30 3663 H 351.384 -6.11505 2.95362 0
M  V30 3664 H 349.33 -6.51745 0.74598 0
M  V30 3665 H 349.247 -7.18811 2.34195 0
M  V30 3666 H 350.515 -7.69172 1.26468 0
M  V30 3667 N 354.744 -0.972509 -1.24016 0
M  V30 3668 C 355.707 -0.511403 -2.23422 0
M  V30 3669 C 356.707 0.394679 -1.55881 0
M  V30 3670 O 357.897 0.189469 -1.73167 0
M  V30 3671 C 355.029 0.258769 -3.39916 0
M  V30 3672 H 356.222 -1.39024 -2.6573 0
M  V30 3673 H 353.775 -0.757585 -1.36713 0
M  V30 3674 H 354.51 1.1545 -3.03054 0
M  V30 3675 H 354.295 -0.391522 -3.9014 0
M  V30 3676 H 355.785 0.570244 -4.13688 0
M  V30 3677 N 356.222 1.38976 -0.743202 0
M  V30 3678 C 357.45 2.04636 -0.30525 0
M  V30 3679 C 357.865 1.56044 1.06281 0
M  V30 3680 O 357.222 0.728921 1.67311 0
M  V30 3681 C 357.273 3.60193 -0.307177 0
M  V30 3682 O 356.994 4.06998 -1.62124 0
M  V30 3683 C 358.495 4.4306 0.145928 0
M  V30 3684 H 355.715 0.65788 -0.132041 0
M  V30 3685 H 358.259 1.77866 -1.00915 0
M  V30 3686 H 356.414 3.85835 0.347898 0
M  V30 3687 H 356.828 5.01371 -1.54036 0
M  V30 3688 H 358.302 5.51921 0.0934183 0
M  V30 3689 H 358.779 4.22706 1.19231 0
M  V30 3690 H 359.385 4.22584 -0.479886 0
M  V30 3691 N 357.7 0.491464 1.49741 0
M  V30 3692 C 358.94 -0.0549118 2.04326 0
M  V30 3693 C 359.304 -1.35148 1.36378 0
M  V30 3694 O 360.505 -1.9815 1.81631 0
M  V30 3695 C 358.776 -0.213841 3.5676 0
M  V30 3696 S 360.335 -0.715839 4.32922 0
M  V30 3697 H 357.153 -0.00630513 0.710972 0
M  V30 3698 H 359.755 0.663257 1.83905 0
M  V30 3699 H 358.459 0.73527 4.0376 0
M  V30 3700 H 357.99 -0.957529 3.81569 0
M  V30 3701 H 360.005 -1.9864 4.54705 0
M  V30 3702 N 359.178 -1.55987 0.224894 0
M  V30 3703 C 360.406 -2.02784 -0.410665 0
M  V30 3704 C 360.821 -1.10464 -1.53112 0
M  V30 3705 O 360.178 -0.114871 -1.82138 0
M  V30 3706 C 360.229 -3.49087 -0.939165 0
M  V30 3707 O 359.95 -4.37887 0.136614 0
M  V30 3708 C 361.451 -4.11543 -1.64763 0
M  V30 3709 H 358.671 -0.663484 -0.100148 0
M  V30 3710 H 361.215 -2.01614 0.342326 0
M  V30 3711 H 359.37 -3.50861 -1.64242 0
M  V30 3712 H 359.784 -5.23849 -0.261155 0
M  V30 3713 H 361.258 -5.15673 -1.96939 0
M  V30 3714 H 361.735 -3.56736 -2.56195 0
M  V30 3715 H 362.341 -4.13629 -0.989503 0
M  V30 3716 N 360.656 0.0484629 -1.57525 0
M  V30 3717 C 361.884 0.755421 -1.92616 0
M  V30 3718 C 362.299 1.69919 -0.822984 0
M  V30 3719 O 361.656 1.81378 0.202085 0
M  V30 3720 C 361.707 1.52915 -3.27566 0
M  V30 3721 O 361.428 0.62329 -4.33644 0
M  V30 3722 C 362.929 2.33502 -3.76818 0
M  V30 3723 H 360.149 0.213465 -0.63614 0
M  V30 3724 H 362.693 0.0117698 -2.04497 0
M  V30 3725 H 360.848 2.22486 -3.17142 0
M  V30 3726 H 361.262 1.16383 -5.11425 0
M  V30 3727 H 362.736 2.83214 -4.73808 0
M  V30 3728 H 363.213 3.14068 -3.07014 0
M  V30 3729 H 363.819 1.69043 -3.90262 0
M  V30 3730 N 362.134 1.5431 0.320358 0
M  V30 3731 C 363.55 1.45091 0.664889 0
M  V30 3732 C 363.75 0.626382 1.91517 0
M  V30 3733 O 362.806 0.126443 2.52183 0
M  V30 3734 C 364.119 2.88848 0.83591 0
M  V30 3735 C 365.667 2.9877 0.933046 0
M  V30 3736 C 366.142 4.43683 1.13621 0
M  V30 3737 N 367.633 4.47309 1.20287 0
M  V30 3738 C 368.368 5.56595 1.37801 0
M  V30 3739 N 367.864 6.75844 1.52338 0
M  V30 3740 N 369.657 5.44248 1.40535 0
M  V30 3741 H 361.808 2.06398 -0.501374 0
M  V30 3742 H 364.071 0.933963 -0.162534 0
M  V30 3743 H 363.777 3.51698 -0.0116092 0
M  V30 3744 H 363.651 3.35148 1.73078 0
M  V30 3745 H 366.038 2.36045 1.77107 0
M  V30 3746 H 366.119 2.55796 0.0145782 0
M  V30 3747 H 365.763 5.06995 0.303032 0
M  V30 3748 H 365.693 4.84269 2.0686 0
M  V30 3749 H 368.184 3.61388 1.10485 0
M  V30 3750 H 368.497 7.54892 1.65403 0
M  V30 3751 H 366.842 6.78746 1.4943 0
M  V30 3752 H 370.033 4.50038 1.28777 0
M  V30 3753 H 370.206 6.29473 1.53842 0
M  V30 3754 N 363.613 -0.582584 1.46437 0
M  V30 3755 C 364.563 -1.68654 1.53426 0
M  V30 3756 C 365.547 -1.55971 0.395194 0
M  V30 3757 O 366.739 -1.64884 0.643612 0
M  V30 3758 C 363.868 -3.07439 1.52762 0
M  V30 3759 C 362.954 -3.25418 2.71963 0
M  V30 3760 N 363.345 -3.13556 3.96883 0
M  V30 3761 C 361.643 -3.56357 2.68189 0
M  V30 3762 C 362.344 -3.33543 4.76575 0
M  V30 3763 N 361.32 -3.58704 4.08451 0
M  V30 3764 H 365.122 -1.58014 2.47808 0
M  V30 3765 H 362.636 -0.786617 1.42078 0
M  V30 3766 H 364.633 -3.86671 1.55857 0
M  V30 3767 H 363.293 -3.1921 0.594573 0
M  V30 3768 H 364.304 -2.9142 4.28129 0
M  V30 3769 H 360.981 -3.74812 1.83908 0
M  V30 3770 H 362.371 -3.29555 5.85528 0
M  V30 3771 N 365.091 -1.34144 -0.827227 0
M  V30 3772 C 366.368 -1.16844 -1.56865 0
M  V30 3773 C 366.748 0.260654 -2.09485 0
M  V30 3774 O 366.096 1.26138 -1.9053 0
M  V30 3775 C 366.306 -2.21939 -2.6934 0
M  V30 3776 C 367.654 -2.56695 -3.3822 0
M  V30 3777 O 368.678 -2.20695 -2.79593 0
M  V30 3778 O 367.537 -3.18518 -4.44082 0
M  V30 3779 H 364.631 -0.452669 -0.692112 0
M  V30 3780 H 367.177 -1.45763 -0.868973 0
M  V30 3781 H 365.949 -3.17882 -2.28182 0
M  V30 3782 H 365.572 -1.94172 -3.46962 0
M  V30 3783 N 366.569 1.04691 -1.17803 0
M  V30 3784 C 367.794 1.81984 -0.994813 0
M  V30 3785 C 368.219 1.82586 0.452112 0
M  V30 3786 O 367.577 1.23854 1.324 0
M  V30 3787 C 367.625 3.2575 -1.54659 0
M  V30 3788 O 366.729 4.05267 -0.763728 0
M  V30 3789 H 366.07 0.562483 -0.352857 0
M  V30 3790 H 368.6 1.3189 -1.56417 0
M  V30 3791 H 368.61 3.76541 -1.57102 0
M  V30 3792 H 367.285 3.24627 -2.59981 0
M  V30 3793 H 365.862 3.63972 -0.811108 0
M  V30 3794 N 368.047 0.979072 1.23499 0
M  V30 3795 C 369.458 0.684391 1.73704 0
M  V30 3796 C 369.809 -0.799448 1.79174 0
M  V30 3797 O 368.934 -1.62531 1.42873 0
M  V30 3798 C 369.529 1.23564 3.15464 0
M  V30 3799 C 368.088 0.99063 3.6313 0
M  V30 3800 C 367.235 1.36416 2.41425 0
M  V30 3801 H 370.186 1.15307 1.09041 0
M  V30 3802 H 370.207 0.607417 3.7562 0
M  V30 3803 H 369.719 2.31561 3.1145 0
M  V30 3804 H 367.82 -0.0733136 3.72528 0
M  V30 3805 H 367.933 1.64427 4.5 0
M  V30 3806 H 366.297 0.782616 2.42378 0
M  V30 3807 H 367.08 2.45387 2.40083 0
M  V30 3808 N 369.525 -1.3858 0.750561 0
M  V30 3809 C 370.802 -1.94231 0.231009 0
M  V30 3810 C 371.182 -1.68611 -1.27018 0
M  V30 3811 O 370.53 -1.02296 -2.04323 0
M  V30 3812 C 370.74 -3.44123 0.581428 0
M  V30 3813 C 372.088 -4.2116 0.539389 0
M  V30 3814 O 373.112 -3.52391 0.519541 0
M  V30 3815 O 371.971 -5.43749 0.54765 0
M  V30 3816 H 369.065 -0.825639 0.0474263 0
M  V30 3817 H 371.611 -1.4799 0.830478 0
M  V30 3818 H 370.383 -3.56267 1.61833 0
M  V30 3819 H 370.006 -3.97573 -0.0462047 0
M  V30 3820 N 371.003 -0.499398 -1.49478 0
M  V30 3821 C 371.966 0.268838 -2.27618 0
M  V30 3822 C 372.966 0.895383 -1.33565 0
M  V30 3823 O 374.156 0.760164 -1.56739 0
M  V30 3824 C 371.288 1.38559 -3.11471 0
M  V30 3825 H 372.481 -0.416812 -2.96989 0
M  V30 3826 H 370.034 -0.254313 -1.54217 0
M  V30 3827 H 370.769 2.10544 -2.46661 0
M  V30 3828 H 370.554 0.941797 -3.80621 0
M  V30 3829 H 372.044 1.92678 -3.70493 0
M  V30 3830 N 372.481 1.55866 -0.233164 0
M  V30 3831 C 373.758 1.90471 0.444988 0
M  V30 3832 C 374.138 1.15209 1.7689 0
M  V30 3833 O 373.486 0.265119 2.26957 0
M  V30 3834 C 373.696 3.4333 0.626559 0
M  V30 3835 C 375.044 4.14319 0.92871 0
M  V30 3836 O 376.068 3.48993 0.712926 0
M  V30 3837 O 374.927 5.29846 1.33887 0
M  V30 3838 H 372.021 0.792347 0.236885 0
M  V30 3839 H 374.567 1.67437 -0.276211 0
M  V30 3840 H 373.339 3.90095 -0.306822 0
M  V30 3841 H 372.962 3.72181 1.39881 0
M  V30 3842 N 373.959 -0.0401083 1.57549 0
M  V30 3843 C 374.889 -1.04384 2.08869 0
M  V30 3844 C 375.87 -1.38407 0.988817 0
M  V30 3845 O 377.055 -1.47483 1.26342 0
M  V30 3846 C 374.185 -2.34808 2.55895 0
M  V30 3847 C 373.139 -2.15057 3.70047 0
M  V30 3848 C 372.465 -3.51145 4.03239 0
M  V30 3849 C 373.765 -1.54576 4.98902 0
M  V30 3850 H 375.459 -0.616666 2.92981 0
M  V30 3851 H 373.005 -0.295184 1.40942 0
M  V30 3852 H 374.958 -3.05346 2.90417 0
M  V30 3853 H 373.682 -2.79565 1.68853 0
M  V30 3854 H 372.341 -1.46954 3.35857 0
M  V30 3855 H 371.989 -3.93529 3.13279 0
M  V30 3856 H 371.689 -3.38758 4.80122 0
M  V30 3857 H 373.213 -4.23062 4.40285 0
M  V30 3858 H 374.627 -2.15017 5.31451 0
M  V30 3859 H 373.024 -1.52796 5.80322 0
M  V30 3860 H 374.094 -0.51039 4.82206 0
M  V30 3861 N 375.437 -1.54477 -0.31217 0
M  V30 3862 C 376.686 -1.72438 -1.04633 0
M  V30 3863 C 376.999 -0.511163 -1.88803 0
M  V30 3864 O 378.205 -0.572341 -2.65399 0
M  V30 3865 C 376.661 -3.05043 -1.9099 0
M  V30 3866 C 376.269 -4.33806 -1.11877 0
M  V30 3867 C 378.013 -3.32364 -2.64073 0
M  V30 3868 C 375.92 -5.57467 -1.97445 0
M  V30 3869 H 374.85 -0.642647 -0.394361 0
M  V30 3870 H 377.501 -1.80966 -0.303929 0
M  V30 3871 H 375.883 -2.90451 -2.69173 0
M  V30 3872 H 377.057 -4.59199 -0.383843 0
M  V30 3873 H 375.372 -4.13336 -0.504252 0
M  V30 3874 H 377.969 -4.21951 -3.28423 0
M  V30 3875 H 378.312 -2.50745 -3.32314 0
M  V30 3876 H 378.845 -3.47875 -1.92944 0
M  V30 3877 H 375.584 -6.41722 -1.33692 0
M  V30 3878 H 375.104 -5.36277 -2.6864 0
M  V30 3879 H 376.783 -5.94303 -2.5576 0
M  V30 3880 N 376.915 0.57481 -1.46744 0
M  V30 3881 C 377.825 1.711 -1.60505 0
M  V30 3882 C 378.841 1.67008 -0.488307 0
M  V30 3883 O 380.017 1.86774 -0.753495 0
M  V30 3884 C 377.082 3.07608 -1.59932 0
M  V30 3885 C 376.143 3.22904 -2.82898 0
M  V30 3886 C 375.376 4.529 -2.82343 0
M  V30 3887 O 375.599 5.37278 -1.91542 0
M  V30 3888 O 374.533 4.71611 -3.73987 0
M  V30 3889 H 378.359 1.62436 -2.56609 0
M  V30 3890 H 375.944 0.742779 -1.29627 0
M  V30 3891 H 377.826 3.88877 -1.62336 0
M  V30 3892 H 376.501 3.16692 -0.669898 0
M  V30 3893 H 375.408 2.41099 -2.86046 0
M  V30 3894 H 376.741 3.18715 -3.75076 0
M  V30 3895 N 378.394 1.34581 0.820102 0
M  V30 3896 C 379.357 1.2628 1.91275 0
M  V30 3897 C 380.357 0.177344 1.59819 0
M  V30 3898 O 381.547 0.430156 1.68806 0
M  V30 3899 C 378.679 0.950327 3.27386 0
M  V30 3900 H 379.872 2.23421 2.00057 0
M  V30 3901 H 377.425 1.1891 1.0144 0
M  V30 3902 H 378.16 -0.0177938 3.24295 0
M  V30 3903 H 377.945 1.73549 3.51601 0
M  V30 3904 H 379.435 0.917492 4.07396 0
M  V30 3905 N 379.872 -1.04064 1.18357 0
M  V30 3906 C 380.82 -2.14187 0.907007 0
M  V30 3907 C 381.814 -1.68879 -0.132725 0
M  V30 3908 O 383.02 -1.79993 0.0154248 0
M  V30 3909 H 379.395 -0.699585 0.275835 0
M  V30 3910 H 381.366 -2.34711 1.84264 0
M  V30 3911 C 380.115 -3.44785 0.449254 0
M  V30 3912 H 379.438 -3.80058 1.24081 0
M  V30 3913 H 380.878 -4.22974 0.294737 0
M  V30 3914 C 379.337 -3.26391 -0.834909 0
M  V30 3915 O 379.867 -3.53973 -1.89911 0
M  V30 3916 N 378.073 -2.79726 -0.787523 0
M  V30 3917 H 377.62 -2.5748 0.0787347 0
M  V30 3918 H 377.578 -2.67798 -1.64716 0
M  V30 3919 N 381.35 -0.985608 -1.22978 0
M  V30 3920 C 382.28 -0.549649 -2.26939 0
M  V30 3921 C 383.261 0.419803 -1.64838 0
M  V30 3922 O 384.446 0.31203 -1.91677 0
M  V30 3923 C 381.576 0.143652 -3.47003 0
M  V30 3924 C 380.53 -0.743606 -4.21491 0
M  V30 3925 C 379.856 0.0822027 -5.34637 0
M  V30 3926 C 381.156 -2.03694 -4.80943 0
M  V30 3927 H 382.85 -1.41862 -2.63658 0
M  V30 3928 H 380.396 -0.683571 -1.26741 0
M  V30 3929 H 382.349 0.459985 -4.18882 0
M  V30 3930 H 381.073 1.04711 -3.09359 0
M  V30 3931 H 379.732 -1.04347 -3.51436 0
M  V30 3932 H 379.38 0.986359 -4.93234 0
M  V30 3933 H 379.08 -0.508377 -5.85397 0
M  V30 3934 H 380.604 0.392797 -6.09335 0
M  V30 3935 H 382.018 -1.78504 -5.44802 0
M  V30 3936 H 380.415 -2.57573 -5.42011 0
M  V30 3937 H 381.485 -2.72042 -4.01399 0
M  V30 3938 N 382.828 1.3818 -0.7579 0
M  V30 3939 C 383.758 2.33027 -0.148597 0
M  V30 3940 C 384.739 1.55085 0.69875 0
M  V30 3941 O 385.924 1.83384 0.639053 0
M  V30 3942 C 383.054 3.3928 0.742034 0
M  V30 3943 C 382.008 4.28 -0.00291946 0
M  V30 3944 C 381.334 5.25146 1.00625 0
M  V30 3945 C 382.634 5.08938 -1.17385 0
M  V30 3946 H 384.328 2.84231 -0.940909 0
M  V30 3947 H 381.874 1.36659 -0.453908 0
M  V30 3948 H 383.827 4.046 1.17799 0
M  V30 3949 H 382.551 2.86569 1.56671 0
M  V30 3950 H 381.21 3.64192 -0.419504 0
M  V30 3951 H 380.858 4.68721 1.8251 0
M  V30 3952 H 380.558 5.85361 0.512428 0
M  V30 3953 H 382.082 5.93342 1.44143 0
M  V30 3954 H 383.496 5.67474 -0.815224 0
M  V30 3955 H 381.893 5.7841 -1.59882 0
M  V30 3956 H 382.963 4.42424 -1.98468 0
M  V30 3957 N 384.306 0.507319 1.49211 0
M  V30 3958 C 385.552 -0.0269732 2.03382 0
M  V30 3959 C 385.907 -1.34111 1.37957 0
M  V30 3960 O 385.2 -1.84733 0.508351 0
M  V30 3961 C 385.394 -0.229513 3.56662 0
M  V30 3962 C 385.223 1.06344 4.36945 0
M  V30 3963 C 383.993 1.617 4.78729 0
M  V30 3964 C 386.191 1.96833 4.75143 0
M  V30 3965 N 384.173 2.8552 5.43463 0
M  V30 3966 C 385.544 3.0523 5.39661 0
M  V30 3967 C 387.599 1.97434 4.57082 0
M  V30 3968 C 386.302 4.14265 5.88028 0
M  V30 3969 C 388.328 3.05448 5.06414 0
M  V30 3970 C 387.69 4.12564 5.70938 0
M  V30 3971 H 383.789 0.0310673 0.781383 0
M  V30 3972 H 386.373 0.683579 1.82305 0
M  V30 3973 H 384.544 -0.909127 3.7761 0
M  V30 3974 H 386.276 -0.761377 3.97473 0
M  V30 3975 H 383.031 1.16132 4.59141 0
M  V30 3976 H 383.455 3.48499 5.80412 0
M  V30 3977 H 388.097 1.15924 4.06597 0
M  V30 3978 H 385.815 4.96569 6.3753 0
M  V30 3979 H 389.401 3.06941 4.94246 0
M  V30 3980 H 388.281 4.94767 6.0842 0
M  V30 3981 N 385.784 -1.5574 0.241426 0
M  V30 3982 C 387.2 -1.59196 -0.113548 0
M  V30 3983 C 387.4 -1.25852 -1.57364 0
M  V30 3984 O 386.456 -1.00322 -2.31715 0
M  V30 3985 C 387.769 -2.99814 0.230695 0
M  V30 3986 C 389.317 -3.12513 0.174547 0
M  V30 3987 C 389.792 -4.55342 0.492744 0
M  V30 3988 N 391.283 -4.61076 0.443043 0
M  V30 3989 C 392.018 -5.6956 0.662484 0
M  V30 3990 N 391.514 -6.86328 0.944761 0
M  V30 3991 N 393.307 -5.58957 0.593564 0
M  V30 3992 H 385.458 -1.75685 1.19368 0
M  V30 3993 H 387.721 -0.81756 0.479896 0
M  V30 3994 H 387.427 -3.28932 1.24485 0
M  V30 3995 H 387.301 -3.74568 -0.444833 0
M  V30 3996 H 389.688 -2.83179 -0.830277 0
M  V30 3997 H 389.769 -2.40045 0.883845 0
M  V30 3998 H 389.413 -4.85396 1.4951 0
M  V30 3999 H 389.343 -5.26062 -0.23797 0
M  V30 4000 H 391.834 -3.77179 0.233374 0
M  V30 4001 H 392.147 -7.64935 1.09977 0
M  V30 4002 H 390.492 -6.88025 0.982175 0
M  V30 4003 H 393.683 -4.66611 0.373123 0
M  V30 4004 H 393.856 -6.43433 0.767981 0
M  V30 4005 N 387.262 0.0317525 -1.57568 0
M  V30 4006 C 388.194 1.06073 -2.03178 0
M  V30 4007 C 389.207 1.32627 -0.944132 0
M  V30 4008 O 390.396 1.30162 -1.22148 0
M  V30 4009 C 387.496 2.40297 -2.38978 0
M  V30 4010 C 386.669 2.33137 -3.70089 0
M  V30 4011 C 385.728 3.49787 -3.9311 0
M  V30 4012 O 384.754 3.29403 -4.64201 0
M  V30 4013 N 385.956 4.71562 -3.38541 0
M  V30 4014 H 388.721 0.672006 -2.92069 0
M  V30 4015 H 386.282 0.219745 -1.60402 0
M  V30 4016 H 388.274 3.1705 -2.51518 0
M  V30 4017 H 386.844 2.71024 -1.55771 0
M  V30 4018 H 386.064 1.415 -3.67928 0
M  V30 4019 H 387.352 2.25493 -4.56104 0
M  V30 4020 H 386.75 4.91024 -2.80912 0
M  V30 4021 H 385.307 5.45689 -3.56464 0
M  V30 4022 N 388.74 1.54641 0.303973 0
M  V30 4023 C 389.65 1.88439 1.39743 0
M  V30 4024 C 390.666 0.778239 1.55626 0
M  V30 4025 O 391.842 1.07442 1.70347 0
M  V30 4026 C 388.907 2.12212 2.74166 0
M  V30 4027 C 387.968 3.35936 2.67293 0
M  V30 4028 C 387.201 3.58566 3.95305 0
M  V30 4029 O 387.424 2.84263 4.9452 0
M  V30 4030 O 386.358 4.52078 3.97378 0
M  V30 4031 H 390.184 2.81458 1.14083 0
M  V30 4032 H 387.769 1.40793 0.499768 0
M  V30 4033 H 389.651 2.29067 3.53704 0
M  V30 4034 H 388.326 1.22379 2.99675 0
M  V30 4035 H 387.233 3.24448 1.86237 0
M  V30 4036 H 388.566 4.2589 2.46736 0
M  V30 4037 N 390.218 -0.567019 1.47046 0
M  V30 4038 C 391.151 -1.69016 1.53326 0
M  V30 4039 C 392.129 -1.57949 0.386126 0
M  V30 4040 O 393.313 -1.78945 0.592529 0
M  V30 4041 C 390.44 -3.07191 1.42658 0
M  V30 4042 C 389.486 -3.36733 2.6175 0
M  V30 4043 S 390.319 -3.27069 4.24012 0
M  V30 4044 C 391.475 -4.67755 4.1588 0
M  V30 4045 H 391.708 -1.63434 2.48348 0
M  V30 4046 H 389.241 -0.747048 1.35124 0
M  V30 4047 H 391.199 -3.86897 1.37191 0
M  V30 4048 H 389.86 -3.10249 0.490369 0
M  V30 4049 H 389.053 -4.37441 2.50323 0
M  V30 4050 H 388.655 -2.64627 2.64289 0
M  V30 4051 H 390.947 -5.58491 3.83529 0
M  V30 4052 H 391.89 -4.84239 5.16641 0
M  V30 4053 H 392.298 -4.45341 3.46889 0
M  V30 4054 N 391.696 -1.35014 -0.812953 0
M  V30 4055 C 392.944 -1.27678 -1.56661 0
M  V30 4056 C 393.265 0.150359 -1.94419 0
M  V30 4057 O 392.535 1.08532 -1.63088 0
M  V30 4058 H 391.115 -0.469602 -0.580933 0
M  V30 4059 H 393.777 -1.69043 -0.970076 0
M  V30 4060 H 392.873 -1.88833 -2.48492 0
M  V30 4061 N 393.175 1.03435 -1.18907 0
M  V30 4062 C 394.423 1.76394 -0.986382 0
M  V30 4063 C 394.744 1.88883 0.484567 0
M  V30 4064 O 394.014 1.41843 1.3512 0
M  V30 4065 H 392.594 0.65344 -0.361975 0
M  V30 4066 H 395.256 1.248 -1.49703 0
M  V30 4067 H 394.352 2.77424 -1.42978 0
M  V30 4068 N 394.653 0.992116 1.22453 0
M  V30 4069 C 395.601 0.534644 2.26372 0
M  V30 4070 C 396.595 -0.414293 1.64256 0
M  V30 4071 O 397.801 -0.286899 1.77699 0
M  V30 4072 H 394.176 0.154502 0.735957 0
M  V30 4073 H 396.147 1.42256 2.62309 0
M  V30 4074 C 394.896 -0.135815 3.47435 0
M  V30 4075 H 394.219 0.585311 3.95492 0
M  V30 4076 H 395.659 -0.419374 4.21921 0
M  V30 4077 C 394.118 -1.37089 3.07747 0
M  V30 4078 O 394.648 -2.46629 3.17076 0
M  V30 4079 N 392.854 -1.24585 2.62539 0
M  V30 4080 H 392.401 -0.354542 2.55149 0
M  V30 4081 H 392.359 -2.07327 2.36353 0
M  V30 4082 N 396.131 -1.37776 0.765217 0
M  V30 4083 C 397.38 -1.99092 0.323307 0
M  V30 4084 C 397.693 -1.61434 -1.10446 0
M  V30 4085 O 398.899 -2.15805 -1.64743 0
M  V30 4086 C 397.355 -3.56019 0.527098 0
M  V30 4087 C 396.963 -4.0262 1.96471 0
M  V30 4088 C 398.707 -4.2424 0.148483 0
M  V30 4089 C 396.614 -5.52233 2.11644 0
M  V30 4090 H 395.544 -0.744846 0.117137 0
M  V30 4091 H 398.195 -1.57391 0.943417 0
M  V30 4092 H 396.577 -3.95667 -0.162372 0
M  V30 4093 H 397.751 -3.74234 2.68859 0
M  V30 4094 H 396.066 -3.47161 2.29931 0
M  V30 4095 H 398.663 -5.34159 0.240456 0
M  V30 4096 H 399.006 -4.06446 -0.900422 0
M  V30 4097 H 399.539 -3.89872 0.79025 0
M  V30 4098 H 396.278 -5.74945 3.1483 0
M  V30 4099 H 395.798 -5.82324 1.4373 0
M  V30 4100 H 397.477 -6.18106 1.91193 0
M  V30 4101 N 397.609 -0.515225 -1.4894 0
M  V30 4102 C 398.837 0.0206034 -2.0689 0
M  V30 4103 C 399.252 1.29514 -1.37374 0
M  V30 4104 O 398.609 1.76698 -0.456529 0
M  V30 4105 C 398.66 0.26351 -3.60538 0
M  V30 4106 O 398.381 -0.960517 -4.27441 0
M  V30 4107 C 399.882 0.841383 -4.35242 0
M  V30 4108 H 397.102 -0.0268608 -0.670462 0
M  V30 4109 H 399.646 -0.716651 -1.91532 0
M  V30 4110 H 397.801 0.950777 -3.75552 0
M  V30 4111 H 398.215 -0.73212 -5.19365 0
M  V30 4112 H 399.689 0.96085 -5.43573 0
M  V30 4113 H 400.166 1.8427 -3.98674 0
M  V30 4114 H 400.772 0.191143 -4.2487 0
M  V30 4115 N 399.087 1.5561 -0.249682 0
M  V30 4116 C 400.503 1.59254 0.105103 0
M  V30 4117 C 400.703 1.26685 1.56694 0
M  V30 4118 O 399.759 1.0155 2.31179 0
M  V30 4119 C 401.072 2.99687 -0.246592 0
M  V30 4120 C 402.62 3.12416 -0.191118 0
M  V30 4121 C 403.095 4.55074 -0.516885 0
M  V30 4122 N 404.586 4.60835 -0.467489 0
M  V30 4123 C 405.321 5.69201 -0.69268 0
M  V30 4124 N 404.817 6.85817 -0.981146 0
M  V30 4125 N 406.61 5.58635 -0.623198 0
M  V30 4126 H 398.761 1.75049 -1.20298 0
M  V30 4127 H 401.024 0.815003 -0.484225 0
M  V30 4128 H 400.73 3.28267 -1.26228 0
M  V30 4129 H 400.604 3.74798 0.424962 0
M  V30 4130 H 402.991 2.83615 0.815247 0
M  V30 4131 H 403.072 2.39573 -0.896563 0
M  V30 4132 H 402.716 4.84596 -1.52082 0
M  V30 4133 H 402.646 5.26181 0.210068 0
M  V30 4134 H 405.137 3.7705 -0.253373 0
M  V30 4135 H 405.45 7.64341 -1.14032 0
M  V30 4136 H 403.795 6.87494 -1.01865 0
M  V30 4137 H 406.986 4.66406 -0.397863 0
M  V30 4138 H 407.159 6.43017 -0.802093 0
M  V30 4139 N 400.565 -0.0233959 1.57583 0
M  V30 4140 C 401.811 -0.714119 1.89811 0
M  V30 4141 C 402.144 -1.74702 0.848113 0
M  V30 4142 O 401.419 -1.94023 -0.136135 0
M  V30 4143 C 401.702 -1.37853 3.32669 0
M  V30 4144 C 401.555 -0.358764 4.48367 0
M  V30 4145 C 402.874 -2.31101 3.7454 0
M  V30 4146 H 399.993 -0.25814 0.690314 0
M  V30 4147 H 402.635 0.0230927 1.89986 0
M  V30 4148 H 400.785 -2.00689 3.3265 0
M  V30 4149 H 402.457 0.268115 4.6052 0
M  V30 4150 H 400.7 0.321387 4.32608 0
M  V30 4151 H 401.371 -0.862242 5.45224 0
M  V30 4152 H 403.847 -1.78304 3.75961 0
M  V30 4153 H 402.723 -2.74567 4.75294 0
M  V30 4154 H 402.984 -3.18018 3.0711 0
M  V30 4155 N 402.043 -1.548 -0.295768 0
M  V30 4156 C 402.953 -1.89177 -1.38742 0
M  V30 4157 C 403.969 -0.786481 -1.55211 0
M  V30 4158 O 405.145 -1.08344 -1.69775 0
M  V30 4159 C 402.21 -2.13663 -2.73036 0
M  V30 4160 C 401.271 -3.37349 -2.65508 0
M  V30 4161 C 400.504 -3.60658 -3.93398 0
M  V30 4162 O 400.727 -2.86882 -4.93006 0
M  V30 4163 O 399.661 -4.54179 -3.94975 0
M  V30 4164 H 403.487 -2.82059 -1.12589 0
M  V30 4165 H 401.072 -1.41056 -0.492295 0
M  V30 4166 H 402.954 -2.3094 -3.52484 0
M  V30 4167 H 401.629 -1.23967 -2.99022 0
M  V30 4168 H 400.536 -3.25431 -1.84514 0
M  V30 4169 H 401.869 -4.27192 -2.44474 0
M  V30 4170 N 403.521 0.559213 -1.47345 0
M  V30 4171 C 404.746 1.34676 -1.57725 0
M  V30 4172 C 405.171 1.86723 -0.227164 0
M  V30 4173 O 404.529 1.6286 0.796642 0
M  V30 4174 C 404.577 2.49399 -2.60447 0
M  V30 4175 O 403.681 3.51567 -2.15578 0
M  V30 4176 H 403.022 0.400115 -0.52991 0
M  V30 4177 H 405.552 0.676009 -1.93109 0
M  V30 4178 H 405.562 2.95996 -2.80803 0
M  V30 4179 H 404.237 2.10873 -3.58477 0
M  V30 4180 H 402.814 3.11289 -2.05313 0
M  V30 4181 N 404.999 1.35443 0.805782 0
M  V30 4182 C 405.909 1.30546 1.94923 0
M  V30 4183 C 406.925 0.210233 1.72725 0
M  V30 4184 O 408.101 0.43975 1.9654 0
M  V30 4185 C 405.166 1.07782 3.29521 0
M  V30 4186 C 404.227 2.26625 3.64609 0
M  V30 4187 C 403.46 2.04938 4.92784 0
M  V30 4188 O 403.683 1.01624 5.61274 0
M  V30 4189 O 402.617 2.9232 5.26149 0
M  V30 4190 H 406.443 2.26779 2.02002 0
M  V30 4191 H 404.028 1.15823 0.943682 0
M  V30 4192 H 405.91 0.969392 4.10098 0
M  V30 4193 H 404.585 0.146003 3.23371 0
M  V30 4194 H 403.492 2.43033 2.84404 0
M  V30 4195 H 404.825 3.18257 3.75464 0
M  V30 4196 N 406.477 -1.02803 1.19454 0
M  V30 4197 C 407.425 -2.13213 0.929673 0
M  V30 4198 C 408.419 -1.69011 -0.114806 0
M  V30 4199 O 409.625 -1.79967 0.0345147 0
M  V30 4200 H 406 -0.69662 0.28324 0
M  V30 4201 H 407.971 -2.32744 1.86743 0
M  V30 4202 C 406.72 -3.4429 0.485797 0
M  V30 4203 H 406.043 -3.7872 1.28105 0
M  V30 4204 H 407.483 -4.22638 0.339582 0
M  V30 4205 C 405.942 -3.27258 -0.800244 0
M  V30 4206 O 406.472 -3.55967 -1.86146 0
M  V30 4207 N 404.678 -2.80545 -0.75781 0
M  V30 4208 H 404.225 -2.57382 0.106039 0
M  V30 4209 H 404.183 -2.6953 -1.61867 0
M  V30 4210 N 407.956 -0.998596 -1.21925 0
M  V30 4211 C 408.903 -0.553621 -2.24062 0
M  V30 4212 C 409.873 0.416999 -1.6078 0
M  V30 4213 O 411.058 0.320482 -1.88089 0
M  V30 4214 C 408.198 0.119959 -3.44891 0
M  V30 4215 C 407.311 -0.893077 -4.22668 0
M  V30 4216 C 406.446 -0.192424 -5.30851 0
M  V30 4217 C 405.485 -1.19344 -6.00353 0
M  V30 4218 N 404.622 -0.520707 -7.00166 0
M  V30 4219 H 409.462 -1.4293 -2.61486 0
M  V30 4220 H 406.999 -0.715838 -1.28507 0
M  V30 4221 H 408.957 0.527459 -4.13852 0
M  V30 4222 H 407.587 0.959389 -3.08214 0
M  V30 4223 H 406.639 -1.41886 -3.52948 0
M  V30 4224 H 407.951 -1.65512 -4.70539 0
M  V30 4225 H 407.105 0.271515 -6.06092 0
M  V30 4226 H 405.844 0.602075 -4.83969 0
M  V30 4227 H 404.849 -1.66795 -5.23889 0
M  V30 4228 H 406.074 -1.98891 -6.49322 0
M  V30 4229 H 404.02 0.254252 -6.55507 0
M  V30 4230 H 403.937 -1.2211 -7.46073 0
M  V30 4231 H 405.205 -0.0797596 -7.79459 0
M  V30 4232 N 409.434 1.37368 -0.772513 0
M  V30 4233 C 410.68 1.99969 -0.337681 0
M  V30 4234 C 411.013 1.61184 1.08321 0
M  V30 4235 O 410.288 0.858395 1.74533 0
M  V30 4236 C 410.571 3.56858 -0.482121 0
M  V30 4237 C 410.424 4.0555 -1.94549 0
M  V30 4238 C 411.743 4.39955 0.113143 0
M  V30 4239 H 408.862 0.726464 -0.124171 0
M  V30 4240 H 411.504 1.63034 -0.975699 0
M  V30 4241 H 409.654 3.88452 0.0610361 0
M  V30 4242 H 411.326 3.84518 -2.54841 0
M  V30 4243 H 409.569 3.57715 -2.45403 0
M  V30 4244 H 410.24 5.14587 -1.9976 0
M  V30 4245 H 412.716 4.14623 -0.35031 0
M  V30 4246 H 411.592 5.48897 -0.0180514 0
M  V30 4247 H 411.853 4.25403 1.20354 0
M  V30 4248 N 410.912 0.523116 1.48665 0
M  V30 4249 C 412.158 -0.0134963 2.02796 0
M  V30 4250 C 412.491 -1.34582 1.40004 0
M  V30 4251 O 411.766 -1.86756 0.543381 0
M  V30 4252 C 412.049 -0.14276 3.59817 0
M  V30 4253 C 411.902 1.21425 4.331 0
M  V30 4254 C 413.221 -0.872856 4.31357 0
M  V30 4255 H 410.34 -0.00343074 0.736992 0
M  V30 4256 H 412.982 0.678816 1.7746 0
M  V30 4257 H 411.132 -0.732401 3.81534 0
M  V30 4258 H 412.804 1.84447 4.2282 0
M  V30 4259 H 411.047 1.79791 3.94788 0
M  V30 4260 H 411.718 1.07687 5.41394 0
M  V30 4261 H 414.194 -0.372555 4.14429 0
M  V30 4262 H 413.07 -0.932185 5.40927 0
M  V30 4263 H 413.331 -1.92161 3.98154 0
M  V30 4264 N 412.39 -1.55475 0.257931 0
M  V30 4265 C 413.639 -1.98383 -0.364275 0
M  V30 4266 C 413.952 -1.14952 -1.58258 0
M  V30 4267 O 415.158 -1.47924 -2.27664 0
M  V30 4268 C 413.614 -3.53037 -0.699479 0
M  V30 4269 C 413.222 -4.45223 0.498046 0
M  V30 4270 C 414.966 -4.04575 -1.28526 0
M  V30 4271 C 412.873 -5.91238 0.138383 0
M  V30 4272 H 411.803 -0.740911 -0.13988 0
M  V30 4273 H 414.454 -1.79936 0.359883 0
M  V30 4274 H 412.836 -3.6722 -1.48207 0
M  V30 4275 H 414.01 -4.42803 1.27522 0
M  V30 4276 H 412.325 -4.04226 0.999503 0
M  V30 4277 H 414.922 -5.11196 -1.56788 0
M  V30 4278 H 415.265 -3.5258 -2.21344 0
M  V30 4279 H 415.798 -3.93762 -0.565337 0
M  V30 4280 H 412.537 -6.47294 1.03398 0
M  V30 4281 H 412.057 -5.96768 -0.602374 0
M  V30 4282 H 413.736 -6.46413 -0.27553 0
M  V30 4283 N 413.868 0.0150385 -1.57593 0
M  V30 4284 C 414.798 1.01047 -2.10503 0
M  V30 4285 C 415.779 1.36816 -1.01071 0
M  V30 4286 O 416.964 1.45455 -1.28672 0
M  V30 4287 C 414.094 2.30708 -2.59598 0
M  V30 4288 C 413.048 2.09142 -3.73421 0
M  V30 4289 C 412.374 3.44685 -4.08774 0
M  V30 4290 C 413.674 1.46619 -5.01298 0
M  V30 4291 H 415.368 0.569978 -2.93925 0
M  V30 4292 H 412.914 0.272724 -1.41394 0
M  V30 4293 H 414.867 3.00687 -2.95238 0
M  V30 4294 H 413.591 2.76843 -1.73279 0
M  V30 4295 H 412.25 1.41592 -3.38153 0
M  V30 4296 H 411.898 3.88495 -3.195 0
M  V30 4297 H 411.598 3.31077 -4.8545 0
M  V30 4298 H 413.122 4.16004 -4.4696 0
M  V30 4299 H 414.536 2.06535 -5.34805 0
M  V30 4300 H 412.933 1.43544 -5.82679 0
M  V30 4301 H 414.003 0.433611 -4.82957 0
M  V30 4302 N 415.346 1.54954 0.287554 0
M  V30 4303 C 416.623 1.65569 1.04146 0
M  V30 4304 C 417.003 0.512672 2.0478 0
M  V30 4305 O 416.351 -0.489038 2.23205 0
M  V30 4306 C 416.561 3.04163 1.71131 0
M  V30 4307 C 417.909 3.61429 2.22832 0
M  V30 4308 O 418.933 3.06702 1.81141 0
M  V30 4309 O 417.792 4.57281 2.9926 0
M  V30 4310 H 414.886 0.671881 0.482188 0
M  V30 4311 H 417.432 1.67297 0.28457 0
M  V30 4312 H 416.204 3.78796 0.981303 0
M  V30 4313 H 415.827 3.06271 2.53543 0
M  V30 4314 N 416.824 -0.551391 1.4764 0
M  V30 4315 C 418.049 -1.33837 1.58437 0
M  V30 4316 C 418.474 -1.866 0.237063 0
M  V30 4317 O 417.832 -1.6328 -0.787994 0
M  V30 4318 C 417.88 -2.48014 2.61766 0
M  V30 4319 O 416.984 -3.50419 2.1744 0
M  V30 4320 H 416.325 -0.397299 0.532024 0
M  V30 4321 H 418.855 -0.665759 1.93465 0
M  V30 4322 H 418.865 -2.94503 2.82369 0
M  V30 4323 H 417.54 -2.08969 3.5959 0
M  V30 4324 H 416.117 -3.10196 2.06961 0
M  V30 4325 N 418.302 -1.35869 -0.798587 0
M  V30 4326 C 419.549 -1.29588 -1.55606 0
M  V30 4327 C 419.877 0.127456 -1.94082 0
M  V30 4328 O 419.132 1.09461 -1.62225 0
M  V30 4329 C 419.431 -2.1556 -2.85077 0
M  V30 4330 C 419.097 -3.6424 -2.65781 0
M  V30 4331 C 417.759 -4.04766 -2.60227 0
M  V30 4332 C 420.111 -4.58547 -2.47758 0
M  V30 4333 C 417.439 -5.37753 -2.34603 0
M  V30 4334 C 419.791 -5.91742 -2.23662 0
M  V30 4335 C 418.455 -6.31402 -2.16534 0
M  V30 4336 H 417.725 -0.474197 -0.569402 0
M  V30 4337 H 420.372 -1.67839 -0.922086 0
M  V30 4338 H 418.677 -1.70216 -3.52893 0
M  V30 4339 H 420.374 -2.08031 -3.42818 0
M  V30 4340 H 416.964 -3.32086 -2.70956 0
M  V30 4341 H 421.148 -4.28117 -2.51056 0
M  V30 4342 H 416.404 -5.67474 -2.2756 0
M  V30 4343 H 420.578 -6.6439 -2.08708 0
M  V30 4344 H 418.205 -7.34381 -1.96441 0
M  V30 4345 N 419.78 1.02168 -1.19998 0
M  V30 4346 C 421.057 1.72816 -0.916191 0
M  V30 4347 C 421.437 2.03081 0.576325 0
M  V30 4348 O 420.785 1.69122 1.53656 0
M  V30 4349 C 420.995 2.9997 -1.78378 0
M  V30 4350 C 422.343 3.73336 -2.02251 0
M  V30 4351 O 423.367 3.09914 -1.75589 0
M  V30 4352 O 422.226 4.87371 -2.47249 0
M  V30 4353 H 419.32 0.752924 -0.342103 0
M  V30 4354 H 421.866 1.08062 -1.30846 0
M  V30 4355 H 420.638 2.73888 -2.79466 0
M  V30 4356 H 420.261 3.72464 -1.39126 0
M  V30 4357 N 421.258 1.00505 1.21394 0
M  V30 4358 C 422.669 0.721082 1.72213 0
M  V30 4359 C 423.02 -0.761263 1.80829 0
M  V30 4360 O 422.145 -1.59464 1.46288 0
M  V30 4361 C 422.74 1.30228 3.12772 0
M  V30 4362 C 421.299 1.06743 3.60947 0
M  V30 4363 C 420.446 1.41507 2.38477 0
M  V30 4364 H 423.397 1.17594 1.06571 0
M  V30 4365 H 423.418 0.686955 3.74247 0
M  V30 4366 H 422.93 2.38115 3.06468 0
M  V30 4367 H 421.031 0.00572162 3.726 0
M  V30 4368 H 421.144 1.73936 4.46411 0
M  V30 4369 H 419.508 0.833852 2.40664 0
M  V30 4370 H 420.291 2.50424 2.34824 0
M  V30 4371 N 422.737 -1.36956 0.779787 0
M  V30 4372 C 423.667 -2.32761 0.185651 0
M  V30 4373 C 424.648 -1.56177 -0.673989 0
M  V30 4374 O 425.833 -1.84378 -0.609797 0
M  V30 4375 C 422.963 -3.40418 -0.687964 0
M  V30 4376 C 421.917 -4.27941 0.0710102 0
M  V30 4377 C 421.243 -5.26681 -0.922573 0
M  V30 4378 C 422.543 -5.07006 1.25467 0
M  V30 4379 H 424.237 -2.82698 0.986008 0
M  V30 4380 H 421.783 -1.3592 0.475592 0
M  V30 4381 H 423.736 -4.06423 -1.11348 0
M  V30 4382 H 422.46 -2.89025 -1.52093 0
M  V30 4383 H 421.119 -3.63478 0.47739 0
M  V30 4384 H 420.767 -4.71565 -1.7503 0
M  V30 4385 H 420.467 -5.86103 -0.419237 0
M  V30 4386 H 421.991 -5.9556 -1.34686 0
M  V30 4387 H 423.405 -5.66105 0.905401 0
M  V30 4388 H 421.802 -5.75793 1.69063 0
M  V30 4389 H 422.872 -4.3921 2.05481 0
M  V30 4390 N 424.215 -0.530993 -1.48385 0
M  V30 4391 C 425.147 0.268353 -2.27624 0
M  V30 4392 C 426.16 0.903525 -1.35426 0
M  V30 4393 O 427.349 0.781796 -1.60469 0
M  V30 4394 C 424.449 1.39535 -3.08842 0
M  V30 4395 C 423.622 0.861913 -4.28824 0
M  V30 4396 C 422.681 1.87016 -4.91845 0
M  V30 4397 O 421.707 1.4267 -5.5103 0
M  V30 4398 N 422.909 3.20238 -4.84178 0
M  V30 4399 H 425.674 -0.41123 -2.96865 0
M  V30 4400 H 423.235 -0.365387 -1.57723 0
M  V30 4401 H 425.227 2.06803 -3.47871 0
M  V30 4402 H 423.797 1.97859 -2.42014 0
M  V30 4403 H 423.017 0.0132126 -3.94198 0
M  V30 4404 H 424.305 0.484415 -5.06489 0
M  V30 4405 H 423.703 3.58932 -4.37246 0
M  V30 4406 H 422.26 3.83136 -5.27305 0
M  V30 4407 N 425.693 1.55336 -0.266172 0
M  V30 4408 C 426.656 2.20878 0.612001 0
M  V30 4409 C 427.656 1.18388 1.08816 0
M  V30 4410 O 428.846 1.4335 0.989774 0
M  V30 4411 C 425.978 2.86765 1.84332 0
M  V30 4412 H 427.171 2.99873 0.0398718 0
M  V30 4413 H 424.724 1.56291 -0.0167309 0
M  V30 4414 H 425.459 2.11759 2.45619 0
M  V30 4415 H 425.244 3.61862 1.5099 0
M  V30 4416 H 426.734 3.36867 2.46801 0
M  V30 4417 N 427.171 -0.0066808 1.57599 0
M  V30 4418 C 428.081 -1.01671 2.11424 0
M  V30 4419 C 429.097 -1.38143 1.05795 0
M  V30 4420 O 430.273 -1.47011 1.37658 0
M  V30 4421 C 427.338 -2.29192 2.60139 0
M  V30 4422 C 426.399 -1.99094 3.80342 0
M  V30 4423 C 425.632 -3.20535 4.26724 0
M  V30 4424 O 425.855 -4.3199 3.72479 0
M  V30 4425 O 424.789 -3.04924 5.18946 0
M  V30 4426 H 428.615 -0.589181 2.9793 0
M  V30 4427 H 426.2 -0.225091 1.47695 0
M  V30 4428 H 428.082 -3.0412 2.917 0
M  V30 4429 H 426.757 -2.71195 1.76733 0
M  V30 4430 H 425.664 -1.21663 3.53764 0
M  V30 4431 H 426.997 -1.61931 4.648 0
M  V30 4432 N 428.649 -1.55105 -0.279332 0
M  V30 4433 C 429.559 -1.90638 -1.36727 0
M  V30 4434 C 430.575 -0.802899 -1.54368 0
M  V30 4435 O 431.751 -1.10138 -1.68616 0
M  V30 4436 C 428.816 -2.16547 -2.70755 0
M  V30 4437 C 427.877 -3.40146 -2.61915 0
M  V30 4438 C 427.11 -3.6481 -3.8955 0
M  V30 4439 O 427.333 -2.92095 -4.89935 0
M  V30 4440 O 426.267 -4.58343 -3.90135 0
M  V30 4441 H 430.093 -2.83237 -1.09591 0
M  V30 4442 H 427.678 -1.4157 -0.477306 0
M  V30 4443 H 429.56 -2.34665 -3.50014 0
M  V30 4444 H 428.235 -1.27131 -2.9769 0
M  V30 4445 H 427.142 -3.2737 -1.81052 0
M  V30 4446 H 428.475 -4.29761 -2.3993 0
M  V30 4447 N 430.127 0.543554 -1.4793 0
M  V30 4448 C 431.404 1.30458 -1.4574 0
M  V30 4449 C 431.784 2.1048 -0.161692 0
M  V30 4450 O 431.132 2.11831 0.856734 0
M  V30 4451 C 431.342 2.19754 -2.71126 0
M  V30 4452 C 432.69 2.80334 -3.18901 0
M  V30 4453 O 433.714 2.30049 -2.71948 0
M  V30 4454 O 432.573 3.71766 -4.00565 0
M  V30 4455 H 429.667 0.588117 -0.581418 0
M  V30 4456 H 432.213 0.561328 -1.60147 0
M  V30 4457 H 430.985 1.60316 -3.56952 0
M  V30 4458 H 430.608 3.01351 -2.59371 0
M  V30 4459 N 431.605 1.3629 0.791371 0
M  V30 4460 C 432.515 1.32606 1.93527 0
M  V30 4461 C 433.531 0.228541 1.72493 0
M  V30 4462 O 434.707 0.460571 1.96063 0
M  V30 4463 C 431.772 1.11271 3.28359 0
M  V30 4464 C 430.833 2.3048 3.62185 0
M  V30 4465 C 430.066 2.10154 4.90583 0
M  V30 4466 O 430.289 1.07572 5.60165 0
M  V30 4467 O 429.223 2.97884 5.23019 0
M  V30 4468 H 433.049 2.28909 1.99585 0
M  V30 4469 H 430.634 1.16818 0.931344 0
M  V30 4470 H 432.516 1.01283 4.09047 0
M  V30 4471 H 431.191 0.180292 3.23198 0
M  V30 4472 H 430.098 2.46036 2.81811 0
M  V30 4473 H 431.431 3.22221 3.72068 0
M  V30 4474 N 433.083 -1.0153 1.20538 0
M  V30 4475 C 434.499 -1.27461 0.96051 0
M  V30 4476 C 434.699 -1.98273 -0.359193 0
M  V30 4477 O 433.755 -2.27886 -1.0874 0
M  V30 4478 C 435.068 -2.10837 2.14402 0
M  V30 4479 C 436.616 -2.24099 2.18515 0
M  V30 4480 C 437.091 -3.10852 3.36355 0
M  V30 4481 N 438.582 -3.18441 3.36377 0
M  V30 4482 C 439.317 -3.85795 4.24205 0
M  V30 4483 N 438.813 -4.55264 5.22213 0
M  V30 4484 N 440.606 -3.82331 4.12043 0
M  V30 4485 H 432.757 -0.539907 2.05423 0
M  V30 4486 H 435.02 -0.30092 0.898972 0
M  V30 4487 H 434.726 -1.66144 3.09983 0
M  V30 4488 H 434.6 -3.11576 2.12604 0
M  V30 4489 H 436.987 -2.68016 1.23497 0
M  V30 4490 H 437.068 -1.22865 2.24361 0
M  V30 4491 H 436.712 -2.6764 4.31661 0
M  V30 4492 H 436.642 -4.12177 3.27746 0
M  V30 4493 H 439.133 -2.68978 2.65442 0
M  V30 4494 H 439.446 -5.04331 5.85551 0
M  V30 4495 H 437.791 -4.54085 5.26148 0
M  V30 4496 H 440.982 -3.27207 3.34743 0
M  V30 4497 H 441.155 -4.34547 4.807 0
M  V30 4498 N 434.561 -1.01147 -1.20859 0
M  V30 4499 C 435.471 -0.58686 -2.27141 0
M  V30 4500 C 436.487 0.373198 -1.69951 0
M  V30 4501 O 437.663 0.235423 -2.00019 0
M  V30 4502 C 434.728 0.0733602 -3.46622 0
M  V30 4503 C 433.789 -0.931995 -4.19061 0
M  V30 4504 C 433.022 -0.303186 -5.32838 0
M  V30 4505 O 433.245 0.898395 -5.63281 0
M  V30 4506 O 432.179 -1.01735 -5.9324 0
M  V30 4507 H 436.005 -1.47155 -2.65667 0
M  V30 4508 H 433.59 -0.780689 -1.2738 0
M  V30 4509 H 435.472 0.442333 -4.19072 0
M  V30 4510 H 434.147 0.932329 -3.09983 0
M  V30 4511 H 433.054 -1.35224 -3.48805 0
M  V30 4512 H 434.387 -1.76076 -4.59628 0
M  V30 4513 N 436.039 1.36541 -0.78704 0
M  V30 4514 C 437.285 1.99599 -0.358872 0
M  V30 4515 C 437.618 1.62323 1.06606 0
M  V30 4516 O 436.893 0.876858 1.73613 0
M  V30 4517 C 437.176 3.56327 -0.519944 0
M  V30 4518 C 437.029 4.03464 -1.98839 0
M  V30 4519 C 438.348 4.4005 0.0664737 0
M  V30 4520 H 435.467 0.725107 -0.131869 0
M  V30 4521 H 438.109 1.6199 -0.992936 0
M  V30 4522 H 436.259 3.88495 0.0198321 0
M  V30 4523 H 437.931 3.81793 -2.58905 0
M  V30 4524 H 436.174 3.55092 -2.49183 0
M  V30 4525 H 436.845 5.12439 -2.05207 0
M  V30 4526 H 439.321 4.14228 -0.394267 0
M  V30 4527 H 438.197 5.48847 -0.0762682 0
M  V30 4528 H 438.458 4.26655 1.15835 0
M  V30 4529 N 437.518 0.538854 1.48102 0
M  V30 4530 C 438.743 0.0102694 2.07397 0
M  V30 4531 C 439.168 -1.26562 1.39153 0
M  V30 4532 O 438.526 -1.75357 0.460387 0
M  V30 4533 C 438.574 -0.187602 3.60112 0
M  V30 4534 O 437.678 -1.25432 3.92862 0
M  V30 4535 H 437.019 0.0430975 0.6626 0
M  V30 4536 H 439.549 0.749301 1.90385 0
M  V30 4537 H 439.559 -0.407517 4.0596 0
M  V30 4538 H 438.234 0.744386 4.09184 0
M  V30 4539 H 436.811 -1.01636 3.58782 0
M  V30 4540 N 438.996 -1.55193 0.274407 0
M  V30 4541 C 440.242 -1.99877 -0.343086 0
M  V30 4542 C 440.575 -1.16256 -1.55558 0
M  V30 4543 O 439.85 -0.232462 -1.93106 0
M  V30 4544 C 440.133 -3.52706 -0.725965 0
M  V30 4545 C 439.986 -4.47081 0.493818 0
M  V30 4546 C 441.305 -4.11422 -1.56268 0
M  V30 4547 H 438.424 -0.726625 -0.123229 0
M  V30 4548 H 441.066 -1.86136 0.38121 0
M  V30 4549 H 439.216 -3.64546 -1.34307 0
M  V30 4550 H 440.888 -4.47186 1.13237 0
M  V30 4551 H 439.131 -4.1877 1.13201 0
M  V30 4552 H 439.802 -5.51699 0.18217 0
M  V30 4553 H 442.278 -4.02855 -1.04151 0
M  V30 4554 H 441.154 -5.18568 -1.79939 0
M  V30 4555 H 441.415 -3.61607 -2.54348 0
M  V30 4556 N 440.474 -0.00167713 -1.576 0
M  V30 4557 C 441.885 0.54091 -1.78693 0
M  V30 4558 C 442.236 1.7386 -0.909247 0
M  V30 4559 O 441.361 2.16109 -0.112176 0
M  V30 4560 C 441.956 0.98806 -3.24072 0
M  V30 4561 C 440.515 1.47594 -3.46256 0
M  V30 4562 C 439.662 0.42792 -2.73978 0
M  V30 4563 H 442.613 -0.22784 -1.57056 0
M  V30 4564 H 442.634 1.85398 -3.32277 0
M  V30 4565 H 442.146 0.116164 -3.87926 0
M  V30 4566 H 440.247 2.36868 -2.87618 0
M  V30 4567 H 440.36 1.50225 -4.54939 0
M  V30 4568 H 438.724 0.889934 -2.38647 0
M  V30 4569 H 439.507 -0.435038 -3.40532 0
M  V30 4570 N 441.952 1.55251 0.271103 0
M  V30 4571 C 442.915 1.87484 1.31842 0
M  V30 4572 C 443.915 0.749545 1.42262 0
M  V30 4573 O 445.105 1.01771 1.4138 0
M  V30 4574 C 442.237 2.0818 2.69951 0
M  V30 4575 H 443.43 2.81108 1.0449 0
M  V30 4576 H 440.983 1.47771 0.509258 0
M  V30 4577 H 441.718 1.16944 3.02481 0
M  V30 4578 H 441.503 2.90114 2.63774 0
M  V30 4579 H 442.993 2.34385 3.4562 0
M  V30 4580 N 443.43 -0.535701 1.48216 0
M  V30 4581 C 444.34 -1.66785 1.64985 0
M  V30 4582 C 445.356 -1.65654 0.532414 0
M  V30 4583 O 446.532 -1.8471 0.80275 0
M  V30 4584 C 443.597 -3.0326 1.68031 0
M  V30 4585 C 442.658 -3.1529 2.9136 0
M  V30 4586 C 441.891 -4.45255 2.94252 0
M  V30 4587 O 442.114 -5.32011 2.05719 0
M  V30 4588 O 441.048 -4.6153 3.86359 0
M  V30 4589 H 444.874 -1.55576 2.60825 0
M  V30 4590 H 442.459 -0.70815 1.31551 0
M  V30 4591 H 444.341 -3.84436 1.72589 0
M  V30 4592 H 443.016 -3.14805 0.753628 0
M  V30 4593 H 441.923 -2.3343 2.92337 0
M  V30 4594 H 443.256 -3.08658 3.83394 0
M  V30 4595 N 444.908 -1.36708 -0.784132 0
M  V30 4596 C 446.157 -1.30559 -1.53744 0
M  V30 4597 C 446.47 0.111374 -1.95283 0
M  V30 4598 O 447.676 0.29527 -2.6989 0
M  V30 4599 C 446.132 -2.29098 -2.77565 0
M  V30 4600 C 445.74 -3.76258 -2.43174 0
M  V30 4601 C 447.484 -2.31936 -3.55536 0
M  V30 4602 C 445.391 -4.6656 -3.63422 0
M  V30 4603 H 444.321 -0.48518 -0.577162 0
M  V30 4604 H 446.972 -1.62101 -0.859981 0
M  V30 4605 H 445.354 -1.90557 -3.47137 0
M  V30 4606 H 446.528 -4.23565 -1.81465 0
M  V30 4607 H 444.843 -3.76246 -1.78403 0
M  V30 4608 H 447.44 -2.9661 -4.44889 0
M  V30 4609 H 447.783 -1.3294 -3.94503 0
M  V30 4610 H 448.316 -2.6912 -2.92949 0
M  V30 4611 H 445.055 -5.66638 -3.29547 0
M  V30 4612 H 444.575 -4.23966 -4.24279 0
M  V30 4613 H 446.254 -4.8309 -4.30387 0
M  V30 4614 N 446.386 1.0089 -1.21074 0
M  V30 4615 C 447.316 2.1145 -0.990523 0
M  V30 4616 C 448.297 1.69897 0.0831699 0
M  V30 4617 O 449.482 1.94052 -0.0758853 0
M  V30 4618 C 446.612 3.42914 -0.550177 0
M  V30 4619 C 445.566 3.98244 -1.56799 0
M  V30 4620 C 444.892 5.25568 -0.984013 0
M  V30 4621 C 446.192 4.30752 -2.95381 0
M  V30 4622 H 447.886 2.3013 -1.91521 0
M  V30 4623 H 445.432 1.10592 -0.92225 0
M  V30 4624 H 447.385 4.19653 -0.383305 0
M  V30 4625 H 446.109 3.24014 0.41015 0
M  V30 4626 H 444.768 3.23621 -1.72236 0
M  V30 4627 H 444.416 5.02998 -0.0155216 0
M  V30 4628 H 444.116 5.63551 -1.66384 0
M  V30 4629 H 445.64 6.04955 -0.828378 0
M  V30 4630 H 447.054 4.98349 -2.8341 0
M  V30 4631 H 445.451 4.79869 -3.60341 0
M  V30 4632 H 446.521 3.39192 -3.46521 0
M  V30 4633 N 447.864 1.01787 1.20321 0
M  V30 4634 C 449.28 0.732951 1.41774 0
M  V30 4635 C 449.48 -0.686883 1.89431 0
M  V30 4636 O 448.536 -1.45446 2.06402 0
M  V30 4637 C 449.849 1.75973 2.43832 0
M  V30 4638 C 451.397 1.77802 2.57596 0
M  V30 4639 C 451.872 2.7941 3.62897 0
M  V30 4640 N 453.363 2.78157 3.70382 0
M  V30 4641 C 454.098 3.53434 4.51521 0
M  V30 4642 N 453.594 4.38392 5.36455 0
M  V30 4643 N 455.387 3.42026 4.46066 0
M  V30 4644 H 447.538 1.93447 0.877035 0
M  V30 4645 H 449.801 0.835712 0.447536 0
M  V30 4646 H 449.507 2.77699 2.15815 0
M  V30 4647 H 449.381 1.57292 3.4284 0
M  V30 4648 H 451.768 0.767602 2.84942 0
M  V30 4649 H 451.849 2.00557 1.58779 0
M  V30 4650 H 451.493 3.80616 3.36295 0
M  V30 4651 H 451.423 2.53916 4.61339 0
M  V30 4652 H 453.914 2.16531 3.09714 0
M  V30 4653 H 454.227 4.92596 5.95457 0
M  V30 4654 H 452.572 4.4247 5.35953 0
M  V30 4655 H 455.763 2.75075 3.78749 0
M  V30 4656 H 455.936 4.00946 5.09064 0
M  V30 4657 N 449.342 -1.36122 0.79427 0
M  V30 4658 C 450.289 -2.29982 0.194101 0
M  V30 4659 C 451.259 -1.52214 -0.664833 0
M  V30 4660 O 452.444 -1.80702 -0.612498 0
M  V30 4661 C 449.584 -3.38706 -0.661244 0
M  V30 4662 C 448.697 -4.31456 0.216766 0
M  V30 4663 C 447.832 -5.27265 -0.645411 0
M  V30 4664 C 446.871 -6.11653 0.233756 0
M  V30 4665 N 446.008 -6.99636 -0.587682 0
M  V30 4666 H 450.848 -2.80722 0.999965 0
M  V30 4667 H 448.385 -1.38172 0.504677 0
M  V30 4668 H 450.343 -4.00394 -1.17219 0
M  V30 4669 H 448.973 -2.89274 -1.43249 0
M  V30 4670 H 448.025 -3.7088 0.845724 0
M  V30 4671 H 449.337 -4.90724 0.893973 0
M  V30 4672 H 448.491 -5.94266 -1.22198 0
M  V30 4673 H 447.23 -4.68463 -1.35623 0
M  V30 4674 H 446.235 -5.4361 0.82269 0
M  V30 4675 H 447.46 -6.72531 0.942247 0
M  V30 4676 H 445.406 -6.43337 -1.2827 0
M  V30 4677 H 445.323 -7.55993 0.0317402 0
M  V30 4678 H 446.591 -7.71001 -1.14792 0
M  V30 4679 N 450.82 -0.546701 -1.47814 0
M  V30 4680 C 452.045 -0.021268 -2.07389 0
M  V30 4681 C 452.47 1.25822 -1.39822 0
M  V30 4682 O 451.828 1.75111 -0.46968 0
M  V30 4683 C 451.876 0.168502 -3.60206 0
M  V30 4684 O 450.98 1.23347 -3.93522 0
M  V30 4685 H 450.321 -0.0466108 -0.662362 0
M  V30 4686 H 452.851 -0.759387 -1.89985 0
M  V30 4687 H 452.861 0.385982 -4.0617 0
M  V30 4688 H 451.536 -0.766075 -4.08784 0
M  V30 4689 H 450.113 0.997319 -3.59316 0
M  V30 4690 N 452.299 1.55045 -0.282633 0
M  V30 4691 C 453.715 1.59441 0.0712997 0
M  V30 4692 C 453.915 1.2998 1.53972 0
M  V30 4693 O 452.971 1.06431 2.28973 0
M  V30 4694 C 454.284 2.99097 -0.310104 0
M  V30 4695 C 455.832 3.1194 -0.257343 0
M  V30 4696 C 456.307 4.53875 -0.613297 0
M  V30 4697 N 457.798 4.5974 -0.565134 0
M  V30 4698 C 458.533 5.67603 -0.81326 0
M  V30 4699 N 458.029 6.83582 -1.1264 0
M  V30 4700 N 459.822 5.57187 -0.741553 0
M  V30 4701 H 451.973 1.72458 -1.23984 0
M  V30 4702 H 454.236 0.804549 -0.501403 0
M  V30 4703 H 453.942 3.25516 -1.33163 0
M  V30 4704 H 453.816 3.75616 0.345366 0
M  V30 4705 H 456.203 2.85281 0.754905 0
M  V30 4706 H 456.284 2.37618 -0.947178 0
M  V30 4707 H 455.928 4.81261 -1.62327 0
M  V30 4708 H 455.858 5.26508 0.09841 0
M  V30 4709 H 458.349 3.76427 -0.333294 0
M  V30 4710 H 458.662 7.6175 -1.30219 0
M  V30 4711 H 457.007 6.85179 -1.16425 0
M  V30 4712 H 460.198 4.65457 -0.496705 0
M  V30 4713 H 460.371 6.41171 -0.938306 0
M  V30 4714 N 453.777 0.010035 1.57597 0
M  V30 4715 C 454.724 -0.978122 2.09049 0
M  V30 4716 C 455.694 -1.33509 0.988159 0
M  V30 4717 O 456.879 -1.43172 1.26121 0
M  V30 4718 C 454.019 -2.26158 2.60666 0
M  V30 4719 C 453.132 -1.96275 3.84838 0
M  V30 4720 C 452.267 -3.18776 4.24918 0
M  V30 4721 C 451.306 -2.84625 5.41899 0
M  V30 4722 N 450.443 -3.99693 5.77226 0
M  V30 4723 H 455.283 -0.532431 2.93205 0
M  V30 4724 H 452.82 -0.251234 1.44939 0
M  V30 4725 H 454.778 -3.01202 2.88675 0
M  V30 4726 H 453.408 -2.68378 1.79369 0
M  V30 4727 H 452.46 -1.11555 3.63675 0
M  V30 4728 H 453.772 -1.67111 4.69974 0
M  V30 4729 H 452.926 -4.02157 4.54262 0
M  V30 4730 H 451.665 -3.51087 3.38511 0
M  V30 4731 H 450.67 -1.99653 5.12268 0
M  V30 4732 H 451.895 -2.53551 6.29991 0
M  V30 4733 H 449.841 -4.31882 4.93776 0
M  V30 4734 H 449.758 -3.74087 6.56959 0
M  V30 4735 H 451.026 -4.83834 6.11167 0
M  V30 4736 N 455.255 -1.55392 -0.262866 0
M  V30 4737 C 456.502 -1.76476 -0.993109 0
M  V30 4738 C 456.83 -0.571479 -1.85915 0
M  V30 4739 O 456.085 0.445733 -1.90556 0
M  V30 4740 C 456.384 -3.02889 -1.89718 0
M  V30 4741 C 456.05 -4.34974 -1.18781 0
M  V30 4742 C 454.712 -4.7087 -0.991699 0
M  V30 4743 C 457.064 -5.16695 -0.683798 0
M  V30 4744 C 454.392 -5.86036 -0.279024 0
M  V30 4745 C 456.744 -6.32598 0.0153327 0
M  V30 4746 C 455.408 -6.67127 0.223062 0
M  V30 4747 H 454.678 -0.64577 -0.363404 0
M  V30 4748 H 457.325 -1.89664 -0.264525 0
M  V30 4749 H 455.63 -2.84644 -2.6923 0
M  V30 4750 H 457.327 -3.16399 -2.46359 0
M  V30 4751 H 453.917 -4.06765 -1.35058 0
M  V30 4752 H 458.101 -4.8943 -0.8229 0
M  V30 4753 H 453.357 -6.11306 -0.107456 0
M  V30 4754 H 457.531 -6.95171 0.413584 0
M  V30 4755 H 455.158 -7.56216 0.777265 0
M  V30 4756 N 456.733 0.527833 -1.48498 0
M  V30 4757 C 458.144 1.10975 -1.50138 0
M  V30 4758 C 458.495 1.943 -0.272378 0
M  V30 4759 O 457.62 2.07319 0.620301 0
M  V30 4760 C 458.215 2.01927 -2.72049 0
M  V30 4761 C 456.774 2.55332 -2.76554 0
M  V30 4762 C 455.921 1.32341 -2.43683 0
M  V30 4763 H 458.872 0.312986 -1.55583 0
M  V30 4764 H 458.893 2.86244 -2.50689 0
M  V30 4765 H 458.405 1.41254 -3.61481 0
M  V30 4766 H 456.506 3.19721 -1.91336 0
M  V30 4767 H 456.619 2.94319 -3.78038 0
M  V30 4768 H 454.983 1.63989 -1.94884 0
M  V30 4769 H 455.766 0.734165 -3.35358 0
M  V30 4770 N 458.211 1.37122 0.776871 0
M  V30 4771 C 459.627 1.1781 1.07671 0
M  V30 4772 C 459.827 0.0107454 2.01497 0
M  V30 4773 O 458.883 -0.650756 2.4397 0
M  V30 4774 C 460.196 2.49451 1.67913 0
M  V30 4775 C 461.744 2.55927 1.80195 0
M  V30 4776 C 462.219 3.87686 2.43851 0
M  V30 4777 N 463.71 3.891 2.51307 0
M  V30 4778 C 464.445 4.87797 3.014 0
M  V30 4779 N 463.941 5.96888 3.51705 0
M  V30 4780 N 465.734 4.75205 3.00227 0
M  V30 4781 H 457.885 2.11843 0.153778 0
M  V30 4782 H 460.148 0.938927 0.130844 0
M  V30 4783 H 459.854 3.35207 1.06439 0
M  V30 4784 H 459.728 2.66169 2.67271 0
M  V30 4785 H 462.115 1.70582 2.40803 0
M  V30 4786 H 462.196 2.43097 0.796069 0
M  V30 4787 H 461.84 4.73444 1.83884 0
M  V30 4788 H 461.77 3.97817 3.45035 0
M  V30 4789 H 464.261 3.10293 2.157 0
M  V30 4790 H 464.574 6.68155 3.88316 0
M  V30 4791 H 462.919 6.0054 3.49824 0
M  V30 4792 H 466.11 3.89103 2.60224 0
M  V30 4793 H 466.283 5.52279 3.38957 0
M  V30 4794 N 459.689 -1.00246 1.21608 0
M  V30 4795 C 460.652 -2.07233 0.979133 0
M  V30 4796 C 461.652 -1.6072 -0.0508219 0
M  V30 4797 O 462.842 -1.73196 0.186712 0
M  V30 4798 C 459.974 -3.37546 0.477016 0
M  V30 4799 H 461.167 -2.29687 1.92831 0
M  V30 4800 H 458.72 -1.17261 1.03342 0
M  V30 4801 H 459.455 -3.20773 -0.476966 0
M  V30 4802 H 459.24 -3.72638 1.21997 0
M  V30 4803 H 460.73 -4.16285 0.331181 0
M  V30 4804 N 461.167 -1.02423 -1.1978 0
M  V30 4805 C 462.1 -0.545641 -2.21581 0
M  V30 4806 C 463.078 0.411024 -1.57319 0
M  V30 4807 O 464.262 0.329223 -1.85603 0
M  V30 4808 C 461.389 0.204973 -3.38079 0
M  V30 4809 C 460.435 -0.70241 -4.20676 0
M  V30 4810 S 461.268 -2.17595 -4.89298 0
M  V30 4811 C 462.424 -1.43572 -6.09211 0
M  V30 4812 H 462.657 -1.4082 -2.61834 0
M  V30 4813 H 460.19 -0.833771 -1.29952 0
M  V30 4814 H 462.148 0.631924 -4.05607 0
M  V30 4815 H 460.809 1.0432 -2.9627 0
M  V30 4816 H 460.002 -0.123193 -5.03849 0
M  V30 4817 H 459.604 -1.06747 -3.58442 0
M  V30 4818 H 461.896 -0.719806 -6.73665 0
M  V30 4819 H 462.839 -2.24388 -6.71607 0
M  V30 4820 H 463.247 -0.935252 -5.56699 0
M  V30 4821 N 462.645 1.35699 -0.801477 0
M  V30 4822 C 464.056 1.81415 -0.441073 0
M  V30 4823 C 464.407 1.66595 1.03636 0
M  V30 4824 O 463.532 1.19369 1.80499 0
M  V30 4825 C 464.127 3.29369 -0.793819 0
M  V30 4826 C 462.686 3.73248 -0.486083 0
M  V30 4827 C 461.833 2.57775 -1.02213 0
M  V30 4828 H 464.784 1.23749 -0.993572 0
M  V30 4829 H 464.805 3.80395 -0.0894158 0
M  V30 4830 H 464.317 3.40123 -1.86917 0
M  V30 4831 H 462.418 3.68046 0.580735 0
M  V30 4832 H 462.531 4.68222 -1.01513 0
M  V30 4833 H 460.895 2.50788 -0.444712 0
M  V30 4834 H 461.678 2.71309 -2.10348 0
M  V30 4835 N 464.123 0.554532 1.47522 0
M  V30 4836 C 465.372 0.0273458 2.01681 0
M  V30 4837 C 465.685 -1.32962 1.43459 0
M  V30 4838 O 466.891 -1.94657 1.89265 0
M  V30 4839 C 465.347 -0.00159057 3.599 0
M  V30 4840 C 464.955 1.35197 4.27113 0
M  V30 4841 C 466.699 -0.476311 4.21819 0
M  V30 4842 C 464.606 1.28229 5.77331 0
M  V30 4843 H 463.536 0.00645269 0.753972 0
M  V30 4844 H 466.187 0.701985 1.69542 0
M  V30 4845 H 464.569 -0.741821 3.8899 0
M  V30 4846 H 465.743 2.1097 4.09668 0
M  V30 4847 H 464.058 1.76441 3.77171 0
M  V30 4848 H 466.655 -0.5468 5.31897 0
M  V30 4849 H 466.998 -1.4877 3.8881 0
M  V30 4850 H 467.531 0.20898 3.97251 0
M  V30 4851 H 464.27 2.26959 6.14955 0
M  V30 4852 H 463.79 0.566314 5.97121 0
M  V30 4853 H 465.469 0.983226 6.39485 0
M  V30 4854 N 465.601 -1.54893 0.290851 0
M  V30 4855 C 466.847 -2.00949 -0.314784 0
M  V30 4856 C 467.202 -1.1757 -1.52299 0
M  V30 4857 O 466.495 -0.241558 -1.90071 0
M  V30 4858 C 466.689 -3.49815 -0.732397 0
M  V30 4859 C 466.518 -4.47603 0.433799 0
M  V30 4860 C 465.288 -4.96806 0.922599 0
M  V30 4861 C 467.486 -4.98233 1.27546 0
M  V30 4862 N 465.468 -5.78426 2.05662 0
M  V30 4863 C 466.839 -5.77455 2.25712 0
M  V30 4864 C 468.894 -4.80439 1.307 0
M  V30 4865 C 467.597 -6.40778 3.26796 0
M  V30 4866 C 469.623 -5.44574 2.30637 0
M  V30 4867 C 468.985 -6.23619 3.27533 0
M  V30 4868 H 465.084 -0.777905 -0.0799257 0
M  V30 4869 H 467.668 -1.9015 0.418458 0
M  V30 4870 H 465.839 -3.60925 -1.43483 0
M  V30 4871 H 467.571 -3.82681 -1.31671 0
M  V30 4872 H 464.326 -4.70961 0.49926 0
M  V30 4873 H 464.75 -6.23923 2.62772 0
M  V30 4874 H 469.392 -4.18918 0.571622 0
M  V30 4875 H 467.11 -7.01439 4.01258 0
M  V30 4876 H 470.696 -5.32739 2.33838 0
M  V30 4877 H 469.576 -6.72367 4.03599 0
M  V30 4878 N 467.08 -0.0183926 -1.57589 0
M  V30 4879 C 468.043 0.951986 -2.08494 0
M  V30 4880 C 469.043 1.26092 -0.997874 0
M  V30 4881 O 470.233 1.20304 -1.25987 0
M  V30 4882 C 467.365 2.27165 -2.54182 0
M  V30 4883 H 468.558 0.511307 -2.95509 0
M  V30 4884 H 466.111 0.229444 -1.54607 0
M  V30 4885 H 466.846 2.75884 -1.70465 0
M  V30 4886 H 466.631 2.06057 -3.33591 0
M  V30 4887 H 468.121 2.9674 -2.93828 0
M  V30 4888 N 468.558 1.5553 0.254621 0
M  V30 4889 C 469.974 1.4778 0.602753 0
M  V30 4890 C 470.174 0.707047 1.88688 0
M  V30 4891 O 469.23 0.233288 2.5142 0
M  V30 4892 C 470.543 2.92133 0.712648 0
M  V30 4893 C 472.091 3.02458 0.805488 0
M  V30 4894 C 472.566 4.48102 0.947009 0
M  V30 4895 N 474.057 4.52008 1.01207 0
M  V30 4896 C 474.792 5.61939 1.1407 0
M  V30 4897 N 474.288 6.81697 1.23536 0
M  V30 4898 N 476.081 5.49719 1.17325 0
M  V30 4899 H 468.232 2.04085 -0.588463 0
M  V30 4900 H 470.495 0.926229 -0.202001 0
M  V30 4901 H 470.201 3.51332 -0.160766 0
M  V30 4902 H 470.075 3.42187 1.58707 0
M  V30 4903 H 472.462 2.43344 1.66936 0
M  V30 4904 H 472.543 2.55627 -0.0939266 0
M  V30 4905 H 472.187 5.07824 0.087725 0
M  V30 4906 H 472.117 4.92607 1.86135 0
M  V30 4907 H 474.608 3.65749 0.950577 0
M  V30 4908 H 474.921 7.61228 1.33236 0
M  V30 4909 H 473.266 6.84473 1.20508 0
M  V30 4910 H 476.457 4.55095 1.09573 0
M  V30 4911 H 476.63 6.35432 1.27005 0
M  V30 4912 N 470.036 -0.519951 1.48776 0
M  V30 4913 C 471.447 -1.10177 1.50725 0
M  V30 4914 C 471.798 -1.94153 0.282678 0
M  V30 4915 O 470.923 -2.07645 -0.609298 0
M  V30 4916 C 471.518 -2.00482 2.73116 0
M  V30 4917 C 470.077 -2.53862 2.77905 0
M  V30 4918 C 469.224 -1.31047 2.44381 0
M  V30 4919 H 472.175 -0.30473 1.55747 0
M  V30 4920 H 472.196 -2.8491 2.52203 0
M  V30 4921 H 471.708 -1.39335 3.62225 0
M  V30 4922 H 469.809 -3.18702 1.93029 0
M  V30 4923 H 469.922 -2.9231 3.79594 0
M  V30 4924 H 468.286 -1.62953 1.95751 0
M  V30 4925 H 469.069 -0.71637 3.35743 0
M  V30 4926 N 471.514 -1.37532 -0.769588 0
M  V30 4927 C 472.791 -1.23392 -1.51768 0
M  V30 4928 C 473.171 0.17157 -2.10402 0
M  V30 4929 O 472.519 1.17943 -1.95708 0
M  V30 4930 C 472.729 -2.33163 -2.59685 0
M  V30 4931 C 474.077 -2.70809 -3.27028 0
M  V30 4932 O 475.101 -2.32355 -2.69981 0
M  V30 4933 O 473.96 -3.37066 -4.30173 0
M  V30 4934 H 471.054 -0.481617 -0.67229 0
M  V30 4935 H 473.6 -1.49318 -0.806368 0
M  V30 4936 H 472.372 -3.27273 -2.14494 0
M  V30 4937 H 471.995 -2.08713 -3.38415 0
M  V30 4938 N 472.992 0.995999 -1.22138 0
M  V30 4939 C 474.222 1.76809 -1.06874 0
M  V30 4940 C 474.63 1.85265 0.383866 0
M  V30 4941 O 473.973 1.31969 1.27789 0
M  V30 4942 C 474.035 3.2186 -1.60144 0
M  V30 4943 C 473.699 3.36958 -3.0872 0
M  V30 4944 C 474.696 3.2452 -4.0618 0
M  V30 4945 C 472.381 3.62109 -3.48112 0
M  V30 4946 C 474.375 3.37013 -5.41019 0
M  V30 4947 C 472.062 3.74243 -4.831 0
M  V30 4948 C 473.06 3.61702 -5.79362 0
M  V30 4949 O 472.748 3.73436 -7.119 0
M  V30 4950 H 472.48 0.562207 -0.375365 0
M  V30 4951 H 475.034 1.26113 -1.62125 0
M  V30 4952 H 473.264 3.73734 -0.992981 0
M  V30 4953 H 474.953 3.80775 -1.40589 0
M  V30 4954 H 475.719 3.05004 -3.77091 0
M  V30 4955 H 471.598 3.70949 -2.73712 0
M  V30 4956 H 475.142 3.27141 -6.16137 0
M  V30 4957 H 471.039 3.93266 -5.11872 0
M  V30 4958 H 471.807 3.90328 -7.19435 0
M  V30 4959 N 474.47 1.03057 1.19235 0
M  V30 4960 C 475.418 0.606391 2.24557 0
M  V30 4961 C 476.412 -0.361826 1.65491 0
M  V30 4962 O 477.618 -0.23022 1.78522 0
M  V30 4963 H 473.993 0.177838 0.730669 0
M  V30 4964 H 475.964 1.50529 2.5765 0
M  V30 4965 C 474.713 -0.0252127 3.47691 0
M  V30 4966 H 474.036 0.710838 3.9343 0
M  V30 4967 H 475.476 -0.284931 4.23042 0
M  V30 4968 C 473.935 -1.27229 3.11953 0
M  V30 4969 O 474.465 -2.36416 3.24762 0
M  V30 4970 N 472.671 -1.16169 2.6637 0
M  V30 4971 H 472.218 -0.273189 2.56147 0
M  V30 4972 H 472.176 -1.99703 2.42829 0
M  V30 4973 N 475.948 -1.35272 0.808662 0
M  V30 4974 C 477.359 -1.81179 0.450688 0
M  V30 4975 C 477.71 -1.67143 -1.02751 0
M  V30 4976 O 476.835 -1.20325 -1.79864 0
M  V30 4977 C 477.43 -3.28943 0.811275 0
M  V30 4978 C 475.989 -3.72985 0.505871 0
M  V30 4979 C 475.136 -2.57229 1.03578 0
M  V30 4980 H 478.087 -1.2322 1.00012 0
M  V30 4981 H 478.108 -3.80342 0.109588 0
M  V30 4982 H 477.62 -3.39127 1.88718 0
M  V30 4983 H 475.721 -3.68349 -0.561209 0
M  V30 4984 H 475.834 -4.67677 1.03995 0
M  V30 4985 H 474.198 -2.50548 0.458005 0
M  V30 4986 H 474.981 -2.7019 2.11784 0
M  V30 4987 N 477.426 -0.562348 -1.47226 0
M  V30 4988 C 478.837 -0.130325 -1.86245 0
M  V30 4989 C 479.188 1.30128 -1.46838 0
M  V30 4990 O 478.313 1.97974 -0.873805 0
M  V30 4991 C 478.908 -0.229738 -3.3802 0
M  V30 4992 C 477.467 0.14728 -3.76112 0
M  V30 4993 C 476.614 -0.574971 -2.71274 0
M  V30 4994 H 479.565 -0.771773 -1.3867 0
M  V30 4995 H 479.586 0.550316 -3.76499 0
M  V30 4996 H 479.098 -1.27178 -3.66671 0
M  V30 4997 H 477.199 1.19023 -3.53078 0
M  V30 4998 H 477.312 -0.214858 -4.78618 0
M  V30 4999 H 475.676 -0.0174756 -2.54694 0
M  V30 5000 H 476.459 -1.61827 -3.02766 0
M  V30 5001 N 478.904 1.54736 -0.299062 0
M  V30 5002 C 479.834 2.26409 0.571085 0
M  V30 5003 C 480.815 1.2629 1.13951 0
M  V30 5004 O 482 1.55059 1.16921 0
M  V30 5005 C 479.13 3.00338 1.74396 0
M  V30 5006 C 478.084 4.07588 1.30599 0
M  V30 5007 C 477.41 4.69222 2.56387 0
M  V30 5008 C 478.71 5.20455 0.438645 0
M  V30 5009 H 480.404 2.99388 -0.0266991 0
M  V30 5010 H 477.95 1.43993 -0.0142812 0
M  V30 5011 H 479.903 3.49198 2.35878 0
M  V30 5012 H 478.627 2.24934 2.36796 0
M  V30 5013 H 477.286 3.59575 0.71424 0
M  V30 5014 H 476.934 3.9046 3.17097 0
M  V30 5015 H 476.634 5.41653 2.27784 0
M  V30 5016 H 478.158 5.20844 3.18675 0
M  V30 5017 H 479.572 5.65221 0.959085 0
M  V30 5018 H 477.969 5.99594 0.246466 0
M  V30 5019 H 479.039 4.8192 -0.536738 0
M  V30 5020 N 480.382 0.0267497 1.57577 0
M  V30 5021 C 481.312 -0.954308 2.13108 0
M  V30 5022 C 482.293 -1.34088 1.04663 0
M  V30 5023 O 483.478 -1.41992 1.32484 0
M  V30 5024 C 480.608 -2.23744 2.65624 0
M  V30 5025 C 479.562 -1.99168 3.78835 0
M  V30 5026 C 478.888 -3.33726 4.17769 0
M  V30 5027 C 480.188 -1.33277 5.0501 0
M  V30 5028 H 481.882 -0.491848 2.95332 0
M  V30 5029 H 479.428 -0.23514 1.42067 0
M  V30 5030 H 481.381 -2.92754 3.03106 0
M  V30 5031 H 480.105 -2.72151 1.80558 0
M  V30 5032 H 478.764 -1.32577 3.41788 0
M  V30 5033 H 478.412 -3.79888 3.29688 0
M  V30 5034 H 478.112 -3.18089 4.94058 0
M  V30 5035 H 479.636 -4.04008 4.57832 0
M  V30 5036 H 481.05 -1.92283 5.40093 0
M  V30 5037 H 479.447 -1.28045 5.8628 0
M  V30 5038 H 480.517 -0.305411 4.83937 0
M  V30 5039 N 481.861 -1.55662 -0.24637 0
M  V30 5040 C 482.771 -1.93495 -1.32653 0
M  V30 5041 C 483.787 -0.835462 -1.5263 0
M  V30 5042 O 484.963 -1.1369 -1.66242 0
M  V30 5043 C 482.028 -2.22242 -2.66101 0
M  V30 5044 C 481.089 -3.45625 -2.54641 0
M  V30 5045 C 480.322 -3.72991 -3.81724 0
M  V30 5046 O 480.545 -3.02421 -4.8363 0
M  V30 5047 O 479.479 -4.66515 -3.80325 0
M  V30 5048 H 483.305 -2.85498 -1.03559 0
M  V30 5049 H 480.89 -1.42551 -0.44717 0
M  V30 5050 H 482.772 -2.42037 -3.44958 0
M  V30 5051 H 481.447 -1.33417 -2.94926 0
M  V30 5052 H 480.354 -3.31136 -1.74067 0
M  V30 5053 H 481.687 -4.34754 -2.3076 0
M  V30 5054 N 483.339 0.512053 -1.4905 0
M  V30 5055 C 484.564 1.2959 -1.6193 0
M  V30 5056 C 484.989 1.85906 -0.286454 0
M  V30 5057 O 484.347 1.65312 0.744426 0
M  V30 5058 C 484.395 2.40987 -2.68249 0
M  V30 5059 O 483.499 3.44531 -2.26654 0
M  V30 5060 H 482.84 0.383053 -0.542371 0
M  V30 5061 H 485.37 0.614231 -1.95162 0
M  V30 5062 H 485.38 2.86913 -2.90078 0
M  V30 5063 H 484.055 1.99361 -3.65004 0
M  V30 5064 H 482.632 3.046 -2.15112 0
M  V30 5065 N 484.817 1.37938 0.762283 0
M  V30 5066 C 486.063 1.34873 1.52253 0
M  V30 5067 C 486.418 -0.0635972 1.92295 0
M  V30 5068 O 485.711 -1.02434 1.61919 0
M  V30 5069 C 485.905 2.23042 2.79261 0
M  V30 5070 C 485.734 3.72706 2.51635 0
M  V30 5071 C 484.504 4.41771 2.45289 0
M  V30 5072 C 486.702 4.65345 2.18994 0
M  V30 5073 N 484.684 5.76921 2.09846 0
M  V30 5074 C 486.055 5.88943 1.9377 0
M  V30 5075 C 488.11 4.53636 2.0523 0
M  V30 5076 C 486.813 7.02142 1.5617 0
M  V30 5077 C 488.839 5.6673 1.69031 0
M  V30 5078 C 488.201 6.89383 1.44673 0
M  V30 5079 H 484.3 0.548818 0.557067 0
M  V30 5080 H 486.884 1.73247 0.888458 0
M  V30 5081 H 485.055 1.8687 3.40491 0
M  V30 5082 H 486.787 2.11165 3.45241 0
M  V30 5083 H 483.542 3.94883 2.61465 0
M  V30 5084 H 483.966 6.4837 1.94794 0
M  V30 5085 H 488.608 3.5937 2.2274 0
M  V30 5086 H 486.326 7.96334 1.37399 0
M  V30 5087 H 489.912 5.59645 1.59026 0
M  V30 5088 H 488.792 7.75411 1.17079 0
M  V30 5089 N 486.295 -0.989507 1.22664 0
M  V30 5090 C 487.242 -2.08024 0.999733 0
M  V30 5091 C 488.212 -1.65909 -0.0797047 0
M  V30 5092 O 489.397 -1.90669 0.0705715 0
M  V30 5093 C 486.537 -3.40067 0.587234 0
M  V30 5094 C 485.65 -3.95505 1.73781 0
M  V30 5095 C 484.785 -5.15722 1.27297 0
M  V30 5096 C 483.824 -5.63305 2.39488 0
M  V30 5097 N 482.961 -6.74758 1.94026 0
M  V30 5098 H 487.801 -2.26768 1.9334 0
M  V30 5099 H 485.338 -1.11171 0.963297 0
M  V30 5100 H 487.296 -4.15899 0.329227 0
M  V30 5101 H 485.926 -3.21314 -0.309426 0
M  V30 5102 H 484.978 -3.16513 2.11006 0
M  V30 5103 H 486.29 -4.26797 2.58158 0
M  V30 5104 H 485.444 -5.98854 0.972546 0
M  V30 5105 H 484.183 -4.86061 0.399445 0
M  V30 5106 H 483.188 -4.78759 2.70315 0
M  V30 5107 H 484.413 -5.94988 3.27362 0
M  V30 5108 H 482.359 -6.46874 1.09041 0
M  V30 5109 H 482.276 -7.05386 2.71968 0
M  V30 5110 H 483.544 -7.61387 1.67062 0
M  V30 5111 N 487.773 -1.03688 -1.18687 0
M  V30 5112 C 489.05 -0.652397 -1.84399 0
M  V30 5113 C 489.43 0.868386 -1.92412 0
M  V30 5114 O 488.778 1.76832 -1.44716 0
M  V30 5115 C 488.988 -1.3238 -3.22919 0
M  V30 5116 C 490.336 -1.45216 -3.98996 0
M  V30 5117 O 491.36 -1.2816 -3.32345 0
M  V30 5118 O 490.219 -1.72975 -5.18403 0
M  V30 5119 H 487.313 -0.227793 -0.795009 0
M  V30 5120 H 489.859 -1.13553 -1.2611 0
M  V30 5121 H 488.631 -2.36202 -3.11968 0
M  V30 5122 H 488.254 -0.829039 -3.88861 0
M  V30 5123 N 489.251 1.34841 -0.815825 0
M  V30 5124 C 490.662 1.80937 -0.46029 0
M  V30 5125 C 491.013 1.67685 1.01863 0
M  V30 5126 O 490.138 1.21277 1.79223 0
M  V30 5127 C 490.733 3.28509 -0.828708 0
M  V30 5128 C 489.292 3.72712 -0.525644 0
M  V30 5129 C 488.439 2.56676 -1.04941 0
M  V30 5130 H 491.39 1.22688 -1.00664 0
M  V30 5131 H 491.411 3.80279 -0.129757 0
M  V30 5132 H 490.923 3.38122 -1.90513 0
M  V30 5133 H 489.024 3.68642 0.541666 0
M  V30 5134 H 489.137 4.67119 -1.06474 0
M  V30 5135 H 487.501 2.50302 -0.471286 0
M  V30 5136 H 488.284 2.69063 -2.13214 0
M  V30 5137 N 490.729 0.570148 1.46925 0
M  V30 5138 C 492.006 -0.0153259 1.95594 0
M  V30 5139 C 492.386 -1.47232 1.51281 0
M  V30 5140 O 491.734 -2.15574 0.757624 0
M  V30 5141 C 491.944 0.143624 3.48704 0
M  V30 5142 C 493.292 0.00494484 4.246 0
M  V30 5143 O 494.316 0.0718214 3.56128 0
M  V30 5144 O 493.175 -0.141175 5.46318 0
M  V30 5145 H 490.269 -0.0568819 0.825041 0
M  V30 5146 H 492.815 0.637583 1.57267 0
M  V30 5147 H 491.587 1.15699 3.73804 0
M  V30 5148 H 491.21 -0.5463 3.93829 0
M  V30 5149 N 492.207 -1.54576 0.307264 0
M  V30 5150 C 493.437 -2.04378 -0.302158 0
M  V30 5151 C 493.845 -1.18381 -1.47589 0
M  V30 5152 O 493.188 -0.20352 -1.82569 0
M  V30 5153 C 493.25 -3.50133 -0.815305 0
M  V30 5154 C 492.914 -4.56401 0.233977 0
M  V30 5155 C 493.911 -5.08884 1.06456 0
M  V30 5156 C 491.596 -5.0088 0.377478 0
M  V30 5157 C 493.59 -6.04394 2.02452 0
M  V30 5158 C 491.277 -5.96208 1.34088 0
M  V30 5159 C 492.275 -6.47849 2.16288 0
M  V30 5160 O 491.963 -7.41308 3.10994 0
M  V30 5161 H 491.695 -0.672502 -0.0686839 0
M  V30 5162 H 494.249 -2.00484 0.446682 0
M  V30 5163 H 492.479 -3.51371 -1.61478 0
M  V30 5164 H 494.168 -3.83098 -1.34129 0
M  V30 5165 H 494.934 -4.75311 0.964596 0
M  V30 5166 H 490.813 -4.60309 -0.252405 0
M  V30 5167 H 494.357 -6.44626 2.66652 0
M  V30 5168 H 490.254 -6.29198 1.44154 0
M  V30 5169 H 491.022 -7.5913 3.06045 0
M  V30 5170 N 493.685 -0.035106 -1.57561 0
M  V30 5171 C 494.931 0.64318 -1.92331 0
M  V30 5172 C 495.264 1.71434 -0.912368 0
M  V30 5173 O 494.539 1.94395 0.0640303 0
M  V30 5174 C 494.822 1.25411 -3.37556 0
M  V30 5175 C 494.675 0.192109 -4.4939 0
M  V30 5176 C 495.994 2.17041 -3.82859 0
M  V30 5177 H 493.113 0.232341 -0.699419 0
M  V30 5178 H 495.755 -0.0935889 -1.89769 0
M  V30 5179 H 493.905 1.88205 -3.39869 0
M  V30 5180 H 495.577 -0.438849 -4.59208 0
M  V30 5181 H 493.82 -0.481725 -4.31117 0
M  V30 5182 H 494.491 0.659292 -5.48049 0
M  V30 5183 H 496.967 1.64228 -3.8232 0
M  V30 5184 H 495.843 2.56738 -4.85157 0
M  V30 5185 H 496.104 3.06401 -3.18702 0
M  V30 5186 N 495.163 1.55791 0.238111 0
M  V30 5187 C 496.574 1.68383 0.806472 0
M  V30 5188 C 496.925 0.634157 1.85669 0
M  V30 5189 O 496.05 -0.217913 2.153 0
M  V30 5190 C 496.645 3.05268 1.46959 0
M  V30 5191 C 495.204 3.1977 1.98555 0
M  V30 5192 C 494.351 2.64279 0.839763 0
M  V30 5193 H 497.302 1.58694 0.0137535 0
M  V30 5194 H 497.323 3.00203 2.33792 0
M  V30 5195 H 496.835 3.81643 0.704993 0
M  V30 5196 H 494.936 2.48234 2.77868 0
M  V30 5197 H 495.049 4.26788 2.17689 0
M  V30 5198 H 493.413 2.22329 1.24265 0
M  V30 5199 H 494.196 3.43187 0.0881032 0
M  V30 5200 N 496.642 -0.504142 1.49319 0
M  V30 5201 C 498.053 -1.08572 1.51885 0
M  V30 5202 C 498.404 -1.93842 0.303255 0
M  V30 5203 O 497.529 -2.0828 -0.58724 0
M  V30 5204 C 498.124 -1.97574 2.75227 0
M  V30 5205 C 496.683 -2.509 2.80581 0
M  V30 5206 C 495.83 -1.28447 2.45757 0
M  V30 5207 H 498.781 -0.288194 1.56061 0
M  V30 5208 H 498.802 -2.82219 2.55211 0
M  V30 5209 H 498.314 -1.35486 3.63683 0
M  V30 5210 H 496.415 -3.16636 1.96398 0
M  V30 5211 H 496.528 -2.88268 3.82673 0
M  V30 5212 H 494.892 -1.60868 1.97468 0
M  V30 5213 H 495.675 -0.68072 3.36483 0
M  V30 5214 N 498.12 -1.38341 -0.754957 0
M  V30 5215 C 499.366 -1.34672 -1.51628 0
M  V30 5216 C 499.699 0.0636036 -1.94096 0
M  V30 5217 O 498.974 1.0245 -1.6533 0
M  V30 5218 C 499.257 -2.30116 -2.76981 0
M  V30 5219 C 499.11 -3.80003 -2.4066 0
M  V30 5220 C 500.429 -2.23715 -3.78998 0
M  V30 5221 H 497.548 -0.490517 -0.550056 0
M  V30 5222 H 500.19 -1.69178 -0.864807 0
M  V30 5223 H 498.34 -2.00821 -3.3257 0
M  V30 5224 H 500.012 -4.19966 -1.90856 0
M  V30 5225 H 498.255 -3.97751 -1.73137 0
M  V30 5226 H 498.926 -4.42244 -3.30339 0
M  V30 5227 H 501.402 -2.49574 -3.32945 0
M  V30 5228 H 500.278 -2.9261 -4.64403 0
M  V30 5229 H 500.539 -1.23554 -4.24484 0
M  V30 5230 N 499.598 0.982988 -1.23187 0
M  V30 5231 C 500.844 1.72648 -1.06398 0
M  V30 5232 C 501.177 1.90066 0.398561 0
M  V30 5233 O 500.452 1.45105 1.29518 0
M  V30 5234 C 500.735 3.12627 -1.78707 0
M  V30 5235 C 500.588 3.02795 -3.32618 0
M  V30 5236 C 501.907 4.11997 -1.54747 0
M  V30 5237 H 499.026 0.626649 -0.387918 0
M  V30 5238 H 501.668 1.14455 -1.51658 0
M  V30 5239 H 499.818 3.62308 -1.40234 0
M  V30 5240 H 501.49 2.60659 -3.80598 0
M  V30 5241 H 499.733 2.39362 -3.61785 0
M  V30 5242 H 500.404 4.01893 -3.78399 0
M  V30 5243 H 502.88 3.71114 -1.88186 0
M  V30 5244 H 501.756 5.08037 -2.07821 0
M  V30 5245 H 502.017 4.39462 -0.482249 0
M  V30 5246 N 501.076 1.04316 1.18135 0
M  V30 5247 C 502.026 0.606731 2.19779 0
M  V30 5248 C 503.01 -0.352144 1.56999 0
M  V30 5249 O 504.202 -0.170795 1.76174 0
M  V30 5250 C 501.331 -0.0262443 3.4329 0
M  V30 5251 C 500.417 0.955928 4.13186 0
M  V30 5252 N 500.808 2.12395 4.59045 0
M  V30 5253 C 499.106 0.782473 4.39082 0
M  V30 5254 C 499.807 2.74458 5.12882 0
M  V30 5255 N 498.783 2.02316 5.04548 0
M  V30 5256 H 502.585 1.49679 2.5293 0
M  V30 5257 H 500.099 0.912088 1.34368 0
M  V30 5258 H 502.096 -0.356617 4.15372 0
M  V30 5259 H 500.756 -0.911811 3.11635 0
M  V30 5260 H 501.767 2.50272 4.53414 0
M  V30 5261 H 498.444 -0.0527906 4.17467 0
M  V30 5262 H 499.834 3.73459 5.5855 0
M  V30 5263 N 502.554 -1.34406 0.822964 0
M  V30 5264 C 503.802 -1.97892 0.410245 0
M  V30 5265 C 504.123 -1.65567 -1.03017 0
M  V30 5266 O 503.393 -0.94642 -1.71522 0
M  V30 5267 H 501.973 -0.732049 0.148707 0
M  V30 5268 H 504.635 -1.64043 1.05242 0
M  V30 5269 H 503.731 -3.07579 0.529284 0
M  V30 5270 N 504.032 -0.577932 -1.46621 0
M  V30 5271 C 505.272 -0.0643097 -2.04299 0
M  V30 5272 C 505.636 1.26967 -1.44026 0
M  V30 5273 O 506.837 1.87224 -1.92875 0
M  V30 5274 C 505.108 0.00547588 -3.574 0
M  V30 5275 S 506.667 0.462216 -4.36359 0
M  V30 5276 H 503.485 -0.0351573 -0.71013 0
M  V30 5277 H 506.087 -0.76935 -1.79725 0
M  V30 5278 H 504.791 -0.969423 -3.98786 0
M  V30 5279 H 504.322 0.733435 -3.86503 0
M  V30 5280 H 506.337 1.71791 -4.65513 0
M  V30 5281 N 505.51 1.54411 -0.315457 0
M  V30 5282 C 506.921 1.85885 0.174265 0
M  V30 5283 C 507.272 1.23723 1.52273 0
M  V30 5284 O 506.397 0.540246 2.09548 0
M  V30 5285 C 506.992 3.37257 0.322981 0
M  V30 5286 C 505.551 3.68711 0.756922 0
M  V30 5287 C 504.698 2.77013 -0.126195 0
M  V30 5288 H 507.649 1.49374 -0.536007 0
M  V30 5289 H 507.67 3.62539 1.15522 0
M  V30 5290 H 507.182 3.82471 -0.658602 0
M  V30 5291 H 505.283 3.29024 1.74854 0
M  V30 5292 H 505.396 4.75741 0.566291 0
M  V30 5293 H 503.76 2.51588 0.39692 0
M  V30 5294 H 504.543 3.25051 -1.1044 0
M  V30 5295 N 506.988 0.0434614 1.5754 0
M  V30 5296 C 507.918 -0.931651 2.14109 0
M  V30 5297 C 508.899 -1.32971 1.06079 0
M  V30 5298 O 510.084 -1.40579 1.33982 0
M  V30 5299 C 507.214 -2.20914 2.67982 0
M  V30 5300 C 506.168 -1.95139 3.80926 0
M  V30 5301 C 505.494 -3.29276 4.21285 0
M  V30 5302 C 506.794 -1.27913 5.06395 0
M  V30 5303 H 508.488 -0.460497 2.95837 0
M  V30 5304 H 506.034 -0.220058 1.42309 0
M  V30 5305 H 507.987 -2.89522 3.06194 0
M  V30 5306 H 506.711 -2.70221 1.83434 0
M  V30 5307 H 505.37 -1.28945 3.43175 0
M  V30 5308 H 505.018 -3.76369 3.33699 0
M  V30 5309 H 504.718 -3.12831 4.97404 0
M  V30 5310 H 506.242 -3.99129 4.62091 0
M  V30 5311 H 507.656 -1.86544 5.42102 0
M  V30 5312 H 506.053 -1.2182 5.87605 0
M  V30 5313 H 507.123 -0.254066 4.84234 0
M  V30 5314 N 508.466 -1.55915 -0.229846 0
M  V30 5315 C 509.877 -1.68809 -0.797531 0
M  V30 5316 C 510.228 -0.643995 -1.8533 0
M  V30 5317 O 509.353 0.206492 -2.15413 0
M  V30 5318 C 509.948 -3.06043 -1.45338 0
M  V30 5319 C 508.507 -3.20819 -1.96856 0
M  V30 5320 C 507.654 -2.6472 -0.825736 0
M  V30 5321 H 510.605 -1.58699 -0.00533733 0
M  V30 5322 H 510.626 -3.01438 -2.32196 0
M  V30 5323 H 510.138 -3.82012 -0.684743 0
M  V30 5324 H 508.239 -2.49704 -2.76548 0
M  V30 5325 H 508.352 -4.27937 -2.15423 0
M  V30 5326 H 506.716 -2.22985 -1.23084 0
M  V30 5327 H 507.499 -3.43229 -0.0699019 0
M  V30 5328 N 509.944 0.496216 -1.49584 0
M  V30 5329 C 511.355 1.07765 -1.52459 0
M  V30 5330 C 511.706 1.93679 -0.31353 0
M  V30 5331 O 510.831 2.08588 0.576186 0
M  V30 5332 C 511.426 1.96111 -2.76271 0
M  V30 5333 C 509.985 2.49409 -2.81908 0
M  V30 5334 C 509.132 1.27142 -2.46435 0
M  V30 5335 H 512.083 0.279914 -1.56212 0
M  V30 5336 H 512.104 2.80862 -2.56704 0
M  V30 5337 H 511.616 1.33555 -3.64396 0
M  V30 5338 H 509.717 3.1559 -1.98074 0
M  V30 5339 H 509.83 2.86234 -3.84196 0
M  V30 5340 H 508.194 1.59818 -1.98319 0
M  V30 5341 H 508.977 0.662866 -3.3684 0
M  V30 5342 N 511.423 1.38739 0.74761 0
M  V30 5343 C 512.386 1.36241 1.84312 0
M  V30 5344 C 513.386 0.261811 1.58654 0
M  V30 5345 O 514.576 0.519031 1.66288 0
M  V30 5346 C 511.708 1.12253 3.21888 0
M  V30 5347 H 512.901 2.33712 1.87933 0
M  V30 5348 H 510.454 1.2412 0.949946 0
M  V30 5349 H 511.189 0.154133 3.23934 0
M  V30 5350 H 510.974 1.91943 3.41907 0
M  V30 5351 H 512.464 1.13215 4.0196 0
M  V30 5352 N 512.901 -0.976442 1.23707 0
M  V30 5353 C 513.848 -2.06952 1.02174 0
M  V30 5354 C 514.818 -1.65984 -0.0621034 0
M  V30 5355 O 516.003 -1.90584 0.0907906 0
M  V30 5356 C 513.143 -3.39425 0.62327 0
M  V30 5357 C 512.256 -3.9364 1.77966 0
M  V30 5358 C 511.391 -5.14343 1.3276 0
M  V30 5359 C 510.43 -5.60733 2.45449 0
M  V30 5360 N 509.567 -6.72662 2.01172 0
M  V30 5361 H 514.407 -2.24704 1.95734 0
M  V30 5362 H 511.944 -1.10143 0.975034 0
M  V30 5363 H 513.902 -4.15526 0.37332 0
M  V30 5364 H 512.532 -3.21624 -0.275329 0
M  V30 5365 H 511.584 -3.14258 2.14351 0
M  V30 5366 H 512.896 -4.24035 2.62671 0
M  V30 5367 H 512.05 -5.97789 1.03601 0
M  V30 5368 H 510.789 -4.8561 0.450975 0
M  V30 5369 H 509.794 -4.75865 2.75378 0
M  V30 5370 H 511.019 -5.91483 3.33654 0
M  V30 5371 H 508.965 -6.45681 1.15895 0
M  V30 5372 H 508.882 -7.02462 2.79434 0
M  V30 5373 H 510.15 -7.59572 1.75129 0
M  V30 5374 N 514.379 -1.04941 -1.1758 0
M  V30 5375 C 515.342 -0.652456 -2.19717 0
M  V30 5376 C 516.342 0.294745 -1.58076 0
M  V30 5377 O 517.532 0.0789579 -1.74021 0
M  V30 5378 C 514.664 0.0420712 -3.40874 0
M  V30 5379 H 515.857 -1.55642 -2.5635 0
M  V30 5380 H 513.41 -0.842995 -1.31618 0
M  V30 5381 H 514.145 0.95943 -3.09783 0
M  V30 5382 H 513.93 -0.638844 -3.86861 0
M  V30 5383 H 515.42 0.306 -4.16477 0
M  V30 5384 N 515.857 1.33968 -0.830081 0
M  V30 5385 C 517.268 1.80439 -0.479455 0
M  V30 5386 C 517.619 1.68756 1.00079 0
M  V30 5387 O 516.744 1.23171 1.77927 0
M  V30 5388 C 517.339 3.27611 -0.863505 0
M  V30 5389 C 515.898 3.72133 -0.565145 0
M  V30 5390 C 515.045 2.55549 -1.07657 0
M  V30 5391 H 517.996 1.21614 -1.0196 0
M  V30 5392 H 518.017 3.8012 -0.170083 0
M  V30 5393 H 517.529 3.36082 -1.94089 0
M  V30 5394 H 515.63 3.69196 0.502536 0
M  V30 5395 H 515.743 4.65963 -1.11422 0
M  V30 5396 H 514.107 2.49788 -0.497807 0
M  V30 5397 H 514.89 2.66786 -2.16055 0
M  V30 5398 N 517.335 0.585699 1.46312 0
M  V30 5399 C 518.746 0.159938 1.86014 0
M  V30 5400 C 519.097 -1.27775 1.48889 0
M  V30 5401 O 518.222 -1.96559 0.90519 0
M  V30 5402 C 518.817 0.283485 3.37612 0
M  V30 5403 C 517.376 -0.0874256 3.76298 0
M  V30 5404 C 516.523 0.618055 2.70325 0
M  V30 5405 H 519.474 0.793737 1.37425 0
M  V30 5406 H 519.495 -0.490348 3.77327 0
M  V30 5407 H 519.007 1.32995 3.64601 0
M  V30 5408 H 517.108 -1.13391 3.54927 0
M  V30 5409 H 517.221 0.290975 4.78216 0
M  V30 5410 H 515.585 0.057993 2.54634 0
M  V30 5411 H 516.368 1.66623 3.00153 0
M  V30 5412 N 518.813 -1.54241 0.323641 0
M  V30 5413 C 520.062 -1.9975 -0.279806 0
M  V30 5414 C 520.375 -1.2156 -1.5324 0
M  V30 5415 O 521.581 -1.57447 -2.21185 0
M  V30 5416 C 520.037 -3.55686 -0.549115 0
M  V30 5417 C 519.645 -4.4271 0.686432 0
M  V30 5418 C 521.389 -4.09663 -1.11251 0
M  V30 5419 C 519.296 -5.90119 0.389022 0
M  V30 5420 H 518.226 -0.746177 -0.10833 0
M  V30 5421 H 520.877 -1.78248 0.435877 0
M  V30 5422 H 519.259 -3.73176 -1.32499 0
M  V30 5423 H 520.433 -4.36996 1.46188 0
M  V30 5424 H 518.748 -3.99623 1.17005 0
M  V30 5425 H 521.345 -5.17386 -1.34965 0
M  V30 5426 H 521.688 -3.61651 -2.06191 0
M  V30 5427 H 522.221 -3.95806 -0.39782 0
M  V30 5428 H 518.96 -6.42326 1.30759 0
M  V30 5429 H 518.48 -5.98785 -0.348722 0
M  V30 5430 H 520.159 -6.47 -0.0011164 0
M  V30 5431 N 520.291 -0.0518155 -1.57515 0
M  V30 5432 C 521.702 0.483787 -1.80323 0
M  V30 5433 C 522.053 1.70879 -0.964099 0
M  V30 5434 O 521.178 2.15643 -0.180872 0
M  V30 5435 C 521.773 0.884459 -3.27052 0
M  V30 5436 C 520.332 1.36504 -3.50776 0
M  V30 5437 C 519.479 0.340539 -2.75201 0
M  V30 5438 H 522.43 -0.277691 -1.56252 0
M  V30 5439 H 522.451 1.74733 -3.38007 0
M  V30 5440 H 521.963 -0.00731093 -3.88099 0
M  V30 5441 H 520.064 2.27598 -2.95009 0
M  V30 5442 H 520.177 1.35675 -4.59488 0
M  V30 5443 H 518.541 0.81356 -2.41357 0
M  V30 5444 H 519.324 -0.543156 -3.38976 0
M  V30 5445 N 521.769 1.56035 0.221574 0
M  V30 5446 C 523.18 1.69229 0.788567 0
M  V30 5447 C 523.531 0.653814 1.84986 0
M  V30 5448 O 522.656 -0.195065 2.15519 0
M  V30 5449 C 523.251 3.06809 1.43713 0
M  V30 5450 C 521.81 3.21858 1.95152 0
M  V30 5451 C 520.957 2.65155 0.811685 0
M  V30 5452 H 523.908 1.587 -0.00307894 0
M  V30 5453 H 523.929 3.02666 2.30594 0
M  V30 5454 H 523.441 3.82369 0.664475 0
M  V30 5455 H 521.542 2.51167 2.7522 0
M  V30 5456 H 521.655 4.29073 2.1315 0
M  V30 5457 H 520.019 2.23635 1.21899 0
M  V30 5458 H 520.802 3.43261 0.0516987 0
M  V30 5459 N 523.247 -0.488276 1.49845 0
M  V30 5460 C 524.658 -1.06955 1.53028 0
M  V30 5461 C 525.009 -1.9351 0.323797 0
M  V30 5462 O 524.134 -2.08891 -0.565116 0
M  V30 5463 C 524.729 -1.94643 2.77307 0
M  V30 5464 C 523.288 -2.4791 2.83227 0
M  V30 5465 C 522.435 -1.25833 2.47106 0
M  V30 5466 H 525.386 -0.271626 1.56358 0
M  V30 5467 H 525.407 -2.79496 2.5819 0
M  V30 5468 H 524.919 -1.31621 3.65099 0
M  V30 5469 H 523.02 -3.14535 1.99745 0
M  V30 5470 H 523.133 -2.84193 3.85709 0
M  V30 5471 H 521.497 -1.58764 1.99163 0
M  V30 5472 H 522.28 -0.644993 3.37186 0
M  V30 5473 N 524.725 -1.39134 -0.740242 0
M  V30 5474 C 526.141 -1.20623 -1.0451 0
M  V30 5475 C 526.341 -0.0641651 -2.01398 0
M  V30 5476 O 525.397 0.585843 -2.4561 0
M  V30 5477 C 526.71 -2.53815 -1.6124 0
M  V30 5478 C 528.258 -2.60615 -1.73346 0
M  V30 5479 C 528.733 -3.94015 -2.33486 0
M  V30 5480 N 530.224 -3.95627 -2.40902 0
M  V30 5481 C 530.959 -4.95616 -2.88361 0
M  V30 5482 N 530.455 -6.06003 -3.35756 0
M  V30 5483 N 532.248 -4.82998 -2.87523 0
M  V30 5484 H 524.399 -2.12176 -0.0975576 0
M  V30 5485 H 526.662 -0.942066 -0.105904 0
M  V30 5486 H 526.368 -3.37911 -0.975144 0
M  V30 5487 H 526.242 -2.73162 -2.6012 0
M  V30 5488 H 528.629 -1.76906 -2.36195 0
M  V30 5489 H 528.71 -2.45123 -0.731336 0
M  V30 5490 H 528.354 -4.78153 -1.71267 0
M  V30 5491 H 528.284 -4.06825 -3.34366 0
M  V30 5492 H 530.775 -3.15903 -2.07398 0
M  V30 5493 H 531.088 -6.78215 -3.70464 0
M  V30 5494 H 529.433 -6.09604 -3.33778 0
M  V30 5495 H 532.624 -3.95866 -2.49816 0
M  V30 5496 H 532.797 -5.61072 -3.24196 0
M  V30 5497 N 526.204 0.969867 -1.24223 0
M  V30 5498 C 527.62 1.23809 -1.00716 0
M  V30 5499 C 527.82 1.99469 0.285358 0
M  V30 5500 O 526.876 2.31764 1.00207 0
M  V30 5501 C 528.189 2.02734 -2.2208 0
M  V30 5502 C 529.737 2.15834 -2.26681 0
M  V30 5503 C 530.212 2.98154 -3.47661 0
M  V30 5504 N 531.703 3.05737 -3.47964 0
M  V30 5505 C 532.438 3.69785 -4.38231 0
M  V30 5506 N 531.934 4.35569 -5.3875 0
M  V30 5507 N 533.727 3.66775 -4.25949 0
M  V30 5508 H 525.878 0.463294 -2.07286 0
M  V30 5509 H 528.141 0.267348 -0.909521 0
M  V30 5510 H 527.847 1.54524 -3.15935 0
M  V30 5511 H 527.721 3.0347 -2.24021 0
M  V30 5512 H 530.108 2.63248 -1.33359 0
M  V30 5513 H 530.189 1.14453 -2.28767 0
M  V30 5514 H 529.833 2.51435 -4.41297 0
M  V30 5515 H 529.763 3.99729 -3.42818 0
M  V30 5516 H 532.254 2.58941 -2.75242 0
M  V30 5517 H 532.567 4.82251 -6.03866 0
M  V30 5518 H 530.912 4.34244 -5.42639 0
M  V30 5519 H 534.103 3.14558 -3.46657 0
M  V30 5520 H 534.276 4.16407 -4.96497 0
M  V30 5521 N 527.682 1.05563 1.17022 0
M  V30 5522 C 528.629 0.659893 2.21165 0
M  V30 5523 C 529.599 -0.339813 1.62587 0
M  V30 5524 O 530.784 -0.230378 1.89404 0
M  V30 5525 C 527.924 0.0447297 3.45071 0
M  V30 5526 C 527.037 1.09372 4.17926 0
M  V30 5527 C 526.172 0.445481 5.29329 0
M  V30 5528 C 525.211 1.47852 5.93975 0
M  V30 5529 N 524.348 0.854172 6.96885 0
M  V30 5530 H 529.188 1.55243 2.54369 0
M  V30 5531 H 526.725 0.776336 1.24946 0
M  V30 5532 H 528.683 -0.329404 4.15898 0
M  V30 5533 H 527.313 -0.811244 3.1244 0
M  V30 5534 H 526.365 1.58564 3.45777 0
M  V30 5535 H 527.677 1.87773 4.62107 0
M  V30 5536 H 526.831 0.0179688 6.06697 0
M  V30 5537 H 525.57 -0.370481 4.86291 0
M  V30 5538 H 524.575 1.91601 5.15334 0
M  V30 5539 H 525.8 2.29645 6.39093 0
M  V30 5540 H 523.746 0.0587882 6.55974 0
M  V30 5541 H 523.663 1.57567 7.39397 0
M  V30 5542 H 524.931 0.451559 7.78191 0
M  V30 5543 N 529.16 -1.33526 0.837174 0
M  V30 5544 C 530.576 -1.50727 0.524743 0
M  V30 5545 C 530.776 -1.77792 -0.948279 0
M  V30 5546 O 529.832 -1.83719 -1.73216 0
M  V30 5547 C 531.145 -2.66299 1.39661 0
M  V30 5548 C 532.693 -2.80183 1.39521 0
M  V30 5549 C 533.168 -3.98815 2.25189 0
M  V30 5550 N 534.659 -4.06047 2.2289 0
M  V30 5551 C 535.394 -4.97032 2.85915 0
M  V30 5552 N 534.89 -5.93143 3.57985 0
M  V30 5553 N 536.683 -4.90015 2.75394 0
M  V30 5554 H 528.834 -1.1422 1.79074 0
M  V30 5555 H 531.097 -0.561399 0.763894 0
M  V30 5556 H 530.803 -2.52974 2.4433 0
M  V30 5557 H 530.677 -3.61663 1.07145 0
M  V30 5558 H 533.064 -2.92942 0.356253 0
M  V30 5559 H 533.145 -1.85586 1.76044 0
M  V30 5560 H 532.789 -3.86817 3.29143 0
M  V30 5561 H 532.719 -4.92654 1.86009 0
M  V30 5562 H 535.21 -3.37262 1.70478 0
M  V30 5563 H 535.523 -6.59227 4.03286 0
M  V30 5564 H 533.868 -5.93223 3.62093 0
M  V30 5565 H 537.059 -4.13894 2.18654 0
M  V30 5566 H 537.232 -5.60724 3.24796 0
M  V30 5567 N 530.638 -0.59345 -1.46 0
M  V30 5568 C 531.866 -0.0890934 -2.06708 0
M  V30 5569 C 532.281 1.2205 -1.44046 0
M  V30 5570 O 531.638 1.74029 -0.549551 0
M  V30 5571 C 531.689 0.0720263 -3.61428 0
M  V30 5572 O 531.41 -1.18574 -4.21748 0
M  V30 5573 C 532.911 0.609487 -4.3909 0
M  V30 5574 H 530.131 -0.0623628 -0.668096 0
M  V30 5575 H 532.675 -0.817171 -1.87464 0
M  V30 5576 H 530.83 0.750369 -3.80063 0
M  V30 5577 H 531.244 -1.0064 -5.14754 0
M  V30 5578 H 532.718 0.671363 -5.47902 0
M  V30 5579 H 533.195 1.62878 -4.07882 0
M  V30 5580 H 533.801 -0.03434 -4.25286 0
M  V30 5581 N 532.116 1.54067 -0.331816 0
M  V30 5582 C 533.362 2.01012 0.268667 0
M  V30 5583 C 533.695 1.2195 1.51136 0
M  V30 5584 O 532.97 0.303972 1.9211 0
M  V30 5585 C 533.253 3.55158 0.59456 0
M  V30 5586 C 533.106 4.4494 -0.659409 0
M  V30 5587 C 534.425 4.16939 1.4089 0
M  V30 5588 H 531.544 0.730698 0.0961756 0
M  V30 5589 H 534.186 1.84593 -0.450031 0
M  V30 5590 H 532.336 3.6928 1.20685 0
M  V30 5591 H 534.008 4.42675 -1.29756 0
M  V30 5592 H 532.251 4.1428 -1.28665 0
M  V30 5593 H 532.922 5.50643 -0.386804 0
M  V30 5594 H 535.398 4.06443 0.891272 0
M  V30 5595 H 534.274 5.24889 1.60569 0
M  V30 5596 H 534.535 3.70798 2.40752 0
M  V30 5597 N 533.594 0.0601682 1.57485 0
M  V30 5598 C 534.84 -0.612501 1.93329 0
M  V30 5599 C 535.173 -1.6996 0.939526 0
M  V30 5600 O 534.448 -1.94472 -0.0330957 0
M  V30 5601 C 534.731 -1.20025 3.39508 0
M  V30 5602 C 534.584 -0.12059 4.49638 0
M  V30 5603 C 535.903 -2.10923 3.86264 0
M  V30 5604 H 533.022 -0.221185 0.703027 0
M  V30 5605 H 535.664 0.123768 1.89596 0
M  V30 5606 H 533.814 -1.82774 3.42821 0
M  V30 5607 H 535.486 0.51185 4.58452 0
M  V30 5608 H 533.729 0.550251 4.30296 0
M  V30 5609 H 534.4 -0.572019 5.49028 0
M  V30 5610 H 536.876 -1.58124 3.84884 0
M  V30 5611 H 535.752 -2.48987 4.8918 0
M  V30 5612 H 536.013 -3.01292 3.23536 0
M  V30 5613 N 535.072 -1.5615 -0.213296 0
M  V30 5614 C 536.002 -1.96109 -1.26742 0
M  V30 5615 C 536.983 -0.830448 -1.48451 0
M  V30 5616 O 538.168 -1.09339 -1.60495 0
M  V30 5617 C 535.298 -2.28492 -2.61551 0
M  V30 5618 C 534.252 -3.44124 -2.54485 0
M  V30 5619 C 533.578 -3.62134 -3.93399 0
M  V30 5620 C 534.878 -4.78855 -2.08556 0
M  V30 5621 H 536.572 -2.84412 -0.935434 0
M  V30 5622 H 534.118 -1.36836 -0.44854 0
M  V30 5623 H 536.071 -2.55039 -3.3546 0
M  V30 5624 H 534.795 -1.37052 -2.96453 0
M  V30 5625 H 533.454 -3.17639 -1.83033 0
M  V30 5626 H 533.102 -2.68055 -4.25623 0
M  V30 5627 H 532.802 -4.39913 -3.89551 0
M  V30 5628 H 534.326 -3.91038 -4.68958 0
M  V30 5629 H 535.74 -5.04552 -2.72213 0
M  V30 5630 H 534.137 -5.59975 -2.1575 0
M  V30 5631 H 535.207 -4.73657 -1.03811 0
M  V30 5632 N 536.55 0.480323 -1.50102 0
M  V30 5633 C 537.778 1.25657 -1.64371 0
M  V30 5634 C 538.193 1.86011 -0.323316 0
M  V30 5635 O 537.55 1.68803 0.693682 0
M  V30 5636 C 537.601 2.37197 -2.728 0
M  V30 5637 O 537.322 1.7932 -3.9972 0
M  V30 5638 C 538.823 3.2823 -2.9796 0
M  V30 5639 H 536.043 0.380369 -0.552775 0
M  V30 5640 H 538.587 0.574379 -1.96268 0
M  V30 5641 H 536.742 3.01208 -2.43623 0
M  V30 5642 H 537.156 2.52701 -4.59611 0
M  V30 5643 H 538.63 4.02725 -3.77513 0
M  V30 5644 H 539.107 3.86462 -2.08671 0
M  V30 5645 H 539.713 2.69964 -3.28633 0
M  V30 5646 N 538.028 1.39524 0.732853 0
M  V30 5647 C 538.938 1.40695 1.87729 0
M  V30 5648 C 539.954 0.301496 1.71368 0
M  V30 5649 O 541.13 0.543313 1.93933 0
M  V30 5650 C 538.195 1.25098 3.23344 0
M  V30 5651 C 537.256 2.45634 3.52083 0
M  V30 5652 C 536.489 2.30772 4.81228 0
M  V30 5653 O 536.712 1.31233 5.55098 0
M  V30 5654 O 535.646 3.19799 5.09914 0
M  V30 5655 H 539.472 2.37168 1.89697 0
M  V30 5656 H 537.057 1.20663 0.880959 0
M  V30 5657 H 538.939 1.18541 4.04383 0
M  V30 5658 H 537.614 0.317209 3.22142 0
M  V30 5659 H 536.521 2.57767 2.71122 0
M  V30 5660 H 537.854 3.37712 3.58066 0
M  V30 5661 N 539.506 -0.963266 1.24736 0
M  V30 5662 C 540.731 -1.74699 1.11781 0
M  V30 5663 C 541.156 -1.85267 -0.325258 0
M  V30 5664 O 540.514 -1.32681 -1.23553 0
M  V30 5665 C 540.562 -3.14322 1.76731 0
M  V30 5666 O 539.666 -3.99043 1.04109 0
M  V30 5667 H 539.007 -0.53684 0.390767 0
M  V30 5668 H 541.537 -1.20801 1.65131 0
M  V30 5669 H 541.547 -3.64824 1.82668 0
M  V30 5670 H 540.222 -3.05946 2.81726 0
M  V30 5671 H 538.799 -3.5752 1.05991 0
M  V30 5672 N 540.985 -1.06182 -1.16461 0
M  V30 5673 C 542.213 -0.798583 -1.90867 0
M  V30 5674 C 542.628 0.646921 -1.77371 0
M  V30 5675 O 541.985 1.44279 -1.11758 0
M  V30 5676 C 542.036 -1.18258 -3.4161 0
M  V30 5677 O 541.757 -2.57135 -3.54701 0
M  V30 5678 C 543.258 -0.946917 -4.33069 0
M  V30 5679 H 540.478 -0.289603 -0.605286 0
M  V30 5680 H 543.022 -1.41515 -1.47627 0
M  V30 5681 H 541.177 -0.610562 -3.82558 0
M  V30 5682 H 541.591 -2.72477 -4.4817 0
M  V30 5683 H 543.065 -1.26523 -5.37304 0
M  V30 5684 H 543.542 0.117406 -4.39043 0
M  V30 5685 H 544.148 -1.50326 -3.97847 0
M  V30 5686 N 542.463 1.3308 -0.844243 0
M  V30 5687 C 543.709 1.97898 -0.443206 0
M  V30 5688 C 544.042 1.66699 0.99625 0
M  V30 5689 O 543.317 0.949704 1.69738 0
M  V30 5690 C 543.6 3.53801 -0.670606 0
M  V30 5691 C 543.453 3.94667 -2.15772 0
M  V30 5692 C 544.772 4.39936 -0.120226 0
M  V30 5693 H 541.891 0.718861 -0.162504 0
M  V30 5694 H 544.533 1.57633 -1.06075 0
M  V30 5695 H 542.683 3.88229 -0.14496 0
M  V30 5696 H 544.355 3.70469 -2.74865 0
M  V30 5697 H 542.598 3.44203 -2.6402 0
M  V30 5698 H 543.269 5.03275 -2.26757 0
M  V30 5699 H 545.745 4.12183 -0.5696 0
M  V30 5700 H 544.621 5.4803 -0.308984 0
M  V30 5701 H 544.882 4.31184 0.976347 0
M  V30 5702 N 543.941 0.601185 1.45683 0
M  V30 5703 C 545.166 0.0982245 2.07167 0
M  V30 5704 C 545.591 -1.20546 1.44396 0
M  V30 5705 O 544.949 -1.73247 0.534347 0
M  V30 5706 C 544.997 -0.0346976 3.60583 0
M  V30 5707 O 544.101 -1.08657 3.97828 0
M  V30 5708 H 543.442 0.0711618 0.660176 0
M  V30 5709 H 545.972 0.829376 1.87036 0
M  V30 5710 H 545.982 -0.234969 4.07323 0
M  V30 5711 H 544.657 0.917265 4.05659 0
M  V30 5712 H 543.234 -0.863275 3.6277 0
M  V30 5713 N 545.419 -1.53889 0.339982 0
M  V30 5714 C 546.644 -2.05741 -0.261798 0
M  V30 5715 C 547.069 -1.21354 -1.43718 0
M  V30 5716 O 546.427 -0.22645 -1.7988 0
M  V30 5717 C 546.475 -3.54542 -0.658228 0
M  V30 5718 O 545.579 -3.7302 -1.75869 0
M  V30 5719 H 544.92 -0.662529 -0.0441672 0
M  V30 5720 H 547.45 -1.98568 0.493161 0
M  V30 5721 H 547.46 -3.9711 -0.936368 0
M  V30 5722 H 546.135 -4.15412 0.201358 0
M  V30 5723 H 544.712 -3.42355 -1.47809 0
M  V30 5724 N 546.897 -0.0685191 -1.57451 0
M  V30 5725 C 547.86 0.885173 -2.11417 0
M  V30 5726 C 548.86 1.22853 -1.03748 0
M  V30 5727 O 550.05 1.16235 -1.2975 0
M  V30 5728 C 547.182 2.18964 -2.61281 0
M  V30 5729 H 548.375 0.417034 -2.96986 0
M  V30 5730 H 545.928 0.18014 -1.55258 0
M  V30 5731 H 546.663 2.70321 -1.79156 0
M  V30 5732 H 546.448 1.9534 -3.39977 0
M  V30 5733 H 547.938 2.87242 -3.0312 0
M  V30 5734 N 548.375 1.56261 0.205012 0
M  V30 5735 C 549.305 1.96779 1.257 0
M  V30 5736 C 550.286 0.838309 1.48008 0
M  V30 5737 O 551.471 1.10189 1.59913 0
M  V30 5738 C 548.601 2.29876 2.60335 0
M  V30 5739 C 547.555 3.45469 2.52656 0
M  V30 5740 C 546.881 3.64215 3.91473 0
M  V30 5741 C 548.181 4.79954 2.06014 0
M  V30 5742 H 549.875 2.84904 0.920338 0
M  V30 5743 H 547.421 1.37072 0.441277 0
M  V30 5744 H 549.374 2.56814 3.34102 0
M  V30 5745 H 548.098 1.38622 2.95722 0
M  V30 5746 H 546.757 3.18605 1.81345 0
M  V30 5747 H 546.405 2.70309 4.24196 0
M  V30 5748 H 546.105 4.41973 3.87213 0
M  V30 5749 H 547.629 3.93519 4.66878 0
M  V30 5750 H 549.043 5.05989 2.69533 0
M  V30 5751 H 547.44 5.61111 2.12777 0
M  V30 5752 H 548.51 4.74201 1.01297 0
M  V30 5753 N 549.853 -0.472356 1.50355 0
M  V30 5754 C 550.816 -1.5529 1.68576 0
M  V30 5755 C 551.816 -1.50863 0.556511 0
M  V30 5756 O 553.006 -1.53505 0.823516 0
M  V30 5757 C 550.138 -2.94921 1.70981 0
M  V30 5758 H 551.331 -1.40451 2.64978 0
M  V30 5759 H 548.884 -0.698645 1.39816 0
M  V30 5760 H 549.619 -3.15204 0.762675 0
M  V30 5761 H 549.404 -2.99541 2.53017 0
M  V30 5762 H 550.894 -3.73372 1.87037 0
M  V30 5763 N 551.331 -1.39911 -0.725443 0
M  V30 5764 C 552.241 -1.41688 -1.8698 0
M  V30 5765 C 553.257 -0.310579 -1.71206 0
M  V30 5766 O 554.433 -0.55359 -1.93642 0
M  V30 5767 C 551.498 -1.26811 -3.22676 0
M  V30 5768 C 550.559 -2.47497 -3.50776 0
M  V30 5769 C 549.792 -2.3332 -4.79997 0
M  V30 5770 O 550.015 -1.34175 -5.54394 0
M  V30 5771 O 548.949 -3.22498 -5.08211 0
M  V30 5772 H 552.775 -2.38171 -1.88436 0
M  V30 5773 H 550.36 -1.21128 -0.874548 0
M  V30 5774 H 552.242 -1.20684 -4.03749 0
M  V30 5775 H 550.917 -0.334289 -3.21969 0
M  V30 5776 H 549.824 -2.59201 -2.69751 0
M  V30 5777 H 551.157 -3.39606 -3.5627 0
M  V30 5778 N 552.809 0.956637 -1.25245 0
M  V30 5779 C 553.739 2.07058 -1.07931 0
M  V30 5780 C 554.72 1.70096 0.0110361 0
M  V30 5781 O 555.905 1.93555 -0.158121 0
M  V30 5782 C 553.035 3.40272 -0.695124 0
M  V30 5783 C 551.989 3.91235 -1.73549 0
M  V30 5784 C 551.315 5.20921 -1.20604 0
M  V30 5785 C 552.615 4.17837 -3.13385 0
M  V30 5786 H 554.309 2.218 -2.01109 0
M  V30 5787 H 551.855 1.06581 -0.968326 0
M  V30 5788 H 553.808 4.1765 -0.560949 0
M  V30 5789 H 552.532 3.25462 0.272355 0
M  V30 5790 H 551.191 3.16025 -1.85807 0
M  V30 5791 H 550.839 5.02479 -0.228846 0
M  V30 5792 H 550.539 5.55987 -1.90136 0
M  V30 5793 H 552.063 6.00897 -1.08421 0
M  V30 5794 H 553.477 4.8588 -3.04292 0
M  V30 5795 H 551.874 4.64154 -3.80369 0
M  V30 5796 H 552.944 3.2419 -3.60595 0
M  V30 5797 N 554.287 1.06798 1.15896 0
M  V30 5798 C 555.25 0.687328 2.18651 0
M  V30 5799 C 556.25 -0.269559 1.58524 0
M  V30 5800 O 557.44 -0.0512627 1.74125 0
M  V30 5801 C 554.572 0.0121642 3.40898 0
M  V30 5802 H 555.765 1.59701 2.53842 0
M  V30 5803 H 553.318 0.863828 1.3026 0
M  V30 5804 H 554.053 -0.910025 3.1127 0
M  V30 5805 H 553.838 0.700309 3.85795 0
M  V30 5806 H 555.328 -0.239703 4.16911 0
M  V30 5807 N 555.766 -1.3263 0.851289 0
M  V30 5808 C 556.994 -2.01563 0.466899 0
M  V30 5809 C 557.409 -1.63996 -0.935447 0
M  V30 5810 O 556.766 -0.85957 -1.6099 0
M  V30 5811 C 556.817 -3.56613 0.592433 0
M  V30 5812 O 556.538 -3.92828 1.93954 0
M  V30 5813 C 558.039 -4.42818 0.206612 0
M  V30 5814 H 555.259 -0.645307 0.183902 0
M  V30 5815 H 557.803 -1.69285 1.1473 0
M  V30 5816 H 555.958 -3.87379 -0.0401936 0
M  V30 5817 H 556.372 -4.87545 1.9339 0
M  V30 5818 H 557.846 -5.50918 0.345462 0
M  V30 5819 H 558.323 -4.30844 -0.85264 0
M  V30 5820 H 558.929 -4.17434 0.814176 0
M  V30 5821 N 557.244 -0.608902 -1.45362 0
M  V30 5822 C 558.191 0.109172 -2.30542 0
M  V30 5823 C 559.161 0.858704 -1.42181 0
M  V30 5824 O 560.346 0.844178 -1.71109 0
M  V30 5825 C 557.486 1.09971 -3.27109 0
M  V30 5826 C 556.599 0.350911 -4.30572 0
M  V30 5827 C 555.734 1.33129 -5.14247 0
M  V30 5828 C 554.773 0.570377 -6.09437 0
M  V30 5829 N 553.91 1.5001 -6.85887 0
M  V30 5830 H 558.75 -0.623195 -2.91411 0
M  V30 5831 H 556.287 -0.319122 -1.43597 0
M  V30 5832 H 558.245 1.68714 -3.81564 0
M  V30 5833 H 556.875 1.79947 -2.67991 0
M  V30 5834 H 555.927 -0.352054 -3.78767 0
M  V30 5835 H 557.239 -0.242725 -4.98209 0
M  V30 5836 H 556.393 1.99074 -5.73109 0
M  V30 5837 H 555.132 1.95885 -4.46632 0
M  V30 5838 H 554.137 -0.102702 -5.49704 0
M  V30 5839 H 555.362 -0.0521607 -6.7908 0
M  V30 5840 H 553.308 2.11529 -6.2096 0
M  V30 5841 H 553.225 0.959934 -7.49881 0
M  V30 5842 H 554.493 2.14909 -7.49289 0
M  V30 5843 N 558.722 1.53707 -0.348139 0
M  V30 5844 C 559.95 2.05406 0.248224 0
M  V30 5845 C 560.365 1.22282 1.43849 0
M  V30 5846 O 559.722 0.259244 1.80649 0
M  V30 5847 C 559.773 3.55446 0.658793 0
M  V30 5848 O 559.494 4.35417 -0.484149 0
M  V30 5849 C 560.995 4.23335 1.31539 0
M  V30 5850 H 558.215 0.669344 0.0471075 0
M  V30 5851 H 560.759 1.98257 -0.501456 0
M  V30 5852 H 558.914 3.62803 1.35841 0
M  V30 5853 H 559.328 5.24268 -0.155949 0
M  V30 5854 H 560.802 5.29692 1.55338 0
M  V30 5855 H 561.279 3.75967 2.27036 0
M  V30 5856 H 561.885 4.20184 0.657683 0
M  V30 5857 N 560.2 0.0768682 1.57412 0
M  V30 5858 C 561.447 -0.591085 1.93681 0
M  V30 5859 C 561.775 -1.69311 0.957286 0
M  V30 5860 O 561.03 -1.95682 -0.0262428 0
M  V30 5861 C 561.329 -1.20268 3.36557 0
M  V30 5862 C 560.995 -0.226286 4.50332 0
M  V30 5863 C 559.657 0.0423142 4.81181 0
M  V30 5864 C 562.009 0.441415 5.19327 0
M  V30 5865 C 559.337 0.985616 5.78362 0
M  V30 5866 C 561.689 1.37307 6.17519 0
M  V30 5867 C 560.353 1.65009 6.46783 0
M  V30 5868 H 559.623 -0.216293 0.70873 0
M  V30 5869 H 562.27 0.148824 1.90921 0
M  V30 5870 H 560.575 -2.01844 3.35807 0
M  V30 5871 H 562.272 -1.72688 3.61911 0
M  V30 5872 H 558.862 -0.445821 4.26275 0
M  V30 5873 H 563.046 0.247023 4.95685 0
M  V30 5874 H 558.302 1.20743 5.99359 0
M  V30 5875 H 562.476 1.89637 6.70083 0
M  V30 5876 H 560.103 2.38263 7.21897 0
M  V30 5877 N 561.678 -1.56367 -0.196722 0
M  V30 5878 C 562.926 -1.80172 -0.915554 0
M  V30 5879 C 563.247 -0.649649 -1.8386 0
M  V30 5880 O 562.517 0.332111 -1.93064 0
M  V30 5881 H 561.097 -0.664592 -0.341067 0
M  V30 5882 H 563.759 -1.93844 -0.202622 0
M  V30 5883 H 562.855 -2.7327 -1.50764 0
M  V30 5884 N 563.156 0.464375 -1.50603 0
M  V30 5885 C 564.381 1.24372 -1.65971 0
M  V30 5886 C 564.806 1.84901 -0.345453 0
M  V30 5887 O 564.164 1.67596 0.691457 0
M  V30 5888 C 564.212 2.32331 -2.7578 0
M  V30 5889 O 563.316 3.37146 -2.375 0
M  V30 5890 H 562.657 0.365604 -0.554283 0
M  V30 5891 H 565.187 0.55183 -1.97018 0
M  V30 5892 H 565.197 2.77539 -2.99059 0
M  V30 5893 H 563.872 1.87648 -3.71162 0
M  V30 5894 H 562.449 2.97602 -2.24694 0
M  V30 5895 N 564.634 1.40294 0.718013 0
M  V30 5896 C 565.859 1.41941 1.5122 0
M  V30 5897 C 566.284 0.0202371 1.88089 0
M  V30 5898 O 565.642 -0.971078 1.53101 0
M  V30 5899 C 565.69 2.3141 2.76554 0
M  V30 5900 O 564.794 1.75567 3.73162 0
M  V30 5901 H 564.135 0.482644 0.456016 0
M  V30 5902 H 566.665 1.84494 0.884478 0
M  V30 5903 H 566.675 2.46513 3.25108 0
M  V30 5904 H 565.35 3.33085 2.49053 0
M  V30 5905 H 563.927 1.69798 3.31999 0
M  V30 5906 N 566.112 -0.949982 1.2575 0
M  V30 5907 C 567.36 -1.6918 1.10555 0
M  V30 5908 C 567.681 -1.91773 -0.353298 0
M  V30 5909 O 566.951 -1.50814 -1.25027 0
M  V30 5910 H 565.531 -0.626952 0.406129 0
M  V30 5911 H 568.193 -1.1419 1.57945 0
M  V30 5912 H 567.289 -2.66915 1.61749 0
M  V30 5913 N 567.59 -1.07411 -1.15328 0
M  V30 5914 C 568.815 -0.818856 -1.90551 0
M  V30 5915 C 569.24 0.622194 -1.77512 0
M  V30 5916 O 568.598 1.43484 -1.10824 0
M  V30 5917 C 568.646 -1.23267 -3.38877 0
M  V30 5918 O 567.75 -0.378345 -4.10661 0
M  V30 5919 H 567.091 -0.29827 -0.593238 0
M  V30 5920 H 569.621 -1.43289 -1.46046 0
M  V30 5921 H 569.631 -1.20912 -3.89672 0
M  V30 5922 H 568.306 -2.28226 -3.47686 0
M  V30 5923 H 566.883 -0.464437 -3.69996 0
M  V30 5924 N 569.068 1.32177 -0.85831 0
M  V30 5925 C 570.293 2.01847 -0.476718 0
M  V30 5926 C 570.718 1.64065 0.920021 0
M  V30 5927 O 570.076 0.843189 1.60499 0
M  V30 5928 C 570.124 3.55097 -0.627578 0
M  V30 5929 O 569.228 4.11012 0.338086 0
M  V30 5930 H 568.569 0.635907 -0.191099 0
M  V30 5931 H 571.099 1.68641 -1.15851 0
M  V30 5932 H 571.109 4.04718 -0.516476 0
M  V30 5933 H 569.784 3.81938 -1.64609 0
M  V30 5934 H 568.361 3.72451 0.182917 0
M  V30 5935 N 570.547 0.616602 1.45037 0
M  V30 5936 C 571.51 -0.0871112 2.29034 0
M  V30 5937 C 572.51 -0.786414 1.40258 0
M  V30 5938 O 573.7 -0.633207 1.62284 0
M  V30 5939 C 570.832 -1.13369 3.21497 0
M  V30 5940 H 572.025 0.651497 2.92738 0
M  V30 5941 H 569.578 0.376058 1.51709 0
M  V30 5942 H 570.313 -1.90277 2.62612 0
M  V30 5943 H 570.098 -0.636358 3.86902 0
M  V30 5944 H 571.588 -1.62627 3.84633 0
M  V30 5945 N 572.025 -1.5352 0.356285 0
M  V30 5946 C 573.271 -2.01414 -0.236653 0
M  V30 5947 C 573.604 -1.24339 -1.49176 0
M  V30 5948 O 572.879 -0.334496 -1.91602 0
M  V30 5949 C 573.162 -3.56059 -0.537982 0
M  V30 5950 C 573.015 -4.43835 0.730112 0
M  V30 5951 C 574.334 -4.19127 -1.34239 0
M  V30 5952 H 571.453 -0.732135 -0.0845386 0
M  V30 5953 H 574.095 -1.83854 0.479341 0
M  V30 5954 H 572.245 -3.71153 -1.14795 0
M  V30 5955 H 573.917 -4.40555 1.36782 0
M  V30 5956 H 572.16 -4.1218 1.3524 0
M  V30 5957 H 572.831 -5.49958 0.474358 0
M  V30 5958 H 575.307 -4.07809 -0.826498 0
M  V30 5959 H 574.183 -5.27378 -1.52198 0
M  V30 5960 H 574.444 -3.74581 -2.34822 0
M  V30 5961 N 573.503 -0.0852151 -1.57369 0
M  V30 5962 C 574.78 0.622534 -1.85429 0
M  V30 5963 C 575.16 1.86962 -0.980229 0
M  V30 5964 O 574.508 2.28445 -0.0500219 0
M  V30 5965 C 574.718 0.947374 -3.35896 0
M  V30 5966 C 576.066 1.31509 -4.03721 0
M  V30 5967 O 577.09 1.03869 -3.40719 0
M  V30 5968 O 575.949 1.83231 -5.14868 0
M  V30 5969 H 573.043 0.310513 -0.766492 0
M  V30 5970 H 575.589 -0.117164 -1.69295 0
M  V30 5971 H 574.361 0.0622264 -3.91251 0
M  V30 5972 H 573.984 1.74338 -3.5734 0
M  V30 5973 N 574.981 1.5647 0.188427 0
M  V30 5974 C 576.206 1.85486 0.927891 0
M  V30 5975 C 576.631 0.669575 1.75779 0
M  V30 5976 O 575.989 -0.381573 1.77239 0
M  V30 5977 C 576.037 3.12784 1.7944 0
M  V30 5978 O 575.141 2.93805 2.894 0
M  V30 5979 H 574.482 0.610585 0.260925 0
M  V30 5980 H 577.012 2.037 0.191729 0
M  V30 5981 H 577.022 3.43749 2.19774 0
M  V30 5982 H 575.697 3.98671 1.18468 0
M  V30 5983 H 574.274 2.74153 2.52774 0
M  V30 5984 N 576.459 -0.456382 1.50847 0
M  V30 5985 C 577.707 -1.20497 1.62249 0
M  V30 5986 C 578.028 -1.92156 0.331839 0
M  V30 5987 O 577.298 -1.84751 -0.651443 0
M  V30 5988 H 575.878 -0.447775 0.597918 0
M  V30 5989 H 578.54 -0.525099 1.87693 0
M  V30 5990 H 577.636 -1.94492 2.44089 0
M  V30 5991 N 577.937 -1.40673 -0.710563 0
M  V30 5992 C 579.165 -1.42547 -1.4996 0
M  V30 5993 C 579.58 -0.0265485 -1.88781 0
M  V30 5994 O 578.937 0.950694 -1.55782 0
M  V30 5995 C 578.988 -2.32071 -2.77173 0
M  V30 5996 O 578.709 -3.66518 -2.39992 0
M  V30 5997 C 580.21 -2.42591 -3.71032 0
M  V30 5998 H 577.43 -0.486025 -0.462623 0
M  V30 5999 H 579.974 -1.84783 -0.876102 0
M  V30 6000 H 578.129 -1.93184 -3.35795 0
M  V30 6001 H 578.543 -4.14115 -3.21884 0
M  V30 6002 H 580.017 -3.09429 -4.57119 0
M  V30 6003 H 580.494 -1.4525 -4.14486 0
M  V30 6004 H 581.1 -2.82051 -3.18319 0
M  V30 6005 N 579.415 0.9433 -1.26252 0
M  V30 6006 C 580.378 2.02326 -1.07689 0
M  V30 6007 C 581.378 1.60779 -0.0259174 0
M  V30 6008 O 582.568 1.72108 -0.269134 0
M  V30 6009 C 579.7 3.34886 -0.63752 0
M  V30 6010 H 580.893 2.20225 -2.0357 0
M  V30 6011 H 578.446 1.12197 -1.08819 0
M  V30 6012 H 579.181 3.22684 0.323377 0
M  V30 6013 H 578.966 3.66393 -1.39637 0
M  V30 6014 H 580.456 4.14231 -0.529418 0
M  V30 6015 N 580.893 1.08022 1.14757 0
M  V30 6016 C 582.121 0.828847 1.89572 0
M  V30 6017 C 582.536 -0.618621 1.78377 0
M  V30 6018 O 581.893 -1.42482 1.1404 0
M  V30 6019 C 581.944 1.23677 3.39685 0
M  V30 6020 O 581.665 2.62746 3.50566 0
M  V30 6021 C 583.166 1.01569 4.31507 0
M  V30 6022 H 580.386 0.299196 0.600602 0
M  V30 6023 H 582.93 1.43846 1.45357 0
M  V30 6024 H 581.085 0.671347 3.81539 0
M  V30 6025 H 581.499 2.79573 4.43778 0
M  V30 6026 H 582.973 1.35055 5.35223 0
M  V30 6027 H 583.45 -0.0475433 4.39174 0
M  V30 6028 H 584.056 1.56636 3.95405 0
M  V30 6029 N 582.371 -1.3172 0.865308 0
M  V30 6030 C 583.334 -2.26918 0.322627 0
M  V30 6031 C 584.334 -1.52031 -0.523751 0
M  V30 6032 O 585.524 -1.70973 -0.333727 0
M  V30 6033 C 582.656 -3.36558 -0.542338 0
M  V30 6034 H 583.849 -2.76432 1.16298 0
M  V30 6035 H 581.402 -1.42573 0.640512 0
M  V30 6036 H 582.137 -2.92329 -1.40407 0
M  V30 6037 H 581.922 -3.92048 0.0636395 0
M  V30 6038 H 583.412 -4.07465 -0.91446 0
M  V30 6039 N 583.85 -0.624285 -1.44708 0
M  V30 6040 C 585.26 -0.2092 -1.85524 0
M  V30 6041 C 585.611 1.23783 -1.52225 0
M  V30 6042 O 584.736 1.94089 -0.956986 0
M  V30 6043 C 585.332 -0.372897 -3.36742 0
M  V30 6044 C 583.891 -0.012374 -3.76398 0
M  V30 6045 C 583.038 -0.68951 -2.68591 0
M  V30 6046 H 585.989 -0.829894 -1.35272 0
M  V30 6047 H 586.01 0.390134 -3.78495 0
M  V30 6048 H 585.522 -1.42615 -3.60947 0
M  V30 6049 H 583.623 1.03941 -3.57809 0
M  V30 6050 H 583.736 -0.417663 -4.77276 0
M  V30 6051 H 582.1 -0.125484 -2.54391 0
M  V30 6052 H 582.883 -1.74522 -2.9563 0
M  V30 6053 N 585.328 1.53329 -0.364422 0
M  V30 6054 C 586.739 1.86345 0.115039 0
M  V30 6055 C 587.09 1.28505 1.4826 0
M  V30 6056 O 586.215 0.606639 2.07723 0
M  V30 6057 C 586.81 3.38114 0.215522 0
M  V30 6058 C 585.369 3.70932 0.639237 0
M  V30 6059 C 584.516 2.76471 -0.214261 0
M  V30 6060 H 587.467 1.47593 -0.583258 0
M  V30 6061 H 587.488 3.66031 1.0393 0
M  V30 6062 H 587 3.80182 -0.779948 0
M  V30 6063 H 585.101 3.3442 1.64298 0
M  V30 6064 H 585.214 4.77302 0.41465 0
M  V30 6065 H 583.578 2.52724 0.316678 0
M  V30 6066 H 584.361 3.21373 -1.20725 0
M  V30 6067 N 586.806 0.0935595 1.57322 0
M  V30 6068 C 588.083 -0.612692 1.85756 0
M  V30 6069 C 588.463 -1.86439 0.99013 0
M  V30 6070 O 587.811 -2.28416 0.0621362 0
M  V30 6071 C 588.021 -0.929547 3.36393 0
M  V30 6072 C 589.369 -1.29366 4.04413 0
M  V30 6073 O 590.393 -1.02061 3.41265 0
M  V30 6074 O 589.252 -1.80498 5.15832 0
M  V30 6075 H 586.346 -0.306444 0.768128 0
M  V30 6076 H 588.892 0.126141 1.69231 0
M  V30 6077 H 587.664 -0.0414766 3.91278 0
M  V30 6078 H 587.287 -1.72441 3.5826 0
M  V30 6079 N 588.284 -1.56567 -0.180126 0
M  V30 6080 C 589.216 -1.92275 -1.24751 0
M  V30 6081 C 590.229 -0.814922 -1.40936 0
M  V30 6082 O 591.418 -1.09336 -1.41095 0
M  V30 6083 C 588.518 -2.15265 -2.61752 0
M  V30 6084 C 587.691 -3.46467 -2.66981 0
M  V30 6085 C 586.75 -3.58391 -3.85283 0
M  V30 6086 O 585.776 -4.31086 -3.7169 0
M  V30 6087 N 586.978 -2.92587 -5.01371 0
M  V30 6088 H 589.743 -2.84435 -0.944302 0
M  V30 6089 H 587.304 -1.57617 -0.369952 0
M  V30 6090 H 589.296 -2.20515 -3.39345 0
M  V30 6091 H 587.866 -1.29533 -2.845 0
M  V30 6092 H 587.086 -3.52953 -1.75549 0
M  V30 6093 H 588.374 -4.32819 -2.67479 0
M  V30 6094 H 587.772 -2.3338 -5.15316 0
M  V30 6095 H 586.329 -3.03444 -5.76858 0
M  V30 6096 N 589.762 0.448376 -1.51087 0
M  V30 6097 C 590.692 1.55102 -1.74544 0
M  V30 6098 C 591.673 1.59357 -0.594932 0
M  V30 6099 O 592.858 1.75261 -0.836491 0
M  V30 6100 C 589.988 2.93268 -1.86041 0
M  V30 6101 C 588.942 3.03877 -3.01402 0
M  V30 6102 C 588.268 4.43914 -2.98068 0
M  V30 6103 C 589.568 2.7898 -4.41551 0
M  V30 6104 H 591.262 1.35724 -2.66869 0
M  V30 6105 H 588.808 0.651498 -1.28419 0
M  V30 6106 H 590.761 3.70356 -2.01034 0
M  V30 6107 H 589.485 3.13853 -0.903548 0
M  V30 6108 H 588.144 2.29227 -2.86096 0
M  V30 6109 H 587.792 4.6145 -2.00182 0
M  V30 6110 H 587.492 4.51944 -3.75527 0
M  V30 6111 H 589.016 5.22991 -3.1514 0
M  V30 6112 H 590.43 3.45805 -4.57265 0
M  V30 6113 H 588.827 2.98431 -5.20633 0
M  V30 6114 H 589.897 1.74663 -4.5235 0
M  V30 6115 N 591.24 1.41047 0.703093 0
M  V30 6116 C 592.651 1.35657 1.28274 0
M  V30 6117 C 593.002 0.0360309 1.96167 0
M  V30 6118 O 592.127 -0.865833 1.98324 0
M  V30 6119 C 592.722 2.45707 2.33267 0
M  V30 6120 C 591.281 2.43738 2.86825 0
M  V30 6121 C 590.428 2.25941 1.60767 0
M  V30 6122 H 593.379 1.50672 0.49836 0
M  V30 6123 H 593.4 2.14333 3.14391 0
M  V30 6124 H 592.912 3.41805 1.83824 0
M  V30 6125 H 591.013 1.51375 3.40465 0
M  V30 6126 H 591.126 3.39779 3.37768 0
M  V30 6127 H 589.49 1.73681 1.86298 0
M  V30 6128 H 590.273 3.24054 1.1333 0
M  V30 6129 N 592.718 -0.936591 1.26751 0
M  V30 6130 C 593.966 -1.67998 1.12343 0
M  V30 6131 C 594.287 -1.92137 -0.332938 0
M  V30 6132 O 593.557 -1.52132 -1.23421 0
M  V30 6133 H 592.137 -0.622609 0.412756 0
M  V30 6134 H 594.799 -1.12509 1.59147 0
M  V30 6135 H 593.895 -2.65185 1.64571 0
M  V30 6136 N 594.196 -1.08629 -1.14182 0
M  V30 6137 C 595.473 -0.73002 -1.81466 0
M  V30 6138 C 595.853 0.785996 -1.95922 0
M  V30 6139 O 595.201 1.70535 -1.52086 0
M  V30 6140 C 595.411 -1.45957 -3.17014 0
M  V30 6141 C 596.759 -1.62008 -3.92477 0
M  V30 6142 O 597.783 -1.42141 -3.26611 0
M  V30 6143 O 596.642 -1.94806 -5.106 0
M  V30 6144 H 593.736 -0.261307 -0.784632 0
M  V30 6145 H 596.282 -1.188 -1.2118 0
M  V30 6146 H 595.054 -2.49221 -3.01669 0
M  V30 6147 H 594.677 -0.993222 -3.84995 0
M  V30 6148 N 595.674 1.31259 -0.872281 0
M  V30 6149 C 596.922 1.96233 -0.483409 0
M  V30 6150 C 597.243 1.69276 0.968012 0
M  V30 6151 O 596.513 1.00943 1.67891 0
M  V30 6152 H 595.093 0.726025 -0.175774 0
M  V30 6153 H 597.755 1.60024 -1.11258 0
M  V30 6154 H 596.851 3.05403 -0.643075 0
M  V30 6155 N 597.152 0.631951 1.44375 0
M  V30 6156 C 598.429 0.067646 1.95483 0
M  V30 6157 C 598.809 -1.40683 1.57389 0
M  V30 6158 O 598.157 -2.12167 0.848375 0
M  V30 6159 C 598.367 0.291392 3.47781 0
M  V30 6160 C 599.715 0.185028 4.24197 0
M  V30 6161 O 600.739 0.222803 3.55503 0
M  V30 6162 O 599.598 0.0906642 5.46425 0
M  V30 6163 H 596.692 -0.0218379 0.826712 0
M  V30 6164 H 599.238 0.703711 1.54421 0
M  V30 6165 H 598.01 1.31449 3.68561 0
M  V30 6166 H 597.633 -0.378772 3.95792 0
M  V30 6167 N 598.631 -1.53133 0.372548 0
M  V30 6168 C 599.856 -2.0625 -0.218098 0
M  V30 6169 C 600.281 -1.24375 -1.41111 0
M  V30 6170 O 599.639 -0.264554 -1.79359 0
M  V30 6171 C 599.687 -3.55858 -0.582876 0
M  V30 6172 O 598.791 -3.76667 -1.67917 0
M  V30 6173 H 598.132 -0.663317 -0.030104 0
M  V30 6174 H 600.662 -1.97477 0.535169 0
M  V30 6175 H 600.672 -3.99007 -0.851925 0
M  V30 6176 H 599.347 -4.14892 0.289428 0
M  V30 6177 H 597.924 -3.45413 -1.40513 0
M  V30 6178 N 600.109 -0.101901 -1.5727 0
M  V30 6179 C 601.357 0.559091 -1.94213 0
M  V30 6180 C 601.678 1.68297 -0.984948 0
M  V30 6181 O 600.948 1.95863 -0.0381975 0
M  V30 6182 H 599.528 0.20952 -0.717015 0
M  V30 6183 H 602.19 -0.166831 -1.94185 0
M  V30 6184 H 601.286 0.96485 -2.96811 0
M  V30 6185 N 601.587 1.56661 0.17182 0
M  V30 6186 C 602.812 1.86459 0.908165 0
M  V30 6187 C 603.237 0.688181 1.75059 0
M  V30 6188 O 602.595 -0.362753 1.77634 0
M  V30 6189 C 602.643 3.14669 1.76112 0
M  V30 6190 O 601.747 2.96858 2.86268 0
M  V30 6191 H 601.088 0.613318 0.254434 0
M  V30 6192 H 603.618 2.03892 0.170113 0
M  V30 6193 H 603.628 3.46061 2.16115 0
M  V30 6194 H 602.303 3.99905 1.14233 0
M  V30 6195 H 600.88 2.76819 2.49852 0
M  V30 6196 N 603.065 -0.440357 1.51323 0
M  V30 6197 C 604.342 -1.20109 1.5438 0
M  V30 6198 C 604.722 -2.08866 0.306303 0
M  V30 6199 O 604.07 -2.1723 -0.708773 0
M  V30 6200 C 604.28 -2.00555 2.8562 0
M  V30 6201 C 605.628 -2.577 3.37455 0
M  V30 6202 O 606.652 -2.10769 2.8715 0
M  V30 6203 O 605.511 -3.43289 4.25224 0
M  V30 6204 H 602.605 -0.546668 0.620551 0
M  V30 6205 H 605.151 -0.449672 1.63634 0
M  V30 6206 H 603.923 -1.35346 3.67147 0
M  V30 6207 H 603.546 -2.82768 2.79514 0
M  V30 6208 N 604.543 -1.41418 -0.695603 0
M  V30 6209 C 605.789 -1.40982 -1.4578 0
M  V30 6210 C 606.122 -0.0187763 -1.94191 0
M  V30 6211 O 605.397 0.95346 -1.69527 0
M  V30 6212 C 605.68 -2.41657 -2.66972 0
M  V30 6213 C 605.533 -3.89869 -2.24327 0
M  V30 6214 C 606.852 -2.39589 -3.69168 0
M  V30 6215 H 603.971 -0.513405 -0.528757 0
M  V30 6216 H 606.613 -1.72693 -0.792275 0
M  V30 6217 H 604.763 -2.14746 -3.23754 0
M  V30 6218 H 606.435 -4.27683 -1.72872 0
M  V30 6219 H 604.678 -4.04737 -1.56111 0
M  V30 6220 H 605.349 -4.55857 -3.11285 0
M  V30 6221 H 607.825 -2.63471 -3.2206 0
M  V30 6222 H 606.701 -3.12044 -4.51575 0
M  V30 6223 H 606.962 -1.41447 -4.18862 0
M  V30 6224 N 606.021 0.929856 -1.27246 0
M  V30 6225 C 606.931 2.0636 -1.11592 0
M  V30 6226 C 607.947 1.73938 -0.046496 0
M  V30 6227 O 609.123 1.9981 -0.252544 0
M  V30 6228 C 606.188 3.38213 -0.762437 0
M  V30 6229 C 605.249 3.84346 -1.9125 0
M  V30 6230 C 604.482 5.09906 -1.57579 0
M  V30 6231 O 604.705 5.68354 -0.482694 0
M  V30 6232 O 603.639 5.51359 -2.41426 0
M  V30 6233 H 607.465 2.22478 -2.0673 0
M  V30 6234 H 605.05 1.04865 -1.06413 0
M  V30 6235 H 606.932 4.1741 -0.57854 0
M  V30 6236 H 605.607 3.23307 0.159439 0
M  V30 6237 H 604.514 3.06045 -2.15144 0
M  V30 6238 H 605.847 4.0379 -2.81451 0
M  V30 6239 N 607.499 1.09233 1.13605 0
M  V30 6240 C 608.724 0.849067 1.89224 0
M  V30 6241 C 609.149 -0.593875 1.78479 0
M  V30 6242 O 608.507 -1.41703 1.13092 0
M  V30 6243 C 608.555 1.28642 3.36873 0
M  V30 6244 O 607.659 0.44363 4.10007 0
M  V30 6245 H 607 0.30767 0.588417 0
M  V30 6246 H 609.53 1.45595 1.43748 0
M  V30 6247 H 609.54 1.27096 3.87699 0
M  V30 6248 H 608.215 2.33729 3.44011 0
M  V30 6249 H 606.792 0.523241 3.69211 0
M  V30 6250 N 608.977 -1.30795 0.87923 0
M  V30 6251 C 610.207 -2.00237 0.50881 0
M  V30 6252 C 610.615 -1.66115 -0.905682 0
M  V30 6253 O 609.958 -0.89138 -1.60624 0
M  V30 6254 C 610.02 -3.54508 0.597003 0
M  V30 6255 C 609.684 -4.12131 1.97477 0
M  V30 6256 C 610.681 -4.28552 2.94346 0
M  V30 6257 C 608.366 -4.47644 2.2786 0
M  V30 6258 C 610.36 -4.79689 4.19735 0
M  V30 6259 C 608.047 -4.98481 3.53496 0
M  V30 6260 C 609.045 -5.14456 4.49248 0
M  V30 6261 O 608.733 -5.64199 5.72656 0
M  V30 6262 H 608.465 -0.647026 0.195788 0
M  V30 6263 H 611.019 -1.67785 1.1848 0
M  V30 6264 H 609.249 -3.86461 -0.135945 0
M  V30 6265 H 610.938 -4.05198 0.238684 0
M  V30 6266 H 611.704 -4.01424 2.72183 0
M  V30 6267 H 607.583 -4.34481 1.54102 0
M  V30 6268 H 611.127 -4.92073 4.9448 0
M  V30 6269 H 607.024 -5.25044 3.75498 0
M  V30 6270 H 607.792 -5.82551 5.74957 0
M  V30 6271 N 610.455 -0.639598 -1.44038 0
M  V30 6272 C 611.68 -0.153117 -2.06834 0
M  V30 6273 C 612.105 1.16676 -1.47541 0
M  V30 6274 O 611.463 1.71769 -0.580093 0
M  V30 6275 C 611.511 -0.0609169 -3.60549 0
M  V30 6276 O 610.615 0.98071 -4.00569 0
M  V30 6277 H 609.956 -0.0886402 -0.658057 0
M  V30 6278 H 612.486 -0.878674 -1.84771 0
M  V30 6279 H 612.496 0.126892 -4.07803 0
M  V30 6280 H 611.171 -1.0245 -4.03084 0
M  V30 6281 H 609.748 0.766789 -3.64931 0
M  V30 6282 N 611.933 1.52934 -0.380664 0
M  V30 6283 C 613.158 2.06363 0.207157 0
M  V30 6284 C 613.583 1.25122 1.4045 0
M  V30 6285 O 612.941 0.274062 1.79217 0
M  V30 6286 C 612.989 3.56162 0.563996 0
M  V30 6287 O 612.093 3.77552 1.65917 0
M  V30 6288 H 611.434 0.663468 0.0265859 0
M  V30 6289 H 613.964 1.9719 -0.545635 0
M  V30 6290 H 613.974 3.99453 0.830752 0
M  V30 6291 H 612.649 4.14732 -0.311427 0
M  V30 6292 H 611.226 3.46154 1.3868 0
M  V30 6293 N 613.412 0.11024 1.57214 0
M  V30 6294 C 614.345 -0.880224 2.1054 0
M  V30 6295 C 615.323 -1.26658 1.01964 0
M  V30 6296 O 616.507 -1.36917 1.29561 0
M  V30 6297 C 613.634 -2.17676 2.59489 0
M  V30 6298 C 612.68 -1.93914 3.79868 0
M  V30 6299 S 613.513 -1.16336 5.2271 0
M  V30 6300 C 614.669 -2.47188 5.75021 0
M  V30 6301 H 614.902 -0.426614 2.94223 0
M  V30 6302 H 612.435 -0.10336 1.54054 0
M  V30 6303 H 614.393 -2.92175 2.88347 0
M  V30 6304 H 613.054 -2.60156 1.76005 0
M  V30 6305 H 612.247 -2.8996 4.12236 0
M  V30 6306 H 611.849 -1.27539 3.51582 0
M  V30 6307 H 614.141 -3.43079 5.84211 0
M  V30 6308 H 615.084 -2.19377 6.7326 0
M  V30 6309 H 615.492 -2.56154 5.03036 0
M  V30 6310 N 614.89 -1.56749 -0.16351 0
M  V30 6311 C 616.301 -1.72039 -0.725216 0
M  V30 6312 C 616.652 -0.72202 -1.82432 0
M  V30 6313 O 615.777 0.114942 -2.16095 0
M  V30 6314 C 616.372 -3.11932 -1.32227 0
M  V30 6315 C 614.931 -3.28879 -1.83072 0
M  V30 6316 C 614.078 -2.67984 -0.712716 0
M  V30 6317 H 617.029 -1.58579 0.0619772 0
M  V30 6318 H 617.05 -3.11015 -2.19202 0
M  V30 6319 H 616.562 -3.84572 -0.522103 0
M  V30 6320 H 614.663 -2.61209 -2.65708 0
M  V30 6321 H 614.776 -4.36688 -1.97079 0
M  V30 6322 H 613.14 -2.28005 -1.13515 0
M  V30 6323 H 613.923 -3.43216 0.0757361 0
M  V30 6324 N 616.368 0.432326 -1.51554 0
M  V30 6325 C 617.779 1.01202 -1.56892 0
M  V30 6326 C 618.13 1.92175 -0.395394 0
M  V30 6327 O 617.255 2.10844 0.487198 0
M  V30 6328 C 617.85 1.84217 -2.8434 0
M  V30 6329 C 616.409 2.37228 -2.92233 0
M  V30 6330 C 615.556 1.16576 -2.51606 0
M  V30 6331 H 618.507 0.213407 -1.57259 0
M  V30 6332 H 618.528 2.69721 -2.68385 0
M  V30 6333 H 618.04 1.17979 -3.69733 0
M  V30 6334 H 616.141 3.06905 -2.11282 0
M  V30 6335 H 616.254 2.69682 -3.95991 0
M  V30 6336 H 614.618 1.51263 -2.04919 0
M  V30 6337 H 615.401 0.519404 -3.39348 0
M  V30 6338 N 617.846 1.41785 0.688094 0
M  V30 6339 C 618.776 1.47 1.8142 0
M  V30 6340 C 619.757 0.327881 1.6691 0
M  V30 6341 O 620.942 0.540362 1.86531 0
M  V30 6342 C 618.072 1.35876 3.19617 0
M  V30 6343 C 617.026 2.47976 3.48844 0
M  V30 6344 C 616.352 2.21915 4.86475 0
M  V30 6345 C 617.652 3.90309 3.47068 0
M  V30 6346 H 619.346 2.41247 1.77314 0
M  V30 6347 H 616.892 1.16116 0.851651 0
M  V30 6348 H 618.845 1.38134 3.98117 0
M  V30 6349 H 617.569 0.38116 3.24368 0
M  V30 6350 H 616.228 2.45013 2.72698 0
M  V30 6351 H 615.876 1.2248 4.8786 0
M  V30 6352 H 615.576 2.97037 5.06994 0
M  V30 6353 H 617.1 2.25901 5.67275 0
M  V30 6354 H 618.514 3.94947 4.1556 0
M  V30 6355 H 616.911 4.65175 3.7912 0
M  V30 6356 H 617.981 4.17927 2.45896 0
M  V30 6357 N 619.324 -0.923095 1.27737 0
M  V30 6358 C 620.234 -2.05765 1.12685 0
M  V30 6359 C 621.25 -1.73911 0.0557197 0
M  V30 6360 O 622.426 -1.99674 0.263137 0
M  V30 6361 C 619.491 -3.37804 0.780363 0
M  V30 6362 C 618.552 -3.83326 1.93286 0
M  V30 6363 C 617.785 -5.09064 1.60281 0
M  V30 6364 O 618.008 -5.6809 0.512828 0
M  V30 6365 O 616.942 -5.50071 2.44347 0
M  V30 6366 H 620.768 -2.21378 2.07907 0
M  V30 6367 H 618.353 -1.04299 1.06968 0
M  V30 6368 H 620.235 -4.17097 0.600668 0
M  V30 6369 H 618.91 -3.23387 -0.142291 0
M  V30 6370 H 617.817 -3.049 2.16764 0
M  V30 6371 H 619.15 -4.02292 2.83588 0
M  V30 6372 N 620.802 -1.09834 -1.13024 0
M  V30 6373 C 622.05 -0.835297 -1.8403 0
M  V30 6374 C 622.371 0.640944 -1.84165 0
M  V30 6375 O 621.641 1.46517 -1.30037 0
M  V30 6376 H 620.221 -0.306018 -0.681441 0
M  V30 6377 H 622.883 -1.38734 -1.36891 0
M  V30 6378 H 621.979 -1.19258 -2.88416 0
M  V30 6379 N 622.28 1.30327 -0.886154 0
M  V30 6380 C 623.19 2.31854 -0.357866 0
M  V30 6381 C 624.206 1.65392 0.540502 0
M  V30 6382 O 625.382 1.96683 0.433339 0
M  V30 6383 C 622.447 3.44171 0.417999 0
M  V30 6384 C 621.508 4.26257 -0.510263 0
M  V30 6385 C 620.741 5.3321 0.228669 0
M  V30 6386 O 620.964 5.51542 1.45458 0
M  V30 6387 O 619.898 6.0042 -0.421832 0
M  V30 6388 H 623.724 2.78995 -1.19982 0
M  V30 6389 H 621.309 1.34518 -0.650028 0
M  V30 6390 H 623.191 4.12588 0.857251 0
M  V30 6391 H 621.866 2.99164 1.23623 0
M  V30 6392 H 620.773 3.60533 -0.99835 0
M  V30 6393 H 622.106 4.74871 -1.29454 0
M  V30 6394 N 623.758 0.647228 1.43697 0
M  V30 6395 C 625.169 0.238689 1.85168 0
M  V30 6396 C 625.52 -1.21345 1.54175 0
M  V30 6397 O 624.645 -1.92542 0.987743 0
M  V30 6398 C 625.24 0.426422 3.36106 0
M  V30 6399 C 623.799 0.0722541 3.76331 0
M  V30 6400 C 622.946 0.732153 2.6746 0
M  V30 6401 H 625.897 0.851309 1.33934 0
M  V30 6402 H 625.918 -0.32987 3.79067 0
M  V30 6403 H 625.43 1.48339 3.58632 0
M  V30 6404 H 623.531 -0.982355 3.59417 0
M  V30 6405 H 623.644 0.493541 4.76551 0
M  V30 6406 H 622.008 0.16594 2.54159 0
M  V30 6407 H 622.791 1.79204 2.92816 0
M  V30 6408 N 625.236 -1.5273 0.388769 0
M  V30 6409 C 626.484 -2.01174 -0.193208 0
M  V30 6410 C 626.805 -1.27705 -1.47365 0
M  V30 6411 O 626.075 -0.396966 -1.91836 0
M  V30 6412 H 624.655 -0.743287 -0.0743871 0
M  V30 6413 H 627.317 -1.87826 0.520336 0
M  V30 6414 H 626.413 -3.09477 -0.403803 0
M  V30 6415 N 626.714 -0.118576 -1.57153 0
M  V30 6416 C 627.991 0.583062 -1.86708 0
M  V30 6417 C 628.371 1.84841 -1.01967 0
M  V30 6418 O 627.719 2.28288 -0.0984673 0
M  V30 6419 C 627.929 0.875912 -3.3783 0
M  V30 6420 C 629.277 1.22916 -4.0642 0
M  V30 6421 O 630.301 0.966188 -3.42846 0
M  V30 6422 O 629.16 1.72269 -5.18638 0
M  V30 6423 H 626.254 0.294185 -0.772906 0
M  V30 6424 H 628.8 -0.153048 -1.69008 0
M  V30 6425 H 627.572 -0.0207776 -3.91294 0
M  V30 6426 H 627.195 1.66719 -3.60958 0
M  V30 6427 N 628.193 1.56834 0.155195 0
M  V30 6428 C 629.604 1.72421 0.716082 0
M  V30 6429 C 629.955 0.731685 1.82046 0
M  V30 6430 O 629.08 -0.103481 2.16152 0
M  V30 6431 C 629.675 3.12629 1.30571 0
M  V30 6432 C 628.234 3.29846 1.81325 0
M  V30 6433 C 627.381 2.68359 0.698494 0
M  V30 6434 H 630.332 1.58544 -0.0703861 0
M  V30 6435 H 630.353 3.12174 2.1755 0
M  V30 6436 H 629.865 3.84844 0.501701 0
M  V30 6437 H 627.966 2.62614 2.64319 0
M  V30 6438 H 628.079 4.37727 1.9476 0
M  V30 6439 H 626.443 2.28604 1.12305 0
M  V30 6440 H 627.226 3.43171 -0.0939366 0
M  V30 6441 N 629.671 -0.424282 1.51781 0
M  V30 6442 C 630.948 -1.18464 1.55646 0
M  V30 6443 C 631.328 -2.08529 0.328438 0
M  V30 6444 O 630.676 -2.17969 -0.685693 0
M  V30 6445 C 630.886 -1.97514 2.87731 0
M  V30 6446 C 632.234 -2.54106 3.40169 0
M  V30 6447 O 633.258 -2.07711 2.89369 0
M  V30 6448 O 632.117 -3.38759 4.28841 0
M  V30 6449 H 629.211 -0.540055 0.626314 0
M  V30 6450 H 631.757 -0.432291 1.64102 0
M  V30 6451 H 630.529 -1.31444 3.68562 0
M  V30 6452 H 630.152 -2.79787 2.82498 0
M  V30 6453 N 631.149 -1.42148 -0.680565 0
M  V30 6454 C 632.079 -1.4796 -1.80638 0
M  V30 6455 C 633.06 -0.336728 -1.66734 0
M  V30 6456 O 634.245 -0.550247 -1.86242 0
M  V30 6457 C 631.375 -1.37569 -3.18892 0
M  V30 6458 C 630.329 -2.49823 -3.47524 0
M  V30 6459 C 629.655 -2.24491 -4.85291 0
M  V30 6460 C 630.955 -3.92144 -3.44994 0
M  V30 6461 H 632.649 -2.42184 -1.76032 0
M  V30 6462 H 630.195 -1.16566 -0.845481 0
M  V30 6463 H 632.148 -1.40243 -3.97379 0
M  V30 6464 H 630.872 -0.398357 -3.24162 0
M  V30 6465 H 629.531 -2.46455 -2.71395 0
M  V30 6466 H 629.179 -1.25066 -4.87204 0
M  V30 6467 H 628.879 -2.99722 -5.05411 0
M  V30 6468 H 630.403 -2.28906 -5.66069 0
M  V30 6469 H 631.817 -3.97145 -4.13459 0
M  V30 6470 H 630.214 -4.67179 -3.76648 0
M  V30 6471 H 631.284 -4.19225 -2.43676 0
M  V30 6472 N 632.627 0.916307 -1.28225 0
M  V30 6473 C 633.852 1.7043 -1.18188 0
M  V30 6474 C 634.277 1.86346 0.256274 0
M  V30 6475 O 633.635 1.37175 1.18544 0
M  V30 6476 C 633.683 3.07546 -1.88275 0
M  V30 6477 O 632.787 3.94904 -1.18848 0
M  V30 6478 H 632.128 0.521967 -0.410423 0
M  V30 6479 H 634.658 1.14589 -1.69501 0
M  V30 6480 H 634.668 3.57793 -1.96082 0
M  V30 6481 H 633.343 2.95279 -2.92887 0
M  V30 6482 H 631.92 3.53339 -1.19187 0
M  V30 6483 N 634.105 1.10431 1.1244 0
M  V30 6484 C 635.382 0.758797 1.80282 0
M  V30 6485 C 635.762 -0.754727 1.97147 0
M  V30 6486 O 635.11 -1.68094 1.54779 0
M  V30 6487 C 635.32 1.50982 3.14651 0
M  V30 6488 C 636.668 1.68232 3.8985 0
M  V30 6489 O 637.692 1.47319 3.24308 0
M  V30 6490 O 636.551 2.02905 5.07437 0
M  V30 6491 H 633.645 0.273756 0.780376 0
M  V30 6492 H 636.191 1.20713 1.19275 0
M  V30 6493 H 634.963 2.53989 2.97666 0
M  V30 6494 H 634.586 1.05435 3.83366 0
M  V30 6495 N 635.583 -1.29855 0.893053 0
M  V30 6496 C 636.831 -1.9544 0.514566 0
M  V30 6497 C 637.152 -1.70795 -0.940959 0
M  V30 6498 O 636.422 -1.03601 -1.66264 0
M  V30 6499 H 635.002 -0.723137 0.187302 0
M  V30 6500 H 637.664 -1.58234 1.13789 0
M  V30 6501 H 636.76 -3.04341 0.691581 0
M  V30 6502 N 637.061 -0.65484 -1.43351 0
M  V30 6503 C 638.286 -0.175046 -2.0666 0
M  V30 6504 C 638.711 1.15104 -1.4877 0
M  V30 6505 O 638.069 1.71144 -0.598279 0
M  V30 6506 C 638.117 -0.0991544 -3.60464 0
M  V30 6507 O 637.221 0.938169 -4.01587 0
M  V30 6508 H 636.562 -0.0956148 -0.65708 0
M  V30 6509 H 639.092 -0.898222 -1.83829 0
M  V30 6510 H 639.102 0.083632 -4.07914 0
M  V30 6511 H 637.777 -1.06719 -4.01975 0
M  V30 6512 H 636.354 0.72804 -3.65724 0
M  V30 6513 N 638.539 1.52521 -0.396863 0
M  V30 6514 C 639.785 2.02641 0.175606 0
M  V30 6515 C 640.14 1.27782 1.43839 0
M  V30 6516 O 639.433 0.371921 1.87956 0
M  V30 6517 C 639.627 3.5403 0.489677 0
M  V30 6518 C 639.456 4.43551 -0.741113 0
M  V30 6519 C 638.226 4.8927 -1.26265 0
M  V30 6520 C 640.424 4.88263 -1.61565 0
M  V30 6521 N 638.406 5.62884 -2.4502 0
M  V30 6522 C 639.777 5.60534 -2.64955 0
M  V30 6523 C 641.832 4.70294 -1.63486 0
M  V30 6524 C 640.535 6.16744 -3.70162 0
M  V30 6525 C 642.561 5.27392 -2.67603 0
M  V30 6526 C 641.923 5.99575 -3.69715 0
M  V30 6527 H 638.022 0.781563 0.0261477 0
M  V30 6528 H 640.606 1.86816 -0.548454 0
M  V30 6529 H 638.777 3.69952 1.18279 0
M  V30 6530 H 640.509 3.90843 1.04996 0
M  V30 6531 H 637.264 4.66403 -0.822509 0
M  V30 6532 H 637.688 6.04339 -3.05128 0
M  V30 6533 H 642.33 4.13985 -0.858848 0
M  V30 6534 H 640.048 6.72131 -4.48626 0
M  V30 6535 H 643.634 5.15365 -2.69982 0
M  V30 6536 H 642.514 6.42967 -4.48958 0
M  V30 6537 N 640.017 0.126909 1.57088 0
M  V30 6538 C 641.242 -0.53997 2.00248 0
M  V30 6539 C 641.667 -1.58927 1.00618 0
M  V30 6540 O 641.025 -1.81288 -0.0210131 0
M  V30 6541 C 641.073 -1.13565 3.4225 0
M  V30 6542 O 640.177 -2.25103 3.45547 0
M  V30 6543 H 639.518 -0.13412 0.650314 0
M  V30 6544 H 642.048 0.217718 2.03438 0
M  V30 6545 H 642.058 -1.46925 3.80627 0
M  V30 6546 H 640.733 -0.367122 4.14277 0
M  V30 6547 H 639.31 -1.93123 3.18995 0
M  V30 6548 N 641.495 -1.56914 -0.146875 0
M  V30 6549 C 642.723 -1.87515 -0.874394 0
M  V30 6550 C 643.138 -0.715116 -1.74733 0
M  V30 6551 O 642.495 0.315113 -1.79759 0
M  V30 6552 C 642.546 -3.17362 -1.731 0
M  V30 6553 O 642.267 -4.28897 -0.893245 0
M  V30 6554 C 643.768 -3.61479 -2.56609 0
M  V30 6555 H 640.988 -0.621546 -0.252827 0
M  V30 6556 H 643.532 -2.04023 -0.139627 0
M  V30 6557 H 641.687 -3.02608 -2.41883 0
M  V30 6558 H 642.101 -5.03146 -1.48137 0
M  V30 6559 H 643.575 -4.5517 -3.12289 0
M  V30 6560 H 644.052 -2.86773 -3.32653 0
M  V30 6561 H 644.658 -3.78927 -1.93117 0
M  V30 6562 N 642.974 0.416227 -1.52004 0
M  V30 6563 C 643.907 1.52736 -1.6955 0
M  V30 6564 C 644.885 1.53264 -0.54305 0
M  V30 6565 O 646.069 1.72077 -0.769527 0
M  V30 6566 C 643.196 2.91283 -1.72835 0
M  V30 6567 C 642.242 3.08695 -2.94295 0
M  V30 6568 S 643.075 2.82758 -4.54762 0
M  V30 6569 C 644.231 4.23548 -4.60823 0
M  V30 6570 H 644.464 1.37623 -2.63528 0
M  V30 6571 H 641.997 0.607335 -1.41954 0
M  V30 6572 H 643.955 3.71134 -1.75413 0
M  V30 6573 H 642.616 3.03742 -0.799966 0
M  V30 6574 H 641.809 4.10042 -2.93056 0
M  V30 6575 H 641.411 2.36699 -2.89568 0
M  V30 6576 H 643.703 5.17078 -4.37763 0
M  V30 6577 H 644.646 4.29813 -5.62731 0
M  V30 6578 H 645.054 4.08188 -3.89927 0
M  V30 6579 N 644.452 1.42507 0.673017 0
M  V30 6580 C 645.677 1.4668 1.46627 0
M  V30 6581 C 646.102 0.080066 1.8793 0
M  V30 6582 O 645.46 -0.921879 1.56112 0
M  V30 6583 C 645.508 2.40091 2.69051 0
M  V30 6584 O 644.612 1.8735 3.67387 0
M  V30 6585 H 643.953 0.496908 0.44043 0
M  V30 6586 H 646.483 1.87215 0.825334 0
M  V30 6587 H 646.493 2.56731 3.17101 0
M  V30 6588 H 645.168 3.4084 2.3833 0
M  V30 6589 H 643.745 1.80274 3.26429 0
M  V30 6590 N 645.93 -0.909495 1.28709 0
M  V30 6591 C 646.84 -2.04558 1.14861 0
M  V30 6592 C 647.856 -1.73842 0.0741621 0
M  V30 6593 O 649.032 -1.99383 0.2843 0
M  V30 6594 C 646.097 -3.36957 0.816148 0
M  V30 6595 C 645.158 -3.81255 1.97341 0
M  V30 6596 C 644.391 -5.07335 1.65671 0
M  V30 6597 O 644.614 -5.67514 0.573053 0
M  V30 6598 O 643.548 -5.47449 2.50167 0
M  V30 6599 H 647.374 -2.19161 2.10243 0
M  V30 6600 H 644.959 -1.03159 1.08068 0
M  V30 6601 H 646.841 -4.16436 0.644873 0
M  V30 6602 H 645.516 -3.2352 -0.107983 0
M  V30 6603 H 644.423 -3.02584 2.19986 0
M  V30 6604 H 645.756 -3.99261 2.87839 0
M  V30 6605 N 647.408 -1.11026 -1.11852 0
M  V30 6606 C 648.318 -0.777252 -2.2135 0
M  V30 6607 C 649.334 0.227821 -1.72502 0
M  V30 6608 O 650.51 0.0650587 -2.01295 0
M  V30 6609 C 647.575 -0.220668 -3.45997 0
M  V30 6610 C 646.636 -1.2838 -4.09655 0
M  V30 6611 C 645.869 -0.753678 -5.28352 0
M  V30 6612 O 646.092 0.417779 -5.68868 0
M  V30 6613 O 645.026 -1.51647 -5.82483 0
M  V30 6614 H 648.852 -1.69141 -2.5224 0
M  V30 6615 H 646.437 -0.885836 -1.20305 0
M  V30 6616 H 648.319 0.0855756 -4.21313 0
M  V30 6617 H 646.994 0.666262 -3.16769 0
M  V30 6618 H 645.901 -1.64299 -3.3609 0
M  V30 6619 H 647.234 -2.14396 -4.43052 0
M  V30 6620 N 648.886 1.2938 -0.899927 0
M  V30 6621 C 649.849 2.25983 -0.382677 0
M  V30 6622 C 650.849 1.53366 0.483259 0
M  V30 6623 O 652.039 1.71798 0.28828 0
M  V30 6624 C 649.171 3.37878 0.452915 0
M  V30 6625 H 650.364 2.73252 -1.23586 0
M  V30 6626 H 647.917 1.40825 -0.678088 0
M  V30 6627 H 648.652 2.95949 1.32608 0
M  V30 6628 H 648.437 3.91742 -0.167562 0
M  V30 6629 H 649.927 4.09746 0.806107 0
M  V30 6630 N 650.364 0.662433 1.43002 0
M  V30 6631 C 651.589 0.186003 2.06564 0
M  V30 6632 C 652.014 -1.14314 1.49379 0
M  V30 6633 O 651.372 -1.70824 0.607346 0
M  V30 6634 C 651.42 0.118269 3.60406 0
M  V30 6635 O 650.524 -0.916859 4.02079 0
M  V30 6636 H 649.865 0.0990981 0.656563 0
M  V30 6637 H 652.395 0.907958 1.8335 0
M  V30 6638 H 652.405 -0.0619981 4.07953 0
M  V30 6639 H 651.08 1.08849 4.01403 0
M  V30 6640 H 649.657 -0.708635 3.66105 0
M  V30 6641 N 651.842 -1.52309 0.404946 0
M  V30 6642 C 652.752 -2.30634 -0.429555 0
M  V30 6643 C 653.768 -1.38187 -1.05737 0
M  V30 6644 O 654.944 -1.71261 -1.05979 0
M  V30 6645 C 652.009 -3.10947 -1.53339 0
M  V30 6646 C 651.07 -4.19126 -0.929065 0
M  V30 6647 C 650.303 -4.95601 -1.9803 0
M  V30 6648 O 650.526 -4.72331 -3.1978 0
M  V30 6649 O 649.46 -5.80551 -1.58886 0
M  V30 6650 H 653.286 -3.0298 0.208963 0
M  V30 6651 H 650.871 -1.4845 0.168255 0
M  V30 6652 H 652.753 -3.60974 -2.1743 0
M  V30 6653 H 651.428 -2.41399 -2.15658 0
M  V30 6654 H 650.335 -3.73257 -0.250982 0
M  V30 6655 H 651.668 -4.90955 -0.349855 0
M  V30 6656 N 653.32 -0.135238 -1.57019 0
M  V30 6657 C 654.597 0.563227 -1.87316 0
M  V30 6658 C 654.977 1.83749 -1.03921 0
M  V30 6659 O 654.325 2.2817 -0.122675 0
M  V30 6660 C 654.535 0.840031 -3.3874 0
M  V30 6661 C 655.883 1.18598 -4.077 0
M  V30 6662 O 656.907 0.92977 -3.43851 0
M  V30 6663 O 655.766 1.66758 -5.20436 0
M  V30 6664 H 652.86 0.285971 -0.775983 0
M  V30 6665 H 655.406 -0.170965 -1.68837 0
M  V30 6666 H 654.178 -0.0622785 -3.9125 0
M  V30 6667 H 653.801 1.62882 -3.62706 0
M  V30 6668 N 654.798 1.5699 0.138552 0
M  V30 6669 C 656.044 1.84081 0.85099 0
M  V30 6670 C 656.377 0.718107 1.80435 0
M  V30 6671 O 655.652 -0.277633 1.92508 0
M  V30 6672 C 655.935 3.21699 1.61808 0
M  V30 6673 C 655.788 4.44544 0.685633 0
M  V30 6674 C 657.107 3.5664 2.57868 0
M  V30 6675 H 654.226 0.669592 0.307922 0
M  V30 6676 H 656.868 1.89646 0.11588 0
M  V30 6677 H 655.018 3.17086 2.24474 0
M  V30 6678 H 656.69 4.61248 0.0693179 0
M  V30 6679 H 654.933 4.338 -0.00421993 0
M  V30 6680 H 655.604 5.3746 1.25858 0
M  V30 6681 H 658.08 3.61918 2.05316 0
M  V30 6682 H 656.956 4.53946 3.08584 0
M  V30 6683 H 657.217 2.83036 3.39622 0
M  V30 6684 N 656.276 -0.40816 1.52223 0
M  V30 6685 C 657.522 -1.15673 1.66576 0
M  V30 6686 C 657.855 -1.90141 0.394996 0
M  V30 6687 O 657.13 -1.84798 -0.606613 0
M  V30 6688 C 657.413 -2.15042 2.88841 0
M  V30 6689 C 657.266 -1.44465 4.25969 0
M  V30 6690 C 658.585 -3.15699 3.0663 0
M  V30 6691 H 655.704 -0.41916 0.606196 0
M  V30 6692 H 658.346 -0.442348 1.84779 0
M  V30 6693 H 656.496 -2.75964 2.73452 0
M  V30 6694 H 658.168 -0.866544 4.53088 0
M  V30 6695 H 656.411 -0.746612 4.27327 0
M  V30 6696 H 657.082 -2.16976 5.07568 0
M  V30 6697 H 659.558 -2.64854 3.20923 0
M  V30 6698 H 658.434 -3.82491 3.9369 0
M  V30 6699 H 658.695 -3.83481 2.19987 0
M  V30 6700 N 657.755 -1.42862 -0.66545 0
M  V30 6701 C 658.995 -1.45323 -1.43738 0
M  V30 6702 C 659.359 -0.0707969 -1.91869 0
M  V30 6703 O 660.56 0.0298852 -2.68783 0
M  V30 6704 C 658.831 -2.45671 -2.59577 0
M  V30 6705 S 660.39 -2.6691 -3.48288 0
M  V30 6706 H 657.208 -0.51442 -0.490809 0
M  V30 6707 H 659.81 -1.79537 -0.773745 0
M  V30 6708 H 658.514 -3.44869 -2.22471 0
M  V30 6709 H 658.045 -2.12914 -3.30804 0
M  V30 6710 H 660.06 -1.95914 -4.55886 0
M  V30 6711 N 659.233 0.902656 -1.29189 0
M  V30 6712 C 660.473 1.6672 -1.18254 0
M  V30 6713 C 660.837 1.90199 0.262336 0
M  V30 6714 O 662.038 2.6421 0.494612 0
M  V30 6715 C 660.309 2.98178 -1.9704 0
M  V30 6716 S 661.868 3.89226 -2.02605 0
M  V30 6717 H 658.686 0.572432 -0.421714 0
M  V30 6718 H 661.288 1.07279 -1.63436 0
M  V30 6719 H 659.992 2.788 -3.01163 0
M  V30 6720 H 659.523 3.62661 -1.5245 0
M  V30 6721 H 661.538 4.82913 -1.14059 0
M  V30 6722 O 660.75 1.23723 1.03802 0
M  V30 6723 H 661.441 1.01035 1.65262 0
M  V30 END ATOM
M  V30 BEGIN BOND
M  V30 END BOND
M  V30 END CTAB
M  END
$$$$
