drugbank_target|Q5LI27 Putative ornithine carbamoyltransferase (DB08554)
 OpenBabel12092120513D

  0  0  0     0  0            999 V3000
M  V30 BEGIN CTAB
M  V30 COUNTS 5093 5152 0 0 0
M  V30 BEGIN ATOM
M  V30 1 H -0.908 1.98254 -0.117106 0
M  V30 2 N 0 1.576 0 0
M  V30 3 C 0.933 2.03868 1.02534 0
M  V30 4 C 1.911 0.928543 1.3348 0
M  V30 5 O 3.095 1.19667 1.45644 0
M  V30 6 C 0.222 2.43627 2.35294 0
M  V30 7 C -0.732 3.65373 2.2001 0
M  V30 8 S 0.101 5.13292 1.52614 0
M  V30 9 C 1.257 5.56322 2.86805 0
M  V30 10 H 1.49 2.90518 0.631377 0
M  V30 11 H -0.977 1.52953 0.210867 0
M  V30 12 H 0.981 2.67203 3.11629 0
M  V30 13 H -0.358 1.57376 2.7183 0
M  V30 14 H -1.165 3.90944 3.18086 0
M  V30 15 H -1.563 3.418 1.51819 0
M  V30 16 H 0.729 5.58782 3.83104 0
M  V30 17 H 1.672 6.56266 2.65933 0
M  V30 18 H 2.08 4.83886 2.90714 0
M  V30 19 N 1.4781 -0.272755 1.55222 0
M  V30 20 C 2.4251 -1.33716 1.88119 0
M  V30 21 C 3.3951 -1.49066 0.73271 0
M  V30 22 O 4.5801 -1.63469 0.984002 0
M  V30 23 C 1.7201 -2.69238 2.15882 0
M  V30 24 C 0.8331 -2.62108 3.43399 0
M  V30 25 C -0.0319 -3.89811 3.60861 0
M  V30 26 C -0.9929 -3.77193 4.8207 0
M  V30 27 N -1.8559 -4.9673 4.96189 0
M  V30 28 H 2.9841 -1.04962 2.78903 0
M  V30 29 H 0.5211 -0.507088 1.38083 0
M  V30 30 H 2.4791 -3.48089 2.29978 0
M  V30 31 H 1.1091 -2.96194 1.28331 0
M  V30 32 H 0.1611 -1.74967 3.37773 0
M  V30 33 H 1.4731 -2.48685 4.32386 0
M  V30 34 H 0.6271 -4.77103 3.74777 0
M  V30 35 H -0.6339 -4.06102 2.7006 0
M  V30 36 H -1.6289 -2.88284 4.68159 0
M  V30 37 H -0.4039 -3.62421 5.74307 0
M  V30 38 H -2.4579 -5.13431 4.08319 0
M  V30 39 H -2.5409 -4.85839 5.79221 0
M  V30 40 H -1.2729 -5.85594 5.1449 0
M  V30 41 N 2.9562 -1.48159 -0.537278 0
M  V30 42 C 3.9032 -1.62138 -1.64256 0
M  V30 43 C 4.8732 -0.463668 -1.59497 0
M  V30 44 O 6.0582 -0.686241 -1.78032 0
M  V30 45 C 3.1982 -1.66028 -3.02537 0
M  V30 46 C 2.3112 -2.92855 -3.17585 0
M  V30 47 C 1.4462 -2.87952 -4.46382 0
M  V30 48 C 0.4852 -4.09516 -4.54932 0
M  V30 49 N -0.3778 -4.02733 -5.75109 0
M  V30 50 H 4.4622 -2.56529 -1.51647 0
M  V30 51 H 1.9992 -1.27224 -0.738414 0
M  V30 52 H 3.9572 -1.66265 -3.82638 0
M  V30 53 H 2.5872 -0.751331 -3.13934 0
M  V30 54 H 1.6392 -3.02395 -2.30784 0
M  V30 55 H 2.9512 -3.82822 -3.19764 0
M  V30 56 H 2.1052 -2.8655 -5.34765 0
M  V30 57 H 0.8442 -1.95702 -4.46712 0
M  V30 58 H -0.1508 -4.11201 -3.64957 0
M  V30 59 H 1.0742 -5.02917 -4.56346 0
M  V30 60 H -0.9798 -3.13299 -5.76351 0
M  V30 61 H -1.0628 -4.86397 -5.78752 0
M  V30 62 H 0.2052 -4.05379 -6.65799 0
M  V30 63 N 4.4343 0.785586 -1.36625 0
M  V30 64 C 5.6813 1.54362 -1.31067 0
M  V30 65 C 6.0093 1.94195 0.10893 0
M  V30 66 O 5.2643 1.63262 1.07908 0
M  V30 67 C 5.5633 2.83007 -2.1827 0
M  V30 68 C 5.2293 2.62294 -3.6676 0
M  V30 69 C 3.8913 2.56353 -4.0723 0
M  V30 70 C 6.2433 2.43371 -4.6089 0
M  V30 71 C 3.5713 2.29461 -5.39967 0
M  V30 72 C 5.9233 2.18005 -5.93849 0
M  V30 73 C 4.5873 2.105 -6.3344 0
M  V30 74 H 3.8573 0.564851 -0.479609 0
M  V30 75 H 6.5043 0.906028 -1.68711 0
M  V30 76 H 4.8093 3.51253 -1.73576 0
M  V30 77 H 6.5063 3.40817 -2.11292 0
M  V30 78 H 3.0963 2.67774 -3.34656 0
M  V30 79 H 7.2803 2.46959 -4.30494 0
M  V30 80 H 2.5363 2.22135 -5.69619 0
M  V30 81 H 6.7103 2.02359 -6.66351 0
M  V30 82 H 4.3373 1.89425 -7.36222 0
M  V30 83 N 5.9124 1.20967 1.01018 0
M  V30 84 C 7.1404 1.04956 1.78303 0
M  V30 85 C 7.5554 -0.400915 1.84494 0
M  V30 86 O 6.9124 -1.27826 1.30257 0
M  V30 87 C 6.9634 1.63403 3.22462 0
M  V30 88 O 6.6844 3.02775 3.16637 0
M  V30 89 C 8.1854 1.52432 4.16268 0
M  V30 90 H 5.4054 0.368858 0.560522 0
M  V30 91 H 7.9494 1.60193 1.27116 0
M  V30 92 H 6.1044 1.1227 3.70775 0
M  V30 93 H 6.5184 3.30626 4.07169 0
M  V30 94 H 7.9924 1.98078 5.15237 0
M  V30 95 H 8.4694 0.477875 4.36592 0
M  V30 96 H 9.0754 2.02787 3.73841 0
M  V30 97 N 7.3905 -1.2043 1.01659 0
M  V30 98 C 8.6305 -1.91507 0.714456 0
M  V30 99 C 8.9945 -1.77073 -0.742237 0
M  V30 100 O 10.1955 -2.42631 -1.15688 0
M  V30 101 C 8.4665 -3.38795 1.13809 0
M  V30 102 S 10.0255 -4.28216 0.957925 0
M  V30 103 H 6.8435 -0.661571 0.260471 0
M  V30 104 H 9.4455 -1.45671 1.30384 0
M  V30 105 H 8.1495 -3.46822 2.19415 0
M  V30 106 H 7.6805 -3.89656 0.541474 0
M  V30 107 H 9.6955 -4.96007 -0.138531 0
M  V30 108 N 8.8686 -0.792821 -1.36206 0
M  V30 109 C 10.1146 -0.36733 -1.99446 0
M  V30 110 C 10.4476 1.05917 -1.62774 0
M  V30 111 O 9.7226 1.7324 -0.88421 0
M  V30 112 C 10.0056 -0.535044 -3.56103 0
M  V30 113 C 9.8586 -2.00548 -4.02617 0
M  V30 114 C 11.1776 0.0478191 -4.40074 0
M  V30 115 H 8.2966 -0.134941 -0.724541 0
M  V30 116 H 10.9386 -0.999794 -1.61568 0
M  V30 117 H 9.0886 0.00336329 -3.885 0
M  V30 118 H 10.7606 -2.60521 -3.80692 0
M  V30 119 H 9.0036 -2.50686 -3.54032 0
M  V30 120 H 9.6746 -2.07377 -5.11565 0
M  V30 121 H 12.1506 -0.411822 -4.14057 0
M  V30 122 H 11.0266 -0.0995336 -5.4881 0
M  V30 123 H 11.2876 1.14025 -4.27142 0
M  V30 124 N 10.3467 1.47872 -0.545128 0
M  V30 125 C 11.2787 2.27869 0.246621 0
M  V30 126 C 12.2917 1.36282 0.890561 0
M  V30 127 O 13.4807 1.61207 0.766449 0
M  V30 128 C 10.5807 3.10159 1.36582 0
M  V30 129 C 9.7537 4.29627 0.820954 0
M  V30 130 C 8.8127 4.93607 1.82314 0
M  V30 131 O 7.8387 5.52366 1.37406 0
M  V30 132 N 9.0407 4.87211 3.15603 0
M  V30 133 H 11.8057 2.96459 -0.439539 0
M  V30 134 H 9.3667 1.57367 -0.380421 0
M  V30 135 H 11.3587 3.49829 2.03474 0
M  V30 136 H 9.9287 2.43891 1.9554 0
M  V30 137 H 9.1487 3.94192 -0.0244032 0
M  V30 138 H 10.4367 5.06928 0.436063 0
M  V30 139 H 9.8347 4.40651 3.54744 0
M  V30 140 H 8.3917 5.30937 3.78087 0
M  V30 141 N 11.8248 0.280983 1.55075 0
M  V30 142 C 13.1018 -0.386207 1.91749 0
M  V30 143 C 13.4818 -1.73264 1.20594 0
M  V30 144 O 12.8298 -2.26034 0.334784 0
M  V30 145 C 13.0398 -0.520687 3.45094 0
M  V30 146 C 14.3878 -0.800865 4.16979 0
M  V30 147 O 15.4118 -0.605271 3.5102 0
M  V30 148 O 14.2708 -1.1753 5.33712 0
M  V30 149 H 11.3648 -0.212408 0.799257 0
M  V30 150 H 13.9108 0.327568 1.66509 0
M  V30 151 H 12.6828 0.426633 3.88967 0
M  V30 152 H 12.3058 -1.2837 3.76307 0
M  V30 153 N 13.3029 -1.57598 0.00835791 0
M  V30 154 C 14.5519 -1.90107 -0.673968 0
M  V30 155 C 14.8649 -0.884275 -1.7447 0
M  V30 156 O 16.0709 -1.09987 -2.48224 0
M  V30 157 C 14.5269 -3.37497 -1.24995 0
M  V30 158 C 14.1349 -4.47491 -0.2136 0
M  V30 159 C 15.8789 -3.79104 -1.90999 0
M  V30 160 C 13.7859 -5.85963 -0.80005 0
M  V30 161 H 12.7159 -0.709393 -0.255495 0
M  V30 162 H 15.3669 -1.83365 0.0702693 0
M  V30 163 H 13.7489 -3.39102 -2.04513 0
M  V30 164 H 14.9229 -4.57414 0.557596 0
M  V30 165 H 13.2379 -4.14956 0.346474 0
M  V30 166 H 15.8349 -4.79901 -2.35795 0
M  V30 167 H 16.1779 -3.1306 -2.74407 0
M  V30 168 H 16.7109 -3.79833 -1.18203 0
M  V30 169 H 13.4499 -6.555 -0.00456708 0
M  V30 170 H 12.9699 -5.79687 -1.54021 0
M  V30 171 H 14.6489 -6.33884 -1.29615 0
M  V30 172 N 14.781 0.264519 -1.55364 0
M  V30 173 C 16.029 0.993021 -1.76021 0
M  V30 174 C 16.35 1.86511 -0.569099 0
M  V30 175 O 15.62 1.91438 0.415735 0
M  V30 176 H 14.2 0.369639 -0.649135 0
M  V30 177 H 16.862 0.286707 -1.9278 0
M  V30 178 H 15.958 1.62502 -2.66457 0
M  V30 179 N 16.2591 1.48442 0.529413 0
M  V30 180 C 17.5361 1.46978 1.29062 0
M  V30 181 C 17.9161 0.181769 2.10316 0
M  V30 182 O 17.2641 -0.836481 2.12639 0
M  V30 183 C 17.4741 2.7321 2.17157 0
M  V30 184 C 18.8221 3.21562 2.77278 0
M  V30 185 O 19.8461 2.74131 2.27444 0
M  V30 186 O 18.7051 4.04094 3.67927 0
M  V30 187 H 15.7991 0.587003 0.582543 0
M  V30 188 H 18.3451 1.60676 0.546021 0
M  V30 189 H 17.1171 3.58465 1.56903 0
M  V30 190 H 16.7401 2.62235 2.98862 0
M  V30 191 N 17.7372 -0.778329 1.37039 0
M  V30 192 C 18.6672 -1.90546 1.34962 0
M  V30 193 C 19.6482 -1.68681 0.219274 0
M  V30 194 O 20.8332 -1.89634 0.418624 0
M  V30 195 C 17.9632 -3.27734 1.14925 0
M  V30 196 C 16.9172 -3.64147 2.24902 0
M  V30 197 C 16.2432 -4.99806 1.89996 0
M  V30 198 C 17.5432 -3.71579 3.67051 0
M  V30 199 H 19.2372 -1.92541 2.29277 0
M  V30 200 H 16.7832 -0.924948 1.10366 0
M  V30 201 H 18.7362 -4.06215 1.12104 0
M  V30 202 H 17.4602 -3.26154 0.170631 0
M  V30 203 H 16.1192 -2.8797 2.26868 0
M  V30 204 H 15.7672 -4.94759 0.906796 0
M  V30 205 H 15.4672 -5.25139 2.63634 0
M  V30 206 H 16.9912 -5.80694 1.88749 0
M  V30 207 H 18.4052 -4.40227 3.67251 0
M  V30 208 H 16.8022 -4.08405 4.39688 0
M  V30 209 H 17.8722 -2.72404 4.01154 0
M  V30 210 N 19.2153 -1.21501 -1.00376 0
M  V30 211 C 20.1623 -0.975387 -2.09177 0
M  V30 212 C 21.1323 0.0990615 -1.65804 0
M  V30 213 O 22.3173 -0.0483147 -1.90739 0
M  V30 214 C 19.4573 -0.547507 -3.40729 0
M  V30 215 C 18.5703 -1.69153 -3.97506 0
M  V30 216 C 17.7053 -1.2127 -5.17172 0
M  V30 217 C 16.7443 -2.32897 -5.66061 0
M  V30 218 N 15.8813 -1.86138 -6.76976 0
M  V30 219 H 20.7213 -1.9068 -2.29009 0
M  V30 220 H 18.2583 -0.950257 -1.12288 0
M  V30 221 H 20.2163 -0.280667 -4.16255 0
M  V30 222 H 18.8463 0.346904 -3.20931 0
M  V30 223 H 17.8983 -2.07298 -3.18954 0
M  V30 224 H 19.2103 -2.5316 -4.29781 0
M  V30 225 H 18.3643 -0.902591 -5.99948 0
M  V30 226 H 17.1033 -0.342692 -4.86495 0
M  V30 227 H 16.1083 -2.64709 -4.81881 0
M  V30 228 H 17.3333 -3.20396 -5.98768 0
M  V30 229 H 15.2793 -1.01484 -6.48103 0
M  V30 230 H 15.1963 -2.63717 -7.08512 0
M  V30 231 H 16.4643 -1.58165 -7.63285 0
M  V30 232 N 20.6934 1.19889 -1.02296 0
M  V30 233 C 21.9184 1.9393 -0.735237 0
M  V30 234 C 22.3434 1.74639 0.698782 0
M  V30 235 O 21.7014 1.04481 1.48167 0
M  V30 236 C 21.7494 3.43916 -1.08417 0
M  V30 237 O 20.8534 4.11917 -0.199446 0
M  V30 238 H 20.1944 0.605645 -0.272196 0
M  V30 239 H 22.7244 1.52137 -1.36804 0
M  V30 240 H 22.7344 3.9456 -1.03856 0
M  V30 241 H 21.4094 3.5728 -2.12894 0
M  V30 242 H 19.9864 3.71666 -0.303136 0
M  V30 243 N 22.1715 0.800033 1.35784 0
M  V30 244 C 23.1345 0.211565 2.28221 0
M  V30 245 C 24.1345 -0.59728 1.49296 0
M  V30 246 O 25.3245 -0.416721 1.69142 0
M  V30 247 C 22.4565 -0.705846 3.33513 0
M  V30 248 H 23.6495 1.02677 2.81776 0
M  V30 249 H 21.2025 0.570211 1.45528 0
M  V30 250 H 21.9375 -1.54498 2.85133 0
M  V30 251 H 21.7225 -0.127655 3.91892 0
M  V30 252 H 23.2125 -1.11211 4.02519 0
M  V30 253 N 23.6496 -1.47581 0.552962 0
M  V30 254 C 24.5796 -2.32762 -0.185451 0
M  V30 255 C 25.5606 -1.43527 -0.912905 0
M  V30 256 O 26.7456 -1.72388 -0.894201 0
M  V30 257 C 23.8756 -3.25219 -1.21859 0
M  V30 258 C 22.8296 -4.23661 -0.607864 0
M  V30 259 C 22.1556 -5.05413 -1.74533 0
M  V30 260 C 23.4556 -5.20481 0.435582 0
M  V30 261 H 25.1496 -2.94749 0.525684 0
M  V30 262 H 22.6956 -1.41738 0.254251 0
M  V30 263 H 24.6486 -3.8365 -1.7433 0
M  V30 264 H 23.3726 -2.61279 -1.95961 0
M  V30 265 H 22.0316 -3.66451 -0.104489 0
M  V30 266 H 21.6796 -4.3788 -2.47529 0
M  V30 267 H 21.3796 -5.72059 -1.34249 0
M  V30 268 H 22.9036 -5.66701 -2.27338 0
M  V30 269 H 24.3176 -5.733 -0.00290157 0
M  V30 270 H 22.7146 -5.95305 0.757067 0
M  V30 271 H 23.7846 -4.66217 1.33303 0
M  V30 272 N 25.1277 -0.289203 -1.54924 0
M  V30 273 C 26.0907 0.579144 -2.21762 0
M  V30 274 C 27.0907 1.07047 -1.1999 0
M  V30 275 O 28.2807 0.968384 -1.44803 0
M  V30 276 C 25.4127 1.80055 -2.8947 0
M  V30 277 H 26.6057 -0.00464908 -2.999 0
M  V30 278 H 24.1587 -0.0399306 -1.56249 0
M  V30 279 H 24.8937 2.42449 -2.15381 0
M  V30 280 H 24.6787 1.45602 -3.64064 0
M  V30 281 H 26.1687 2.41773 -3.40493 0
M  V30 282 N 26.6058 1.57591 -0.0167156 0
M  V30 283 C 27.5158 2.1291 0.98521 0
M  V30 284 C 28.5318 1.07834 1.36557 0
M  V30 285 O 29.7078 1.39826 1.44951 0
M  V30 286 C 26.7728 2.63512 2.25305 0
M  V30 287 C 25.8338 3.83256 1.93426 0
M  V30 288 C 25.0668 4.31435 3.14165 0
M  V30 289 O 25.2898 3.78851 4.26413 0
M  V30 290 O 24.2238 5.23416 2.97186 0
M  V30 291 H 28.0498 2.98772 0.544888 0
M  V30 292 H 25.6348 1.48012 0.203141 0
M  V30 293 H 27.5168 2.96183 2.99756 0
M  V30 294 H 26.1918 1.8074 2.68542 0
M  V30 295 H 25.0988 3.55531 1.16398 0
M  V30 296 H 26.4318 4.67153 1.55013 0
M  V30 297 N 28.0839 -0.256276 1.55502 0
M  V30 298 C 29.3089 -1.00766 1.81276 0
M  V30 299 C 29.7339 -1.78524 0.59252 0
M  V30 300 O 29.0919 -1.75413 -0.45827 0
M  V30 301 C 29.1399 -1.92869 3.04687 0
M  V30 302 O 28.2439 -3.019 2.80945 0
M  V30 303 H 27.5849 -0.287224 0.598664 0
M  V30 304 H 30.1149 -0.280109 2.02674 0
M  V30 305 H 30.1249 -2.34511 3.33869 0
M  V30 306 H 28.7999 -1.35689 3.93143 0
M  V30 307 H 27.3769 -2.64454 2.62904 0
M  V30 308 N 29.562 -1.4872 -0.521534 0
M  V30 309 C 30.809 -1.57168 -1.27689 0
M  V30 310 C 31.137 -0.249275 -1.92896 0
M  V30 311 O 30.392 0.761162 -1.80291 0
M  V30 312 C 30.691 -2.66497 -2.38148 0
M  V30 313 C 30.357 -4.08664 -1.90538 0
M  V30 314 C 29.019 -4.47357 -1.77271 0
M  V30 315 C 31.371 -4.97724 -1.54663 0
M  V30 316 C 28.699 -5.72905 -1.26478 0
M  V30 317 C 31.051 -6.2377 -1.05329 0
M  V30 318 C 29.715 -6.61311 -0.906861 0
M  V30 319 H 28.985 -0.575117 -0.467249 0
M  V30 320 H 31.632 -1.82472 -0.581051 0
M  V30 321 H 29.937 -2.35085 -3.13437 0
M  V30 322 H 31.634 -2.70246 -2.96257 0
M  V30 323 H 28.224 -3.78111 -2.01816 0
M  V30 324 H 32.408 -4.68501 -1.63768 0
M  V30 325 H 27.664 -6.00709 -1.13835 0
M  V30 326 H 31.838 -6.9217 -0.76644 0
M  V30 327 H 29.465 -7.5848 -0.511083 0
M  V30 328 N 31.0401 0.771051 -1.3745 0
M  V30 329 C 31.9501 1.91538 -1.35464 0
M  V30 330 C 32.9661 1.72134 -0.254123 0
M  V30 331 O 34.1421 1.95358 -0.489626 0
M  V30 332 C 31.2071 3.26671 -1.16134 0
M  V30 333 C 30.2681 3.58723 -2.35831 0
M  V30 334 C 29.5011 4.87409 -2.17413 0
M  V30 335 O 29.7241 5.58506 -1.15876 0
M  V30 336 O 28.6581 5.18539 -3.05615 0
M  V30 337 H 32.4841 1.96165 -2.31847 0
M  V30 338 H 30.0691 0.9139 -1.18187 0
M  V30 339 H 31.9511 4.07499 -1.07345 0
M  V30 340 H 30.6261 3.22894 -0.228251 0
M  V30 341 H 29.5331 2.78127 -2.50192 0
M  V30 342 H 30.8661 3.67243 -3.27709 0
M  V30 343 N 32.5182 1.22032 0.997298 0
M  V30 344 C 33.7672 1.03637 1.73038 0
M  V30 345 C 34.0802 -0.429475 1.90827 0
M  V30 346 O 35.2862 -0.732995 2.61418 0
M  V30 347 C 33.7422 1.80582 3.11317 0
M  V30 348 C 33.3502 3.31387 3.01474 0
M  V30 349 C 35.0942 1.70621 3.88701 0
M  V30 350 C 33.0012 4.00791 4.3488 0
M  V30 351 H 31.9312 0.384179 0.648785 0
M  V30 352 H 34.5822 1.4584 1.11368 0
M  V30 353 H 32.9642 1.31175 3.73643 0
M  V30 354 H 34.1382 3.88155 2.4834 0
M  V30 355 H 32.4532 3.41976 2.37575 0
M  V30 356 H 35.0502 2.19799 4.87434 0
M  V30 357 H 35.3932 0.665823 4.10941 0
M  V30 358 H 35.9262 2.17547 3.33044 0
M  V30 359 H 32.6652 5.05064 4.1784 0
M  V30 360 H 32.1852 3.48811 4.87945 0
M  V30 361 H 33.8642 4.06139 5.03647 0
M  V30 362 N 33.9963 -1.19345 1.0293 0
M  V30 363 C 34.9433 -2.2258 0.610464 0
M  V30 364 C 35.9133 -1.6179 -0.375946 0
M  V30 365 O 37.0983 -1.88844 -0.272511 0
M  V30 366 C 34.2383 -3.45085 -0.0321473 0
M  V30 367 C 33.3513 -4.20258 1.00035 0
M  V30 368 C 32.4863 -5.3019 0.32746 0
M  V30 369 C 31.5253 -5.97121 1.34584 0
M  V30 370 N 30.6623 -6.98615 0.698726 0
M  V30 371 H 35.5023 -2.57764 1.49538 0
M  V30 372 H 33.0393 -1.26644 0.748311 0
M  V30 373 H 34.9973 -4.15061 -0.421966 0
M  V30 374 H 33.6273 -3.10555 -0.88064 0
M  V30 375 H 32.6793 -3.49223 1.50823 0
M  V30 376 H 33.9913 -4.66175 1.77433 0
M  V30 377 H 33.1453 -6.06587 -0.11718 0
M  V30 378 H 31.8843 -4.85345 -0.478713 0
M  V30 379 H 30.8893 -5.19474 1.80074 0
M  V30 380 H 32.1143 -6.4405 2.15352 0
M  V30 381 H 30.0603 -6.55942 -0.0873471 0
M  V30 382 H 29.9773 -7.42724 1.41058 0
M  V30 383 H 31.2453 -7.79004 0.278102 0
M  V30 384 N 35.4744 -0.807222 -1.35358 0
M  V30 385 C 36.4214 -0.216037 -2.29787 0
M  V30 386 C 37.3914 0.650278 -1.52842 0
M  V30 387 O 38.5764 0.595227 -1.81278 0
M  V30 388 C 35.7164 0.628893 -3.39321 0
M  V30 389 C 34.8294 -0.257927 -4.31229 0
M  V30 390 C 33.9644 0.595069 -5.27856 0
M  V30 391 C 33.0034 -0.292111 -6.11403 0
M  V30 392 N 32.1404 0.520895 -7.00165 0
M  V30 393 H 36.9804 -1.02671 -2.79755 0
M  V30 394 H 34.5174 -0.517839 -1.37684 0
M  V30 395 H 36.4754 1.13393 -4.01494 0
M  V30 396 H 35.1054 1.40482 -2.90628 0
M  V30 397 H 34.1574 -0.881076 -3.70056 0
M  V30 398 H 35.4694 -0.940759 -4.89848 0
M  V30 399 H 34.6234 1.16522 -5.95405 0
M  V30 400 H 33.3624 1.31146 -4.69736 0
M  V30 401 H 32.3674 -0.874525 -5.428 0
M  V30 402 H 33.5924 -1.00638 -6.71602 0
M  V30 403 H 31.5384 1.22125 -6.44532 0
M  V30 404 H 31.4554 -0.103877 -7.55929 0
M  V30 405 H 32.7234 1.0743 -7.72062 0
M  V30 406 N 36.9525 1.47285 -0.560781 0
M  V30 407 C 38.2295 1.9558 0.0277798 0
M  V30 408 C 38.6095 1.5034 1.48192 0
M  V30 409 O 37.9575 0.743882 2.16052 0
M  V30 410 C 38.1675 3.48789 -0.121418 0
M  V30 411 C 39.5155 4.24594 0.0220912 0
M  V30 412 O 40.5395 3.56166 -0.0491439 0
M  V30 413 O 39.3985 5.46217 0.175958 0
M  V30 414 H 36.4925 0.824663 0.0621342 0
M  V30 415 H 39.0385 1.5767 -0.627556 0
M  V30 416 H 37.8105 3.74533 -1.13316 0
M  V30 417 H 37.4335 3.93473 0.571366 0
M  V30 418 N 38.4306 0.297415 1.54768 0
M  V30 419 C 39.8466 -0.0560823 1.59501 0
M  V30 420 C 40.0466 -1.52725 1.31444 0
M  V30 421 O 39.1026 -2.27947 1.08611 0
M  V30 422 C 40.4156 0.338631 2.98787 0
M  V30 423 C 41.9636 0.287097 3.11681 0
M  V30 424 C 42.4386 0.656579 4.53269 0
M  V30 425 N 43.9296 0.608977 4.59179 0
M  V30 426 C 44.6646 0.867385 5.66802 0
M  V30 427 N 44.1606 1.19157 6.82476 0
M  V30 428 N 45.9536 0.794687 5.56454 0
M  V30 429 H 38.1046 1.25624 1.71267 0
M  V30 430 H 40.3676 0.509057 0.799728 0
M  V30 431 H 40.0736 1.36263 3.2423 0
M  V30 432 H 39.9476 -0.309508 3.75928 0
M  V30 433 H 42.3346 -0.727649 2.85988 0
M  V30 434 H 42.4156 0.969809 2.36703 0
M  V30 435 H 42.0596 1.66912 4.7969 0
M  V30 436 H 41.9896 -0.0481649 5.26578 0
M  V30 437 H 44.4806 0.369198 3.76092 0
M  V30 438 H 44.7936 1.37482 7.60473 0
M  V30 439 H 43.1386 1.22958 6.84037 0
M  V30 440 H 46.3296 0.541098 4.64962 0
M  V30 441 H 46.5026 0.999445 6.40246 0
M  V30 442 N 39.9087 -1.5758 0.0250728 0
M  V30 443 C 41.1557 -1.91633 -0.654444 0
M  V30 444 C 41.4837 -0.901103 -1.72367 0
M  V30 445 O 40.7387 0.0905647 -1.9549 0
M  V30 446 C 41.0377 -3.32421 -1.31268 0
M  V30 447 C 40.7037 -4.49344 -0.374223 0
M  V30 448 C 39.3657 -4.8106 -0.115911 0
M  V30 449 C 41.7177 -5.20498 0.270432 0
M  V30 450 C 39.0457 -5.8129 0.79493 0
M  V30 451 C 41.3977 -6.21699 1.1693 0
M  V30 452 C 40.0617 -6.51859 1.43655 0
M  V30 453 H 39.3317 -0.701236 -0.239478 0
M  V30 454 H 41.9787 -1.91307 0.0859734 0
M  V30 455 H 40.2837 -3.28989 -2.12775 0
M  V30 456 H 41.9807 -3.56038 -1.84494 0
M  V30 457 H 38.5707 -4.24579 -0.58573 0
M  V30 458 H 42.7547 -4.96229 0.0839194 0
M  V30 459 H 38.0107 -6.03005 1.00973 0
M  V30 460 H 42.1847 -6.75955 1.67504 0
M  V30 461 H 39.8117 -7.2934 2.144 0
M  V30 462 N 41.3868 0.248026 -1.55636 0
M  V30 463 C 42.3338 1.30707 -1.90222 0
M  V30 464 C 43.3038 1.47881 -0.756332 0
M  V30 465 O 44.4888 1.61883 -1.00988 0
M  V30 466 C 41.6288 2.65769 -2.20138 0
M  V30 467 C 40.7418 2.56612 -3.47526 0
M  V30 468 C 39.8768 3.8402 -3.67017 0
M  V30 469 C 38.9158 3.69476 -4.8801 0
M  V30 470 N 38.0528 4.88774 -5.04029 0
M  V30 471 H 42.8928 1.00512 -2.80538 0
M  V30 472 H 40.4298 0.485055 -1.38873 0
M  V30 473 H 42.3878 3.44386 -2.35487 0
M  V30 474 H 41.0178 2.94115 -1.33027 0
M  V30 475 H 40.0698 1.69571 -3.40514 0
M  V30 476 H 41.3818 2.41774 -4.36287 0
M  V30 477 H 40.5358 4.7108 -3.8232 0
M  V30 478 H 39.2748 4.01754 -2.76487 0
M  V30 479 H 38.2798 2.80799 -4.72686 0
M  V30 480 H 39.5048 3.53238 -5.8 0
M  V30 481 H 37.4508 5.0687 -4.16435 0
M  V30 482 H 37.3678 4.76562 -5.86877 0
M  V30 483 H 38.6358 5.77335 -5.23741 0
M  V30 484 N 42.8649 1.48995 0.513639 0
M  V30 485 C 44.0949 1.61297 1.291 0
M  V30 486 C 44.5029 0.278656 1.87137 0
M  V30 487 O 43.8459 -0.744325 1.67945 0
M  V30 488 C 43.9079 2.61326 2.46879 0
M  V30 489 C 43.5719 4.05993 2.09807 0
M  V30 490 C 44.5689 4.93183 1.64519 0
M  V30 491 C 42.2539 4.51642 2.19829 0
M  V30 492 C 44.2479 6.24056 1.2974 0
M  V30 493 C 41.9349 5.82532 1.84662 0
M  V30 494 C 42.9329 6.68562 1.3969 0
M  V30 495 O 42.6209 7.97014 1.04992 0
M  V30 496 H 42.3529 0.546236 0.39825 0
M  V30 497 H 44.9069 1.95673 0.62459 0
M  V30 498 H 43.1369 2.22104 3.16554 0
M  V30 499 H 44.8259 2.6329 3.08923 0
M  V30 500 H 45.5919 4.59147 1.56233 0
M  V30 501 H 41.4709 3.84855 2.53786 0
M  V30 502 H 45.0149 6.91161 0.945659 0
M  V30 503 H 40.9119 6.16099 1.92594 0
M  V30 504 H 41.6799 8.09913 1.18249 0
M  V30 505 N 44.343 -0.763751 1.37857 0
M  V30 506 C 45.589 -1.52483 1.33704 0
M  V30 507 C 45.922 -1.94051 -0.0759612 0
M  V30 508 O 45.197 -1.64675 -1.03501 0
M  V30 509 C 45.48 -2.78441 2.28348 0
M  V30 510 C 45.333 -2.43075 3.78463 0
M  V30 511 C 46.652 -3.80415 2.21298 0
M  V30 512 H 43.771 -0.553169 0.487005 0
M  V30 513 H 46.413 -0.875562 1.68624 0
M  V30 514 H 44.563 -3.33842 1.987 0
M  V30 515 H 46.235 -1.93527 4.18742 0
M  V30 516 H 44.478 -1.75666 3.96641 0
M  V30 517 H 45.149 -3.33149 4.40132 0
M  V30 518 H 47.625 -3.34527 2.47449 0
M  V30 519 H 46.501 -4.66257 2.89647 0
M  V30 520 H 46.762 -4.25262 1.20849 0
M  V30 521 N 45.8211 -1.22559 -0.990812 0
M  V30 522 C 46.7311 -1.01394 -2.11557 0
M  V30 523 C 47.7471 0.0383962 -1.73958 0
M  V30 524 O 48.9231 -0.154787 -2.00804 0
M  V30 525 C 45.9881 -0.596569 -3.41529 0
M  V30 526 C 45.0491 -1.72276 -3.93217 0
M  V30 527 C 44.2821 -1.32521 -5.16985 0
M  V30 528 O 44.5051 -0.204909 -5.70032 0
M  V30 529 O 43.4391 -2.14247 -5.62478 0
M  V30 530 H 47.2651 -1.95633 -2.32296 0
M  V30 531 H 44.8501 -1.01172 -1.0993 0
M  V30 532 H 46.7321 -0.374263 -4.19735 0
M  V30 533 H 45.4071 0.316939 -3.22145 0
M  V30 534 H 44.3141 -1.99961 -3.16174 0
M  V30 535 H 45.6471 -2.61421 -4.17037 0
M  V30 536 N 47.2992 1.18797 -1.03562 0
M  V30 537 C 48.2292 2.24472 -0.643019 0
M  V30 538 C 49.2102 1.66433 0.351283 0
M  V30 539 O 50.3952 1.92803 0.232505 0
M  V30 540 C 47.5252 3.473 4.24935e-05 0
M  V30 541 C 46.4792 4.18055 -0.917257 0
M  V30 542 C 45.8052 5.34519 -0.138941 0
M  V30 543 C 47.1052 4.72109 -2.23407 0
M  V30 544 H 48.7992 2.57566 -1.52643 0
M  V30 545 H 46.3452 1.23806 -0.735394 0
M  V30 546 H 48.2982 4.20426 0.286383 0
M  V30 547 H 47.0222 3.13424 0.918299 0
M  V30 548 H 45.6812 3.46821 -1.1879 0
M  V30 549 H 45.3292 4.96891 0.781562 0
M  V30 550 H 45.0292 5.82794 -0.750005 0
M  V30 551 H 46.5532 6.10438 0.1405 0
M  V30 552 H 47.9672 5.36955 -2.00879 0
M  V30 553 H 46.3642 5.30897 -2.79765 0
M  V30 554 H 47.4342 3.89807 -2.88407 0
M  V30 555 N 48.7773 0.814389 1.34928 0
M  V30 556 C 50.0253 0.397636 1.9815 0
M  V30 557 C 50.3463 -1.04069 1.64908 0
M  V30 558 O 49.6163 -1.72121 0.93548 0
M  V30 559 H 48.1963 0.144043 0.732981 0
M  V30 560 H 50.8583 1.04195 1.6471 0
M  V30 561 H 49.9543 0.509688 3.0791 0
M  V30 562 N 50.2554 -1.46986 0.568584 0
M  V30 563 C 51.6714 -1.57946 0.229189 0
M  V30 564 C 51.8714 -1.56567 -1.26843 0
M  V30 565 O 50.9274 -1.47511 -2.04931 0
M  V30 566 C 52.2404 -2.87963 0.865909 0
M  V30 567 C 53.7884 -3.01568 0.838188 0
M  V30 568 C 54.2634 -4.34301 1.45419 0
M  V30 569 N 55.7544 -4.40965 1.41788 0
M  V30 570 C 56.4894 -5.42256 1.86403 0
M  V30 571 N 55.9854 -6.50297 2.38926 0
M  V30 572 N 57.7784 -5.3337 1.77405 0
M  V30 573 H 49.9294 -1.46126 1.54146 0
M  V30 574 H 52.1924 -0.696156 0.643484 0
M  V30 575 H 51.8984 -2.94742 1.91886 0
M  V30 576 H 51.7724 -3.75423 0.365687 0
M  V30 577 H 54.1594 -2.94379 -0.206106 0
M  V30 578 H 54.2404 -2.1562 1.37629 0
M  V30 579 H 53.8844 -4.42247 2.49761 0
M  V30 580 H 53.8144 -5.19 0.891435 0
M  V30 581 H 56.3054 -3.63484 1.03381 0
M  V30 582 H 56.6184 -7.23777 2.70863 0
M  V30 583 H 54.9634 -6.51155 2.42944 0
M  V30 584 H 58.1544 -4.47865 1.3614 0
M  V30 585 H 58.3274 -6.12169 2.12492 0
M  V30 586 N 51.7335 -0.305618 -1.54608 0
M  V30 587 C 52.6815 0.584119 -2.25146 0
M  V30 588 C 53.6755 1.13326 -1.25911 0
M  V30 589 O 54.8815 1.08337 -1.43747 0
M  V30 590 H 51.2565 0.206983 -0.722954 0
M  V30 591 H 53.2275 -0.033291 -2.98381 0
M  V30 592 C 51.9765 1.74225 -3.009 0
M  V30 593 H 51.2995 1.32892 -3.77067 0
M  V30 594 H 52.7395 2.34077 -3.53531 0
M  V30 595 C 51.1985 2.64914 -2.0814 0
M  V30 596 O 51.7285 3.66137 -1.65246 0
M  V30 597 N 49.9345 2.3275 -1.74 0
M  V30 598 H 49.4815 1.50479 -2.09078 0
M  V30 599 H 49.4395 2.93694 -1.12211 0
M  V30 600 N 53.2116 1.57565 -0.0334293 0
M  V30 601 C 54.1586 2.10478 0.946981 0
M  V30 602 C 55.1286 1.00787 1.32027 0
M  V30 603 O 56.3136 1.28232 1.41284 0
M  V30 604 C 53.4536 2.63994 2.22263 0
M  V30 605 C 52.5666 3.87709 1.90541 0
M  V30 606 C 51.7016 4.29604 3.12433 0
M  V30 607 C 50.7406 5.46065 2.76549 0
M  V30 608 N 49.8776 5.83096 3.9108 0
M  V30 609 H 54.7176 2.93963 0.488846 0
M  V30 610 H 52.2546 1.45296 0.22969 0
M  V30 611 H 54.2126 2.93114 2.96884 0
M  V30 612 H 52.8426 1.83333 2.65685 0
M  V30 613 H 51.8946 3.65291 1.06144 0
M  V30 614 H 53.2066 4.72403 1.60116 0
M  V30 615 H 52.3606 4.60182 3.9537 0
M  V30 616 H 51.0996 3.43685 3.46023 0
M  V30 617 H 50.1046 5.15176 1.92026 0
M  V30 618 H 51.3296 6.33685 2.44171 0
M  V30 619 H 49.2756 5.00132 4.24504 0
M  V30 620 H 49.1926 6.6244 3.64293 0
M  V30 621 H 50.4606 6.18282 4.74708 0
M  V30 622 N 54.6897 -0.239769 1.55765 0
M  V30 623 C 55.9177 -0.98417 1.81994 0
M  V30 624 C 56.3327 -1.7867 0.610124 0
M  V30 625 O 55.6897 -1.77571 -0.421271 0
M  V30 626 C 55.7407 -1.91635 3.06526 0
M  V30 627 O 55.4617 -1.14629 4.22838 0
M  V30 628 C 56.9627 -2.77616 3.45607 0
M  V30 629 H 54.1827 -0.28928 0.605441 0
M  V30 630 H 56.7267 -0.260499 2.02834 0
M  V30 631 H 54.8817 -2.5942 2.87715 0
M  V30 632 H 55.2957 -1.77745 4.93464 0
M  V30 633 H 56.7697 -3.38759 4.35828 0
M  V30 634 H 57.2467 -3.4909 2.6652 0
M  V30 635 H 57.8527 -2.15271 3.66795 0
M  V30 636 N 56.1678 -1.49265 -0.50573 0
M  V30 637 C 57.0978 -1.68495 -1.61653 0
M  V30 638 C 58.0788 -0.53366 -1.61512 0
M  V30 639 O 59.2638 -0.76897 -1.78327 0
M  V30 640 C 56.3938 -1.74709 -3.00157 0
M  V30 641 C 55.3478 -2.89581 -3.15162 0
M  V30 642 C 54.6738 -2.80903 -4.5497 0
M  V30 643 C 55.9738 -4.30578 -2.95634 0
M  V30 644 H 57.6678 -2.61493 -1.45814 0
M  V30 645 H 55.2138 -1.25838 -0.70005 0
M  V30 646 H 57.1668 -1.86748 -3.77761 0
M  V30 647 H 55.8908 -0.783067 -3.17074 0
M  V30 648 H 54.5498 -2.77136 -2.39982 0
M  V30 649 H 54.1978 -1.82419 -4.68756 0
M  V30 650 H 53.8978 -3.57999 -4.65951 0
M  V30 651 H 55.4218 -2.94944 -5.34641 0
M  V30 652 H 56.8358 -4.4373 -3.63011 0
M  V30 653 H 55.2328 -5.0886 -3.18091 0
M  V30 654 H 56.3028 -4.45352 -1.91806 0
M  V30 655 N 57.6459 0.756429 -1.3826 0
M  V30 656 C 58.5759 1.88374 -1.37976 0
M  V30 657 C 59.5569 1.68311 -0.246082 0
M  V30 658 O 60.7419 1.88944 -0.44874 0
M  V30 659 C 57.8719 3.25864 -1.20125 0
M  V30 660 C 56.8259 3.60523 -2.30666 0
M  V30 661 C 56.1519 4.9672 -1.97923 0
M  V30 662 C 57.4519 3.65692 -3.72916 0
M  V30 663 H 59.1459 1.88869 -2.32312 0
M  V30 664 H 56.6919 0.907272 -1.11824 0
M  V30 665 H 58.6449 4.0438 -1.18552 0
M  V30 666 H 57.3689 3.25841 -0.222498 0
M  V30 667 H 56.0279 2.84324 -2.3142 0
M  V30 668 H 55.6759 4.93253 -0.985393 0
M  V30 669 H 55.3759 5.20878 -2.71955 0
M  V30 670 H 56.8999 5.77618 -1.97964 0
M  V30 671 H 58.3139 4.34328 -3.74208 0
M  V30 672 H 56.7109 4.01358 -4.4613 0
M  V30 673 H 57.7809 2.65987 -4.05436 0
M  V30 674 N 59.124 1.23083 0.984299 0
M  V30 675 C 60.057 0.951786 2.07404 0
M  V30 676 C 61.035 -0.10848 1.62238 0
M  V30 677 O 62.219 0.0249467 1.88483 0
M  V30 678 C 59.346 0.433142 3.35919 0
M  V30 679 C 58.392 1.47941 4.0002 0
M  V30 680 S 59.225 3.05556 4.39768 0
M  V30 681 C 60.381 2.55351 5.71442 0
M  V30 682 H 60.614 1.87456 2.30754 0
M  V30 683 H 58.147 1.06284 1.11996 0
M  V30 684 H 60.105 0.140506 4.10259 0
M  V30 685 H 58.766 -0.468656 3.10584 0
M  V30 686 H 57.959 1.06658 4.92585 0
M  V30 687 H 57.561 1.7212 3.3204 0
M  V30 688 H 59.853 1.97128 6.48187 0
M  V30 689 H 60.796 3.46441 6.17563 0
M  V30 690 H 61.204 1.96339 5.29255 0
M  V30 691 N 60.6021 -1.18246 1.0419 0
M  V30 692 C 61.8511 -1.87588 0.741194 0
M  V30 693 C 62.1641 -1.81303 -0.734066 0
M  V30 694 O 63.3701 -2.46019 -1.14834 0
M  V30 695 C 61.8261 -3.36538 1.27555 0
M  V30 696 C 61.4341 -3.51349 2.77953 0
M  V30 697 C 63.1781 -4.11273 1.05143 0
M  V30 698 C 61.0851 -4.94265 3.2474 0
M  V30 699 H 60.0151 -0.702622 0.273565 0
M  V30 700 H 62.6661 -1.33601 1.25789 0
M  V30 701 H 61.0481 -3.9 0.686703 0
M  V30 702 H 62.2221 -3.08153 3.42605 0
M  V30 703 H 60.5371 -2.90022 2.98791 0
M  V30 704 H 63.1341 -5.16689 1.37611 0
M  V30 705 H 63.4771 -4.16298 -0.0112774 0
M  V30 706 H 64.0101 -3.63987 1.60495 0
M  V30 707 H 60.7491 -4.94408 4.30396 0
M  V30 708 H 60.2691 -5.38172 2.64823 0
M  V30 709 H 61.9481 -5.62987 3.18834 0
M  V30 710 N 62.0802 -0.821533 -1.34494 0
M  V30 711 C 63.3272 -0.408946 -1.98328 0
M  V30 712 C 63.6552 1.02764 -1.65136 0
M  V30 713 O 62.9102 1.73026 -0.914349 0
M  V30 714 C 63.2092 -0.556512 -3.53041 0
M  V30 715 C 62.8752 -1.95861 -4.0614 0
M  V30 716 C 61.5372 -2.34217 -4.20352 0
M  V30 717 C 63.8892 -2.87523 -4.34718 0
M  V30 718 C 61.2172 -3.63572 -4.6047 0
M  V30 719 C 63.5692 -4.1634 -4.76281 0
M  V30 720 C 62.2332 -4.54675 -4.88699 0
M  V30 721 H 61.5032 -0.149644 -0.725732 0
M  V30 722 H 64.1502 -1.04521 -1.6046 0
M  V30 723 H 62.4552 0.163148 -3.9146 0
M  V30 724 H 64.1522 -0.217826 -4.00408 0
M  V30 725 H 60.7422 -1.65066 -3.95539 0
M  V30 726 H 64.9262 -2.59133 -4.23277 0
M  V30 727 H 60.1822 -3.93101 -4.68275 0
M  V30 728 H 64.3562 -4.87455 -4.97354 0
M  V30 729 H 61.9832 -5.54959 -5.19542 0
M  V30 730 N 63.5583 1.46682 -0.576371 0
M  V30 731 C 64.8053 2.02412 -0.0595339 0
M  V30 732 C 65.1333 1.44859 1.29793 0
M  V30 733 O 64.3883 0.601099 1.8624 0
M  V30 734 C 64.6873 3.57345 0.062886 0
M  V30 735 C 64.3533 4.33908 -1.22616 0
M  V30 736 C 63.0153 4.54544 -1.57933 0
M  V30 737 C 65.3673 4.77919 -2.07948 0
M  V30 738 C 62.6953 5.16444 -2.78393 0
M  V30 739 C 65.0473 5.41149 -3.27629 0
M  V30 740 C 63.7113 5.60014 -3.63236 0
M  V30 741 H 62.9813 0.74068 -0.021785 0
M  V30 742 H 65.6283 1.76128 -0.751735 0
M  V30 743 H 63.9333 3.82729 0.838178 0
M  V30 744 H 65.6303 3.98136 0.478439 0
M  V30 745 H 62.2203 4.18138 -0.941202 0
M  V30 746 H 66.4043 4.61738 -1.81967 0
M  V30 747 H 61.6603 5.29242 -3.06126 0
M  V30 748 H 65.8343 5.74211 -3.94023 0
M  V30 749 H 63.4613 6.07748 -4.56669 0
M  V30 750 N 65.0364 0.313813 1.54444 0
M  V30 751 C 65.9844 -0.572171 2.25453 0
M  V30 752 C 66.9784 -1.12657 1.2651 0
M  V30 753 O 68.1844 -1.07573 1.44319 0
M  V30 754 H 64.5594 -0.203146 0.724041 0
M  V30 755 H 66.5304 0.0491145 2.9836 0
M  V30 756 C 65.2794 -1.72626 3.0182 0
M  V30 757 H 64.6024 -1.30891 3.77767 0
M  V30 758 H 66.0424 -2.32199 3.54767 0
M  V30 759 C 64.5014 -2.63806 2.09542 0
M  V30 760 O 65.0314 -3.65256 1.67185 0
M  V30 761 N 63.2374 -2.31824 1.75232 0
M  V30 762 H 62.7844 -1.49368 2.09873 0
M  V30 763 H 62.7424 -2.93095 1.13767 0
M  V30 764 N 66.5145 -1.57545 0.0417849 0
M  V30 765 C 67.7395 -1.97035 -0.647455 0
M  V30 766 C 68.1645 -0.918775 -1.64135 0
M  V30 767 O 67.5225 0.119006 -1.80909 0
M  V30 768 C 67.5705 -3.35609 -1.31905 0
M  V30 769 O 66.6745 -3.3287 -2.43457 0
M  V30 770 H 66.0155 -0.64211 -0.169086 0
M  V30 771 H 68.5455 -2.04318 0.107399 0
M  V30 772 H 68.5555 -3.72126 -1.67291 0
M  V30 773 H 67.2305 -4.11685 -0.590586 0
M  V30 774 H 65.8075 -3.08087 -2.10088 0
M  V30 775 N 67.9926 0.231505 -1.5589 0
M  V30 776 C 69.2176 0.978689 -1.82856 0
M  V30 777 C 69.6426 1.77559 -0.620846 0
M  V30 778 O 69.0006 1.76119 0.430305 0
M  V30 779 C 69.0486 1.87997 -3.07716 0
M  V30 780 O 68.1526 2.97393 -2.85712 0
M  V30 781 H 67.4936 0.277663 -0.603158 0
M  V30 782 H 70.0236 0.24783 -2.03093 0
M  V30 783 H 70.0336 2.2917 -3.37558 0
M  V30 784 H 68.7086 1.29417 -3.95252 0
M  V30 785 H 67.2856 2.60238 -2.67078 0
M  V30 786 N 69.4707 1.49531 0.497807 0
M  V30 787 C 70.4007 1.6935 1.60757 0
M  V30 788 C 71.3817 0.542218 1.61227 0
M  V30 789 O 72.5667 0.778417 1.77917 0
M  V30 790 C 69.6967 1.76298 2.99226 0
M  V30 791 C 68.6507 2.91248 3.13622 0
M  V30 792 C 67.9767 2.83312 4.53474 0
M  V30 793 C 69.2767 4.3214 2.93346 0
M  V30 794 H 70.9707 2.62263 1.44425 0
M  V30 795 H 68.5167 1.26208 0.693367 0
M  V30 796 H 70.4697 1.88749 3.76765 0
M  V30 797 H 69.1937 0.799871 3.16654 0
M  V30 798 H 67.8527 2.78404 2.38509 0
M  V30 799 H 67.5007 1.84902 4.67782 0
M  V30 800 H 67.2007 3.60465 4.64046 0
M  V30 801 H 68.7247 2.97775 5.33069 0
M  V30 802 H 70.1387 4.45649 3.60652 0
M  V30 803 H 68.5357 5.1054 3.15387 0
M  V30 804 H 69.6057 4.46363 1.89441 0
M  V30 805 N 70.9488 -0.749086 1.3866 0
M  V30 806 C 72.3648 -1.05276 1.19955 0
M  V30 807 C 72.5648 -2.01435 0.05134 0
M  V30 808 O 71.6208 -2.45232 -0.60147 0
M  V30 809 C 72.9338 -1.62853 2.52783 0
M  V30 810 C 74.4818 -1.75002 2.59506 0
M  V30 811 C 74.9568 -2.35991 3.92521 0
M  V30 812 N 76.4478 -2.43416 3.94085 0
M  V30 813 C 77.1828 -2.91511 4.9377 0
M  V30 814 N 76.6788 -3.39608 6.03853 0
M  V30 815 N 78.4718 -2.90592 4.81157 0
M  V30 816 H 70.6228 -0.111066 2.12109 0
M  V30 817 H 72.8858 -0.111901 0.941373 0
M  V30 818 H 72.5918 -0.99664 3.37283 0
M  V30 819 H 72.4658 -2.61854 2.715 0
M  V30 820 H 74.8528 -2.37317 1.75398 0
M  V30 821 H 74.9338 -0.74693 2.44652 0
M  V30 822 H 74.5778 -1.74308 4.77053 0
M  V30 823 H 74.5078 -3.3695 4.04688 0
M  V30 824 H 76.9988 -2.09405 3.14576 0
M  V30 825 H 77.3118 -3.74775 6.75843 0
M  V30 826 H 75.6568 -3.37653 6.07466 0
M  V30 827 H 78.8478 -2.52332 3.94267 0
M  V30 828 H 79.0208 -3.27762 5.58996 0
M  V30 829 N 72.4269 -1.23603 -0.977757 0
M  V30 830 C 73.6549 -1.09646 -1.75458 0
M  V30 831 C 74.0699 0.351859 -1.85492 0
M  V30 832 O 73.4269 1.24327 -1.336 0
M  V30 833 C 73.4779 -1.71895 -3.18016 0
M  V30 834 O 73.1989 -3.11063 -3.08498 0
M  V30 835 C 74.6999 -1.63415 -4.12081 0
M  V30 836 H 71.9199 -0.38359 -0.550545 0
M  V30 837 H 74.4639 -1.63507 -1.22824 0
M  V30 838 H 72.6189 -1.22061 -3.67668 0
M  V30 839 H 73.0329 -3.41305 -3.9826 0
M  V30 840 H 74.5069 -2.11669 -5.09804 0
M  V30 841 H 74.9839 -0.593462 -4.35172 0
M  V30 842 H 75.5899 -2.12628 -3.68334 0
M  V30 843 N 73.905 1.17692 -1.04816 0
M  V30 844 C 75.321 1.39863 -0.768794 0
M  V30 845 C 75.521 1.91118 0.638451 0
M  V30 846 O 74.577 2.10036 1.40146 0
M  V30 847 C 75.89 2.39274 -1.82122 0
M  V30 848 C 77.438 2.52987 -1.843 0
M  V30 849 C 77.913 3.55669 -2.88555 0
M  V30 850 N 79.404 3.63183 -2.87493 0
M  V30 851 C 80.139 4.42381 -3.64811 0
M  V30 852 N 79.635 5.25125 -4.51903 0
M  V30 853 N 81.428 4.37217 -3.53267 0
M  V30 854 H 73.579 0.82752 -1.95617 0
M  V30 855 H 75.842 0.426123 -0.846831 0
M  V30 856 H 75.548 2.08678 -2.83102 0
M  V30 857 H 75.422 3.38725 -1.65967 0
M  V30 858 H 77.809 2.82896 -0.839869 0
M  V30 859 H 77.89 1.53623 -2.04532 0
M  V30 860 H 77.534 3.26499 -3.89051 0
M  V30 861 H 77.464 4.54728 -2.65575 0
M  V30 862 H 79.955 3.04103 -2.24343 0
M  V30 863 H 80.268 5.82728 -5.07591 0
M  V30 864 H 78.613 5.24519 -4.55966 0
M  V30 865 H 81.804 3.71626 -2.84625 0
M  V30 866 H 81.977 4.98696 -4.13771 0
M  V30 867 N 75.3831 0.828654 1.34056 0
M  V30 868 C 76.3131 0.269443 2.3194 0
M  V30 869 C 77.2941 -0.617247 1.58506 0
M  V30 870 O 78.4791 -0.542931 1.86456 0
M  V30 871 C 75.6091 -0.564793 3.42677 0
M  V30 872 C 74.5631 0.225241 4.27407 0
M  V30 873 C 73.8891 -0.7321 5.29664 0
M  V30 874 C 75.1891 1.43663 5.02154 0
M  V30 875 H 76.8831 1.08728 2.7896 0
M  V30 876 H 74.4291 0.524283 1.34117 0
M  V30 877 H 76.3821 -0.966233 4.10173 0
M  V30 878 H 75.1061 -1.41574 2.9432 0
M  V30 879 H 73.7651 0.608117 3.61521 0
M  V30 880 H 73.4131 -1.57916 4.77568 0
M  V30 881 H 73.1131 -0.20767 5.87233 0
M  V30 882 H 74.6371 -1.13128 6.00029 0
M  V30 883 H 76.0511 1.1089 5.62473 0
M  V30 884 H 74.4481 1.89711 5.69324 0
M  V30 885 H 75.5181 2.21181 4.31517 0
M  V30 886 N 76.8612 -1.46375 0.584142 0
M  V30 887 C 78.0862 -2.07268 0.0740405 0
M  V30 888 C 78.5112 -1.42979 -1.22223 0
M  V30 889 O 77.8692 -0.514092 -1.73859 0
M  V30 890 C 77.9172 -3.60518 -0.0767769 0
M  V30 891 O 77.0212 -3.96533 -1.13292 0
M  V30 892 H 76.3622 -0.660961 0.0634524 0
M  V30 893 H 78.8922 -1.87991 0.807492 0
M  V30 894 H 78.9022 -4.07021 -0.282489 0
M  V30 895 H 77.5772 -4.06702 0.86986 0
M  V30 896 H 76.1542 -3.61738 -0.905553 0
M  V30 897 N 78.3393 -0.321999 -1.54275 0
M  V30 898 C 79.5673 0.283052 -2.04955 0
M  V30 899 C 79.9823 1.45904 -1.19823 0
M  V30 900 O 79.3393 1.81063 -0.228545 0
M  V30 901 C 79.3903 0.719028 -3.54277 0
M  V30 902 O 79.1113 -0.410175 -4.36176 0
M  V30 903 C 80.6123 1.38705 -4.21041 0
M  V30 904 H 77.8323 0.0584616 -0.668448 0
M  V30 905 H 80.3763 -0.467734 -1.99079 0
M  V30 906 H 78.5313 1.41979 -3.60445 0
M  V30 907 H 78.9453 -0.0669416 -5.24457 0
M  V30 908 H 80.4193 1.64306 -5.2698 0
M  V30 909 H 80.8963 2.33385 -3.72059 0
M  V30 910 H 81.5023 0.728906 -4.19007 0
M  V30 911 N 79.8174 1.5752 -0.0501392 0
M  V30 912 C 80.7494 2.08413 0.95376 0
M  V30 913 C 81.7624 1.01175 1.27544 0
M  V30 914 O 82.9514 1.28744 1.23641 0
M  V30 915 C 80.0514 2.51138 2.27559 0
M  V30 916 C 79.2244 3.817 2.13598 0
M  V30 917 C 78.2834 4.10749 3.28895 0
M  V30 918 O 77.3094 4.80685 3.04845 0
M  V30 919 N 78.5114 3.62579 4.5334 0
M  V30 920 H 81.2764 2.95165 0.519383 0
M  V30 921 H 78.8374 1.61327 0.136127 0
M  V30 922 H 80.8294 2.67648 3.03557 0
M  V30 923 H 79.3994 1.6964 2.62567 0
M  V30 924 H 78.6194 3.74782 1.22197 0
M  V30 925 H 79.9074 4.67201 2.01496 0
M  V30 926 H 79.3054 3.06039 4.75769 0
M  V30 927 H 77.8624 3.84329 5.26436 0
M  V30 928 N 81.2955 -0.223234 1.56011 0
M  V30 929 C 82.2425 -1.27664 1.92277 0
M  V30 930 C 83.2125 -1.46659 0.779763 0
M  V30 931 O 84.3975 -1.60256 1.03551 0
M  V30 932 C 81.5375 -2.62234 2.24338 0
M  V30 933 C 80.6505 -2.51051 3.51564 0
M  V30 934 C 79.7855 -3.78133 3.7308 0
M  V30 935 C 78.8245 -3.61665 4.93827 0
M  V30 936 N 77.9615 -4.80693 5.11741 0
M  V30 937 H 82.8015 -0.960358 2.82101 0
M  V30 938 H 80.3385 -0.462901 1.39627 0
M  V30 939 H 82.2965 -3.40596 2.40936 0
M  V30 940 H 80.9265 -2.91961 1.3769 0
M  V30 941 H 79.9785 -1.64132 3.43169 0
M  V30 942 H 81.2905 -2.34803 4.40079 0
M  V30 943 H 80.4445 -4.64938 3.89766 0
M  V30 944 H 79.1835 -3.97304 2.82844 0
M  V30 945 H 78.1885 -2.73244 4.77093 0
M  V30 946 H 79.4135 -3.43966 5.85546 0
M  V30 947 H 77.3595 -5.00181 4.24446 0
M  V30 948 H 77.2765 -4.67165 5.94384 0
M  V30 949 H 78.5445 -5.6893 5.3286 0
M  V30 950 N 82.7736 -1.49793 -0.48987 0
M  V30 951 C 83.7366 -1.66752 -1.57246 0
M  V30 952 C 84.7366 -0.538867 -1.51502 0
M  V30 953 O 85.9266 -0.805545 -1.54456 0
M  V30 954 C 83.0586 -1.67528 -2.96896 0
M  V30 955 H 84.2516 -2.63321 -1.43534 0
M  V30 956 H 81.8046 -1.38992 -0.714914 0
M  V30 957 H 82.5396 -0.725837 -3.16073 0
M  V30 958 H 82.3246 -2.49504 -3.02473 0
M  V30 959 H 83.8146 -1.82667 -3.7553 0
M  V30 960 N 84.2517 0.741722 -1.39055 0
M  V30 961 C 85.2147 1.83733 -1.37021 0
M  V30 962 C 86.2147 1.58542 -0.268534 0
M  V30 963 O 87.4047 1.66067 -0.526076 0
M  V30 964 C 84.5367 3.2141 -1.13617 0
M  V30 965 H 85.7297 1.86941 -2.34506 0
M  V30 966 H 83.2827 0.944676 -1.24521 0
M  V30 967 H 84.0177 3.23865 -0.167863 0
M  V30 968 H 83.8027 3.4109 -1.93391 0
M  V30 969 H 85.2927 4.01477 -1.14918 0
M  V30 970 N 85.7298 1.2412 0.971189 0
M  V30 971 C 86.6598 1.05508 2.08304 0
M  V30 972 C 87.6408 -0.0308864 1.70072 0
M  V30 973 O 88.8258 0.135521 1.93727 0
M  V30 974 C 85.9558 0.655365 3.4106 0
M  V30 975 C 84.9098 1.68971 3.93234 0
M  V30 976 C 84.2358 1.14516 5.22293 0
M  V30 977 C 85.5358 3.08487 4.21465 0
M  V30 978 H 87.2298 1.98507 2.24132 0
M  V30 979 H 84.7758 0.955821 1.07704 0
M  V30 980 H 86.7288 0.51217 4.18276 0
M  V30 981 H 85.4528 -0.31032 3.25122 0
M  V30 982 H 84.1118 1.82106 3.18171 0
M  V30 983 H 83.7598 0.170189 5.02712 0
M  V30 984 H 83.4598 1.83635 5.58168 0
M  V30 985 H 84.9838 1.01401 6.02121 0
M  V30 986 H 86.3978 2.98601 4.89398 0
M  V30 987 H 84.7948 3.74926 4.68562 0
M  V30 988 H 85.8648 3.56787 3.28376 0
M  V30 989 N 87.2079 -1.17134 1.05439 0
M  V30 990 C 88.1559 -2.23289 0.651511 0
M  V30 991 C 89.1499 -1.66186 -0.328411 0
M  V30 992 O 90.3559 -1.78949 -0.194206 0
M  V30 993 H 86.7309 -0.726938 0.192523 0
M  V30 994 H 88.7019 -2.54565 1.55689 0
M  V30 995 C 87.4509 -3.47671 0.0448436 0
M  V30 996 H 86.7739 -3.91918 0.78996 0
M  V30 997 H 88.2139 -4.2353 -0.19964 0
M  V30 998 C 86.6729 -3.14453 -1.20918 0
M  V30 999 O 87.2029 -3.29459 -2.29825 0
M  V30 1000 N 85.4089 -2.68657 -1.10779 0
M  V30 1001 H 84.9559 -2.56646 -0.221526 0
M  V30 1002 H 84.9139 -2.46804 -1.9477 0
M  V30 1003 N 88.686 -0.835752 -1.33615 0
M  V30 1004 C 89.616 -0.281739 -2.31794 0
M  V30 1005 C 90.597 0.608833 -1.58831 0
M  V30 1006 O 91.782 0.533035 -1.86741 0
M  V30 1007 C 88.912 0.546612 -3.42971 0
M  V30 1008 C 87.866 -0.247904 -4.27281 0
M  V30 1009 C 87.192 0.704001 -5.30045 0
M  V30 1010 C 88.492 -1.46324 -5.01385 0
M  V30 1011 H 90.186 -1.10206 -2.78379 0
M  V30 1012 H 87.732 -0.531388 -1.33837 0
M  V30 1013 H 89.685 0.944467 -4.1068 0
M  V30 1014 H 88.409 1.40011 -2.95067 0
M  V30 1015 H 87.068 -0.627281 -3.61194 0
M  V30 1016 H 86.716 1.55381 -4.78399 0
M  V30 1017 H 86.416 0.176524 -5.87335 0
M  V30 1018 H 87.94 1.09944 -6.0062 0
M  V30 1019 H 89.354 -1.13871 -5.61877 0
M  V30 1020 H 87.751 -1.92728 -5.6831 0
M  V30 1021 H 88.821 -2.23467 -4.30338 0
M  V30 1022 N 90.1641 1.46063 -0.591896 0
M  V30 1023 C 91.4121 2.01938 -0.0808391 0
M  V30 1024 C 91.7331 1.46475 1.28725 0
M  V30 1025 O 91.0031 0.652944 1.84698 0
M  V30 1026 H 89.5831 0.746516 -0.0268938 0
M  V30 1027 H 92.2451 1.79055 -0.769752 0
M  V30 1028 H 91.3411 3.12094 -0.0187578 0
M  V30 1029 N 91.6422 0.330177 1.54103 0
M  V30 1030 C 92.5752 -0.575477 2.20825 0
M  V30 1031 C 93.5532 -1.11064 1.18758 0
M  V30 1032 O 94.7372 -1.17341 1.47524 0
M  V30 1033 C 91.8642 -1.79032 2.87516 0
M  V30 1034 C 90.9102 -1.38581 4.03358 0
M  V30 1035 S 91.7432 -0.416911 5.33875 0
M  V30 1036 C 92.8992 -1.63889 6.04062 0
M  V30 1037 H 93.1322 -0.00872114 2.97299 0
M  V30 1038 H 90.6652 0.114254 1.53977 0
M  V30 1039 H 92.6232 -2.48734 3.2656 0
M  V30 1040 H 91.2842 -2.32827 2.10832 0
M  V30 1041 H 90.4772 -2.29123 4.48908 0
M  V30 1042 H 90.0792 -0.768419 3.66021 0
M  V30 1043 H 92.3712 -2.57536 6.26643 0
M  V30 1044 H 93.3142 -1.22542 6.97416 0
M  V30 1045 H 93.7222 -1.82887 5.34053 0
M  V30 1046 N 93.1203 -1.57491 0.0584922 0
M  V30 1047 C 94.0683 -2.13148 -0.931168 0
M  V30 1048 C 95.0623 -1.06507 -1.31729 0
M  V30 1049 O 96.2683 -1.24906 -1.29609 0
M  V30 1050 H 92.6433 -0.68137 -0.31818 0
M  V30 1051 H 94.6143 -2.95187 -0.436707 0
M  V30 1052 C 93.3633 -2.69732 -2.19408 0
M  V30 1053 H 92.6863 -3.51454 -1.90578 0
M  V30 1054 H 94.1263 -3.12287 -2.86798 0
M  V30 1055 C 92.5853 -1.63855 -2.94369 0
M  V30 1056 O 93.1153 -1.05565 -3.87581 0
M  V30 1057 N 91.3213 -1.35202 -2.57233 0
M  V30 1058 H 90.8683 -1.82791 -1.81508 0
M  V30 1059 H 90.8263 -0.645922 -3.07693 0
M  V30 1060 N 94.5984 0.214957 -1.56127 0
M  V30 1061 C 95.8444 0.939762 -1.79712 0
M  V30 1062 C 96.1774 1.83723 -0.629247 0
M  V30 1063 O 95.4524 1.90925 0.371197 0
M  V30 1064 C 95.7354 1.77306 -3.13424 0
M  V30 1065 C 95.5884 0.90164 -4.40671 0
M  V30 1066 C 96.9074 2.74956 -3.43638 0
M  V30 1067 H 94.0264 0.340214 -0.653776 0
M  V30 1068 H 96.6684 0.20824 -1.88855 0
M  V30 1069 H 94.8184 2.39673 -3.0576 0
M  V30 1070 H 96.4904 0.294206 -4.60361 0
M  V30 1071 H 94.7334 0.207368 -4.33304 0
M  V30 1072 H 95.4044 1.51923 -5.30682 0
M  V30 1073 H 97.8804 2.22724 -3.51473 0
M  V30 1074 H 96.7564 3.30358 -4.38355 0
M  V30 1075 H 97.0174 3.53023 -2.66134 0
M  V30 1076 N 96.0765 1.50051 0.48192 0
M  V30 1077 C 97.3255 1.59741 1.23149 0
M  V30 1078 C 97.6385 0.298163 1.93314 0
M  V30 1079 O 98.8445 0.273835 2.70116 0
M  V30 1080 C 97.3005 2.81926 2.23708 0
M  V30 1081 C 96.9085 4.18685 1.59396 0
M  V30 1082 C 98.6525 3.00956 2.99375 0
M  V30 1083 C 96.5595 5.3207 2.58178 0
M  V30 1084 H 95.4895 0.594838 0.46334 0
M  V30 1085 H 98.1405 1.76467 0.503169 0
M  V30 1086 H 96.5225 2.58736 2.99786 0
M  V30 1087 H 97.6965 4.52088 0.891811 0
M  V30 1088 H 96.0115 4.05171 0.960503 0
M  V30 1089 H 98.6085 3.82836 3.73283 0
M  V30 1090 H 98.9515 2.12258 3.58123 0
M  V30 1091 H 99.4845 3.24277 2.30411 0
M  V30 1092 H 96.2235 6.22888 2.04184 0
M  V30 1093 H 95.7435 5.03098 3.26577 0
M  V30 1094 H 97.4225 5.62196 3.20225 0
M  V30 1095 N 97.5546 -0.734337 1.39446 0
M  V30 1096 C 98.8006 -1.49613 1.36908 0
M  V30 1097 C 99.1336 -1.94169 -0.0347829 0
M  V30 1098 O 98.4086 -1.66833 -0.999847 0
M  V30 1099 C 98.6916 -2.73534 2.34203 0
M  V30 1100 C 98.5446 -2.34993 3.83534 0
M  V30 1101 C 99.8636 -3.75635 2.29317 0
M  V30 1102 H 96.9826 -0.542714 0.498629 0
M  V30 1103 H 99.6246 -0.839597 1.70443 0
M  V30 1104 H 97.7746 -3.29553 2.05736 0
M  V30 1105 H 99.4466 -1.84601 4.22753 0
M  V30 1106 H 97.6896 -1.67213 4.00278 0
M  V30 1107 H 98.3606 -3.23738 4.47099 0
M  V30 1108 H 100.837 -3.29203 2.54489 0
M  V30 1109 H 99.7126 -4.60008 2.99472 0
M  V30 1110 H 99.9736 -4.22603 1.29842 0
M  V30 1111 N 99.0327 -1.24633 -0.964593 0
M  V30 1112 C 99.9627 -1.06611 -2.07741 0
M  V30 1113 C 100.944 0.0218666 -1.70086 0
M  V30 1114 O 102.129 -0.145793 -1.93652 0
M  V30 1115 C 99.2587 -0.673444 -3.40708 0
M  V30 1116 C 98.2127 -1.71054 -3.92332 0
M  V30 1117 C 97.5387 -1.17285 -5.21678 0
M  V30 1118 C 98.8387 -3.10718 -4.19824 0
M  V30 1119 H 100.533 -1.99693 -2.23076 0
M  V30 1120 H 98.0787 -0.96152 -1.07195 0
M  V30 1121 H 100.032 -0.534345 -4.17998 0
M  V30 1122 H 98.7557 0.293073 -3.25282 0
M  V30 1123 H 97.4147 -1.83791 -3.17201 0
M  V30 1124 H 97.0627 -0.196847 -5.02615 0
M  V30 1125 H 96.7627 -1.86592 -5.57187 0
M  V30 1126 H 98.2867 -1.04593 -6.01575 0
M  V30 1127 H 99.7007 -3.01192 -4.87808 0
M  V30 1128 H 98.0977 -3.77406 -4.66567 0
M  V30 1129 H 99.1677 -3.58524 -3.26479 0
M  V30 1130 N 100.511 1.16574 -1.06058 0
M  V30 1131 C 101.788 1.83048 -0.689416 0
M  V30 1132 C 102.168 1.94122 0.829443 0
M  V30 1133 O 101.516 1.48249 1.7388 0
M  V30 1134 C 101.726 3.20186 -1.38859 0
M  V30 1135 C 103.074 3.95989 -1.53226 0
M  V30 1136 O 104.098 3.29696 -1.3483 0
M  V30 1137 O 102.957 5.14813 -1.83384 0
M  V30 1138 H 100.051 0.790258 -0.243764 0
M  V30 1139 H 102.597 1.23797 -1.16071 0
M  V30 1140 H 101.369 3.07146 -2.4244 0
M  V30 1141 H 100.992 3.87112 -0.907216 0
M  V30 1142 N 101.989 0.842826 1.3317 0
M  V30 1143 C 103.238 0.436738 1.96915 0
M  V30 1144 C 103.551 -1.01025 1.67491 0
M  V30 1145 O 104.757 -1.5212 2.24881 0
M  V30 1146 C 103.213 0.730021 3.52418 0
M  V30 1147 C 102.821 2.19195 3.90714 0
M  V30 1148 C 104.565 0.391076 4.22695 0
M  V30 1149 C 102.472 2.42907 5.39212 0
M  V30 1150 H 101.402 0.15958 0.736919 0
M  V30 1151 H 104.053 1.03196 1.51733 0
M  V30 1152 H 102.435 0.0643755 3.95948 0
M  V30 1153 H 103.609 2.8984 3.58231 0
M  V30 1154 H 101.924 2.49425 3.33431 0
M  V30 1155 H 104.521 0.545817 5.31907 0
M  V30 1156 H 104.864 -0.666294 4.10933 0
M  V30 1157 H 105.397 1.01212 3.84709 0
M  V30 1158 H 102.136 3.47224 5.55982 0
M  V30 1159 H 101.656 1.76827 5.73142 0
M  V30 1160 H 103.335 2.2626 6.06148 0
M  V30 1161 N 103.467 -1.45747 0.599634 0
M  V30 1162 C 104.415 -2.322 -0.136426 0
M  V30 1163 C 105.409 -1.45497 -0.867583 0
M  V30 1164 O 106.615 -1.62027 -0.78405 0
M  V30 1165 H 102.99 -0.749368 -0.0628588 0
M  V30 1166 H 104.961 -2.92072 0.611281 0
M  V30 1167 C 103.71 -3.28974 -1.12567 0
M  V30 1168 H 103.033 -3.9568 -0.572484 0
M  V30 1169 H 104.473 -3.92212 -1.61077 0
M  V30 1170 C 102.932 -2.55561 -2.19523 0
M  V30 1171 O 103.462 -2.33111 -3.27143 0
M  V30 1172 N 101.668 -2.15832 -1.94589 0
M  V30 1173 H 101.215 -2.3429 -1.07078 0
M  V30 1174 H 101.173 -1.67034 -2.66359 0
M  V30 1175 N 104.945 -0.338344 -1.53925 0
M  V30 1176 C 105.877 0.555117 -2.22376 0
M  V30 1177 C 106.89 1.06812 -1.22862 0
M  V30 1178 O 108.079 0.979163 -1.49247 0
M  V30 1179 C 105.179 1.77609 -2.88631 0
M  V30 1180 C 104.352 1.39927 -4.14414 0
M  V30 1181 C 103.411 2.47936 -4.64127 0
M  V30 1182 O 102.437 2.11461 -5.28463 0
M  V30 1183 N 103.639 3.79107 -4.39612 0
M  V30 1184 H 106.404 -0.0310778 -2.99684 0
M  V30 1185 H 103.965 -0.162226 -1.61085 0
M  V30 1186 H 105.957 2.49287 -3.18807 0
M  V30 1187 H 104.527 2.26978 -2.14941 0
M  V30 1188 H 103.747 0.513481 -3.90841 0
M  V30 1189 H 105.035 1.12341 -4.96243 0
M  V30 1190 H 104.433 4.11531 -3.88148 0
M  V30 1191 H 102.99 4.4697 -4.74406 0
M  V30 1192 N 106.423 1.57458 -0.0668435 0
M  V30 1193 C 107.671 1.92919 0.602214 0
M  V30 1194 C 107.992 0.947215 1.70449 0
M  V30 1195 O 107.262 -0.00544117 1.95899 0
M  V30 1196 H 105.842 0.71217 0.22544 0
M  V30 1197 H 108.504 1.94508 -0.123535 0
M  V30 1198 H 107.6 2.94589 1.03073 0
M  V30 1199 N 107.901 -0.206675 1.56239 0
M  V30 1200 C 108.864 -1.23976 1.92776 0
M  V30 1201 C 109.864 -1.39041 0.807729 0
M  V30 1202 O 111.054 -1.37051 1.0753 0
M  V30 1203 C 108.186 -2.61112 2.19165 0
M  V30 1204 H 109.379 -0.927764 2.85189 0
M  V30 1205 H 106.932 -0.447718 1.4975 0
M  V30 1206 H 107.667 -2.97386 1.29352 0
M  V30 1207 H 107.452 -2.51552 3.00772 0
M  V30 1208 H 108.942 -3.35633 2.48476 0
M  V30 1209 N 109.379 -1.50304 -0.473955 0
M  V30 1210 C 110.625 -1.62358 -1.22521 0
M  V30 1211 C 110.98 -0.318555 -1.89745 0
M  V30 1212 O 110.273 0.683315 -1.79001 0
M  V30 1213 C 110.467 -2.73938 -2.29549 0
M  V30 1214 C 110.296 -4.15165 -1.72825 0
M  V30 1215 C 109.066 -4.81604 -1.52924 0
M  V30 1216 C 111.264 -4.99503 -1.22481 0
M  V30 1217 N 109.246 -6.07056 -0.91413 0
M  V30 1218 C 110.617 -6.15655 -0.732743 0
M  V30 1219 C 112.672 -4.85299 -1.11308 0
M  V30 1220 C 111.375 -7.19164 -0.139976 0
M  V30 1221 C 113.401 -5.88982 -0.534258 0
M  V30 1222 C 112.763 -7.0438 -0.0525562 0
M  V30 1223 H 108.862 -0.648286 -0.437321 0
M  V30 1224 H 111.446 -1.87413 -0.527692 0
M  V30 1225 H 109.617 -2.50611 -2.9673 0
M  V30 1226 H 111.349 -2.75366 -2.96573 0
M  V30 1227 H 108.104 -4.3885 -1.78067 0
M  V30 1228 H 108.528 -6.74108 -0.625071 0
M  V30 1229 H 113.17 -3.96369 -1.47144 0
M  V30 1230 H 110.888 -8.07771 0.230591 0
M  V30 1231 H 114.474 -5.80055 -0.450219 0
M  V30 1232 H 113.354 -7.83238 0.388324 0
M  V30 1233 N 110.857 0.726932 -1.39834 0
M  V30 1234 C 111.804 1.841 -1.39197 0
M  V30 1235 C 112.774 1.642 -0.250502 0
M  V30 1236 O 113.959 1.85494 -0.446846 0
M  V30 1237 C 111.099 3.21697 -1.24919 0
M  V30 1238 C 110.212 3.53247 -2.48678 0
M  V30 1239 C 109.347 4.80289 -2.26928 0
M  V30 1240 C 108.386 5.04707 -3.4632 0
M  V30 1241 N 107.523 6.22956 -3.23836 0
M  V30 1242 H 112.363 1.83979 -2.34427 0
M  V30 1243 H 109.9 0.898876 -1.16442 0
M  V30 1244 H 111.858 4.01137 -1.1465 0
M  V30 1245 H 110.488 3.21076 -0.333153 0
M  V30 1246 H 109.54 2.68447 -2.69519 0
M  V30 1247 H 110.852 3.67205 -3.37582 0
M  V30 1248 H 110.006 5.67725 -2.13947 0
M  V30 1249 H 108.745 4.68519 -1.35431 0
M  V30 1250 H 107.75 4.1573 -3.5979 0
M  V30 1251 H 108.975 5.18357 -4.38729 0
M  V30 1252 H 106.921 6.12459 -2.35011 0
M  V30 1253 H 106.838 6.37539 -4.063 0
M  V30 1254 H 108.106 7.1321 -3.14566 0
M  V30 1255 N 112.336 1.25143 0.95797 0
M  V30 1256 C 113.266 1.07711 2.07173 0
M  V30 1257 C 114.247 -0.0128462 1.70095 0
M  V30 1258 O 115.432 0.156061 1.93572 0
M  V30 1259 C 112.562 0.691503 3.40346 0
M  V30 1260 C 111.516 1.73132 3.9142 0
M  V30 1261 C 110.842 1.20049 5.21049 0
M  V30 1262 C 112.142 3.1294 4.1817 0
M  V30 1263 H 113.836 2.00873 2.22014 0
M  V30 1264 H 111.382 0.967191 1.06684 0
M  V30 1265 H 113.335 0.556505 4.17709 0
M  V30 1266 H 112.059 -0.275819 3.25433 0
M  V30 1267 H 110.718 1.8547 3.16222 0
M  V30 1268 H 110.366 0.223499 5.02503 0
M  V30 1269 H 110.066 1.89545 5.56189 0
M  V30 1270 H 111.59 1.07782 6.01012 0
M  V30 1271 H 113.004 3.03775 4.86203 0
M  V30 1272 H 111.401 3.79875 4.64559 0
M  V30 1273 H 112.471 3.6025 3.24573 0
M  V30 1274 N 113.814 -1.1601 1.06675 0
M  V30 1275 C 114.724 -2.24156 0.692179 0
M  V30 1276 C 115.74 -1.71507 -0.293513 0
M  V30 1277 O 116.916 -2.009 -0.141861 0
M  V30 1278 C 113.981 -3.46587 0.0884131 0
M  V30 1279 C 113.042 -4.14257 1.12646 0
M  V30 1280 C 112.275 -5.30844 0.551416 0
M  V30 1281 O 112.498 -5.66858 -0.634656 0
M  V30 1282 O 111.432 -5.87848 1.29298 0
M  V30 1283 H 115.258 -2.58513 1.59388 0
M  V30 1284 H 112.843 -1.23599 0.83926 0
M  V30 1285 H 114.725 -4.20679 -0.246361 0
M  V30 1286 H 113.4 -3.13994 -0.786712 0
M  V30 1287 H 112.307 -3.42118 1.51348 0
M  V30 1288 H 113.64 -4.50914 1.97325 0
M  V30 1289 N 115.292 -0.849877 -1.32721 0
M  V30 1290 C 116.52 -0.464754 -2.01613 0
M  V30 1291 C 116.935 0.937191 -1.63897 0
M  V30 1292 O 116.292 1.61081 -0.857856 0
M  V30 1293 C 116.343 -0.588638 -3.56675 0
M  V30 1294 O 116.064 -1.93535 -3.93034 0
M  V30 1295 C 117.565 -0.2019 -4.4284 0
M  V30 1296 H 114.785 -0.183215 -0.645502 0
M  V30 1297 H 117.329 -1.1455 -1.69407 0
M  V30 1298 H 115.484 0.0443159 -3.87375 0
M  V30 1299 H 115.898 -1.92871 -4.87751 0
M  V30 1300 H 117.372 -0.339599 -5.50954 0
M  V30 1301 H 117.849 0.857224 -4.30753 0
M  V30 1302 H 118.455 -0.809733 -4.17521 0
M  V30 1303 N 116.77 1.45427 -0.607355 0
M  V30 1304 C 117.68 2.34325 0.113463 0
M  V30 1305 C 118.696 1.51226 0.860617 0
M  V30 1306 O 119.872 1.84029 0.818255 0
M  V30 1307 C 116.937 3.28839 1.09844 0
M  V30 1308 C 115.998 4.27844 0.353271 0
M  V30 1309 C 115.231 5.17842 1.29133 0
M  V30 1310 O 115.454 5.11264 2.52913 0
M  V30 1311 O 114.388 5.96713 0.788523 0
M  V30 1312 H 118.214 2.97364 -0.617094 0
M  V30 1313 H 115.799 1.44807 -0.367619 0
M  V30 1314 H 117.681 3.8708 1.66575 0
M  V30 1315 H 116.356 2.68365 1.81003 0
M  V30 1316 H 115.263 3.7322 -0.256494 0
M  V30 1317 H 116.596 4.91173 -0.317822 0
M  V30 1318 N 118.248 0.346503 1.53744 0
M  V30 1319 C 119.664 -0.00530975 1.59599 0
M  V30 1320 C 119.864 -1.48465 1.36236 0
M  V30 1321 O 118.92 -2.24376 1.15808 0
M  V30 1322 C 120.233 0.433516 2.97559 0
M  V30 1323 C 121.781 0.386111 3.10609 0
M  V30 1324 C 122.256 0.800451 4.50951 0
M  V30 1325 N 123.747 0.754753 4.5701 0
M  V30 1326 C 124.482 1.04727 5.63755 0
M  V30 1327 N 123.978 1.4081 6.7834 0
M  V30 1328 N 125.771 0.971316 5.53644 0
M  V30 1329 H 117.922 1.31009 1.67184 0
M  V30 1330 H 120.185 0.534242 0.783128 0
M  V30 1331 H 119.891 1.46509 3.19731 0
M  V30 1332 H 119.765 -0.189753 3.76722 0
M  V30 1333 H 122.152 -0.636295 2.88158 0
M  V30 1334 H 122.233 1.04462 2.33498 0
M  V30 1335 H 121.877 1.82088 4.74137 0
M  V30 1336 H 121.807 0.119386 5.26465 0
M  V30 1337 H 124.298 0.488662 3.74727 0
M  V30 1338 H 124.611 1.61607 7.55714 0
M  V30 1339 H 122.956 1.44657 6.79779 0
M  V30 1340 H 126.147 0.688748 4.63005 0
M  V30 1341 H 126.32 1.20263 6.36742 0
M  V30 1342 N 119.726 -1.57421 0.075193 0
M  V30 1343 C 120.974 -1.93236 -0.591974 0
M  V30 1344 C 121.295 -0.956241 -1.69944 0
M  V30 1345 O 120.565 -0.00494792 -1.95899 0
M  V30 1346 H 119.145 -0.713355 -0.22166 0
M  V30 1347 H 121.807 -1.9444 0.133848 0
M  V30 1348 H 120.903 -2.95131 -1.01509 0
M  V30 1349 N 121.204 0.198386 -1.56346 0
M  V30 1350 C 122.45 0.920648 -1.80698 0
M  V30 1351 C 122.783 1.83045 -0.648697 0
M  V30 1352 O 122.058 1.91308 0.350925 0
M  V30 1353 C 122.341 1.73971 -3.15287 0
M  V30 1354 C 122.194 0.85485 -4.41602 0
M  V30 1355 C 123.513 2.71296 -3.46535 0
M  V30 1356 H 120.632 0.333261 -0.657348 0
M  V30 1357 H 123.274 0.188198 -1.89066 0
M  V30 1358 H 121.424 2.36416 -3.08285 0
M  V30 1359 H 123.096 0.245362 -4.60647 0
M  V30 1360 H 121.339 0.161398 -4.335 0
M  V30 1361 H 122.01 1.46286 -5.32264 0
M  V30 1362 H 124.486 2.18983 -3.53816 0
M  V30 1363 H 123.362 3.2569 -4.41834 0
M  V30 1364 H 123.623 3.5018 -2.69864 0
M  V30 1365 N 122.682 1.50554 0.465978 0
M  V30 1366 C 123.931 1.61038 1.21448 0
M  V30 1367 C 124.244 0.31865 1.92987 0
M  V30 1368 O 125.45 0.302469 2.6981 0
M  V30 1369 C 123.906 2.84283 2.20706 0
M  V30 1370 C 123.514 4.20352 1.54946 0
M  V30 1371 C 125.258 3.04115 2.96166 0
M  V30 1372 C 123.165 5.34778 2.5252 0
M  V30 1373 H 122.095 0.599718 0.457005 0
M  V30 1374 H 124.746 1.7699 0.484424 0
M  V30 1375 H 123.128 2.61901 2.97025 0
M  V30 1376 H 124.302 4.53008 0.843811 0
M  V30 1377 H 122.617 4.06167 0.917475 0
M  V30 1378 H 125.214 3.86774 3.69202 0
M  V30 1379 H 125.557 2.16045 3.55852 0
M  V30 1380 H 126.09 3.26702 2.26959 0
M  V30 1381 H 122.829 6.25018 1.97566 0
M  V30 1382 H 122.349 5.06534 3.21222 0
M  V30 1383 H 124.028 5.65561 3.14245 0
M  V30 1384 N 124.16 -0.719506 1.40217 0
M  V30 1385 C 125.093 -1.84298 1.34571 0
M  V30 1386 C 126.071 -1.61149 0.216741 0
M  V30 1387 O 127.255 -1.84212 0.399756 0
M  V30 1388 C 124.382 -3.20568 1.09335 0
M  V30 1389 C 123.428 -3.62551 2.24631 0
M  V30 1390 S 124.261 -3.7012 3.87004 0
M  V30 1391 C 125.417 -5.09154 3.64024 0
M  V30 1392 H 125.65 -1.88807 2.2965 0
M  V30 1393 H 123.183 -0.885901 1.26456 0
M  V30 1394 H 125.141 -3.99246 0.954602 0
M  V30 1395 H 123.802 -3.13696 0.159164 0
M  V30 1396 H 122.995 -4.61483 2.02606 0
M  V30 1397 H 122.597 -2.91119 2.34789 0
M  V30 1398 H 124.889 -5.95955 3.22248 0
M  V30 1399 H 125.832 -5.36213 4.62473 0
M  V30 1400 H 126.24 -4.79562 2.97793 0
M  V30 1401 N 125.638 -1.25649 -0.95132 0
M  V30 1402 C 126.915 -1.01361 -1.67288 0
M  V30 1403 C 127.295 0.459135 -2.06046 0
M  V30 1404 O 126.643 1.43723 -1.7764 0
M  V30 1405 C 126.853 -1.95256 -2.89268 0
M  V30 1406 C 128.201 -2.23289 -3.61147 0
M  V30 1407 O 129.225 -1.93041 -2.99355 0
M  V30 1408 O 128.084 -2.74741 -4.72419 0
M  V30 1409 H 125.178 -0.38464 -0.732107 0
M  V30 1410 H 127.724 -1.36817 -1.00395 0
M  V30 1411 H 126.496 -2.94685 -2.57442 0
M  V30 1412 H 126.119 -1.60218 -3.6389 0
M  V30 1413 N 127.117 1.15442 -1.07289 0
M  V30 1414 C 128.365 1.85845 -0.794096 0
M  V30 1415 C 128.686 1.82692 0.681809 0
M  V30 1416 O 127.956 1.26741 1.49377 0
M  V30 1417 H 126.536 0.688089 -0.290763 0
M  V30 1418 H 129.198 1.39947 -1.3565 0
M  V30 1419 H 128.294 2.91001 -1.12804 0
M  V30 1420 N 128.595 0.856903 1.32268 0
M  V30 1421 C 129.872 0.382583 1.91822 0
M  V30 1422 C 130.252 -1.13407 1.78051 0
M  V30 1423 O 129.6 -1.95673 1.18001 0
M  V30 1424 C 129.81 0.849446 3.38505 0
M  V30 1425 C 131.158 0.867936 4.15634 0
M  V30 1426 O 132.182 0.794232 3.47232 0
M  V30 1427 O 131.041 0.972286 5.37781 0
M  V30 1428 H 128.135 0.112014 0.819379 0
M  V30 1429 H 130.681 0.943952 1.41024 0
M  V30 1430 H 129.453 1.89267 3.42482 0
M  V30 1431 H 129.076 0.265652 3.96712 0
M  V30 1432 N 130.073 -1.45103 0.615059 0
M  V30 1433 C 131.02 -2.30586 -0.0993978 0
M  V30 1434 C 131.99 -1.42544 -0.852669 0
M  V30 1435 O 133.175 -1.71465 -0.836917 0
M  V30 1436 C 130.315 -3.27572 -1.08583 0
M  V30 1437 C 129.428 -4.30717 -0.332656 0
M  V30 1438 C 128.563 -5.14807 -1.30947 0
M  V30 1439 C 127.602 -6.09673 -0.544538 0
M  V30 1440 N 126.739 -6.86517 -1.47101 0
M  V30 1441 H 131.579 -2.91144 0.635542 0
M  V30 1442 H 129.116 -1.4346 0.325206 0
M  V30 1443 H 131.074 -3.82276 -1.67095 0
M  V30 1444 H 129.704 -2.68751 -1.78809 0
M  V30 1445 H 128.756 -3.78615 0.368107 0
M  V30 1446 H 130.068 -4.98102 0.263842 0
M  V30 1447 H 129.222 -5.73948 -1.96643 0
M  V30 1448 H 127.961 -4.47458 -1.9399 0
M  V30 1449 H 126.966 -5.49656 0.126003 0
M  V30 1450 H 128.191 -6.79052 0.080947 0
M  V30 1451 H 126.137 -6.21851 -2.08895 0
M  V30 1452 H 126.054 -7.50281 -0.928137 0
M  V30 1453 H 127.322 -7.50194 -2.11731 0
M  V30 1454 N 131.551 -0.354651 -1.53558 0
M  V30 1455 C 132.962 0.126902 -1.86268 0
M  V30 1456 C 133.313 1.49075 -1.27558 0
M  V30 1457 O 132.438 2.08105 -0.5934 0
M  V30 1458 C 133.033 0.237046 -3.3797 0
M  V30 1459 C 131.592 0.662842 -3.70518 0
M  V30 1460 C 130.739 -0.196652 -2.76602 0
M  V30 1461 H 133.69 -0.573849 -1.47962 0
M  V30 1462 H 133.711 1.06259 -3.65362 0
M  V30 1463 H 133.223 -0.755725 -3.80671 0
M  V30 1464 H 131.324 1.66424 -3.33367 0
M  V30 1465 H 131.437 0.445034 -4.77029 0
M  V30 1466 H 129.801 0.332763 -2.52517 0
M  V30 1467 H 130.584 -1.18676 -3.22135 0
M  V30 1468 N 133.029 1.57378 -0.0835403 0
M  V30 1469 C 133.939 2.16897 0.894021 0
M  V30 1470 C 134.955 1.13528 1.31861 0
M  V30 1471 O 136.131 1.45848 1.3889 0
M  V30 1472 C 133.196 2.72831 2.13925 0
M  V30 1473 C 132.257 3.91115 1.76997 0
M  V30 1474 C 131.49 4.44371 2.95584 0
M  V30 1475 O 131.713 3.96596 4.09961 0
M  V30 1476 O 130.647 5.35549 2.74719 0
M  V30 1477 H 134.473 3.00814 0.417679 0
M  V30 1478 H 132.058 1.48741 0.140181 0
M  V30 1479 H 133.94 3.0863 2.86924 0
M  V30 1480 H 132.615 1.91967 2.60635 0
M  V30 1481 H 131.522 3.60148 1.01214 0
M  V30 1482 H 132.855 4.73307 1.3506 0
M  V30 1483 N 134.507 -0.190092 1.56449 0
M  V30 1484 C 135.457 -1.23977 1.91347 0
M  V30 1485 C 136.441 -1.40747 0.779693 0
M  V30 1486 O 137.633 -1.43033 1.04262 0
M  V30 1487 C 134.762 -2.58347 2.26079 0
M  V30 1488 C 133.848 -2.4535 3.45925 0
M  V30 1489 N 134.239 -2.02039 4.63696 0
M  V30 1490 C 132.537 -2.76229 3.50162 0
M  V30 1491 C 133.238 -2.01053 5.4585 0
M  V30 1492 N 132.214 -2.42747 4.8639 0
M  V30 1493 H 136.016 -0.896318 2.79899 0
M  V30 1494 H 133.53 -0.398496 1.57435 0
M  V30 1495 H 135.527 -3.34173 2.49267 0
M  V30 1496 H 134.187 -2.93512 1.38856 0
M  V30 1497 H 135.198 -1.7267 4.88268 0
M  V30 1498 H 131.875 -3.15556 2.73369 0
M  V30 1499 H 133.265 -1.69426 6.50188 0
M  V30 1500 N 135.985 -1.50799 -0.457987 0
M  V30 1501 C 136.915 -1.73553 -1.5621 0
M  V30 1502 C 137.896 -0.584774 -1.59732 0
M  V30 1503 O 139.081 -0.825314 -1.7579 0
M  V30 1504 C 136.211 -1.84169 -2.94447 0
M  V30 1505 C 135.165 -2.99461 -3.0579 0
M  V30 1506 C 134.491 -2.95235 -4.45803 0
M  V30 1507 C 135.791 -4.39766 -2.81786 0
M  V30 1508 H 137.485 -2.66 -1.37421 0
M  V30 1509 H 135.031 -1.28002 -0.659662 0
M  V30 1510 H 136.984 -1.98672 -3.71628 0
M  V30 1511 H 135.708 -0.883545 -3.14422 0
M  V30 1512 H 134.367 -2.8463 -2.31044 0
M  V30 1513 H 134.015 -1.97239 -4.62715 0
M  V30 1514 H 133.715 -3.72642 -4.54326 0
M  V30 1515 H 135.239 -3.11803 -5.24987 0
M  V30 1516 H 136.653 -4.55054 -3.4871 0
M  V30 1517 H 135.05 -5.18722 -3.0174 0
M  V30 1518 H 136.12 -4.51229 -1.7754 0
M  V30 1519 N 137.463 0.71206 -1.40597 0
M  V30 1520 C 138.393 1.83889 -1.43899 0
M  V30 1521 C 139.374 1.67442 -0.299504 0
M  V30 1522 O 140.559 1.87421 -0.508624 0
M  V30 1523 C 137.689 3.21877 -1.30431 0
M  V30 1524 C 136.643 3.53002 -2.42019 0
M  V30 1525 C 135.969 4.90172 -2.13626 0
M  V30 1526 C 137.269 3.53643 -3.84362 0
M  V30 1527 H 138.963 1.81383 -2.38203 0
M  V30 1528 H 136.509 0.871237 -1.14654 0
M  V30 1529 H 138.462 4.00404 -1.31357 0
M  V30 1530 H 137.186 3.24968 -0.326049 0
M  V30 1531 H 135.845 2.76818 -2.40349 0
M  V30 1532 H 135.493 4.89869 -1.14182 0
M  V30 1533 H 135.193 5.11962 -2.88389 0
M  V30 1534 H 136.717 5.71028 -2.1624 0
M  V30 1535 H 138.131 4.22203 -3.87837 0
M  V30 1536 H 136.528 3.86961 -4.58673 0
M  V30 1537 H 137.598 2.52954 -4.13693 0
M  V30 1538 N 138.941 1.26152 0.944643 0
M  V30 1539 C 139.851 1.09176 2.07648 0
M  V30 1540 C 140.867 0.0261935 1.7398 0
M  V30 1541 O 142.043 0.229208 2.00091 0
M  V30 1542 C 139.108 0.722915 3.39079 0
M  V30 1543 C 138.169 1.86752 3.86552 0
M  V30 1544 C 137.402 1.51617 5.11711 0
M  V30 1545 O 137.625 0.416331 5.68879 0
M  V30 1546 O 136.559 2.34975 5.54139 0
M  V30 1547 H 140.385 2.0412 2.24875 0
M  V30 1548 H 137.97 1.05182 1.061 0
M  V30 1549 H 139.852 0.529787 4.18056 0
M  V30 1550 H 138.527 -0.197159 3.23099 0
M  V30 1551 H 137.434 2.11558 3.08535 0
M  V30 1552 H 138.767 2.76719 4.07047 0
M  V30 1553 N 140.419 -1.14872 1.07899 0
M  V30 1554 C 141.382 -2.17986 0.708161 0
M  V30 1555 C 142.382 -1.58775 -0.25442 0
M  V30 1556 O 143.572 -1.74166 -0.034645 0
M  V30 1557 C 140.704 -3.40871 0.0446929 0
M  V30 1558 H 141.897 -2.52306 1.62116 0
M  V30 1559 H 139.45 -1.2943 0.876218 0
M  V30 1560 H 140.185 -3.12124 -0.880281 0
M  V30 1561 H 139.97 -3.8511 0.737091 0
M  V30 1562 H 141.46 -4.17121 -0.19991 0
M  V30 1563 N 141.898 -0.863906 -1.31812 0
M  V30 1564 C 143.147 -0.46801 -1.96195 0
M  V30 1565 C 143.46 0.983474 -1.69077 0
M  V30 1566 O 144.666 1.48523 -2.27273 0
M  V30 1567 C 143.122 -0.785995 -3.51212 0
M  V30 1568 C 142.73 -2.25383 -3.87178 0
M  V30 1569 C 144.474 -0.458274 -4.22019 0
M  V30 1570 C 142.381 -2.51455 -5.3528 0
M  V30 1571 H 141.311 -0.171283 -0.734287 0
M  V30 1572 H 143.962 -1.05597 -1.50072 0
M  V30 1573 H 142.344 -0.127359 -3.95795 0
M  V30 1574 H 143.518 -2.95502 -3.53575 0
M  V30 1575 H 141.833 -2.54698 -3.2942 0
M  V30 1576 H 144.43 -0.630369 -5.30971 0
M  V30 1577 H 144.773 0.600834 -4.11941 0
M  V30 1578 H 145.306 -1.07319 -3.8305 0
M  V30 1579 H 142.045 -3.56025 -5.50387 0
M  V30 1580 H 141.565 -1.85923 -5.70257 0
M  V30 1581 H 143.244 -2.35874 -6.02472 0
M  V30 1582 N 143.376 1.44774 -0.622745 0
M  V30 1583 C 144.787 1.85546 -0.207226 0
M  V30 1584 C 145.138 1.52093 1.23944 0
M  V30 1585 O 144.263 0.95492 1.94191 0
M  V30 1586 C 144.858 3.36781 -0.369313 0
M  V30 1587 C 143.417 3.76399 -0.00836847 0
M  V30 1588 C 142.564 2.68664 -0.686651 0
M  V30 1589 H 145.515 1.3536 -0.828454 0
M  V30 1590 H 145.536 3.78453 0.394162 0
M  V30 1591 H 145.048 3.61098 -1.42231 0
M  V30 1592 H 143.149 3.57698 1.04322 0
M  V30 1593 H 143.262 4.7732 -0.412584 0
M  V30 1594 H 141.626 2.54404 -0.122777 0
M  V30 1595 H 142.409 2.95815 -1.74208 0
M  V30 1596 N 144.854 0.36279 1.53368 0
M  V30 1597 C 146.1 -0.228113 2.01513 0
M  V30 1598 C 146.433 -1.48648 1.2497 0
M  V30 1599 O 145.708 -1.91459 0.342616 0
M  V30 1600 C 145.991 -0.522884 3.56284 0
M  V30 1601 C 145.844 0.74892 4.43521 0
M  V30 1602 C 147.163 -1.32461 4.19693 0
M  V30 1603 H 144.282 -0.0814343 0.732487 0
M  V30 1604 H 146.924 0.48713 1.83649 0
M  V30 1605 H 145.074 -1.1322 3.71636 0
M  V30 1606 H 146.746 1.38648 4.39971 0
M  V30 1607 H 144.989 1.36986 4.11603 0
M  V30 1608 H 145.66 0.497667 5.49752 0
M  V30 1609 H 148.136 -0.809203 4.08156 0
M  V30 1610 H 147.012 -1.49961 5.28018 0
M  V30 1611 H 147.273 -2.33232 3.75573 0
M  V30 1612 N 146.332 -1.57332 0.0918853 0
M  V30 1613 C 147.265 -2.09499 -0.904735 0
M  V30 1614 C 148.243 -1.00479 -1.27839 0
M  V30 1615 O 149.427 -1.27954 -1.38419 0
M  V30 1616 C 146.554 -2.56931 -2.2069 0
M  V30 1617 C 145.6 -3.77579 -1.98334 0
M  V30 1618 S 146.433 -5.21317 -1.22428 0
M  V30 1619 C 147.589 -5.72097 -2.53882 0
M  V30 1620 H 147.822 -2.93705 -0.460922 0
M  V30 1621 H 145.355 -1.53923 -0.121332 0
M  V30 1622 H 147.313 -2.84917 -2.95521 0
M  V30 1623 H 145.974 -1.72956 -2.62192 0
M  V30 1624 H 145.167 -4.08824 -2.94752 0
M  V30 1625 H 144.769 -3.5007 -1.31633 0
M  V30 1626 H 147.061 -5.80168 -3.49874 0
M  V30 1627 H 148.004 -6.70654 -2.27219 0
M  V30 1628 H 148.412 -5.00012 -2.62007 0
M  V30 1629 N 147.81 0.181792 -1.56548 0
M  V30 1630 C 149.058 0.89832 -1.81038 0
M  V30 1631 C 149.379 1.83232 -0.667164 0
M  V30 1632 O 148.649 1.93372 0.313673 0
M  V30 1633 H 147.229 0.33471 -0.667816 0
M  V30 1634 H 149.891 0.184116 -1.94028 0
M  V30 1635 H 148.987 1.4815 -2.74696 0
M  V30 1636 N 149.288 1.51039 0.449983 0
M  V30 1637 C 150.528 1.64732 1.21007 0
M  V30 1638 C 150.892 0.349865 1.88785 0
M  V30 1639 O 152.093 0.362431 2.66345 0
M  V30 1640 C 150.364 2.80902 2.20973 0
M  V30 1641 S 151.923 3.14851 3.05638 0
M  V30 1642 H 148.741 0.5805 0.410538 0
M  V30 1643 H 151.343 1.88901 0.503634 0
M  V30 1644 H 150.047 3.73627 1.69796 0
M  V30 1645 H 149.578 2.58882 2.96215 0
M  V30 1646 H 151.593 2.60306 4.22439 0
M  V30 1647 N 150.766 -0.704594 1.40972 0
M  V30 1648 C 151.996 -1.49138 1.42974 0
M  V30 1649 C 152.404 -1.89175 0.0308406 0
M  V30 1650 O 151.747 -1.56734 -0.958138 0
M  V30 1651 C 151.809 -2.79016 2.26694 0
M  V30 1652 C 151.473 -2.61236 3.74973 0
M  V30 1653 C 152.47 -2.27773 4.67349 0
M  V30 1654 C 150.155 -2.77158 4.18914 0
M  V30 1655 C 152.149 -2.10457 6.01653 0
M  V30 1656 C 149.836 -2.59459 5.53285 0
M  V30 1657 C 150.834 -2.26158 6.4447 0
M  V30 1658 O 150.522 -2.08605 7.76363 0
M  V30 1659 H 150.254 -0.466443 0.489292 0
M  V30 1660 H 152.808 -0.8758 1.85793 0
M  V30 1661 H 151.038 -3.42947 1.78673 0
M  V30 1662 H 152.727 -3.40782 2.20504 0
M  V30 1663 H 153.493 -2.15095 4.34694 0
M  V30 1664 H 149.372 -3.02064 3.48251 0
M  V30 1665 H 152.916 -1.84387 6.72791 0
M  V30 1666 H 148.813 -2.71725 5.85522 0
M  V30 1667 H 149.581 -2.23439 7.87412 0
M  V30 1668 N 152.244 -1.26651 -0.937939 0
M  V30 1669 C 153.484 -1.13611 -1.69917 0
M  V30 1670 C 153.848 0.314687 -1.89404 0
M  V30 1671 O 155.049 0.567285 -2.62746 0
M  V30 1672 C 153.32 -1.88742 -3.03498 0
M  V30 1673 S 154.879 -1.91794 -3.94665 0
M  V30 1674 H 151.697 -0.405767 -0.583844 0
M  V30 1675 H 154.299 -1.60416 -1.11745 0
M  V30 1676 H 153.003 -2.9336 -2.86999 0
M  V30 1677 H 152.534 -1.42391 -3.66727 0
M  V30 1678 H 154.549 -1.00698 -4.85875 0
M  V30 1679 N 153.722 1.14298 -1.08507 0
M  V30 1680 C 154.999 1.81544 -0.728088 0
M  V30 1681 C 155.379 1.95838 0.78808 0
M  V30 1682 O 154.727 1.51904 1.70697 0
M  V30 1683 C 154.937 3.17169 -1.45619 0
M  V30 1684 C 156.285 3.9265 -1.61591 0
M  V30 1685 O 157.309 3.26762 -1.41793 0
M  V30 1686 O 156.168 5.10807 -1.94263 0
M  V30 1687 H 153.262 0.78491 -0.260471 0
M  V30 1688 H 155.808 1.21307 -1.18671 0
M  V30 1689 H 154.58 3.01934 -2.489 0
M  V30 1690 H 154.203 3.851 -0.989124 0
M  V30 1691 N 155.201 0.870884 1.31352 0
M  V30 1692 C 156.45 0.478408 1.95944 0
M  V30 1693 C 156.763 -0.974493 1.69597 0
M  V30 1694 O 157.969 -1.47316 2.28058 0
M  V30 1695 C 156.425 0.804609 3.50791 0
M  V30 1696 C 156.033 2.27433 3.85977 0
M  V30 1697 C 157.777 0.480648 4.2177 0
M  V30 1698 C 155.684 2.5429 5.33939 0
M  V30 1699 H 154.614 0.175175 0.733369 0
M  V30 1700 H 157.265 1.06391 1.4951 0
M  V30 1701 H 155.647 0.148347 3.95722 0
M  V30 1702 H 156.821 2.97373 3.52002 0
M  V30 1703 H 155.136 2.56442 3.28065 0
M  V30 1704 H 157.733 0.658519 5.30629 0
M  V30 1705 H 158.076 -0.578979 4.12254 0
M  V30 1706 H 158.609 1.09349 3.82476 0
M  V30 1707 H 155.348 3.58939 5.48491 0
M  V30 1708 H 154.868 1.88945 5.69263 0
M  V30 1709 H 156.547 2.39066 6.01212 0
M  V30 1710 N 156.679 -1.44442 0.630414 0
M  V30 1711 C 157.928 -2.01267 0.132073 0
M  V30 1712 C 158.241 -1.50172 -1.25331 0
M  V30 1713 O 159.447 -1.9912 -1.84562 0
M  V30 1714 C 157.903 -3.59422 0.185362 0
M  V30 1715 C 157.511 -4.19514 1.57201 0
M  V30 1716 C 159.255 -4.23724 -0.256553 0
M  V30 1717 C 157.162 -5.69891 1.58045 0
M  V30 1718 H 156.092 -0.752619 0.0456092 0
M  V30 1719 H 158.743 -1.65666 0.789106 0
M  V30 1720 H 157.125 -3.92318 -0.538759 0
M  V30 1721 H 158.299 -3.98156 2.31966 0
M  V30 1722 H 156.614 -3.67496 1.95795 0
M  V30 1723 H 159.211 -5.34019 -0.269767 0
M  V30 1724 H 159.554 -3.96013 -1.28372 0
M  V30 1725 H 160.087 -3.95629 0.41505 0
M  V30 1726 H 156.826 -6.02336 2.58597 0
M  V30 1727 H 156.346 -5.93373 0.875725 0
M  V30 1728 H 158.025 -6.33515 1.31408 0
M  V30 1729 N 158.157 -0.370918 -1.53173 0
M  V30 1730 C 159.405 0.216673 -2.00935 0
M  V30 1731 C 159.726 1.48845 -1.25977 0
M  V30 1732 O 158.996 1.92286 -0.374551 0
M  V30 1733 H 157.576 0.0830565 -0.742368 0
M  V30 1734 H 160.238 -0.49838 -1.8842 0
M  V30 1735 H 159.334 0.439893 -3.08984 0
M  V30 1736 N 159.635 1.57281 -0.100228 0
M  V30 1737 C 160.881 1.94826 0.563101 0
M  V30 1738 C 161.214 0.982475 1.67514 0
M  V30 1739 O 160.489 0.0164069 1.94493 0
M  V30 1740 C 160.772 3.42453 1.11346 0
M  V30 1741 C 160.625 4.498 0.00612081 0
M  V30 1742 C 161.944 3.91506 2.01024 0
M  V30 1743 H 159.063 0.708428 0.203221 0
M  V30 1744 H 161.705 1.8922 -0.171979 0
M  V30 1745 H 159.855 3.47361 1.7399 0
M  V30 1746 H 161.527 4.57 -0.628357 0
M  V30 1747 H 159.77 4.28756 -0.659581 0
M  V30 1748 H 160.441 5.50306 0.432109 0
M  V30 1749 H 162.917 3.88784 1.48278 0
M  V30 1750 H 161.793 4.95358 2.36457 0
M  V30 1751 H 162.054 3.31099 2.92961 0
M  V30 1752 N 161.113 -0.173488 1.56642 0
M  V30 1753 C 162.529 -0.525174 1.50712 0
M  V30 1754 C 162.729 -1.8476 0.804107 0
M  V30 1755 O 161.785 -2.49869 0.363574 0
M  V30 1756 C 163.098 -0.559937 2.95441 0
M  V30 1757 C 164.646 -0.647288 3.06234 0
M  V30 1758 C 165.121 -0.712963 4.52417 0
M  V30 1759 N 166.612 -0.775911 4.56655 0
M  V30 1760 C 167.347 -0.847264 5.67106 0
M  V30 1761 N 166.843 -0.879585 6.87194 0
M  V30 1762 N 168.636 -0.886117 5.55071 0
M  V30 1763 H 160.787 0.693681 2.00753 0
M  V30 1764 H 163.05 0.249841 0.914485 0
M  V30 1765 H 162.756 0.343049 3.50023 0
M  V30 1766 H 162.63 -1.40718 3.49969 0
M  V30 1767 H 165.017 -1.5407 2.51687 0
M  V30 1768 H 165.098 0.226586 2.54794 0
M  V30 1769 H 164.742 0.176183 5.07594 0
M  V30 1770 H 164.672 -1.60295 5.0161 0
M  V30 1771 H 167.163 -0.759304 3.70193 0
M  V30 1772 H 167.476 -0.935144 7.67121 0
M  V30 1773 H 165.821 -0.847898 6.89808 0
M  V30 1774 H 169.012 -0.857853 4.60172 0
M  V30 1775 H 169.185 -0.938263 6.41171 0
M  V30 1776 N 162.591 -1.51276 -0.441967 0
M  V30 1777 C 163.816 -1.67799 -1.21895 0
M  V30 1778 C 164.241 -0.372864 -1.84367 0
M  V30 1779 O 163.599 0.666501 -1.68604 0
M  V30 1780 C 163.647 -2.79199 -2.28211 0
M  V30 1781 O 162.751 -2.42479 -3.33583 0
M  V30 1782 H 162.092 -0.559649 -0.357336 0
M  V30 1783 H 164.622 -1.97815 -0.522522 0
M  V30 1784 H 164.632 -3.03146 -2.73069 0
M  V30 1785 H 163.307 -3.73906 -1.82118 0
M  V30 1786 H 161.884 -2.29087 -2.94234 0
M  V30 1787 N 164.069 0.697108 -1.41344 0
M  V30 1788 C 165.316 1.45714 -1.40619 0
M  V30 1789 C 165.644 1.94494 -0.0147907 0
M  V30 1790 O 164.899 1.69794 0.973066 0
M  V30 1791 C 165.198 2.68553 -2.35826 0
M  V30 1792 C 164.864 2.38438 -3.82698 0
M  V30 1793 C 163.526 2.29936 -4.22709 0
M  V30 1794 C 165.878 2.13567 -4.75435 0
M  V30 1795 C 163.206 1.94656 -5.53467 0
M  V30 1796 C 165.558 1.79797 -6.06511 0
M  V30 1797 C 164.222 1.69789 -6.45545 0
M  V30 1798 H 163.492 0.533206 -0.51456 0
M  V30 1799 H 166.139 0.796901 -1.74131 0
M  V30 1800 H 164.444 3.39503 -1.95563 0
M  V30 1801 H 166.141 3.2669 -2.32539 0
M  V30 1802 H 162.731 2.4595 -3.51008 0
M  V30 1803 H 166.915 2.19082 -4.45328 0
M  V30 1804 H 162.171 1.8546 -5.82593 0
M  V30 1805 H 166.345 1.59572 -6.77872 0
M  V30 1806 H 163.972 1.4222 -7.46778 0
M  V30 1807 N 165.547 1.27147 0.931209 0
M  V30 1808 C 166.51 1.09615 2.01289 0
M  V30 1809 C 167.51 0.0412581 1.60747 0
M  V30 1810 O 168.7 0.285545 1.71844 0
M  V30 1811 C 165.832 0.669447 3.34262 0
M  V30 1812 H 167.025 2.05662 2.18273 0
M  V30 1813 H 164.578 1.09885 1.11153 0
M  V30 1814 H 165.313 -0.292572 3.22978 0
M  V30 1815 H 165.098 1.43127 3.65044 0
M  V30 1816 H 166.588 0.568921 4.13706 0
M  V30 1817 N 167.025 -1.13721 1.09112 0
M  V30 1818 C 168.441 -1.36914 0.820174 0
M  V30 1819 C 168.641 -1.93356 -0.567079 0
M  V30 1820 O 167.697 -2.15093 -1.32255 0
M  V30 1821 C 169.01 -2.3235 1.90877 0
M  V30 1822 C 170.558 -2.45973 1.93562 0
M  V30 1823 C 171.033 -3.44714 3.01556 0
M  V30 1824 N 172.524 -3.52263 3.00775 0
M  V30 1825 C 173.259 -4.28536 3.80978 0
M  V30 1826 N 172.755 -5.07991 4.71081 0
M  V30 1827 N 174.548 -4.23804 3.69251 0
M  V30 1828 H 166.699 -0.754348 1.98553 0
M  V30 1829 H 168.962 -0.3944 0.862063 0
M  V30 1830 H 168.668 -1.98027 2.90651 0
M  V30 1831 H 168.542 -3.32332 1.78424 0
M  V30 1832 H 170.929 -2.79584 0.944286 0
M  V30 1833 H 171.01 -1.45926 2.10093 0
M  V30 1834 H 170.654 -3.11835 4.00901 0
M  V30 1835 H 170.584 -4.44558 2.82269 0
M  V30 1836 H 173.075 -2.95567 2.35475 0
M  V30 1837 H 173.388 -5.63487 5.28869 0
M  V30 1838 H 171.733 -5.07235 4.75119 0
M  V30 1839 H 174.924 -3.60806 2.98222 0
M  V30 1840 H 175.097 -4.82995 4.31995 0
M  V30 1841 N 168.503 -0.877838 -1.30888 0
M  V30 1842 C 169.75 -0.492696 -1.96415 0
M  V30 1843 C 170.078 0.956671 -1.69346 0
M  V30 1844 O 169.333 1.68993 -0.986913 0
M  V30 1845 C 169.632 -0.705748 -3.50363 0
M  V30 1846 C 169.298 -2.1291 -3.97467 0
M  V30 1847 C 167.96 -2.51834 -4.1004 0
M  V30 1848 C 170.312 -3.05702 -4.22132 0
M  V30 1849 C 167.64 -3.82775 -4.44635 0
M  V30 1850 C 169.992 -4.36166 -4.58194 0
M  V30 1851 C 168.656 -4.74993 -4.68975 0
M  V30 1852 H 167.926 -0.18029 -0.718733 0
M  V30 1853 H 170.573 -1.11233 -1.55883 0
M  V30 1854 H 168.878 -0.00303058 -3.918 0
M  V30 1855 H 170.575 -0.387456 -3.99124 0
M  V30 1856 H 167.165 -1.81694 -3.88182 0
M  V30 1857 H 171.349 -2.76853 -4.11906 0
M  V30 1858 H 166.605 -4.12609 -4.51181 0
M  V30 1859 H 170.779 -5.08111 -4.76231 0
M  V30 1860 H 168.406 -5.76495 -4.95537 0
M  V30 1861 N 169.982 1.44106 -0.638065 0
M  V30 1862 C 170.892 2.34513 0.0637334 0
M  V30 1863 C 171.908 1.53018 0.828346 0
M  V30 1864 O 173.084 1.85723 0.779036 0
M  V30 1865 C 170.149 3.31095 1.02844 0
M  V30 1866 C 169.21 4.28497 0.26244 0
M  V30 1867 C 168.443 5.20465 1.1812 0
M  V30 1868 O 168.666 5.16514 2.42011 0
M  V30 1869 O 167.6 5.98251 0.661774 0
M  V30 1870 H 171.426 2.95989 -0.68003 0
M  V30 1871 H 169.011 1.43994 -0.398252 0
M  V30 1872 H 170.893 3.90526 1.58327 0
M  V30 1873 H 169.568 2.72144 1.7527 0
M  V30 1874 H 168.475 3.72592 -0.335602 0
M  V30 1875 H 169.808 4.90388 -0.421936 0
M  V30 1876 N 171.46 0.379036 1.52974 0
M  V30 1877 C 172.408 -0.476033 2.27677 0
M  V30 1878 C 173.402 -1.0719 1.31174 0
M  V30 1879 O 174.608 -1.01355 1.48752 0
M  V30 1880 H 170.983 -0.172255 0.732006 0
M  V30 1881 H 172.954 0.175615 2.97883 0
M  V30 1882 C 171.703 -1.5967 3.0887 0
M  V30 1883 H 171.026 -1.1475 3.82978 0
M  V30 1884 H 172.466 -2.16943 3.64296 0
M  V30 1885 C 170.925 -2.54682 2.20542 0
M  V30 1886 O 171.455 -3.57836 1.82527 0
M  V30 1887 N 169.661 -2.24183 1.84907 0
M  V30 1888 H 169.208 -1.40333 2.1602 0
M  V30 1889 H 169.166 -2.88006 1.26096 0
M  V30 1890 N 172.938 -1.57226 0.108567 0
M  V30 1891 C 174.354 -1.5766 -0.248058 0
M  V30 1892 C 174.554 -1.12063 -1.67464 0
M  V30 1893 O 173.61 -0.803236 -2.39383 0
M  V30 1894 C 174.923 -3.0069 -0.0242287 0
M  V30 1895 C 176.471 -3.12868 -0.0909372 0
M  V30 1896 C 176.946 -4.57879 0.105067 0
M  V30 1897 N 178.437 -4.63172 0.0506846 0
M  V30 1898 C 179.172 -5.73126 0.177396 0
M  V30 1899 N 178.668 -6.91866 0.359696 0
M  V30 1900 N 180.461 -5.61977 0.117709 0
M  V30 1901 H 172.612 -1.85169 1.04049 0
M  V30 1902 H 174.875 -0.85529 0.40888 0
M  V30 1903 H 174.581 -3.38299 0.961604 0
M  V30 1904 H 174.455 -3.6945 -0.76068 0
M  V30 1905 H 176.842 -2.75124 -1.06729 0
M  V30 1906 H 176.923 -2.46672 0.677225 0
M  V30 1907 H 176.567 -4.96321 1.07834 0
M  V30 1908 H 176.497 -5.22153 -0.682954 0
M  V30 1909 H 178.988 -3.778 -0.0871266 0
M  V30 1910 H 179.301 -7.71503 0.447529 0
M  V30 1911 H 177.646 -6.93874 0.395536 0
M  V30 1912 H 180.837 -4.68094 -0.0236741 0
M  V30 1913 H 181.01 -6.47627 0.219905 0
M  V30 1914 N 174.416 0.165178 -1.56732 0
M  V30 1915 C 175.326 1.22423 -2.00125 0
M  V30 1916 C 176.342 1.48084 -0.913619 0
M  V30 1917 O 177.518 1.60112 -1.22172 0
M  V30 1918 C 174.583 2.54197 -2.35764 0
M  V30 1919 C 173.644 2.36343 -3.58386 0
M  V30 1920 C 172.877 3.61834 -3.92316 0
M  V30 1921 O 173.1 4.67267 -3.27135 0
M  V30 1922 O 172.034 3.55579 -4.85641 0
M  V30 1923 H 175.86 0.885886 -2.90492 0
M  V30 1924 H 173.445 0.372518 -1.44681 0
M  V30 1925 H 175.327 3.3192 -2.59629 0
M  V30 1926 H 174.002 2.87598 -1.48557 0
M  V30 1927 H 172.909 1.56632 -3.39731 0
M  V30 1928 H 174.242 2.07865 -4.46154 0
M  V30 1929 N 175.894 1.51508 0.433938 0
M  V30 1930 C 177.124 1.67914 1.20369 0
M  V30 1931 C 177.532 0.377461 1.85397 0
M  V30 1932 O 176.875 -0.654255 1.71654 0
M  V30 1933 C 176.937 2.74045 2.32679 0
M  V30 1934 C 176.601 4.16543 1.87991 0
M  V30 1935 C 177.598 5.01211 1.38145 0
M  V30 1936 C 175.283 4.6266 1.95579 0
M  V30 1937 C 177.277 6.30056 0.964774 0
M  V30 1938 C 174.964 5.91501 1.53523 0
M  V30 1939 C 175.962 6.75027 1.04055 0
M  V30 1940 O 175.65 8.01459 0.625964 0
M  V30 1941 H 175.382 0.566578 0.368735 0
M  V30 1942 H 177.936 1.98709 0.51999 0
M  V30 1943 H 176.166 2.38572 3.04336 0
M  V30 1944 H 177.855 2.79295 2.94532 0
M  V30 1945 H 178.621 4.66783 1.31675 0
M  V30 1946 H 174.5 3.97767 2.33029 0
M  V30 1947 H 178.044 6.95202 0.57796 0
M  V30 1948 H 173.941 6.25442 1.59665 0
M  V30 1949 H 174.709 8.15043 0.751509 0
M  V30 1950 N 177.372 -0.689602 1.41712 0
M  V30 1951 C 178.649 -1.44457 1.31877 0
M  V30 1952 C 179.029 -2.11039 -0.0508537 0
M  V30 1953 O 178.377 -2.02138 -1.06547 0
M  V30 1954 C 178.587 -2.45913 2.47645 0
M  V30 1955 C 179.935 -3.10991 2.89084 0
M  V30 1956 O 180.959 -2.56238 2.47428 0
M  V30 1957 O 179.818 -4.10174 3.61137 0
M  V30 1958 H 176.912 -0.64362 0.519309 0
M  V30 1959 H 179.458 -0.719576 1.53689 0
M  V30 1960 H 178.23 -1.95409 3.39015 0
M  V30 1961 H 177.853 -3.25913 2.27742 0
M  V30 1962 N 178.85 -1.27639 -0.924453 0
M  V30 1963 C 180.08 -1.16819 -1.70402 0
M  V30 1964 C 180.488 0.277191 -1.87158 0
M  V30 1965 O 179.831 1.20025 -1.39067 0
M  V30 1966 C 179.893 -1.78305 -3.12166 0
M  V30 1967 C 179.557 -3.27502 -3.18734 0
M  V30 1968 C 180.554 -4.2409 -3.00738 0
M  V30 1969 C 178.239 -3.68269 -3.4159 0
M  V30 1970 C 180.233 -5.59422 -3.05492 0
M  V30 1971 C 177.92 -5.0373 -3.45977 0
M  V30 1972 C 178.918 -5.99116 -3.27946 0
M  V30 1973 O 178.606 -7.32108 -3.32074 0
M  V30 1974 H 178.338 -0.406931 -0.539799 0
M  V30 1975 H 180.892 -1.69078 -1.16626 0
M  V30 1976 H 179.122 -1.20528 -3.67437 0
M  V30 1977 H 180.811 -1.62154 -3.72103 0
M  V30 1978 H 181.577 -3.93931 -2.82919 0
M  V30 1979 H 177.456 -2.94496 -3.54673 0
M  V30 1980 H 181 -6.33852 -2.91337 0
M  V30 1981 H 176.897 -5.33543 -3.63321 0
M  V30 1982 H 177.665 -7.40598 -3.48507 0
M  V30 1983 N 180.328 1.1314 -1.09713 0
M  V30 1984 C 181.276 2.20717 -0.733934 0
M  V30 1985 C 182.27 1.6729 0.266506 0
M  V30 1986 O 183.476 1.79547 0.127656 0
M  V30 1987 H 179.851 0.719292 -0.21937 0
M  V30 1988 H 181.822 2.48611 -1.6503 0
M  V30 1989 C 180.571 3.47265 -0.173849 0
M  V30 1990 H 179.894 3.88716 -0.934873 0
M  V30 1991 H 181.334 4.23979 0.0423126 0
M  V30 1992 C 179.793 3.18724 1.09164 0
M  V30 1993 O 180.323 3.37762 2.17439 0
M  V30 1994 N 178.529 2.72583 1.00732 0
M  V30 1995 H 178.076 2.57291 0.126121 0
M  V30 1996 H 178.034 2.53862 1.85476 0
M  V30 1997 N 181.806 0.884767 1.30421 0
M  V30 1998 C 182.716 0.355398 2.31892 0
M  V30 1999 C 183.732 -0.542261 1.65335 0
M  V30 2000 O 184.908 -0.435432 1.96637 0
M  V30 2001 C 181.973 -0.421661 3.44126 0
M  V30 2002 C 181.034 0.505727 4.26311 0
M  V30 2003 C 180.267 -0.234343 5.33185 0
M  V30 2004 O 180.49 -1.46045 5.51386 0
M  V30 2005 O 179.424 0.415443 6.00465 0
M  V30 2006 H 183.25 1.19685 2.79122 0
M  V30 2007 H 180.835 0.648596 1.34587 0
M  V30 2008 H 182.717 -0.861641 4.12497 0
M  V30 2009 H 181.392 -1.23942 2.99032 0
M  V30 2010 H 180.299 0.994513 3.60639 0
M  V30 2011 H 181.632 1.28948 4.75009 0
M  V30 2012 N 183.284 -1.43765 0.645699 0
M  V30 2013 C 184.53 -2.02197 0.156271 0
M  V30 2014 C 184.863 -1.50776 -1.22393 0
M  V30 2015 O 184.138 -0.697771 -1.81553 0
M  V30 2016 C 184.421 -3.59749 0.158872 0
M  V30 2017 C 184.274 -4.21419 1.57245 0
M  V30 2018 C 185.593 -4.37149 -0.50879 0
M  V30 2019 H 182.712 -0.734694 0.0582602 0
M  V30 2020 H 185.354 -1.71157 0.824951 0
M  V30 2021 H 183.504 -3.86325 -0.410525 0
M  V30 2022 H 185.176 -4.059 2.19186 0
M  V30 2023 H 183.419 -3.78356 2.122 0
M  V30 2024 H 184.09 -5.30482 1.52619 0
M  V30 2025 H 186.566 -4.16093 -0.024412 0
M  V30 2026 H 185.442 -5.4683 -0.476213 0
M  V30 2027 H 185.703 -4.12839 -1.58165 0
M  V30 2028 N 184.763 -0.387143 -1.52771 0
M  V30 2029 C 186.012 0.19697 -2.00736 0
M  V30 2030 C 186.325 1.48082 -1.27793 0
M  V30 2031 O 187.531 2.14485 -1.66458 0
M  V30 2032 C 185.987 0.401568 -3.57653 0
M  V30 2033 C 185.595 -0.868907 -4.39493 0
M  V30 2034 C 187.339 0.942164 -4.13912 0
M  V30 2035 C 185.246 -0.632705 -5.88006 0
M  V30 2036 H 184.176 0.0773827 -0.750019 0
M  V30 2037 H 186.827 -0.50921 -1.76293 0
M  V30 2038 H 185.209 1.16954 -3.78335 0
M  V30 2039 H 186.383 -1.64133 -4.30577 0
M  V30 2040 H 184.698 -1.33429 -3.94443 0
M  V30 2041 H 187.295 1.13455 -5.22525 0
M  V30 2042 H 187.638 1.9106 -3.69867 0
M  V30 2043 H 188.171 0.233814 -3.97112 0
M  V30 2044 H 184.91 -1.57208 -6.36369 0
M  V30 2045 H 184.43 0.100825 -5.99715 0
M  V30 2046 H 186.109 -0.26642 -6.46451 0
M  V30 2047 N 186.241 1.57166 -0.116904 0
M  V30 2048 C 187.49 1.94298 0.541407 0
M  V30 2049 C 187.803 1.00236 1.67964 0
M  V30 2050 O 189.009 1.26826 2.40057 0
M  V30 2051 C 187.465 3.45306 1.01449 0
M  V30 2052 C 187.073 4.47899 -0.0951738 0
M  V30 2053 C 188.817 3.91361 1.6443 0
M  V30 2054 C 186.724 5.90083 0.394491 0
M  V30 2055 H 185.654 0.725308 0.206019 0
M  V30 2056 H 188.305 1.82446 -0.196419 0
M  V30 2057 H 186.687 3.52385 1.80667 0
M  V30 2058 H 187.861 4.52486 -0.871374 0
M  V30 2059 H 186.176 4.11583 -0.631505 0
M  V30 2060 H 188.773 4.95004 2.02176 0
M  V30 2061 H 189.116 3.3122 2.52189 0
M  V30 2062 H 189.649 3.87073 0.917559 0
M  V30 2063 H 186.388 6.53974 -0.447004 0
M  V30 2064 H 185.908 5.88921 1.13722 0
M  V30 2065 H 187.587 6.41307 0.856399 0
M  V30 2066 N 187.719 -0.156864 1.56817 0
M  V30 2067 C 188.667 -1.21319 1.98455 0
M  V30 2068 C 189.661 -1.45025 0.875444 0
M  V30 2069 O 190.867 -1.45435 1.0606 0
M  V30 2070 H 187.242 -0.408142 0.631605 0
M  V30 2071 H 189.213 -0.835244 2.86472 0
M  V30 2072 C 187.962 -2.54148 2.37285 0
M  V30 2073 H 187.285 -2.36733 3.22176 0
M  V30 2074 H 188.725 -3.26712 2.70251 0
M  V30 2075 C 187.184 -3.13967 1.22173 0
M  V30 2076 O 187.714 -3.98357 0.517149 0
M  V30 2077 N 185.92 -2.7327 0.988536 0
M  V30 2078 H 185.467 -2.04744 1.56326 0
M  V30 2079 H 185.425 -3.13628 0.220209 0
M  V30 2080 N 189.197 -1.51736 -0.425897 0
M  V30 2081 C 190.129 -1.70083 -1.53638 0
M  V30 2082 C 191.142 -0.581349 -1.52066 0
M  V30 2083 O 192.331 -0.856017 -1.56635 0
M  V30 2084 C 189.431 -1.71078 -2.9255 0
M  V30 2085 C 188.604 -2.99795 -3.185 0
M  V30 2086 C 187.663 -2.92825 -4.37196 0
M  V30 2087 O 186.689 -3.66756 -4.35291 0
M  V30 2088 N 187.891 -2.0946 -5.41393 0
M  V30 2089 H 190.656 -2.65882 -1.383 0
M  V30 2090 H 188.217 -1.49765 -0.614988 0
M  V30 2091 H 190.209 -1.63969 -3.69995 0
M  V30 2092 H 188.779 -0.828242 -3.01428 0
M  V30 2093 H 187.999 -3.20684 -2.2925 0
M  V30 2094 H 189.287 -3.84977 -3.32671 0
M  V30 2095 H 188.685 -1.48792 -5.45781 0
M  V30 2096 H 187.242 -2.08221 -6.17647 0
M  V30 2097 N 190.675 0.682077 -1.42076 0
M  V30 2098 C 191.922 1.44215 -1.42156 0
M  V30 2099 C 192.25 1.94468 -0.0354186 0
M  V30 2100 O 191.505 1.70816 0.955002 0
M  V30 2101 C 191.804 2.66036 -2.38662 0
M  V30 2102 C 191.47 2.34366 -3.85206 0
M  V30 2103 C 190.132 2.25439 -4.25124 0
M  V30 2104 C 192.484 2.08513 -4.77673 0
M  V30 2105 C 189.812 1.88775 -5.55501 0
M  V30 2106 C 192.164 1.73354 -6.08384 0
M  V30 2107 C 190.828 1.62933 -6.47309 0
M  V30 2108 H 190.098 0.527718 -0.520187 0
M  V30 2109 H 192.745 0.778387 -1.74967 0
M  V30 2110 H 191.05 3.3741 -1.99152 0
M  V30 2111 H 192.747 3.24205 -2.35991 0
M  V30 2112 H 189.337 2.42213 -3.53597 0
M  V30 2113 H 193.521 2.14346 -4.47626 0
M  V30 2114 H 188.777 1.7927 -5.84527 0
M  V30 2115 H 192.951 1.52373 -6.79526 0
M  V30 2116 H 190.578 1.34292 -7.48244 0
M  V30 2117 N 192.153 1.28127 0.917671 0
M  V30 2118 C 193.402 1.14432 1.66097 0
M  V30 2119 C 193.715 -0.307247 1.93172 0
M  V30 2120 O 194.921 -0.565259 2.65551 0
M  V30 2121 C 193.377 2.00015 2.99202 0
M  V30 2122 C 192.985 3.49889 2.79789 0
M  V30 2123 C 194.729 1.94996 3.77064 0
M  V30 2124 C 192.636 4.27636 4.08511 0
M  V30 2125 H 191.566 0.424662 0.62304 0
M  V30 2126 H 194.217 1.52628 1.01868 0
M  V30 2127 H 192.599 1.54672 3.64544 0
M  V30 2128 H 193.773 4.03162 2.23152 0
M  V30 2129 H 192.088 3.56392 2.15345 0
M  V30 2130 H 194.685 2.50354 4.72469 0
M  V30 2131 H 195.028 0.925819 4.05875 0
M  V30 2132 H 195.561 2.38287 3.18534 0
M  V30 2133 H 192.3 5.30615 3.84874 0
M  V30 2134 H 191.82 3.79137 4.64774 0
M  V30 2135 H 193.499 4.37346 4.76799 0
M  V30 2136 N 193.631 -1.12557 1.10312 0
M  V30 2137 C 194.563 -2.17971 0.708625 0
M  V30 2138 C 195.576 -1.60806 -0.254027 0
M  V30 2139 O 196.765 -1.78458 -0.0386891 0
M  V30 2140 C 193.865 -3.38891 0.0248198 0
M  V30 2141 C 193.038 -4.25548 1.01132 0
M  V30 2142 C 192.097 -5.24972 0.35924 0
M  V30 2143 O 191.123 -5.60174 1.00965 0
M  V30 2144 N 192.325 -5.73747 -0.882847 0
M  V30 2145 H 195.09 -2.52427 1.61557 0
M  V30 2146 H 192.651 -1.27967 0.991771 0
M  V30 2147 H 194.643 -4.02485 -0.422852 0
M  V30 2148 H 193.213 -3.02596 -0.784514 0
M  V30 2149 H 192.433 -3.58589 1.6373 0
M  V30 2150 H 193.721 -4.80294 1.67914 0
M  V30 2151 H 193.119 -5.4731 -1.43065 0
M  V30 2152 H 191.676 -6.39234 -1.27369 0
M  V30 2153 N 195.109 -0.891671 -1.2995 0
M  V30 2154 C 196.059 -0.334811 -2.25528 0
M  V30 2155 C 197.043 0.540553 -1.51548 0
M  V30 2156 O 198.235 0.383882 -1.72787 0
M  V30 2157 C 195.364 0.44374 -3.4042 0
M  V30 2158 C 194.45 -0.44609 -4.21747 0
M  V30 2159 N 194.841 -1.54963 -4.81477 0
M  V30 2160 C 193.139 -0.242415 -4.45341 0
M  V30 2161 C 193.84 -2.10015 -5.42465 0
M  V30 2162 N 192.816 -1.39423 -5.25416 0
M  V30 2163 H 196.618 -1.17792 -2.69262 0
M  V30 2164 H 194.132 -0.741822 -1.44467 0
M  V30 2165 H 196.129 0.859362 -4.07947 0
M  V30 2166 H 194.789 1.28421 -2.98225 0
M  V30 2167 H 195.8 -1.93244 -4.80497 0
M  V30 2168 H 192.477 0.560342 -4.13723 0
M  V30 2169 H 193.867 -3.02724 -5.9984 0
M  V30 2170 N 196.587 1.43421 -0.653314 0
M  V30 2171 C 197.812 2.06678 -0.172846 0
M  V30 2172 C 198.237 1.48648 1.15262 0
M  V30 2173 O 197.595 0.596457 1.71208 0
M  V30 2174 C 197.643 3.60474 -0.0953184 0
M  V30 2175 O 196.747 4.01487 0.942442 0
M  V30 2176 H 196.088 0.657181 -0.0949155 0
M  V30 2177 H 198.618 1.83925 -0.896265 0
M  V30 2178 H 198.628 4.07905 0.0879728 0
M  V30 2179 H 197.303 4.02088 -1.06291 0
M  V30 2180 H 195.88 3.65646 0.731932 0
M  V30 2181 N 198.065 0.39524 1.52563 0
M  V30 2182 C 199.313 -0.184678 2.01254 0
M  V30 2183 C 199.634 -1.46822 1.28329 0
M  V30 2184 O 198.904 -1.91666 0.405094 0
M  V30 2185 H 197.484 -0.0712355 0.743596 0
M  V30 2186 H 200.146 0.528293 1.87603 0
M  V30 2187 H 199.242 -0.390681 3.09645 0
M  V30 2188 N 199.544 -1.57102 0.125237 0
M  V30 2189 C 200.96 -1.57915 -0.231322 0
M  V30 2190 C 201.16 -1.13833 -1.66266 0
M  V30 2191 O 200.216 -0.828581 -2.38518 0
M  V30 2192 C 201.529 -3.00699 0.00766489 0
M  V30 2193 C 203.077 -3.12947 -0.0577483 0
M  V30 2194 C 203.552 -4.57742 0.153626 0
M  V30 2195 N 205.043 -4.63092 0.0998073 0
M  V30 2196 C 205.778 -5.72905 0.238174 0
M  V30 2197 N 205.274 -6.91445 0.433057 0
M  V30 2198 N 207.067 -5.6182 0.177308 0
M  V30 2199 H 199.218 -1.84055 1.06007 0
M  V30 2200 H 201.481 -0.850905 0.417929 0
M  V30 2201 H 201.187 -3.3726 0.997431 0
M  V30 2202 H 201.061 -3.70236 -0.721452 0
M  V30 2203 H 203.448 -2.7624 -1.03804 0
M  V30 2204 H 203.529 -2.4594 0.70335 0
M  V30 2205 H 203.173 -4.95149 1.13092 0
M  V30 2206 H 203.103 -5.22848 -0.627534 0
M  V30 2207 H 205.594 -3.77871 -0.047051 0
M  V30 2208 H 205.907 -7.70985 0.529332 0
M  V30 2209 H 204.252 -6.93415 0.469109 0
M  V30 2210 H 207.443 -4.68093 0.0259748 0
M  V30 2211 H 207.616 -6.47357 0.288582 0
M  V30 2212 N 201.022 0.148545 -1.56898 0
M  V30 2213 C 202.433 0.708766 -1.72723 0
M  V30 2214 C 202.784 1.81734 -0.739395 0
M  V30 2215 O 201.909 2.16194 0.0943169 0
M  V30 2216 C 202.504 1.29245 -3.13179 0
M  V30 2217 C 201.063 1.79925 -3.30611 0
M  V30 2218 C 200.21 0.687111 -2.68652 0
M  V30 2219 H 203.161 -0.0771063 -1.58513 0
M  V30 2220 H 203.182 2.16224 -3.13093 0
M  V30 2221 H 202.694 0.485382 -3.85053 0
M  V30 2222 H 200.795 2.63203 -2.63732 0
M  V30 2223 H 200.908 1.92903 -4.38549 0
M  V30 2224 H 199.272 1.11335 -2.29078 0
M  V30 2225 H 200.055 -0.108483 -3.43129 0
M  V30 2226 N 202.5 1.5196 0.417844 0
M  V30 2227 C 203.746 1.65836 1.16732 0
M  V30 2228 C 204.079 0.382881 1.90388 0
M  V30 2229 O 203.354 -0.618368 1.84408 0
M  V30 2230 C 203.637 2.87466 2.16876 0
M  V30 2231 C 203.49 4.25041 1.47174 0
M  V30 2232 C 204.809 3.04613 3.17646 0
M  V30 2233 H 201.928 0.603515 0.423011 0
M  V30 2234 H 204.57 1.84494 0.454105 0
M  V30 2235 H 202.72 2.71689 2.777 0
M  V30 2236 H 204.392 4.52527 0.895376 0
M  V30 2237 H 202.635 4.26843 0.773806 0
M  V30 2238 H 203.306 5.06176 2.20204 0
M  V30 2239 H 205.782 3.1923 2.66892 0
M  V30 2240 H 204.658 3.91247 3.8499 0
M  V30 2241 H 204.919 2.17541 3.84874 0
M  V30 2242 N 203.978 -0.674533 1.42435 0
M  V30 2243 C 205.225 -1.43459 1.42919 0
M  V30 2244 C 205.553 -1.94446 0.0457312 0
M  V30 2245 O 204.808 -1.7132 -0.94593 0
M  V30 2246 C 205.107 -2.64767 2.40069 0
M  V30 2247 C 204.773 -2.3232 3.86443 0
M  V30 2248 C 203.435 -2.23182 4.26314 0
M  V30 2249 C 205.787 -2.05977 4.78773 0
M  V30 2250 C 203.115 -1.85827 5.56494 0
M  V30 2251 C 205.467 -1.70125 6.09295 0
M  V30 2252 C 204.131 -1.59498 6.48164 0
M  V30 2253 H 203.401 -0.524952 0.522978 0
M  V30 2254 H 206.048 -0.769097 1.75377 0
M  V30 2255 H 204.353 -3.36349 2.00939 0
M  V30 2256 H 206.05 -3.22949 2.37707 0
M  V30 2257 H 202.64 -2.40334 3.54877 0
M  V30 2258 H 206.824 -2.11969 4.48757 0
M  V30 2259 H 202.08 -1.76168 5.8547 0
M  V30 2260 H 206.254 -1.48767 6.80324 0
M  V30 2261 H 203.881 -1.30322 7.48946 0
M  V30 2262 N 205.456 -1.28612 -0.910864 0
M  V30 2263 C 206.681 -1.1891 -1.69927 0
M  V30 2264 C 207.106 0.248372 -1.86453 0
M  V30 2265 O 206.464 1.17961 -1.37676 0
M  V30 2266 C 206.512 -1.89578 -3.06745 0
M  V30 2267 O 205.616 -1.20521 -3.94396 0
M  V30 2268 H 204.957 -0.412632 -0.520222 0
M  V30 2269 H 207.487 -1.69985 -1.1387 0
M  V30 2270 H 207.497 -1.97597 -3.56958 0
M  V30 2271 H 206.172 -2.94136 -2.94035 0
M  V30 2272 H 204.749 -1.20684 -3.52831 0
M  V30 2273 N 206.934 1.1197 -1.10907 0
M  V30 2274 C 207.867 2.16998 -0.706192 0
M  V30 2275 C 208.845 1.59903 0.294897 0
M  V30 2276 O 210.029 1.87513 0.192636 0
M  V30 2277 C 207.156 3.38673 -0.0427664 0
M  V30 2278 C 206.202 4.14414 -1.00811 0
M  V30 2279 S 207.035 4.72079 -2.52789 0
M  V30 2280 C 208.191 5.97083 -1.87731 0
M  V30 2281 H 208.424 2.50837 -1.59587 0
M  V30 2282 H 205.957 1.23508 -0.926555 0
M  V30 2283 H 207.915 4.09142 0.333668 0
M  V30 2284 H 206.576 3.03105 0.823788 0
M  V30 2285 H 205.769 5.016 -0.491259 0
M  V30 2286 H 205.371 3.49678 -1.3267 0
M  V30 2287 H 207.663 6.66599 -1.21044 0
M  V30 2288 H 208.606 6.53403 -2.72892 0
M  V30 2289 H 209.014 5.4837 -1.33979 0
M  V30 2290 N 208.412 0.89855 1.29475 0
M  V30 2291 C 209.322 0.379974 2.31502 0
M  V30 2292 C 210.338 -0.524695 1.659 0
M  V30 2293 O 211.514 -0.414551 1.97087 0
M  V30 2294 C 208.579 -0.385138 3.44554 0
M  V30 2295 C 207.64 0.550914 4.2575 0
M  V30 2296 C 206.873 -0.177778 5.33404 0
M  V30 2297 O 207.096 -1.40189 5.52904 0
M  V30 2298 O 206.03 0.479106 5.9999 0
M  V30 2299 H 209.856 1.22639 2.77837 0
M  V30 2300 H 207.441 0.662834 1.33891 0
M  V30 2301 H 209.323 -0.817841 4.13388 0
M  V30 2302 H 207.998 -1.20763 3.0033 0
M  V30 2303 H 206.905 1.03271 3.59564 0
M  V30 2304 H 208.238 1.33979 4.73614 0
M  V30 2305 N 209.89 -1.43072 0.660911 0
M  V30 2306 C 210.853 -2.29194 -0.0166406 0
M  V30 2307 C 211.853 -1.42609 -0.742912 0
M  V30 2308 O 213.043 -1.64155 -0.583004 0
M  V30 2309 C 210.175 -3.24831 -1.0343 0
M  V30 2310 H 211.368 -2.90596 0.741208 0
M  V30 2311 H 208.921 -1.5048 0.422532 0
M  V30 2312 H 209.656 -2.68339 -1.82111 0
M  V30 2313 H 209.441 -3.88676 -0.517082 0
M  V30 2314 H 210.931 -3.89451 -1.50723 0
M  V30 2315 N 211.368 -0.403325 -1.52352 0
M  V30 2316 C 212.331 0.413051 -2.25447 0
M  V30 2317 C 213.331 0.978513 -1.276 0
M  V30 2318 O 214.521 0.858305 -1.51587 0
M  V30 2319 C 211.653 1.58087 -3.02029 0
M  V30 2320 H 212.846 -0.227094 -2.99039 0
M  V30 2321 H 210.399 -0.155722 -1.55522 0
M  V30 2322 H 211.134 2.25804 -2.32772 0
M  V30 2323 H 210.919 1.18195 -3.73861 0
M  V30 2324 H 212.409 2.1585 -3.57489 0
M  V30 2325 N 212.846 1.57033 -0.133567 0
M  V30 2326 C 214.074 2.00044 0.528195 0
M  V30 2327 C 214.489 1.01349 1.59291 0
M  V30 2328 O 213.846 0.00848369 1.82498 0
M  V30 2329 C 213.897 3.43018 1.1411 0
M  V30 2330 O 213.618 4.37939 0.11892 0
M  V30 2331 C 215.119 4.01237 1.88477 0
M  V30 2332 H 212.339 0.656517 0.138661 0
M  V30 2333 H 214.883 2.03267 -0.224196 0
M  V30 2334 H 213.038 3.40688 1.84418 0
M  V30 2335 H 213.452 5.21436 0.56613 0
M  V30 2336 H 214.926 5.03314 2.26669 0
M  V30 2337 H 215.403 3.41193 2.76558 0
M  V30 2338 H 216.009 4.07156 1.22898 0
M  V30 2339 N 214.325 -0.140222 1.56975 0
M  V30 2340 C 215.741 -0.493088 1.51792 0
M  V30 2341 C 215.941 -1.83013 0.843116 0
M  V30 2342 O 214.997 -2.49041 0.416493 0
M  V30 2343 C 216.31 -0.497144 2.96562 0
M  V30 2344 C 217.858 -0.582186 3.07538 0
M  V30 2345 C 218.333 -0.616838 4.53827 0
M  V30 2346 N 219.824 -0.678873 4.58198 0
M  V30 2347 C 220.559 -0.726782 5.68775 0
M  V30 2348 N 220.055 -0.733623 6.88905 0
M  V30 2349 N 221.848 -0.768179 5.56826 0
M  V30 2350 H 213.999 0.736108 1.99237 0
M  V30 2351 H 216.262 0.269182 0.90898 0
M  V30 2352 H 215.968 0.417217 3.49217 0
M  V30 2353 H 215.842 -1.33263 3.52875 0
M  V30 2354 H 218.229 -1.48697 2.54899 0
M  V30 2355 H 218.31 0.280581 2.54257 0
M  V30 2356 H 217.954 0.283812 5.07106 0
M  V30 2357 H 217.884 -1.49619 5.04898 0
M  V30 2358 H 220.375 -0.68061 3.7172 0
M  V30 2359 H 220.688 -0.772215 7.68932 0
M  V30 2360 H 219.033 -0.701389 6.91452 0
M  V30 2361 H 222.224 -0.760051 4.61888 0
M  V30 2362 H 222.397 -0.80205 6.43017 0
M  V30 2363 N 215.803 -1.52179 -0.40978 0
M  V30 2364 C 216.753 -1.71857 -1.49831 0
M  V30 2365 C 217.737 -0.572469 -1.50372 0
M  V30 2366 O 218.929 -0.829509 -1.56359 0
M  V30 2367 C 216.058 -1.87206 -2.87765 0
M  V30 2368 C 215.144 -3.07685 -2.91875 0
M  V30 2369 N 215.535 -4.30403 -2.65683 0
M  V30 2370 C 213.833 -3.07505 -3.23043 0
M  V30 2371 C 214.534 -5.11868 -2.76344 0
M  V30 2372 N 213.51 -4.47101 -3.09195 0
M  V30 2373 H 217.312 -2.64381 -1.28375 0
M  V30 2374 H 214.826 -1.50203 -0.617479 0
M  V30 2375 H 216.823 -1.99419 -3.66111 0
M  V30 2376 H 215.483 -0.958814 -3.10221 0
M  V30 2377 H 216.494 -4.58887 -2.4009 0
M  V30 2378 H 213.171 -2.25915 -3.51096 0
M  V30 2379 H 214.561 -6.19634 -2.59814 0
M  V30 2380 N 217.281 0.66697 -1.42791 0
M  V30 2381 C 218.692 1.2478 -1.38877 0
M  V30 2382 C 219.043 1.96012 -0.0859426 0
M  V30 2383 O 218.168 2.00463 0.815081 0
M  V30 2384 C 218.763 2.26938 -2.51564 0
M  V30 2385 C 217.322 2.80529 -2.50959 0
M  V30 2386 C 216.469 1.54965 -2.29959 0
M  V30 2387 H 219.42 0.459853 -1.51892 0
M  V30 2388 H 219.441 3.08834 -2.22265 0
M  V30 2389 H 218.953 1.75065 -3.46372 0
M  V30 2390 H 217.054 3.36502 -1.59991 0
M  V30 2391 H 217.167 3.29012 -3.48265 0
M  V30 2392 H 215.531 1.81817 -1.78366 0
M  V30 2393 H 216.314 1.05047 -3.26833 0
M  V30 2394 N 218.759 1.29093 0.90403 0
M  V30 2395 C 219.689 1.16401 2.02418 0
M  V30 2396 C 220.67 0.0593085 1.69997 0
M  V30 2397 O 221.855 0.238021 1.92736 0
M  V30 2398 C 218.985 0.835233 3.37107 0
M  V30 2399 C 217.939 1.89578 3.83724 0
M  V30 2400 C 217.265 1.42041 5.15489 0
M  V30 2401 C 218.565 3.30394 4.04521 0
M  V30 2402 H 220.259 2.10109 2.13295 0
M  V30 2403 H 217.805 1.01157 1.02486 0
M  V30 2404 H 219.758 0.733169 4.14973 0
M  V30 2405 H 218.482 -0.137543 3.2631 0
M  V30 2406 H 217.141 1.98715 3.08071 0
M  V30 2407 H 216.789 0.436426 5.01103 0
M  V30 2408 H 216.489 2.12964 5.4765 0
M  V30 2409 H 218.013 1.33176 5.959 0
M  V30 2410 H 219.427 3.24123 4.72882 0
M  V30 2411 H 217.824 3.99237 4.48029 0
M  V30 2412 H 218.894 3.73692 3.09002 0
M  V30 2413 N 220.237 -1.11381 1.11499 0
M  V30 2414 C 221.169 -2.17207 0.731704 0
M  V30 2415 C 222.182 -1.61066 -0.236957 0
M  V30 2416 O 223.371 -1.78489 -0.0197591 0
M  V30 2417 C 220.471 -3.38846 0.0607624 0
M  V30 2418 C 219.644 -4.24451 1.0564 0
M  V30 2419 C 218.703 -5.24562 0.4149 0
M  V30 2420 O 217.729 -5.59071 1.069 0
M  V30 2421 N 218.931 -5.74651 -0.821943 0
M  V30 2422 H 221.696 -2.50699 1.64225 0
M  V30 2423 H 219.257 -1.26908 1.00529 0
M  V30 2424 H 221.249 -4.02911 -0.380139 0
M  V30 2425 H 219.819 -3.03411 -0.752376 0
M  V30 2426 H 219.039 -3.56833 1.67524 0
M  V30 2427 H 220.327 -4.78486 1.72998 0
M  V30 2428 H 219.725 -5.48797 -1.37252 0
M  V30 2429 H 218.282 -6.40549 -1.20582 0
M  V30 2430 N 221.715 -0.905404 -1.28997 0
M  V30 2431 C 222.94 -0.549175 -1.99997 0
M  V30 2432 C 223.365 0.860276 -1.67275 0
M  V30 2433 O 222.723 1.57355 -0.900502 0
M  V30 2434 C 222.771 -0.755185 -3.52604 0
M  V30 2435 O 221.875 0.189692 -4.11964 0
M  V30 2436 H 221.216 -0.213899 -0.628604 0
M  V30 2437 H 223.746 -1.21856 -1.64354 0
M  V30 2438 H 223.756 -0.662045 -4.02593 0
M  V30 2439 H 222.431 -1.78271 -3.75755 0
M  V30 2440 H 221.008 0.0485257 -3.72868 0
M  V30 2441 N 223.193 1.4272 -0.668489 0
M  V30 2442 C 224.44 2.01624 -0.18814 0
M  V30 2443 C 224.768 1.5282 1.20317 0
M  V30 2444 O 224.023 0.718323 1.8204 0
M  V30 2445 C 224.322 3.57021 -0.164499 0
M  V30 2446 C 223.988 4.25232 -1.49962 0
M  V30 2447 C 222.65 4.4358 -1.8652 0
M  V30 2448 C 225.002 4.63727 -2.37921 0
M  V30 2449 C 222.33 4.97694 -3.10674 0
M  V30 2450 C 224.682 5.19218 -3.6138 0
M  V30 2451 C 223.346 5.3578 -3.98115 0
M  V30 2452 H 222.616 0.737795 -0.0688454 0
M  V30 2453 H 225.263 1.70991 -0.862225 0
M  V30 2454 H 223.568 3.87285 0.593079 0
M  V30 2455 H 225.265 4.00372 0.224271 0
M  V30 2456 H 221.855 4.11306 -1.20522 0
M  V30 2457 H 226.039 4.4923 -2.10964 0
M  V30 2458 H 221.295 5.08702 -3.39164 0
M  V30 2459 H 225.469 5.4799 -4.29743 0
M  V30 2460 H 223.096 5.77475 -4.94395 0
M  V30 2461 N 224.671 0.411399 1.52136 0
M  V30 2462 C 225.634 -0.401089 2.25663 0
M  V30 2463 C 226.634 -0.971732 1.28117 0
M  V30 2464 O 227.824 -0.850254 1.52041 0
M  V30 2465 C 224.956 -1.56483 3.02863 0
M  V30 2466 H 226.149 0.24295 2.98914 0
M  V30 2467 H 223.702 0.163968 1.55438 0
M  V30 2468 H 224.437 -2.24567 2.33967 0
M  V30 2469 H 224.222 -1.16211 3.74483 0
M  V30 2470 H 225.712 -2.13951 3.58629 0
M  V30 2471 N 226.149 -1.5696 0.141893 0
M  V30 2472 C 227.426 -1.87553 -0.555281 0
M  V30 2473 C 227.806 -1.04699 -1.83306 0
M  V30 2474 O 227.154 -0.132346 -2.28116 0
M  V30 2475 C 227.364 -3.39093 -0.825664 0
M  V30 2476 C 228.712 -4.08199 -1.16869 0
M  V30 2477 O 229.736 -3.44242 -0.915185 0
M  V30 2478 O 228.595 -5.21139 -1.6455 0
M  V30 2479 H 225.689 -0.777188 -0.282679 0
M  V30 2480 H 228.235 -1.68763 0.17812 0
M  V30 2481 H 227.007 -3.91221 0.0788633 0
M  V30 2482 H 226.63 -3.63393 -1.61343 0
M  V30 2483 N 227.627 0.131896 -1.57047 0
M  V30 2484 C 228.557 1.16384 -2.02428 0
M  V30 2485 C 229.538 1.43936 -0.90644 0
M  V30 2486 O 230.723 1.54599 -1.17528 0
M  V30 2487 C 227.853 2.49328 -2.4177 0
M  V30 2488 C 226.807 2.36266 -3.56879 0
M  V30 2489 C 226.133 3.74057 -3.8208 0
M  V30 2490 C 227.433 1.834 -4.89042 0
M  V30 2491 H 229.127 0.786433 -2.88887 0
M  V30 2492 H 226.673 0.376855 -1.38981 0
M  V30 2493 H 228.626 3.21759 -2.7212 0
M  V30 2494 H 227.35 2.88934 -1.52266 0
M  V30 2495 H 226.009 1.66286 -3.26718 0
M  V30 2496 H 225.657 4.11125 -2.89803 0
M  V30 2497 H 225.357 3.66174 -4.59554 0
M  V30 2498 H 226.881 4.48012 -4.1487 0
M  V30 2499 H 228.295 2.45636 -5.18011 0
M  V30 2500 H 226.692 1.8637 -5.70426 0
M  V30 2501 H 227.762 0.790662 -4.7841 0
M  V30 2502 N 229.106 1.52395 0.401703 0
M  V30 2503 C 230.355 1.66044 1.14509 0
M  V30 2504 C 230.668 0.400216 1.91462 0
M  V30 2505 O 231.874 0.416632 2.68284 0
M  V30 2506 C 230.33 2.93388 2.0845 0
M  V30 2507 C 229.938 4.26545 1.36978 0
M  V30 2508 C 231.682 3.16402 2.83001 0
M  V30 2509 C 229.589 5.45007 2.29611 0
M  V30 2510 H 228.519 0.618562 0.431158 0
M  V30 2511 H 231.17 1.78886 0.40892 0
M  V30 2512 H 229.552 2.74263 2.8565 0
M  V30 2513 H 230.726 4.56179 0.650916 0
M  V30 2514 H 229.041 4.09692 0.74438 0
M  V30 2515 H 231.638 4.02085 3.52465 0
M  V30 2516 H 231.981 2.30943 3.46368 0
M  V30 2517 H 232.514 3.36034 2.12898 0
M  V30 2518 H 229.253 6.32835 1.70879 0
M  V30 2519 H 228.773 5.19702 2.9945 0
M  V30 2520 H 230.452 5.7838 2.89974 0
M  V30 2521 N 230.584 -0.659388 1.43143 0
M  V30 2522 C 231.812 -1.44723 1.47861 0
M  V30 2523 C 232.227 -1.88563 0.0945886 0
M  V30 2524 O 231.584 -1.59108 -0.893915 0
M  V30 2525 C 231.635 -2.68627 2.41913 0
M  V30 2526 O 231.356 -2.26623 3.74932 0
M  V30 2527 C 232.857 -3.62045 2.55809 0
M  V30 2528 H 230.077 -0.444801 0.502387 0
M  V30 2529 H 232.621 -0.808916 1.87821 0
M  V30 2530 H 230.776 -3.28613 2.05164 0
M  V30 2531 H 231.19 -3.06745 4.2545 0
M  V30 2532 H 232.664 -4.45666 3.25708 0
M  V30 2533 H 233.141 -4.08981 1.60099 0
M  V30 2534 H 233.747 -3.07944 2.93344 0
M  V30 2535 N 232.062 -1.29571 -0.897171 0
M  V30 2536 C 233.311 -1.1706 -1.64256 0
M  V30 2537 C 233.624 0.276476 -1.93636 0
M  V30 2538 O 234.83 0.52294 -2.66416 0
M  V30 2539 C 233.286 -2.0475 -2.95982 0
M  V30 2540 C 232.894 -3.54295 -2.74187 0
M  V30 2541 C 234.638 -2.0097 -3.73914 0
M  V30 2542 C 232.545 -4.34081 -4.01656 0
M  V30 2543 H 231.475 -0.43452 -0.616205 0
M  V30 2544 H 234.126 -1.54229 -0.994268 0
M  V30 2545 H 232.508 -1.60452 -3.62038 0
M  V30 2546 H 233.682 -4.06662 -2.1671 0
M  V30 2547 H 231.997 -3.59773 -2.09648 0
M  V30 2548 H 234.594 -2.57838 -4.68427 0
M  V30 2549 H 234.937 -0.990273 -4.0435 0
M  V30 2550 H 235.47 -2.43325 -3.14703 0
M  V30 2551 H 232.209 -5.36671 -3.76384 0
M  V30 2552 H 231.729 -3.86483 -4.58684 0
M  V30 2553 H 233.408 -4.44877 -4.69781 0
M  V30 2554 N 233.54 1.10788 -1.12088 0
M  V30 2555 C 234.45 2.20599 -0.798338 0
M  V30 2556 C 235.466 1.72712 0.21135 0
M  V30 2557 O 236.642 2.01348 0.0458477 0
M  V30 2558 C 233.707 3.45771 -0.253674 0
M  V30 2559 C 232.768 4.08411 -1.32283 0
M  V30 2560 C 232.001 5.27608 -0.80406 0
M  V30 2561 O 232.224 5.69241 0.363478 0
M  V30 2562 O 231.158 5.8101 -1.57198 0
M  V30 2563 H 234.984 2.50614 -1.7154 0
M  V30 2564 H 232.569 1.19454 -0.897275 0
M  V30 2565 H 234.451 4.21376 0.0453691 0
M  V30 2566 H 233.126 3.1739 0.636005 0
M  V30 2567 H 232.033 3.34507 -1.67499 0
M  V30 2568 H 233.366 4.40986 -2.18614 0
M  V30 2569 N 235.018 0.912232 1.28515 0
M  V30 2570 C 235.928 0.404506 2.31086 0
M  V30 2571 C 236.944 -0.50707 1.66448 0
M  V30 2572 O 238.12 -0.393624 1.97516 0
M  V30 2573 C 235.185 -0.348572 3.44943 0
M  V30 2574 C 234.246 0.59604 4.25142 0
M  V30 2575 C 233.479 -0.121194 5.33562 0
M  V30 2576 O 233.702 -1.34317 5.5436 0
M  V30 2577 O 232.636 0.542716 5.99448 0
M  V30 2578 H 236.462 1.25579 2.76521 0
M  V30 2579 H 234.047 0.676998 1.33181 0
M  V30 2580 H 235.929 -0.77395 4.14232 0
M  V30 2581 H 234.604 -1.17571 3.01594 0
M  V30 2582 H 233.511 1.07079 3.58448 0
M  V30 2583 H 234.844 1.38995 4.72167 0
M  V30 2584 N 236.496 -1.42363 0.676048 0
M  V30 2585 C 237.726 -2.05561 0.206967 0
M  V30 2586 C 238.134 -1.50887 -1.14148 0
M  V30 2587 O 237.477 -0.643933 -1.72044 0
M  V30 2588 C 237.539 -3.5944 0.0659508 0
M  V30 2589 C 237.203 -4.36812 1.34331 0
M  V30 2590 C 238.2 -4.67383 2.27704 0
M  V30 2591 C 235.885 -4.76429 1.59125 0
M  V30 2592 C 237.879 -5.36509 3.44147 0
M  V30 2593 C 235.566 -5.45294 2.75857 0
M  V30 2594 C 236.564 -5.75259 3.68193 0
M  V30 2595 O 236.252 -6.42712 4.82883 0
M  V30 2596 H 235.984 -0.668872 0.0979084 0
M  V30 2597 H 238.538 -1.83467 0.923531 0
M  V30 2598 H 236.768 -3.80197 -0.706204 0
M  V30 2599 H 238.457 -4.0427 -0.363418 0
M  V30 2600 H 239.223 -4.37275 2.09799 0
M  V30 2601 H 235.102 -4.52498 0.881258 0
M  V30 2602 H 238.646 -5.59814 4.16238 0
M  V30 2603 H 234.543 -5.7482 2.93688 0
M  V30 2604 H 235.311 -6.61204 4.82444 0
M  V30 2605 N 237.974 -0.419461 -1.51915 0
M  V30 2606 C 238.921 0.400927 -2.27291 0
M  V30 2607 C 239.891 1.03224 -1.30131 0
M  V30 2608 O 241.076 1.05455 -1.59009 0
M  V30 2609 C 238.216 1.50603 -3.10504 0
M  V30 2610 C 237.329 0.89462 -4.22635 0
M  V30 2611 C 236.464 1.97328 -4.93189 0
M  V30 2612 C 235.503 1.33935 -5.97267 0
M  V30 2613 N 234.64 2.3586 -6.61298 0
M  V30 2614 H 239.48 -0.248251 -2.96964 0
M  V30 2615 H 237.017 -0.134266 -1.46486 0
M  V30 2616 H 238.975 2.15783 -3.57062 0
M  V30 2617 H 237.605 2.12509 -2.42981 0
M  V30 2618 H 236.657 0.131583 -3.80172 0
M  V30 2619 H 237.969 0.391641 -4.9726 0
M  V30 2620 H 237.123 2.70211 -5.43204 0
M  V30 2621 H 235.862 2.50994 -4.18155 0
M  V30 2622 H 234.867 0.595896 -5.46561 0
M  V30 2623 H 236.092 0.810252 -6.74249 0
M  V30 2624 H 234.038 2.88639 -5.89087 0
M  V30 2625 H 233.955 1.90403 -7.3163 0
M  V30 2626 H 235.223 3.08282 -7.15949 0
M  V30 2627 N 239.452 1.56882 -0.150215 0
M  V30 2628 C 240.399 2.16922 0.788244 0
M  V30 2629 C 241.369 1.10303 1.24187 0
M  V30 2630 O 242.554 1.38359 1.31383 0
M  V30 2631 C 239.694 2.79754 2.02068 0
M  V30 2632 C 238.807 4.00775 1.61257 0
M  V30 2633 C 237.942 4.51595 2.79705 0
M  V30 2634 C 236.981 5.65074 2.35282 0
M  V30 2635 N 236.118 6.10499 3.4675 0
M  V30 2636 H 240.958 2.96779 0.269444 0
M  V30 2637 H 238.495 1.46599 0.12128 0
M  V30 2638 H 240.453 3.14329 2.74323 0
M  V30 2639 H 239.083 2.02536 2.51354 0
M  V30 2640 H 238.135 3.72158 0.787553 0
M  V30 2641 H 239.447 4.82978 1.24633 0
M  V30 2642 H 238.601 4.88242 3.60145 0
M  V30 2643 H 237.34 3.68406 3.19576 0
M  V30 2644 H 236.345 5.28 1.53283 0
M  V30 2645 H 237.57 6.50052 1.96493 0
M  V30 2646 H 235.516 5.30243 3.86236 0
M  V30 2647 H 235.433 6.87637 3.14152 0
M  V30 2648 H 236.701 6.51791 4.27537 0
M  V30 2649 N 240.93 -0.123565 1.57115 0
M  V30 2650 C 242.158 -0.846461 1.88793 0
M  V30 2651 C 242.573 -1.73652 0.740976 0
M  V30 2652 O 241.93 -1.80207 -0.288393 0
M  V30 2653 C 241.981 -1.6837 3.19897 0
M  V30 2654 O 241.702 -0.829477 4.30176 0
M  V30 2655 C 243.203 -2.51214 3.65248 0
M  V30 2656 H 240.423 -0.243573 0.625231 0
M  V30 2657 H 242.967 -0.109324 2.04208 0
M  V30 2658 H 241.122 -2.37364 3.06165 0
M  V30 2659 H 241.536 -1.40651 5.0529 0
M  V30 2660 H 243.01 -3.05497 4.59756 0
M  V30 2661 H 243.487 -3.28359 2.9168 0
M  V30 2662 H 244.093 -1.8747 3.81752 0
M  V30 2663 N 242.408 -1.52605 -0.393616 0
M  V30 2664 C 243.371 -1.76415 -1.46323 0
M  V30 2665 C 244.371 -0.634126 -1.47768 0
M  V30 2666 O 245.561 -0.902142 -1.4902 0
M  V30 2667 C 242.693 -1.8607 -2.85641 0
M  V30 2668 H 243.886 -2.71916 -1.26498 0
M  V30 2669 H 241.439 -1.43257 -0.625073 0
M  V30 2670 H 242.174 -0.925378 -3.10817 0
M  V30 2671 H 241.959 -2.68235 -2.85993 0
M  V30 2672 H 243.449 -2.06179 -3.63153 0
M  V30 2673 N 243.887 0.651787 -1.4349 0
M  V30 2674 C 245.303 0.96762 -1.26922 0
M  V30 2675 C 245.503 2.00602 -0.189982 0
M  V30 2676 O 244.559 2.48793 0.431107 0
M  V30 2677 C 245.872 1.45052 -2.63401 0
M  V30 2678 C 247.42 1.5671 -2.70945 0
M  V30 2679 C 247.895 2.0839 -4.07845 0
M  V30 2680 N 249.386 2.1569 -4.09917 0
M  V30 2681 C 250.121 2.56804 -5.12679 0
M  V30 2682 N 249.617 2.97203 -6.25813 0
M  V30 2683 N 251.41 2.56756 -5.00033 0
M  V30 2684 H 243.561 -0.0353158 -2.12371 0
M  V30 2685 H 245.824 0.0467858 -0.946845 0
M  V30 2686 H 245.53 0.761926 -3.43348 0
M  V30 2687 H 245.404 2.42529 -2.88894 0
M  V30 2688 H 247.791 2.2467 -1.9133 0
M  V30 2689 H 247.872 0.57662 -2.49216 0
M  V30 2690 H 247.516 1.41031 -4.87927 0
M  V30 2691 H 247.446 3.08271 -4.26938 0
M  V30 2692 H 249.937 1.87237 -3.28254 0
M  V30 2693 H 250.25 3.27328 -7.00055 0
M  V30 2694 H 248.595 2.95004 -6.29283 0
M  V30 2695 H 251.786 2.24572 -4.10713 0
M  V30 2696 H 251.959 2.88475 -5.80247 0
M  V30 2697 N 245.365 1.30045 0.890287 0
M  V30 2698 C 246.776 1.16738 1.45702 0
M  V30 2699 C 247.127 -0.233939 1.948 0
M  V30 2700 O 246.252 -1.13021 1.84541 0
M  V30 2701 C 246.847 2.11313 2.64825 0
M  V30 2702 C 245.406 2.02001 3.17604 0
M  V30 2703 C 244.553 2.01699 1.90296 0
M  V30 2704 H 247.504 1.42392 0.700726 0
M  V30 2705 H 247.525 1.69086 3.40867 0
M  V30 2706 H 247.037 3.13294 2.2906 0
M  V30 2707 H 245.138 1.03142 3.5804 0
M  V30 2708 H 245.251 2.90128 3.81264 0
M  V30 2709 H 243.615 1.46427 2.08402 0
M  V30 2710 H 244.398 3.05402 1.56795 0
M  V30 2711 N 246.843 -1.10192 1.12674 0
M  V30 2712 C 247.79 -2.16606 0.796906 0
M  V30 2713 C 248.76 -1.64394 -0.237476 0
M  V30 2714 O 249.945 -1.90474 -0.111484 0
M  V30 2715 C 247.085 -3.44116 0.26043 0
M  V30 2716 C 246.198 -4.10268 1.35293 0
M  V30 2717 C 245.333 -5.25507 0.775621 0
M  V30 2718 C 244.372 -5.83567 1.84706 0
M  V30 2719 N 243.509 -6.90179 1.28829 0
M  V30 2720 H 248.349 -2.44163 1.70846 0
M  V30 2721 H 245.886 -1.19846 0.85295 0
M  V30 2722 H 247.844 -4.17143 -0.0686814 0
M  V30 2723 H 246.474 -3.16901 -0.614274 0
M  V30 2724 H 245.526 -3.35184 1.79877 0
M  V30 2725 H 246.838 -4.4946 2.16303 0
M  V30 2726 H 245.992 -6.05398 0.397327 0
M  V30 2727 H 244.731 -4.87656 -0.0656581 0
M  V30 2728 H 243.736 -5.02344 2.23452 0
M  V30 2729 H 244.961 -6.23482 2.69161 0
M  V30 2730 H 242.907 -6.54322 0.468881 0
M  V30 2731 H 242.824 -7.28097 2.03497 0
M  V30 2732 H 244.092 -7.73844 0.937311 0
M  V30 2733 N 248.321 -0.919034 -1.28029 0
M  V30 2734 C 249.567 -0.555757 -1.95036 0
M  V30 2735 C 249.9 0.899198 -1.72128 0
M  V30 2736 O 249.175 1.64023 -1.04531 0
M  V30 2737 C 249.458 -0.872024 -3.49382 0
M  V30 2738 C 249.311 -2.3801 -3.81669 0
M  V30 2739 C 250.63 -0.37185 -4.38526 0
M  V30 2740 H 247.749 -0.203386 -0.708381 0
M  V30 2741 H 250.391 -1.14924 -1.51303 0
M  V30 2742 H 248.541 -0.366946 -3.86763 0
M  V30 2743 H 250.213 -2.9562 -3.54128 0
M  V30 2744 H 248.456 -2.83289 -3.28526 0
M  V30 2745 H 249.127 -2.55192 -4.8947 0
M  V30 2746 H 251.603 -0.804602 -4.08247 0
M  V30 2747 H 250.479 -0.622173 -5.45362 0
M  V30 2748 H 250.74 0.727934 -4.36066 0
M  V30 2749 N 249.799 1.42003 -0.683588 0
M  V30 2750 C 251.045 2.01712 -0.209825 0
M  V30 2751 C 251.378 1.53968 1.18353 0
M  V30 2752 O 250.653 0.745661 1.79639 0
M  V30 2753 C 250.936 3.59202 -0.254197 0
M  V30 2754 C 250.789 4.17102 -1.68363 0
M  V30 2755 C 252.108 4.38344 0.392709 0
M  V30 2756 H 249.227 0.732891 -0.0777189 0
M  V30 2757 H 251.869 1.68909 -0.87004 0
M  V30 2758 H 250.019 3.87278 0.307954 0
M  V30 2759 H 251.691 3.99946 -2.29871 0
M  V30 2760 H 249.934 3.72597 -2.22157 0
M  V30 2761 H 250.605 5.26249 -1.6663 0
M  V30 2762 H 253.081 4.16011 -0.0859162 0
M  V30 2763 H 251.957 5.47901 0.331063 0
M  V30 2764 H 252.218 4.16887 1.47164 0
M  V30 2765 N 251.277 0.427512 1.51691 0
M  V30 2766 C 252.21 -0.433876 2.24037 0
M  V30 2767 C 253.188 -1.03287 1.25581 0
M  V30 2768 O 254.372 -1.07722 1.54688 0
M  V30 2769 C 251.499 -1.60385 2.98319 0
M  V30 2770 C 250.545 -1.12648 4.11355 0
M  V30 2771 S 251.378 -0.076543 5.35445 0
M  V30 2772 C 252.534 -1.25141 6.13262 0
M  V30 2773 H 252.767 0.180367 2.96752 0
M  V30 2774 H 250.3 0.211946 1.52938 0
M  V30 2775 H 252.258 -2.27462 3.41718 0
M  V30 2776 H 250.919 -2.18948 2.25213 0
M  V30 2777 H 250.112 -2.0011 4.62571 0
M  V30 2778 H 249.714 -0.534088 3.70167 0
M  V30 2779 H 252.006 -2.17162 6.41753 0
M  V30 2780 H 252.949 -0.779411 7.03797 0
M  V30 2781 H 253.357 -1.48553 5.44603 0
M  V30 2782 N 252.755 -1.56801 0.158532 0
M  V30 2783 C 253.983 -2.00859 -0.496303 0
M  V30 2784 C 254.398 -1.03871 -1.57659 0
M  V30 2785 O 253.755 -0.0375165 -1.82461 0
M  V30 2786 C 253.806 -3.4479 -1.08638 0
M  V30 2787 O 253.527 -4.38072 -0.0492322 0
M  V30 2788 C 255.028 -4.04185 -1.8207 0
M  V30 2789 H 252.248 -0.65864 -0.128199 0
M  V30 2790 H 254.792 -2.02885 0.256506 0
M  V30 2791 H 252.947 -3.43579 -1.78975 0
M  V30 2792 H 253.361 -5.2227 -0.483102 0
M  V30 2793 H 254.835 -5.06857 -2.18633 0
M  V30 2794 H 255.312 -3.45549 -2.71095 0
M  V30 2795 H 255.918 -4.0906 -1.16405 0
M  V30 2796 N 254.233 0.115231 -1.57178 0
M  V30 2797 C 255.479 0.818565 -1.86202 0
M  V30 2798 C 255.834 1.77316 -0.746785 0
M  V30 2799 O 255.127 1.89923 0.25291 0
M  V30 2800 C 255.321 1.60324 -3.19423 0
M  V30 2801 C 255.15 0.726138 -4.43799 0
M  V30 2802 C 253.92 0.379535 -5.03873 0
M  V30 2803 C 256.118 0.0420774 -5.14283 0
M  V30 2804 N 254.1 -0.507841 -6.11796 0
M  V30 2805 C 255.471 -0.704152 -6.15988 0
M  V30 2806 C 257.526 -0.0339486 -4.97888 0
M  V30 2807 C 256.229 -1.51927 -7.03072 0
M  V30 2808 C 258.255 -0.835906 -5.85463 0
M  V30 2809 C 257.617 -1.57031 -6.86673 0
M  V30 2810 H 253.716 0.276343 -0.731545 0
M  V30 2811 H 256.3 0.0821032 -1.94527 0
M  V30 2812 H 254.471 2.31072 -3.12186 0
M  V30 2813 H 256.203 2.2522 -3.36241 0
M  V30 2814 H 252.958 0.722634 -4.68054 0
M  V30 2815 H 253.382 -0.94349 -6.70393 0
M  V30 2816 H 258.024 0.519496 -4.19596 0
M  V30 2817 H 255.742 -2.08386 -7.80769 0
M  V30 2818 H 259.328 -0.89714 -5.74841 0
M  V30 2819 H 258.208 -2.18088 -7.53264 0
M  V30 2820 N 255.711 1.52812 0.385517 0
M  V30 2821 C 256.674 1.77188 1.45386 0
M  V30 2822 C 257.674 0.641953 1.4743 0
M  V30 2823 O 258.864 0.910033 1.4854 0
M  V30 2824 C 255.996 1.87582 2.8465 0
M  V30 2825 H 257.189 2.72583 1.25054 0
M  V30 2826 H 254.742 1.43586 0.617467 0
M  V30 2827 H 255.477 0.941849 3.10322 0
M  V30 2828 H 255.262 2.69748 2.84567 0
M  V30 2829 H 256.752 2.08102 3.62054 0
M  V30 2830 N 257.189 -0.644168 1.43834 0
M  V30 2831 C 258.6 -1.22554 1.40845 0
M  V30 2832 C 258.951 -1.9585 0.117115 0
M  V30 2833 O 258.076 -2.01734 -0.783086 0
M  V30 2834 C 258.671 -2.22907 2.55143 0
M  V30 2835 C 257.23 -2.76501 2.5539 0
M  V30 2836 C 256.377 -1.51287 2.32396 0
M  V30 2837 H 259.328 -0.43563 1.52604 0
M  V30 2838 H 259.349 -3.05259 2.2715 0
M  V30 2839 H 258.861 -1.69533 3.49114 0
M  V30 2840 H 256.962 -3.33914 1.65324 0
M  V30 2841 H 257.075 -3.23429 3.53455 0
M  V30 2842 H 255.439 -1.78957 1.81236 0
M  V30 2843 H 256.222 -0.998336 3.28463 0
M  V30 2844 N 258.668 -1.30515 -0.883378 0
M  V30 2845 C 259.618 -1.13641 -1.9766 0
M  V30 2846 C 260.602 -0.0511314 -1.60819 0
M  V30 2847 O 261.794 -0.274623 -1.74857 0
M  V30 2848 C 258.923 -0.831976 -3.33066 0
M  V30 2849 C 258.009 -1.95759 -3.76217 0
M  V30 2850 N 258.4 -3.20313 -3.9145 0
M  V30 2851 C 256.698 -1.85431 -4.05625 0
M  V30 2852 C 257.399 -3.93856 -4.2808 0
M  V30 2853 N 256.375 -3.21919 -4.38029 0
M  V30 2854 H 260.177 -2.08106 -2.07531 0
M  V30 2855 H 257.691 -1.21877 -1.0733 0
M  V30 2856 H 259.688 -0.692102 -4.11115 0
M  V30 2857 H 258.348 0.104588 -3.24532 0
M  V30 2858 H 259.359 -3.55583 -3.76538 0
M  V30 2859 H 256.036 -0.991531 -4.05555 0
M  V30 2860 H 257.426 -5.01125 -4.47575 0
M  V30 2861 N 260.146 1.09593 -1.13257 0
M  V30 2862 C 261.557 1.63229 -0.906274 0
M  V30 2863 C 261.908 1.8811 0.557578 0
M  V30 2864 O 261.033 1.62953 1.42391 0
M  V30 2865 C 261.628 2.96535 -1.63867 0
M  V30 2866 C 260.187 3.47003 -1.45828 0
M  V30 2867 C 259.334 2.2145 -1.66898 0
M  V30 2868 H 262.285 0.92978 -1.28611 0
M  V30 2869 H 262.306 3.64411 -1.09476 0
M  V30 2870 H 261.818 2.78394 -2.70404 0
M  V30 2871 H 259.919 3.70272 -0.415848 0
M  V30 2872 H 260.032 4.24551 -2.2202 0
M  V30 2873 H 258.396 2.30022 -1.09371 0
M  V30 2874 H 259.179 2.0583 -2.74752 0
M  V30 2875 N 261.624 0.925811 1.2754 0
M  V30 2876 C 263.04 0.625767 1.46821 0
M  V30 2877 C 263.24 -0.825506 1.83814 0
M  V30 2878 O 262.296 -1.60356 1.95044 0
M  V30 2879 C 263.609 1.57402 2.56213 0
M  V30 2880 C 265.157 1.58204 2.70075 0
M  V30 2881 C 265.632 2.51721 3.82623 0
M  V30 2882 N 267.123 2.49917 3.89994 0
M  V30 2883 C 267.858 3.18968 4.76494 0
M  V30 2884 N 267.354 3.97391 5.67496 0
M  V30 2885 N 269.147 3.07996 4.70208 0
M  V30 2886 H 261.298 1.86409 1.01811 0
M  V30 2887 H 263.561 0.800213 0.508295 0
M  V30 2888 H 263.267 2.60925 2.35819 0
M  V30 2889 H 263.141 1.31428 3.53563 0
M  V30 2890 H 265.528 0.554124 2.89851 0
M  V30 2891 H 265.609 1.88226 1.73218 0
M  V30 2892 H 265.253 3.54622 3.63601 0
M  V30 2893 H 265.183 2.18996 4.78903 0
M  V30 2894 H 267.674 1.9296 3.24923 0
M  V30 2895 H 267.987 4.4707 6.30356 0
M  V30 2896 H 266.332 4.01495 5.67298 0
M  V30 2897 H 269.523 2.46223 3.9811 0
M  V30 2898 H 269.696 3.6208 5.37403 0
M  V30 2899 N 263.102 -1.41638 0.69111 0
M  V30 2900 C 264.513 -1.84346 0.295517 0
M  V30 2901 C 264.864 -1.57833 -1.16547 0
M  V30 2902 O 263.989 -1.04648 -1.89414 0
M  V30 2903 C 264.584 -3.34636 0.529575 0
M  V30 2904 C 263.143 -3.7593 0.187944 0
M  V30 2905 C 262.29 -2.65082 0.814052 0
M  V30 2906 H 265.241 -1.31253 0.892092 0
M  V30 2907 H 265.262 -3.79903 -0.213148 0
M  V30 2908 H 264.774 -3.53901 1.59297 0
M  V30 2909 H 262.875 -3.62268 -0.871367 0
M  V30 2910 H 262.988 -4.74808 0.63985 0
M  V30 2911 H 261.352 -2.53528 0.244017 0
M  V30 2912 H 262.135 -2.87167 1.88123 0
M  V30 2913 N 264.58 -0.43555 -1.51462 0
M  V30 2914 C 265.51 0.367376 -2.30592 0
M  V30 2915 C 266.491 1.02263 -1.35928 0
M  V30 2916 O 267.676 1.02661 -1.64847 0
M  V30 2917 C 264.806 1.46983 -3.14664 0
M  V30 2918 C 263.76 0.938161 -4.17591 0
M  V30 2919 C 263.086 2.13622 -4.90173 0
M  V30 2920 C 264.386 -0.0261621 -5.22293 0
M  V30 2921 H 266.08 -0.292969 -2.97963 0
M  V30 2922 H 263.626 -0.14234 -1.43295 0
M  V30 2923 H 265.579 2.03873 -3.688 0
M  V30 2924 H 264.303 2.15843 -2.4511 0
M  V30 2925 H 262.962 0.391481 -3.64504 0
M  V30 2926 H 262.61 2.81098 -4.17124 0
M  V30 2927 H 262.31 1.78688 -5.59772 0
M  V30 2928 H 263.834 2.7107 -5.47132 0
M  V30 2929 H 265.248 0.452384 -5.71512 0
M  V30 2930 H 263.645 -0.287992 -5.99409 0
M  V30 2931 H 264.715 -0.963391 -4.75233 0
M  V30 2932 N 266.058 1.56714 -0.166846 0
M  V30 2933 C 267.469 1.83378 0.350646 0
M  V30 2934 C 267.82 1.08646 1.63372 0
M  V30 2935 O 266.945 0.338058 2.13743 0
M  V30 2936 C 267.54 3.32643 0.642963 0
M  V30 2937 C 266.099 3.59818 1.10491 0
M  V30 2938 C 265.246 2.76954 0.138411 0
M  V30 2939 H 268.197 1.53803 -0.391193 0
M  V30 2940 H 268.218 3.49878 1.49551 0
M  V30 2941 H 267.73 3.87007 -0.291055 0
M  V30 2942 H 265.831 3.1086 2.05418 0
M  V30 2943 H 265.944 4.68178 1.01716 0
M  V30 2944 H 264.308 2.4666 0.634911 0
M  V30 2945 H 265.091 3.34097 -0.789549 0
M  V30 2946 N 267.536 -0.106894 1.57237 0
M  V30 2947 C 268.468 -1.15646 1.97885 0
M  V30 2948 C 269.481 -1.36981 0.879779 0
M  V30 2949 O 270.67 -1.35841 1.15799 0
M  V30 2950 C 267.77 -2.51425 2.27241 0
M  V30 2951 C 266.943 -2.50529 3.58545 0
M  V30 2952 C 266.002 -3.68145 3.75973 0
M  V30 2953 O 265.028 -3.51176 4.47956 0
M  V30 2954 N 266.23 -4.87177 3.15656 0
M  V30 2955 H 268.995 -0.81059 2.8853 0
M  V30 2956 H 266.556 -0.296024 1.59171 0
M  V30 2957 H 268.548 -3.28689 2.36105 0
M  V30 2958 H 267.118 -2.78147 1.42663 0
M  V30 2959 H 266.338 -1.58894 3.60758 0
M  V30 2960 H 267.626 -2.46997 4.44826 0
M  V30 2961 H 267.024 -5.03868 2.57165 0
M  V30 2962 H 265.581 -5.62075 3.30023 0
M  V30 2963 N 269.014 -1.53014 -0.377408 0
M  V30 2964 C 269.977 -1.77957 -1.44444 0
M  V30 2965 C 270.977 -0.649763 -1.47087 0
M  V30 2966 O 272.167 -0.917897 -1.48055 0
M  V30 2967 C 269.299 -1.89089 -2.83651 0
M  V30 2968 H 270.492 -2.73243 -1.23606 0
M  V30 2969 H 268.045 -1.43912 -0.609844 0
M  V30 2970 H 268.78 -0.958293 -3.09818 0
M  V30 2971 H 268.565 -2.71254 -2.83132 0
M  V30 2972 H 270.055 -2.1002 -3.60945 0
M  V30 2973 N 270.492 0.636531 -1.44174 0
M  V30 2974 C 271.738 1.39826 -1.4689 0
M  V30 2975 C 272.071 1.93947 -0.0990585 0
M  V30 2976 O 271.346 1.73325 0.882544 0
M  V30 2977 C 271.629 2.56751 -2.5249 0
M  V30 2978 C 271.482 2.08014 -3.98811 0
M  V30 2979 C 272.801 3.58946 -2.54649 0
M  V30 2980 H 269.92 0.507075 -0.53483 0
M  V30 2981 H 272.562 0.720188 -1.75822 0
M  V30 2982 H 270.712 3.14597 -2.2795 0
M  V30 2983 H 272.384 1.5504 -4.34466 0
M  V30 2984 H 270.627 1.39242 -4.10846 0
M  V30 2985 H 271.298 2.92169 -4.68339 0
M  V30 2986 H 273.774 3.1089 -2.76563 0
M  V30 2987 H 272.65 4.38286 -3.3045 0
M  V30 2988 H 272.911 4.12655 -1.58646 0
M  V30 2989 N 271.97 1.30982 0.876444 0
M  V30 2990 C 273.381 1.18277 1.44456 0
M  V30 2991 C 273.732 -0.213265 1.95037 0
M  V30 2992 O 272.857 -1.11057 1.85729 0
M  V30 2993 C 273.452 2.1411 2.62569 0
M  V30 2994 C 272.011 2.05358 3.15444 0
M  V30 2995 C 271.158 2.03706 1.88146 0
M  V30 2996 H 274.109 1.43127 0.685584 0
M  V30 2997 H 274.13 1.72692 3.39054 0
M  V30 2998 H 273.642 3.15706 2.25724 0
M  V30 2999 H 271.743 1.06934 3.56926 0
M  V30 3000 H 271.856 2.94156 3.78166 0
M  V30 3001 H 270.22 1.48629 2.06837 0
M  V30 3002 H 271.003 3.07047 1.53547 0
M  V30 3003 N 273.449 -1.08991 1.13837 0
M  V30 3004 C 274.397 -2.17841 0.815347 0
M  V30 3005 C 275.391 -1.68164 -0.204233 0
M  V30 3006 O 276.597 -1.79897 -0.0609304 0
M  V30 3007 H 272.972 -0.710654 0.245915 0
M  V30 3008 H 274.943 -2.42315 1.74143 0
M  V30 3009 C 273.692 -3.46381 0.302614 0
M  V30 3010 H 273.015 -3.84979 1.0785 0
M  V30 3011 H 274.455 -4.23844 0.115074 0
M  V30 3012 C 272.914 -3.22556 -0.972591 0
M  V30 3013 O 273.444 -3.45599 -2.04754 0
M  V30 3014 N 271.65 -2.76134 -0.905455 0
M  V30 3015 H 271.197 -2.57582 -0.0305421 0
M  V30 3016 H 271.155 -2.60571 -1.75926 0
M  V30 3017 N 274.927 -0.932562 -1.27047 0
M  V30 3018 C 276.152 -0.591474 -1.98787 0
M  V30 3019 C 276.577 0.824601 -1.69062 0
M  V30 3020 O 275.935 1.5541 -0.933677 0
M  V30 3021 C 275.983 -0.829808 -3.50922 0
M  V30 3022 O 275.087 0.102266 -4.12273 0
M  V30 3023 H 274.428 -0.227185 -0.623926 0
M  V30 3024 H 276.958 -1.25314 -1.61733 0
M  V30 3025 H 276.968 -0.747292 -4.01098 0
M  V30 3026 H 275.643 -1.86201 -3.7189 0
M  V30 3027 H 274.22 -0.0305761 -3.72887 0
M  V30 3028 N 276.405 1.4127 -0.698611 0
M  V30 3029 C 277.652 2.0118 -0.230865 0
M  V30 3030 C 277.98 1.55338 1.17049 0
M  V30 3031 O 277.235 0.756775 1.80475 0
M  V30 3032 C 277.534 3.56592 -0.240192 0
M  V30 3033 C 277.2 4.21955 -1.58948 0
M  V30 3034 C 275.862 4.39524 -1.95887 0
M  V30 3035 C 278.214 4.58576 -2.47704 0
M  V30 3036 C 275.542 4.90992 -3.2116 0
M  V30 3037 C 277.894 5.11435 -3.72313 0
M  V30 3038 C 276.558 5.27215 -4.0939 0
M  V30 3039 H 275.828 0.736169 -0.0844796 0
M  V30 3040 H 278.475 1.69124 -0.8983 0
M  V30 3041 H 276.78 3.88456 0.510797 0
M  V30 3042 H 278.477 4.00758 0.139296 0
M  V30 3043 H 275.067 4.08657 -1.29219 0
M  V30 3044 H 279.251 4.44654 -2.20445 0
M  V30 3045 H 274.507 5.01393 -3.49878 0
M  V30 3046 H 278.681 5.38752 -4.4127 0
M  V30 3047 H 276.308 5.66859 -5.06533 0
M  V30 3048 N 277.883 0.443576 1.51229 0
M  V30 3049 C 278.846 -0.353132 2.26463 0
M  V30 3050 C 279.846 -0.944338 1.3015 0
M  V30 3051 O 281.036 -0.817813 1.5381 0
M  V30 3052 C 278.168 -1.50023 3.06114 0
M  V30 3053 H 279.361 0.3063 2.98332 0
M  V30 3054 H 276.914 0.196902 1.55055 0
M  V30 3055 H 277.649 -2.19553 2.38677 0
M  V30 3056 H 277.434 -1.08241 3.76864 0
M  V30 3057 H 278.924 -2.06296 3.63087 0
M  V30 3058 N 279.361 -1.56624 0.175154 0
M  V30 3059 C 280.271 -2.21741 -0.766042 0
M  V30 3060 C 281.287 -1.21023 -1.25018 0
M  V30 3061 O 282.463 -1.53697 -1.3015 0
M  V30 3062 C 279.528 -2.84839 -1.97655 0
M  V30 3063 C 278.589 -4.00769 -1.53892 0
M  V30 3064 C 277.822 -4.60849 -2.69173 0
M  V30 3065 O 278.045 -4.19823 -3.86141 0
M  V30 3066 O 276.979 -5.50655 -2.43028 0
M  V30 3067 H 280.805 -3.02738 -0.241585 0
M  V30 3068 H 278.39 -1.49305 -0.053222 0
M  V30 3069 H 280.272 -3.24834 -2.68442 0
M  V30 3070 H 278.947 -2.06836 -2.48999 0
M  V30 3071 H 277.854 -3.65436 -0.80044 0
M  V30 3072 H 279.187 -4.80376 -1.07236 0
M  V30 3073 N 280.839 0.0985539 -1.57292 0
M  V30 3074 C 282.085 0.798769 -1.87059 0
M  V30 3075 C 282.44 1.76514 -0.76555 0
M  V30 3076 O 281.733 1.90181 0.232752 0
M  V30 3077 C 281.927 1.56927 -3.21105 0
M  V30 3078 C 281.756 0.679026 -4.44544 0
M  V30 3079 C 280.526 0.326071 -5.04247 0
M  V30 3080 C 282.724 -0.0124715 -5.14298 0
M  V30 3081 N 280.706 -0.572702 -6.11223 0
M  V30 3082 C 282.077 -0.769446 -6.15207 0
M  V30 3083 C 284.132 -0.0867545 -4.97824 0
M  V30 3084 C 282.835 -1.59376 -7.01421 0
M  V30 3085 C 284.861 -0.897955 -5.84543 0
M  V30 3086 C 284.223 -1.64306 -6.84969 0
M  V30 3087 H 280.322 0.268568 -0.734435 0
M  V30 3088 H 282.906 0.0614664 -1.94603 0
M  V30 3089 H 281.077 2.27748 -3.1462 0
M  V30 3090 H 282.809 2.21641 -3.38611 0
M  V30 3091 H 279.564 0.67295 -4.68795 0
M  V30 3092 H 279.988 -1.01454 -6.69355 0
M  V30 3093 H 284.63 0.474963 -4.20124 0
M  V30 3094 H 282.348 -2.16655 -7.78515 0
M  V30 3095 H 285.934 -0.958059 -5.73858 0
M  V30 3096 H 284.814 -2.26065 -7.50909 0
M  V30 3097 N 282.317 1.53212 0.369288 0
M  V30 3098 C 283.25 1.74166 1.4745 0
M  V30 3099 C 284.228 0.589923 1.51521 0
M  V30 3100 O 285.412 0.822078 1.69629 0
M  V30 3101 C 282.539 1.81711 2.8583 0
M  V30 3102 C 281.585 3.03649 2.99499 0
M  V30 3103 S 282.418 4.63242 2.6864 0
M  V30 3104 C 283.574 4.7363 4.09177 0
M  V30 3105 H 283.807 2.67636 1.29454 0
M  V30 3106 H 281.34 1.43754 0.563396 0
M  V30 3107 H 283.298 1.86743 3.65564 0
M  V30 3108 H 281.959 0.89299 3.01139 0
M  V30 3109 H 281.152 3.05526 4.00836 0
M  V30 3110 H 280.754 2.9671 2.27683 0
M  V30 3111 H 283.046 4.53456 5.03372 0
M  V30 3112 H 283.989 5.75682 4.12306 0
M  V30 3113 H 284.397 4.02295 3.96004 0
M  V30 3114 N 283.795 -0.628877 1.44509 0
M  V30 3115 C 284.743 -1.76193 1.51852 0
M  V30 3116 C 285.737 -1.64849 0.390042 0
M  V30 3117 O 286.943 -1.709 0.565082 0
M  V30 3118 H 283.318 -0.581728 0.476547 0
M  V30 3119 H 285.289 -1.67123 2.47209 0
M  V30 3120 C 284.038 -3.14533 1.48204 0
M  V30 3121 H 283.361 -3.23911 2.34354 0
M  V30 3122 H 284.801 -3.93701 1.57402 0
M  V30 3123 C 283.26 -3.36287 0.203142 0
M  V30 3124 O 283.79 -3.9509 -0.725745 0
M  V30 3125 N 281.996 -2.90408 0.105563 0
M  V30 3126 H 281.543 -2.42739 0.862301 0
M  V30 3127 H 281.501 -3.05339 -0.749371 0
M  V30 3128 N 285.273 -1.31445 -0.869486 0
M  V30 3129 C 286.236 -1.19094 -1.9583 0
M  V30 3130 C 287.236 -0.117906 -1.60367 0
M  V30 3131 O 288.426 -0.367208 -1.70286 0
M  V30 3132 C 285.558 -0.828165 -3.30688 0
M  V30 3133 H 286.751 -2.15842 -2.08212 0
M  V30 3134 H 284.304 -1.15063 -1.05784 0
M  V30 3135 H 285.039 0.138142 -3.24006 0
M  V30 3136 H 284.824 -1.6038 -3.578 0
M  V30 3137 H 286.314 -0.765658 -4.10521 0
M  V30 3138 N 286.751 1.08385 -1.14413 0
M  V30 3139 C 287.979 1.84517 -0.936001 0
M  V30 3140 C 288.394 1.81626 0.515503 0
M  V30 3141 O 287.751 1.22008 1.35721 0
M  V30 3142 C 287.802 3.32049 -1.42918 0
M  V30 3143 O 287.523 3.34951 -2.82381 0
M  V30 3144 C 289.024 4.24986 -1.26103 0
M  V30 3145 H 286.244 0.582491 -0.333084 0
M  V30 3146 H 288.788 1.36885 -1.5193 0
M  V30 3147 H 286.943 3.7707 -0.888641 0
M  V30 3148 H 287.357 4.27048 -3.04517 0
M  V30 3149 H 288.831 5.26615 -1.6547 0
M  V30 3150 H 289.308 4.38726 -0.20392 0
M  V30 3151 H 289.914 3.85791 -1.79012 0
M  V30 3152 N 288.23 0.939286 1.26551 0
M  V30 3153 C 289.507 0.5038 1.89001 0
M  V30 3154 C 289.887 -1.01854 1.84903 0
M  V30 3155 O 289.235 -1.87773 1.30206 0
M  V30 3156 C 289.445 1.063 3.32417 0
M  V30 3157 C 290.793 1.13051 4.09273 0
M  V30 3158 O 291.817 1.01345 3.41479 0
M  V30 3159 O 290.676 1.31233 5.30509 0
M  V30 3160 H 287.77 0.163897 0.810597 0
M  V30 3161 H 290.316 1.03173 1.34735 0
M  V30 3162 H 289.088 2.10665 3.29752 0
M  V30 3163 H 288.711 0.517408 3.94219 0
M  V30 3164 N 289.708 -1.40897 0.706093 0
M  V30 3165 C 290.938 -2.05075 0.250523 0
M  V30 3166 C 291.346 -1.53275 -1.10921 0
M  V30 3167 O 290.689 -0.680281 -1.7064 0
M  V30 3168 C 290.751 -3.59219 0.142178 0
M  V30 3169 C 290.415 -4.33864 1.43566 0
M  V30 3170 C 291.412 -4.62448 2.37566 0
M  V30 3171 C 289.097 -4.72946 1.69195 0
M  V30 3172 C 291.091 -5.29088 3.5545 0
M  V30 3173 C 288.778 -5.3932 2.87362 0
M  V30 3174 C 289.776 -5.6732 3.80312 0
M  V30 3175 O 289.464 -6.32325 4.96408 0
M  V30 3176 H 289.196 -0.666645 0.112074 0
M  V30 3177 H 291.75 -1.81467 0.962239 0
M  V30 3178 H 289.98 -3.81609 -0.6254 0
M  V30 3179 H 291.669 -4.0495 -0.277584 0
M  V30 3180 H 292.435 -4.32727 2.19027 0
M  V30 3181 H 288.314 -4.50527 0.977042 0
M  V30 3182 H 291.858 -5.50859 4.28018 0
M  V30 3183 H 287.755 -5.68461 3.05814 0
M  V30 3184 H 288.523 -6.50821 4.9636 0
M  V30 3185 N 291.186 -0.45159 -1.50991 0
M  V30 3186 C 292.096 0.358431 -2.31846 0
M  V30 3187 C 293.112 1.01438 -1.41373 0
M  V30 3188 O 294.288 1.00663 -1.74439 0
M  V30 3189 C 291.353 1.43704 -3.15515 0
M  V30 3190 C 290.414 0.799742 -4.21785 0
M  V30 3191 C 289.647 1.82696 -5.01456 0
M  V30 3192 O 289.87 3.05105 -4.81941 0
M  V30 3193 O 288.804 1.40958 -5.85162 0
M  V30 3194 H 292.63 -0.302032 -3.02194 0
M  V30 3195 H 290.215 -0.213825 -1.47862 0
M  V30 3196 H 292.097 2.06227 -3.67489 0
M  V30 3197 H 290.772 2.08133 -2.47916 0
M  V30 3198 H 289.679 0.136084 -3.73852 0
M  V30 3199 H 291.012 0.198718 -4.91799 0
M  V30 3200 N 292.664 1.56529 -0.183458 0
M  V30 3201 C 293.911 1.97244 0.458357 0
M  V30 3202 C 294.239 1.06992 1.62428 0
M  V30 3203 O 293.494 0.106542 1.9541 0
M  V30 3204 C 293.793 3.43939 0.971637 0
M  V30 3205 C 293.459 4.5083 -0.0796784 0
M  V30 3206 C 292.121 4.79786 -0.368584 0
M  V30 3207 C 294.473 5.15138 -0.792638 0
M  V30 3208 C 291.801 5.70345 -1.37563 0
M  V30 3209 C 294.153 6.06784 -1.78875 0
M  V30 3210 C 292.817 6.34102 -2.08497 0
M  V30 3211 H 292.087 0.721768 0.167725 0
M  V30 3212 H 294.734 1.89472 -0.277976 0
M  V30 3213 H 293.039 3.48724 1.78602 0
M  V30 3214 H 294.736 3.72791 1.47744 0
M  V30 3215 H 291.326 4.28317 0.155668 0
M  V30 3216 H 295.51 4.92868 -0.582659 0
M  V30 3217 H 290.766 5.89789 -1.61118 0
M  V30 3218 H 294.94 6.55677 -2.3465 0
M  V30 3219 H 292.567 7.04074 -2.86678 0
M  V30 3220 N 294.142 -0.090211 1.57342 0
M  V30 3221 C 295.388 -0.793982 1.86611 0
M  V30 3222 C 295.721 -1.78142 0.773252 0
M  V30 3223 O 294.996 -1.93271 -0.218304 0
M  V30 3224 C 295.279 -1.51839 3.26523 0
M  V30 3225 C 295.132 -0.548609 4.46442 0
M  V30 3226 C 296.451 -2.46779 3.64401 0
M  V30 3227 H 293.57 -0.287186 0.678744 0
M  V30 3228 H 296.212 -0.0575076 1.89913 0
M  V30 3229 H 294.362 -2.14617 3.23839 0
M  V30 3230 H 296.034 0.0725513 4.61243 0
M  V30 3231 H 294.277 0.137614 4.33582 0
M  V30 3232 H 294.948 -1.09271 5.41076 0
M  V30 3233 H 297.424 -1.94089 3.68061 0
M  V30 3234 H 296.3 -2.94479 4.63221 0
M  V30 3235 H 296.561 -3.30758 2.93346 0
M  V30 3236 N 295.62 -1.53406 -0.361157 0
M  V30 3237 C 296.869 -1.69022 -1.10066 0
M  V30 3238 C 297.182 -0.450838 -1.90333 0
M  V30 3239 O 298.388 -0.487617 -2.67085 0
M  V30 3240 C 296.844 -2.98812 -2.00598 0
M  V30 3241 C 296.452 -4.30027 -1.25621 0
M  V30 3242 C 298.196 -3.23795 -2.74513 0
M  V30 3243 C 296.103 -5.50903 -2.1508 0
M  V30 3244 H 295.033 -0.629776 -0.414606 0
M  V30 3245 H 297.684 -1.79907 -0.361348 0
M  V30 3246 H 296.066 -2.8174 -2.78278 0
M  V30 3247 H 297.24 -4.57745 -0.529739 0
M  V30 3248 H 295.555 -4.11522 -0.635496 0
M  V30 3249 H 298.152 -4.11289 -3.41681 0
M  V30 3250 H 298.495 -2.40045 -3.40123 0
M  V30 3251 H 299.028 -3.41561 -2.03914 0
M  V30 3252 H 295.767 -6.37143 -1.54041 0
M  V30 3253 H 295.287 -5.27459 -2.85565 0
M  V30 3254 H 296.966 -5.85865 -2.74538 0
M  V30 3255 N 297.098 0.621204 -1.44841 0
M  V30 3256 C 298.326 1.40752 -1.51646 0
M  V30 3257 C 298.741 1.88246 -0.144549 0
M  V30 3258 O 298.098 1.61422 0.851416 0
M  V30 3259 C 298.149 2.62119 -2.4895 0
M  V30 3260 O 297.87 2.16602 -3.80808 0
M  V30 3261 C 299.371 3.55135 -2.65319 0
M  V30 3262 H 296.591 0.431325 -0.514004 0
M  V30 3263 H 299.135 0.758835 -1.899 0
M  V30 3264 H 297.29 3.23058 -2.13805 0
M  V30 3265 H 297.704 2.95358 -4.33433 0
M  V30 3266 H 299.178 4.36874 -3.37409 0
M  V30 3267 H 299.655 4.04592 -1.70886 0
M  V30 3268 H 300.261 3.00058 -3.01405 0
M  V30 3269 N 298.576 1.31904 0.862503 0
M  V30 3270 C 299.526 1.16772 1.95827 0
M  V30 3271 C 300.51 0.0767098 1.60717 0
M  V30 3272 O 301.702 0.302407 1.74398 0
M  V30 3273 C 298.831 0.884858 3.317 0
M  V30 3274 C 297.917 2.0172 3.73055 0
M  V30 3275 N 298.308 3.265 3.86305 0
M  V30 3276 C 296.606 1.91861 4.02623 0
M  V30 3277 C 297.307 4.00616 4.2176 0
M  V30 3278 N 296.283 3.28847 4.32852 0
M  V30 3279 H 300.085 2.11382 2.04193 0
M  V30 3280 H 297.599 1.2357 1.05377 0
M  V30 3281 H 299.596 0.757419 4.09962 0
M  V30 3282 H 298.256 -0.0529448 3.24657 0
M  V30 3283 H 299.267 3.61529 3.70833 0
M  V30 3284 H 295.944 1.05593 4.03926 0
M  V30 3285 H 297.334 5.08182 4.39546 0
M  V30 3286 N 300.054 -1.07777 1.14986 0
M  V30 3287 C 301.465 -1.61766 0.932127 0
M  V30 3288 C 301.816 -1.88974 -0.527581 0
M  V30 3289 O 300.941 -1.65198 -1.39781 0
M  V30 3290 C 301.536 -2.93891 1.68563 0
M  V30 3291 C 300.095 -3.44639 1.5133 0
M  V30 3292 C 299.242 -2.18767 1.704 0
M  V30 3293 H 302.193 -0.909201 1.30074 0
M  V30 3294 H 302.214 -3.62623 1.15259 0
M  V30 3295 H 301.726 -2.74057 2.74799 0
M  V30 3296 H 299.827 -3.69564 0.474702 0
M  V30 3297 H 299.94 -4.20966 2.28746 0
M  V30 3298 H 298.304 -2.28253 1.13016 0
M  V30 3299 H 299.087 -2.01433 2.77992 0
M  V30 3300 N 301.532 -0.945985 -1.26051 0
M  V30 3301 C 302.442 -0.465633 -2.29933 0
M  V30 3302 C 303.458 0.462761 -1.67733 0
M  V30 3303 O 304.634 0.341118 -1.9849 0
M  V30 3304 C 301.699 0.256994 -3.45746 0
M  V30 3305 C 300.76 -0.708549 -4.23412 0
M  V30 3306 C 299.993 -0.0203135 -5.33696 0
M  V30 3307 O 300.216 1.19571 -5.57726 0
M  V30 3308 O 299.15 -0.701459 -5.97799 0
M  V30 3309 H 302.976 -1.32866 -2.73094 0
M  V30 3310 H 300.561 -0.712071 -1.31339 0
M  V30 3311 H 302.443 0.663852 -4.16138 0
M  V30 3312 H 301.118 1.09533 -3.04605 0
M  V30 3313 H 300.025 -1.16545 -3.55483 0
M  V30 3314 H 301.358 -1.51465 -4.68315 0
M  V30 3315 N 303.011 1.40521 -0.713556 0
M  V30 3316 C 304.259 2.00527 -0.251692 0
M  V30 3317 C 304.58 1.56857 1.15848 0
M  V30 3318 O 303.85 0.807127 1.785 0
M  V30 3319 H 302.43 0.741551 -0.0900646 0
M  V30 3320 H 305.092 1.71887 -0.918733 0
M  V30 3321 H 304.188 3.10813 -0.283192 0
M  V30 3322 N 304.489 0.459591 1.5075 0
M  V30 3323 C 305.719 -0.0972338 2.06371 0
M  V30 3324 C 306.127 -1.35074 1.32483 0
M  V30 3325 O 305.47 -1.79637 0.384226 0
M  V30 3326 C 305.532 -0.462759 3.56509 0
M  V30 3327 C 305.196 0.687084 4.51805 0
M  V30 3328 C 306.193 1.56578 4.95761 0
M  V30 3329 C 303.878 0.874144 4.94635 0
M  V30 3330 C 305.872 2.61604 5.81242 0
M  V30 3331 C 303.559 1.92765 5.79901 0
M  V30 3332 C 304.557 2.79697 6.23104 0
M  V30 3333 O 304.245 3.83235 7.06673 0
M  V30 3334 H 303.977 -0.00140687 0.675999 0
M  V30 3335 H 306.531 0.644011 1.95043 0
M  V30 3336 H 304.761 -1.25703 3.65699 0
M  V30 3337 H 306.45 -0.953323 3.94546 0
M  V30 3338 H 307.216 1.4329 4.6335 0
M  V30 3339 H 303.095 0.207006 4.60535 0
M  V30 3340 H 306.639 3.29489 6.14884 0
M  V30 3341 H 302.536 2.06064 6.11725 0
M  V30 3342 H 303.304 3.80084 7.24899 0
M  V30 3343 N 305.967 -1.56429 0.191757 0
M  V30 3344 C 306.877 -2.22541 -0.742481 0
M  V30 3345 C 307.893 -1.22342 -1.23727 0
M  V30 3346 O 309.069 -1.55069 -1.28513 0
M  V30 3347 C 306.134 -2.8692 -1.94623 0
M  V30 3348 C 305.195 -4.02378 -1.49633 0
M  V30 3349 C 304.428 -4.63678 -2.6427 0
M  V30 3350 O 304.651 -4.23895 -3.81666 0
M  V30 3351 O 303.585 -5.53202 -2.37174 0
M  V30 3352 H 307.411 -3.02977 -0.209462 0
M  V30 3353 H 304.996 -1.49353 -0.0373832 0
M  V30 3354 H 306.878 -3.27663 -2.64982 0
M  V30 3355 H 305.553 -2.09466 -2.46791 0
M  V30 3356 H 304.46 -3.66265 -0.761636 0
M  V30 3357 H 305.793 -4.81487 -1.02134 0
M  V30 3358 N 307.445 0.0818655 -1.57387 0
M  V30 3359 C 308.375 1.09885 -2.06028 0
M  V30 3360 C 309.356 1.4098 -0.951774 0
M  V30 3361 O 310.541 1.50781 -1.22387 0
M  V30 3362 C 307.671 2.4151 -2.4958 0
M  V30 3363 C 306.625 2.24792 -3.64215 0
M  V30 3364 C 305.951 3.61712 -3.93787 0
M  V30 3365 C 307.251 1.67749 -4.94629 0
M  V30 3366 H 308.945 0.694128 -2.91243 0
M  V30 3367 H 306.491 0.332448 -1.4011 0
M  V30 3368 H 308.444 3.12939 -2.82219 0
M  V30 3369 H 307.168 2.83943 -1.61381 0
M  V30 3370 H 305.827 1.55807 -3.31843 0
M  V30 3371 H 305.475 4.01697 -3.02735 0
M  V30 3372 H 305.175 3.51368 -4.70971 0
M  V30 3373 H 306.699 4.34587 -4.28913 0
M  V30 3374 H 308.113 2.29032 -5.25564 0
M  V30 3375 H 306.51 1.68128 -5.76067 0
M  V30 3376 H 307.58 0.638059 -4.80684 0
M  V30 3377 N 308.923 1.53595 0.353017 0
M  V30 3378 C 310.2 1.61002 1.11075 0
M  V30 3379 C 310.58 0.425356 2.0677 0
M  V30 3380 O 309.928 -0.583267 2.2093 0
M  V30 3381 C 310.138 2.96631 1.83877 0
M  V30 3382 C 311.486 3.51653 2.37961 0
M  V30 3383 O 312.51 2.98743 1.93987 0
M  V30 3384 O 311.369 4.44177 3.18386 0
M  V30 3385 H 308.463 0.650825 0.510251 0
M  V30 3386 H 311.009 1.6594 0.35527 0
M  V30 3387 H 309.781 3.74293 1.14108 0
M  V30 3388 H 309.404 2.95242 2.66304 0
M  V30 3389 N 310.401 -0.613514 1.45168 0
M  V30 3390 C 311.812 -1.19539 1.43413 0
M  V30 3391 C 312.163 -1.95558 0.158632 0
M  V30 3392 O 311.288 -2.0335 -0.740119 0
M  V30 3393 C 311.883 -2.17445 2.59813 0
M  V30 3394 C 310.442 -2.71022 2.61197 0
M  V30 3395 C 309.589 -1.46323 2.35552 0
M  V30 3396 H 312.54 -0.403163 1.53494 0
M  V30 3397 H 312.561 -3.00373 2.33574 0
M  V30 3398 H 312.073 -1.62089 3.52631 0
M  V30 3399 H 310.174 -3.30332 1.7237 0
M  V30 3400 H 310.287 -3.15859 3.60236 0
M  V30 3401 H 308.651 -1.75072 1.84992 0
M  V30 3402 H 309.434 -0.92844 3.30507 0
M  V30 3403 N 311.879 -1.3236 -0.855495 0
M  V30 3404 C 312.826 -1.21225 -1.964 0
M  V30 3405 C 313.796 -0.0946204 -1.6583 0
M  V30 3406 O 314.981 -0.27002 -1.8888 0
M  V30 3407 C 312.121 -0.940419 -3.32039 0
M  V30 3408 C 311.234 -2.14276 -3.75113 0
M  V30 3409 C 310.369 -1.80648 -4.9954 0
M  V30 3410 C 309.408 -2.97208 -5.35102 0
M  V30 3411 N 308.545 -2.63678 -6.50706 0
M  V30 3412 H 313.385 -2.16042 -2.05255 0
M  V30 3413 H 310.922 -1.07451 -1.00463 0
M  V30 3414 H 312.88 -0.763311 -4.10158 0
M  V30 3415 H 311.51 -0.0290413 -3.22787 0
M  V30 3416 H 310.562 -2.43017 -2.92655 0
M  V30 3417 H 311.874 -3.01468 -3.97389 0
M  V30 3418 H 311.028 -1.59484 -5.85363 0
M  V30 3419 H 309.767 -0.906678 -4.79198 0
M  V30 3420 H 308.772 -3.19004 -4.47791 0
M  V30 3421 H 309.997 -3.87918 -5.57401 0
M  V30 3422 H 307.943 -1.76238 -6.31883 0
M  V30 3423 H 307.86 -3.444 -6.72997 0
M  V30 3424 H 309.128 -2.45942 -7.39684 0
M  V30 3425 N 313.357 1.07166 -1.15556 0
M  V30 3426 C 314.604 1.79798 -0.931604 0
M  V30 3427 C 314.932 1.8682 0.54115 0
M  V30 3428 O 314.187 1.34942 1.41736 0
M  V30 3429 C 314.486 3.24707 -1.49332 0
M  V30 3430 C 314.152 3.37781 -2.98688 0
M  V30 3431 C 312.814 3.41057 -3.39461 0
M  V30 3432 C 315.166 3.40424 -3.94665 0
M  V30 3433 C 312.494 3.4458 -4.74849 0
M  V30 3434 C 314.846 3.45485 -5.29927 0
M  V30 3435 C 313.51 3.47039 -5.70193 0
M  V30 3436 H 312.78 0.657928 -0.340898 0
M  V30 3437 H 315.427 1.26091 -1.44129 0
M  V30 3438 H 313.732 3.81208 -0.904859 0
M  V30 3439 H 315.429 3.79486 -1.29582 0
M  V30 3440 H 312.019 3.35932 -2.66172 0
M  V30 3441 H 316.203 3.37113 -3.64237 0
M  V30 3442 H 311.459 3.44083 -5.05388 0
M  V30 3443 H 315.633 3.46476 -6.04092 0
M  V30 3444 H 313.26 3.49522 -6.75084 0
M  V30 3445 N 314.835 0.952656 1.25548 0
M  V30 3446 C 316.081 0.607272 1.93494 0
M  V30 3447 C 316.414 -0.853245 1.74452 0
M  V30 3448 O 315.689 -1.61194 1.08843 0
M  V30 3449 C 315.972 0.96435 3.46947 0
M  V30 3450 C 315.825 2.48045 3.75225 0
M  V30 3451 C 317.144 0.487987 4.37386 0
M  V30 3452 H 314.263 0.222096 0.702739 0
M  V30 3453 H 316.905 1.18895 1.48203 0
M  V30 3454 H 315.055 0.469361 3.85654 0
M  V30 3455 H 316.727 3.04905 3.46166 0
M  V30 3456 H 314.97 2.919 3.209 0
M  V30 3457 H 315.641 2.6808 4.82532 0
M  V30 3458 H 318.117 0.912558 4.0597 0
M  V30 3459 H 316.993 0.766547 5.43521 0
M  V30 3460 H 317.254 -0.612063 4.37843 0
M  V30 3461 N 316.313 -1.40141 0.720998 0
M  V30 3462 C 317.561 -2.0039 0.262323 0
M  V30 3463 C 317.882 -1.57469 -1.15015 0
M  V30 3464 O 317.152 -0.816582 -1.78069 0
M  V30 3465 H 315.732 -0.741063 0.093996 0
M  V30 3466 H 318.394 -1.71398 0.927835 0
M  V30 3467 H 317.49 -3.10658 0.299671 0
M  V30 3468 N 317.792 -0.46758 -1.50504 0
M  V30 3469 C 318.74 0.342482 -2.30065 0
M  V30 3470 C 319.734 0.993596 -1.37201 0
M  V30 3471 O 320.94 0.925102 -1.54408 0
M  V30 3472 H 317.315 0.129283 -0.740803 0
M  V30 3473 H 319.286 -0.34899 -2.96352 0
M  V30 3474 C 318.035 1.4139 -3.17654 0
M  V30 3475 H 317.358 0.922264 -3.89017 0
M  V30 3476 H 318.798 1.95335 -3.76325 0
M  V30 3477 C 317.257 2.4139 -2.35016 0
M  V30 3478 O 317.787 3.46586 -2.03079 0
M  V30 3479 N 315.993 2.13021 -1.97662 0
M  V30 3480 H 315.54 1.27499 -2.23834 0
M  V30 3481 H 315.498 2.80164 -1.42673 0
M  V30 3482 N 319.27 1.56325 -0.20005 0
M  V30 3483 C 320.233 2.18084 0.705132 0
M  V30 3484 C 321.233 1.13666 1.1374 0
M  V30 3485 O 322.423 1.39023 1.04968 0
M  V30 3486 C 319.555 2.78689 1.96329 0
M  V30 3487 H 320.748 2.99435 0.167023 0
M  V30 3488 H 318.301 1.56221 0.0495725 0
M  V30 3489 H 319.036 2.0115 2.5438 0
M  V30 3490 H 318.821 3.55133 1.66202 0
M  V30 3491 H 320.311 3.26096 2.60866 0
M  V30 3492 N 320.748 -0.0735177 1.57428 0
M  V30 3493 C 322.164 -0.428264 1.53747 0
M  V30 3494 C 322.364 -1.79272 0.91998 0
M  V30 3495 O 321.42 -2.47051 0.521745 0
M  V30 3496 C 322.733 -0.370914 2.98404 0
M  V30 3497 C 324.281 -0.451224 3.0973 0
M  V30 3498 C 324.756 -0.4238 4.56035 0
M  V30 3499 N 326.247 -0.483925 4.60665 0
M  V30 3500 C 326.982 -0.484891 5.71346 0
M  V30 3501 N 326.478 -0.440775 6.91396 0
M  V30 3502 N 328.271 -0.531319 5.59583 0
M  V30 3503 H 320.422 0.819949 1.95935 0
M  V30 3504 H 322.685 0.307493 0.896745 0
M  V30 3505 H 322.391 0.564956 3.47133 0
M  V30 3506 H 322.265 -1.18176 3.5821 0
M  V30 3507 H 324.652 -1.37752 2.60976 0
M  V30 3508 H 324.733 0.388167 2.52838 0
M  V30 3509 H 324.377 0.498638 5.05446 0
M  V30 3510 H 324.307 -1.2807 5.10789 0
M  V30 3511 H 326.798 -0.522338 3.74273 0
M  V30 3512 H 327.111 -0.44539 7.71515 0
M  V30 3513 H 325.456 -0.40749 6.93804 0
M  V30 3514 H 328.647 -0.563464 4.64696 0
M  V30 3515 H 328.82 -0.528603 6.4584 0
M  V30 3516 N 322.226 -1.5378 -0.344866 0
M  V30 3517 C 323.472 -1.71216 -1.08687 0
M  V30 3518 C 323.805 -0.473281 -1.88345 0
M  V30 3519 O 323.08 0.52968 -1.87149 0
M  V30 3520 C 323.363 -2.97486 -2.02914 0
M  V30 3521 C 323.216 -4.31579 -1.26727 0
M  V30 3522 C 324.535 -3.19422 -3.0275 0
M  V30 3523 H 321.654 -0.62301 -0.393735 0
M  V30 3524 H 324.296 -1.8645 -0.365563 0
M  V30 3525 H 322.446 -2.84629 -2.64421 0
M  V30 3526 H 324.118 -4.56284 -0.67845 0
M  V30 3527 H 322.361 -4.30049 -0.569273 0
M  V30 3528 H 323.032 -5.16106 -1.95803 0
M  V30 3529 H 325.508 -3.316 -2.51357 0
M  V30 3530 H 324.384 -4.09169 -3.65885 0
M  V30 3531 H 324.645 -2.35656 -3.74057 0
M  V30 3532 N 323.704 0.605807 -1.45491 0
M  V30 3533 C 324.614 1.74466 -1.56839 0
M  V30 3534 C 325.63 1.68006 -0.452772 0
M  V30 3535 O 326.806 1.8833 -0.713708 0
M  V30 3536 C 323.871 3.10931 -1.53371 0
M  V30 3537 C 322.932 3.28832 -2.75986 0
M  V30 3538 C 322.165 4.58787 -2.72673 0
M  V30 3539 O 322.388 5.4122 -1.80102 0
M  V30 3540 O 321.322 4.79438 -3.63899 0
M  V30 3541 H 325.148 1.67843 -2.53106 0
M  V30 3542 H 322.733 0.770108 -1.28022 0
M  V30 3543 H 324.615 3.92233 -1.54051 0
M  V30 3544 H 323.29 3.18042 -0.602572 0
M  V30 3545 H 322.197 2.47112 -2.80867 0
M  V30 3546 H 323.53 3.26599 -3.68231 0
M  V30 3547 N 325.182 1.32811 0.848464 0
M  V30 3548 C 326.412 1.26556 1.63301 0
M  V30 3549 C 326.82 -0.1676 1.88456 0
M  V30 3550 O 326.163 -1.11713 1.45828 0
M  V30 3551 C 326.225 1.96202 3.01239 0
M  V30 3552 C 325.889 3.45528 2.99098 0
M  V30 3553 C 326.886 4.40903 2.75501 0
M  V30 3554 C 324.571 3.87558 3.19537 0
M  V30 3555 C 326.565 5.76282 2.72356 0
M  V30 3556 C 324.252 5.23044 3.16019 0
M  V30 3557 C 325.25 6.17217 2.92458 0
M  V30 3558 O 324.938 7.50223 2.88825 0
M  V30 3559 H 324.67 0.43771 0.515156 0
M  V30 3560 H 327.224 1.7559 1.0657 0
M  V30 3561 H 325.454 1.41746 3.59785 0
M  V30 3562 H 327.143 1.83573 3.62016 0
M  V30 3563 H 327.909 4.09756 2.5947 0
M  V30 3564 H 323.788 3.14674 3.369 0
M  V30 3565 H 327.332 6.4976 2.53886 0
M  V30 3566 H 323.229 5.53818 3.31596 0
M  V30 3567 H 323.997 7.59657 3.04735 0
M  V30 3568 N 326.66 -1.06551 1.16123 0
M  V30 3569 C 327.937 -1.76097 0.85142 0
M  V30 3570 C 328.317 -2.00802 -0.6513 0
M  V30 3571 O 327.665 -1.63302 -1.59827 0
M  V30 3572 C 327.875 -3.06384 1.67122 0
M  V30 3573 C 329.223 -3.80585 1.88255 0
M  V30 3574 O 330.247 -3.16218 1.63966 0
M  V30 3575 O 329.106 -4.96212 2.2899 0
M  V30 3576 H 326.2 -0.765102 0.313923 0
M  V30 3577 H 328.746 -1.12844 1.26745 0
M  V30 3578 H 327.518 -2.84071 2.69108 0
M  V30 3579 H 327.141 -3.77371 1.25206 0
M  V30 3580 N 328.138 -0.959301 -1.25041 0
M  V30 3581 C 329.07 -0.440543 -2.24926 0
M  V30 3582 C 330.083 0.446131 -1.56568 0
M  V30 3583 O 331.272 0.253657 -1.76689 0
M  V30 3584 C 328.372 0.38412 -3.36716 0
M  V30 3585 C 327.545 -0.490658 -4.34639 0
M  V30 3586 C 326.604 0.276587 -5.25473 0
M  V30 3587 O 325.63 -0.326614 -5.68262 0
M  V30 3588 N 326.832 1.56844 -5.5891 0
M  V30 3589 H 329.597 -1.29931 -2.70071 0
M  V30 3590 H 327.158 -0.830181 -1.38995 0
M  V30 3591 H 329.15 0.905228 -3.94446 0
M  V30 3592 H 327.72 1.14377 -2.90924 0
M  V30 3593 H 326.94 -1.19282 -3.7572 0
M  V30 3594 H 328.228 -1.08756 -4.97041 0
M  V30 3595 H 327.626 2.08036 -5.26059 0
M  V30 3596 H 326.183 2.03541 -6.19205 0
M  V30 3597 N 329.616 1.39756 -0.72842 0
M  V30 3598 C 330.549 2.28176 -0.0330172 0
M  V30 3599 C 331.527 1.44035 0.754501 0
M  V30 3600 O 332.711 1.73434 0.738445 0
M  V30 3601 C 329.838 3.24795 0.960504 0
M  V30 3602 C 328.884 4.25693 0.262264 0
M  V30 3603 S 329.717 5.25714 -1.01906 0
M  V30 3604 C 330.873 6.25894 -0.0279717 0
M  V30 3605 H 331.106 2.86807 -0.78287 0
M  V30 3606 H 328.639 1.45382 -0.519951 0
M  V30 3607 H 330.597 3.80983 1.52846 0
M  V30 3608 H 329.258 2.65196 1.68315 0
M  V30 3609 H 328.451 4.93699 1.01379 0
M  V30 3610 H 328.053 3.7327 -0.233482 0
M  V30 3611 H 330.345 6.72585 0.814621 0
M  V30 3612 H 331.288 7.04876 -0.67499 0
M  V30 3613 H 331.696 5.63466 0.341489 0
M  V30 3614 N 331.094 0.475555 1.50254 0
M  V30 3615 C 332.041 -0.316293 2.28622 0
M  V30 3616 C 333.011 -0.983227 1.33873 0
M  V30 3617 O 334.196 -0.994805 1.62814 0
M  V30 3618 C 331.336 -1.38975 3.1588 0
M  V30 3619 C 330.449 -0.737146 4.25664 0
M  V30 3620 C 329.584 -1.78887 5.00173 0
M  V30 3621 C 328.623 -1.11676 6.01826 0
M  V30 3622 N 327.76 -2.11154 6.69596 0
M  V30 3623 H 332.6 0.358297 2.95838 0
M  V30 3624 H 330.137 0.188541 1.45887 0
M  V30 3625 H 332.095 -2.02383 3.64825 0
M  V30 3626 H 330.725 -2.03344 2.50701 0
M  V30 3627 H 329.777 0.0096065 3.80399 0
M  V30 3628 H 331.089 -0.206816 4.98371 0
M  V30 3629 H 330.243 -2.49865 5.52859 0
M  V30 3630 H 328.982 -2.35302 4.27182 0
M  V30 3631 H 327.987 -0.392633 5.48396 0
M  V30 3632 H 329.212 -0.55945 6.76792 0
M  V30 3633 H 327.158 -2.66577 5.99394 0
M  V30 3634 H 327.075 -1.63118 7.38193 0
M  V30 3635 H 328.343 -2.81497 7.26897 0
M  V30 3636 N 332.573 -1.56217 0.208337 0
M  V30 3637 C 333.536 -2.18455 -0.693557 0
M  V30 3638 C 334.536 -1.14268 -1.13135 0
M  V30 3639 O 335.726 -1.39577 -1.0423 0
M  V30 3640 C 332.858 -2.79727 -1.94848 0
M  V30 3641 H 334.051 -2.99519 -0.15114 0
M  V30 3642 H 331.604 -1.56245 -0.041287 0
M  V30 3643 H 332.339 -2.02497 -2.53309 0
M  V30 3644 H 332.124 -3.56009 -1.64316 0
M  V30 3645 H 333.614 -3.27475 -2.59133 0
M  V30 3646 N 334.051 0.0651679 -1.57465 0
M  V30 3647 C 335.298 0.763063 -1.87573 0
M  V30 3648 C 335.626 1.77242 -0.800961 0
M  V30 3649 O 334.881 1.94651 0.202316 0
M  V30 3650 C 335.18 1.50081 -3.24362 0
M  V30 3651 C 334.846 0.630816 -4.46466 0
M  V30 3652 C 333.508 0.391082 -4.79608 0
M  V30 3653 C 335.86 0.0279465 -5.21193 0
M  V30 3654 C 333.188 -0.460894 -5.84887 0
M  V30 3655 C 335.54 -0.811522 -6.27373 0
M  V30 3656 C 334.204 -1.06106 -6.59013 0
M  V30 3657 H 333.474 0.279224 -0.686378 0
M  V30 3658 H 336.121 0.0236726 -1.91485 0
M  V30 3659 H 334.426 2.31258 -3.16271 0
M  V30 3660 H 336.123 2.04571 -3.44894 0
M  V30 3661 H 332.713 0.8278 -4.2053 0
M  V30 3662 H 336.897 0.200262 -4.95896 0
M  V30 3663 H 332.153 -0.662907 -6.07796 0
M  V30 3664 H 336.327 -1.28537 -6.84435 0
M  V30 3665 H 333.954 -1.723 -7.40417 0
M  V30 3666 N 335.529 1.53961 0.336706 0
M  V30 3667 C 336.439 1.85432 1.43708 0
M  V30 3668 C 337.455 0.745053 1.57242 0
M  V30 3669 O 338.631 1.03804 1.72588 0
M  V30 3670 C 335.696 2.06349 2.78605 0
M  V30 3671 C 334.757 3.30191 2.74358 0
M  V30 3672 C 333.99 3.50101 4.02822 0
M  V30 3673 O 334.213 2.7371 5.00439 0
M  V30 3674 O 333.147 4.43547 4.06878 0
M  V30 3675 H 336.973 2.78975 1.20028 0
M  V30 3676 H 334.558 1.39701 0.52952 0
M  V30 3677 H 336.44 2.21513 3.58483 0
M  V30 3678 H 335.115 1.15995 3.02203 0
M  V30 3679 H 334.022 3.20425 1.93078 0
M  V30 3680 H 335.355 4.2056 2.55715 0
M  V30 3681 N 337.007 -0.598083 1.45811 0
M  V30 3682 C 338.255 -1.35413 1.50026 0
M  V30 3683 C 338.576 -1.94444 0.147177 0
M  V30 3684 O 337.846 -1.77701 -0.824571 0
M  V30 3685 H 336.426 -0.502727 0.552517 0
M  V30 3686 H 339.088 -0.701606 1.81834 0
M  V30 3687 H 338.184 -2.16871 2.2444 0
M  V30 3688 N 338.485 -1.33259 -0.841409 0
M  V30 3689 C 339.448 -1.23221 -1.9326 0
M  V30 3690 C 340.448 -0.151895 -1.60081 0
M  V30 3691 O 341.638 -0.403246 -1.69468 0
M  V30 3692 C 338.77 -0.898123 -3.28856 0
M  V30 3693 H 339.963 -2.2021 -2.03587 0
M  V30 3694 H 337.516 -1.17281 -1.03319 0
M  V30 3695 H 338.251 0.0693841 -3.24226 0
M  V30 3696 H 338.036 -1.67934 -3.54317 0
M  V30 3697 H 339.526 -0.852563 -4.08805 0
M  V30 3698 N 339.963 1.05934 -1.16686 0
M  V30 3699 C 341.24 1.75643 -0.860747 0
M  V30 3700 C 341.62 2.01144 0.640641 0
M  V30 3701 O 340.968 1.64147 1.58959 0
M  V30 3702 C 341.178 3.05493 -1.68745 0
M  V30 3703 C 342.526 3.79581 -1.90271 0
M  V30 3704 O 343.55 3.15344 -1.65641 0
M  V30 3705 O 342.409 4.9499 -2.31618 0
M  V30 3706 H 339.503 0.763426 -0.317977 0
M  V30 3707 H 342.049 1.1217 -1.27342 0
M  V30 3708 H 340.821 2.8264 -2.70611 0
M  V30 3709 H 340.444 3.76702 -1.27206 0
M  V30 3710 N 341.441 0.965919 1.2453 0
M  V30 3711 C 342.688 0.626831 1.92554 0
M  V30 3712 C 343.016 -0.837739 1.75534 0
M  V30 3713 O 342.271 -1.61793 1.10098 0
M  V30 3714 C 342.57 0.945428 3.44669 0
M  V30 3715 C 342.236 2.39785 3.81856 0
M  V30 3716 C 340.898 2.79483 3.91718 0
M  V30 3717 C 343.25 3.34055 4.00071 0
M  V30 3718 C 340.578 4.12496 4.1721 0
M  V30 3719 C 342.93 4.66694 4.27059 0
M  V30 3720 C 341.594 5.06172 4.3514 0
M  V30 3721 H 340.864 0.229374 0.704605 0
M  V30 3722 H 343.511 1.21707 1.4785 0
M  V30 3723 H 341.816 0.272926 3.90848 0
M  V30 3724 H 343.513 0.661484 3.95507 0
M  V30 3725 H 340.103 2.08003 3.74743 0
M  V30 3726 H 344.287 3.04571 3.91855 0
M  V30 3727 H 339.543 4.42709 4.21685 0
M  V30 3728 H 343.717 5.3971 4.40097 0
M  V30 3729 H 341.344 6.09262 4.54646 0
M  V30 3730 N 342.919 -1.39368 0.735821 0
M  V30 3731 C 344.168 -1.99733 0.281004 0
M  V30 3732 C 344.481 -1.59055 -1.13846 0
M  V30 3733 O 345.687 -2.12262 -1.69284 0
M  V30 3734 C 344.143 -3.57057 0.451462 0
M  V30 3735 C 343.751 -4.06697 1.87886 0
M  V30 3736 C 345.495 -4.2446 0.0584616 0
M  V30 3737 C 343.402 -5.56598 1.99883 0
M  V30 3738 H 342.332 -0.747163 0.101311 0
M  V30 3739 H 344.983 -1.59357 0.909819 0
M  V30 3740 H 343.365 -3.95234 -0.246263 0
M  V30 3741 H 344.539 -3.79853 2.60861 0
M  V30 3742 H 342.854 -3.5196 2.22515 0
M  V30 3743 H 345.451 -5.34549 0.127099 0
M  V30 3744 H 345.794 -4.04444 -0.986433 0
M  V30 3745 H 346.327 -3.9146 0.707374 0
M  V30 3746 H 343.066 -5.81494 3.02564 0
M  V30 3747 H 342.586 -5.85242 1.31346 0
M  V30 3748 H 344.265 -6.22022 1.78039 0
M  V30 3749 N 344.397 -0.483516 -1.5 0
M  V30 3750 C 345.627 0.0643896 -2.065 0
M  V30 3751 C 346.035 1.32949 -1.34615 0
M  V30 3752 O 345.378 1.79003 -0.412756 0
M  V30 3753 C 345.44 0.405983 -3.572 0
M  V30 3754 C 345.104 -0.758875 -4.50655 0
M  V30 3755 C 346.101 -1.64445 -4.93208 0
M  V30 3756 C 343.786 -0.952725 -4.93182 0
M  V30 3757 C 345.78 -2.70818 -5.77006 0
M  V30 3758 C 343.467 -2.01966 -5.76761 0
M  V30 3759 C 344.465 -2.89574 -6.18576 0
M  V30 3760 O 344.153 -3.94429 -7.00486 0
M  V30 3761 H 343.885 -0.00934786 -0.675935 0
M  V30 3762 H 346.439 -0.674959 -1.93993 0
M  V30 3763 H 344.669 1.19869 -3.67652 0
M  V30 3764 H 346.358 0.890433 -3.96013 0
M  V30 3765 H 347.124 -1.50643 -4.61012 0
M  V30 3766 H 343.003 -0.280247 -4.60147 0
M  V30 3767 H 346.547 -3.3923 -6.09565 0
M  V30 3768 H 342.444 -2.1577 -6.0837 0
M  V30 3769 H 343.212 -3.91568 -7.1876 0
M  V30 3770 N 345.875 1.56104 -0.216619 0
M  V30 3771 C 346.838 2.18819 0.681962 0
M  V30 3772 C 347.838 1.14866 1.12528 0
M  V30 3773 O 349.028 1.40128 1.03488 0
M  V30 3774 C 346.16 2.80756 1.93362 0
M  V30 3775 H 347.353 2.99595 0.135254 0
M  V30 3776 H 344.906 1.56265 0.0330003 0
M  V30 3777 H 345.641 2.03837 2.52232 0
M  V30 3778 H 345.426 3.56876 1.62426 0
M  V30 3779 H 346.916 3.28844 2.57393 0
M  V30 3780 N 347.353 -0.0568162 1.57498 0
M  V30 3781 C 348.3 -1.06591 2.04712 0
M  V30 3782 C 349.27 -1.3758 0.930644 0
M  V30 3783 O 350.455 -1.48392 1.19935 0
M  V30 3784 C 347.595 -2.3701 2.50839 0
M  V30 3785 C 346.708 -2.12421 3.76167 0
M  V30 3786 C 345.843 -3.36511 4.11015 0
M  V30 3787 C 344.882 -3.07353 5.2934 0
M  V30 3788 N 344.019 -4.23816 5.59754 0
M  V30 3789 H 348.859 -0.65631 2.90683 0
M  V30 3790 H 346.396 -0.312481 1.43743 0
M  V30 3791 H 348.354 -3.13175 2.7564 0
M  V30 3792 H 346.984 -2.75744 1.67825 0
M  V30 3793 H 346.036 -1.2688 3.58616 0
M  V30 3794 H 347.348 -1.86894 4.62463 0
M  V30 3795 H 346.502 -4.21062 4.36797 0
M  V30 3796 H 345.241 -3.65128 3.23315 0
M  V30 3797 H 344.246 -2.212 5.03339 0
M  V30 3798 H 345.471 -2.80043 6.1867 0
M  V30 3799 H 343.417 -4.52436 4.75014 0
M  V30 3800 H 343.334 -4.01614 6.40501 0
M  V30 3801 H 344.602 -5.0932 5.90096 0
M  V30 3802 N 348.832 -1.54138 -0.328536 0
M  V30 3803 C 349.78 -1.83894 -1.42428 0
M  V30 3804 C 350.774 -0.710478 -1.53781 0
M  V30 3805 O 351.98 -0.894062 -1.56226 0
M  V30 3806 H 348.355 -0.582837 -0.475189 0
M  V30 3807 H 350.326 -2.75537 -1.14552 0
M  V30 3808 C 349.075 -2.07866 -2.78724 0
M  V30 3809 H 348.398 -2.94158 -2.7076 0
M  V30 3810 H 349.838 -2.32644 -3.54476 0
M  V30 3811 C 348.297 -0.868689 -3.25508 0
M  V30 3812 O 348.827 -0.0754908 -4.01629 0
M  V30 3813 N 347.033 -0.681711 -2.82491 0
M  V30 3814 H 346.58 -1.32838 -2.20708 0
M  V30 3815 H 346.538 0.126374 -3.14146 0
M  V30 3816 N 350.31 0.590341 -1.46126 0
M  V30 3817 C 351.556 1.34874 -1.52252 0
M  V30 3818 C 351.911 1.91658 -0.168807 0
M  V30 3819 O 351.204 1.73093 0.821556 0
M  V30 3820 C 351.398 2.5032 -2.55097 0
M  V30 3821 C 351.227 2.04843 -4.00337 0
M  V30 3822 C 349.997 1.90213 -4.68132 0
M  V30 3823 C 352.195 1.61267 -4.88362 0
M  V30 3824 N 350.177 1.38727 -5.9802 0
M  V30 3825 C 351.548 1.21319 -6.08015 0
M  V30 3826 C 353.603 1.49015 -4.75078 0
M  V30 3827 C 352.306 0.7034 -7.15852 0
M  V30 3828 C 354.332 0.994401 -5.8298 0
M  V30 3829 C 353.694 0.604659 -7.018 0
M  V30 3830 H 349.793 0.486803 -0.612002 0
M  V30 3831 H 352.377 0.673007 -1.82698 0
M  V30 3832 H 350.548 3.15466 -2.26574 0
M  V30 3833 H 352.28 3.1725 -2.51266 0
M  V30 3834 H 349.035 2.11927 -4.23537 0
M  V30 3835 H 349.459 1.15168 -6.67132 0
M  V30 3836 H 354.101 1.77768 -3.83612 0
M  V30 3837 H 351.819 0.403446 -8.07092 0
M  V30 3838 H 355.405 0.903621 -5.7474 0
M  V30 3839 H 354.285 0.226963 -7.83871 0
M  V30 3840 N 351.788 1.33704 0.83433 0
M  V30 3841 C 352.751 1.24244 1.92603 0
M  V30 3842 C 353.751 0.160383 1.59998 0
M  V30 3843 O 354.941 0.412228 1.69252 0
M  V30 3844 C 352.073 0.91555 3.28376 0
M  V30 3845 H 353.266 2.21287 2.02416 0
M  V30 3846 H 350.819 1.17827 1.02696 0
M  V30 3847 H 351.554 -0.0521886 3.24258 0
M  V30 3848 H 351.339 1.69811 3.53422 0
M  V30 3849 H 352.829 0.874231 4.08347 0
M  V30 3850 N 353.266 -1.05314 1.17247 0
M  V30 3851 C 354.229 -2.112 0.890357 0
M  V30 3852 C 355.229 -1.60359 -0.118943 0
M  V30 3853 O 356.419 -1.73833 0.113086 0
M  V30 3854 C 353.551 -3.39266 0.333422 0
M  V30 3855 H 354.744 -2.37659 1.82916 0
M  V30 3856 H 352.297 -1.21538 0.982758 0
M  V30 3857 H 353.032 -3.18462 -0.612587 0
M  V30 3858 H 352.817 -3.77477 1.06082 0
M  V30 3859 H 354.307 -4.17315 0.154322 0
M  V30 3860 N 354.744 -0.972509 -1.24016 0
M  V30 3861 C 355.974 -0.653853 -1.9598 0
M  V30 3862 C 356.382 0.781801 -1.72292 0
M  V30 3863 O 355.725 1.53677 -1.00644 0
M  V30 3864 C 355.787 -0.854608 -3.49194 0
M  V30 3865 C 355.451 -2.27082 -3.96589 0
M  V30 3866 C 356.448 -3.24892 -4.05883 0
M  V30 3867 C 354.133 -2.5998 -4.29786 0
M  V30 3868 C 356.127 -4.53684 -4.47716 0
M  V30 3869 C 353.814 -3.88997 -4.71301 0
M  V30 3870 C 354.812 -4.85661 -4.80232 0
M  V30 3871 O 354.5 -6.12376 -5.20818 0
M  V30 3872 H 354.232 -0.242572 -0.630979 0
M  V30 3873 H 356.786 -1.30431 -1.58673 0
M  V30 3874 H 355.016 -0.146985 -3.86421 0
M  V30 3875 H 356.705 -0.534311 -4.02368 0
M  V30 3876 H 357.471 -3.00805 -3.80449 0
M  V30 3877 H 353.35 -1.85457 -4.22051 0
M  V30 3878 H 356.894 -5.29135 -4.54601 0
M  V30 3879 H 352.791 -4.12882 -4.96184 0
M  V30 3880 H 353.559 -6.16013 -5.38953 0
M  V30 3881 N 356.222 1.38976 -0.743202 0
M  V30 3882 C 357.45 2.04636 -0.30525 0
M  V30 3883 C 357.865 1.56044 1.06281 0
M  V30 3884 O 357.222 0.728921 1.67311 0
M  V30 3885 C 357.273 3.60193 -0.307177 0
M  V30 3886 O 356.994 4.06998 -1.62124 0
M  V30 3887 C 358.495 4.4306 0.145928 0
M  V30 3888 H 355.715 0.65788 -0.132041 0
M  V30 3889 H 358.259 1.77866 -1.00915 0
M  V30 3890 H 356.414 3.85835 0.347898 0
M  V30 3891 H 356.828 5.01371 -1.54036 0
M  V30 3892 H 358.302 5.51921 0.0934183 0
M  V30 3893 H 358.779 4.22706 1.19231 0
M  V30 3894 H 359.385 4.22584 -0.479886 0
M  V30 3895 N 357.7 0.491464 1.49741 0
M  V30 3896 C 358.948 -0.0563141 2.02022 0
M  V30 3897 C 359.269 -1.38363 1.37407 0
M  V30 3898 O 358.539 -1.88702 0.526166 0
M  V30 3899 H 357.119 -0.0238014 0.746621 0
M  V30 3900 H 359.781 0.646533 1.83864 0
M  V30 3901 H 358.877 -0.192967 3.11503 0
M  V30 3902 N 359.178 -1.55987 0.224894 0
M  V30 3903 C 360.455 -1.90232 -0.455083 0
M  V30 3904 C 360.835 -1.14269 -1.77499 0
M  V30 3905 O 360.183 -0.253079 -2.27094 0
M  V30 3906 C 360.393 -3.42993 -0.644758 0
M  V30 3907 C 361.741 -4.13821 -0.950669 0
M  V30 3908 O 362.765 -3.4861 -0.731423 0
M  V30 3909 O 361.624 -5.29128 -1.36695 0
M  V30 3910 H 358.718 -0.79108 -0.241084 0
M  V30 3911 H 361.264 -1.67581 0.267327 0
M  V30 3912 H 360.036 -3.90252 0.28613 0
M  V30 3913 H 359.659 -3.71434 -1.41853 0
M  V30 3914 N 360.656 0.0484629 -1.57525 0
M  V30 3915 C 361.604 1.07359 -2.06341 0
M  V30 3916 C 362.598 1.3865 -0.973269 0
M  V30 3917 O 363.804 1.37783 -1.15827 0
M  V30 3918 H 360.179 0.363662 -0.65822 0
M  V30 3919 H 362.15 0.635916 -2.91545 0
M  V30 3920 C 360.899 2.37198 -2.54229 0
M  V30 3921 H 360.222 2.13977 -3.37719 0
M  V30 3922 H 361.662 3.07319 -2.92115 0
M  V30 3923 C 360.121 3.04805 -1.43511 0
M  V30 3924 O 360.651 3.93848 -0.79034 0
M  V30 3925 N 358.857 2.65811 -1.17444 0
M  V30 3926 H 358.404 1.93488 -1.70059 0
M  V30 3927 H 358.362 3.11366 -0.435737 0
M  V30 3928 N 362.134 1.5431 0.320358 0
M  V30 3929 C 363.364 1.7638 1.07582 0
M  V30 3930 C 363.772 0.513944 1.82086 0
M  V30 3931 O 363.115 -0.525123 1.76035 0
M  V30 3932 C 363.177 2.9055 2.1171 0
M  V30 3933 C 362.841 4.2934 1.56575 0
M  V30 3934 C 363.838 5.10077 1.00586 0
M  V30 3935 C 361.523 4.75893 1.60722 0
M  V30 3936 C 363.517 6.35477 0.494756 0
M  V30 3937 C 361.204 6.0126 1.09224 0
M  V30 3938 C 362.202 6.80886 0.53696 0
M  V30 3939 O 361.89 8.03894 0.0297371 0
M  V30 3940 H 361.622 0.592369 0.325692 0
M  V30 3941 H 364.176 2.02019 0.37116 0
M  V30 3942 H 362.406 2.60489 2.85801 0
M  V30 3943 H 364.095 3.00373 2.73003 0
M  V30 3944 H 364.861 4.75265 0.966869 0
M  V30 3945 H 360.74 4.13957 2.02882 0
M  V30 3946 H 364.284 6.97574 0.0606842 0
M  V30 3947 H 360.181 6.35562 1.12831 0
M  V30 3948 H 360.949 8.18372 0.14486 0
M  V30 3949 N 363.613 -0.582584 1.46437 0
M  V30 3950 C 364.861 -1.33814 1.51453 0
M  V30 3951 C 365.182 -1.94277 0.167792 0
M  V30 3952 O 364.452 -1.78566 -0.805677 0
M  V30 3953 H 363.032 -0.496838 0.557818 0
M  V30 3954 H 365.694 -0.682281 1.82568 0
M  V30 3955 H 364.79 -2.14479 2.26728 0
M  V30 3956 N 365.091 -1.34144 -0.827227 0
M  V30 3957 C 366.023 -1.21206 -1.9453 0
M  V30 3958 C 367.036 -0.140176 -1.62195 0
M  V30 3959 O 368.225 -0.391647 -1.7415 0
M  V30 3960 C 365.325 -0.839141 -3.28347 0
M  V30 3961 C 364.498 -2.0051 -3.88734 0
M  V30 3962 C 363.557 -1.61128 -5.00923 0
M  V30 3963 O 362.583 -2.32726 -5.19449 0
M  V30 3964 N 363.785 -0.522958 -5.7814 0
M  V30 3965 H 366.55 -2.17525 -2.06162 0
M  V30 3966 H 364.111 -1.27043 -1.00358 0
M  V30 3967 H 366.103 -0.557556 -4.00841 0
M  V30 3968 H 364.673 0.0337293 -3.12582 0
M  V30 3969 H 363.893 -2.45166 -3.08686 0
M  V30 3970 H 365.181 -2.78498 -4.25812 0
M  V30 3971 H 364.579 0.0723518 -5.65654 0
M  V30 3972 H 363.136 -0.301089 -6.51104 0
M  V30 3973 N 366.569 1.04691 -1.17803 0
M  V30 3974 C 367.818 1.77176 -0.963931 0
M  V30 3975 C 368.131 1.88888 0.508015 0
M  V30 3976 O 369.337 2.58164 0.840465 0
M  V30 3977 C 367.793 3.18518 -1.67555 0
M  V30 3978 C 367.401 3.14919 -3.18637 0
M  V30 3979 C 369.145 3.95424 -1.54402 0
M  V30 3980 C 367.052 4.51081 -3.82466 0
M  V30 3981 H 365.982 0.664116 -0.357023 0
M  V30 3982 H 368.633 1.17303 -1.4111 0
M  V30 3983 H 367.015 3.78748 -1.15613 0
M  V30 3984 H 368.189 2.64178 -3.77554 0
M  V30 3985 H 366.504 2.51512 -3.31859 0
M  V30 3986 H 369.101 4.96106 -1.99456 0
M  V30 3987 H 369.444 4.13343 -0.495329 0
M  V30 3988 H 369.977 3.41754 -2.0359 0
M  V30 3989 H 366.716 4.38368 -4.87354 0
M  V30 3990 H 366.236 5.01951 -3.28337 0
M  V30 3991 H 367.915 5.2001 -3.84965 0
M  V30 3992 N 368.047 0.979072 1.23499 0
M  V30 3993 C 368.977 0.537606 2.27227 0
M  V30 3994 C 369.958 -0.428539 1.64613 0
M  V30 3995 O 371.143 -0.322191 1.91509 0
M  V30 3996 C 368.273 -0.162052 3.46922 0
M  V30 3997 C 367.227 0.721242 4.21879 0
M  V30 3998 C 366.553 -0.110555 5.34586 0
M  V30 3999 C 367.853 2.01141 4.82016 0
M  V30 4000 H 369.547 1.40462 2.64406 0
M  V30 4001 H 367.093 0.67684 1.27102 0
M  V30 4002 H 369.046 -0.482192 4.18632 0
M  V30 4003 H 367.77 -1.06351 3.08799 0
M  V30 4004 H 366.429 1.02482 3.51984 0
M  V30 4005 H 366.077 -1.0125 4.92704 0
M  V30 4006 H 365.777 0.477325 5.85658 0
M  V30 4007 H 367.301 -0.425107 6.09118 0
M  V30 4008 H 368.715 1.75612 5.45741 0
M  V30 4009 H 367.112 2.54695 5.43369 0
M  V30 4010 H 368.182 2.69909 4.02836 0
M  V30 4011 N 369.525 -1.3858 0.750561 0
M  V30 4012 C 370.75 -2.04997 0.314812 0
M  V30 4013 C 371.175 -1.56235 -1.04749 0
M  V30 4014 O 370.533 -0.712981 -1.66692 0
M  V30 4015 C 370.581 -3.58961 0.343415 0
M  V30 4016 O 369.685 -4.07025 -0.663628 0
M  V30 4017 H 369.026 -0.649081 0.139962 0
M  V30 4018 H 371.556 -1.77313 1.02084 0
M  V30 4019 H 371.566 -4.07542 0.193233 0
M  V30 4020 H 370.241 -3.93811 1.33738 0
M  V30 4021 H 368.818 -3.6982 -0.478307 0
M  V30 4022 N 371.003 -0.499398 -1.49478 0
M  V30 4023 C 372.231 0.0425456 -2.06856 0
M  V30 4024 C 372.646 1.30964 -1.35992 0
M  V30 4025 O 372.003 1.77172 -0.437762 0
M  V30 4026 C 372.054 0.301735 -3.60239 0
M  V30 4027 O 371.775 -0.915127 -4.28436 0
M  V30 4028 C 373.276 0.887499 -4.34325 0
M  V30 4029 H 370.496 -0.0197482 -0.670709 0
M  V30 4030 H 373.04 -0.696297 -1.92281 0
M  V30 4031 H 371.195 0.990556 -3.74522 0
M  V30 4032 H 371.609 -0.676993 -5.20113 0
M  V30 4033 H 373.083 1.01845 -5.42523 0
M  V30 4034 H 373.56 1.88488 -3.96698 0
M  V30 4035 H 374.166 0.236196 -4.24644 0
M  V30 4036 N 372.481 1.55866 -0.233164 0
M  V30 4037 C 373.758 1.90471 0.444988 0
M  V30 4038 C 374.138 1.15209 1.7689 0
M  V30 4039 O 373.486 0.265119 2.26957 0
M  V30 4040 C 373.696 3.4333 0.626559 0
M  V30 4041 C 375.044 4.14319 0.92871 0
M  V30 4042 O 376.068 3.48993 0.712926 0
M  V30 4043 O 374.927 5.29846 1.33887 0
M  V30 4044 H 372.021 0.792347 0.236885 0
M  V30 4045 H 374.567 1.67437 -0.276211 0
M  V30 4046 H 373.339 3.90095 -0.306822 0
M  V30 4047 H 372.962 3.72181 1.39881 0
M  V30 4048 N 373.959 -0.0401083 1.57549 0
M  V30 4049 C 375.375 -0.395556 1.54621 0
M  V30 4050 C 375.575 -1.77281 0.957799 0
M  V30 4051 O 374.631 -2.45888 0.574031 0
M  V30 4052 C 375.944 -0.307535 2.99123 0
M  V30 4053 C 377.492 -0.385425 3.10618 0
M  V30 4054 C 377.967 -0.326973 4.56831 0
M  V30 4055 N 379.458 -0.386102 4.61588 0
M  V30 4056 C 380.193 -0.363591 5.72246 0
M  V30 4057 N 379.689 -0.29402 6.92176 0
M  V30 4058 N 381.482 -0.412503 5.60584 0
M  V30 4059 H 373.633 0.861325 1.94152 0
M  V30 4060 H 375.896 0.326445 0.890021 0
M  V30 4061 H 375.602 0.638461 3.45856 0
M  V30 4062 H 375.476 -1.10552 3.60636 0
M  V30 4063 H 377.863 -1.32185 2.63839 0
M  V30 4064 H 377.944 0.44171 2.51957 0
M  V30 4065 H 377.588 0.605738 5.04275 0
M  V30 4066 H 377.518 -1.17207 5.13391 0
M  V30 4067 H 380.009 -0.442832 3.75296 0
M  V30 4068 H 380.322 -0.28164 7.72287 0
M  V30 4069 H 378.667 -0.260232 6.94513 0
M  V30 4070 H 381.858 -0.464769 4.65787 0
M  V30 4071 H 382.031 -0.391492 6.46816 0
M  V30 4072 N 375.437 -1.54477 -0.31217 0
M  V30 4073 C 376.385 -1.85395 -1.40469 0
M  V30 4074 C 377.379 -0.726749 -1.53019 0
M  V30 4075 O 378.585 -0.910582 -1.55269 0
M  V30 4076 H 374.96 -0.587845 -0.46898 0
M  V30 4077 H 376.931 -2.76736 -1.11623 0
M  V30 4078 C 375.68 -2.10811 -2.76503 0
M  V30 4079 H 375.003 -2.97014 -2.67625 0
M  V30 4080 H 376.443 -2.3639 -3.51988 0
M  V30 4081 C 374.902 -0.903165 -3.24568 0
M  V30 4082 O 375.432 -0.118085 -4.01526 0
M  V30 4083 N 373.638 -0.711634 -2.81752 0
M  V30 4084 H 373.185 -1.35171 -2.19286 0
M  V30 4085 H 373.143 0.0930473 -3.14262 0
M  V30 4086 N 376.915 0.57481 -1.46744 0
M  V30 4087 C 378.161 1.33251 -1.53674 0
M  V30 4088 C 378.516 1.91468 -0.189125 0
M  V30 4089 O 377.809 1.73954 0.803151 0
M  V30 4090 C 378.003 2.476 -2.57738 0
M  V30 4091 C 377.832 2.00586 -4.02487 0
M  V30 4092 C 376.602 1.85237 -4.70123 0
M  V30 4093 C 378.8 1.56078 -4.90045 0
M  V30 4094 N 376.782 1.32377 -5.99458 0
M  V30 4095 C 378.153 1.14863 -6.09267 0
M  V30 4096 C 380.208 1.43968 -4.76632 0
M  V30 4097 C 378.911 0.627435 -7.16558 0
M  V30 4098 C 380.937 0.932512 -5.84002 0
M  V30 4099 C 380.299 0.53019 -7.02402 0
M  V30 4100 H 376.398 0.480284 -0.617131 0
M  V30 4101 H 378.982 0.653592 -1.83402 0
M  V30 4102 H 377.153 3.13045 -2.29907 0
M  V30 4103 H 378.885 3.14567 -2.54616 0
M  V30 4104 H 375.64 2.07423 -4.25761 0
M  V30 4105 H 376.064 1.08085 -6.68316 0
M  V30 4106 H 380.706 1.73689 -3.85476 0
M  V30 4107 H 378.424 0.317821 -8.07475 0
M  V30 4108 H 382.01 0.842611 -5.75666 0
M  V30 4109 H 380.89 0.14381 -7.84068 0
M  V30 4110 N 378.394 1.34581 0.820102 0
M  V30 4111 C 379.622 1.3018 1.60813 0
M  V30 4112 C 380.037 -0.123551 1.88395 0
M  V30 4113 O 379.394 -1.07148 1.47735 0
M  V30 4114 C 379.445 2.09312 2.94739 0
M  V30 4115 O 379.166 3.46288 2.68358 0
M  V30 4116 C 380.667 2.1234 3.89136 0
M  V30 4117 H 377.887 0.447726 0.499782 0
M  V30 4118 H 380.431 1.77237 1.02017 0
M  V30 4119 H 378.586 1.65889 3.50085 0
M  V30 4120 H 379 3.87227 3.53774 0
M  V30 4121 H 380.474 2.72126 4.80262 0
M  V30 4122 H 380.951 1.11854 4.24718 0
M  V30 4123 H 381.557 2.55864 3.39726 0
M  V30 4124 N 379.872 -1.04064 1.18357 0
M  V30 4125 C 381.118 -1.77528 0.980397 0
M  V30 4126 C 381.451 -1.87948 -0.48879 0
M  V30 4127 O 380.726 -1.3876 -1.36293 0
M  V30 4128 C 381.009 -3.20797 1.63588 0
M  V30 4129 C 380.862 -3.1832 3.17793 0
M  V30 4130 C 382.181 -4.18911 1.34914 0
M  V30 4131 H 379.3 -0.644443 0.357578 0
M  V30 4132 H 381.942 -1.2156 1.46024 0
M  V30 4133 H 380.092 -3.68586 1.22788 0
M  V30 4134 H 381.764 -2.78521 3.67728 0
M  V30 4135 H 380.007 -2.56351 3.49952 0
M  V30 4136 H 380.678 -4.19489 3.58794 0
M  V30 4137 H 383.154 -3.7967 1.70265 0
M  V30 4138 H 382.03 -5.17374 1.83346 0
M  V30 4139 H 382.291 -4.41262 0.272027 0
M  V30 4140 N 381.35 -0.985608 -1.22978 0
M  V30 4141 C 382.598 -0.656087 -1.91154 0
M  V30 4142 C 382.919 0.813561 -1.77218 0
M  V30 4143 O 382.189 1.58244 -1.1548 0
M  V30 4144 H 380.769 -0.239674 -0.707506 0
M  V30 4145 H 383.431 -1.25054 -1.49491 0
M  V30 4146 H 382.527 -0.912253 -2.9847 0
M  V30 4147 N 382.828 1.3818 -0.7579 0
M  V30 4148 C 384.105 1.94106 -0.241306 0
M  V30 4149 C 384.485 1.69282 1.26122 0
M  V30 4150 O 383.833 1.03378 2.03777 0
M  V30 4151 C 384.043 3.43809 -0.59967 0
M  V30 4152 C 385.391 4.20868 -0.561717 0
M  V30 4153 O 386.415 3.5211 -0.538222 0
M  V30 4154 O 385.274 5.43451 -0.576478 0
M  V30 4155 H 382.368 0.825376 -0.0518042 0
M  V30 4156 H 384.914 1.47548 -0.838315 0
M  V30 4157 H 383.686 3.55403 -1.6372 0
M  V30 4158 H 383.309 3.97592 0.0251197 0
M  V30 4159 N 384.306 0.507319 1.49211 0
M  V30 4160 C 385.722 0.163682 1.58758 0
M  V30 4161 C 385.922 -1.33208 1.51188 0
M  V30 4162 O 384.978 -2.10855 1.38911 0
M  V30 4163 C 386.291 0.746095 2.91297 0
M  V30 4164 C 387.839 0.712773 3.04776 0
M  V30 4165 C 388.314 1.27336 4.39943 0
M  V30 4166 N 389.805 1.23433 4.46451 0
M  V30 4167 C 390.54 1.63821 5.495 0
M  V30 4168 N 390.036 2.11832 6.5962 0
M  V30 4169 N 391.829 1.55198 5.4025 0
M  V30 4170 H 383.98 1.47972 1.52375 0
M  V30 4171 H 386.243 0.614147 0.722168 0
M  V30 4172 H 385.949 1.79534 3.02424 0
M  V30 4173 H 385.823 0.210137 3.76614 0
M  V30 4174 H 388.21 -0.327656 2.93275 0
M  V30 4175 H 388.291 1.28595 2.21127 0
M  V30 4176 H 387.935 2.3126 4.52196 0
M  V30 4177 H 387.865 0.676066 5.22242 0
M  V30 4178 H 390.356 0.882627 3.67448 0
M  V30 4179 H 390.669 2.40703 7.34358 0
M  V30 4180 H 389.014 2.1581 6.60644 0
M  V30 4181 H 392.205 1.17505 4.53112 0
M  V30 4182 H 392.378 1.86997 6.20432 0
M  V30 4183 N 385.784 -1.5574 0.241426 0
M  V30 4184 C 386.716 -2.18469 -0.693091 0
M  V30 4185 C 387.729 -1.15942 -1.14286 0
M  V30 4186 O 388.918 -1.42832 -1.07058 0
M  V30 4187 C 386.018 -2.7696 -1.95311 0
M  V30 4188 C 385.191 -4.04853 -1.65568 0
M  V30 4189 C 384.25 -4.47715 -2.76474 0
M  V30 4190 O 383.276 -5.14205 -2.44094 0
M  V30 4191 N 384.478 -4.15044 -4.05855 0
M  V30 4192 H 387.243 -2.99292 -0.156388 0
M  V30 4193 H 384.804 -1.61784 0.0611752 0
M  V30 4194 H 386.796 -3.02594 -2.68736 0
M  V30 4195 H 385.366 -2.00326 -2.39975 0
M  V30 4196 H 384.586 -3.86865 -0.756886 0
M  V30 4197 H 385.874 -4.88246 -1.43153 0
M  V30 4198 H 385.272 -3.61654 -4.34998 0
M  V30 4199 H 383.829 -4.45526 -4.75762 0
M  V30 4200 N 387.262 0.0317525 -1.57568 0
M  V30 4201 C 388.195 1.06621 -2.0176 0
M  V30 4202 C 389.173 1.35323 -0.901462 0
M  V30 4203 O 390.357 1.48025 -1.16708 0
M  V30 4204 C 387.484 2.40155 -2.38837 0
M  V30 4205 C 386.53 2.27327 -3.60867 0
M  V30 4206 S 387.363 1.62925 -5.10113 0
M  V30 4207 C 388.519 2.97955 -5.5043 0
M  V30 4208 H 388.752 0.689781 -2.89187 0
M  V30 4209 H 386.285 0.24164 -1.52497 0
M  V30 4210 H 388.243 3.1695 -2.6087 0
M  V30 4211 H 386.904 2.74946 -1.51867 0
M  V30 4212 H 386.097 3.25898 -3.84456 0
M  V30 4213 H 385.699 1.58675 -3.38671 0
M  V30 4214 H 387.991 3.94285 -5.5095 0
M  V30 4215 H 388.934 2.79102 -6.50775 0
M  V30 4216 H 389.342 3.00404 -4.77931 0
M  V30 4217 N 388.74 1.54641 0.303973 0
M  V30 4218 C 389.703 1.84646 1.35789 0
M  V30 4219 C 390.703 0.7192 1.4382 0
M  V30 4220 O 391.893 0.987491 1.43507 0
M  V30 4221 C 389.025 2.02407 2.74307 0
M  V30 4222 H 390.218 2.78829 1.10429 0
M  V30 4223 H 387.771 1.46658 0.540487 0
M  V30 4224 H 388.506 1.10502 3.04893 0
M  V30 4225 H 388.291 2.84453 2.69868 0
M  V30 4226 H 389.781 2.27002 3.50514 0
M  V30 4227 N 390.218 -0.567019 1.47046 0
M  V30 4228 C 391.464 -1.32658 1.53394 0
M  V30 4229 C 391.797 -1.93254 0.19148 0
M  V30 4230 O 391.072 -1.77338 -0.798844 0
M  V30 4231 C 391.355 -2.44412 2.64452 0
M  V30 4232 C 391.208 -1.88749 4.08282 0
M  V30 4233 C 392.527 -3.46387 2.71485 0
M  V30 4234 H 389.646 -0.48098 0.558415 0
M  V30 4235 H 392.288 -0.635481 1.79058 0
M  V30 4236 H 390.438 -3.03363 2.427 0
M  V30 4237 H 392.11 -1.34134 4.41368 0
M  V30 4238 H 390.353 -1.19481 4.17021 0
M  V30 4239 H 391.024 -2.69491 4.81745 0
M  V30 4240 H 393.5 -2.9734 2.91081 0
M  V30 4241 H 392.376 -4.2202 3.50985 0
M  V30 4242 H 392.637 -4.04616 1.78153 0
M  V30 4243 N 391.696 -1.35014 -0.812953 0
M  V30 4244 C 392.924 -1.31031 -1.6012 0
M  V30 4245 C 393.339 0.113558 -1.88458 0
M  V30 4246 O 392.696 1.06363 -1.48301 0
M  V30 4247 C 392.747 -2.10872 -2.93624 0
M  V30 4248 O 392.468 -3.47706 -2.66518 0
M  V30 4249 C 393.969 -2.14401 -3.88004 0
M  V30 4250 H 391.189 -0.45037 -0.497401 0
M  V30 4251 H 393.733 -1.77775 -1.01076 0
M  V30 4252 H 391.888 -1.67744 -3.492 0
M  V30 4253 H 392.302 -3.89097 -3.51715 0
M  V30 4254 H 393.776 -2.74669 -4.78812 0
M  V30 4255 H 394.253 -1.14105 -4.24119 0
M  V30 4256 H 394.859 -2.57662 -3.38364 0
M  V30 4257 N 393.175 1.03435 -1.18907 0
M  V30 4258 C 394.123 2.13703 -0.918353 0
M  V30 4259 C 395.117 1.68947 0.123767 0
M  V30 4260 O 396.323 1.79983 -0.0249701 0
M  V30 4261 H 392.698 0.698112 -0.279542 0
M  V30 4262 H 394.669 2.33731 -1.85506 0
M  V30 4263 C 393.418 3.44542 -0.467532 0
M  V30 4264 H 392.741 3.79394 -1.26095 0
M  V30 4265 H 394.181 4.22812 -0.317164 0
M  V30 4266 C 392.64 3.26829 0.817588 0
M  V30 4267 O 393.17 3.54975 1.88031 0
M  V30 4268 N 391.376 2.80139 0.772677 0
M  V30 4269 H 390.923 2.57434 -0.0923883 0
M  V30 4270 H 390.881 2.68668 1.63294 0
M  V30 4271 N 394.653 0.992116 1.22453 0
M  V30 4272 C 395.601 0.534644 2.26372 0
M  V30 4273 C 396.595 -0.414293 1.64256 0
M  V30 4274 O 397.801 -0.286899 1.77699 0
M  V30 4275 H 394.176 0.154502 0.735957 0
M  V30 4276 H 396.147 1.42256 2.62309 0
M  V30 4277 C 394.896 -0.135815 3.47435 0
M  V30 4278 H 394.219 0.585311 3.95492 0
M  V30 4279 H 395.659 -0.419374 4.21921 0
M  V30 4280 C 394.118 -1.37089 3.07747 0
M  V30 4281 O 394.648 -2.46629 3.17076 0
M  V30 4282 N 392.854 -1.24585 2.62539 0
M  V30 4283 H 392.401 -0.354542 2.55149 0
M  V30 4284 H 392.359 -2.07327 2.36353 0
M  V30 4285 N 396.131 -1.37776 0.765217 0
M  V30 4286 C 397.094 -2.28686 0.153416 0
M  V30 4287 C 398.094 -1.47727 -0.635081 0
M  V30 4288 O 399.284 -1.68027 -0.459632 0
M  V30 4289 C 396.416 -3.31608 -0.790495 0
M  V30 4290 H 397.609 -2.84297 0.954723 0
M  V30 4291 H 395.162 -1.46932 0.53299 0
M  V30 4292 H 395.897 -2.81109 -1.61705 0
M  V30 4293 H 395.682 -3.9144 -0.227348 0
M  V30 4294 H 397.172 -3.99559 -1.21419 0
M  V30 4295 N 397.609 -0.515225 -1.4894 0
M  V30 4296 C 398.839 0.0205735 -2.0659 0
M  V30 4297 C 399.247 1.30064 -1.37405 0
M  V30 4298 O 398.59 1.78087 -0.450632 0
M  V30 4299 C 398.652 0.330124 -3.57981 0
M  V30 4300 C 398.316 -0.854295 -4.48944 0
M  V30 4301 C 399.313 -1.7487 -4.89609 0
M  V30 4302 C 396.998 -1.05712 -4.9105 0
M  V30 4303 C 398.992 -2.82996 -5.71132 0
M  V30 4304 C 396.679 -2.14154 -5.72347 0
M  V30 4305 C 397.677 -3.0263 -6.12294 0
M  V30 4306 O 397.365 -4.09198 -6.91962 0
M  V30 4307 H 397.097 -0.0236833 -0.675585 0
M  V30 4308 H 399.651 -0.715956 -1.92518 0
M  V30 4309 H 397.881 1.12044 -3.70112 0
M  V30 4310 H 399.57 0.806233 -3.97812 0
M  V30 4311 H 400.336 -1.60388 -4.57712 0
M  V30 4312 H 396.215 -0.377788 -4.59449 0
M  V30 4313 H 399.759 -3.52083 -6.02232 0
M  V30 4314 H 395.656 -2.28626 -6.03656 0
M  V30 4315 H 396.424 -4.06726 -7.10293 0
M  V30 4316 N 399.087 1.5561 -0.249682 0
M  V30 4317 C 400.334 1.99011 0.374287 0
M  V30 4318 C 400.662 1.13785 1.57744 0
M  V30 4319 O 399.917 0.189326 1.94782 0
M  V30 4320 C 400.216 3.4775 0.824887 0
M  V30 4321 C 399.882 4.50086 -0.270819 0
M  V30 4322 C 398.544 4.77791 -0.571746 0
M  V30 4323 C 400.896 5.11312 -1.01041 0
M  V30 4324 C 398.224 5.63997 -1.61629 0
M  V30 4325 C 400.576 5.98651 -2.0445 0
M  V30 4326 C 399.24 6.24688 -2.35204 0
M  V30 4327 H 398.51 0.728233 0.136961 0
M  V30 4328 H 401.157 1.88122 -0.358087 0
M  V30 4329 H 399.462 3.55985 1.63651 0
M  V30 4330 H 401.159 3.78721 1.31799 0
M  V30 4331 H 397.749 4.28592 -0.026136 0
M  V30 4332 H 401.933 4.89953 -0.791177 0
M  V30 4333 H 397.189 5.82425 -1.85988 0
M  V30 4334 H 401.363 6.45135 -2.62248 0
M  V30 4335 H 398.99 6.91281 -3.16282 0
M  V30 4336 N 400.565 -0.0233959 1.57583 0
M  V30 4337 C 401.498 -1.05549 2.02323 0
M  V30 4338 C 402.476 -1.34843 0.908626 0
M  V30 4339 O 403.66 -1.47404 1.17491 0
M  V30 4340 C 400.787 -2.38885 2.40108 0
M  V30 4341 C 399.833 -2.2541 3.62067 0
M  V30 4342 S 400.666 -1.60217 5.1097 0
M  V30 4343 C 401.822 -2.95032 5.52003 0
M  V30 4344 H 402.055 -0.674435 2.89549 0
M  V30 4345 H 399.588 -0.23355 1.52623 0
M  V30 4346 H 401.546 -3.15562 2.62547 0
M  V30 4347 H 400.207 -2.74137 1.53323 0
M  V30 4348 H 399.4 -3.23854 3.86179 0
M  V30 4349 H 399.002 -1.56876 3.39508 0
M  V30 4350 H 401.294 -3.91357 5.53033 0
M  V30 4351 H 402.237 -2.75646 6.52246 0
M  V30 4352 H 402.645 -2.97865 4.79517 0
M  V30 4353 N 402.043 -1.548 -0.295768 0
M  V30 4354 C 402.993 -1.82497 -1.3667 0
M  V30 4355 C 403.977 -0.682434 -1.45711 0
M  V30 4356 O 405.169 -0.943207 -1.49775 0
M  V30 4357 C 402.298 -2.08036 -2.73086 0
M  V30 4358 C 401.384 -3.28488 -2.68247 0
M  V30 4359 N 401.775 -4.48924 -2.33025 0
M  V30 4360 C 400.073 -3.3062 -2.99343 0
M  V30 4361 C 400.774 -5.30956 -2.37613 0
M  V30 4362 N 399.75 -4.68805 -2.75178 0
M  V30 4363 H 403.552 -2.73175 -1.0841 0
M  V30 4364 H 401.066 -1.5437 -0.504361 0
M  V30 4365 H 403.063 -2.26027 -3.5031 0
M  V30 4366 H 401.723 -1.18629 -3.02254 0
M  V30 4367 H 402.734 -4.75432 -2.05389 0
M  V30 4368 H 399.411 -2.51336 -3.33371 0
M  V30 4369 H 400.801 -6.37199 -2.13135 0
M  V30 4370 N 403.521 0.559213 -1.47345 0
M  V30 4371 C 404.761 1.32728 -1.55444 0
M  V30 4372 C 405.125 1.90838 -0.210895 0
M  V30 4373 O 406.326 2.68282 -0.166719 0
M  V30 4374 C 404.597 2.4092 -2.63993 0
M  V30 4375 S 406.156 3.2784 -2.91661 0
M  V30 4376 H 402.974 0.451883 -0.548929 0
M  V30 4377 H 405.576 0.640404 -1.84714 0
M  V30 4378 H 404.28 1.9666 -3.60212 0
M  V30 4379 H 403.811 3.14351 -2.36531 0
M  V30 4380 H 405.826 4.40341 -2.28722 0
M  V30 4381 N 404.999 1.35443 0.805782 0
M  V30 4382 C 405.929 1.31095 1.93226 0
M  V30 4383 C 406.91 0.185244 1.69088 0
M  V30 4384 O 408.095 0.380332 1.90439 0
M  V30 4385 C 405.225 1.08299 3.29983 0
M  V30 4386 C 404.179 2.17519 3.68605 0
M  V30 4387 C 403.505 1.79887 5.03532 0
M  V30 4388 C 404.805 3.5949 3.78898 0
M  V30 4389 H 406.499 2.25352 1.97122 0
M  V30 4390 H 404.045 1.0848 0.946996 0
M  V30 4391 H 405.998 1.03897 4.08391 0
M  V30 4392 H 404.722 0.104885 3.26432 0
M  V30 4393 H 403.381 2.2102 2.92482 0
M  V30 4394 H 403.029 0.80693 4.96485 0
M  V30 4395 H 402.729 2.53001 5.30344 0
M  V30 4396 H 404.253 1.77011 5.84379 0
M  V30 4397 H 405.667 3.58307 4.47536 0
M  V30 4398 H 404.064 4.31371 4.1718 0
M  V30 4399 H 405.134 3.95584 2.80431 0
M  V30 4400 N 406.477 -1.02803 1.19454 0
M  V30 4401 C 407.888 -1.57667 0.999899 0
M  V30 4402 C 408.239 -1.91041 -0.446956 0
M  V30 4403 O 407.364 -1.70978 -1.32648 0
M  V30 4404 C 407.959 -2.86477 1.80877 0
M  V30 4405 C 406.518 -3.37911 1.65811 0
M  V30 4406 C 405.665 -2.11343 1.79526 0
M  V30 4407 H 408.616 -0.853214 1.33813 0
M  V30 4408 H 408.637 -3.57408 1.30536 0
M  V30 4409 H 408.149 -2.62155 2.86175 0
M  V30 4410 H 406.25 -3.67218 0.63102 0
M  V30 4411 H 406.363 -4.10885 2.46395 0
M  V30 4412 H 404.727 -2.23254 1.22596 0
M  V30 4413 H 405.51 -1.89461 2.86285 0
M  V30 4414 N 407.956 -0.998596 -1.21925 0
M  V30 4415 C 409.202 -0.678667 -1.91107 0
M  V30 4416 C 409.535 0.78791 -1.77498 0
M  V30 4417 O 408.81 1.57043 -1.1475 0
M  V30 4418 C 409.093 -1.09245 -3.43129 0
M  V30 4419 C 408.946 -2.61801 -3.6576 0
M  V30 4420 C 410.265 -0.649984 -4.35274 0
M  V30 4421 H 407.384 -0.248025 -0.694012 0
M  V30 4422 H 410.026 -1.24314 -1.43688 0
M  V30 4423 H 408.176 -0.612171 -3.83647 0
M  V30 4424 H 409.848 -3.17543 -3.34611 0
M  V30 4425 H 408.091 -3.03609 -3.09845 0
M  V30 4426 H 408.762 -2.85804 -4.7225 0
M  V30 4427 H 411.238 -1.0626 -4.02303 0
M  V30 4428 H 410.114 -0.967743 -5.40302 0
M  V30 4429 H 410.375 0.449139 -4.39813 0
M  V30 4430 N 409.434 1.37368 -0.772513 0
M  V30 4431 C 410.85 1.53059 -0.452231 0
M  V30 4432 C 411.05 1.73065 1.03203 0
M  V30 4433 O 410.106 1.75245 1.81784 0
M  V30 4434 C 411.419 2.72659 -1.26797 0
M  V30 4435 C 412.967 2.86521 -1.25995 0
M  V30 4436 C 413.442 4.09105 -2.05905 0
M  V30 4437 N 414.933 4.16219 -2.03263 0
M  V30 4438 C 415.668 5.10107 -2.61875 0
M  V30 4439 N 415.164 6.09547 -3.29278 0
M  V30 4440 N 416.957 5.02596 -2.51701 0
M  V30 4441 H 409.108 1.22634 -1.7342 0
M  V30 4442 H 411.371 0.597206 -0.736239 0
M  V30 4443 H 411.077 2.64343 -2.31982 0
M  V30 4444 H 410.951 3.66363 -0.897672 0
M  V30 4445 H 413.338 2.94308 -0.216081 0
M  V30 4446 H 413.419 1.93774 -1.66989 0
M  V30 4447 H 413.063 4.0208 -3.10313 0
M  V30 4448 H 412.993 5.00968 -1.62292 0
M  V30 4449 H 415.484 3.45012 -1.54192 0
M  V30 4450 H 415.797 6.77718 -3.71374 0
M  V30 4451 H 414.142 6.09824 -3.33377 0
M  V30 4452 H 417.333 4.23855 -1.98657 0
M  V30 4453 H 417.506 5.75582 -2.97673 0
M  V30 4454 N 410.912 0.523116 1.48665 0
M  V30 4455 C 412.328 0.180511 1.58576 0
M  V30 4456 C 412.528 -1.31597 1.52592 0
M  V30 4457 O 411.584 -2.0937 1.4114 0
M  V30 4458 C 412.897 0.776949 2.90489 0
M  V30 4459 C 414.445 0.745058 3.04003 0
M  V30 4460 C 414.92 1.31995 4.38567 0
M  V30 4461 N 416.411 1.28162 4.45117 0
M  V30 4462 C 417.146 1.6964 5.47731 0
M  V30 4463 N 416.642 2.18816 6.57337 0
M  V30 4464 N 418.435 1.6092 5.38573 0
M  V30 4465 H 410.586 1.4958 1.50797 0
M  V30 4466 H 412.849 0.621772 0.715614 0
M  V30 4467 H 412.555 1.82732 3.00503 0
M  V30 4468 H 412.429 0.25007 3.7637 0
M  V30 4469 H 414.816 -0.296532 2.93606 0
M  V30 4470 H 414.897 1.30933 2.1975 0
M  V30 4471 H 414.541 2.36043 4.49718 0
M  V30 4472 H 414.471 0.731418 5.21496 0
M  V30 4473 H 416.962 0.92155 3.66491 0
M  V30 4474 H 417.275 2.48478 7.31764 0
M  V30 4475 H 415.62 2.22805 6.58318 0
M  V30 4476 H 418.811 1.22304 4.5184 0
M  V30 4477 H 418.984 1.93567 6.18414 0
M  V30 4478 N 412.39 -1.55475 0.257931 0
M  V30 4479 C 413.338 -2.23244 -0.653076 0
M  V30 4480 C 414.332 -1.22366 -1.17144 0
M  V30 4481 O 415.538 -1.40347 -1.12706 0
M  V30 4482 H 411.913 -0.716247 -0.229117 0
M  V30 4483 H 413.884 -2.98343 -0.0584788 0
M  V30 4484 C 412.633 -2.95401 -1.83395 0
M  V30 4485 H 411.956 -3.72802 -1.44424 0
M  V30 4486 H 413.396 -3.46165 -2.44838 0
M  V30 4487 C 411.855 -1.99895 -2.71189 0
M  V30 4488 O 412.385 -1.53909 -3.71046 0
M  V30 4489 N 410.591 -1.6676 -2.3799 0
M  V30 4490 H 410.138 -2.04352 -1.56837 0
M  V30 4491 H 410.096 -1.03127 -2.97005 0
M  V30 4492 N 413.868 0.0150385 -1.57593 0
M  V30 4493 C 414.801 1.04475 -2.0288 0
M  V30 4494 C 415.779 1.3436 -0.915764 0
M  V30 4495 O 416.963 1.46779 -1.18271 0
M  V30 4496 C 414.09 2.37608 -2.41371 0
M  V30 4497 C 413.136 2.23487 -3.63257 0
M  V30 4498 S 413.969 1.57505 -5.11813 0
M  V30 4499 C 415.125 2.921 -5.5356 0
M  V30 4500 H 415.358 0.65907 -2.89903 0
M  V30 4501 H 412.891 0.225452 -1.52745 0
M  V30 4502 H 414.849 3.14165 -2.64217 0
M  V30 4503 H 413.51 2.7332 -1.54775 0
M  V30 4504 H 412.703 3.21802 -3.87891 0
M  V30 4505 H 412.305 1.55074 -3.40335 0
M  V30 4506 H 414.597 3.88419 -5.55101 0
M  V30 4507 H 415.54 2.72184 -6.53698 0
M  V30 4508 H 415.948 2.95318 -4.8109 0
M  V30 4509 N 415.346 1.54954 0.287554 0
M  V30 4510 C 416.595 1.74081 1.01877 0
M  V30 4511 C 416.908 0.541135 1.87966 0
M  V30 4512 O 418.114 0.614491 2.64455 0
M  V30 4513 C 416.57 3.08042 1.86113 0
M  V30 4514 C 416.178 4.35531 1.04961 0
M  V30 4515 C 417.922 3.36523 2.58752 0
M  V30 4516 C 415.829 5.60538 1.88551 0
M  V30 4517 H 414.759 0.64884 0.384087 0
M  V30 4518 H 417.41 1.81426 0.275101 0
M  V30 4519 H 415.792 2.94696 2.64519 0
M  V30 4520 H 416.966 4.59751 0.31074 0
M  V30 4521 H 415.281 4.14085 0.43843 0
M  V30 4522 H 417.878 4.27122 3.21668 0
M  V30 4523 H 418.221 2.56 3.28283 0
M  V30 4524 H 418.754 3.50901 1.87386 0
M  V30 4525 H 415.493 6.43767 1.23466 0
M  V30 4526 H 415.013 5.40483 2.60074 0
M  V30 4527 H 416.692 5.98297 2.46273 0
M  V30 4528 N 416.824 -0.551391 1.4764 0
M  V30 4529 C 418.07 -1.31024 1.54792 0
M  V30 4530 C 418.403 -1.9304 0.211967 0
M  V30 4531 O 417.678 -1.78175 -0.77999 0
M  V30 4532 C 417.961 -2.41593 2.67029 0
M  V30 4533 C 417.814 -1.84408 4.10261 0
M  V30 4534 C 419.133 -3.43488 2.75143 0
M  V30 4535 H 416.252 -0.475031 0.563485 0
M  V30 4536 H 418.894 -0.616454 1.79722 0
M  V30 4537 H 417.044 -3.00772 2.45904 0
M  V30 4538 H 418.716 -1.29445 4.42766 0
M  V30 4539 H 416.959 -1.15051 4.18265 0
M  V30 4540 H 417.63 -2.64367 4.84576 0
M  V30 4541 H 420.106 -2.94236 2.94218 0
M  V30 4542 H 418.982 -4.18274 3.55441 0
M  V30 4543 H 419.243 -4.02703 1.82435 0
M  V30 4544 N 418.302 -1.35869 -0.798587 0
M  V30 4545 C 419.53 -1.32722 -1.58722 0
M  V30 4546 C 419.945 0.0935631 -1.88568 0
M  V30 4547 O 419.302 1.04784 -1.49421 0
M  V30 4548 C 419.353 -2.13974 -2.91371 0
M  V30 4549 O 419.074 -3.50514 -2.62815 0
M  V30 4550 C 420.575 -2.18504 -3.85708 0
M  V30 4551 H 417.795 -0.45562 -0.492596 0
M  V30 4552 H 420.339 -1.78837 -0.991843 0
M  V30 4553 H 418.494 -1.71438 -3.47402 0
M  V30 4554 H 418.908 -3.92806 -3.47568 0
M  V30 4555 H 420.382 -2.79732 -4.75872 0
M  V30 4556 H 420.859 -1.18597 -4.22885 0
M  V30 4557 H 421.465 -2.61236 -3.35612 0
M  V30 4558 N 419.78 1.02168 -1.19998 0
M  V30 4559 C 421.057 1.72816 -0.916191 0
M  V30 4560 C 421.437 2.03081 0.576325 0
M  V30 4561 O 420.785 1.69122 1.53656 0
M  V30 4562 C 420.995 2.9997 -1.78378 0
M  V30 4563 C 422.343 3.73336 -2.02251 0
M  V30 4564 O 423.367 3.09914 -1.75589 0
M  V30 4565 O 422.226 4.87371 -2.47249 0
M  V30 4566 H 419.32 0.752924 -0.342103 0
M  V30 4567 H 421.866 1.08062 -1.30846 0
M  V30 4568 H 420.638 2.73888 -2.79466 0
M  V30 4569 H 420.261 3.72464 -1.39126 0
M  V30 4570 N 421.258 1.00505 1.21394 0
M  V30 4571 C 422.535 0.603277 1.86064 0
M  V30 4572 C 422.915 -0.919095 1.90042 0
M  V30 4573 O 422.263 -1.80607 1.39977 0
M  V30 4574 C 422.473 1.23772 3.26315 0
M  V30 4575 C 423.821 1.34586 4.02705 0
M  V30 4576 O 424.845 1.19304 3.35626 0
M  V30 4577 O 423.704 1.59169 5.22807 0
M  V30 4578 H 420.798 0.206634 0.800769 0
M  V30 4579 H 423.344 1.1017 1.29076 0
M  V30 4580 H 422.116 2.27848 3.18121 0
M  V30 4581 H 421.739 0.725648 3.90922 0
M  V30 4582 N 422.737 -1.36956 0.779787 0
M  V30 4583 C 423.983 -1.99787 0.348281 0
M  V30 4584 C 424.316 -1.61756 -1.07465 0
M  V30 4585 O 423.591 -0.867639 -1.74075 0
M  V30 4586 C 423.874 -3.56597 0.50104 0
M  V30 4587 C 423.727 -4.04513 1.96697 0
M  V30 4588 C 425.046 -4.40008 -0.0898097 0
M  V30 4589 H 422.165 -0.725796 0.128022 0
M  V30 4590 H 424.807 -1.62514 0.984331 0
M  V30 4591 H 422.957 -3.88479 -0.0404347 0
M  V30 4592 H 424.629 -3.83161 2.56876 0
M  V30 4593 H 422.872 -3.56408 2.47297 0
M  V30 4594 H 423.543 -5.1352 2.02486 0
M  V30 4595 H 426.019 -4.14431 0.372293 0
M  V30 4596 H 424.895 -5.4888 0.0471605 0
M  V30 4597 H 425.156 -4.26035 -1.18096 0
M  V30 4598 N 424.215 -0.530993 -1.48385 0
M  V30 4599 C 425.464 0.00474348 -2.01699 0
M  V30 4600 C 425.777 1.35227 -1.41325 0
M  V30 4601 O 426.983 1.97643 -1.86144 0
M  V30 4602 C 425.439 0.0588473 -3.59852 0
M  V30 4603 C 425.047 -1.28385 -4.2921 0
M  V30 4604 C 426.791 0.543358 -4.21008 0
M  V30 4605 C 424.698 -1.19028 -5.79298 0
M  V30 4606 H 423.628 0.00554317 -0.75398 0
M  V30 4607 H 426.279 -0.674924 -1.70637 0
M  V30 4608 H 424.661 0.803612 -3.8776 0
M  V30 4609 H 425.835 -2.04426 -4.12973 0
M  V30 4610 H 424.15 -1.70418 -3.7993 0
M  V30 4611 H 426.747 0.631351 -5.3096 0
M  V30 4612 H 427.09 1.54937 -3.86394 0
M  V30 4613 H 427.623 -0.145754 -3.97533 0
M  V30 4614 H 424.362 -2.17147 -6.18488 0
M  V30 4615 H 423.882 -0.471246 -5.97946 0
M  V30 4616 H 425.561 -0.881365 -6.40969 0
M  V30 4617 N 425.693 1.55336 -0.266172 0
M  V30 4618 C 426.603 2.2583 0.635458 0
M  V30 4619 C 427.619 1.28106 1.17749 0
M  V30 4620 O 428.795 1.61024 1.20968 0
M  V30 4621 C 425.86 2.95879 1.80712 0
M  V30 4622 C 424.921 4.09059 1.30265 0
M  V30 4623 C 424.154 4.75759 2.41846 0
M  V30 4624 O 424.377 4.41622 3.61007 0
M  V30 4625 O 423.311 5.63888 2.1051 0
M  V30 4626 H 427.137 3.03631 0.0646693 0
M  V30 4627 H 424.722 1.49361 -0.0339177 0
M  V30 4628 H 426.604 3.39932 2.49047 0
M  V30 4629 H 425.279 2.21002 2.36516 0
M  V30 4630 H 424.186 3.69482 0.586019 0
M  V30 4631 H 425.519 4.85811 0.790458 0
M  V30 4632 N 427.171 -0.0066808 1.57599 0
M  V30 4633 C 428.396 -0.707738 1.94951 0
M  V30 4634 C 428.821 -1.66882 0.867868 0
M  V30 4635 O 428.179 -1.80457 -0.17458 0
M  V30 4636 C 428.227 -1.42162 3.31394 0
M  V30 4637 O 427.331 -2.53578 3.25226 0
M  V30 4638 H 426.672 -0.188752 0.636607 0
M  V30 4639 H 429.202 0.0445193 2.04552 0
M  V30 4640 H 429.212 -1.78655 3.66806 0
M  V30 4641 H 427.887 -0.716903 4.09675 0
M  V30 4642 H 426.464 -2.19463 3.01481 0
M  V30 4643 N 428.649 -1.55105 -0.279332 0
M  V30 4644 C 430.06 -1.66186 -0.850832 0
M  V30 4645 C 430.411 -0.584707 -1.87285 0
M  V30 4646 O 429.536 0.274919 -2.14647 0
M  V30 4647 C 430.131 -3.01264 -1.55001 0
M  V30 4648 C 428.69 -3.14394 -2.06963 0
M  V30 4649 C 427.837 -2.61959 -0.909536 0
M  V30 4650 H 430.788 -1.58602 -0.0558235 0
M  V30 4651 H 430.809 -2.93899 -2.41669 0
M  V30 4652 H 430.321 -3.7964 -0.805931 0
M  V30 4653 H 428.422 -2.4078 -2.84352 0
M  V30 4654 H 428.535 -4.20867 -2.28928 0
M  V30 4655 H 426.899 -2.18957 -1.30116 0
M  V30 4656 H 427.682 -3.42833 -0.179062 0
M  V30 4657 N 430.127 0.543554 -1.4793 0
M  V30 4658 C 431.059 1.665 -1.57513 0
M  V30 4659 C 432.072 1.56156 -0.460333 0
M  V30 4660 O 433.261 1.62865 -0.730573 0
M  V30 4661 C 430.361 3.05063 -1.47614 0
M  V30 4662 C 429.534 3.41024 -2.739 0
M  V30 4663 C 428.593 4.58809 -2.57645 0
M  V30 4664 O 427.619 4.62707 -3.31498 0
M  V30 4665 N 428.821 5.56149 -1.66368 0
M  V30 4666 H 431.586 1.5872 -2.5422 0
M  V30 4667 H 429.147 0.730517 -1.44482 0
M  V30 4668 H 431.139 3.81712 -1.34455 0
M  V30 4669 H 429.709 3.06994 -0.589359 0
M  V30 4670 H 428.929 2.53687 -3.01723 0
M  V30 4671 H 430.217 3.61831 -3.57709 0
M  V30 4672 H 429.615 5.55767 -1.05543 0
M  V30 4673 H 428.172 6.32071 -1.59154 0
M  V30 4674 N 431.605 1.3629 0.791371 0
M  V30 4675 C 432.83 1.33726 1.58531 0
M  V30 4676 C 433.255 -0.0794933 1.87932 0
M  V30 4677 O 432.613 -1.05087 1.47738 0
M  V30 4678 C 432.661 2.16425 2.88431 0
M  V30 4679 O 431.765 1.5554 3.81944 0
M  V30 4680 H 431.106 0.457793 0.480959 0
M  V30 4681 H 433.636 1.79547 0.981031 0
M  V30 4682 H 433.646 2.28933 3.37718 0
M  V30 4683 H 432.321 3.19415 2.66359 0
M  V30 4684 H 430.898 1.51961 3.40532 0
M  V30 4685 N 433.083 -1.0153 1.20538 0
M  V30 4686 C 434.332 -1.74558 1.01057 0
M  V30 4687 C 434.645 -1.90168 -0.457756 0
M  V30 4688 O 435.851 -2.60301 -0.771722 0
M  V30 4689 C 434.307 -3.13963 1.75941 0
M  V30 4690 C 433.915 -3.06361 3.26875 0
M  V30 4691 C 435.659 -3.91191 1.64832 0
M  V30 4692 C 433.566 -4.40782 3.94291 0
M  V30 4693 H 432.496 -0.654417 0.374505 0
M  V30 4694 H 435.147 -1.13521 1.44171 0
M  V30 4695 H 433.529 -3.75549 1.25614 0
M  V30 4696 H 434.703 -2.54074 3.84425 0
M  V30 4697 H 433.018 -2.42625 3.38411 0
M  V30 4698 H 435.615 -4.90644 2.12539 0
M  V30 4699 H 435.958 -4.11884 0.604745 0
M  V30 4700 H 436.491 -3.36236 2.12579 0
M  V30 4701 H 433.23 -4.25292 4.98805 0
M  V30 4702 H 432.75 -4.9307 3.41529 0
M  V30 4703 H 434.429 -5.09621 3.98617 0
M  V30 4704 N 434.561 -1.01147 -1.20859 0
M  V30 4705 C 435.807 -0.698899 -1.90377 0
M  V30 4706 C 436.14 0.76904 -1.78324 0
M  V30 4707 O 435.415 1.55817 -1.16409 0
M  V30 4708 C 435.698 -1.12878 -3.41951 0
M  V30 4709 C 435.551 -2.65665 -3.62963 0
M  V30 4710 C 436.87 -0.696114 -4.3456 0
M  V30 4711 H 433.989 -0.255372 -0.691342 0
M  V30 4712 H 436.631 -1.25831 -1.42361 0
M  V30 4713 H 434.781 -0.652827 -3.82976 0
M  V30 4714 H 436.453 -3.21074 -3.31224 0
M  V30 4715 H 434.696 -3.06878 -3.06608 0
M  V30 4716 H 435.367 -2.90797 -4.69192 0
M  V30 4717 H 437.843 -1.10521 -4.01154 0
M  V30 4718 H 436.719 -1.025 -5.39245 0
M  V30 4719 H 436.98 0.402465 -4.40264 0
M  V30 4720 N 436.039 1.36541 -0.78704 0
M  V30 4721 C 437.288 1.98552 -0.35494 0
M  V30 4722 C 437.601 1.63171 1.07864 0
M  V30 4723 O 438.807 2.18399 1.61289 0
M  V30 4724 C 437.263 3.55136 -0.583671 0
M  V30 4725 C 436.871 3.99444 -2.02851 0
M  V30 4726 C 438.615 4.2395 -0.215957 0
M  V30 4727 C 436.522 5.48796 -2.20403 0
M  V30 4728 H 435.452 0.742888 -0.128972 0
M  V30 4729 H 438.103 1.5587 -0.968337 0
M  V30 4730 H 436.485 3.95875 0.0994046 0
M  V30 4731 H 437.659 3.6991 -2.74779 0
M  V30 4732 H 435.974 3.43459 -2.35425 0
M  V30 4733 H 438.571 5.33709 -0.325405 0
M  V30 4734 H 438.914 4.07827 0.835646 0
M  V30 4735 H 439.447 3.88565 -0.852175 0
M  V30 4736 H 436.186 5.69864 -3.23937 0
M  V30 4737 H 435.706 5.79964 -1.52977 0
M  V30 4738 H 437.385 6.14986 -2.01002 0
M  V30 4739 N 437.518 0.538854 1.48102 0
M  V30 4740 C 438.929 0.100679 1.86428 0
M  V30 4741 C 439.28 -1.32447 1.44749 0
M  V30 4742 O 438.405 -1.99339 0.842199 0
M  V30 4743 C 439 0.175933 3.38343 0
M  V30 4744 C 437.559 -0.207098 3.7583 0
M  V30 4745 C 436.706 0.531741 2.72154 0
M  V30 4746 H 439.657 0.749614 1.3988 0
M  V30 4747 H 439.678 -0.610144 3.75576 0
M  V30 4748 H 439.19 1.21328 3.68648 0
M  V30 4749 H 437.291 -1.24626 3.5114 0
M  V30 4750 H 437.404 0.138687 4.78899 0
M  V30 4751 H 435.768 -0.0230462 2.5469 0
M  V30 4752 H 436.551 1.56989 3.05302 0
M  V30 4753 N 438.996 -1.55193 0.274407 0
M  V30 4754 C 439.906 -2.26164 -0.623473 0
M  V30 4755 C 440.922 -1.28729 -1.17068 0
M  V30 4756 O 442.098 -1.61663 -1.20112 0
M  V30 4757 C 439.163 -2.96833 -1.7914 0
M  V30 4758 C 438.224 -4.09745 -1.28093 0
M  V30 4759 C 437.457 -4.77034 -2.3932 0
M  V30 4760 O 437.68 -4.4353 -3.5866 0
M  V30 4761 O 436.614 -5.64996 -2.07516 0
M  V30 4762 H 440.44 -3.03661 -0.0485661 0
M  V30 4763 H 438.025 -1.49341 0.0418382 0
M  V30 4764 H 439.907 -3.41248 -2.4724 0
M  V30 4765 H 438.582 -2.22253 -2.35341 0
M  V30 4766 H 437.489 -3.69787 -0.566416 0
M  V30 4767 H 438.822 -4.86224 -0.764683 0
M  V30 4768 N 440.474 -0.00167713 -1.576 0
M  V30 4769 C 441.437 0.974046 -2.07473 0
M  V30 4770 C 442.437 1.27143 -0.984444 0
M  V30 4771 O 443.627 1.21633 -1.24703 0
M  V30 4772 C 440.759 2.29849 -2.51759 0
M  V30 4773 H 441.952 0.54262 -2.9495 0
M  V30 4774 H 439.505 0.245829 -1.54355 0
M  V30 4775 H 440.24 2.77677 -1.67529 0
M  V30 4776 H 440.025 2.09584 -3.31386 0
M  V30 4777 H 441.515 2.9984 -2.90664 0
M  V30 4778 N 441.952 1.55251 0.271103 0
M  V30 4779 C 442.915 1.87484 1.31842 0
M  V30 4780 C 443.915 0.749545 1.42262 0
M  V30 4781 O 445.105 1.01771 1.4138 0
M  V30 4782 C 442.237 2.0818 2.69951 0
M  V30 4783 H 443.43 2.81108 1.0449 0
M  V30 4784 H 440.983 1.47771 0.509258 0
M  V30 4785 H 441.718 1.16944 3.02481 0
M  V30 4786 H 441.503 2.90114 2.63774 0
M  V30 4787 H 442.993 2.34385 3.4562 0
M  V30 4788 N 443.43 -0.535701 1.48216 0
M  V30 4789 C 444.378 -1.66179 1.62749 0
M  V30 4790 C 445.372 -1.62034 0.49409 0
M  V30 4791 O 446.578 -1.6696 0.672624 0
M  V30 4792 H 442.953 -0.550244 0.512578 0
M  V30 4793 H 444.924 -1.51063 2.57337 0
M  V30 4794 C 443.673 -3.04471 1.67907 0
M  V30 4795 H 442.996 -3.08351 2.54479 0
M  V30 4796 H 444.436 -3.82894 1.82121 0
M  V30 4797 C 442.895 -3.34314 0.416596 0
M  V30 4798 O 443.425 -3.98905 -0.473014 0
M  V30 4799 N 441.631 -2.89149 0.290038 0
M  V30 4800 H 441.178 -2.36764 1.01493 0
M  V30 4801 H 441.136 -3.09486 -0.55367 0
M  V30 4802 N 444.908 -1.36708 -0.784132 0
M  V30 4803 C 446.324 -1.17237 -1.08294 0
M  V30 4804 C 446.524 -5.93947e-05 -2.015 0
M  V30 4805 O 445.58 0.663686 -2.43622 0
M  V30 4806 C 446.893 -2.48557 -1.69233 0
M  V30 4807 C 448.441 -2.54968 -1.8155 0
M  V30 4808 C 448.916 -3.86388 -2.45904 0
M  V30 4809 N 450.407 -3.87762 -2.53367 0
M  V30 4810 C 451.142 -4.86191 -3.03983 0
M  V30 4811 N 450.638 -5.95015 -3.54866 0
M  V30 4812 N 452.431 -4.73606 -3.02743 0
M  V30 4813 H 444.582 -2.11758 -0.16501 0
M  V30 4814 H 446.845 -0.93822 -0.135822 0
M  V30 4815 H 446.551 -3.34638 -1.08215 0
M  V30 4816 H 446.425 -2.64748 -2.68679 0
M  V30 4817 H 448.812 -1.69302 -2.41704 0
M  V30 4818 H 448.893 -2.42672 -0.80895 0
M  V30 4819 H 448.537 -4.72462 -1.86392 0
M  V30 4820 H 448.467 -3.95982 -3.4714 0
M  V30 4821 H 450.958 -3.09145 -2.17343 0
M  V30 4822 H 451.271 -6.66086 -3.91854 0
M  V30 4823 H 449.616 -5.98676 -3.53003 0
M  V30 4824 H 452.807 -3.87717 -2.62284 0
M  V30 4825 H 452.98 -5.50473 -3.41881 0
M  V30 4826 N 446.386 1.0089 -1.21074 0
M  V30 4827 C 447.296 2.13039 -0.982425 0
M  V30 4828 C 448.312 1.73881 0.0642161 0
M  V30 4829 O 449.488 2.01012 -0.12496 0
M  V30 4830 C 446.553 3.42377 -0.545803 0
M  V30 4831 C 445.614 3.95731 -1.6642 0
M  V30 4832 C 444.847 5.18896 -1.24832 0
M  V30 4833 O 445.07 5.70273 -0.120265 0
M  V30 4834 O 444.004 5.65597 -2.05873 0
M  V30 4835 H 447.83 2.35175 -1.92163 0
M  V30 4836 H 445.415 1.1142 -0.995285 0
M  V30 4837 H 447.297 4.20244 -0.311912 0
M  V30 4838 H 445.972 3.21639 0.364727 0
M  V30 4839 H 444.879 3.19108 -1.95246 0
M  V30 4840 H 446.212 4.20872 -2.55201 0
M  V30 4841 N 447.864 1.01787 1.20321 0
M  V30 4842 C 449.113 0.703249 1.89043 0
M  V30 4843 C 449.426 -0.770445 1.79787 0
M  V30 4844 O 450.632 -1.19767 2.43656 0
M  V30 4845 C 449.088 1.20749 3.3904 0
M  V30 4846 C 448.696 2.70817 3.56878 0
M  V30 4847 C 450.44 0.968352 4.13308 0
M  V30 4848 C 448.347 3.14716 5.00708 0
M  V30 4849 H 447.277 0.259354 0.707991 0
M  V30 4850 H 449.928 1.23072 1.36108 0
M  V30 4851 H 448.31 0.607989 3.91305 0
M  V30 4852 H 449.484 3.36327 3.14993 0
M  V30 4853 H 447.799 2.92888 2.95983 0
M  V30 4854 H 450.396 1.27173 5.19356 0
M  V30 4855 H 450.739 -0.095149 4.16191 0
M  V30 4856 H 451.272 1.53129 3.67146 0
M  V30 4857 H 448.011 4.20347 5.02979 0
M  V30 4858 H 447.531 2.53927 5.43398 0
M  V30 4859 H 449.21 3.07426 5.69296 0
M  V30 4860 N 449.342 -1.36122 0.79427 0
M  V30 4861 C 450.567 -2.03891 0.379871 0
M  V30 4862 C 450.992 -1.59488 -0.997251 0
M  V30 4863 O 450.35 -0.765652 -1.64339 0
M  V30 4864 C 450.398 -3.57687 0.457442 0
M  V30 4865 O 449.502 -4.08931 -0.5338 0
M  V30 4866 H 448.843 -0.6443 0.160541 0
M  V30 4867 H 451.373 -1.73976 1.07673 0
M  V30 4868 H 451.383 -4.06721 0.322792 0
M  V30 4869 H 450.058 -3.89357 1.46199 0
M  V30 4870 H 448.635 -3.71154 -0.360409 0
M  V30 4871 N 450.82 -0.546701 -1.47814 0
M  V30 4872 C 451.783 0.196287 -2.28358 0
M  V30 4873 C 452.783 0.852437 -1.36346 0
M  V30 4874 O 453.973 0.709913 -1.59078 0
M  V30 4875 C 451.105 1.28579 -3.15722 0
M  V30 4876 H 452.298 -0.511086 -2.95513 0
M  V30 4877 H 449.851 -0.303248 -1.5333 0
M  V30 4878 H 450.586 2.0259 -2.53235 0
M  V30 4879 H 450.371 0.820229 -3.83425 0
M  V30 4880 H 451.861 1.80793 -3.76435 0
M  V30 4881 N 452.299 1.55045 -0.282633 0
M  V30 4882 C 453.527 2.04168 0.33512 0
M  V30 4883 C 453.942 1.16071 1.48906 0
M  V30 4884 O 453.299 0.182391 1.81586 0
M  V30 4885 C 453.35 3.52332 0.808957 0
M  V30 4886 O 453.071 4.37078 -0.299038 0
M  V30 4887 C 454.572 4.17375 1.49375 0
M  V30 4888 H 451.792 0.666744 0.0754543 0
M  V30 4889 H 454.336 2.00205 -0.416918 0
M  V30 4890 H 452.491 3.56715 1.51106 0
M  V30 4891 H 452.905 5.24458 0.0665514 0
M  V30 4892 H 454.379 5.22627 1.77664 0
M  V30 4893 H 454.856 3.65999 2.42778 0
M  V30 4894 H 455.462 4.17016 0.835305 0
M  V30 4895 N 453.777 0.010035 1.57597 0
M  V30 4896 C 455.023 -0.673697 1.91283 0
M  V30 4897 C 455.356 -1.72863 0.884979 0
M  V30 4898 O 454.631 -1.94268 -0.0949487 0
M  V30 4899 C 454.914 -1.30766 3.35518 0
M  V30 4900 C 454.767 -0.263578 4.49027 0
M  V30 4901 C 456.086 -2.23105 3.79358 0
M  V30 4902 H 453.205 -0.243439 0.695634 0
M  V30 4903 H 455.847 0.0633864 1.89894 0
M  V30 4904 H 453.997 -1.93588 3.36832 0
M  V30 4905 H 455.669 0.365738 4.59848 0
M  V30 4906 H 453.912 0.413077 4.31829 0
M  V30 4907 H 454.583 -0.746398 5.4693 0
M  V30 4908 H 457.059 -1.70289 3.79659 0
M  V30 4909 H 455.935 -2.64424 4.81011 0
M  V30 4910 H 456.196 -3.11433 3.13787 0
M  V30 4911 N 455.255 -1.55392 -0.262866 0
M  V30 4912 C 456.501 -1.76737 -0.99458 0
M  V30 4913 C 456.834 -0.572453 -1.85571 0
M  V30 4914 O 456.109 0.429732 -1.89693 0
M  V30 4915 C 456.392 -3.07824 -1.8686 0
M  V30 4916 C 456.245 -4.3769 -1.03672 0
M  V30 4917 C 457.564 -3.35021 -2.85393 0
M  V30 4918 H 454.683 -0.643005 -0.360157 0
M  V30 4919 H 457.325 -1.88126 -0.266216 0
M  V30 4920 H 455.475 -2.98245 -2.48962 0
M  V30 4921 H 457.147 -4.59238 -0.43563 0
M  V30 4922 H 455.39 -4.32461 -0.340513 0
M  V30 4923 H 456.061 -5.25759 -1.6817 0
M  V30 4924 H 458.537 -3.44458 -2.33426 0
M  V30 4925 H 457.413 -4.27989 -3.43681 0
M  V30 4926 H 457.674 -2.55153 -3.61039 0
M  V30 4927 N 456.733 0.527833 -1.48498 0
M  V30 4928 C 457.663 1.64136 -1.66077 0
M  V30 4929 C 458.644 1.62286 -0.509625 0
M  V30 4930 O 459.829 1.79449 -0.742413 0
M  V30 4931 C 456.959 3.02717 -1.70234 0
M  V30 4932 C 455.913 3.19426 -2.8487 0
M  V30 4933 C 455.239 4.5909 -2.74118 0
M  V30 4934 C 456.539 3.01993 -4.26142 0
M  V30 4935 H 458.233 1.4968 -2.593 0
M  V30 4936 H 455.779 0.718654 -1.24785 0
M  V30 4937 H 457.732 3.80491 -1.8112 0
M  V30 4938 H 456.456 3.18201 -0.735911 0
M  V30 4939 H 455.115 2.4407 -2.73542 0
M  V30 4940 H 454.763 4.71413 -1.7544 0
M  V30 4941 H 454.463 4.71214 -3.51042 0
M  V30 4942 H 455.987 5.3896 -2.86974 0
M  V30 4943 H 457.401 3.69558 -4.38292 0
M  V30 4944 H 455.798 3.2561 -5.04082 0
M  V30 4945 H 456.868 1.98396 -4.42456 0
M  V30 4946 N 458.211 1.37122 0.776871 0
M  V30 4947 C 459.158 1.3247 1.88998 0
M  V30 4948 C 460.128 0.191143 1.64997 0
M  V30 4949 O 461.313 0.379683 1.86984 0
M  V30 4950 C 458.453 1.13241 3.25992 0
M  V30 4951 C 457.566 2.35782 3.61982 0
M  V30 4952 C 456.701 2.09465 4.88158 0
M  V30 4953 C 455.74 3.279 5.16864 0
M  V30 4954 N 454.877 3.01167 6.34226 0
M  V30 4955 H 459.717 2.27642 1.9231 0
M  V30 4956 H 457.254 1.13125 0.94027 0
M  V30 4957 H 459.212 1.00115 4.0501 0
M  V30 4958 H 457.842 0.217186 3.22069 0
M  V30 4959 H 456.894 2.59666 2.77989 0
M  V30 4960 H 458.206 3.24125 3.79137 0
M  V30 4961 H 457.36 1.93341 5.75069 0
M  V30 4962 H 456.099 1.18452 4.73097 0
M  V30 4963 H 455.104 3.44569 4.2843 0
M  V30 4964 H 456.329 4.19757 5.33836 0
M  V30 4965 H 454.275 2.12779 6.20533 0
M  V30 4966 H 454.192 3.83052 6.51772 0
M  V30 4967 H 455.46 2.88649 7.24087 0
M  V30 4968 N 459.689 -1.00246 1.21608 0
M  V30 4969 C 461.105 -1.26435 0.973975 0
M  V30 4970 C 461.305 -1.98642 -0.338143 0
M  V30 4971 O 460.361 -2.29026 -1.06317 0
M  V30 4972 C 461.674 -2.08551 2.16626 0
M  V30 4973 C 463.222 -2.21769 2.20879 0
M  V30 4974 C 463.697 -3.07267 3.39633 0
M  V30 4975 N 465.188 -3.14855 3.39736 0
M  V30 4976 C 465.923 -3.81274 4.28273 0
M  V30 4977 N 465.419 -4.497 5.27012 0
M  V30 4978 N 467.212 -3.7794 4.16074 0
M  V30 4979 H 459.363 -0.518089 2.05984 0
M  V30 4980 H 461.626 -0.291368 0.902113 0
M  V30 4981 H 461.332 -1.62847 3.11727 0
M  V30 4982 H 461.206 -3.09303 2.15897 0
M  V30 4983 H 463.593 -2.66691 1.26332 0
M  V30 4984 H 463.674 -1.20478 2.25652 0
M  V30 4985 H 463.318 -2.63047 4.34475 0
M  V30 4986 H 463.248 -4.08678 3.321 0
M  V30 4987 H 465.739 -2.66147 2.6828 0
M  V30 4988 H 466.052 -4.98092 5.90867 0
M  V30 4989 H 464.397 -4.48479 5.30935 0
M  V30 4990 H 467.588 -3.23638 3.38195 0
M  V30 4991 H 467.761 -4.29424 4.85282 0
M  V30 4992 N 461.167 -1.02423 -1.1978 0
M  V30 4993 C 462.097 -0.62157 -2.25075 0
M  V30 4994 C 463.078 0.367148 -1.6609 0
M  V30 4995 O 464.263 0.250892 -1.92573 0
M  V30 4996 C 461.393 0.0331826 -3.47284 0
M  V30 4997 C 460.347 -0.877323 -4.18912 0
M  V30 4998 C 459.673 -0.0879296 -5.34628 0
M  V30 4999 C 460.973 -2.18892 -4.74219 0
M  V30 5000 H 462.667 -1.50179 -2.59011 0
M  V30 5001 H 460.213 -0.723547 -1.24502 0
M  V30 5002 H 462.166 0.326488 -4.20133 0
M  V30 5003 H 460.89 0.948164 -3.12534 0
M  V30 5004 H 459.549 -1.15475 -3.47938 0
M  V30 5005 H 459.197 0.828941 -4.96123 0
M  V30 5006 H 458.897 -0.694359 -5.83483 0
M  V30 5007 H 460.421 0.198743 -6.10276 0
M  V30 5008 H 461.835 -1.95746 -5.38847 0
M  V30 5009 H 460.232 -2.74686 -5.33542 0
M  V30 5010 H 461.302 -2.84674 -3.92541 0
M  V30 5011 N 462.645 1.35699 -0.801477 0
M  V30 5012 C 463.575 2.32436 -0.222658 0
M  V30 5013 C 464.556 1.5723 0.649057 0
M  V30 5014 O 465.741 1.85324 0.580387 0
M  V30 5015 C 462.871 3.41469 0.633719 0
M  V30 5016 C 461.825 4.27774 -0.139083 0
M  V30 5017 C 461.151 5.28082 0.838666 0
M  V30 5018 C 462.451 5.04946 -1.33517 0
M  V30 5019 H 464.145 2.81094 -1.03086 0
M  V30 5020 H 461.691 1.35146 -0.497155 0
M  V30 5021 H 463.644 4.08143 1.04868 0
M  V30 5022 H 462.368 2.91408 1.47475 0
M  V30 5023 H 461.027 3.62673 -0.535156 0
M  V30 5024 H 460.675 4.7429 1.67506 0
M  V30 5025 H 460.375 5.86695 0.32594 0
M  V30 5026 H 461.899 5.97628 1.25194 0
M  V30 5027 H 463.313 5.64593 -0.995349 0
M  V30 5028 H 461.71 5.7303 -1.78202 0
M  V30 5029 H 462.78 4.35886 -2.12442 0
M  V30 5030 N 464.123 0.554532 1.47522 0
M  V30 5031 C 465.033 -0.197865 2.33764 0
M  V30 5032 C 466.049 -0.914576 1.48025 0
M  V30 5033 O 467.225 -0.884067 1.80959 0
M  V30 5034 C 464.29 -1.21628 3.24665 0
M  V30 5035 C 463.351 -0.507283 4.26292 0
M  V30 5036 C 462.584 -1.47718 5.1285 0
M  V30 5037 O 462.807 -2.7118 5.01814 0
M  V30 5038 O 461.741 -1.00313 5.93482 0
M  V30 5039 H 465.567 0.50949 2.99396 0
M  V30 5040 H 463.152 0.315176 1.46038 0
M  V30 5041 H 465.034 -1.80421 3.80823 0
M  V30 5042 H 463.709 -1.9056 2.61665 0
M  V30 5043 H 462.616 0.121778 3.73902 0
M  V30 5044 H 463.949 0.140544 4.91999 0
M  V30 5045 N 465.601 -1.54893 0.290851 0
M  V30 5046 C 466.549 -2.24579 -0.605576 0
M  V30 5047 C 467.543 -1.24824 -1.14522 0
M  V30 5048 O 468.749 -1.42706 -1.09704 0
M  V30 5049 H 465.124 -0.720946 -0.213872 0
M  V30 5050 H 467.095 -2.984 0.0048173 0
M  V30 5051 C 465.844 -2.99224 -1.77088 0
M  V30 5052 H 465.167 -3.75782 -1.36484 0
M  V30 5053 H 466.607 -3.51281 -2.3744 0
M  V30 5054 C 465.066 -2.05602 -2.66888 0
M  V30 5055 O 465.596 -1.61745 -3.67698 0
M  V30 5056 N 463.802 -1.71771 -2.34399 0
M  V30 5057 H 463.349 -2.07633 -1.52468 0
M  V30 5058 H 463.307 -1.09403 -2.94751 0
M  V30 5059 N 467.08 -0.0183926 -1.57589 0
M  V30 5060 C 468.01 0.965596 -2.12599 0
M  V30 5061 C 468.991 1.34641 -1.0395 0
M  V30 5062 O 470.176 1.42693 -1.31729 0
M  V30 5063 C 467.306 2.25149 -2.64434 0
M  V30 5064 C 466.26 2.01175 -3.77773 0
M  V30 5065 C 465.586 3.35937 -4.15994 0
M  V30 5066 C 466.886 1.35953 -5.04296 0
M  V30 5067 H 468.58 0.507504 -2.95067 0
M  V30 5068 H 466.126 0.242671 -1.41941 0
M  V30 5069 H 468.079 2.94357 -3.01549 0
M  V30 5070 H 466.803 2.73105 -1.79112 0
M  V30 5071 H 465.462 1.34388 -3.4108 0
M  V30 5072 H 465.11 3.81631 -3.27669 0
M  V30 5073 H 464.81 3.20705 -4.92364 0
M  V30 5074 H 466.334 4.0643 -4.55683 0
M  V30 5075 H 467.748 1.95144 -5.39065 0
M  V30 5076 H 466.145 1.31152 -5.85593 0
M  V30 5077 H 467.215 0.331071 -4.83768 0
M  V30 5078 N 468.558 1.5553 0.254621 0
M  V30 5079 C 469.969 1.67518 0.824286 0
M  V30 5080 C 470.32 0.614429 1.86331 0
M  V30 5081 O 469.445 -0.240736 2.15057 0
M  V30 5082 C 470.04 3.03692 1.50189 0
M  V30 5083 C 468.599 3.17646 2.01935 0
M  V30 5084 C 467.746 2.63373 0.867746 0
M  V30 5085 H 470.697 1.58671 0.0305843 0
M  V30 5086 H 470.718 2.97706 2.36962 0
M  V30 5087 H 470.23 3.80874 0.745431 0
M  V30 5088 H 468.331 2.45273 2.80485 0
M  V30 5089 H 468.444 4.24455 2.22204 0
M  V30 5090 H 466.808 2.20999 1.26616 0
M  V30 5091 H 467.591 3.43074 0.124498 0
M  V30 5092 O 470.075 -0.400303 1.5646 0
M  V30 5093 H 470.766 -1.05256 1.62607 0
M  V30 END ATOM
M  V30 BEGIN BOND
M  V30 END BOND
M  V30 END CTAB
M  END
$$$$
