drugbank_target|Q5NUL3 Free fatty acid receptor 4 (DB05532; DB05793; DB13961)
 OpenBabel12092120313D

  0  0  0     0  0            999 V3000
M  V30 BEGIN CTAB
M  V30 COUNTS 6096 6166 0 0 0
M  V30 BEGIN ATOM
M  V30 1 H -0.908 1.98254 -0.117106 0
M  V30 2 N 0 1.576 0 0
M  V30 3 C 0.933 2.03868 1.02534 0
M  V30 4 C 1.911 0.928543 1.3348 0
M  V30 5 O 3.095 1.19667 1.45644 0
M  V30 6 C 0.222 2.43627 2.35294 0
M  V30 7 C -0.732 3.65373 2.2001 0
M  V30 8 S 0.101 5.13292 1.52614 0
M  V30 9 C 1.257 5.56322 2.86805 0
M  V30 10 H 1.49 2.90518 0.631377 0
M  V30 11 H -0.977 1.52953 0.210867 0
M  V30 12 H 0.981 2.67203 3.11629 0
M  V30 13 H -0.358 1.57376 2.7183 0
M  V30 14 H -1.165 3.90944 3.18086 0
M  V30 15 H -1.563 3.418 1.51819 0
M  V30 16 H 0.729 5.58782 3.83104 0
M  V30 17 H 1.672 6.56266 2.65933 0
M  V30 18 H 2.08 4.83886 2.90714 0
M  V30 19 N 1.4781 -0.272755 1.55222 0
M  V30 20 C 2.7031 -1.02683 1.80197 0
M  V30 21 C 3.1281 -1.79142 0.573551 0
M  V30 22 O 2.4861 -1.74917 -0.476849 0
M  V30 23 C 2.5341 -1.9609 3.02624 0
M  V30 24 O 1.6381 -3.04863 2.77727 0
M  V30 25 H 0.9791 -0.293557 0.595584 0
M  V30 26 H 3.5091 -0.30159 2.02365 0
M  V30 27 H 3.5191 -2.38039 3.31363 0
M  V30 28 H 2.1941 -1.39851 3.91682 0
M  V30 29 H 0.7711 -2.67228 2.60084 0
M  V30 30 N 2.9562 -1.48159 -0.537278 0
M  V30 31 C 4.3672 -1.49429 -1.11928 0
M  V30 32 C 4.7182 -0.26 -1.9447 0
M  V30 33 O 3.8432 0.633489 -2.0692 0
M  V30 34 C 4.4382 -2.70758 -2.03656 0
M  V30 35 C 2.9972 -2.74923 -2.57088 0
M  V30 36 C 2.1442 -2.42835 -1.3389 0
M  V30 37 H 5.0952 -1.55381 -0.322886 0
M  V30 38 H 5.1162 -2.48861 -2.87834 0
M  V30 39 H 4.6282 -3.60575 -1.43553 0
M  V30 40 H 2.7292 -1.89296 -3.20933 0
M  V30 41 H 2.8422 -3.76157 -2.9672 0
M  V30 42 H 1.2062 -1.93836 -1.65226 0
M  V30 43 H 1.9892 -3.34884 -0.755504 0
M  V30 44 N 4.4343 0.785586 -1.36625 0
M  V30 45 C 5.3443 1.92964 -1.33425 0
M  V30 46 C 6.3603 1.72394 -0.235851 0
M  V30 47 O 7.5363 1.95866 -0.468878 0
M  V30 48 C 4.6013 3.27884 -1.12662 0
M  V30 49 C 3.6623 3.61204 -2.32013 0
M  V30 50 C 2.8953 4.89687 -2.12231 0
M  V30 51 O 3.1183 5.59704 -1.09945 0
M  V30 52 O 2.0523 5.21752 -3.00098 0
M  V30 53 H 5.8783 1.98613 -2.29753 0
M  V30 54 H 3.4633 0.926384 -1.17211 0
M  V30 55 H 5.3453 4.08614 -1.03016 0
M  V30 56 H 4.0203 3.23118 -0.193991 0
M  V30 57 H 2.9273 2.80765 -2.47228 0
M  V30 58 H 4.2603 3.70698 -3.23796 0
M  V30 59 N 5.9124 1.20967 1.01018 0
M  V30 60 C 7.1524 1.03511 1.76252 0
M  V30 61 C 7.5164 -0.42458 1.87247 0
M  V30 62 O 8.7174 -0.719508 2.58991 0
M  V30 63 C 6.9884 1.70726 3.13986 0
M  V30 64 S 8.5474 1.68458 4.05176 0
M  V30 65 H 5.3654 0.371037 0.606508 0
M  V30 66 H 7.9674 1.53628 1.20908 0
M  V30 67 H 6.6714 2.76128 3.03614 0
M  V30 68 H 6.2024 1.20767 3.74405 0
M  V30 69 H 8.2174 0.721987 4.90919 0
M  V30 70 N 7.3905 -1.2043 1.01659 0
M  V30 71 C 8.3535 -2.21433 0.591616 0
M  V30 72 C 9.3535 -1.57203 -0.338226 0
M  V30 73 O 10.5435 -1.73737 -0.126918 0
M  V30 74 C 7.6755 -3.40628 -0.136058 0
M  V30 75 H 8.8685 -2.60545 1.48514 0
M  V30 76 H 6.4215 -1.33893 0.806379 0
M  V30 77 H 7.1565 -3.07019 -1.04449 0
M  V30 78 H 6.9415 -3.88475 0.531917 0
M  V30 79 H 8.4315 -4.15475 -0.420735 0
M  V30 80 N 8.8686 -0.792821 -1.36206 0
M  V30 81 C 10.2846 -0.474903 -1.52371 0
M  V30 82 C 10.4846 1.00622 -1.74578 0
M  V30 83 O 9.5406 1.79162 -1.77924 0
M  V30 84 C 10.8536 -1.3083 -2.70747 0
M  V30 85 C 12.4016 -1.30234 -2.84619 0
M  V30 86 C 12.8766 -2.11956 -4.06004 0
M  V30 87 N 14.3676 -2.09419 -4.13156 0
M  V30 88 C 15.1026 -2.69419 -5.06163 0
M  V30 89 N 14.5986 -3.3829 -6.04592 0
M  V30 90 N 16.3916 -2.59134 -4.98804 0
M  V30 91 H 8.5426 -1.75222 -1.20046 0
M  V30 92 H 10.8056 -0.745024 -0.586211 0
M  V30 93 H 10.5116 -2.35881 -2.6087 0
M  V30 94 H 10.3856 -0.95196 -3.6499 0
M  V30 95 H 12.7726 -0.259748 -2.93955 0
M  V30 96 H 12.8536 -1.69847 -1.91274 0
M  V30 97 H 12.4976 -3.16248 -3.97429 0
M  V30 98 H 12.4276 -1.69711 -4.98503 0
M  V30 99 H 14.9186 -1.59297 -3.42685 0
M  V30 100 H 15.2316 -3.81394 -6.7213 0
M  V30 101 H 13.5766 -3.42393 -6.04807 0
M  V30 102 H 16.7676 -2.04927 -4.20859 0
M  V30 103 H 16.9406 -3.06185 -5.711 0
M  V30 104 N 10.3467 1.47872 -0.545128 0
M  V30 105 C 11.3097 2.28337 0.198717 0
M  V30 106 C 12.3097 1.36255 0.853888 0
M  V30 107 O 13.4997 1.59003 0.711606 0
M  V30 108 C 10.6317 3.15585 1.28915 0
M  V30 109 H 11.8247 2.95567 -0.507941 0
M  V30 110 H 9.3777 1.53362 -0.301616 0
M  V30 111 H 10.1127 2.53019 2.02859 0
M  V30 112 H 9.8977 3.83337 0.824309 0
M  V30 113 H 11.3877 3.76243 1.81194 0
M  V30 114 N 11.8248 0.280983 1.55075 0
M  V30 115 C 12.7878 -0.590896 2.21452 0
M  V30 116 C 13.7878 -1.07682 1.19421 0
M  V30 117 O 14.9778 -0.97605 1.44288 0
M  V30 118 C 12.1098 -1.81587 2.88511 0
M  V30 119 H 13.3028 -0.0112554 2.99898 0
M  V30 120 H 10.8558 0.0316438 1.56268 0
M  V30 121 H 11.5908 -2.43587 2.14093 0
M  V30 122 H 11.3758 -1.4753 3.63287 0
M  V30 123 H 12.8658 -2.43575 3.39206 0
M  V30 124 N 13.3029 -1.57598 0.00835791 0
M  V30 125 C 14.5509 -1.90551 -0.6734 0
M  V30 126 C 14.8719 -0.883301 -1.73847 0
M  V30 127 O 14.1419 0.0781442 -1.95744 0
M  V30 128 H 12.7219 -0.703312 -0.251717 0
M  V30 129 H 15.3839 -1.94833 0.0512592 0
M  V30 130 H 14.4799 -2.9056 -1.13935 0
M  V30 131 N 14.781 0.264519 -1.55364 0
M  V30 132 C 16.058 1.01677 -1.67096 0
M  V30 133 C 16.438 2.03996 -0.543015 0
M  V30 134 O 15.786 2.23907 0.45585 0
M  V30 135 C 15.996 1.66596 -3.0667 0
M  V30 136 C 17.344 2.17442 -3.64697 0
M  V30 137 O 18.368 1.76568 -3.09358 0
M  V30 138 O 17.227 2.92439 -4.61673 0
M  V30 139 H 14.321 0.472161 -0.678965 0
M  V30 140 H 16.867 0.259703 -1.67701 0
M  V30 141 H 15.639 0.924962 -3.80211 0
M  V30 142 H 15.262 2.48968 -3.10001 0
M  V30 143 N 16.2591 1.48442 0.529413 0
M  V30 144 C 17.2221 1.62524 1.61612 0
M  V30 145 C 18.2221 0.498509 1.52877 0
M  V30 146 O 19.4121 0.76431 1.56537 0
M  V30 147 C 16.5441 1.59597 3.01233 0
M  V30 148 H 17.7371 2.59423 1.50465 0
M  V30 149 H 15.2901 1.37047 0.751514 0
M  V30 150 H 16.0251 0.641781 3.17886 0
M  V30 151 H 15.8101 2.41397 3.08982 0
M  V30 152 H 17.3001 1.72646 3.80241 0
M  V30 153 N 17.7372 -0.778329 1.37039 0
M  V30 154 C 19.1482 -1.35421 1.28523 0
M  V30 155 C 19.4992 -1.96075 -0.0700901 0
M  V30 156 O 18.6242 -1.93352 -0.971801 0
M  V30 157 C 19.2192 -2.46211 2.32735 0
M  V30 158 C 17.7782 -2.99585 2.27873 0
M  V30 159 C 16.9252 -1.72748 2.16918 0
M  V30 160 H 19.8762 -0.5791 1.47757 0
M  V30 161 H 19.8972 -3.2552 1.9702 0
M  V30 162 H 19.4092 -2.02036 3.31365 0
M  V30 163 H 17.5102 -3.48152 1.32745 0
M  V30 164 H 17.6232 -3.55646 3.21018 0
M  V30 165 H 15.9872 -1.95416 1.63354 0
M  V30 166 H 16.7702 -1.30686 3.17452 0
M  V30 167 N 19.2153 -1.21501 -1.00376 0
M  V30 168 C 20.1453 -0.999478 -2.11028 0
M  V30 169 C 21.1263 0.0759671 -1.6993 0
M  V30 170 O 22.3113 -0.0841106 -1.94018 0
M  V30 171 C 19.4413 -0.564709 -3.42678 0
M  V30 172 C 18.3953 -1.58486 -3.97576 0
M  V30 173 C 17.7213 -1.00628 -5.25146 0
M  V30 174 C 19.0213 -2.97204 -4.29496 0
M  V30 175 H 20.7153 -1.92495 -2.29317 0
M  V30 176 H 18.2613 -0.92693 -1.102 0
M  V30 177 H 20.2143 -0.401091 -4.19487 0
M  V30 178 H 18.9383 0.396411 -3.24185 0
M  V30 179 H 17.5973 -1.73606 -3.22888 0
M  V30 180 H 17.2453 -0.0368439 -5.02987 0
M  V30 181 H 16.9453 -1.68771 -5.62841 0
M  V30 182 H 18.4693 -0.854015 -6.04598 0
M  V30 183 H 19.8833 -2.8552 -4.97143 0
M  V30 184 H 18.2803 -3.62372 -4.78338 0
M  V30 185 H 19.3503 -3.47956 -3.3772 0
M  V30 186 N 20.6934 1.19889 -1.02296 0
M  V30 187 C 22.1094 1.41462 -0.738954 0
M  V30 188 C 22.3094 1.89721 0.678846 0
M  V30 189 O 21.3654 2.07016 1.4457 0
M  V30 190 C 22.6784 2.43083 -1.77005 0
M  V30 191 C 24.2264 2.5684 -1.78892 0
M  V30 192 C 24.7014 3.61709 -2.80945 0
M  V30 193 N 26.1924 3.69199 -2.79725 0
M  V30 194 C 26.9274 4.50019 -3.55345 0
M  V30 195 N 26.4234 5.34592 -4.40662 0
M  V30 196 N 28.2164 4.44612 -3.43914 0
M  V30 197 H 20.3674 0.868827 -1.93817 0
M  V30 198 H 22.6304 0.44399 -0.837602 0
M  V30 199 H 22.3364 2.14636 -2.78612 0
M  V30 200 H 22.2104 3.4217 -1.58744 0
M  V30 201 H 24.5974 2.84614 -0.779674 0
M  V30 202 H 24.6784 1.57927 -2.01228 0
M  V30 203 H 24.3224 3.34678 -3.82038 0
M  V30 204 H 24.2524 4.60259 -2.5587 0
M  V30 205 H 26.7434 3.08794 -2.17842 0
M  V30 206 H 27.0564 5.93363 -4.95116 0
M  V30 207 H 25.4014 5.34073 -4.44737 0
M  V30 208 H 28.5924 3.7758 -2.76679 0
M  V30 209 H 28.7654 5.0736 -4.031 0
M  V30 210 N 22.1715 0.800033 1.35784 0
M  V30 211 C 23.3965 0.388511 2.03729 0
M  V30 212 C 23.8215 -0.990481 1.5991 0
M  V30 213 O 23.1795 -1.64013 0.772612 0
M  V30 214 C 23.2275 0.4726 3.5749 0
M  V30 215 O 22.3315 -0.51646 4.09153 0
M  V30 216 H 21.6725 0.163271 0.643614 0
M  V30 217 H 24.2025 1.0841 1.73518 0
M  V30 218 H 24.2125 0.34003 4.06581 0
M  V30 219 H 22.8875 1.47848 3.88734 0
M  V30 220 H 21.4645 -0.344673 3.71304 0
M  V30 221 N 23.6496 -1.47581 0.552962 0
M  V30 222 C 24.5796 -2.32762 -0.185451 0
M  V30 223 C 25.5606 -1.43527 -0.912905 0
M  V30 224 O 26.7456 -1.72388 -0.894201 0
M  V30 225 C 23.8756 -3.25219 -1.21859 0
M  V30 226 C 22.8296 -4.23661 -0.607864 0
M  V30 227 C 22.1556 -5.05413 -1.74533 0
M  V30 228 C 23.4556 -5.20481 0.435582 0
M  V30 229 H 25.1496 -2.94749 0.525684 0
M  V30 230 H 22.6956 -1.41738 0.254251 0
M  V30 231 H 24.6486 -3.8365 -1.7433 0
M  V30 232 H 23.3726 -2.61279 -1.95961 0
M  V30 233 H 22.0316 -3.66451 -0.104489 0
M  V30 234 H 21.6796 -4.3788 -2.47529 0
M  V30 235 H 21.3796 -5.72059 -1.34249 0
M  V30 236 H 22.9036 -5.66701 -2.27338 0
M  V30 237 H 24.3176 -5.733 -0.00290157 0
M  V30 238 H 22.7146 -5.95305 0.757067 0
M  V30 239 H 23.7846 -4.66217 1.33303 0
M  V30 240 N 25.1277 -0.289203 -1.54924 0
M  V30 241 C 26.0377 0.601863 -2.26748 0
M  V30 242 C 27.0537 1.15834 -1.2984 0
M  V30 243 O 28.2297 1.18564 -1.62802 0
M  V30 244 C 25.2947 1.76299 -2.98529 0
M  V30 245 C 24.3557 1.24178 -4.10948 0
M  V30 246 C 23.5887 2.34757 -4.79296 0
M  V30 247 O 23.8117 3.54411 -4.46933 0
M  V30 248 O 22.7457 2.02115 -5.66951 0
M  V30 249 H 26.5717 0.0195879 -3.03694 0
M  V30 250 H 24.1567 -0.0560868 -1.49295 0
M  V30 251 H 26.0387 2.43973 -3.43592 0
M  V30 252 H 24.7137 2.33209 -2.24488 0
M  V30 253 H 23.6207 0.531104 -3.70311 0
M  V30 254 H 24.9537 0.718252 -4.86931 0
M  V30 255 N 26.6058 1.57591 -0.0167156 0
M  V30 256 C 27.5378 2.06343 0.997753 0
M  V30 257 C 28.5508 0.984469 1.29661 0
M  V30 258 O 29.7398 1.26093 1.26344 0
M  V30 259 C 26.8398 2.46255 2.32834 0
M  V30 260 C 26.0128 3.77083 2.21646 0
M  V30 261 C 25.0718 4.0368 3.37534 0
M  V30 262 O 24.0978 4.7411 3.14973 0
M  V30 263 N 25.2998 3.52881 4.60929 0
M  V30 264 H 28.0648 2.93997 0.581875 0
M  V30 265 H 25.6258 1.61002 0.170316 0
M  V30 266 H 27.6178 2.61149 3.09166 0
M  V30 267 H 26.1878 1.64032 2.66106 0
M  V30 268 H 25.4078 3.72106 1.30119 0
M  V30 269 H 26.6958 4.62822 2.11361 0
M  V30 270 H 26.0938 2.95878 4.82154 0
M  V30 271 H 24.6508 3.73076 5.34469 0
M  V30 272 N 28.0839 -0.256276 1.55502 0
M  V30 273 C 29.0469 -1.30047 1.88734 0
M  V30 274 C 30.0469 -1.4154 0.763086 0
M  V30 275 O 31.2369 -1.40403 1.03115 0
M  V30 276 C 28.3689 -2.67953 2.10747 0
M  V30 277 H 29.5619 -1.01802 2.82093 0
M  V30 278 H 27.1149 -0.495134 1.4825 0
M  V30 279 H 27.8499 -3.01351 1.19825 0
M  V30 280 H 27.6349 -2.60993 2.92617 0
M  V30 281 H 29.1249 -3.43368 2.37673 0
M  V30 282 N 29.562 -1.4872 -0.521534 0
M  V30 283 C 30.51 -1.64328 -1.64618 0
M  V30 284 C 31.504 -0.50953 -1.61555 0
M  V30 285 O 32.71 -0.688525 -1.66311 0
M  V30 286 H 29.085 -0.517805 -0.545328 0
M  V30 287 H 31.056 -2.58767 -1.48601 0
M  V30 288 C 29.805 -1.70805 -3.02855 0
M  V30 289 H 29.128 -2.5741 -3.05909 0
M  V30 290 H 30.568 -1.85766 -3.81139 0
M  V30 291 C 29.027 -0.448479 -3.33902 0
M  V30 292 O 29.557 0.434928 -3.99339 0
M  V30 293 N 27.763 -0.317616 -2.88859 0
M  V30 294 H 27.31 -1.03748 -2.35784 0
M  V30 295 H 27.268 0.524113 -3.10001 0
M  V30 296 N 31.0401 0.771051 -1.3745 0
M  V30 297 C 32.4561 1.07171 -1.18265 0
M  V30 298 C 32.6561 2.01491 -0.019287 0
M  V30 299 O 31.7121 2.44244 0.640408 0
M  V30 300 C 33.0251 1.66854 -2.50161 0
M  V30 301 C 34.5731 1.79109 -2.56689 0
M  V30 302 C 35.0481 2.42205 -3.88717 0
M  V30 303 N 36.5391 2.49655 -3.90162 0
M  V30 304 C 37.2741 2.9933 -4.8907 0
M  V30 305 N 36.7701 3.49172 -5.98374 0
M  V30 306 N 38.5631 2.9821 -4.76474 0
M  V30 307 H 30.7141 0.144796 -2.11906 0
M  V30 308 H 32.9771 0.126863 -0.939473 0
M  V30 309 H 32.6831 1.05017 -3.35655 0
M  V30 310 H 32.5571 2.6614 -2.673 0
M  V30 311 H 34.9441 2.40077 -1.71601 0
M  V30 312 H 35.0251 0.785757 -2.43433 0
M  V30 313 H 34.6691 1.81875 -4.74219 0
M  V30 314 H 34.5991 3.43345 -3.99276 0
M  V30 315 H 37.0901 2.14383 -3.11205 0
M  V30 316 H 37.4031 3.8548 -6.69795 0
M  V30 317 H 35.7481 3.47275 -6.02018 0
M  V30 318 H 38.9391 2.58572 -3.90203 0
M  V30 319 H 39.1121 3.36613 -5.53711 0
M  V30 320 N 32.5182 1.22032 0.997298 0
M  V30 321 C 33.7462 1.06841 1.7718 0
M  V30 322 C 34.1612 -0.381325 1.84909 0
M  V30 323 O 33.5182 -1.26437 1.31605 0
M  V30 324 C 33.5692 1.66814 3.20711 0
M  V30 325 O 33.2902 3.06116 3.13408 0
M  V30 326 C 34.7912 1.56838 4.14628 0
M  V30 327 H 32.0112 0.374782 0.556578 0
M  V30 328 H 34.5552 1.61532 1.2541 0
M  V30 329 H 32.7102 1.16196 3.69564 0
M  V30 330 H 33.1242 3.34926 4.0364 0
M  V30 331 H 34.5982 2.03532 5.13107 0
M  V30 332 H 35.0752 0.524155 4.36061 0
M  V30 333 H 35.6812 2.06741 3.7167 0
M  V30 334 N 33.9963 -1.19345 1.0293 0
M  V30 335 C 35.4123 -1.41069 0.746446 0
M  V30 336 C 35.6123 -1.90078 -0.668776 0
M  V30 337 O 34.6683 -2.0778 -1.4347 0
M  V30 338 C 35.9813 -2.42141 1.78292 0
M  V30 339 C 37.5293 -2.55887 1.80252 0
M  V30 340 C 38.0043 -3.60214 2.8286 0
M  V30 341 N 39.4953 -3.67711 2.81679 0
M  V30 342 C 40.2303 -4.48128 3.57727 0
M  V30 343 N 39.7263 -5.32248 4.43491 0
M  V30 344 N 41.5193 -4.42782 3.46267 0
M  V30 345 H 33.6703 -0.858536 1.94275 0
M  V30 346 H 35.9333 -0.439541 0.839945 0
M  V30 347 H 35.6393 -2.13155 2.79746 0
M  V30 348 H 35.5133 -3.41323 1.60557 0
M  V30 349 H 37.9003 -2.84196 0.794757 0
M  V30 350 H 37.9813 -1.56858 2.02062 0
M  V30 351 H 37.6253 -3.32647 3.83807 0
M  V30 352 H 37.5553 -4.58895 2.58307 0
M  V30 353 H 40.0463 -3.07634 2.19476 0
M  V30 354 H 40.3593 -5.90729 4.98256 0
M  V30 355 H 38.7043 -5.31707 4.47564 0
M  V30 356 H 41.8953 -3.76107 2.78677 0
M  V30 357 H 42.0683 -5.05215 4.05785 0
M  V30 358 N 35.4744 -0.807222 -1.35358 0
M  V30 359 C 36.7214 -0.387888 -1.9875 0
M  V30 360 C 37.0494 1.04509 -1.64037 0
M  V30 361 O 36.3044 1.73986 -0.895946 0
M  V30 362 C 36.6034 -0.519036 -3.53611 0
M  V30 363 C 36.2694 -1.91542 -4.08194 0
M  V30 364 C 34.9314 -2.29745 -4.22813 0
M  V30 365 C 37.2834 -2.82896 -4.37744 0
M  V30 366 C 34.6114 -3.58668 -4.643 0
M  V30 367 C 36.9634 -4.11265 -4.8067 0
M  V30 368 C 35.6274 -4.49466 -4.93494 0
M  V30 369 H 34.8974 -0.141938 -0.727279 0
M  V30 370 H 37.5444 -1.02814 -1.6156 0
M  V30 371 H 35.8494 0.204658 -3.91265 0
M  V30 372 H 37.5464 -0.175345 -4.00616 0
M  V30 373 H 34.1364 -1.60862 -3.97268 0
M  V30 374 H 38.3204 -2.54629 -4.26002 0
M  V30 375 H 33.5764 -3.88113 -4.72418 0
M  V30 376 H 37.7504 -4.82153 -5.02496 0
M  V30 377 H 35.3774 -5.49418 -5.25399 0
M  V30 378 N 36.9525 1.47285 -0.560781 0
M  V30 379 C 38.3635 1.86258 -0.128343 0
M  V30 380 C 38.7145 1.46699 1.30284 0
M  V30 381 O 37.8395 0.871698 1.98067 0
M  V30 382 C 38.4345 3.38044 -0.22614 0
M  V30 383 C 36.9935 3.76096 0.151283 0
M  V30 384 C 36.1405 2.71335 -0.572084 0
M  V30 385 H 39.0915 1.38752 -0.770297 0
M  V30 386 H 39.1125 3.76441 0.554322 0
M  V30 387 H 38.6245 3.66806 -1.26788 0
M  V30 388 H 36.7255 3.52951 1.19399 0
M  V30 389 H 36.8385 4.78641 -0.209765 0
M  V30 390 H 35.2025 2.54696 -0.0147653 0
M  V30 391 H 35.9855 3.02938 -1.61504 0
M  V30 392 N 38.4306 0.297415 1.54768 0
M  V30 393 C 39.6776 -0.312913 2.00068 0
M  V30 394 C 40.0056 -1.54171 1.18582 0
M  V30 395 O 39.2606 -1.94108 0.249133 0
M  V30 396 C 39.5596 -0.717561 3.50123 0
M  V30 397 C 39.2256 0.409095 4.4904 0
M  V30 398 C 37.8876 0.718399 4.75807 0
M  V30 399 C 40.2396 1.16717 5.07963 0
M  V30 400 C 37.5676 1.78896 5.5876 0
M  V30 401 C 39.9196 2.22762 5.92081 0
M  V30 402 C 38.5836 2.54303 6.1716 0
M  V30 403 H 37.8536 -0.114503 0.7321 0
M  V30 404 H 40.5006 0.415767 1.86932 0
M  V30 405 H 38.8056 -1.52627 3.60849 0
M  V30 406 H 40.5026 -1.20091 3.82595 0
M  V30 407 H 37.0926 0.157918 4.28309 0
M  V30 408 H 41.2766 0.941466 4.87289 0
M  V30 409 H 36.5326 2.0381 5.7643 0
M  V30 410 H 40.7066 2.81962 6.36765 0
M  V30 411 H 38.3336 3.3739 6.81229 0
M  V30 412 N 39.9087 -1.5758 0.0250728 0
M  V30 413 C 41.1557 -1.91633 -0.654444 0
M  V30 414 C 41.4837 -0.901103 -1.72367 0
M  V30 415 O 40.7387 0.0905647 -1.9549 0
M  V30 416 C 41.0377 -3.32421 -1.31268 0
M  V30 417 C 40.7037 -4.49344 -0.374223 0
M  V30 418 C 39.3657 -4.8106 -0.115911 0
M  V30 419 C 41.7177 -5.20498 0.270432 0
M  V30 420 C 39.0457 -5.8129 0.79493 0
M  V30 421 C 41.3977 -6.21699 1.1693 0
M  V30 422 C 40.0617 -6.51859 1.43655 0
M  V30 423 H 39.3317 -0.701236 -0.239478 0
M  V30 424 H 41.9787 -1.91307 0.0859734 0
M  V30 425 H 40.2837 -3.28989 -2.12775 0
M  V30 426 H 41.9807 -3.56038 -1.84494 0
M  V30 427 H 38.5707 -4.24579 -0.58573 0
M  V30 428 H 42.7547 -4.96229 0.0839194 0
M  V30 429 H 38.0107 -6.03005 1.00973 0
M  V30 430 H 42.1847 -6.75955 1.67504 0
M  V30 431 H 39.8117 -7.2934 2.144 0
M  V30 432 N 41.3868 0.248026 -1.55636 0
M  V30 433 C 42.6118 0.998028 -1.81808 0
M  V30 434 C 43.0368 1.78207 -0.601979 0
M  V30 435 O 42.3948 1.75653 0.448961 0
M  V30 436 C 42.4428 1.9125 -3.05705 0
M  V30 437 O 41.5468 3.00406 -2.82542 0
M  V30 438 H 40.8878 0.284045 -0.600179 0
M  V30 439 H 43.4178 0.269357 -2.02819 0
M  V30 440 H 43.4278 2.32737 -3.35108 0
M  V30 441 H 42.1028 1.33602 -3.93857 0
M  V30 442 H 40.6798 2.63056 -2.64303 0
M  V30 443 N 42.8649 1.48995 0.513639 0
M  V30 444 C 44.1419 1.48338 1.27495 0
M  V30 445 C 44.5219 0.204065 2.10111 0
M  V30 446 O 43.8699 -0.813881 2.13514 0
M  V30 447 C 44.0799 2.75498 2.14247 0
M  V30 448 C 45.4279 3.24484 2.73852 0
M  V30 449 O 46.4519 2.76528 2.24523 0
M  V30 450 O 45.3109 4.07974 3.6362 0
M  V30 451 H 42.4049 0.593149 0.576284 0
M  V30 452 H 44.9509 1.61246 0.528948 0
M  V30 453 H 43.7229 3.60109 1.53092 0
M  V30 454 H 43.3459 2.6539 2.96064 0
M  V30 455 N 44.343 -0.763751 1.37857 0
M  V30 456 C 45.589 -1.52483 1.33704 0
M  V30 457 C 45.922 -1.94051 -0.0759612 0
M  V30 458 O 45.197 -1.64675 -1.03501 0
M  V30 459 C 45.48 -2.78441 2.28348 0
M  V30 460 C 45.333 -2.43075 3.78463 0
M  V30 461 C 46.652 -3.80415 2.21298 0
M  V30 462 H 43.771 -0.553169 0.487005 0
M  V30 463 H 46.413 -0.875562 1.68624 0
M  V30 464 H 44.563 -3.33842 1.987 0
M  V30 465 H 46.235 -1.93527 4.18742 0
M  V30 466 H 44.478 -1.75666 3.96641 0
M  V30 467 H 45.149 -3.33149 4.40132 0
M  V30 468 H 47.625 -3.34527 2.47449 0
M  V30 469 H 46.501 -4.66257 2.89647 0
M  V30 470 H 46.762 -4.25262 1.20849 0
M  V30 471 N 45.8211 -1.22559 -0.990812 0
M  V30 472 C 46.7681 -0.997519 -2.0813 0
M  V30 473 C 47.7381 0.0814702 -1.659 0
M  V30 474 O 48.9231 -0.0685424 -1.90677 0
M  V30 475 C 46.0631 -0.583615 -3.40129 0
M  V30 476 C 45.1761 -1.7336 -3.9569 0
M  V30 477 C 44.3111 -1.26748 -5.15857 0
M  V30 478 C 43.3501 -2.38888 -5.63559 0
M  V30 479 N 42.4871 -1.93308 -6.74964 0
M  V30 480 H 47.3271 -1.93099 -2.26973 0
M  V30 481 H 44.8641 -0.962114 -1.11273 0
M  V30 482 H 46.8221 -0.324801 -4.15934 0
M  V30 483 H 45.4521 0.312845 -3.2128 0
M  V30 484 H 44.5041 -2.10669 -3.16738 0
M  V30 485 H 45.8161 -2.57704 -4.27071 0
M  V30 486 H 44.9701 -0.966173 -5.98957 0
M  V30 487 H 43.7091 -0.394272 -4.86104 0
M  V30 488 H 42.7141 -2.69805 -4.79046 0
M  V30 489 H 43.9391 -3.26728 -5.95336 0
M  V30 490 H 41.8851 -1.08352 -6.4699 0
M  V30 491 H 41.8021 -2.71217 -7.05675 0
M  V30 492 H 43.0701 -1.66252 -7.61564 0
M  V30 493 N 47.2992 1.18797 -1.03562 0
M  V30 494 C 48.5472 1.88278 -0.734569 0
M  V30 495 C 48.8682 1.8043 0.739586 0
M  V30 496 O 48.1382 1.21925 1.53333 0
M  V30 497 H 46.7182 0.696991 -0.268725 0
M  V30 498 H 49.3802 1.44192 -1.31129 0
M  V30 499 H 48.4762 2.94443 -1.03489 0
M  V30 500 N 48.7773 0.814389 1.34928 0
M  V30 501 C 50.0543 0.321363 1.92942 0
M  V30 502 C 50.4343 -1.19014 1.74353 0
M  V30 503 O 49.7823 -1.99328 1.11716 0
M  V30 504 C 49.9923 0.741323 3.41036 0
M  V30 505 C 51.3403 0.735266 4.18185 0
M  V30 506 O 52.3643 0.68336 3.49584 0
M  V30 507 O 51.2233 0.800703 5.40602 0
M  V30 508 H 48.3173 0.0858893 0.822528 0
M  V30 509 H 50.8633 0.898609 1.43955 0
M  V30 510 H 49.6353 1.78276 3.4833 0
M  V30 511 H 49.2583 0.139307 3.97356 0
M  V30 512 N 50.2554 -1.46986 0.568584 0
M  V30 513 C 51.2054 -2.27179 -0.193339 0
M  V30 514 C 52.1894 -1.35035 -0.874895 0
M  V30 515 O 53.3814 -1.5931 -0.771322 0
M  V30 516 C 50.5104 -3.21063 -1.21546 0
M  V30 517 C 49.5964 -4.2069 -0.536738 0
M  V30 518 N 49.9874 -5.04218 0.399673 0
M  V30 519 C 48.2854 -4.38961 -0.789254 0
M  V30 520 C 48.9864 -5.76242 0.795017 0
M  V30 521 N 47.9624 -5.434 0.1473 0
M  V30 522 H 51.7644 -2.89146 0.526458 0
M  V30 523 H 49.2784 -1.57664 0.389342 0
M  V30 524 H 51.2754 -3.77209 -1.77536 0
M  V30 525 H 49.9354 -2.60654 -1.93623 0
M  V30 526 H 50.9464 -5.12077 0.774454 0
M  V30 527 H 47.6234 -3.89713 -1.49767 0
M  V30 528 H 49.0134 -6.53417 1.56513 0
M  V30 529 N 51.7335 -0.305618 -1.54608 0
M  V30 530 C 53.1495 0.0476228 -1.59529 0
M  V30 531 C 53.3495 1.52025 -1.32252 0
M  V30 532 O 52.4055 2.27368 -1.09818 0
M  V30 533 C 53.7185 -0.354471 -2.98603 0
M  V30 534 C 55.2665 -0.303622 -3.11524 0
M  V30 535 C 55.7415 -0.680608 -4.52915 0
M  V30 536 N 57.2325 -0.63332 -4.5885 0
M  V30 537 C 57.9675 -0.897432 -5.66334 0
M  V30 538 N 57.4635 -1.22775 -6.81834 0
M  V30 539 N 59.2565 -0.824186 -5.56025 0
M  V30 540 H 51.4075 -1.2653 -1.70599 0
M  V30 541 H 53.6705 -0.513291 -0.797017 0
M  V30 542 H 53.3765 -1.3798 -3.23503 0
M  V30 543 H 53.2505 0.289568 -3.76087 0
M  V30 544 H 55.6375 0.712472 -2.8637 0
M  V30 545 H 55.7185 -0.982348 -2.36185 0
M  V30 546 H 55.3625 -1.69453 -4.78799 0
M  V30 547 H 55.2925 0.0202385 -5.26596 0
M  V30 548 H 57.7835 -0.389138 -3.75891 0
M  V30 549 H 58.0965 -1.41513 -7.59733 0
M  V30 550 H 56.4415 -1.26583 -6.83375 0
M  V30 551 H 59.6325 -0.565748 -4.64669 0
M  V30 552 H 59.8055 -1.03338 -6.39707 0
M  V30 553 N 53.2116 1.57565 -0.0334293 0
M  V30 554 C 54.1416 2.13511 0.945265 0
M  V30 555 C 55.1226 1.05231 1.33643 0
M  V30 556 O 56.3076 1.33084 1.41429 0
M  V30 557 C 53.4376 2.6657 2.22616 0
M  V30 558 C 52.3916 3.79676 1.97561 0
M  V30 559 C 51.7176 4.1918 3.31952 0
M  V30 560 C 53.0176 5.0557 1.31135 0
M  V30 561 H 54.7116 2.95538 0.479325 0
M  V30 562 H 52.2576 1.42166 0.229115 0
M  V30 563 H 54.2106 3.04344 2.91466 0
M  V30 564 H 52.9346 1.8171 2.71384 0
M  V30 565 H 51.5936 3.42347 1.31127 0
M  V30 566 H 51.2416 3.31296 3.78487 0
M  V30 567 H 50.9416 4.95402 3.15992 0
M  V30 568 H 52.4656 4.59541 4.02063 0
M  V30 569 H 53.8796 5.40903 1.89992 0
M  V30 570 H 52.2766 5.86818 1.25559 0
M  V30 571 H 53.3466 4.84062 0.284894 0
M  V30 572 N 54.6897 -0.239769 1.55765 0
M  V30 573 C 55.9357 -0.968234 1.78194 0
M  V30 574 C 56.2687 -1.84701 0.599938 0
M  V30 575 O 55.5437 -1.9031 -0.401524 0
M  V30 576 C 55.8267 -1.8227 3.10564 0
M  V30 577 C 55.6797 -0.971633 4.3918 0
M  V30 578 C 56.9987 -2.80388 3.39221 0
M  V30 579 H 54.1177 -0.350572 0.648281 0
M  V30 580 H 56.7597 -0.238259 1.885 0
M  V30 581 H 54.9097 -2.44507 3.01908 0
M  V30 582 H 56.5817 -0.367408 4.59835 0
M  V30 583 H 54.8247 -0.276276 4.32919 0
M  V30 584 H 55.4957 -1.60346 5.28198 0
M  V30 585 H 57.9717 -2.28287 3.47885 0
M  V30 586 H 56.8477 -3.3729 4.33044 0
M  V30 587 H 57.1087 -3.57212 2.60484 0
M  V30 588 N 56.1678 -1.49265 -0.50573 0
M  V30 589 C 57.0978 -1.68495 -1.61653 0
M  V30 590 C 58.0788 -0.53366 -1.61512 0
M  V30 591 O 59.2638 -0.76897 -1.78327 0
M  V30 592 C 56.3938 -1.74709 -3.00157 0
M  V30 593 C 55.3478 -2.89581 -3.15162 0
M  V30 594 C 54.6738 -2.80903 -4.5497 0
M  V30 595 C 55.9738 -4.30578 -2.95634 0
M  V30 596 H 57.6678 -2.61493 -1.45814 0
M  V30 597 H 55.2138 -1.25838 -0.70005 0
M  V30 598 H 57.1668 -1.86748 -3.77761 0
M  V30 599 H 55.8908 -0.783067 -3.17074 0
M  V30 600 H 54.5498 -2.77136 -2.39982 0
M  V30 601 H 54.1978 -1.82419 -4.68756 0
M  V30 602 H 53.8978 -3.57999 -4.65951 0
M  V30 603 H 55.4218 -2.94944 -5.34641 0
M  V30 604 H 56.8358 -4.4373 -3.63011 0
M  V30 605 H 55.2328 -5.0886 -3.18091 0
M  V30 606 H 56.3028 -4.45352 -1.91806 0
M  V30 607 N 57.6459 0.756429 -1.3826 0
M  V30 608 C 58.6089 1.85176 -1.35065 0
M  V30 609 C 59.6089 1.58818 -0.251703 0
M  V30 610 O 60.7989 1.66615 -0.508433 0
M  V30 611 C 57.9309 3.22596 -1.10201 0
M  V30 612 H 59.1239 1.89417 -2.3251 0
M  V30 613 H 56.6769 0.95783 -1.23512 0
M  V30 614 H 57.4119 3.24025 -0.133504 0
M  V30 615 H 57.1969 3.43122 -1.89762 0
M  V30 616 H 58.6869 4.02673 -1.10654 0
M  V30 617 N 59.124 1.23083 0.984299 0
M  V30 618 C 60.087 1.00979 2.05757 0
M  V30 619 C 61.087 -0.0269573 1.60777 0
M  V30 620 O 62.277 0.212403 1.729 0
M  V30 621 C 59.409 0.527072 3.36801 0
M  V30 622 H 60.602 1.9622 2.26799 0
M  V30 623 H 58.155 1.05072 1.15714 0
M  V30 624 H 58.89 -0.429294 3.21446 0
M  V30 625 H 58.675 1.27515 3.70786 0
M  V30 626 H 60.165 0.392942 4.15747 0
M  V30 627 N 60.6021 -1.18246 1.0419 0
M  V30 628 C 61.8481 -1.88536 0.747122 0
M  V30 629 C 62.1811 -1.80223 -0.723409 0
M  V30 630 O 61.4561 -1.20337 -1.52804 0
M  V30 631 C 61.7391 -3.38968 1.21544 0
M  V30 632 C 61.5921 -3.56084 2.74816 0
M  V30 633 C 62.9111 -4.32648 0.806482 0
M  V30 634 H 60.0301 -0.684619 0.272883 0
M  V30 635 H 62.6721 -1.39113 1.29413 0
M  V30 636 H 60.8221 -3.8119 0.750081 0
M  V30 637 H 62.4941 -3.22946 3.29399 0
M  V30 638 H 60.7371 -2.98699 3.14582 0
M  V30 639 H 61.4081 -4.61639 3.02644 0
M  V30 640 H 63.8841 -3.98211 1.20695 0
M  V30 641 H 62.7601 -5.36462 1.1619 0
M  V30 642 H 63.0211 -4.41146 -0.29029 0
M  V30 643 N 62.0802 -0.821533 -1.34494 0
M  V30 644 C 62.9902 -0.244355 -2.33324 0
M  V30 645 C 64.0062 0.620527 -1.62559 0
M  V30 646 O 65.1822 0.528754 -1.94335 0
M  V30 647 C 62.2472 0.585368 -3.41723 0
M  V30 648 C 61.3082 -0.301752 -4.28238 0
M  V30 649 C 60.5412 0.488466 -5.3146 0
M  V30 650 O 60.7642 1.72186 -5.4379 0
M  V30 651 O 59.6982 -0.12848 -6.01763 0
M  V30 652 H 63.5242 -1.06231 -2.84515 0
M  V30 653 H 61.1092 -0.583645 -1.37528 0
M  V30 654 H 62.9912 1.05747 -4.07916 0
M  V30 655 H 61.6662 1.38068 -2.92778 0
M  V30 656 H 60.5732 -0.821315 -3.64973 0
M  V30 657 H 61.9062 -1.06138 -4.8062 0
M  V30 658 N 63.5583 1.46682 -0.576371 0
M  V30 659 C 64.7863 2.06798 -0.0649635 0
M  V30 660 C 65.2013 1.42612 1.23723 0
M  V30 661 O 64.5583 0.529203 1.74659 0
M  V30 662 C 64.6093 3.6132 0.114202 0
M  V30 663 O 64.3303 4.23104 -1.13644 0
M  V30 664 C 65.8313 4.38349 0.66069 0
M  V30 665 H 63.0513 0.668778 -0.0545616 0
M  V30 666 H 65.5953 1.88404 -0.795237 0
M  V30 667 H 63.7503 3.79162 0.794673 0
M  V30 668 H 64.1643 5.15894 -0.946253 0
M  V30 669 H 65.6383 5.47081 0.73526 0
M  V30 670 H 66.1153 4.05953 1.67627 0
M  V30 671 H 66.7213 4.25297 0.0152951 0
M  V30 672 N 65.0364 0.313813 1.54444 0
M  V30 673 C 66.2644 -0.293918 2.04802 0
M  V30 674 C 66.6794 -1.46537 1.19047 0
M  V30 675 O 66.0364 -1.81182 0.218939 0
M  V30 676 C 66.0874 -0.737806 3.53891 0
M  V30 677 O 65.8084 0.387038 4.36387 0
M  V30 678 C 67.3094 -1.40936 4.203 0
M  V30 679 H 64.5294 -0.0620057 0.668129 0
M  V30 680 H 67.0734 0.457169 1.99324 0
M  V30 681 H 65.2284 -1.43889 3.59687 0
M  V30 682 H 65.6424 0.0391274 5.24485 0
M  V30 683 H 67.1164 -1.67099 5.26101 0
M  V30 684 H 67.5934 -2.35355 3.70816 0
M  V30 685 H 68.1994 -0.751117 4.18615 0
M  V30 686 N 66.5145 -1.57545 0.0417849 0
M  V30 687 C 67.7605 -1.92601 -0.635021 0
M  V30 688 C 68.0935 -0.919627 -1.71045 0
M  V30 689 O 67.3685 0.0557892 -1.9442 0
M  V30 690 C 67.6515 -3.38085 -1.23979 0
M  V30 691 C 67.5045 -4.49467 -0.173057 0
M  V30 692 C 68.8235 -3.83776 -2.15416 0
M  V30 693 H 65.9425 -0.700397 -0.229374 0
M  V30 694 H 68.5845 -1.89728 0.101633 0
M  V30 695 H 66.7345 -3.40664 -1.86762 0
M  V30 696 H 68.4065 -4.59018 0.458312 0
M  V30 697 H 66.6495 -4.30909 0.499996 0
M  V30 698 H 67.3205 -5.48323 -0.636054 0
M  V30 699 H 69.7965 -3.83013 -1.62605 0
M  V30 700 H 68.6725 -4.8624 -2.54679 0
M  V30 701 H 68.9335 -3.19998 -3.05047 0
M  V30 702 N 67.9926 0.231505 -1.5589 0
M  V30 703 C 68.9226 1.29022 -1.94617 0
M  V30 704 C 69.9036 1.4941 -0.813067 0
M  V30 705 O 71.0886 1.6176 -1.07459 0
M  V30 706 C 68.2186 2.64199 -2.25424 0
M  V30 707 C 67.1726 2.58484 -3.41131 0
M  V30 708 C 66.4986 3.97599 -3.57518 0
M  V30 709 C 67.7986 2.1413 -4.76388 0
M  V30 710 H 69.4926 0.968563 -2.83301 0
M  V30 711 H 67.0386 0.464479 -1.36303 0
M  V30 712 H 68.9916 3.38413 -2.51107 0
M  V30 713 H 67.7156 2.98032 -1.33583 0
M  V30 714 H 66.3746 1.86727 -3.15481 0
M  V30 715 H 66.0226 4.28723 -2.6307 0
M  V30 716 H 65.7226 3.94659 -4.35337 0
M  V30 717 H 67.2466 4.7349 -3.85538 0
M  V30 718 H 68.6606 2.78083 -5.01341 0
M  V30 719 H 67.0576 2.2227 -5.57419 0
M  V30 720 H 68.1276 1.09331 -4.72414 0
M  V30 721 N 69.4707 1.49531 0.497807 0
M  V30 722 C 70.7167 1.59415 1.25358 0
M  V30 723 C 71.0497 0.281422 1.9215 0
M  V30 724 O 70.3247 -0.715249 1.80871 0
M  V30 725 C 70.6077 2.75566 2.3181 0
M  V30 726 C 70.4607 4.16642 1.69498 0
M  V30 727 C 71.7797 2.87347 3.33346 0
M  V30 728 H 68.8987 0.580244 0.454408 0
M  V30 729 H 71.5407 1.81827 0.551262 0
M  V30 730 H 69.6907 2.56587 2.91711 0
M  V30 731 H 71.3627 4.47145 1.13399 0
M  V30 732 H 69.6057 4.22141 0.998978 0
M  V30 733 H 70.2767 4.93792 2.46725 0
M  V30 734 H 72.7527 3.04634 2.83438 0
M  V30 735 H 71.6287 3.70289 4.05188 0
M  V30 736 H 71.8897 1.96834 3.95865 0
M  V30 737 N 70.9488 -0.749086 1.3866 0
M  V30 738 C 71.8788 -1.8764 1.38973 0
M  V30 739 C 72.8598 -1.68178 0.255004 0
M  V30 740 O 74.0448 -1.88704 0.458754 0
M  V30 741 C 71.1748 -3.25222 1.21851 0
M  V30 742 C 70.1288 -3.59295 2.32575 0
M  V30 743 C 69.4548 -4.95663 2.00555 0
M  V30 744 C 70.7548 -3.63709 3.7485 0
M  V30 745 H 72.4488 -1.87635 2.3331 0
M  V30 746 H 69.9948 -0.901329 1.12303 0
M  V30 747 H 71.9478 -4.03746 1.20695 0
M  V30 748 H 70.6718 -3.25719 0.239775 0
M  V30 749 H 69.3308 -2.83093 2.32925 0
M  V30 750 H 68.9788 -4.92724 1.01154 0
M  V30 751 H 68.6788 -5.19429 2.74714 0
M  V30 752 H 70.2028 -5.7656 2.01024 0
M  V30 753 H 71.6168 -4.32338 3.76506 0
M  V30 754 H 70.0138 -3.98986 4.48252 0
M  V30 755 H 71.0838 -2.63834 4.06841 0
M  V30 756 N 72.4269 -1.23603 -0.977757 0
M  V30 757 C 73.6759 -1.06377 -1.71368 0
M  V30 758 C 73.9889 0.399062 -1.91486 0
M  V30 759 O 75.1949 0.691312 -2.62551 0
M  V30 760 C 73.6509 -1.85512 -3.08404 0
M  V30 761 C 73.2589 -3.36141 -2.96164 0
M  V30 762 C 75.0029 -1.76783 -3.85938 0
M  V30 763 C 72.9099 -4.07659 -4.28449 0
M  V30 764 H 71.8399 -0.394452 -0.642591 0
M  V30 765 H 74.4909 -1.47594 -1.09034 0
M  V30 766 H 72.8729 -1.37103 -3.71509 0
M  V30 767 H 74.0469 -3.92056 -2.42133 0
M  V30 768 H 72.3619 -3.45712 -2.32104 0
M  V30 769 H 74.9589 -2.27526 -4.83876 0
M  V30 770 H 75.3019 -0.731116 -4.0983 0
M  V30 771 H 75.8349 -2.22818 -3.2954 0
M  V30 772 H 72.5739 -5.11648 -4.09752 0
M  V30 773 H 72.0939 -3.5653 -4.82334 0
M  V30 774 H 73.7729 -4.141 -4.97122 0
M  V30 775 N 73.905 1.17692 -1.04816 0
M  V30 776 C 75.152 1.87859 -0.75599 0
M  V30 777 C 75.48 1.80812 0.716752 0
M  V30 778 O 74.735 1.20819 1.53952 0
M  V30 779 C 75.034 3.37462 -1.17703 0
M  V30 780 C 74.7 3.64713 -2.65133 0
M  V30 781 C 73.362 3.71859 -3.05408 0
M  V30 782 C 75.714 3.76492 -3.60421 0
M  V30 783 C 73.042 3.88271 -4.39843 0
M  V30 784 C 75.394 3.94421 -4.94585 0
M  V30 785 C 74.058 3.99806 -5.3452 0
M  V30 786 H 73.328 0.687425 -0.276636 0
M  V30 787 H 75.975 1.39255 -1.31455 0
M  V30 788 H 74.28 3.88097 -0.537395 0
M  V30 789 H 75.977 3.90109 -0.928218 0
M  V30 790 H 72.567 3.59772 -2.32942 0
M  V30 791 H 76.751 3.70295 -3.30447 0
M  V30 792 H 72.007 3.90687 -4.70291 0
M  V30 793 H 76.181 4.02477 -5.68318 0
M  V30 794 H 73.808 4.12276 -6.38696 0
M  V30 795 N 75.3831 0.828654 1.34056 0
M  V30 796 C 76.3461 0.259927 2.27721 0
M  V30 797 C 77.3461 -0.565478 1.50529 0
M  V30 798 O 78.5361 -0.38075 1.69988 0
M  V30 799 C 75.6681 -0.634944 3.34935 0
M  V30 800 H 76.8611 1.0863 2.79534 0
M  V30 801 H 74.4141 0.600951 1.44285 0
M  V30 802 H 75.1491 -1.48416 2.88346 0
M  V30 803 H 74.9341 -0.0444999 3.92075 0
M  V30 804 H 76.4241 -1.02648 4.04788 0
M  V30 805 N 76.8612 -1.46375 0.584142 0
M  V30 806 C 78.1072 -2.02678 0.0703716 0
M  V30 807 C 78.4402 -1.4545 -1.28678 0
M  V30 808 O 77.7152 -0.62014 -1.84349 0
M  V30 809 C 77.9982 -3.60099 0.00614674 0
M  V30 810 C 77.8512 -4.27709 1.3923 0
M  V30 811 C 79.1702 -4.34598 -0.693742 0
M  V30 812 H 76.2892 -0.736504 0.027047 0
M  V30 813 H 78.9312 -1.74501 0.751615 0
M  V30 814 H 77.0812 -3.84236 -0.574009 0
M  V30 815 H 78.7532 -4.14832 2.01773 0
M  V30 816 H 76.9962 -3.87016 1.95962 0
M  V30 817 H 77.6672 -5.36478 1.29982 0
M  V30 818 H 80.1432 -4.15615 -0.200869 0
M  V30 819 H 79.0192 -5.44318 -0.707714 0
M  V30 820 H 79.2802 -4.05759 -1.75533 0
M  V30 821 N 78.3393 -0.321999 -1.54275 0
M  V30 822 C 79.5643 0.285791 -2.05422 0
M  V30 823 C 79.9893 1.45124 -1.19669 0
M  V30 824 O 79.3473 1.80132 -0.205441 0
M  V30 825 C 79.3953 0.69956 -3.53749 0
M  V30 826 O 78.4993 1.8021 -3.70942 0
M  V30 827 H 77.8403 0.0518962 -0.661969 0
M  V30 828 H 80.3703 -0.469954 -1.9913 0
M  V30 829 H 80.3803 0.982649 -3.9599 0
M  V30 830 H 79.0553 -0.152864 -4.15619 0
M  V30 831 H 77.6323 1.51794 -3.40607 0
M  V30 832 N 79.8174 1.5752 -0.0501392 0
M  V30 833 C 80.7474 2.14502 0.922566 0
M  V30 834 C 81.7284 1.06642 1.3252 0
M  V30 835 O 82.9134 1.34577 1.4001 0
M  V30 836 C 80.0434 2.68916 2.19776 0
M  V30 837 C 78.9974 3.8175 1.93523 0
M  V30 838 C 78.3234 4.22677 3.27487 0
M  V30 839 C 79.6234 5.06932 1.25765 0
M  V30 840 H 81.3174 2.9603 0.447952 0
M  V30 841 H 78.8634 1.42401 0.214024 0
M  V30 842 H 80.8164 3.07419 2.88222 0
M  V30 843 H 79.5404 1.84578 2.69441 0
M  V30 844 H 78.1994 3.43718 1.27489 0
M  V30 845 H 77.8474 3.35291 3.74952 0
M  V30 846 H 77.5474 4.98725 3.1072 0
M  V30 847 H 79.0714 4.63779 3.97166 0
M  V30 848 H 80.4854 5.42888 1.84244 0
M  V30 849 H 78.8824 5.88116 1.19328 0
M  V30 850 H 79.9524 4.84337 0.233536 0
M  V30 851 N 81.2955 -0.223234 1.56011 0
M  V30 852 C 82.2255 -1.27988 1.95298 0
M  V30 853 C 83.2065 -1.48976 0.820979 0
M  V30 854 O 84.3915 -1.61188 1.08315 0
M  V30 855 C 81.5215 -2.63 2.26822 0
M  V30 856 C 80.4755 -2.56671 3.42497 0
M  V30 857 C 79.8015 -3.95697 3.59622 0
M  V30 858 C 81.1015 -2.11601 4.77517 0
M  V30 859 H 82.7955 -0.953525 2.8381 0
M  V30 860 H 80.3415 -0.457244 1.36548 0
M  V30 861 H 82.2945 -3.37077 2.52898 0
M  V30 862 H 81.0185 -2.9732 1.35161 0
M  V30 863 H 79.6775 -1.85051 3.16467 0
M  V30 864 H 79.3255 -4.27322 2.6534 0
M  V30 865 H 79.0255 -3.92345 4.37424 0
M  V30 866 H 80.5495 -4.71438 3.88044 0
M  V30 867 H 81.9635 -2.7542 5.02809 0
M  V30 868 H 80.3605 -2.19311 5.5859 0
M  V30 869 H 81.4305 -1.06824 4.72987 0
M  V30 870 N 82.7736 -1.49793 -0.48987 0
M  V30 871 C 84.0216 -1.59525 -1.24081 0
M  V30 872 C 84.3426 -0.288953 -1.92847 0
M  V30 873 O 83.6126 0.692436 -1.83254 0
M  V30 874 H 82.1926 -0.587796 -0.460983 0
M  V30 875 H 84.8546 -1.86477 -0.566778 0
M  V30 876 H 83.9506 -2.39696 -1.99881 0
M  V30 877 N 84.2517 0.741722 -1.39055 0
M  V30 878 C 85.1997 1.87702 -1.3737 0
M  V30 879 C 86.1937 1.67427 -0.257812 0
M  V30 880 O 87.3997 1.7485 -0.427489 0
M  V30 881 H 83.7747 0.617757 -0.428812 0
M  V30 882 H 85.7457 1.86239 -2.33147 0
M  V30 883 C 84.4947 3.25315 -1.22741 0
M  V30 884 H 83.8177 3.41509 -2.07873 0
M  V30 885 H 85.2577 4.04964 -1.25618 0
M  V30 886 C 83.7167 3.36838 0.0647316 0
M  V30 887 O 84.2467 3.88073 1.03741 0
M  V30 888 N 82.4527 2.90329 0.125544 0
M  V30 889 H 81.9997 2.48823 -0.666682 0
M  V30 890 H 81.9577 2.98418 0.989639 0
M  V30 891 N 85.7298 1.2412 0.971189 0
M  V30 892 C 86.9758 1.08041 1.71625 0
M  V30 893 C 87.3088 -0.380407 1.90438 0
M  V30 894 O 86.5838 -1.28127 1.46334 0
M  V30 895 C 86.8668 1.81682 3.10908 0
M  V30 896 C 86.7198 3.35493 2.99608 0
M  V30 897 C 88.0388 1.58671 4.10501 0
M  V30 898 H 85.1578 0.39388 0.622919 0
M  V30 899 H 87.7998 1.52743 1.13003 0
M  V30 900 H 85.9498 1.43684 3.60953 0
M  V30 901 H 87.6218 3.83068 2.57015 0
M  V30 902 H 85.8648 3.64052 2.35899 0
M  V30 903 H 86.5358 3.82217 3.98264 0
M  V30 904 H 89.0118 1.91719 3.69301 0
M  V30 905 H 87.8878 2.1266 5.06031 0
M  V30 906 H 88.1488 0.524161 4.38982 0
M  V30 907 N 87.2079 -1.17134 1.05439 0
M  V30 908 C 88.4479 -1.89137 0.77502 0
M  V30 909 C 88.8119 -1.79345 -0.685526 0
M  V30 910 O 90.0129 -2.46188 -1.0791 0
M  V30 911 C 88.2839 -3.35003 1.2453 0
M  V30 912 S 89.8429 -4.24952 1.09367 0
M  V30 913 H 86.6609 -0.652949 0.281387 0
M  V30 914 H 89.2629 -1.4145 1.34953 0
M  V30 915 H 87.9669 -3.39666 2.30338 0
M  V30 916 H 87.4979 -3.87736 0.665166 0
M  V30 917 H 89.5129 -4.96196 0.0193397 0
M  V30 918 N 88.686 -0.835752 -1.33615 0
M  V30 919 C 89.649 -0.272 -2.2758 0
M  V30 920 C 90.649 0.557487 -1.50827 0
M  V30 921 O 91.839 0.37173 -1.70188 0
M  V30 922 C 88.971 0.617173 -3.35267 0
M  V30 923 H 90.164 -1.10111 -2.78954 0
M  V30 924 H 87.717 -0.608594 -1.43965 0
M  V30 925 H 88.452 1.46884 -2.89129 0
M  V30 926 H 88.237 0.0237066 -3.92093 0
M  V30 927 H 89.727 1.005 -4.05326 0
M  V30 928 N 90.1641 1.46063 -0.591896 0
M  V30 929 C 91.0941 2.33172 0.123673 0
M  V30 930 C 92.0751 1.45897 0.87453 0
M  V30 931 O 93.2601 1.74698 0.848181 0
M  V30 932 C 90.3901 3.28336 1.13194 0
M  V30 933 C 89.3441 4.25124 0.495324 0
M  V30 934 C 88.6701 5.09863 1.61071 0
M  V30 935 C 89.9701 5.19143 -0.573425 0
M  V30 936 H 91.6641 2.93252 -0.603646 0
M  V30 937 H 89.2101 1.41014 -0.291741 0
M  V30 938 H 91.1631 3.88137 1.64097 0
M  V30 939 H 89.8871 2.66383 1.88965 0
M  V30 940 H 88.5461 3.66599 0.00729452 0
M  V30 941 H 88.1941 4.44288 2.35832 0
M  V30 942 H 87.8941 5.75417 1.19035 0
M  V30 943 H 89.4181 5.72529 2.12233 0
M  V30 944 H 90.8321 5.73106 -0.1491 0
M  V30 945 H 89.2291 5.93089 -0.914636 0
M  V30 946 H 90.2991 4.62519 -1.45617 0
M  V30 947 N 91.6422 0.330177 1.54103 0
M  V30 948 C 92.8882 -0.270806 2.00984 0
M  V30 949 C 93.2212 -1.51265 1.21789 0
M  V30 950 O 92.4962 -1.92142 0.301927 0
M  V30 951 C 92.7792 -0.598339 3.55094 0
M  V30 952 C 92.6322 0.654674 4.4501 0
M  V30 953 C 93.9512 -1.41334 4.16789 0
M  V30 954 H 91.0702 -0.0969531 0.730595 0
M  V30 955 H 93.7122 0.448066 1.84641 0
M  V30 956 H 91.8622 -1.21078 3.69151 0
M  V30 957 H 93.5342 1.29285 4.42813 0
M  V30 958 H 91.7772 1.28224 4.14416 0
M  V30 959 H 92.4482 0.380944 5.50684 0
M  V30 960 H 94.9242 -0.895597 4.06347 0
M  V30 961 H 93.8002 -1.61127 5.24718 0
M  V30 962 H 94.0612 -2.41146 3.70541 0
M  V30 963 N 93.1203 -1.57491 0.0584922 0
M  V30 964 C 94.0503 -2.14988 -0.911178 0
M  V30 965 C 95.0313 -1.07343 -1.31952 0
M  V30 966 O 96.2163 -1.35318 -1.39294 0
M  V30 967 C 93.3463 -2.70078 -2.18347 0
M  V30 968 C 92.3003 -3.82771 -1.91495 0
M  V30 969 C 91.6263 -4.24408 -3.25241 0
M  V30 970 C 92.9263 -5.07592 -1.23075 0
M  V30 971 H 94.6203 -2.96263 -0.432246 0
M  V30 972 H 92.1663 -1.42512 -0.206469 0
M  V30 973 H 94.1193 -3.08943 -2.86587 0
M  V30 974 H 92.8433 -1.86005 -2.68458 0
M  V30 975 H 91.5023 -3.44389 -1.25664 0
M  V30 976 H 91.1503 -3.37275 -3.73168 0
M  V30 977 H 90.8503 -5.00366 -3.08071 0
M  V30 978 H 92.3743 -4.65879 -3.94701 0
M  V30 979 H 93.7883 -5.43857 -1.81362 0
M  V30 980 H 92.1853 -5.88741 -1.16207 0
M  V30 981 H 93.2553 -4.84454 -0.207847 0
M  V30 982 N 94.5984 0.214957 -1.56127 0
M  V30 983 C 95.8444 0.939762 -1.79712 0
M  V30 984 C 96.1774 1.83723 -0.629247 0
M  V30 985 O 95.4524 1.90925 0.371197 0
M  V30 986 C 95.7354 1.77306 -3.13424 0
M  V30 987 C 95.5884 0.90164 -4.40671 0
M  V30 988 C 96.9074 2.74956 -3.43638 0
M  V30 989 H 94.0264 0.340214 -0.653776 0
M  V30 990 H 96.6684 0.20824 -1.88855 0
M  V30 991 H 94.8184 2.39673 -3.0576 0
M  V30 992 H 96.4904 0.294206 -4.60361 0
M  V30 993 H 94.7334 0.207368 -4.33304 0
M  V30 994 H 95.4044 1.51923 -5.30682 0
M  V30 995 H 97.8804 2.22724 -3.51473 0
M  V30 996 H 96.7564 3.30358 -4.38355 0
M  V30 997 H 97.0174 3.53023 -2.66134 0
M  V30 998 N 96.0765 1.50051 0.48192 0
M  V30 999 C 97.0395 1.67584 1.5636 0
M  V30 1000 C 98.0395 0.546894 1.51214 0
M  V30 1001 O 99.2295 0.813725 1.54026 0
M  V30 1002 C 96.3615 1.691 2.96003 0
M  V30 1003 H 97.5545 2.64078 1.42136 0
M  V30 1004 H 95.1075 1.39369 0.707533 0
M  V30 1005 H 95.8425 0.742589 3.15684 0
M  V30 1006 H 95.6275 2.51105 3.01146 0
M  V30 1007 H 97.1175 1.84656 3.74556 0
M  V30 1008 N 97.5546 -0.734337 1.39446 0
M  V30 1009 C 98.9706 -1.03997 1.21065 0
M  V30 1010 C 99.1706 -2.01369 0.0727019 0
M  V30 1011 O 98.2266 -2.45856 -0.575426 0
M  V30 1012 C 99.5396 -1.60163 2.54496 0
M  V30 1013 C 101.088 -1.7224 2.61347 0
M  V30 1014 C 101.563 -2.31814 3.95002 0
M  V30 1015 N 103.054 -2.39223 3.96644 0
M  V30 1016 C 103.789 -2.86258 4.96834 0
M  V30 1017 N 103.285 -3.33184 6.07421 0
M  V30 1018 N 105.078 -2.85473 4.84213 0
M  V30 1019 H 97.2286 -0.0885624 2.12215 0
M  V30 1020 H 99.4916 -0.10191 0.942506 0
M  V30 1021 H 99.1976 -0.960811 3.38321 0
M  V30 1022 H 99.0716 -2.5896 2.74262 0
M  V30 1023 H 101.459 -2.35443 1.77906 0
M  V30 1024 H 101.54 -0.720939 2.4543 0
M  V30 1025 H 101.184 -1.69238 4.78875 0
M  V30 1026 H 101.114 -3.32638 4.08239 0
M  V30 1027 H 103.605 -2.06057 3.16779 0
M  V30 1028 H 103.918 -3.67586 6.7978 0
M  V30 1029 H 102.263 -3.31191 6.11013 0
M  V30 1030 H 105.454 -2.48136 3.96921 0
M  V30 1031 H 105.627 -3.21814 5.62441 0
M  V30 1032 N 99.0327 -1.24633 -0.964593 0
M  V30 1033 C 100.449 -1.01239 -1.2338 0
M  V30 1034 C 100.649 0.2769 -1.99588 0
M  V30 1035 O 99.7047 0.992241 -2.32187 0
M  V30 1036 C 101.018 -2.22937 -2.01791 0
M  V30 1037 C 102.566 -2.27594 -2.14872 0
M  V30 1038 C 103.041 -3.48921 -2.96678 0
M  V30 1039 N 104.532 -3.49257 -3.04259 0
M  V30 1040 C 105.267 -4.39795 -3.67924 0
M  V30 1041 N 104.763 -5.40591 -4.33281 0
M  V30 1042 N 106.556 -4.275 -3.64966 0
M  V30 1043 H 98.7067 -2.0748 -0.454502 0
M  V30 1044 H 100.97 -0.910647 -0.26349 0
M  V30 1045 H 100.676 -3.16587 -1.53184 0
M  V30 1046 H 100.55 -2.25306 -3.02518 0
M  V30 1047 H 102.937 -1.34473 -2.6268 0
M  V30 1048 H 103.018 -2.2925 -1.13482 0
M  V30 1049 H 102.662 -4.42359 -2.49562 0
M  V30 1050 H 102.592 -3.4451 -3.98272 0
M  V30 1051 H 105.083 -2.76337 -2.57771 0
M  V30 1052 H 105.396 -6.05904 -4.79687 0
M  V30 1053 H 103.741 -5.44475 -4.3194 0
M  V30 1054 H 106.932 -3.47987 -3.13086 0
M  V30 1055 H 107.105 -4.98258 -4.14298 0
M  V30 1056 N 100.511 1.16574 -1.06058 0
M  V30 1057 C 101.927 1.3904 -0.783585 0
M  V30 1058 C 102.127 1.91784 0.618145 0
M  V30 1059 O 101.183 2.11511 1.37911 0
M  V30 1060 C 102.496 2.37329 -1.84649 0
M  V30 1061 C 104.044 2.51018 -1.86973 0
M  V30 1062 C 104.519 3.52588 -2.92311 0
M  V30 1063 N 106.01 3.60113 -2.91329 0
M  V30 1064 C 106.745 4.38486 -3.69482 0
M  V30 1065 N 106.241 5.20302 -4.57447 0
M  V30 1066 N 108.034 4.33446 -3.57885 0
M  V30 1067 H 100.185 0.806725 -1.96483 0
M  V30 1068 H 102.448 0.417117 -0.851303 0
M  V30 1069 H 102.154 2.05663 -2.85299 0
M  V30 1070 H 102.028 3.36946 -1.6955 0
M  V30 1071 H 104.415 2.81989 -0.869827 0
M  V30 1072 H 104.496 1.51445 -2.0615 0
M  V30 1073 H 104.14 3.22354 -3.92492 0
M  V30 1074 H 104.07 4.51886 -2.70383 0
M  V30 1075 H 106.561 3.01707 -2.27555 0
M  V30 1076 H 106.874 5.77311 -5.13743 0
M  V30 1077 H 105.219 5.19653 -4.61503 0
M  V30 1078 H 108.41 3.68586 -2.88551 0
M  V30 1079 H 108.583 4.94279 -4.19037 0
M  V30 1080 N 101.989 0.842826 1.3317 0
M  V30 1081 C 103.405 0.531128 1.50503 0
M  V30 1082 C 103.605 -0.940734 1.78192 0
M  V30 1083 O 102.661 -1.72436 1.84451 0
M  V30 1084 C 103.974 1.40789 2.65705 0
M  V30 1085 C 105.522 1.40708 2.79589 0
M  V30 1086 C 105.997 2.26878 3.97857 0
M  V30 1087 N 107.488 2.24609 4.05099 0
M  V30 1088 C 108.223 2.88019 4.95815 0
M  V30 1089 N 107.719 3.60496 5.9162 0
M  V30 1090 N 109.512 2.77469 4.88843 0
M  V30 1091 H 101.663 1.79557 1.1346 0
M  V30 1092 H 103.926 0.766267 0.558156 0
M  V30 1093 H 103.632 2.454 2.51936 0
M  V30 1094 H 103.506 1.08677 3.61205 0
M  V30 1095 H 105.893 0.368668 2.92788 0
M  V30 1096 H 105.974 1.76829 1.84838 0
M  V30 1097 H 105.618 3.3078 3.85418 0
M  V30 1098 H 105.548 1.88096 4.91861 0
M  V30 1099 H 108.039 1.71906 3.36536 0
M  V30 1100 H 108.352 4.06076 6.57512 0
M  V30 1101 H 106.697 3.64604 5.91683 0
M  V30 1102 H 109.888 2.20406 4.12963 0
M  V30 1103 H 110.061 3.2717 5.59342 0
M  V30 1104 N 103.467 -1.45747 0.599634 0
M  V30 1105 C 104.883 -1.57424 0.26264 0
M  V30 1106 C 105.083 -1.59222 -1.23493 0
M  V30 1107 O 104.139 -1.51825 -2.01756 0
M  V30 1108 C 105.452 -2.86061 0.926795 0
M  V30 1109 C 107 -2.99722 0.901967 0
M  V30 1110 C 107.475 -4.31119 1.54598 0
M  V30 1111 N 108.966 -4.37858 1.5111 0
M  V30 1112 C 109.701 -5.3818 1.97863 0
M  V30 1113 N 109.197 -6.45083 2.52666 0
M  V30 1114 N 110.99 -5.29487 1.88679 0
M  V30 1115 H 103.141 -1.42823 1.57211 0
M  V30 1116 H 105.404 -0.68235 0.658105 0
M  V30 1117 H 105.11 -2.90605 1.98095 0
M  V30 1118 H 104.984 -3.74563 0.445238 0
M  V30 1119 H 107.371 -2.9475 -0.143617 0
M  V30 1120 H 107.452 -2.12652 1.42171 0
M  V30 1121 H 107.096 -4.36849 2.59085 0
M  V30 1122 H 107.026 -5.16992 1.00132 0
M  V30 1123 H 109.517 -3.61209 1.11068 0
M  V30 1124 H 109.83 -7.17869 2.86155 0
M  V30 1125 H 108.175 -6.45856 2.56701 0
M  V30 1126 H 111.366 -4.44877 1.4561 0
M  V30 1127 H 111.539 -6.07524 2.25429 0
M  V30 1128 N 104.945 -0.338344 -1.53925 0
M  V30 1129 C 106.193 0.259245 -2.0043 0
M  V30 1130 C 106.514 1.51484 -1.22791 0
M  V30 1131 O 105.784 1.93037 -0.33368 0
M  V30 1132 H 104.364 0.0987845 -0.740439 0
M  V30 1133 H 107.026 -0.458302 -1.89435 0
M  V30 1134 H 106.122 0.505334 -3.07982 0
M  V30 1135 N 106.423 1.57458 -0.0668435 0
M  V30 1136 C 107.386 2.11323 0.887422 0
M  V30 1137 C 108.386 1.03618 1.22964 0
M  V30 1138 O 109.576 1.29626 1.16373 0
M  V30 1139 C 106.708 2.61048 2.19242 0
M  V30 1140 H 107.901 2.96942 0.420194 0
M  V30 1141 H 105.454 1.55239 0.181793 0
M  V30 1142 H 106.189 1.78868 2.70512 0
M  V30 1143 H 105.974 3.39769 1.95702 0
M  V30 1144 H 107.464 3.02814 2.87565 0
M  V30 1145 N 107.901 -0.206675 1.56239 0
M  V30 1146 C 109.129 -0.945345 1.8404 0
M  V30 1147 C 109.544 -1.77336 0.647885 0
M  V30 1148 O 108.901 -1.78425 -0.383511 0
M  V30 1149 C 108.952 -1.8509 3.10522 0
M  V30 1150 O 108.673 -1.05634 4.25174 0
M  V30 1151 C 110.174 -2.70222 3.51418 0
M  V30 1152 H 107.394 -0.276372 0.61144 0
M  V30 1153 H 109.938 -0.217417 2.03341 0
M  V30 1154 H 108.093 -2.53259 2.93153 0
M  V30 1155 H 108.507 -1.67238 4.97124 0
M  V30 1156 H 109.981 -3.29438 4.42916 0
M  V30 1157 H 110.458 -3.43358 2.73864 0
M  V30 1158 H 111.064 -2.07443 3.71278 0
M  V30 1159 N 109.379 -1.50304 -0.473955 0
M  V30 1160 C 110.342 -1.6841 -1.55469 0
M  V30 1161 C 111.342 -0.554905 -1.50922 0
M  V30 1162 O 112.532 -0.821882 -1.53593 0
M  V30 1163 C 109.664 -1.70667 -2.95102 0
M  V30 1164 H 110.857 -2.64828 -1.40733 0
M  V30 1165 H 108.41 -1.39742 -0.700132 0
M  V30 1166 H 109.145 -0.75932 -3.15285 0
M  V30 1167 H 108.93 -2.52698 -2.9981 0
M  V30 1168 H 110.42 -1.8664 -3.73571 0
M  V30 1169 N 110.857 0.726932 -1.39834 0
M  V30 1170 C 112.097 1.4992 -1.38936 0
M  V30 1171 C 112.461 1.91996 0.0126883 0
M  V30 1172 O 113.662 2.68399 0.146715 0
M  V30 1173 C 111.933 2.70013 -2.34153 0
M  V30 1174 S 113.492 3.59563 -2.51515 0
M  V30 1175 H 110.31 0.51271 -0.492595 0
M  V30 1176 H 112.912 0.85107 -1.76003 0
M  V30 1177 H 111.616 2.37254 -3.34871 0
M  V30 1178 H 111.147 3.39748 -1.98331 0
M  V30 1179 H 113.162 4.63973 -1.75909 0
M  V30 1180 N 112.336 1.25143 0.95797 0
M  V30 1181 C 113.266 1.07711 2.07173 0
M  V30 1182 C 114.247 -0.0128462 1.70095 0
M  V30 1183 O 115.432 0.156061 1.93572 0
M  V30 1184 C 112.562 0.691503 3.40346 0
M  V30 1185 C 111.516 1.73132 3.9142 0
M  V30 1186 C 110.842 1.20049 5.21049 0
M  V30 1187 C 112.142 3.1294 4.1817 0
M  V30 1188 H 113.836 2.00873 2.22014 0
M  V30 1189 H 111.382 0.967191 1.06684 0
M  V30 1190 H 113.335 0.556505 4.17709 0
M  V30 1191 H 112.059 -0.275819 3.25433 0
M  V30 1192 H 110.718 1.8547 3.16222 0
M  V30 1193 H 110.366 0.223499 5.02503 0
M  V30 1194 H 110.066 1.89545 5.56189 0
M  V30 1195 H 111.59 1.07782 6.01012 0
M  V30 1196 H 113.004 3.03775 4.86203 0
M  V30 1197 H 111.401 3.79875 4.64559 0
M  V30 1198 H 112.471 3.6025 3.24573 0
M  V30 1199 N 113.814 -1.1601 1.06675 0
M  V30 1200 C 115.06 -1.86909 0.786945 0
M  V30 1201 C 115.393 -1.81717 -0.685018 0
M  V30 1202 O 114.668 -1.23551 -1.50218 0
M  V30 1203 C 114.951 -3.36313 1.28707 0
M  V30 1204 C 114.804 -3.50175 2.82308 0
M  V30 1205 C 116.123 -4.3084 0.898071 0
M  V30 1206 H 113.242 -0.678677 0.287343 0
M  V30 1207 H 115.884 -1.36336 1.32334 0
M  V30 1208 H 114.034 -3.79513 0.830768 0
M  V30 1209 H 115.706 -3.15886 3.36175 0
M  V30 1210 H 113.949 -2.91959 3.20847 0
M  V30 1211 H 114.62 -4.55116 3.12368 0
M  V30 1212 H 117.096 -3.95561 1.29114 0
M  V30 1213 H 115.972 -5.33876 1.27543 0
M  V30 1214 H 116.233 -4.41662 -0.196651 0
M  V30 1215 N 115.292 -0.849877 -1.32721 0
M  V30 1216 C 116.222 -0.306308 -2.31482 0
M  V30 1217 C 117.203 0.591952 -1.59468 0
M  V30 1218 O 118.388 0.513199 -1.87296 0
M  V30 1219 C 115.518 0.510204 -3.43532 0
M  V30 1220 C 114.472 -0.293209 -4.26994 0
M  V30 1221 C 113.798 0.647743 -5.30762 0
M  V30 1222 C 115.098 -1.51634 -4.99804 0
M  V30 1223 H 116.792 -1.13153 -2.77195 0
M  V30 1224 H 114.338 -0.545553 -1.33266 0
M  V30 1225 H 116.291 0.900856 -4.11658 0
M  V30 1226 H 115.015 1.36874 -2.96535 0
M  V30 1227 H 113.674 -0.665555 -3.60508 0
M  V30 1228 H 113.322 1.50299 -4.8002 0
M  V30 1229 H 113.022 0.11422 -5.87489 0
M  V30 1230 H 114.546 1.03567 -6.01753 0
M  V30 1231 H 115.96 -1.19824 -5.60638 0
M  V30 1232 H 114.357 -1.98745 -5.66234 0
M  V30 1233 H 115.427 -2.28018 -4.27943 0
M  V30 1234 N 116.77 1.45427 -0.607355 0
M  V30 1235 C 117.718 2.32269 0.12411 0
M  V30 1236 C 118.712 1.45955 0.859854 0
M  V30 1237 O 119.918 1.6244 0.775447 0
M  V30 1238 H 116.293 0.749691 0.0588839 0
M  V30 1239 H 118.264 2.91743 -0.626762 0
M  V30 1240 C 117.013 3.29567 1.1082 0
M  V30 1241 H 116.336 3.95978 0.551492 0
M  V30 1242 H 117.776 3.93061 1.58995 0
M  V30 1243 C 116.235 2.56722 2.18164 0
M  V30 1244 O 116.765 2.34842 3.25902 0
M  V30 1245 N 114.971 2.16861 1.93442 0
M  V30 1246 H 114.518 2.34855 1.05834 0
M  V30 1247 H 114.476 1.68444 2.65469 0
M  V30 1248 N 118.248 0.346503 1.53744 0
M  V30 1249 C 119.178 -0.501193 2.28058 0
M  V30 1250 C 120.159 -1.10014 1.29734 0
M  V30 1251 O 121.344 -1.12097 1.58581 0
M  V30 1252 C 118.474 -1.65078 3.05559 0
M  V30 1253 C 117.428 -1.18003 4.11411 0
M  V30 1254 C 116.754 -2.41837 4.76884 0
M  V30 1255 C 118.054 -0.278394 5.21558 0
M  V30 1256 H 119.748 0.11875 2.99164 0
M  V30 1257 H 117.294 0.0585531 1.43881 0
M  V30 1258 H 119.247 -2.25028 3.56287 0
M  V30 1259 H 117.971 -2.29767 2.32109 0
M  V30 1260 H 116.63 -0.603331 3.61601 0
M  V30 1261 H 116.278 -3.0494 4.00026 0
M  V30 1262 H 115.978 -2.1102 5.48402 0
M  V30 1263 H 117.502 -3.02508 5.30397 0
M  V30 1264 H 118.916 -0.784823 5.67903 0
M  V30 1265 H 117.313 -0.0619707 6.00068 0
M  V30 1266 H 118.383 0.684677 4.80042 0
M  V30 1267 N 119.726 -1.57421 0.075193 0
M  V30 1268 C 120.973 -1.93618 -0.593146 0
M  V30 1269 C 121.301 -0.955484 -1.69413 0
M  V30 1270 O 120.556 0.0283251 -1.9568 0
M  V30 1271 C 120.855 -3.36428 -1.20626 0
M  V30 1272 C 120.521 -4.50307 -0.231078 0
M  V30 1273 C 119.183 -4.81186 0.0371936 0
M  V30 1274 C 121.535 -5.19374 0.435888 0
M  V30 1275 C 118.863 -5.78466 0.979461 0
M  V30 1276 C 121.215 -6.17665 1.3665 0
M  V30 1277 C 119.879 -6.46958 1.6432 0
M  V30 1278 H 119.149 -0.708499 -0.217047 0
M  V30 1279 H 121.796 -1.90937 0.146793 0
M  V30 1280 H 120.101 -3.35592 -2.02201 0
M  V30 1281 H 121.798 -3.61727 -1.73073 0
M  V30 1282 H 118.388 -4.26227 -0.450357 0
M  V30 1283 H 122.572 -4.95711 0.241748 0
M  V30 1284 H 117.828 -5.99487 1.20106 0
M  V30 1285 H 122.002 -6.70284 1.88924 0
M  V30 1286 H 119.629 -7.2215 2.37494 0
M  V30 1287 N 121.204 0.198386 -1.56346 0
M  V30 1288 C 122.444 0.92609 -1.82217 0
M  V30 1289 C 122.808 1.80584 -0.652195 0
M  V30 1290 O 124.009 2.56907 -0.790716 0
M  V30 1291 C 122.28 1.72354 -3.13096 0
M  V30 1292 S 123.839 2.50371 -3.6036 0
M  V30 1293 H 120.657 0.310677 -0.639532 0
M  V30 1294 H 123.259 0.189755 -1.94577 0
M  V30 1295 H 121.963 1.0678 -3.96265 0
M  V30 1296 H 121.494 2.50175 -3.03605 0
M  V30 1297 H 123.509 3.74488 -3.25535 0
M  V30 1298 N 122.682 1.50554 0.465978 0
M  V30 1299 C 123.645 1.69233 1.54574 0
M  V30 1300 C 124.645 0.562901 1.50626 0
M  V30 1301 O 125.835 0.830016 1.53155 0
M  V30 1302 C 122.967 1.7223 2.94193 0
M  V30 1303 H 124.16 2.65571 1.39327 0
M  V30 1304 H 121.713 1.40111 0.692711 0
M  V30 1305 H 122.448 0.77603 3.14878 0
M  V30 1306 H 122.233 2.54285 2.98466 0
M  V30 1307 H 123.723 1.88618 3.72576 0
M  V30 1308 N 124.16 -0.719506 1.40217 0
M  V30 1309 C 125.437 -1.47221 1.28784 0
M  V30 1310 C 125.817 -2.10883 -0.0956067 0
M  V30 1311 O 125.165 -1.99833 -1.10811 0
M  V30 1312 C 125.375 -2.5111 2.42373 0
M  V30 1313 C 126.723 -3.17053 2.82423 0
M  V30 1314 O 127.747 -2.61429 2.41937 0
M  V30 1315 O 126.606 -4.17742 3.52355 0
M  V30 1316 H 123.7 -0.654491 0.50554 0
M  V30 1317 H 126.246 -0.752014 1.52128 0
M  V30 1318 H 125.018 -2.02556 3.34793 0
M  V30 1319 H 124.641 -3.3067 2.20778 0
M  V30 1320 N 125.638 -1.25649 -0.95132 0
M  V30 1321 C 126.568 -1.08808 -2.06599 0
M  V30 1322 C 127.549 0.00382547 -1.701 0
M  V30 1323 O 128.734 -0.166325 -1.93486 0
M  V30 1324 C 125.864 -0.709542 -3.39975 0
M  V30 1325 C 124.818 -1.75206 -3.90496 0
M  V30 1326 C 124.144 -1.22811 -5.20405 0
M  V30 1327 C 125.444 -3.15153 -4.16504 0
M  V30 1328 H 127.138 -2.02048 -2.20946 0
M  V30 1329 H 124.684 -0.972835 -1.06169 0
M  V30 1330 H 126.637 -0.578649 -4.17408 0
M  V30 1331 H 125.361 0.258556 -3.25575 0
M  V30 1332 H 124.02 -1.87145 -3.15234 0
M  V30 1333 H 123.668 -0.250145 -5.02378 0
M  V30 1334 H 123.368 -1.92492 -5.55176 0
M  V30 1335 H 124.892 -1.10968 -6.00432 0
M  V30 1336 H 126.306 -3.06349 -4.84586 0
M  V30 1337 H 124.703 -3.82333 -4.62538 0
M  V30 1338 H 125.773 -3.61966 -3.22658 0
M  V30 1339 N 127.117 1.15442 -1.07289 0
M  V30 1340 C 128.047 2.22312 -0.714107 0
M  V30 1341 C 129.028 1.67467 0.298155 0
M  V30 1342 O 130.213 1.93445 0.171048 0
M  V30 1343 C 127.343 3.47124 -0.110448 0
M  V30 1344 C 126.297 4.14926 -1.04979 0
M  V30 1345 C 125.623 5.33807 -0.308924 0
M  V30 1346 C 126.923 4.64762 -2.38314 0
M  V30 1347 H 128.617 2.5258 -1.6076 0
M  V30 1348 H 126.163 1.21404 -0.77441 0
M  V30 1349 H 128.116 4.21124 0.152482 0
M  V30 1350 H 126.84 3.16187 0.81812 0
M  V30 1351 H 125.499 3.42866 -1.29764 0
M  V30 1352 H 125.147 4.99126 0.623084 0
M  V30 1353 H 124.847 5.80113 -0.935036 0
M  V30 1354 H 126.371 6.10576 -0.0537771 0
M  V30 1355 H 127.785 5.30292 -2.1786 0
M  V30 1356 H 126.182 5.21728 -2.96514 0
M  V30 1357 H 127.252 3.80434 -3.00663 0
M  V30 1358 N 128.595 0.856903 1.32268 0
M  V30 1359 C 129.842 0.461386 1.97174 0
M  V30 1360 C 130.17 -0.983491 1.67803 0
M  V30 1361 O 129.425 -1.70541 0.959903 0
M  V30 1362 C 129.724 0.649919 3.51441 0
M  V30 1363 C 129.39 2.0656 4.00804 0
M  V30 1364 C 128.052 2.45279 4.13995 0
M  V30 1365 C 130.404 2.98947 4.26943 0
M  V30 1366 C 127.732 3.75653 4.50668 0
M  V30 1367 C 130.084 4.28822 4.65075 0
M  V30 1368 C 128.748 4.67472 4.76472 0
M  V30 1369 H 128.018 0.168833 0.72151 0
M  V30 1370 H 130.665 1.08739 1.57633 0
M  V30 1371 H 128.97 -0.0593018 3.91755 0
M  V30 1372 H 130.667 0.32391 3.9969 0
M  V30 1373 H 127.257 1.75495 3.91024 0
M  V30 1374 H 131.441 2.70265 4.16258 0
M  V30 1375 H 126.697 4.05379 4.57688 0
M  V30 1376 H 130.871 5.0047 4.84255 0
M  V30 1377 H 128.498 5.68539 5.04646 0
M  V30 1378 N 130.073 -1.45103 0.615059 0
M  V30 1379 C 131.322 -2.01396 0.110718 0
M  V30 1380 C 131.635 -1.48834 -1.26916 0
M  V30 1381 O 132.841 -1.97152 -1.86664 0
M  V30 1382 C 131.297 -3.59599 0.14723 0
M  V30 1383 C 130.905 -4.21158 1.52743 0
M  V30 1384 C 132.649 -4.23428 -0.30148 0
M  V30 1385 C 130.556 -5.71535 1.51992 0
M  V30 1386 H 129.486 -0.753061 0.0376241 0
M  V30 1387 H 132.137 -1.66494 0.77149 0
M  V30 1388 H 130.519 -3.91724 -0.580339 0
M  V30 1389 H 131.693 -4.00594 2.2773 0
M  V30 1390 H 130.008 -3.69552 1.91886 0
M  V30 1391 H 132.605 -5.33703 -0.326392 0
M  V30 1392 H 132.948 -3.94629 -1.32565 0
M  V30 1393 H 133.481 -3.96047 0.373065 0
M  V30 1394 H 130.22 -6.05044 2.52193 0
M  V30 1395 H 129.74 -5.94268 0.81274 0
M  V30 1396 H 131.419 -6.34873 1.24681 0
M  V30 1397 N 131.551 -0.354651 -1.53558 0
M  V30 1398 C 132.776 0.242153 -2.05981 0
M  V30 1399 C 133.201 1.42553 -1.2272 0
M  V30 1400 O 132.559 1.79656 -0.243604 0
M  V30 1401 C 132.607 0.624367 -3.55154 0
M  V30 1402 O 131.711 1.72301 -3.74681 0
M  V30 1403 H 131.052 0.0378432 -0.662921 0
M  V30 1404 H 133.582 -0.512087 -1.98088 0
M  V30 1405 H 133.592 0.898433 -3.97985 0
M  V30 1406 H 132.267 -0.240989 -4.15201 0
M  V30 1407 H 130.844 1.44535 -3.4375 0
M  V30 1408 N 133.029 1.57378 -0.0835403 0
M  V30 1409 C 133.992 2.12252 0.864959 0
M  V30 1410 C 134.992 1.04916 1.21858 0
M  V30 1411 O 136.182 1.30853 1.14991 0
M  V30 1412 C 133.314 2.63358 2.16461 0
M  V30 1413 H 134.507 2.97371 0.388676 0
M  V30 1414 H 132.06 1.55423 0.165317 0
M  V30 1415 H 132.795 1.81727 2.686 0
M  V30 1416 H 132.58 3.41826 1.92087 0
M  V30 1417 H 134.07 3.05847 2.84337 0
M  V30 1418 N 134.507 -0.190092 1.56449 0
M  V30 1419 C 135.756 -0.907912 1.80111 0
M  V30 1420 C 136.069 -1.84214 0.657619 0
M  V30 1421 O 137.275 -2.60094 0.778663 0
M  V30 1422 C 135.731 -1.66485 3.19078 0
M  V30 1423 C 135.339 -0.7752 4.41242 0
M  V30 1424 C 137.083 -2.37201 3.52045 0
M  V30 1425 C 134.99 -1.53129 5.71231 0
M  V30 1426 H 133.92 -0.34276 0.671589 0
M  V30 1427 H 136.571 -0.161109 1.82791 0
M  V30 1428 H 134.953 -2.45572 3.10661 0
M  V30 1429 H 136.127 -0.0226298 4.60794 0
M  V30 1430 H 134.442 -0.178627 4.16017 0
M  V30 1431 H 137.039 -2.94329 4.46402 0
M  V30 1432 H 137.382 -3.11632 2.76028 0
M  V30 1433 H 137.915 -1.65075 3.61932 0
M  V30 1434 H 134.654 -0.82967 6.50228 0
M  V30 1435 H 134.174 -2.25767 5.55688 0
M  V30 1436 H 135.853 -2.08377 6.12526 0
M  V30 1437 N 135.985 -1.50799 -0.457987 0
M  V30 1438 C 137.396 -1.55152 -1.0385 0
M  V30 1439 C 137.747 -0.362719 -1.92818 0
M  V30 1440 O 136.872 0.522915 -2.09987 0
M  V30 1441 C 137.467 -2.81173 -1.89017 0
M  V30 1442 C 136.026 -2.88164 -2.42154 0
M  V30 1443 C 135.173 -2.49591 -1.20829 0
M  V30 1444 H 138.124 -1.56874 -0.240068 0
M  V30 1445 H 138.145 -2.63769 -2.74238 0
M  V30 1446 H 137.657 -3.67677 -1.24238 0
M  V30 1447 H 135.758 -2.06042 -3.10447 0
M  V30 1448 H 135.871 -3.91356 -2.76364 0
M  V30 1449 H 134.235 -2.02322 -1.54719 0
M  V30 1450 H 135.018 -3.38418 -0.576927 0
M  V30 1451 N 137.463 0.71206 -1.40597 0
M  V30 1452 C 138.393 1.83889 -1.43899 0
M  V30 1453 C 139.374 1.67442 -0.299504 0
M  V30 1454 O 140.559 1.87421 -0.508624 0
M  V30 1455 C 137.689 3.21877 -1.30431 0
M  V30 1456 C 136.643 3.53002 -2.42019 0
M  V30 1457 C 135.969 4.90172 -2.13626 0
M  V30 1458 C 137.269 3.53643 -3.84362 0
M  V30 1459 H 138.963 1.81383 -2.38203 0
M  V30 1460 H 136.509 0.871237 -1.14654 0
M  V30 1461 H 138.462 4.00404 -1.31357 0
M  V30 1462 H 137.186 3.24968 -0.326049 0
M  V30 1463 H 135.845 2.76818 -2.40349 0
M  V30 1464 H 135.493 4.89869 -1.14182 0
M  V30 1465 H 135.193 5.11962 -2.88389 0
M  V30 1466 H 136.717 5.71028 -2.1624 0
M  V30 1467 H 138.131 4.22203 -3.87837 0
M  V30 1468 H 136.528 3.86961 -4.58673 0
M  V30 1469 H 137.598 2.52954 -4.13693 0
M  V30 1470 N 138.941 1.26152 0.944643 0
M  V30 1471 C 140.187 1.11657 1.69294 0
M  V30 1472 C 140.52 -0.339926 1.91202 0
M  V30 1473 O 139.795 -1.24994 1.49019 0
M  V30 1474 C 140.078 1.88236 3.06984 0
M  V30 1475 C 139.931 3.41772 2.92424 0
M  V30 1476 C 141.25 1.67343 4.07043 0
M  V30 1477 H 138.369 0.407004 0.614424 0
M  V30 1478 H 141.011 1.55106 1.09737 0
M  V30 1479 H 139.161 1.51308 3.57824 0
M  V30 1480 H 140.833 3.88433 2.48832 0
M  V30 1481 H 139.076 3.68974 2.28124 0
M  V30 1482 H 139.747 3.90579 3.90067 0
M  V30 1483 H 142.223 1.99509 3.65151 0
M  V30 1484 H 141.099 2.23346 5.01406 0
M  V30 1485 H 141.36 0.617158 4.37771 0
M  V30 1486 N 140.419 -1.14872 1.07899 0
M  V30 1487 C 141.349 -2.2193 0.725887 0
M  V30 1488 C 142.33 -1.67622 -0.28927 0
M  V30 1489 O 143.515 -1.93533 -0.160787 0
M  V30 1490 C 140.645 -3.47061 0.128856 0
M  V30 1491 C 139.599 -4.14363 1.07178 0
M  V30 1492 C 138.925 -5.33636 0.337229 0
M  V30 1493 C 140.225 -4.63492 2.40775 0
M  V30 1494 H 141.919 -2.51724 1.62097 0
M  V30 1495 H 139.465 -1.20991 0.780838 0
M  V30 1496 H 141.418 -4.21199 -0.130147 0
M  V30 1497 H 140.142 -3.16617 -0.80134 0
M  V30 1498 H 138.801 -3.42173 1.3158 0
M  V30 1499 H 138.449 -4.99449 -0.596606 0
M  V30 1500 H 138.149 -5.79609 0.965788 0
M  V30 1501 H 139.673 -6.10539 0.0861567 0
M  V30 1502 H 141.087 -5.2913 2.20669 0
M  V30 1503 H 139.484 -5.20148 2.99276 0
M  V30 1504 H 140.554 -3.78834 3.02676 0
M  V30 1505 N 141.898 -0.863906 -1.31812 0
M  V30 1506 C 142.861 -0.320212 -2.26952 0
M  V30 1507 C 143.861 0.525369 -1.51975 0
M  V30 1508 O 145.051 0.335547 -1.70938 0
M  V30 1509 C 142.183 0.545919 -3.365 0
M  V30 1510 H 143.376 -1.16004 -2.76556 0
M  V30 1511 H 140.929 -0.638995 -1.42641 0
M  V30 1512 H 141.664 1.40718 -2.92179 0
M  V30 1513 H 141.449 -0.0594674 -3.92055 0
M  V30 1514 H 142.939 0.918796 -4.07367 0
M  V30 1515 N 143.376 1.44774 -0.622745 0
M  V30 1516 C 144.622 2.0242 -0.124083 0
M  V30 1517 C 144.955 1.4881 1.24777 0
M  V30 1518 O 144.23 0.668799 1.8264 0
M  V30 1519 C 144.513 3.59957 -0.101619 0
M  V30 1520 C 144.366 4.23867 -1.50521 0
M  V30 1521 C 145.685 4.36284 0.578272 0
M  V30 1522 H 142.804 0.735528 -0.0465645 0
M  V30 1523 H 145.446 1.72447 -0.797617 0
M  V30 1524 H 143.596 3.85623 0.471934 0
M  V30 1525 H 145.268 4.09336 -2.12701 0
M  V30 1526 H 143.511 3.81684 -2.06154 0
M  V30 1527 H 144.182 5.32843 -1.4416 0
M  V30 1528 H 146.658 4.16001 0.0906057 0
M  V30 1529 H 145.534 5.46004 0.563149 0
M  V30 1530 H 145.795 4.10271 1.64713 0
M  V30 1531 N 144.854 0.36279 1.53368 0
M  V30 1532 C 146.27 0.0116182 1.59596 0
M  V30 1533 C 146.47 -1.47012 1.37803 0
M  V30 1534 O 145.526 -2.23136 1.18181 0
M  V30 1535 C 146.839 0.465052 2.97082 0
M  V30 1536 C 148.387 0.419033 3.10182 0
M  V30 1537 C 148.862 0.848235 4.50077 0
M  V30 1538 N 150.353 0.803183 4.56183 0
M  V30 1539 C 151.088 1.107 5.62613 0
M  V30 1540 N 150.584 1.47996 6.76808 0
M  V30 1541 N 152.377 1.02998 5.52583 0
M  V30 1542 H 144.528 1.32775 1.65785 0
M  V30 1543 H 146.791 0.542518 0.777417 0
M  V30 1544 H 146.497 1.49892 3.18159 0
M  V30 1545 H 146.371 -0.149786 3.76902 0
M  V30 1546 H 148.758 -0.605696 2.88817 0
M  V30 1547 H 148.839 1.06933 2.32377 0
M  V30 1548 H 148.483 1.87107 4.7218 0
M  V30 1549 H 148.413 0.175218 5.26308 0
M  V30 1550 H 150.904 0.52838 3.74188 0
M  V30 1551 H 151.217 1.69613 7.53957 0
M  V30 1552 H 149.562 1.51859 6.78206 0
M  V30 1553 H 152.753 0.737817 4.62249 0
M  V30 1554 H 152.926 1.2701 6.35431 0
M  V30 1555 N 146.332 -1.57332 0.0918853 0
M  V30 1556 C 147.578 -1.95328 -0.567313 0
M  V30 1557 C 147.933 -0.972866 -1.65991 0
M  V30 1558 O 147.226 0.00166256 -1.916 0
M  V30 1559 C 147.42 -3.37689 -1.17051 0
M  V30 1560 C 147.249 -4.49489 -0.137875 0
M  V30 1561 C 146.019 -5.04498 0.284515 0
M  V30 1562 C 148.217 -5.10393 0.63271 0
M  V30 1563 N 146.199 -5.99853 1.30576 0
M  V30 1564 C 147.57 -6.01435 1.50587 0
M  V30 1565 C 149.625 -4.93143 0.68658 0
M  V30 1566 C 148.328 -6.77077 2.42815 0
M  V30 1567 C 150.354 -5.69445 1.59645 0
M  V30 1568 C 149.716 -6.60151 2.45725 0
M  V30 1569 H 145.815 -0.761467 -0.178023 0
M  V30 1570 H 148.399 -1.93924 0.173706 0
M  V30 1571 H 146.57 -3.39793 -1.88136 0
M  V30 1572 H 148.302 -3.62872 -1.79181 0
M  V30 1573 H 145.057 -4.73489 -0.102593 0
M  V30 1574 H 145.481 -6.52231 1.81449 0
M  V30 1575 H 150.123 -4.22785 0.035244 0
M  V30 1576 H 147.841 -7.46699 3.08975 0
M  V30 1577 H 151.427 -5.58112 1.64323 0
M  V30 1578 H 150.307 -7.18159 3.14987 0
M  V30 1579 N 147.81 0.181792 -1.56548 0
M  V30 1580 C 149.038 0.915947 -1.85521 0
M  V30 1581 C 149.453 1.76282 -0.676016 0
M  V30 1582 O 148.81 1.79012 0.355077 0
M  V30 1583 C 148.861 1.80126 -3.13427 0
M  V30 1584 O 148.582 0.988562 -4.26801 0
M  V30 1585 C 150.083 2.64597 -3.55673 0
M  V30 1586 H 147.303 0.26661 -0.61576 0
M  V30 1587 H 149.847 0.185039 -2.03661 0
M  V30 1588 H 148.002 2.48563 -2.97145 0
M  V30 1589 H 148.416 1.59308 -4.99721 0
M  V30 1590 H 149.89 3.2235 -4.48101 0
M  V30 1591 H 150.367 3.38958 -2.79292 0
M  V30 1592 H 150.973 2.0151 -3.74532 0
M  V30 1593 N 149.288 1.51039 0.449983 0
M  V30 1594 C 150.198 1.74261 1.57067 0
M  V30 1595 C 151.214 0.626363 1.62335 0
M  V30 1596 O 152.39 0.907162 1.79812 0
M  V30 1597 C 149.455 1.85114 2.93144 0
M  V30 1598 C 148.516 3.0893 2.98095 0
M  V30 1599 C 147.749 3.19256 4.27681 0
M  V30 1600 O 147.972 2.35835 5.19363 0
M  V30 1601 O 146.906 4.12144 4.38658 0
M  V30 1602 H 150.732 2.69303 1.40391 0
M  V30 1603 H 148.317 1.35389 0.631688 0
M  V30 1604 H 150.199 1.94311 3.73926 0
M  V30 1605 H 148.874 0.932588 3.09975 0
M  V30 1606 H 147.781 3.0522 2.16314 0
M  V30 1607 H 149.114 4.00433 2.86206 0
M  V30 1608 N 150.766 -0.704594 1.40972 0
M  V30 1609 C 151.729 -1.80035 1.41845 0
M  V30 1610 C 152.729 -1.57774 0.310474 0
M  V30 1611 O 153.919 -1.64613 0.56992 0
M  V30 1612 C 151.051 -3.18284 1.22098 0
M  V30 1613 H 152.244 -1.80658 2.3938 0
M  V30 1614 H 149.797 -0.911329 1.26982 0
M  V30 1615 H 150.532 -3.23306 0.253672 0
M  V30 1616 H 150.317 -3.35843 2.02366 0
M  V30 1617 H 151.807 -3.98289 1.25522 0
M  V30 1618 N 152.244 -1.26651 -0.937939 0
M  V30 1619 C 153.49 -1.13562 -1.68746 0
M  V30 1620 C 153.845 0.317241 -1.89767 0
M  V30 1621 O 153.138 1.22939 -1.46957 0
M  V30 1622 C 153.332 -1.84168 -3.06295 0
M  V30 1623 C 153.161 -3.36171 -2.98696 0
M  V30 1624 C 151.931 -4.05468 -3.01535 0
M  V30 1625 C 154.129 -4.32312 -2.78588 0
M  V30 1626 N 152.111 -5.44118 -2.84269 0
M  V30 1627 C 153.482 -5.58159 -2.69924 0
M  V30 1628 C 155.537 -4.22524 -2.63396 0
M  V30 1629 C 154.24 -6.75335 -2.47618 0
M  V30 1630 C 156.266 -5.39411 -2.42466 0
M  V30 1631 C 155.628 -6.64208 -2.34536 0
M  V30 1632 H 151.727 -0.470361 -0.624728 0
M  V30 1633 H 154.311 -1.59982 -1.10968 0
M  V30 1634 H 152.482 -1.40219 -3.62206 0
M  V30 1635 H 154.214 -1.63674 -3.70126 0
M  V30 1636 H 150.969 -3.56854 -3.11372 0
M  V30 1637 H 151.393 -6.1693 -2.78795 0
M  V30 1638 H 156.035 -3.26771 -2.68292 0
M  V30 1639 H 153.753 -7.71182 -2.41463 0
M  V30 1640 H 157.339 -5.33711 -2.31611 0
M  V30 1641 H 156.219 -7.53129 -2.18555 0
M  V30 1642 N 153.722 1.14298 -1.08507 0
M  V30 1643 C 154.652 2.21542 -0.737646 0
M  V30 1644 C 155.633 1.67773 0.280377 0
M  V30 1645 O 156.818 1.93616 0.150521 0
M  V30 1646 C 153.948 3.46988 -0.147259 0
M  V30 1647 C 152.902 4.13789 -1.09374 0
M  V30 1648 C 152.228 5.33449 -0.365524 0
M  V30 1649 C 153.528 4.62208 -2.4323 0
M  V30 1650 H 155.222 2.5086 -1.6343 0
M  V30 1651 H 152.768 1.20576 -0.787243 0
M  V30 1652 H 154.721 4.21262 0.107808 0
M  V30 1653 H 153.445 3.17037 0.784538 0
M  V30 1654 H 152.104 3.4147 -1.33393 0
M  V30 1655 H 151.752 4.99759 0.57011 0
M  V30 1656 H 151.452 5.79088 -0.996512 0
M  V30 1657 H 152.976 6.10485 -0.118534 0
M  V30 1658 H 154.39 5.27952 -2.23472 0
M  V30 1659 H 152.787 5.18553 -3.02031 0
M  V30 1660 H 153.857 3.77224 -3.04681 0
M  V30 1661 N 155.201 0.870884 1.31352 0
M  V30 1662 C 156.131 0.343096 2.30966 0
M  V30 1663 C 157.112 -0.566507 1.60389 0
M  V30 1664 O 158.297 -0.483336 1.88089 0
M  V30 1665 C 155.427 -0.455487 3.443 0
M  V30 1666 C 154.381 0.361103 4.26474 0
M  V30 1667 C 153.707 -0.563221 5.31725 0
M  V30 1668 C 155.007 1.59566 4.97329 0
M  V30 1669 H 156.701 1.17548 2.75359 0
M  V30 1670 H 154.247 0.566686 1.32381 0
M  V30 1671 H 156.2 -0.83525 4.13039 0
M  V30 1672 H 154.924 -1.32139 2.98675 0
M  V30 1673 H 153.583 0.722825 3.59403 0
M  V30 1674 H 153.231 -1.42643 4.82351 0
M  V30 1675 H 152.931 -0.0207409 5.87596 0
M  V30 1676 H 154.455 -0.939808 6.03324 0
M  V30 1677 H 155.869 1.28728 5.58661 0
M  V30 1678 H 154.266 2.07728 5.63 0
M  V30 1679 H 155.336 2.34798 4.24262 0
M  V30 1680 N 156.679 -1.44442 0.630414 0
M  V30 1681 C 157.927 -2.01653 0.134351 0
M  V30 1682 C 158.248 -1.49836 -1.24796 0
M  V30 1683 O 157.518 -0.701684 -1.82902 0
M  V30 1684 H 156.098 -0.74554 0.0466769 0
M  V30 1685 H 158.76 -1.76952 0.816955 0
M  V30 1686 H 157.856 -3.11935 0.101498 0
M  V30 1687 N 158.157 -0.370918 -1.53173 0
M  V30 1688 C 159.568 0.107139 -1.86392 0
M  V30 1689 C 159.919 1.47714 -1.29132 0
M  V30 1690 O 159.044 2.07464 -0.615439 0
M  V30 1691 C 159.639 0.201187 -3.38202 0
M  V30 1692 C 158.198 0.623507 -3.712 0
M  V30 1693 C 157.345 -0.225978 -2.76378 0
M  V30 1694 H 160.296 -0.58951 -1.47345 0
M  V30 1695 H 160.317 1.02377 -3.66468 0
M  V30 1696 H 159.829 -0.796058 -3.79848 0
M  V30 1697 H 157.93 1.62879 -3.35114 0
M  V30 1698 H 158.043 0.394414 -4.77474 0
M  V30 1699 H 156.407 0.305962 -2.52856 0
M  V30 1700 H 157.19 -1.22086 -3.20858 0
M  V30 1701 N 159.635 1.57281 -0.100228 0
M  V30 1702 C 160.881 1.94826 0.563101 0
M  V30 1703 C 161.214 0.982475 1.67514 0
M  V30 1704 O 160.489 0.0164069 1.94493 0
M  V30 1705 C 160.772 3.42453 1.11346 0
M  V30 1706 C 160.625 4.498 0.00612081 0
M  V30 1707 C 161.944 3.91506 2.01024 0
M  V30 1708 H 159.063 0.708428 0.203221 0
M  V30 1709 H 161.705 1.8922 -0.171979 0
M  V30 1710 H 159.855 3.47361 1.7399 0
M  V30 1711 H 161.527 4.57 -0.628357 0
M  V30 1712 H 159.77 4.28756 -0.659581 0
M  V30 1713 H 160.441 5.50306 0.432109 0
M  V30 1714 H 162.917 3.88784 1.48278 0
M  V30 1715 H 161.793 4.95358 2.36457 0
M  V30 1716 H 162.054 3.31099 2.92961 0
M  V30 1717 N 161.113 -0.173488 1.56642 0
M  V30 1718 C 162.076 -1.19859 1.95362 0
M  V30 1719 C 163.076 -1.37296 0.83704 0
M  V30 1720 O 164.266 -1.34739 1.10413 0
M  V30 1721 C 161.398 -2.56405 2.24654 0
M  V30 1722 H 162.591 -0.867062 2.87092 0
M  V30 1723 H 160.144 -0.415853 1.50666 0
M  V30 1724 H 160.879 -2.94576 1.35631 0
M  V30 1725 H 160.664 -2.45115 3.06041 0
M  V30 1726 H 162.154 -3.30287 2.5554 0
M  V30 1727 N 162.591 -1.51276 -0.441967 0
M  V30 1728 C 163.831 -1.65372 -1.20132 0
M  V30 1729 C 164.195 -0.359871 -1.88597 0
M  V30 1730 O 165.396 -0.376551 -2.66149 0
M  V30 1731 C 163.667 -2.8207 -2.1948 0
M  V30 1732 S 165.226 -3.16467 -3.03964 0
M  V30 1733 H 162.044 -0.582669 -0.407453 0
M  V30 1734 H 164.646 -1.89166 -0.493609 0
M  V30 1735 H 163.35 -3.74523 -1.67812 0
M  V30 1736 H 162.881 -2.6045 -2.94838 0
M  V30 1737 H 164.896 -2.62543 -4.21053 0
M  V30 1738 N 164.069 0.697108 -1.41344 0
M  V30 1739 C 165.019 1.80313 -1.39539 0
M  V30 1740 C 166.003 1.58618 -0.270001 0
M  V30 1741 O 167.195 1.69477 -0.510551 0
M  V30 1742 C 164.324 3.18606 -1.27848 0
M  V30 1743 C 163.41 3.46001 -2.45244 0
M  V30 1744 N 163.801 3.44103 -3.70711 0
M  V30 1745 C 162.099 3.76542 -2.39023 0
M  V30 1746 C 162.8 3.7036 -4.48563 0
M  V30 1747 N 161.776 3.90027 -3.78655 0
M  V30 1748 H 165.578 1.77207 -2.34468 0
M  V30 1749 H 163.092 0.897031 -1.35378 0
M  V30 1750 H 165.089 3.97833 -1.24637 0
M  V30 1751 H 163.749 3.22925 -0.339032 0
M  V30 1752 H 164.76 3.2452 -4.03618 0
M  V30 1753 H 161.437 3.88241 -1.53542 0
M  V30 1754 H 162.827 3.75042 -5.57488 0
M  V30 1755 N 165.547 1.27147 0.931209 0
M  V30 1756 C 166.477 1.12081 2.04842 0
M  V30 1757 C 167.458 0.0232364 1.70084 0
M  V30 1758 O 168.643 0.197085 1.93197 0
M  V30 1759 C 165.773 0.76354 3.38803 0
M  V30 1760 C 164.727 1.81396 3.87659 0
M  V30 1761 C 164.053 1.31075 5.18385 0
M  V30 1762 C 165.353 3.21739 4.11438 0
M  V30 1763 H 167.047 2.05537 2.17703 0
M  V30 1764 H 164.593 0.989603 1.04608 0
M  V30 1765 H 166.546 0.644982 4.16435 0
M  V30 1766 H 165.27 -0.206727 3.25945 0
M  V30 1767 H 163.929 1.92136 3.12217 0
M  V30 1768 H 163.577 0.330037 5.01916 0
M  V30 1769 H 163.277 2.013 5.52044 0
M  V30 1770 H 164.801 1.20506 5.98591 0
M  V30 1771 H 166.215 3.14019 4.79651 0
M  V30 1772 H 164.612 3.89644 4.56397 0
M  V30 1773 H 165.682 3.67054 3.16859 0
M  V30 1774 N 167.025 -1.13721 1.09112 0
M  V30 1775 C 167.955 -2.21148 0.749385 0
M  V30 1776 C 168.936 -1.6792 -0.271475 0
M  V30 1777 O 170.121 -1.93693 -0.140251 0
M  V30 1778 C 167.251 -3.46905 0.165659 0
M  V30 1779 C 166.205 -4.13203 1.11567 0
M  V30 1780 C 165.531 -5.33248 0.393809 0
M  V30 1781 C 166.831 -4.60912 2.45678 0
M  V30 1782 H 168.525 -2.4999 1.64758 0
M  V30 1783 H 166.071 -1.20156 0.793626 0
M  V30 1784 H 168.024 -4.21313 -0.085466 0
M  V30 1785 H 166.748 -3.17449 -0.767714 0
M  V30 1786 H 165.407 -3.40758 1.35202 0
M  V30 1787 H 165.055 -5.00054 -0.543599 0
M  V30 1788 H 164.755 -5.78552 1.02721 0
M  V30 1789 H 166.279 -6.10413 0.150908 0
M  V30 1790 H 167.693 -5.26759 2.26269 0
M  V30 1791 H 166.09 -5.16944 3.04776 0
M  V30 1792 H 167.16 -3.75603 3.06677 0
M  V30 1793 N 168.503 -0.877838 -1.30888 0
M  V30 1794 C 169.75 -0.492696 -1.96415 0
M  V30 1795 C 170.078 0.956671 -1.69346 0
M  V30 1796 O 169.333 1.68993 -0.986913 0
M  V30 1797 C 169.632 -0.705748 -3.50363 0
M  V30 1798 C 169.298 -2.1291 -3.97467 0
M  V30 1799 C 167.96 -2.51834 -4.1004 0
M  V30 1800 C 170.312 -3.05702 -4.22132 0
M  V30 1801 C 167.64 -3.82775 -4.44635 0
M  V30 1802 C 169.992 -4.36166 -4.58194 0
M  V30 1803 C 168.656 -4.74993 -4.68975 0
M  V30 1804 H 167.926 -0.18029 -0.718733 0
M  V30 1805 H 170.573 -1.11233 -1.55883 0
M  V30 1806 H 168.878 -0.00303058 -3.918 0
M  V30 1807 H 170.575 -0.387456 -3.99124 0
M  V30 1808 H 167.165 -1.81694 -3.88182 0
M  V30 1809 H 171.349 -2.76853 -4.11906 0
M  V30 1810 H 166.605 -4.12609 -4.51181 0
M  V30 1811 H 170.779 -5.08111 -4.76231 0
M  V30 1812 H 168.406 -5.76495 -4.95537 0
M  V30 1813 N 169.982 1.44106 -0.638065 0
M  V30 1814 C 171.212 2.06037 -0.152394 0
M  V30 1815 C 171.62 1.47808 1.18108 0
M  V30 1816 O 170.963 0.598092 1.73691 0
M  V30 1817 C 171.025 3.59488 0.0293714 0
M  V30 1818 C 170.689 4.4022 -1.22702 0
M  V30 1819 C 171.686 4.73256 -2.15232 0
M  V30 1820 C 169.371 4.8048 -1.46437 0
M  V30 1821 C 171.365 5.45444 -3.29802 0
M  V30 1822 C 169.052 5.52417 -2.61303 0
M  V30 1823 C 170.05 5.84819 -3.52811 0
M  V30 1824 O 169.738 6.55289 -4.65673 0
M  V30 1825 H 169.47 0.671233 -0.0801401 0
M  V30 1826 H 172.024 1.85851 -0.874563 0
M  V30 1827 H 170.254 3.78191 0.806758 0
M  V30 1828 H 171.943 4.03164 0.470475 0
M  V30 1829 H 172.709 4.42684 -1.98131 0
M  V30 1830 H 168.588 4.54676 -0.760977 0
M  V30 1831 H 172.132 5.70653 -4.01249 0
M  V30 1832 H 168.029 5.82404 -2.78344 0
M  V30 1833 H 168.797 6.73762 -4.64744 0
M  V30 1834 N 171.46 0.379036 1.52974 0
M  V30 1835 C 172.706 -0.206727 2.01744 0
M  V30 1836 C 173.039 -1.47314 1.26539 0
M  V30 1837 O 172.314 -1.91084 0.362903 0
M  V30 1838 C 172.597 -0.485066 3.56818 0
M  V30 1839 C 172.45 0.795919 4.42702 0
M  V30 1840 C 173.769 -1.28003 4.21074 0
M  V30 1841 H 170.888 -0.0736607 0.73331 0
M  V30 1842 H 173.53 0.506581 1.83122 0
M  V30 1843 H 171.68 -1.09272 3.72816 0
M  V30 1844 H 173.352 1.43307 4.38476 0
M  V30 1845 H 171.595 1.41344 4.10127 0
M  V30 1846 H 172.266 0.555947 5.49193 0
M  V30 1847 H 174.742 -0.765867 4.08991 0
M  V30 1848 H 173.618 -1.44352 5.29579 0
M  V30 1849 H 173.879 -2.29236 3.78026 0
M  V30 1850 N 172.938 -1.57226 0.108567 0
M  V30 1851 C 173.871 -2.10447 -0.882464 0
M  V30 1852 C 174.849 -1.01829 -1.26766 0
M  V30 1853 O 176.033 -1.29415 -1.37054 0
M  V30 1854 C 173.16 -2.59258 -2.17952 0
M  V30 1855 C 172.206 -3.79662 -1.94318 0
M  V30 1856 S 173.039 -5.22586 -1.16892 0
M  V30 1857 C 174.195 -5.74758 -2.47799 0
M  V30 1858 H 174.428 -2.94178 -0.429745 0
M  V30 1859 H 171.961 -1.54043 -0.105 0
M  V30 1860 H 173.919 -2.88036 -2.92482 0
M  V30 1861 H 172.58 -1.75728 -2.60343 0
M  V30 1862 H 171.773 -4.11928 -2.90399 0
M  V30 1863 H 171.375 -3.51446 -1.27913 0
M  V30 1864 H 173.667 -5.83846 -3.43701 0
M  V30 1865 H 174.61 -6.73027 -2.20093 0
M  V30 1866 H 175.018 -5.02763 -2.56689 0
M  V30 1867 N 174.416 0.165178 -1.56732 0
M  V30 1868 C 175.644 0.896218 -1.86482 0
M  V30 1869 C 176.059 1.75555 -0.694675 0
M  V30 1870 O 175.416 1.79379 0.33607 0
M  V30 1871 C 175.467 1.76792 -3.1532 0
M  V30 1872 O 175.188 0.943239 -4.27825 0
M  V30 1873 C 176.689 2.6081 -3.58459 0
M  V30 1874 H 173.909 0.260064 -0.618553 0
M  V30 1875 H 176.453 0.163428 -2.03846 0
M  V30 1876 H 174.608 2.45398 -2.99764 0
M  V30 1877 H 175.022 1.53998 -5.01383 0
M  V30 1878 H 176.496 3.17579 -4.51495 0
M  V30 1879 H 176.973 3.35977 -2.82872 0
M  V30 1880 H 177.579 1.97526 -3.76648 0
M  V30 1881 N 175.894 1.51508 0.433938 0
M  V30 1882 C 176.824 1.76016 1.53429 0
M  V30 1883 C 177.805 0.610112 1.58782 0
M  V30 1884 O 178.99 0.853177 1.74455 0
M  V30 1885 C 176.12 1.88831 2.9148 0
M  V30 1886 C 175.074 3.04288 3.00987 0
M  V30 1887 C 174.4 3.0229 4.4105 0
M  V30 1888 C 175.7 4.44193 2.74754 0
M  V30 1889 H 177.394 2.68152 1.33171 0
M  V30 1890 H 174.94 1.29035 0.639214 0
M  V30 1891 H 176.893 2.04559 3.6842 0
M  V30 1892 H 175.617 0.933455 3.12976 0
M  V30 1893 H 174.276 2.8827 2.26486 0
M  V30 1894 H 173.924 2.04576 4.59519 0
M  V30 1895 H 173.624 3.79822 4.4834 0
M  V30 1896 H 175.148 3.20116 5.1996 0
M  V30 1897 H 176.562 4.60544 3.41426 0
M  V30 1898 H 174.959 5.23457 2.9345 0
M  V30 1899 H 176.029 4.53996 1.70339 0
M  V30 1900 N 177.372 -0.689602 1.41712 0
M  V30 1901 C 178.597 -1.48329 1.44959 0
M  V30 1902 C 179.022 -1.8801 0.0581283 0
M  V30 1903 O 178.38 -1.55026 -0.940035 0
M  V30 1904 C 178.428 -2.71835 2.36935 0
M  V30 1905 O 177.532 -3.69549 1.8305 0
M  V30 1906 H 176.873 -0.446199 0.491734 0
M  V30 1907 H 179.403 -0.847127 1.86239 0
M  V30 1908 H 179.413 -3.20076 2.53013 0
M  V30 1909 H 178.088 -2.42291 3.38035 0
M  V30 1910 H 176.665 -3.2851 1.76452 0
M  V30 1911 N 178.85 -1.27639 -0.924453 0
M  V30 1912 C 180.098 -1.13941 -1.66918 0
M  V30 1913 C 180.419 0.314589 -1.92446 0
M  V30 1914 O 179.689 1.21964 -1.53303 0
M  V30 1915 H 178.269 -0.418678 -0.618642 0
M  V30 1916 H 180.931 -1.60213 -1.10985 0
M  V30 1917 H 180.027 -1.67094 -2.63602 0
M  V30 1918 N 180.328 1.1314 -1.09713 0
M  V30 1919 C 181.553 1.88862 -0.857081 0
M  V30 1920 C 181.978 1.78729 0.586304 0
M  V30 1921 O 181.336 1.13692 1.41222 0
M  V30 1922 C 181.384 3.36325 -1.30069 0
M  V30 1923 O 180.488 4.09815 -0.461007 0
M  V30 1924 H 179.829 0.587108 -0.310162 0
M  V30 1925 H 182.359 1.43129 -1.46203 0
M  V30 1926 H 182.369 3.87157 -1.28738 0
M  V30 1927 H 181.044 3.43017 -2.35185 0
M  V30 1928 H 179.621 3.68986 -0.538888 0
M  V30 1929 N 181.806 0.884767 1.30421 0
M  V30 1930 C 183.052 0.503851 1.96441 0
M  V30 1931 C 183.385 -0.944518 1.69684 0
M  V30 1932 O 182.66 -1.66737 1.00145 0
M  V30 1933 C 182.943 0.779085 3.51571 0
M  V30 1934 C 182.796 2.27807 3.87846 0
M  V30 1935 C 184.115 0.255452 4.39358 0
M  V30 1936 H 181.234 0.184533 0.713524 0
M  V30 1937 H 183.876 1.10872 1.54297 0
M  V30 1938 H 182.026 0.264274 3.876 0
M  V30 1939 H 183.698 2.86127 3.61841 0
M  V30 1940 H 181.941 2.74479 3.35922 0
M  V30 1941 H 182.612 2.42125 4.96064 0
M  V30 1942 H 185.088 0.696079 4.10236 0
M  V30 1943 H 183.964 0.477361 5.4682 0
M  V30 1944 H 184.225 -0.843293 4.33983 0
M  V30 1945 N 183.284 -1.43765 0.645699 0
M  V30 1946 C 184.512 -2.06253 0.163556 0
M  V30 1947 C 184.927 -1.48352 -1.16778 0
M  V30 1948 O 184.284 -0.611932 -1.71935 0
M  V30 1949 C 184.335 -3.61453 0.0583186 0
M  V30 1950 O 184.056 -4.172 1.33702 0
M  V30 1951 C 185.557 -4.41002 -0.450795 0
M  V30 1952 H 182.777 -0.665413 0.0864077 0
M  V30 1953 H 185.321 -1.84396 0.884222 0
M  V30 1954 H 183.476 -3.82522 -0.612865 0
M  V30 1955 H 183.89 -5.10791 1.19131 0
M  V30 1956 H 185.364 -5.49966 -0.473403 0
M  V30 1957 H 185.841 -4.13488 -1.48068 0
M  V30 1958 H 186.447 -4.24886 0.187637 0
M  V30 1959 N 184.763 -0.387143 -1.52771 0
M  V30 1960 C 186.012 0.19697 -2.00736 0
M  V30 1961 C 186.325 1.48082 -1.27793 0
M  V30 1962 O 187.531 2.14485 -1.66458 0
M  V30 1963 C 185.987 0.401568 -3.57653 0
M  V30 1964 C 185.595 -0.868907 -4.39493 0
M  V30 1965 C 187.339 0.942164 -4.13912 0
M  V30 1966 C 185.246 -0.632705 -5.88006 0
M  V30 1967 H 184.176 0.0773827 -0.750019 0
M  V30 1968 H 186.827 -0.50921 -1.76293 0
M  V30 1969 H 185.209 1.16954 -3.78335 0
M  V30 1970 H 186.383 -1.64133 -4.30577 0
M  V30 1971 H 184.698 -1.33429 -3.94443 0
M  V30 1972 H 187.295 1.13455 -5.22525 0
M  V30 1973 H 187.638 1.9106 -3.69867 0
M  V30 1974 H 188.171 0.233814 -3.97112 0
M  V30 1975 H 184.91 -1.57208 -6.36369 0
M  V30 1976 H 184.43 0.100825 -5.99715 0
M  V30 1977 H 186.109 -0.26642 -6.46451 0
M  V30 1978 N 186.241 1.57166 -0.116904 0
M  V30 1979 C 187.171 2.18222 0.830759 0
M  V30 1980 C 188.152 1.12167 1.27877 0
M  V30 1981 O 189.337 1.40394 1.34176 0
M  V30 1982 C 186.467 2.77996 2.08172 0
M  V30 1983 C 185.421 3.89614 1.77157 0
M  V30 1984 C 184.747 4.36187 3.09265 0
M  V30 1985 C 186.047 5.1181 1.04151 0
M  V30 1986 H 187.741 2.97664 0.321992 0
M  V30 1987 H 185.287 1.4318 0.153434 0
M  V30 1988 H 187.24 3.19366 2.74924 0
M  V30 1989 H 185.964 1.9584 2.6137 0
M  V30 1990 H 184.623 3.48816 1.12796 0
M  V30 1991 H 184.271 3.50893 3.60393 0
M  V30 1992 H 183.971 5.11455 2.89288 0
M  V30 1993 H 185.495 4.80207 3.77139 0
M  V30 1994 H 186.909 5.50214 1.61052 0
M  V30 1995 H 185.306 5.92648 0.942762 0
M  V30 1996 H 186.376 4.84892 0.0279022 0
M  V30 1997 N 187.719 -0.156864 1.56817 0
M  V30 1998 C 188.947 -0.886316 1.86955 0
M  V30 1999 C 189.362 -1.75185 0.703975 0
M  V30 2000 O 188.719 -1.79555 -0.326552 0
M  V30 2001 C 188.77 -1.75117 3.16253 0
M  V30 2002 O 188.491 -0.920537 4.2832 0
M  V30 2003 C 189.992 -2.58905 3.59837 0
M  V30 2004 H 187.212 -0.25678 0.619923 0
M  V30 2005 H 189.756 -0.152615 2.0393 0
M  V30 2006 H 187.911 -2.43805 3.01062 0
M  V30 2007 H 188.325 -1.51337 5.02192 0
M  V30 2008 H 189.799 -3.1518 4.53172 0
M  V30 2009 H 190.276 -3.34472 2.84649 0
M  V30 2010 H 190.882 -1.95526 3.7769 0
M  V30 2011 N 189.197 -1.51736 -0.425897 0
M  V30 2012 C 190.127 -1.76827 -1.52494 0
M  V30 2013 C 191.108 -0.618524 -1.58456 0
M  V30 2014 O 192.293 -0.862416 -1.74 0
M  V30 2015 C 189.423 -1.90374 -2.90474 0
M  V30 2016 C 188.377 -3.0588 -2.99369 0
M  V30 2017 C 187.703 -3.04625 -4.3944 0
M  V30 2018 C 189.003 -4.45644 -2.72394 0
M  V30 2019 H 190.697 -2.68855 -1.31748 0
M  V30 2020 H 188.243 -1.29372 -0.632362 0
M  V30 2021 H 190.196 -2.0651 -3.6733 0
M  V30 2022 H 188.92 -0.95004 -3.12477 0
M  V30 2023 H 187.579 -2.89467 -2.24954 0
M  V30 2024 H 187.227 -2.0701 -4.58428 0
M  V30 2025 H 186.927 -3.82195 -4.46319 0
M  V30 2026 H 188.451 -3.22869 -5.18255 0
M  V30 2027 H 189.865 -4.62348 -3.38979 0
M  V30 2028 H 188.262 -5.25006 -2.9067 0
M  V30 2029 H 189.332 -4.54893 -1.67929 0
M  V30 2030 N 190.675 0.682077 -1.42076 0
M  V30 2031 C 191.638 1.77756 -1.44691 0
M  V30 2032 C 192.638 1.5726 -0.335535 0
M  V30 2033 O 193.828 1.63686 -0.596037 0
M  V30 2034 C 190.96 3.16301 -1.27146 0
M  V30 2035 H 192.153 1.76826 -2.42224 0
M  V30 2036 H 189.706 0.891012 -1.28416 0
M  V30 2037 H 190.441 3.22862 -0.305075 0
M  V30 2038 H 190.226 3.32581 -2.07683 0
M  V30 2039 H 191.716 3.96241 -1.31843 0
M  V30 2040 N 192.153 1.28127 0.917671 0
M  V30 2041 C 193.116 1.11744 2.00115 0
M  V30 2042 C 194.116 0.0583052 1.60694 0
M  V30 2043 O 195.306 0.303755 1.71531 0
M  V30 2044 C 192.438 0.704862 3.33533 0
M  V30 2045 H 193.631 2.07966 2.16079 0
M  V30 2046 H 191.184 1.11058 1.09981 0
M  V30 2047 H 191.919 -0.258299 3.2327 0
M  V30 2048 H 191.704 1.4699 3.63505 0
M  V30 2049 H 193.194 0.612768 4.1308 0
M  V30 2050 N 193.631 -1.12557 1.10312 0
M  V30 2051 C 194.877 -1.84311 0.846011 0
M  V30 2052 C 195.21 -1.83805 -0.626859 0
M  V30 2053 O 194.485 -1.28268 -1.46211 0
M  V30 2054 C 194.768 -3.32048 1.39341 0
M  V30 2055 C 194.621 -3.41016 2.93305 0
M  V30 2056 C 195.94 -4.27764 1.03468 0
M  V30 2057 H 193.059 -0.669192 0.30879 0
M  V30 2058 H 195.701 -1.32057 1.36605 0
M  V30 2059 H 193.851 -3.76678 0.951087 0
M  V30 2060 H 195.523 -3.05031 3.46055 0
M  V30 2061 H 193.766 -2.81603 3.29973 0
M  V30 2062 H 194.437 -4.44948 3.26689 0
M  V30 2063 H 196.913 -3.91253 1.41633 0
M  V30 2064 H 195.789 -5.29549 1.44463 0
M  V30 2065 H 196.05 -4.42064 -0.0560404 0
M  V30 2066 N 195.109 -0.891671 -1.2995 0
M  V30 2067 C 196.334 -0.527932 -2.00568 0
M  V30 2068 C 196.759 0.877969 -1.66353 0
M  V30 2069 O 196.117 1.58301 -0.883762 0
M  V30 2070 C 196.165 -0.717745 -3.53385 0
M  V30 2071 O 195.269 0.233376 -4.11739 0
M  V30 2072 H 194.61 -0.20722 -0.630837 0
M  V30 2073 H 197.14 -1.20105 -1.65638 0
M  V30 2074 H 197.15 -0.619307 -4.03272 0
M  V30 2075 H 195.825 -1.74276 -3.77625 0
M  V30 2076 H 194.402 0.0880706 -3.72796 0
M  V30 2077 N 196.587 1.43421 -0.653314 0
M  V30 2078 C 197.517 2.33487 0.0246656 0
M  V30 2079 C 198.498 1.49475 0.811863 0
M  V30 2080 O 199.683 1.78139 0.773322 0
M  V30 2081 C 196.813 3.32841 0.99166 0
M  V30 2082 C 195.767 4.26842 0.314568 0
M  V30 2083 C 195.093 5.16236 1.39302 0
M  V30 2084 C 196.393 5.16243 -0.793095 0
M  V30 2085 H 198.087 2.90427 -0.727481 0
M  V30 2086 H 195.633 1.39649 -0.351287 0
M  V30 2087 H 197.586 3.94747 1.47487 0
M  V30 2088 H 196.31 2.74158 1.77497 0
M  V30 2089 H 194.969 3.663 -0.148199 0
M  V30 2090 H 194.617 4.53891 2.16776 0
M  V30 2091 H 194.317 5.79948 0.945223 0
M  V30 2092 H 195.841 5.81015 1.87759 0
M  V30 2093 H 197.255 5.71958 -0.392039 0
M  V30 2094 H 195.652 5.88676 -1.16536 0
M  V30 2095 H 196.722 4.55927 -1.65103 0
M  V30 2096 N 198.065 0.39524 1.52563 0
M  V30 2097 C 198.975 -0.444232 2.30356 0
M  V30 2098 C 199.991 -1.06615 1.37511 0
M  V30 2099 O 201.167 -1.07067 1.70583 0
M  V30 2100 C 198.232 -1.55315 3.09964 0
M  V30 2101 C 197.293 -0.955734 4.18526 0
M  V30 2102 C 196.526 -2.01181 4.9433 0
M  V30 2103 O 196.749 -3.22781 4.70285 0
M  V30 2104 O 195.683 -1.62579 5.79527 0
M  V30 2105 H 199.509 0.189667 3.03107 0
M  V30 2106 H 197.094 0.1588 1.48554 0
M  V30 2107 H 198.976 -2.19724 3.59582 0
M  V30 2108 H 197.651 -2.17191 2.4002 0
M  V30 2109 H 196.558 -0.274743 3.7309 0
M  V30 2110 H 197.891 -0.381109 4.90722 0
M  V30 2111 N 199.544 -1.57102 0.125237 0
M  V30 2112 C 200.96 -1.57915 -0.231322 0
M  V30 2113 C 201.16 -1.13833 -1.66266 0
M  V30 2114 O 200.216 -0.828581 -2.38518 0
M  V30 2115 C 201.529 -3.00699 0.00766489 0
M  V30 2116 C 203.077 -3.12947 -0.0577483 0
M  V30 2117 C 203.552 -4.57742 0.153626 0
M  V30 2118 N 205.043 -4.63092 0.0998073 0
M  V30 2119 C 205.778 -5.72905 0.238174 0
M  V30 2120 N 205.274 -6.91445 0.433057 0
M  V30 2121 N 207.067 -5.6182 0.177308 0
M  V30 2122 H 199.218 -1.84055 1.06007 0
M  V30 2123 H 201.481 -0.850905 0.417929 0
M  V30 2124 H 201.187 -3.3726 0.997431 0
M  V30 2125 H 201.061 -3.70236 -0.721452 0
M  V30 2126 H 203.448 -2.7624 -1.03804 0
M  V30 2127 H 203.529 -2.4594 0.70335 0
M  V30 2128 H 203.173 -4.95149 1.13092 0
M  V30 2129 H 203.103 -5.22848 -0.627534 0
M  V30 2130 H 205.594 -3.77871 -0.047051 0
M  V30 2131 H 205.907 -7.70985 0.529332 0
M  V30 2132 H 204.252 -6.93415 0.469109 0
M  V30 2133 H 207.443 -4.68093 0.0259748 0
M  V30 2134 H 207.616 -6.47357 0.288582 0
M  V30 2135 N 201.022 0.148545 -1.56898 0
M  V30 2136 C 201.955 1.21293 -1.93296 0
M  V30 2137 C 202.933 1.41637 -0.798599 0
M  V30 2138 O 204.117 1.56275 -1.05406 0
M  V30 2139 C 201.244 2.5721 -2.20365 0
M  V30 2140 C 200.29 2.53469 -3.4301 0
M  V30 2141 S 201.123 2.00315 -4.96623 0
M  V30 2142 C 202.279 3.37964 -5.26812 0
M  V30 2143 H 202.512 0.902393 -2.83274 0
M  V30 2144 H 200.045 0.354094 -1.50285 0
M  V30 2145 H 202.003 3.35427 -2.36641 0
M  V30 2146 H 200.664 2.85454 -1.31054 0
M  V30 2147 H 199.857 3.53518 -3.59223 0
M  V30 2148 H 199.459 1.83359 -3.25968 0
M  V30 2149 H 201.751 4.34066 -5.20185 0
M  V30 2150 H 202.694 3.26606 -6.28279 0
M  V30 2151 H 203.102 3.35028 -4.54331 0
M  V30 2152 N 202.5 1.5196 0.417844 0
M  V30 2153 C 203.746 1.65836 1.16732 0
M  V30 2154 C 204.079 0.382881 1.90388 0
M  V30 2155 O 203.354 -0.618368 1.84408 0
M  V30 2156 C 203.637 2.87466 2.16876 0
M  V30 2157 C 203.49 4.25041 1.47174 0
M  V30 2158 C 204.809 3.04613 3.17646 0
M  V30 2159 H 201.928 0.603515 0.423011 0
M  V30 2160 H 204.57 1.84494 0.454105 0
M  V30 2161 H 202.72 2.71689 2.777 0
M  V30 2162 H 204.392 4.52527 0.895376 0
M  V30 2163 H 202.635 4.26843 0.773806 0
M  V30 2164 H 203.306 5.06176 2.20204 0
M  V30 2165 H 205.782 3.1923 2.66892 0
M  V30 2166 H 204.658 3.91247 3.8499 0
M  V30 2167 H 204.919 2.17541 3.84874 0
M  V30 2168 N 203.978 -0.674533 1.42435 0
M  V30 2169 C 205.218 -1.4466 1.44405 0
M  V30 2170 C 205.582 -1.91911 0.0585784 0
M  V30 2171 O 206.783 -2.68759 -0.0469991 0
M  V30 2172 C 205.054 -2.61136 2.44013 0
M  V30 2173 S 206.613 -3.49981 2.64687 0
M  V30 2174 H 203.431 -0.494074 0.511284 0
M  V30 2175 H 206.033 -0.785162 1.7904 0
M  V30 2176 H 204.737 -2.24662 3.43446 0
M  V30 2177 H 204.268 -3.32153 2.10803 0
M  V30 2178 H 206.283 -4.57124 1.93007 0
M  V30 2179 N 205.456 -1.28612 -0.910864 0
M  V30 2180 C 206.705 -1.15311 -1.65488 0
M  V30 2181 C 207.018 0.296999 -1.93332 0
M  V30 2182 O 208.224 0.551168 -2.65847 0
M  V30 2183 C 206.68 -2.01599 -2.98137 0
M  V30 2184 C 206.288 -3.51367 -2.7793 0
M  V30 2185 C 208.032 -1.96993 -3.76024 0
M  V30 2186 C 205.939 -4.29797 -4.06237 0
M  V30 2187 H 204.869 -0.42796 -0.620779 0
M  V30 2188 H 207.52 -1.53166 -1.01057 0
M  V30 2189 H 205.902 -1.56603 -3.63719 0
M  V30 2190 H 207.076 -4.0434 -2.21011 0
M  V30 2191 H 205.391 -3.57529 -2.13452 0
M  V30 2192 H 207.988 -2.52856 -4.71135 0
M  V30 2193 H 208.331 -0.94733 -4.05378 0
M  V30 2194 H 208.864 -2.39973 -3.17266 0
M  V30 2195 H 205.603 -5.32648 -3.82055 0
M  V30 2196 H 205.123 -3.81596 -4.62757 0
M  V30 2197 H 206.802 -4.39869 -4.74473 0
M  V30 2198 N 206.934 1.1197 -1.10907 0
M  V30 2199 C 208.18 1.8386 -0.855773 0
M  V30 2200 C 208.513 1.84134 0.617103 0
M  V30 2201 O 207.788 1.29041 1.45529 0
M  V30 2202 C 208.071 3.31305 -1.411 0
M  V30 2203 C 207.924 3.39456 -2.9511 0
M  V30 2204 C 209.243 4.2721 -1.05736 0
M  V30 2205 H 206.362 0.667545 -0.312334 0
M  V30 2206 H 209.004 1.31331 -1.37303 0
M  V30 2207 H 207.154 3.76169 -0.97105 0
M  V30 2208 H 208.826 3.03191 -3.47668 0
M  V30 2209 H 207.069 2.79849 -3.31462 0
M  V30 2210 H 207.74 4.43209 -3.29044 0
M  V30 2211 H 210.216 3.90497 -1.43706 0
M  V30 2212 H 209.092 5.28775 -1.47269 0
M  V30 2213 H 209.353 4.42088 0.0325958 0
M  V30 2214 N 208.412 0.89855 1.29475 0
M  V30 2215 C 209.362 0.346767 2.25348 0
M  V30 2216 C 210.346 -0.532509 1.51833 0
M  V30 2217 O 211.538 -0.374714 1.72988 0
M  V30 2218 C 208.667 -0.425681 3.40651 0
M  V30 2219 C 207.753 0.46845 4.21505 0
M  V30 2220 N 208.144 1.57514 4.80648 0
M  V30 2221 C 206.442 0.26603 4.45206 0
M  V30 2222 C 207.143 2.12889 5.41344 0
M  V30 2223 N 206.119 1.42208 5.24669 0
M  V30 2224 H 209.921 1.19219 2.68634 0
M  V30 2225 H 207.435 0.749473 1.44072 0
M  V30 2226 H 209.432 -0.837716 4.08397 0
M  V30 2227 H 208.092 -1.26838 2.98902 0
M  V30 2228 H 209.103 1.95789 4.79465 0
M  V30 2229 H 205.78 -0.538394 4.14014 0
M  V30 2230 H 207.17 3.05901 5.98226 0
M  V30 2231 N 209.89 -1.43072 0.660911 0
M  V30 2232 C 210.82 -2.33497 -0.0122829 0
M  V30 2233 C 211.801 -1.49903 -0.803925 0
M  V30 2234 O 212.986 -1.78546 -0.763864 0
M  V30 2235 C 210.116 -3.33363 -0.973994 0
M  V30 2236 C 209.07 -4.27003 -0.291928 0
M  V30 2237 C 208.396 -5.16967 -1.36562 0
M  V30 2238 C 209.696 -5.15816 0.820462 0
M  V30 2239 H 211.39 -2.90038 0.742873 0
M  V30 2240 H 208.936 -1.39461 0.358688 0
M  V30 2241 H 210.889 -3.95524 -1.45392 0
M  V30 2242 H 209.613 -2.75095 -1.7604 0
M  V30 2243 H 208.272 -3.66217 0.167623 0
M  V30 2244 H 207.92 -4.55034 -2.14366 0
M  V30 2245 H 207.62 -5.80441 -0.914454 0
M  V30 2246 H 209.144 -5.82003 -1.84675 0
M  V30 2247 H 210.558 -5.71742 0.422366 0
M  V30 2248 H 208.955 -5.8805 1.19656 0
M  V30 2249 H 210.025 -4.55045 1.67518 0
M  V30 2250 N 211.368 -0.403325 -1.52352 0
M  V30 2251 C 212.3 0.4603 -2.2453 0
M  V30 2252 C 213.313 1.01505 -1.27282 0
M  V30 2253 O 214.502 0.914982 -1.53266 0
M  V30 2254 C 211.602 1.65208 -2.95905 0
M  V30 2255 C 210.775 1.22224 -4.19976 0
M  V30 2256 C 209.834 2.28028 -4.74226 0
M  V30 2257 O 208.86 1.88857 -5.36956 0
M  V30 2258 N 210.062 3.6012 -4.55295 0
M  V30 2259 H 212.827 -0.158156 -2.99282 0
M  V30 2260 H 210.388 -0.230402 -1.60252 0
M  V30 2261 H 212.38 2.35541 -3.29093 0
M  V30 2262 H 210.95 2.17658 -2.24374 0
M  V30 2263 H 210.17 0.34725 -3.92668 0
M  V30 2264 H 211.458 0.911924 -5.00561 0
M  V30 2265 H 210.856 3.94698 -4.05253 0
M  V30 2266 H 209.413 4.26447 -4.92936 0
M  V30 2267 N 212.846 1.57033 -0.133567 0
M  V30 2268 C 214.262 1.58035 0.222944 0
M  V30 2269 C 214.462 1.14713 1.6566 0
M  V30 2270 O 213.518 0.841218 2.38075 0
M  V30 2271 C 214.831 3.00691 -0.0236116 0
M  V30 2272 C 216.379 3.12973 0.0411512 0
M  V30 2273 C 216.854 4.57654 -0.177899 0
M  V30 2274 N 218.345 4.63033 -0.124365 0
M  V30 2275 C 219.08 5.72771 -0.268553 0
M  V30 2276 N 218.576 6.91206 -0.46972 0
M  V30 2277 N 220.369 5.61718 -0.2071 0
M  V30 2278 H 212.52 1.8349 -1.06981 0
M  V30 2279 H 214.783 0.848677 -0.422436 0
M  V30 2280 H 214.489 3.36726 -1.0153 0
M  V30 2281 H 214.363 3.70614 0.701808 0
M  V30 2282 H 216.75 2.76787 1.02338 0
M  V30 2283 H 216.831 2.45564 -0.716383 0
M  V30 2284 H 216.475 4.94542 -1.15717 0
M  V30 2285 H 216.405 5.23173 0.599797 0
M  V30 2286 H 218.896 3.7789 0.027011 0
M  V30 2287 H 219.209 7.70693 -0.570212 0
M  V30 2288 H 217.554 6.93156 -0.505876 0
M  V30 2289 H 220.745 4.68072 -0.0507986 0
M  V30 2290 H 220.918 6.47195 -0.322909 0
M  V30 2291 N 214.325 -0.140222 1.56975 0
M  V30 2292 C 215.573 -0.850005 1.83356 0
M  V30 2293 C 215.894 -1.81399 0.71551 0
M  V30 2294 O 215.164 -1.94136 -0.262294 0
M  V30 2295 H 213.744 -0.316886 0.676456 0
M  V30 2296 H 216.406 -0.132608 1.94448 0
M  V30 2297 H 215.502 -1.40814 2.78528 0
M  V30 2298 N 215.803 -1.52179 -0.40978 0
M  V30 2299 C 217.049 -1.66453 -1.15851 0
M  V30 2300 C 217.382 -0.392972 -1.90182 0
M  V30 2301 O 216.657 0.608579 -1.84734 0
M  V30 2302 C 216.94 -2.88612 -2.15349 0
M  V30 2303 C 216.793 -4.25815 -1.44918 0
M  V30 2304 C 218.112 -3.06294 -3.16026 0
M  V30 2305 H 215.231 -0.60575 -0.419805 0
M  V30 2306 H 217.873 -1.84732 -0.444314 0
M  V30 2307 H 216.023 -2.73158 -2.76255 0
M  V30 2308 H 217.695 -4.52995 -0.871365 0
M  V30 2309 H 215.938 -4.27247 -0.751159 0
M  V30 2310 H 216.609 -5.07337 -2.17516 0
M  V30 2311 H 219.085 -3.20641 -2.65195 0
M  V30 2312 H 217.961 -3.93283 -3.8291 0
M  V30 2313 H 218.222 -2.19579 -3.83715 0
M  V30 2314 N 217.281 0.66697 -1.42791 0
M  V30 2315 C 218.697 0.981027 -1.25889 0
M  V30 2316 C 218.897 2.00793 -0.168695 0
M  V30 2317 O 217.953 2.48321 0.45747 0
M  V30 2318 C 219.266 1.47838 -2.61848 0
M  V30 2319 C 220.814 1.59575 -2.69267 0
M  V30 2320 C 221.289 2.12704 -4.05612 0
M  V30 2321 N 222.78 2.20026 -4.07606 0
M  V30 2322 C 223.515 2.62227 -5.09926 0
M  V30 2323 N 223.011 3.03824 -6.22626 0
M  V30 2324 N 224.804 2.62045 -4.97281 0
M  V30 2325 H 216.955 -0.0127891 -2.12396 0
M  V30 2326 H 219.218 0.0568258 -0.946295 0
M  V30 2327 H 218.924 0.798299 -3.4252 0
M  V30 2328 H 218.798 2.45579 -2.86305 0
M  V30 2329 H 221.185 2.26687 -1.88936 0
M  V30 2330 H 221.266 0.60302 -2.48591 0
M  V30 2331 H 220.91 1.46198 -4.86404 0
M  V30 2332 H 220.84 3.12782 -4.23645 0
M  V30 2333 H 223.331 1.90708 -3.2625 0
M  V30 2334 H 223.644 3.34734 -6.96544 0
M  V30 2335 H 221.989 3.01662 -6.26119 0
M  V30 2336 H 225.18 2.28916 -4.08308 0
M  V30 2337 H 225.353 2.94613 -5.77154 0
M  V30 2338 N 218.759 1.29093 0.90403 0
M  V30 2339 C 220.007 1.16583 1.65085 0
M  V30 2340 C 220.328 -0.283933 1.92922 0
M  V30 2341 O 219.598 -1.19509 1.55224 0
M  V30 2342 H 218.178 0.428467 0.611903 0
M  V30 2343 H 220.84 1.61959 1.08422 0
M  V30 2344 H 219.936 1.71266 2.6091 0
M  V30 2345 N 220.237 -1.11381 1.11499 0
M  V30 2346 C 221.648 -1.6465 0.880191 0
M  V30 2347 C 221.999 -1.87199 -0.587434 0
M  V30 2348 O 221.124 -1.60667 -1.44966 0
M  V30 2349 C 221.719 -2.99105 1.59128 0
M  V30 2350 C 220.278 -3.49279 1.40289 0
M  V30 2351 C 219.425 -2.24077 1.63354 0
M  V30 2352 H 222.376 -0.950123 1.27116 0
M  V30 2353 H 222.397 -3.66107 1.03664 0
M  V30 2354 H 221.909 -2.82661 2.65941 0
M  V30 2355 H 220.01 -3.70887 0.356888 0
M  V30 2356 H 220.123 -4.2803 2.15238 0
M  V30 2357 H 218.487 -2.31733 1.05698 0
M  V30 2358 H 219.27 -2.10175 2.71443 0
M  V30 2359 N 221.715 -0.905404 -1.28997 0
M  V30 2360 C 222.963 -0.533192 -1.9494 0
M  V30 2361 C 223.284 0.924618 -1.71685 0
M  V30 2362 O 222.554 1.65268 -1.05183 0
M  V30 2363 H 221.134 -0.194194 -0.721317 0
M  V30 2364 H 223.796 -1.15294 -1.57141 0
M  V30 2365 H 222.892 -0.72059 -3.03667 0
M  V30 2366 N 223.193 1.4272 -0.668489 0
M  V30 2367 C 224.609 1.55992 -0.33745 0
M  V30 2368 C 224.809 1.64933 1.15756 0
M  V30 2369 O 223.865 1.61278 1.94282 0
M  V30 2370 C 225.178 2.81314 -1.06222 0
M  V30 2371 C 226.726 2.95078 -1.04394 0
M  V30 2372 C 227.201 4.23252 -1.74991 0
M  V30 2373 N 228.692 4.3015 -1.71829 0
M  V30 2374 C 229.427 5.28127 -2.23315 0
M  V30 2375 N 228.923 6.32293 -2.83156 0
M  V30 2376 N 230.716 5.19882 -2.13726 0
M  V30 2377 H 222.867 1.3516 -1.63846 0
M  V30 2378 H 225.13 0.650174 -0.689912 0
M  V30 2379 H 224.836 2.80823 -2.11734 0
M  V30 2380 H 224.71 3.72012 -0.62344 0
M  V30 2381 H 227.097 2.951 0.0028244 0
M  V30 2382 H 227.178 2.05627 -1.52155 0
M  V30 2383 H 226.822 4.2399 -2.79633 0
M  V30 2384 H 226.752 5.11626 -1.24685 0
M  V30 2385 H 229.243 3.55499 -1.28175 0
M  V30 2386 H 229.556 7.03398 -3.20079 0
M  V30 2387 H 227.901 6.32873 -2.87223 0
M  V30 2388 H 231.092 4.37423 -1.66669 0
M  V30 2389 H 231.265 5.96077 -2.54158 0
M  V30 2390 N 224.671 0.411399 1.52136 0
M  V30 2391 C 226.087 0.0623865 1.59478 0
M  V30 2392 C 226.287 -1.42554 1.4241 0
M  V30 2393 O 225.343 -2.19263 1.2522 0
M  V30 2394 C 226.656 0.559331 2.95452 0
M  V30 2395 C 228.204 0.517503 3.08692 0
M  V30 2396 C 228.679 0.990994 4.4715 0
M  V30 2397 N 230.17 0.947908 4.53397 0
M  V30 2398 C 230.905 1.28544 5.58806 0
M  V30 2399 N 230.401 1.69454 6.71757 0
M  V30 2400 N 232.194 1.20526 5.49026 0
M  V30 2401 H 224.345 1.37982 1.61477 0
M  V30 2402 H 226.608 0.566977 0.759764 0
M  V30 2403 H 226.314 1.59938 3.1323 0
M  V30 2404 H 226.188 -0.0298014 3.77188 0
M  V30 2405 H 228.575 -0.513505 2.90598 0
M  V30 2406 H 228.656 1.14272 2.28857 0
M  V30 2407 H 228.3 2.02034 4.65988 0
M  V30 2408 H 228.23 0.34257 5.25485 0
M  V30 2409 H 230.721 0.647157 3.72317 0
M  V30 2410 H 231.034 1.93513 7.48179 0
M  V30 2411 H 229.379 1.73359 6.73032 0
M  V30 2412 H 232.57 0.884505 4.59667 0
M  V30 2413 H 232.743 1.47161 6.31069 0
M  V30 2414 N 226.149 -1.5696 0.141893 0
M  V30 2415 C 227.112 -2.15316 -0.785587 0
M  V30 2416 C 228.112 -1.09366 -1.1788 0
M  V30 2417 O 229.302 -1.35031 -1.10056 0
M  V30 2418 C 226.434 -2.71211 -2.06537 0
M  V30 2419 H 227.627 -2.98608 -0.278041 0
M  V30 2420 H 225.18 -1.5593 -0.107519 0
M  V30 2421 H 225.915 -1.91571 -2.6167 0
M  V30 2422 H 225.7 -3.4872 -1.79268 0
M  V30 2423 H 227.19 -3.16189 -2.72789 0
M  V30 2424 N 227.627 0.131896 -1.57047 0
M  V30 2425 C 229.043 0.485031 -1.52051 0
M  V30 2426 C 229.243 1.82563 -0.85281 0
M  V30 2427 O 228.299 2.48817 -0.429694 0
M  V30 2428 C 229.612 0.481409 -2.96821 0
M  V30 2429 C 231.16 0.565868 -3.07842 0
M  V30 2430 C 231.635 0.592762 -4.54148 0
M  V30 2431 N 233.126 0.654564 -4.58552 0
M  V30 2432 C 233.861 0.696608 -5.69153 0
M  V30 2433 N 233.357 0.697078 -6.89284 0
M  V30 2434 N 235.15 0.738639 -5.57226 0
M  V30 2435 H 227.301 -0.746664 -1.98843 0
M  V30 2436 H 229.564 -0.273999 -0.90754 0
M  V30 2437 H 229.27 -0.435731 -3.4899 0
M  V30 2438 H 229.144 1.3139 -3.53577 0
M  V30 2439 H 231.531 1.47343 -2.55684 0
M  V30 2440 H 231.612 -0.29406 -2.54104 0
M  V30 2441 H 231.256 -0.310701 -5.06949 0
M  V30 2442 H 231.186 1.46939 -5.05684 0
M  V30 2443 H 233.677 0.660887 -3.72076 0
M  V30 2444 H 233.99 0.731426 -7.69331 0
M  V30 2445 H 232.335 0.66471 -6.91814 0
M  V30 2446 H 235.526 0.735545 -4.62285 0
M  V30 2447 H 235.699 0.767938 -6.43434 0
M  V30 2448 N 229.106 1.52395 0.401703 0
M  V30 2449 C 230.069 1.75636 1.47257 0
M  V30 2450 C 231.069 0.62628 1.48103 0
M  V30 2451 O 232.259 0.894227 1.49497 0
M  V30 2452 C 229.391 1.84553 2.86624 0
M  V30 2453 H 230.584 2.71241 1.27938 0
M  V30 2454 H 228.137 1.42923 0.632662 0
M  V30 2455 H 228.872 0.908882 3.11303 0
M  V30 2456 H 228.657 2.66715 2.87412 0
M  V30 2457 H 230.147 2.04251 3.64241 0
M  V30 2458 N 230.584 -0.659388 1.43143 0
M  V30 2459 C 231.83 -1.42145 1.44647 0
M  V30 2460 C 232.163 -1.9408 0.0681907 0
M  V30 2461 O 231.438 -1.71899 -0.910007 0
M  V30 2462 C 231.721 -2.60735 2.48373 0
M  V30 2463 C 231.574 -2.14332 3.95451 0
M  V30 2464 C 232.893 -3.62951 2.48906 0
M  V30 2465 H 230.012 -0.51552 0.526696 0
M  V30 2466 H 232.654 -0.748069 1.74654 0
M  V30 2467 H 230.804 -3.18184 2.22916 0
M  V30 2468 H 232.476 -1.61932 4.31944 0
M  V30 2469 H 230.719 -1.4576 4.08578 0
M  V30 2470 H 231.39 -2.99583 4.63631 0
M  V30 2471 H 233.866 -3.1525 2.71582 0
M  V30 2472 H 232.742 -4.43487 3.23435 0
M  V30 2473 H 233.003 -4.15126 1.52061 0
M  V30 2474 N 232.062 -1.29571 -0.897171 0
M  V30 2475 C 232.992 -1.17473 -2.01798 0
M  V30 2476 C 233.973 -0.068323 -1.69963 0
M  V30 2477 O 235.158 -0.248239 -1.92607 0
M  V30 2478 C 232.288 -0.853099 -3.36659 0
M  V30 2479 C 231.242 -1.9161 -3.82713 0
M  V30 2480 C 230.568 -1.44773 -5.14728 0
M  V30 2481 C 231.868 -3.32535 -4.02763 0
M  V30 2482 H 233.562 -2.11237 -2.12177 0
M  V30 2483 H 231.108 -1.01699 -1.01948 0
M  V30 2484 H 233.061 -0.755165 -4.14578 0
M  V30 2485 H 231.785 0.120236 -3.26379 0
M  V30 2486 H 230.444 -2.00346 -3.07013 0
M  V30 2487 H 230.092 -0.462995 -5.00865 0
M  V30 2488 H 229.792 -2.15865 -5.46513 0
M  V30 2489 H 231.316 -1.36334 -5.95185 0
M  V30 2490 H 232.73 -3.26626 -4.71156 0
M  V30 2491 H 231.127 -4.01607 -4.45905 0
M  V30 2492 H 232.197 -3.75326 -3.07016 0
M  V30 2493 N 233.54 1.10788 -1.12088 0
M  V30 2494 C 234.47 2.19083 -0.807755 0
M  V30 2495 C 235.451 1.6858 0.226859 0
M  V30 2496 O 236.636 1.93997 0.0888475 0
M  V30 2497 C 233.766 3.46344 -0.257576 0
M  V30 2498 C 232.72 4.101 -1.22483 0
M  V30 2499 C 232.046 5.32016 -0.535052 0
M  V30 2500 C 233.346 4.54236 -2.57811 0
M  V30 2501 H 235.04 2.45534 -1.71328 0
M  V30 2502 H 232.586 1.1801 -0.825205 0
M  V30 2503 H 234.539 4.21392 -0.0262679 0
M  V30 2504 H 233.263 3.19373 0.683278 0
M  V30 2505 H 231.922 3.37054 -1.44189 0
M  V30 2506 H 231.57 5.01319 0.410827 0
M  V30 2507 H 231.27 5.75625 -1.18024 0
M  V30 2508 H 232.794 6.09799 -0.312695 0
M  V30 2509 H 234.208 5.20575 -2.40155 0
M  V30 2510 H 232.605 5.08682 -3.18375 0
M  V30 2511 H 233.675 3.6734 -3.16528 0
M  V30 2512 N 235.018 0.912232 1.28515 0
M  V30 2513 C 235.981 0.404223 2.25607 0
M  V30 2514 C 236.981 -0.468602 1.53821 0
M  V30 2515 O 238.171 -0.271873 1.72065 0
M  V30 2516 C 235.303 -0.420653 3.38295 0
M  V30 2517 H 236.496 1.26188 2.7206 0
M  V30 2518 H 234.049 0.691495 1.40171 0
M  V30 2519 H 234.784 -1.29777 2.97201 0
M  V30 2520 H 234.569 0.204935 3.91564 0
M  V30 2521 H 236.059 -0.766971 4.10496 0
M  V30 2522 N 236.496 -1.42363 0.676048 0
M  V30 2523 C 237.426 -2.33497 0.0124832 0
M  V30 2524 C 238.407 -1.50748 -0.787981 0
M  V30 2525 O 239.592 -1.79346 -0.744884 0
M  V30 2526 C 236.722 -3.34377 -0.938582 0
M  V30 2527 C 235.676 -4.27289 -0.246622 0
M  V30 2528 C 235.002 -5.18386 -1.31071 0
M  V30 2529 C 236.302 -5.14916 0.875125 0
M  V30 2530 H 237.996 -2.89233 0.773593 0
M  V30 2531 H 235.542 -1.39073 0.37346 0
M  V30 2532 H 237.495 -3.97044 -1.41188 0
M  V30 2533 H 236.219 -2.76947 -1.73113 0
M  V30 2534 H 234.878 -3.66018 0.206456 0
M  V30 2535 H 234.526 -4.57282 -2.09528 0
M  V30 2536 H 234.226 -5.81378 -0.852839 0
M  V30 2537 H 235.75 -5.83929 -1.78492 0
M  V30 2538 H 237.164 -5.71262 0.482983 0
M  V30 2539 H 235.561 -5.86747 1.25887 0
M  V30 2540 H 236.631 -4.53242 1.72335 0
M  V30 2541 N 237.974 -0.419461 -1.51915 0
M  V30 2542 C 239.223 0.154346 -2.01109 0
M  V30 2543 C 239.536 1.45338 -1.30905 0
M  V30 2544 O 240.742 2.10906 -1.7097 0
M  V30 2545 C 239.198 0.325615 -3.58424 0
M  V30 2546 C 238.806 -0.961934 -4.37551 0
M  V30 2547 C 240.55 0.854155 -4.15818 0
M  V30 2548 C 238.457 -0.757287 -5.86531 0
M  V30 2549 H 237.387 0.0614563 -0.751491 0
M  V30 2550 H 240.038 -0.54649 -1.75173 0
M  V30 2551 H 238.42 1.08903 -3.80731 0
M  V30 2552 H 239.594 -1.7323 -4.26999 0
M  V30 2553 H 237.909 -1.41766 -3.91524 0
M  V30 2554 H 240.506 1.02346 -5.24814 0
M  V30 2555 H 240.849 1.83172 -3.73837 0
M  V30 2556 H 241.382 0.149528 -3.97519 0
M  V30 2557 H 238.121 -1.70671 -6.32892 0
M  V30 2558 H 237.641 -0.0264061 -5.99794 0
M  V30 2559 H 239.32 -0.403482 -6.45741 0
M  V30 2560 N 239.452 1.56882 -0.150215 0
M  V30 2561 C 240.698 1.97299 0.494427 0
M  V30 2562 C 241.053 1.0338 1.62266 0
M  V30 2563 O 240.346 0.0694497 1.91474 0
M  V30 2564 C 240.54 3.41801 1.04437 0
M  V30 2565 C 240.369 4.49691 -0.0290451 0
M  V30 2566 C 239.139 5.03095 -0.47156 0
M  V30 2567 C 241.337 5.07693 -0.821703 0
M  V30 2568 N 239.319 5.94593 -1.52749 0
M  V30 2569 C 240.69 5.95431 -1.72805 0
M  V30 2570 C 242.745 4.90256 -0.869134 0
M  V30 2571 C 241.448 6.67599 -2.67777 0
M  V30 2572 C 243.474 5.63127 -1.8067 0
M  V30 2573 C 242.836 6.50576 -2.70057 0
M  V30 2574 H 238.935 0.76755 0.149639 0
M  V30 2575 H 241.519 1.93145 -0.24556 0
M  V30 2576 H 239.69 3.46541 1.75396 0
M  V30 2577 H 241.422 3.69272 1.6559 0
M  V30 2578 H 238.177 4.73543 -0.0732101 0
M  V30 2579 H 238.601 6.45047 -2.05531 0
M  V30 2580 H 243.243 4.22363 -0.192134 0
M  V30 2581 H 240.961 7.34717 -3.36476 0
M  V30 2582 H 244.547 5.51629 -1.84924 0
M  V30 2583 H 243.427 7.05974 -3.41424 0
M  V30 2584 N 240.93 -0.123565 1.57115 0
M  V30 2585 C 242.178 -0.83051 1.84247 0
M  V30 2586 C 242.499 -1.80629 0.73471 0
M  V30 2587 O 241.769 -1.94403 -0.241688 0
M  V30 2588 H 240.349 -0.309694 0.679778 0
M  V30 2589 H 243.011 -0.111976 1.94578 0
M  V30 2590 H 242.107 -1.37852 2.80006 0
M  V30 2591 N 242.408 -1.52605 -0.393616 0
M  V30 2592 C 243.638 -1.71046 -1.15874 0
M  V30 2593 C 244.046 -0.426483 -1.84331 0
M  V30 2594 O 243.389 0.608513 -1.73329 0
M  V30 2595 C 243.451 -2.80118 -2.25332 0
M  V30 2596 C 243.115 -4.21381 -1.76881 0
M  V30 2597 C 244.112 -5.04697 -1.24808 0
M  V30 2598 C 241.797 -4.67683 -1.83244 0
M  V30 2599 C 243.791 -6.32393 -0.797387 0
M  V30 2600 C 241.478 -5.95364 -1.37787 0
M  V30 2601 C 242.476 -6.77549 -0.861208 0
M  V30 2602 O 242.164 -8.02837 -0.413252 0
M  V30 2603 H 241.896 -0.576155 -0.353583 0
M  V30 2604 H 244.45 -2.00018 -0.467123 0
M  V30 2605 H 242.68 -2.46557 -2.97904 0
M  V30 2606 H 244.369 -2.87006 -2.87023 0
M  V30 2607 H 245.135 -4.70111 -1.19252 0
M  V30 2608 H 241.014 -4.03805 -2.22401 0
M  V30 2609 H 244.558 -6.9649 -0.393437 0
M  V30 2610 H 240.455 -6.29455 -1.43026 0
M  V30 2611 H 241.223 -8.16749 -0.53515 0
M  V30 2612 N 243.887 0.651787 -1.4349 0
M  V30 2613 C 245.112 1.44434 -1.48841 0
M  V30 2614 C 245.537 1.8779 -0.107955 0
M  V30 2615 O 244.895 1.57464 0.898602 0
M  V30 2616 C 244.943 2.65458 -2.44059 0
M  V30 2617 O 244.047 3.64566 -1.92784 0
M  V30 2618 H 243.388 0.433005 -0.503391 0
M  V30 2619 H 245.918 0.797451 -1.88419 0
M  V30 2620 H 245.928 3.13255 -2.6141 0
M  V30 2621 H 244.603 2.33244 -3.4434 0
M  V30 2622 H 243.18 3.23716 -1.851 0
M  V30 2623 N 245.365 1.30045 0.890287 0
M  V30 2624 C 246.328 1.15963 1.977 0
M  V30 2625 C 247.328 0.0923777 1.60534 0
M  V30 2626 O 248.518 0.340071 1.70848 0
M  V30 2627 C 245.65 0.775451 3.31963 0
M  V30 2628 H 246.843 2.12502 2.11619 0
M  V30 2629 H 244.396 1.13366 1.07601 0
M  V30 2630 H 245.131 -0.189671 3.23745 0
M  V30 2631 H 244.916 1.54668 3.60306 0
M  V30 2632 H 246.406 0.700251 4.11687 0
M  V30 2633 N 246.843 -1.10192 1.12674 0
M  V30 2634 C 248.089 -1.82475 0.884915 0
M  V30 2635 C 248.422 -1.85093 -0.58773 0
M  V30 2636 O 247.697 -1.3134 -1.43457 0
M  V30 2637 C 247.98 -3.29018 1.46353 0
M  V30 2638 C 247.833 -3.34718 3.00473 0
M  V30 2639 C 249.152 -4.25473 1.12519 0
M  V30 2640 H 246.271 -0.662492 0.322915 0
M  V30 2641 H 248.913 -1.2913 1.39375 0
M  V30 2642 H 247.063 -3.74576 1.03077 0
M  V30 2643 H 248.735 -2.97622 3.52447 0
M  V30 2644 H 246.978 -2.74541 3.35872 0
M  V30 2645 H 247.649 -4.37918 3.36053 0
M  V30 2646 H 250.125 -3.88161 1.499 0
M  V30 2647 H 249.001 -5.26365 1.55663 0
M  V30 2648 H 249.262 -4.42084 0.0377407 0
M  V30 2649 N 248.321 -0.919034 -1.28029 0
M  V30 2650 C 249.284 -0.416182 -2.2539 0
M  V30 2651 C 250.284 0.460438 -1.54067 0
M  V30 2652 O 251.474 0.262744 -1.72207 0
M  V30 2653 C 248.606 0.402707 -3.38513 0
M  V30 2654 H 249.799 -1.27629 -2.71387 0
M  V30 2655 H 247.352 -0.698919 -1.39803 0
M  V30 2656 H 248.087 1.282 -2.97885 0
M  V30 2657 H 247.872 -0.225698 -3.9145 0
M  V30 2658 H 249.362 0.745191 -4.10897 0
M  V30 2659 N 249.799 1.42003 -0.683588 0
M  V30 2660 C 250.762 2.29191 -0.0198243 0
M  V30 2661 C 251.762 1.43773 0.72013 0
M  V30 2662 O 252.952 1.65061 0.556815 0
M  V30 2663 C 250.084 3.26435 0.982487 0
M  V30 2664 H 251.277 2.8938 -0.787345 0
M  V30 2665 H 248.83 1.49789 -0.446418 0
M  V30 2666 H 249.565 2.71203 1.77819 0
M  V30 2667 H 249.35 3.89449 0.455182 0
M  V30 2668 H 250.84 3.918 1.44508 0
M  V30 2669 N 251.277 0.427512 1.51691 0
M  V30 2670 C 252.207 -0.3796 2.30394 0
M  V30 2671 C 253.188 -1.02982 1.35384 0
M  V30 2672 O 254.373 -1.03534 1.643 0
M  V30 2673 C 251.503 -1.48649 3.1388 0
M  V30 2674 C 250.457 -0.960294 4.17088 0
M  V30 2675 C 249.783 -2.16219 4.89033 0
M  V30 2676 C 251.083 -0.00153679 5.223 0
M  V30 2677 H 252.777 0.277164 2.98114 0
M  V30 2678 H 250.323 0.134739 1.43368 0
M  V30 2679 H 252.276 -2.05826 3.67714 0
M  V30 2680 H 251 -2.1714 2.43962 0
M  V30 2681 H 249.659 -0.410806 3.64291 0
M  V30 2682 H 249.307 -2.83307 4.15628 0
M  V30 2683 H 249.007 -1.81654 5.58816 0
M  V30 2684 H 250.531 -2.73968 5.45687 0
M  V30 2685 H 251.945 -0.482687 5.71264 0
M  V30 2686 H 250.342 0.256199 5.99553 0
M  V30 2687 H 251.412 0.938174 4.75738 0
M  V30 2688 N 252.755 -1.56801 0.158532 0
M  V30 2689 C 254.166 -1.83189 -0.360366 0
M  V30 2690 C 254.517 -1.07778 -1.63946 0
M  V30 2691 O 253.642 -0.326718 -2.13919 0
M  V30 2692 C 254.237 -3.32297 -0.660595 0
M  V30 2693 C 252.796 -3.59227 -1.12398 0
M  V30 2694 C 251.943 -2.76877 -0.153097 0
M  V30 2695 H 254.894 -1.54008 0.383031 0
M  V30 2696 H 254.915 -3.4908 -1.51405 0
M  V30 2697 H 254.427 -3.87156 0.270527 0
M  V30 2698 H 252.528 -3.09766 -2.07064 0
M  V30 2699 H 252.641 -4.67632 -1.04197 0
M  V30 2700 H 251.005 -2.46319 -0.647983 0
M  V30 2701 H 251.788 -3.34511 0.77182 0
M  V30 2702 N 254.233 0.115231 -1.57178 0
M  V30 2703 C 255.163 1.1423 -2.03651 0
M  V30 2704 C 256.144 1.42967 -0.921655 0
M  V30 2705 O 257.329 1.53343 -1.19162 0
M  V30 2706 C 254.459 2.4675 -2.44401 0
M  V30 2707 C 253.413 2.32467 -3.59365 0
M  V30 2708 C 252.739 3.69984 -3.86026 0
M  V30 2709 C 254.039 1.78203 -4.90959 0
M  V30 2710 H 255.733 0.755749 -2.89705 0
M  V30 2711 H 253.279 0.362093 -1.39373 0
M  V30 2712 H 255.232 3.18854 -2.75517 0
M  V30 2713 H 253.956 2.87302 -1.55322 0
M  V30 2714 H 252.615 1.62811 -3.28463 0
M  V30 2715 H 252.263 4.08028 -2.94147 0
M  V30 2716 H 251.963 3.61279 -4.63412 0
M  V30 2717 H 253.487 4.43587 -4.19599 0
M  V30 2718 H 254.901 2.40128 -5.20587 0
M  V30 2719 H 253.298 1.8031 -5.72371 0
M  V30 2720 H 254.368 0.739876 -4.79222 0
M  V30 2721 N 255.711 1.52812 0.385517 0
M  V30 2722 C 256.951 1.69716 1.13911 0
M  V30 2723 C 257.315 0.42962 1.87132 0
M  V30 2724 O 258.516 0.475071 2.64569 0
M  V30 2725 C 256.787 2.90021 2.0886 0
M  V30 2726 S 258.346 3.27531 2.92009 0
M  V30 2727 H 255.164 0.59739 0.385547 0
M  V30 2728 H 257.766 1.90868 0.423061 0
M  V30 2729 H 256.47 3.80493 1.53797 0
M  V30 2730 H 256.001 2.71213 2.84969 0
M  V30 2731 H 258.016 2.77989 4.11019 0
M  V30 2732 N 257.189 -0.644168 1.43834 0
M  V30 2733 C 258.435 -1.40603 1.46146 0
M  V30 2734 C 258.768 -1.93997 0.0887717 0
M  V30 2735 O 258.043 -1.72854 -0.891724 0
M  V30 2736 C 258.326 -2.58086 2.51124 0
M  V30 2737 C 258.179 -2.10126 3.97702 0
M  V30 2738 C 259.498 -3.60291 2.52742 0
M  V30 2739 H 256.617 -0.509905 0.532134 0
M  V30 2740 H 259.259 -0.729502 1.75437 0
M  V30 2741 H 257.409 -3.15801 2.26278 0
M  V30 2742 H 259.081 -1.57342 4.33637 0
M  V30 2743 H 257.324 -1.41419 4.10101 0
M  V30 2744 H 257.995 -2.94649 4.66783 0
M  V30 2745 H 260.471 -3.12352 2.7491 0
M  V30 2746 H 259.347 -4.40032 3.28121 0
M  V30 2747 H 259.608 -4.1349 1.56455 0
M  V30 2748 N 258.668 -1.30515 -0.883378 0
M  V30 2749 C 259.915 -1.1943 -1.63532 0
M  V30 2750 C 260.243 0.250627 -1.92878 0
M  V30 2751 O 259.498 1.19556 -1.54935 0
M  V30 2752 C 259.797 -1.96994 -2.98209 0
M  V30 2753 C 259.463 -3.466 -2.88408 0
M  V30 2754 C 258.125 -3.87397 -2.85442 0
M  V30 2755 C 260.477 -4.41863 -2.76418 0
M  V30 2756 C 257.805 -5.21745 -2.68327 0
M  V30 2757 C 260.157 -5.7632 -2.60841 0
M  V30 2758 C 258.821 -6.16354 -2.56251 0
M  V30 2759 H 258.091 -0.437025 -0.598406 0
M  V30 2760 H 260.738 -1.61635 -1.02696 0
M  V30 2761 H 259.043 -1.47429 -3.63004 0
M  V30 2762 H 260.74 -1.85808 -3.55354 0
M  V30 2763 H 257.33 -3.14182 -2.91527 0
M  V30 2764 H 261.514 -4.11285 -2.77775 0
M  V30 2765 H 256.77 -5.51853 -2.63189 0
M  V30 2766 H 260.944 -6.49772 -2.50538 0
M  V30 2767 H 258.571 -7.20401 -2.42748 0
M  V30 2768 N 260.146 1.09593 -1.13257 0
M  V30 2769 C 261.393 1.81734 -0.893257 0
M  V30 2770 C 261.721 1.8563 0.580656 0
M  V30 2771 O 260.976 1.31906 1.44566 0
M  V30 2772 C 261.275 3.27802 -1.42411 0
M  V30 2773 C 260.941 3.44041 -2.91456 0
M  V30 2774 C 259.603 3.48181 -3.3215 0
M  V30 2775 C 261.955 3.48719 -3.87356 0
M  V30 2776 C 259.283 3.54575 -4.67433 0
M  V30 2777 C 261.635 3.56648 -5.2248 0
M  V30 2778 C 260.299 3.59055 -5.62704 0
M  V30 2779 H 259.569 0.665011 -0.326866 0
M  V30 2780 H 262.216 1.2912 -1.41422 0
M  V30 2781 H 260.521 3.83042 -0.823795 0
M  V30 2782 H 262.218 3.82149 -1.21503 0
M  V30 2783 H 258.808 3.41502 -2.58987 0
M  V30 2784 H 262.992 3.44763 -3.57004 0
M  V30 2785 H 258.248 3.54725 -4.97976 0
M  V30 2786 H 262.422 3.59212 -5.96607 0
M  V30 2787 H 260.049 3.63763 -6.67518 0
M  V30 2788 N 261.624 0.925811 1.2754 0
M  V30 2789 C 263.04 0.625767 1.46821 0
M  V30 2790 C 263.24 -0.825506 1.83814 0
M  V30 2791 O 262.296 -1.60356 1.95044 0
M  V30 2792 C 263.609 1.57402 2.56213 0
M  V30 2793 C 265.157 1.58204 2.70075 0
M  V30 2794 C 265.632 2.51721 3.82623 0
M  V30 2795 N 267.123 2.49917 3.89994 0
M  V30 2796 C 267.858 3.18968 4.76494 0
M  V30 2797 N 267.354 3.97391 5.67496 0
M  V30 2798 N 269.147 3.07996 4.70208 0
M  V30 2799 H 261.298 1.86409 1.01811 0
M  V30 2800 H 263.561 0.800213 0.508295 0
M  V30 2801 H 263.267 2.60925 2.35819 0
M  V30 2802 H 263.141 1.31428 3.53563 0
M  V30 2803 H 265.528 0.554124 2.89851 0
M  V30 2804 H 265.609 1.88226 1.73218 0
M  V30 2805 H 265.253 3.54622 3.63601 0
M  V30 2806 H 265.183 2.18996 4.78903 0
M  V30 2807 H 267.674 1.9296 3.24923 0
M  V30 2808 H 267.987 4.4707 6.30356 0
M  V30 2809 H 266.332 4.01495 5.67298 0
M  V30 2810 H 269.523 2.46223 3.9811 0
M  V30 2811 H 269.696 3.6208 5.37403 0
M  V30 2812 N 263.102 -1.41638 0.69111 0
M  V30 2813 C 264.348 -2.01598 0.220519 0
M  V30 2814 C 264.681 -1.54594 -1.17535 0
M  V30 2815 O 263.956 -0.755177 -1.79241 0
M  V30 2816 C 264.239 -3.59062 0.273243 0
M  V30 2817 C 264.092 -4.16203 1.70573 0
M  V30 2818 C 265.411 -4.38546 -0.369457 0
M  V30 2819 H 262.53 -0.732468 0.0816045 0
M  V30 2820 H 265.172 -1.68445 0.878986 0
M  V30 2821 H 263.322 -3.87435 -0.287411 0
M  V30 2822 H 264.994 -3.98722 2.31989 0
M  V30 2823 H 263.237 -3.71414 2.2413 0
M  V30 2824 H 263.908 -5.25358 1.69419 0
M  V30 2825 H 266.384 -4.1596 0.107977 0
M  V30 2826 H 265.26 -5.48069 -0.302002 0
M  V30 2827 H 265.521 -4.17662 -1.44951 0
M  V30 2828 N 264.58 -0.43555 -1.51462 0
M  V30 2829 C 265.826 0.131709 -2.02372 0
M  V30 2830 C 266.159 1.42516 -1.3192 0
M  V30 2831 O 265.434 1.89606 -0.433573 0
M  V30 2832 C 265.717 0.352301 -3.58373 0
M  V30 2833 C 265.57 -0.959676 -4.39443 0
M  V30 2834 C 266.889 1.12286 -4.25535 0
M  V30 2835 H 264.008 0.0463936 -0.735538 0
M  V30 2836 H 266.65 -0.574197 -1.81116 0
M  V30 2837 H 264.8 0.9536 -3.76615 0
M  V30 2838 H 266.472 -1.59482 -4.32855 0
M  V30 2839 H 264.715 -1.56468 -4.04599 0
M  V30 2840 H 265.386 -0.759394 -5.46752 0
M  V30 2841 H 267.862 0.613545 -4.11552 0
M  V30 2842 H 266.738 1.24598 -5.34571 0
M  V30 2843 H 266.999 2.15048 -3.86273 0
M  V30 2844 N 266.058 1.56714 -0.166846 0
M  V30 2845 C 267.469 1.83378 0.350646 0
M  V30 2846 C 267.82 1.08646 1.63372 0
M  V30 2847 O 266.945 0.338058 2.13743 0
M  V30 2848 C 267.54 3.32643 0.642963 0
M  V30 2849 C 266.099 3.59818 1.10491 0
M  V30 2850 C 265.246 2.76954 0.138411 0
M  V30 2851 H 268.197 1.53803 -0.391193 0
M  V30 2852 H 268.218 3.49878 1.49551 0
M  V30 2853 H 267.73 3.87007 -0.291055 0
M  V30 2854 H 265.831 3.1086 2.05418 0
M  V30 2855 H 265.944 4.68178 1.01716 0
M  V30 2856 H 264.308 2.4666 0.634911 0
M  V30 2857 H 265.091 3.34097 -0.789549 0
M  V30 2858 N 267.536 -0.106894 1.57237 0
M  V30 2859 C 268.468 -1.15646 1.97885 0
M  V30 2860 C 269.481 -1.36981 0.879779 0
M  V30 2861 O 270.67 -1.35841 1.15799 0
M  V30 2862 C 267.77 -2.51425 2.27241 0
M  V30 2863 C 266.943 -2.50529 3.58545 0
M  V30 2864 C 266.002 -3.68145 3.75973 0
M  V30 2865 O 265.028 -3.51176 4.47956 0
M  V30 2866 N 266.23 -4.87177 3.15656 0
M  V30 2867 H 268.995 -0.81059 2.8853 0
M  V30 2868 H 266.556 -0.296024 1.59171 0
M  V30 2869 H 268.548 -3.28689 2.36105 0
M  V30 2870 H 267.118 -2.78147 1.42663 0
M  V30 2871 H 266.338 -1.58894 3.60758 0
M  V30 2872 H 267.626 -2.46997 4.44826 0
M  V30 2873 H 267.024 -5.03868 2.57165 0
M  V30 2874 H 265.581 -5.62075 3.30023 0
M  V30 2875 N 269.014 -1.53014 -0.377408 0
M  V30 2876 C 270.43 -1.42523 -0.718281 0
M  V30 2877 C 270.63 -0.55487 -1.9371 0
M  V30 2878 O 269.686 -0.0327593 -2.52479 0
M  V30 2879 C 270.999 -2.85546 -0.942539 0
M  V30 2880 C 272.547 -2.95101 -1.04329 0
M  V30 2881 C 273.022 -4.3916 -1.3001 0
M  V30 2882 N 274.513 -4.42536 -1.36806 0
M  V30 2883 C 275.248 -5.51097 -1.58364 0
M  V30 2884 N 274.744 -6.69724 -1.77317 0
M  V30 2885 N 276.537 -5.38657 -1.60638 0
M  V30 2886 H 268.688 -2.08116 0.424426 0
M  V30 2887 H 270.951 -0.939352 0.127759 0
M  V30 2888 H 270.657 -3.51499 -0.118929 0
M  V30 2889 H 270.531 -3.28493 -1.85397 0
M  V30 2890 H 272.918 -2.29309 -1.85745 0
M  V30 2891 H 272.999 -2.55566 -0.109505 0
M  V30 2892 H 272.643 -5.05521 -0.490991 0
M  V30 2893 H 272.573 -4.76258 -2.24691 0
M  V30 2894 H 275.064 -3.57039 -1.23821 0
M  V30 2895 H 275.377 -7.48233 -1.93306 0
M  V30 2896 H 273.722 -6.72732 -1.74518 0
M  V30 2897 H 276.913 -4.44948 -1.45391 0
M  V30 2898 H 277.086 -6.2333 -1.77098 0
M  V30 2899 N 270.492 0.636531 -1.44174 0
M  V30 2900 C 271.422 1.76003 -1.53444 0
M  V30 2901 C 272.403 1.65619 -0.387841 0
M  V30 2902 O 273.588 1.84461 -0.607257 0
M  V30 2903 C 270.718 3.14511 -1.4731 0
M  V30 2904 C 269.672 3.39677 -2.60391 0
M  V30 2905 C 268.998 4.78159 -2.39308 0
M  V30 2906 C 270.298 3.32772 -4.02567 0
M  V30 2907 H 271.992 1.68501 -2.47483 0
M  V30 2908 H 269.538 0.809237 -1.19111 0
M  V30 2909 H 271.491 3.92878 -1.52397 0
M  V30 2910 H 270.215 3.22783 -0.49785 0
M  V30 2911 H 268.874 2.63688 -2.54684 0
M  V30 2912 H 268.522 4.83128 -1.39988 0
M  V30 2913 H 268.222 4.95956 -3.15122 0
M  V30 2914 H 269.746 5.58762 -2.46205 0
M  V30 2915 H 271.16 4.01051 -4.09672 0
M  V30 2916 H 269.557 3.62104 -4.7854 0
M  V30 2917 H 270.627 2.30669 -4.2652 0
M  V30 2918 N 271.97 1.30982 0.876444 0
M  V30 2919 C 273.381 1.18277 1.44456 0
M  V30 2920 C 273.732 -0.213265 1.95037 0
M  V30 2921 O 272.857 -1.11057 1.85729 0
M  V30 2922 C 273.452 2.1411 2.62569 0
M  V30 2923 C 272.011 2.05358 3.15444 0
M  V30 2924 C 271.158 2.03706 1.88146 0
M  V30 2925 H 274.109 1.43127 0.685584 0
M  V30 2926 H 274.13 1.72692 3.39054 0
M  V30 2927 H 273.642 3.15706 2.25724 0
M  V30 2928 H 271.743 1.06934 3.56926 0
M  V30 2929 H 271.856 2.94156 3.78166 0
M  V30 2930 H 270.22 1.48629 2.06837 0
M  V30 2931 H 271.003 3.07047 1.53547 0
M  V30 2932 N 273.449 -1.08991 1.13837 0
M  V30 2933 C 274.697 -1.80899 0.901098 0
M  V30 2934 C 275.018 -1.86356 -0.574134 0
M  V30 2935 O 274.288 -1.35235 -1.41733 0
M  V30 2936 H 272.868 -0.669966 0.330386 0
M  V30 2937 H 275.53 -1.318 1.43578 0
M  V30 2938 H 274.626 -2.83929 1.29578 0
M  V30 2939 N 274.927 -0.932562 -1.27047 0
M  V30 2940 C 275.89 -0.440064 -2.24936 0
M  V30 2941 C 276.89 0.444071 -1.54547 0
M  V30 2942 O 278.08 0.244465 -1.72476 0
M  V30 2943 C 275.212 0.36678 -3.38921 0
M  V30 2944 H 276.405 -1.305 -2.70018 0
M  V30 2945 H 273.958 -0.713707 -1.39054 0
M  V30 2946 H 274.693 1.25033 -2.99228 0
M  V30 2947 H 274.478 -0.267204 -3.91188 0
M  V30 2948 H 275.968 0.701567 -4.11665 0
M  V30 2949 N 276.405 1.4127 -0.698611 0
M  V30 2950 C 277.682 1.94955 -0.158762 0
M  V30 2951 C 278.062 1.63781 1.33188 0
M  V30 2952 O 277.41 0.946423 2.07979 0
M  V30 2953 C 277.62 3.46044 -0.453309 0
M  V30 2954 C 278.968 4.22872 -0.382707 0
M  V30 2955 O 279.992 3.54076 -0.388396 0
M  V30 2956 O 278.851 5.45407 -0.345463 0
M  V30 2957 H 275.945 0.82683 -0.0167505 0
M  V30 2958 H 278.491 1.50971 -0.77498 0
M  V30 2959 H 277.263 3.62028 -1.48498 0
M  V30 2960 H 276.886 3.97128 0.19373 0
M  V30 2961 N 277.883 0.443576 1.51229 0
M  V30 2962 C 278.815 -0.400608 2.25672 0
M  V30 2963 C 279.828 -0.980945 1.29928 0
M  V30 2964 O 281.017 -0.874024 1.55638 0
M  V30 2965 C 278.117 -1.57304 3.00181 0
M  V30 2966 C 277.29 -1.11046 4.23069 0
M  V30 2967 C 276.349 -2.15374 4.80105 0
M  V30 2968 O 275.375 -1.74554 5.41774 0
M  V30 2969 N 276.577 -3.47922 4.64683 0
M  V30 2970 H 279.342 0.23745 2.98758 0
M  V30 2971 H 276.903 0.272809 1.59585 0
M  V30 2972 H 278.895 -2.26733 3.35223 0
M  V30 2973 H 277.465 -2.11632 2.30066 0
M  V30 2974 H 276.685 -0.243019 3.9345 0
M  V30 2975 H 277.973 -0.778888 5.02803 0
M  V30 2976 H 277.371 -3.83815 4.15575 0
M  V30 2977 H 275.928 -4.13228 5.0407 0
M  V30 2978 N 279.361 -1.56624 0.175154 0
M  V30 2979 C 280.271 -2.21741 -0.766042 0
M  V30 2980 C 281.287 -1.21023 -1.25018 0
M  V30 2981 O 282.463 -1.53697 -1.3015 0
M  V30 2982 C 279.528 -2.84839 -1.97655 0
M  V30 2983 C 278.589 -4.00769 -1.53892 0
M  V30 2984 C 277.822 -4.60849 -2.69173 0
M  V30 2985 O 278.045 -4.19823 -3.86141 0
M  V30 2986 O 276.979 -5.50655 -2.43028 0
M  V30 2987 H 280.805 -3.02738 -0.241585 0
M  V30 2988 H 278.39 -1.49305 -0.053222 0
M  V30 2989 H 280.272 -3.24834 -2.68442 0
M  V30 2990 H 278.947 -2.06836 -2.48999 0
M  V30 2991 H 277.854 -3.65436 -0.80044 0
M  V30 2992 H 279.187 -4.80376 -1.07236 0
M  V30 2993 N 280.839 0.0985539 -1.57292 0
M  V30 2994 C 282.088 0.801358 -1.85098 0
M  V30 2995 C 282.401 1.80066 -0.763902 0
M  V30 2996 O 283.607 2.55112 -0.928981 0
M  V30 2997 C 282.063 1.47599 -3.28242 0
M  V30 2998 C 281.671 0.516624 -4.45011 0
M  V30 2999 C 283.415 2.16272 -3.65276 0
M  V30 3000 C 281.322 1.19564 -5.79188 0
M  V30 3001 H 280.252 0.303022 -0.69043 0
M  V30 3002 H 282.903 0.0542623 -1.8342 0
M  V30 3003 H 281.285 2.27042 -3.2445 0
M  V30 3004 H 282.459 -0.246065 -4.60143 0
M  V30 3005 H 280.774 -0.064227 -4.1635 0
M  V30 3006 H 283.371 2.67802 -4.62803 0
M  V30 3007 H 283.714 2.95009 -2.93727 0
M  V30 3008 H 284.247 1.43693 -3.70941 0
M  V30 3009 H 280.986 0.449157 -6.53959 0
M  V30 3010 H 280.506 1.92984 -5.67906 0
M  V30 3011 H 282.185 1.7231 -6.23633 0
M  V30 3012 N 282.317 1.53212 0.369288 0
M  V30 3013 C 283.542 1.73423 1.1375 0
M  V30 3014 C 283.967 0.460404 1.82378 0
M  V30 3015 O 283.325 -0.585298 1.71592 0
M  V30 3016 C 283.373 2.89769 2.1463 0
M  V30 3017 O 282.477 2.58119 3.21634 0
M  V30 3018 H 281.818 0.576061 0.330227 0
M  V30 3019 H 284.348 2.00083 0.427547 0
M  V30 3020 H 284.358 3.15829 2.58294 0
M  V30 3021 H 283.033 3.8217 1.64071 0
M  V30 3022 H 281.61 2.42864 2.82969 0
M  V30 3023 N 283.795 -0.628877 1.44509 0
M  V30 3024 C 285.044 -1.38437 1.4669 0
M  V30 3025 C 285.357 -1.95322 0.104272 0
M  V30 3026 O 286.563 -2.715 0.00362163 0
M  V30 3027 C 285.019 -2.50659 2.5826 0
M  V30 3028 C 284.627 -2.00277 4.0074 0
M  V30 3029 C 286.371 -3.27844 2.69664 0
M  V30 3030 C 284.278 -3.09854 5.0373 0
M  V30 3031 H 283.208 -0.520245 0.545766 0
M  V30 3032 H 285.859 -0.676313 1.70582 0
M  V30 3033 H 284.241 -3.2405 2.27612 0
M  V30 3034 H 285.415 -1.33736 4.40966 0
M  V30 3035 H 283.73 -1.35901 3.93599 0
M  V30 3036 H 286.327 -4.09534 3.43781 0
M  V30 3037 H 286.67 -3.77471 1.75559 0
M  V30 3038 H 287.203 -2.61543 2.99733 0
M  V30 3039 H 283.942 -2.65168 5.99472 0
M  V30 3040 H 283.462 -3.7503 4.68095 0
M  V30 3041 H 285.141 -3.74592 5.27532 0
M  V30 3042 N 285.273 -1.31445 -0.869486 0
M  V30 3043 C 286.513 -1.22458 -1.63656 0
M  V30 3044 C 286.877 0.213846 -1.90805 0
M  V30 3045 O 288.078 0.427212 -2.65383 0
M  V30 3046 C 286.349 -2.04564 -2.93067 0
M  V30 3047 S 287.908 -2.12445 -3.83944 0
M  V30 3048 H 284.726 -0.436145 -0.561514 0
M  V30 3049 H 287.328 -1.66114 -1.03085 0
M  V30 3050 H 286.032 -3.0816 -2.71045 0
M  V30 3051 H 285.563 -1.6163 -3.58663 0
M  V30 3052 H 287.578 -1.26312 -4.79854 0
M  V30 3053 N 286.751 1.08385 -1.14413 0
M  V30 3054 C 287.979 1.84517 -0.936001 0
M  V30 3055 C 288.394 1.81626 0.515503 0
M  V30 3056 O 287.751 1.22008 1.35721 0
M  V30 3057 C 287.802 3.32049 -1.42918 0
M  V30 3058 O 287.523 3.34951 -2.82381 0
M  V30 3059 C 289.024 4.24986 -1.26103 0
M  V30 3060 H 286.244 0.582491 -0.333084 0
M  V30 3061 H 288.788 1.36885 -1.5193 0
M  V30 3062 H 286.943 3.7707 -0.888641 0
M  V30 3063 H 287.357 4.27048 -3.04517 0
M  V30 3064 H 288.831 5.26615 -1.6547 0
M  V30 3065 H 289.308 4.38726 -0.20392 0
M  V30 3066 H 289.914 3.85791 -1.79012 0
M  V30 3067 N 288.23 0.939286 1.26551 0
M  V30 3068 C 289.16 0.465044 2.28822 0
M  V30 3069 C 290.141 -0.480692 1.63167 0
M  V30 3070 O 291.326 -0.382955 1.90387 0
M  V30 3071 C 288.456 -0.27234 3.46231 0
M  V30 3072 C 287.41 0.58666 4.2396 0
M  V30 3073 C 286.736 -0.280573 5.33963 0
M  V30 3074 C 288.036 1.85704 4.88171 0
M  V30 3075 H 289.73 1.31979 2.68741 0
M  V30 3076 H 287.276 0.636061 1.29191 0
M  V30 3077 H 289.229 -0.615133 4.16886 0
M  V30 3078 H 287.953 -1.16121 3.0526 0
M  V30 3079 H 286.612 0.91232 3.55067 0
M  V30 3080 H 286.26 -1.16874 4.89234 0
M  V30 3081 H 285.96 0.29076 5.8688 0
M  V30 3082 H 287.484 -0.618678 6.07458 0
M  V30 3083 H 288.898 1.58161 5.51052 0
M  V30 3084 H 287.295 2.37279 5.51197 0
M  V30 3085 H 288.365 2.56957 4.11219 0
M  V30 3086 N 289.708 -1.40897 0.706093 0
M  V30 3087 C 290.957 -2.00284 0.238574 0
M  V30 3088 C 291.27 -1.56604 -1.17194 0
M  V30 3089 O 292.476 -2.08624 -1.73748 0
M  V30 3090 C 290.932 -3.57934 0.375623 0
M  V30 3091 C 290.54 -4.10591 1.79217 0
M  V30 3092 C 292.284 -4.24488 -0.0315857 0
M  V30 3093 C 290.191 -5.60712 1.88032 0
M  V30 3094 H 289.121 -0.749144 0.0854398 0
M  V30 3095 H 291.772 -1.61251 0.875813 0
M  V30 3096 H 290.154 -3.94622 -0.330042 0
M  V30 3097 H 291.328 -3.85301 2.52745 0
M  V30 3098 H 289.643 -3.56601 2.15 0
M  V30 3099 H 292.24 -5.34698 0.0136842 0
M  V30 3100 H 292.583 -4.02261 -1.072 0
M  V30 3101 H 293.116 -3.92873 0.624181 0
M  V30 3102 H 289.855 -5.87781 2.90161 0
M  V30 3103 H 289.375 -5.87896 1.18903 0
M  V30 3104 H 291.054 -6.25658 1.64805 0
M  V30 3105 N 291.186 -0.45159 -1.50991 0
M  V30 3106 C 292.432 0.102439 -2.03142 0
M  V30 3107 C 292.787 1.39138 -1.32884 0
M  V30 3108 O 292.08 1.86493 -0.439438 0
M  V30 3109 C 292.274 0.361728 -3.55565 0
M  V30 3110 C 292.103 -0.900535 -4.40591 0
M  V30 3111 C 290.873 -1.43821 -4.844 0
M  V30 3112 C 293.071 -1.79063 -4.82121 0
M  V30 3113 N 291.053 -2.65153 -5.53685 0
M  V30 3114 C 292.424 -2.84991 -5.50618 0
M  V30 3115 C 294.479 -1.80334 -4.64095 0
M  V30 3116 C 293.182 -3.92155 -6.02998 0
M  V30 3117 C 295.208 -2.86442 -5.17402 0
M  V30 3118 C 294.57 -3.9109 -5.85857 0
M  V30 3119 H 290.669 -0.00204537 -0.781997 0
M  V30 3120 H 293.253 -0.615446 -1.84717 0
M  V30 3121 H 291.424 1.04865 -3.73976 0
M  V30 3122 H 293.156 0.908372 -3.94374 0
M  V30 3123 H 289.911 -0.990117 -4.63135 0
M  V30 3124 H 290.335 -3.26717 -5.92946 0
M  V30 3125 H 294.977 -1.00753 -4.1062 0
M  V30 3126 H 292.695 -4.72565 -6.55521 0
M  V30 3127 H 296.281 -2.88386 -5.05297 0
M  V30 3128 H 295.161 -4.71845 -6.26364 0
M  V30 3129 N 292.664 1.56529 -0.183458 0
M  V30 3130 C 294.075 1.83739 0.331177 0
M  V30 3131 C 294.426 1.10373 1.62211 0
M  V30 3132 O 293.551 0.36071 2.13373 0
M  V30 3133 C 294.146 3.33306 0.607646 0
M  V30 3134 C 292.705 3.60969 1.06668 0
M  V30 3135 C 291.852 2.77086 0.109029 0
M  V30 3136 H 294.803 1.53379 -0.407484 0
M  V30 3137 H 294.824 3.51444 1.45832 0
M  V30 3138 H 294.336 3.86677 -0.332086 0
M  V30 3139 H 292.437 3.13021 2.0211 0
M  V30 3140 H 292.55 4.69231 0.967447 0
M  V30 3141 H 290.914 2.47319 0.608714 0
M  V30 3142 H 291.697 3.33241 -0.82494 0
M  V30 3143 N 294.142 -0.090211 1.57342 0
M  V30 3144 C 295.37 -0.806224 1.90546 0
M  V30 3145 C 295.785 -1.72041 0.777644 0
M  V30 3146 O 295.142 -1.80778 -0.250103 0
M  V30 3147 C 295.193 -1.61546 3.23396 0
M  V30 3148 O 294.914 -0.738043 4.31839 0
M  V30 3149 C 296.415 -2.4341 3.70495 0
M  V30 3150 H 293.635 -0.230256 0.630257 0
M  V30 3151 H 296.179 -0.0659843 2.04394 0
M  V30 3152 H 294.334 -2.30816 3.11131 0
M  V30 3153 H 294.748 -1.29901 5.08159 0
M  V30 3154 H 296.222 -2.95676 4.66133 0
M  V30 3155 H 296.699 -3.22098 2.98579 0
M  V30 3156 H 297.305 -1.79331 3.85643 0
M  V30 3157 N 295.62 -1.53406 -0.361157 0
M  V30 3158 C 296.869 -1.69022 -1.10066 0
M  V30 3159 C 297.182 -0.450838 -1.90333 0
M  V30 3160 O 298.388 -0.487617 -2.67085 0
M  V30 3161 C 296.844 -2.98812 -2.00598 0
M  V30 3162 C 296.452 -4.30027 -1.25621 0
M  V30 3163 C 298.196 -3.23795 -2.74513 0
M  V30 3164 C 296.103 -5.50903 -2.1508 0
M  V30 3165 H 295.033 -0.629776 -0.414606 0
M  V30 3166 H 297.684 -1.79907 -0.361348 0
M  V30 3167 H 296.066 -2.8174 -2.78278 0
M  V30 3168 H 297.24 -4.57745 -0.529739 0
M  V30 3169 H 295.555 -4.11522 -0.635496 0
M  V30 3170 H 298.152 -4.11289 -3.41681 0
M  V30 3171 H 298.495 -2.40045 -3.40123 0
M  V30 3172 H 299.028 -3.41561 -2.03914 0
M  V30 3173 H 295.767 -6.37143 -1.54041 0
M  V30 3174 H 295.287 -5.27459 -2.85565 0
M  V30 3175 H 296.966 -5.85865 -2.74538 0
M  V30 3176 N 297.098 0.621204 -1.44841 0
M  V30 3177 C 298.509 1.20298 -1.42777 0
M  V30 3178 C 298.86 1.95639 -0.148259 0
M  V30 3179 O 297.985 2.02955 0.750892 0
M  V30 3180 C 298.58 2.1882 -2.58657 0
M  V30 3181 C 297.139 2.72403 -2.59756 0
M  V30 3182 C 296.286 1.4757 -2.34773 0
M  V30 3183 H 299.237 0.411297 -1.53278 0
M  V30 3184 H 299.258 3.01607 -2.31977 0
M  V30 3185 H 298.77 1.63957 -3.51766 0
M  V30 3186 H 296.871 3.31242 -1.70615 0
M  V30 3187 H 296.984 3.17765 -3.58556 0
M  V30 3188 H 295.348 1.76051 -1.8406 0
M  V30 3189 H 296.131 0.945954 -3.3001 0
M  V30 3190 N 298.576 1.31904 0.862503 0
M  V30 3191 C 299.824 1.21776 1.61292 0
M  V30 3192 C 300.145 -0.222413 1.93727 0
M  V30 3193 O 299.415 -1.1451 1.58947 0
M  V30 3194 H 297.995 0.447717 0.597962 0
M  V30 3195 H 300.657 1.65326 1.03215 0
M  V30 3196 H 299.753 1.7948 2.5533 0
M  V30 3197 N 300.054 -1.07777 1.14986 0
M  V30 3198 C 300.964 -2.18404 0.856546 0
M  V30 3199 C 301.98 -1.73211 -0.165485 0
M  V30 3200 O 303.156 -2.01399 0.00755219 0
M  V30 3201 C 300.221 -3.44977 0.34526 0
M  V30 3202 C 299.282 -4.0476 1.43065 0
M  V30 3203 C 298.515 -5.25291 0.943663 0
M  V30 3204 O 298.738 -5.70004 -0.212426 0
M  V30 3205 O 297.672 -5.76638 1.72547 0
M  V30 3206 H 301.498 -2.45978 1.78125 0
M  V30 3207 H 299.083 -1.17033 0.928631 0
M  V30 3208 H 300.965 -4.21348 0.0663671 0
M  V30 3209 H 299.64 -3.18965 -0.551631 0
M  V30 3210 H 298.547 -3.29949 1.76309 0
M  V30 3211 H 299.88 -4.35035 2.30229 0
M  V30 3212 N 301.532 -0.945985 -1.26051 0
M  V30 3213 C 302.781 -0.591836 -1.92822 0
M  V30 3214 C 303.094 0.873956 -1.7499 0
M  V30 3215 O 304.3 1.33769 -2.36259 0
M  V30 3216 C 302.756 -1.00776 -3.45503 0
M  V30 3217 C 302.364 -2.4955 -3.7206 0
M  V30 3218 C 304.108 -0.725735 -4.1825 0
M  V30 3219 C 302.015 -2.84988 -5.18205 0
M  V30 3220 H 300.945 -0.217635 -0.721908 0
M  V30 3221 H 303.596 -1.14927 -1.43052 0
M  V30 3222 H 301.978 -0.378812 -3.94184 0
M  V30 3223 H 303.152 -3.1739 -3.34066 0
M  V30 3224 H 301.467 -2.75133 -3.12555 0
M  V30 3225 H 304.064 -0.966771 -5.25887 0
M  V30 3226 H 304.407 0.337639 -4.14929 0
M  V30 3227 H 304.94 -1.31463 -3.7545 0
M  V30 3228 H 301.679 -3.90307 -5.26631 0
M  V30 3229 H 301.199 -2.21813 -5.57278 0
M  V30 3230 H 302.878 -2.73712 -5.86252 0
M  V30 3231 N 303.011 1.40521 -0.713556 0
M  V30 3232 C 304.236 2.05759 -0.26035 0
M  V30 3233 C 304.661 1.53403 1.08854 0
M  V30 3234 O 304.019 0.668535 1.68524 0
M  V30 3235 C 304.067 3.59745 -0.248122 0
M  V30 3236 O 303.171 4.05123 0.77131 0
M  V30 3237 H 302.512 0.652564 -0.122703 0
M  V30 3238 H 305.042 1.79958 -0.973467 0
M  V30 3239 H 305.052 4.07911 -0.0851129 0
M  V30 3240 H 303.727 3.97218 -1.2325 0
M  V30 3241 H 302.304 3.68422 0.57619 0
M  V30 3242 N 304.489 0.459591 1.5075 0
M  V30 3243 C 305.735 -0.091664 2.03193 0
M  V30 3244 C 306.09 -1.38432 1.3362 0
M  V30 3245 O 305.383 -1.86257 0.449322 0
M  V30 3246 C 305.577 -0.342866 3.55752 0
M  V30 3247 C 305.406 0.923888 4.40107 0
M  V30 3248 C 304.176 1.46388 4.83631 0
M  V30 3249 C 306.374 1.81617 4.81165 0
M  V30 3250 N 304.356 2.68086 5.52271 0
M  V30 3251 C 305.727 2.87907 5.49099 0
M  V30 3252 C 307.782 1.82793 4.63132 0
M  V30 3253 C 306.485 3.95347 6.0091 0
M  V30 3254 C 308.511 2.89182 5.15876 0
M  V30 3255 C 307.873 3.94191 5.83774 0
M  V30 3256 H 303.972 0.00619247 0.781975 0
M  V30 3257 H 306.556 0.625233 1.84388 0
M  V30 3258 H 304.727 -1.0288 3.74527 0
M  V30 3259 H 306.459 -0.887445 3.9485 0
M  V30 3260 H 303.214 1.01466 4.62603 0
M  V30 3261 H 303.638 3.29857 5.91205 0
M  V30 3262 H 308.28 1.0293 4.1008 0
M  V30 3263 H 305.998 4.76035 6.53006 0
M  V30 3264 H 309.584 2.91061 5.0376 0
M  V30 3265 H 308.464 4.75161 6.23853 0
M  V30 3266 N 305.967 -1.56429 0.191757 0
M  V30 3267 C 307.244 -1.89224 -0.495332 0
M  V30 3268 C 307.624 -1.10478 -1.79883 0
M  V30 3269 O 306.972 -0.204852 -2.2758 0
M  V30 3270 C 307.182 -3.41548 -0.717367 0
M  V30 3271 C 308.53 -4.11711 -1.03823 0
M  V30 3272 O 309.554 -3.4698 -0.805204 0
M  V30 3273 O 308.413 -5.2611 -1.47887 0
M  V30 3274 H 305.507 -0.785788 -0.25781 0
M  V30 3275 H 308.053 -1.68111 0.231721 0
M  V30 3276 H 306.825 -3.90772 0.203287 0
M  V30 3277 H 306.448 -3.68342 -1.497 0
M  V30 3278 N 307.445 0.0818655 -1.57387 0
M  V30 3279 C 308.691 0.784074 -1.8703 0
M  V30 3280 C 309.024 1.77729 -0.782689 0
M  V30 3281 O 308.299 1.93384 0.208051 0
M  V30 3282 C 308.582 1.50105 -3.27323 0
M  V30 3283 C 308.435 0.524925 -4.46727 0
M  V30 3284 C 309.754 2.44843 -3.65705 0
M  V30 3285 H 306.873 0.283582 -0.680257 0
M  V30 3286 H 309.515 0.0474352 -1.89941 0
M  V30 3287 H 307.665 2.12897 -3.24972 0
M  V30 3288 H 309.337 -0.0970111 -4.61198 0
M  V30 3289 H 307.58 -0.160606 -4.33503 0
M  V30 3290 H 308.251 1.064 -5.41648 0
M  V30 3291 H 310.727 1.92135 -3.69085 0
M  V30 3292 H 309.603 2.92018 -4.64776 0
M  V30 3293 H 309.864 3.29197 -2.95096 0
M  V30 3294 N 308.923 1.53595 0.353017 0
M  V30 3295 C 310.148 1.7462 1.11904 0
M  V30 3296 C 310.573 0.479721 1.8188 0
M  V30 3297 O 309.931 -0.567066 1.72204 0
M  V30 3298 C 309.979 2.92029 2.11545 0
M  V30 3299 O 309.083 2.61516 3.18878 0
M  V30 3300 H 308.424 0.579531 0.324099 0
M  V30 3301 H 310.954 2.00525 0.406301 0
M  V30 3302 H 310.964 3.18551 2.5493 0
M  V30 3303 H 309.639 3.83888 1.60008 0
M  V30 3304 H 308.216 2.45852 2.80377 0
M  V30 3305 N 310.401 -0.613514 1.45168 0
M  V30 3306 C 311.648 -1.37268 1.48875 0
M  V30 3307 C 311.976 -1.94077 0.128161 0
M  V30 3308 O 311.231 -1.75178 -0.872416 0
M  V30 3309 C 311.53 -2.54347 2.51083 0
M  V30 3310 C 311.196 -2.1572 3.95949 0
M  V30 3311 C 309.858 -2.04899 4.35396 0
M  V30 3312 C 312.21 -1.85485 4.87078 0
M  V30 3313 C 309.538 -1.62057 5.63875 0
M  V30 3314 C 311.89 -1.4413 6.15962 0
M  V30 3315 C 310.554 -1.31863 6.54346 0
M  V30 3316 H 309.824 -0.502299 0.544773 0
M  V30 3317 H 312.471 -0.694021 1.78481 0
M  V30 3318 H 310.776 -3.27524 2.15024 0
M  V30 3319 H 312.473 -3.12577 2.51191 0
M  V30 3320 H 309.063 -2.25066 3.64751 0
M  V30 3321 H 313.247 -1.92745 4.57343 0
M  V30 3322 H 308.503 -1.51177 5.92415 0
M  V30 3323 H 312.677 -1.19778 6.86022 0
M  V30 3324 H 310.304 -0.984392 7.538 0
M  V30 3325 N 311.879 -1.3236 -0.855495 0
M  V30 3326 C 313.125 -1.23054 -1.612 0
M  V30 3327 C 313.458 0.207404 -1.93089 0
M  V30 3328 O 312.733 1.14432 -1.57275 0
M  V30 3329 C 313.016 -2.08937 -2.93287 0
M  V30 3330 C 312.869 -3.61105 -2.68185 0
M  V30 3331 C 314.188 -1.94986 -3.94549 0
M  V30 3332 H 311.307 -0.448364 -0.584926 0
M  V30 3333 H 313.949 -1.62297 -0.987917 0
M  V30 3334 H 312.099 -1.75599 -3.46551 0
M  V30 3335 H 313.771 -4.04652 -2.21483 0
M  V30 3336 H 312.014 -3.83813 -2.02164 0
M  V30 3337 H 312.685 -4.16522 -3.62234 0
M  V30 3338 H 315.161 -2.24189 -3.5054 0
M  V30 3339 H 314.037 -2.57356 -4.84829 0
M  V30 3340 H 314.298 -0.917263 -4.3248 0
M  V30 3341 N 313.357 1.07166 -1.15556 0
M  V30 3342 C 314.585 1.83514 -0.955519 0
M  V30 3343 C 315 1.82163 0.49621 0
M  V30 3344 O 314.357 1.23441 1.34419 0
M  V30 3345 C 314.408 3.30515 -1.46432 0
M  V30 3346 O 314.129 3.31937 -2.85918 0
M  V30 3347 C 315.63 4.23625 -1.30603 0
M  V30 3348 H 312.85 0.578926 -0.339244 0
M  V30 3349 H 315.394 1.35265 -1.53374 0
M  V30 3350 H 313.549 3.76106 -0.928584 0
M  V30 3351 H 313.963 4.23794 -3.09029 0
M  V30 3352 H 315.437 5.24831 -1.71047 0
M  V30 3353 H 315.914 4.38485 -0.250441 0
M  V30 3354 H 316.52 3.83871 -1.83094 0
M  V30 3355 N 314.835 0.952656 1.25548 0
M  V30 3356 C 315.765 0.489287 2.28316 0
M  V30 3357 C 316.746 -0.463359 1.63667 0
M  V30 3358 O 317.931 -0.36274 1.90782 0
M  V30 3359 C 315.061 -0.235603 3.465 0
M  V30 3360 C 314.015 0.631593 4.23314 0
M  V30 3361 C 313.341 -0.223923 5.34231 0
M  V30 3362 C 314.641 1.90871 4.86174 0
M  V30 3363 H 316.335 1.34822 2.67326 0
M  V30 3364 H 313.881 0.649728 1.28509 0
M  V30 3365 H 315.834 -0.570882 4.17515 0
M  V30 3366 H 314.558 -1.12877 3.06474 0
M  V30 3367 H 313.217 0.949929 3.54079 0
M  V30 3368 H 312.865 -1.11678 4.90446 0
M  V30 3369 H 312.565 0.35299 5.86539 0
M  V30 3370 H 314.089 -0.554214 6.0808 0
M  V30 3371 H 315.503 1.63997 5.49343 0
M  V30 3372 H 313.9 2.43112 5.4865 0
M  V30 3373 H 314.97 2.61304 4.08471 0
M  V30 3374 N 316.313 -1.40141 0.720998 0
M  V30 3375 C 317.261 -2.3252 0.0608547 0
M  V30 3376 C 318.255 -1.52326 -0.741152 0
M  V30 3377 O 319.461 -1.68089 -0.643911 0
M  V30 3378 H 315.836 -0.751999 0.000876664 0
M  V30 3379 H 317.807 -2.8584 0.856614 0
M  V30 3380 C 316.556 -3.37331 -0.842809 0
M  V30 3381 H 315.879 -3.99108 -0.235084 0
M  V30 3382 H 317.319 -4.04452 -1.27257 0
M  V30 3383 C 315.778 -2.73246 -1.97074 0
M  V30 3384 O 316.308 -2.59998 -3.06209 0
M  V30 3385 N 314.514 -2.31547 -1.75597 0
M  V30 3386 H 314.061 -2.42522 -0.868368 0
M  V30 3387 H 314.019 -1.89007 -2.51244 0
M  V30 3388 N 317.792 -0.46758 -1.50504 0
M  V30 3389 C 319.039 0.0886219 -2.02306 0
M  V30 3390 C 319.367 1.40037 -1.34981 0
M  V30 3391 O 318.622 1.90136 -0.463318 0
M  V30 3392 C 318.921 0.323995 -3.55928 0
M  V30 3393 C 318.587 -0.905618 -4.41712 0
M  V30 3394 C 317.249 -1.24275 -4.64875 0
M  V30 3395 C 319.601 -1.72448 -4.91845 0
M  V30 3396 C 316.929 -2.39888 -5.35417 0
M  V30 3397 C 319.281 -2.87185 -5.63656 0
M  V30 3398 C 317.945 -3.21317 -5.85074 0
M  V30 3399 H 317.215 0.0324291 -0.74029 0
M  V30 3400 H 319.862 -0.620945 -1.81153 0
M  V30 3401 H 318.167 1.11577 -3.75577 0
M  V30 3402 H 319.864 0.76826 -3.93572 0
M  V30 3403 H 316.454 -0.632956 -4.239 0
M  V30 3404 H 320.638 -1.4772 -4.73806 0
M  V30 3405 H 315.894 -2.66611 -5.50208 0
M  V30 3406 H 320.068 -3.50985 -6.01484 0
M  V30 3407 H 317.695 -4.1101 -6.39511 0
M  V30 3408 N 319.27 1.56325 -0.20005 0
M  V30 3409 C 320.2 2.22318 0.713916 0
M  V30 3410 C 321.181 1.18788 1.21752 0
M  V30 3411 O 322.366 1.47309 1.26545 0
M  V30 3412 C 319.496 2.88639 1.93144 0
M  V30 3413 C 318.45 3.98457 1.56255 0
M  V30 3414 C 317.776 4.51967 2.85709 0
M  V30 3415 C 319.076 5.16612 0.768747 0
M  V30 3416 H 320.77 2.98952 0.163755 0
M  V30 3417 H 318.316 1.43792 0.0773219 0
M  V30 3418 H 320.269 3.33491 2.57608 0
M  V30 3419 H 318.993 2.09419 2.50621 0
M  V30 3420 H 317.652 3.54305 0.941471 0
M  V30 3421 H 317.3 3.69503 3.41287 0
M  V30 3422 H 317 5.26071 2.6177 0
M  V30 3423 H 318.524 4.99523 3.51154 0
M  V30 3424 H 319.938 5.57977 1.3166 0
M  V30 3425 H 318.335 5.96812 0.627286 0
M  V30 3426 H 319.405 4.84358 -0.229168 0
M  V30 3427 N 320.748 -0.0735177 1.57428 0
M  V30 3428 C 321.994 -0.774145 1.87443 0
M  V30 3429 C 322.327 -1.77311 0.792103 0
M  V30 3430 O 321.602 -1.93492 -0.197793 0
M  V30 3431 C 321.885 -1.48367 3.28115 0
M  V30 3432 C 321.738 -0.501227 4.46999 0
M  V30 3433 C 323.057 -2.429 3.66998 0
M  V30 3434 H 320.176 -0.279971 0.681752 0
M  V30 3435 H 322.818 -0.0373616 1.89963 0
M  V30 3436 H 320.968 -2.11171 3.26097 0
M  V30 3437 H 322.64 0.121468 4.6114 0
M  V30 3438 H 320.883 0.183593 4.33411 0
M  V30 3439 H 321.554 -1.03526 5.42205 0
M  V30 3440 H 324.03 -1.90175 3.70098 0
M  V30 3441 H 322.906 -2.89549 4.66318 0
M  V30 3442 H 323.167 -3.27628 2.96837 0
M  V30 3443 N 322.226 -1.5378 -0.344866 0
M  V30 3444 C 323.637 -1.62428 -0.920552 0
M  V30 3445 C 323.988 -0.504747 -1.89596 0
M  V30 3446 O 323.113 0.365711 -2.13287 0
M  V30 3447 C 323.708 -2.94419 -1.67639 0
M  V30 3448 C 322.267 -3.05333 -2.20111 0
M  V30 3449 C 321.414 -2.57866 -1.01982 0
M  V30 3450 H 324.365 -1.58222 -0.123042 0
M  V30 3451 H 324.386 -2.83384 -2.53917 0
M  V30 3452 H 323.898 -3.7588 -0.966224 0
M  V30 3453 H 321.999 -2.28502 -2.94308 0
M  V30 3454 H 322.112 -4.10778 -2.46573 0
M  V30 3455 H 320.476 -2.13241 -1.39285 0
M  V30 3456 H 321.259 -3.41765 -0.324308 0
M  V30 3457 N 323.704 0.605807 -1.45491 0
M  V30 3458 C 324.952 1.36207 -1.49305 0
M  V30 3459 C 325.273 1.94519 -0.136863 0
M  V30 3460 O 324.543 1.77261 0.833983 0
M  V30 3461 H 323.123 0.50565 -0.549843 0
M  V30 3462 H 325.785 0.711239 -1.81459 0
M  V30 3463 H 324.881 2.18058 -2.23287 0
M  V30 3464 N 325.182 1.32811 0.848464 0
M  V30 3465 C 326.112 1.24882 1.97299 0
M  V30 3466 C 327.093 0.131357 1.69592 0
M  V30 3467 O 328.278 0.319553 1.91553 0
M  V30 3468 C 325.408 0.97746 3.33261 0
M  V30 3469 C 324.362 2.05682 3.75338 0
M  V30 3470 C 323.688 1.63777 5.09 0
M  V30 3471 C 324.988 3.47254 3.90144 0
M  V30 3472 H 326.682 2.18966 2.04191 0
M  V30 3473 H 324.228 1.05413 0.981029 0
M  V30 3474 H 326.181 0.908513 4.1149 0
M  V30 3475 H 324.905 0.000980011 3.266 0
M  V30 3476 H 323.564 2.11603 2.99366 0
M  V30 3477 H 323.212 0.648569 4.98801 0
M  V30 3478 H 322.912 2.36 5.38124 0
M  V30 3479 H 324.436 1.5833 5.89715 0
M  V30 3480 H 325.85 3.43888 4.58709 0
M  V30 3481 H 324.247 4.1788 4.30693 0
M  V30 3482 H 325.317 3.86462 2.92874 0
M  V30 3483 N 326.66 -1.06551 1.16123 0
M  V30 3484 C 327.906 -1.79567 0.94252 0
M  V30 3485 C 328.239 -1.86869 -0.528547 0
M  V30 3486 O 327.514 -1.35838 -1.39206 0
M  V30 3487 C 327.797 -3.24195 1.56747 0
M  V30 3488 C 327.65 -3.24989 3.10969 0
M  V30 3489 C 328.969 -4.21678 1.25998 0
M  V30 3490 H 326.088 -0.651883 0.343828 0
M  V30 3491 H 328.73 -1.2463 1.43413 0
M  V30 3492 H 326.88 -3.71107 1.14942 0
M  V30 3493 H 328.552 -2.86258 3.61737 0
M  V30 3494 H 326.795 -2.63716 3.44436 0
M  V30 3495 H 327.466 -4.27005 3.49815 0
M  V30 3496 H 329.942 -3.83196 1.62174 0
M  V30 3497 H 328.818 -5.21146 1.7233 0
M  V30 3498 H 329.079 -4.4174 0.178367 0
M  V30 3499 N 328.138 -0.959301 -1.25041 0
M  V30 3500 C 329.387 -0.612254 -1.92183 0
M  V30 3501 C 329.7 0.855347 -1.75907 0
M  V30 3502 O 330.906 1.31256 -2.37664 0
M  V30 3503 C 329.362 -1.04435 -3.44414 0
M  V30 3504 C 328.97 -2.53482 -3.69393 0
M  V30 3505 C 330.714 -0.770055 -4.17457 0
M  V30 3506 C 328.621 -2.90468 -5.15153 0
M  V30 3507 H 327.551 -0.225279 -0.719559 0
M  V30 3508 H 330.202 -1.16438 -1.41825 0
M  V30 3509 H 328.584 -0.4206 -3.9376 0
M  V30 3510 H 329.758 -3.20916 -3.30681 0
M  V30 3511 H 328.073 -2.78432 -3.0962 0
M  V30 3512 H 330.67 -1.02249 -5.24832 0
M  V30 3513 H 331.013 0.293611 -4.15263 0
M  V30 3514 H 331.546 -1.35437 -3.74034 0
M  V30 3515 H 328.285 -3.95871 -5.22462 0
M  V30 3516 H 327.805 -2.27711 -5.54894 0
M  V30 3517 H 329.484 -2.79914 -5.83315 0
M  V30 3518 N 329.616 1.39756 -0.72842 0
M  V30 3519 C 330.862 2.00942 -0.273892 0
M  V30 3520 C 331.195 1.57656 1.13394 0
M  V30 3521 O 330.47 0.802434 1.77176 0
M  V30 3522 C 330.753 3.58211 -0.368346 0
M  V30 3523 C 330.606 4.11534 -1.81548 0
M  V30 3524 C 331.925 4.39372 0.253054 0
M  V30 3525 H 329.044 0.730047 -0.100996 0
M  V30 3526 H 331.686 1.66056 -0.923337 0
M  V30 3527 H 329.836 3.88061 0.184588 0
M  V30 3528 H 331.508 3.92431 -2.42478 0
M  V30 3529 H 329.751 3.65341 -2.33898 0
M  V30 3530 H 330.422 5.20682 -1.83288 0
M  V30 3531 H 332.898 4.15527 -0.218224 0
M  V30 3532 H 331.774 5.48677 0.156585 0
M  V30 3533 H 332.035 4.21358 1.33826 0
M  V30 3534 N 331.094 0.475555 1.50254 0
M  V30 3535 C 332.343 -0.0795996 2.01543 0
M  V30 3536 C 332.656 -1.4038 1.36209 0
M  V30 3537 O 333.862 -2.04415 1.7868 0
M  V30 3538 C 332.318 -0.192363 3.59386 0
M  V30 3539 C 331.926 1.12367 4.33679 0
M  V30 3540 C 333.67 -0.699238 4.18701 0
M  V30 3541 C 331.577 0.974453 5.83317 0
M  V30 3542 H 330.507 -0.0335228 0.753254 0
M  V30 3543 H 333.158 0.611128 1.73025 0
M  V30 3544 H 331.54 -0.946974 3.84511 0
M  V30 3545 H 332.714 1.88958 4.20276 0
M  V30 3546 H 331.029 1.562 3.85993 0
M  V30 3547 H 333.626 -0.827978 5.28251 0
M  V30 3548 H 333.969 -1.69171 3.80377 0
M  V30 3549 H 334.502 -0.00188807 3.978 0
M  V30 3550 H 331.241 1.94042 6.26121 0
M  V30 3551 H 330.761 0.248998 5.99283 0
M  V30 3552 H 332.44 0.642867 6.43798 0
M  V30 3553 N 332.573 -1.56217 0.208337 0
M  V30 3554 C 333.798 -2.02782 -0.435222 0
M  V30 3555 C 334.223 -1.08738 -1.53485 0
M  V30 3556 O 333.581 -0.0731855 -1.81152 0
M  V30 3557 C 333.629 -3.47687 -0.956335 0
M  V30 3558 O 332.733 -3.56773 -2.06849 0
M  V30 3559 H 332.074 -0.656403 -0.100158 0
M  V30 3560 H 334.604 -2.02033 0.3231 0
M  V30 3561 H 334.614 -3.87745 -1.26955 0
M  V30 3562 H 333.289 -4.15624 -0.15143 0
M  V30 3563 H 331.866 -3.28597 -1.76292 0
M  V30 3564 N 334.051 0.0651679 -1.57465 0
M  V30 3565 C 335.281 0.774683 -1.91526 0
M  V30 3566 C 335.689 1.71305 -0.803196 0
M  V30 3567 O 335.032 1.82231 0.231881 0
M  V30 3568 C 335.094 1.61645 -3.21109 0
M  V30 3569 C 334.758 0.846753 -4.49087 0
M  V30 3570 C 335.755 0.163024 -5.19644 0
M  V30 3571 C 333.44 0.811966 -4.95694 0
M  V30 3572 C 335.434 -0.54519 -6.35064 0
M  V30 3573 C 333.121 0.0999836 -6.11018 0
M  V30 3574 C 334.119 -0.577388 -6.80555 0
M  V30 3575 O 333.807 -1.27789 -7.93678 0
M  V30 3576 H 333.539 0.225031 -0.637446 0
M  V30 3577 H 336.093 0.0377134 -2.05365 0
M  V30 3578 H 334.323 2.39638 -3.03497 0
M  V30 3579 H 336.012 2.20525 -3.40769 0
M  V30 3580 H 336.778 0.181163 -4.84662 0
M  V30 3581 H 332.657 1.32867 -4.41438 0
M  V30 3582 H 336.201 -1.07446 -6.89276 0
M  V30 3583 H 332.098 0.0797945 -6.45451 0
M  V30 3584 H 332.866 -1.18784 -8.09835 0
M  V30 3585 N 335.529 1.53961 0.336706 0
M  V30 3586 C 336.754 1.75797 1.10046 0
M  V30 3587 C 337.179 0.498985 1.81361 0
M  V30 3588 O 336.537 -0.548769 1.72795 0
M  V30 3589 C 336.585 2.94257 2.08436 0
M  V30 3590 O 335.689 2.64883 3.16087 0
M  V30 3591 H 335.03 0.582936 0.317934 0
M  V30 3592 H 337.56 2.00945 0.38501 0
M  V30 3593 H 337.57 3.21237 2.51537 0
M  V30 3594 H 336.245 3.85564 1.55927 0
M  V30 3595 H 334.822 2.48812 2.77753 0
M  V30 3596 N 337.007 -0.598083 1.45811 0
M  V30 3597 C 337.954 -1.7082 1.55207 0
M  V30 3598 C 338.924 -1.61278 0.39732 0
M  V30 3599 O 340.109 -1.80717 0.612038 0
M  V30 3600 C 337.249 -3.09144 1.53376 0
M  V30 3601 C 336.362 -3.29423 2.79472 0
M  V30 3602 C 335.497 -4.57907 2.69248 0
M  V30 3603 C 334.536 -4.71476 3.90354 0
M  V30 3604 N 333.673 -5.9127 3.78608 0
M  V30 3605 H 338.513 -1.62125 2.50039 0
M  V30 3606 H 336.05 -0.790389 1.24062 0
M  V30 3607 H 338.008 -3.89186 1.50301 0
M  V30 3608 H 336.638 -3.16773 0.620876 0
M  V30 3609 H 335.69 -2.43091 2.92594 0
M  V30 3610 H 337.002 -3.3532 3.69272 0
M  V30 3611 H 336.156 -5.46157 2.64192 0
M  V30 3612 H 334.895 -4.54423 1.77063 0
M  V30 3613 H 333.9 -3.81648 3.95759 0
M  V30 3614 H 335.125 -4.76751 4.83617 0
M  V30 3615 H 333.071 -5.88813 2.89199 0
M  V30 3616 H 332.988 -5.98369 4.6205 0
M  V30 3617 H 334.256 -6.81992 3.77501 0
M  V30 3618 N 338.485 -1.33259 -0.841409 0
M  V30 3619 C 339.734 -1.23921 -1.59143 0
M  V30 3620 C 340.047 0.1941 -1.94635 0
M  V30 3621 O 341.253 0.409474 -2.68394 0
M  V30 3622 C 339.709 -2.17119 -2.87032 0
M  V30 3623 C 339.317 -3.65606 -2.58914 0
M  V30 3624 C 341.061 -2.16648 -3.65053 0
M  V30 3625 C 338.968 -4.50726 -3.82884 0
M  V30 3626 H 337.898 -0.460264 -0.597221 0
M  V30 3627 H 340.549 -1.58307 -0.927959 0
M  V30 3628 H 338.931 -1.75663 -3.54906 0
M  V30 3629 H 340.105 -4.15487 -1.99267 0
M  V30 3630 H 338.42 -3.68341 -1.942 0
M  V30 3631 H 341.017 -2.77474 -4.57069 0
M  V30 3632 H 341.36 -1.16088 -3.99787 0
M  V30 3633 H 341.893 -2.56453 -3.041 0
M  V30 3634 H 338.632 -5.52151 -3.53283 0
M  V30 3635 H 338.152 -4.0559 -4.41879 0
M  V30 3636 H 339.831 -4.64401 -4.50489 0
M  V30 3637 N 339.963 1.05934 -1.16686 0
M  V30 3638 C 340.893 2.1546 -0.899949 0
M  V30 3639 C 341.874 1.69391 0.155154 0
M  V30 3640 O 343.059 1.94199 0.00648693 0
M  V30 3641 C 340.189 3.44939 -0.404241 0
M  V30 3642 C 339.143 4.04536 -1.39767 0
M  V30 3643 C 338.469 5.29268 -0.760216 0
M  V30 3644 C 339.769 4.42893 -2.76845 0
M  V30 3645 H 341.463 2.38046 -1.81588 0
M  V30 3646 H 339.009 1.14404 -0.874514 0
M  V30 3647 H 340.962 4.20901 -0.204971 0
M  V30 3648 H 339.686 3.21983 0.547206 0
M  V30 3649 H 338.345 3.30635 -1.58355 0
M  V30 3650 H 337.993 5.02611 0.197831 0
M  V30 3651 H 337.693 5.70101 -1.42332 0
M  V30 3652 H 339.217 6.07924 -0.57105 0
M  V30 3653 H 340.631 5.09921 -2.62019 0
M  V30 3654 H 339.028 4.94721 -3.39663 0
M  V30 3655 H 340.098 3.53584 -3.31823 0
M  V30 3656 N 341.441 0.965919 1.2453 0
M  V30 3657 C 342.373 0.452465 2.2469 0
M  V30 3658 C 343.386 -0.437821 1.56802 0
M  V30 3659 O 344.575 -0.244283 1.76821 0
M  V30 3660 C 341.675 -0.366258 3.36915 0
M  V30 3661 C 340.848 0.513701 4.34373 0
M  V30 3662 C 339.907 -0.248716 5.25612 0
M  V30 3663 O 338.933 0.356745 5.68081 0
M  V30 3664 N 340.135 -1.53877 5.59734 0
M  V30 3665 H 342.9 1.31361 2.69378 0
M  V30 3666 H 340.461 0.837541 1.38553 0
M  V30 3667 H 342.453 -0.884297 3.94921 0
M  V30 3668 H 341.023 -1.12832 2.91526 0
M  V30 3669 H 340.243 1.21273 3.75082 0
M  V30 3670 H 341.531 1.11391 4.96457 0
M  V30 3671 H 340.929 -2.05243 5.27154 0
M  V30 3672 H 339.486 -2.00254 6.20275 0
M  V30 3673 N 342.919 -1.39368 0.735821 0
M  V30 3674 C 344.147 -2.04795 0.294393 0
M  V30 3675 C 344.562 -1.55478 -1.07107 0
M  V30 3676 O 343.919 -0.720038 -1.67695 0
M  V30 3677 C 343.97 -3.6035 0.288071 0
M  V30 3678 O 343.691 -4.07852 1.59963 0
M  V30 3679 C 345.192 -4.42976 -0.169422 0
M  V30 3680 H 342.412 -0.658571 0.128551 0
M  V30 3681 H 344.956 -1.78399 0.999701 0
M  V30 3682 H 343.111 -3.85645 -0.368355 0
M  V30 3683 H 343.525 -5.02181 1.51375 0
M  V30 3684 H 344.999 -5.51864 -0.122687 0
M  V30 3685 H 345.476 -4.22068 -1.21472 0
M  V30 3686 H 346.082 -4.22832 0.457469 0
M  V30 3687 N 344.397 -0.483516 -1.5 0
M  V30 3688 C 345.622 0.0667119 -2.07293 0
M  V30 3689 C 346.047 1.3164 -1.3436 0
M  V30 3690 O 345.405 1.76945 -0.394987 0
M  V30 3691 C 345.453 0.321126 -3.59167 0
M  V30 3692 O 344.557 1.39927 -3.87936 0
M  V30 3693 H 343.898 -0.0184758 -0.663743 0
M  V30 3694 H 346.428 -0.678125 -1.93035 0
M  V30 3695 H 346.438 0.557906 -4.04168 0
M  V30 3696 H 345.113 -0.592007 -4.11665 0
M  V30 3697 H 343.69 1.14882 -3.54763 0
M  V30 3698 N 345.875 1.56104 -0.216619 0
M  V30 3699 C 346.785 2.23694 0.706982 0
M  V30 3700 C 347.801 1.24295 1.21765 0
M  V30 3701 O 348.977 1.57094 1.2603 0
M  V30 3702 C 346.042 2.8998 1.90033 0
M  V30 3703 C 345.103 4.04708 1.43213 0
M  V30 3704 C 344.336 4.67824 2.56859 0
M  V30 3705 O 344.559 4.29913 3.74874 0
M  V30 3706 O 343.493 5.56905 2.28343 0
M  V30 3707 H 347.319 3.03272 0.161235 0
M  V30 3708 H 344.904 1.49394 0.0136177 0
M  V30 3709 H 346.786 3.31837 2.59735 0
M  V30 3710 H 345.461 2.13365 2.43428 0
M  V30 3711 H 344.368 3.6743 0.70327 0
M  V30 3712 H 345.701 4.83051 0.944615 0
M  V30 3713 N 347.353 -0.0568162 1.57498 0
M  V30 3714 C 348.303 -1.07315 2.01166 0
M  V30 3715 C 349.287 -1.33632 0.896171 0
M  V30 3716 O 350.479 -1.33682 1.16009 0
M  V30 3717 C 347.608 -2.38257 2.47161 0
M  V30 3718 C 346.694 -2.1515 3.65474 0
M  V30 3719 N 347.085 -1.62014 4.7915 0
M  V30 3720 C 345.383 -2.45559 3.72313 0
M  V30 3721 C 346.084 -1.54069 5.60926 0
M  V30 3722 N 345.06 -2.00652 5.05213 0
M  V30 3723 H 348.862 -0.655878 2.86488 0
M  V30 3724 H 346.376 -0.263635 1.60246 0
M  V30 3725 H 348.373 -3.11845 2.76691 0
M  V30 3726 H 347.033 -2.80687 1.63232 0
M  V30 3727 H 348.044 -1.30667 5.01145 0
M  V30 3728 H 344.721 -2.91253 2.99129 0
M  V30 3729 H 346.111 -1.13712 6.62208 0
M  V30 3730 N 348.832 -1.54138 -0.328536 0
M  V30 3731 C 349.762 -1.86167 -1.40939 0
M  V30 3732 C 350.743 -0.718044 -1.54202 0
M  V30 3733 O 351.928 -0.971328 -1.68163 0
M  V30 3734 C 349.058 -2.08461 -2.77779 0
M  V30 3735 C 348.012 -3.24299 -2.7931 0
M  V30 3736 C 347.338 -3.31955 -4.19178 0
M  V30 3737 C 348.638 -4.62065 -2.43502 0
M  V30 3738 H 350.332 -2.76689 -1.14383 0
M  V30 3739 H 347.878 -1.33132 -0.548806 0
M  V30 3740 H 349.831 -2.29453 -3.53454 0
M  V30 3741 H 348.555 -1.14684 -3.05802 0
M  V30 3742 H 347.214 -3.03187 -2.0609 0
M  V30 3743 H 346.862 -2.35745 -4.44335 0
M  V30 3744 H 346.562 -4.09805 -4.2111 0
M  V30 3745 H 348.086 -3.55175 -4.96672 0
M  V30 3746 H 349.5 -4.8297 -3.08889 0
M  V30 3747 H 347.897 -5.42429 -2.56693 0
M  V30 3748 H 348.967 -4.64652 -1.38659 0
M  V30 3749 N 350.31 0.590341 -1.46126 0
M  V30 3750 C 351.24 1.71032 -1.58966 0
M  V30 3751 C 352.221 1.64302 -0.440335 0
M  V30 3752 O 353.406 1.82436 -0.665634 0
M  V30 3753 C 350.536 3.09665 -1.57241 0
M  V30 3754 C 349.49 3.31221 -2.71066 0
M  V30 3755 C 348.816 4.70303 -2.54399 0
M  V30 3756 C 350.116 3.19796 -4.1295 0
M  V30 3757 H 351.81 1.60543 -2.52718 0
M  V30 3758 H 349.356 0.770933 -1.21625 0
M  V30 3759 H 351.309 3.87831 -1.64819 0
M  V30 3760 H 350.033 3.21036 -0.600289 0
M  V30 3761 H 348.692 2.55452 -2.62944 0
M  V30 3762 H 348.34 4.78429 -1.55288 0
M  V30 3763 H 348.04 4.85679 -3.30741 0
M  V30 3764 H 349.564 5.50647 -2.63857 0
M  V30 3765 H 350.978 3.87815 -4.22223 0
M  V30 3766 H 349.375 3.46696 -4.89818 0
M  V30 3767 H 350.445 2.16983 -4.33643 0
M  V30 3768 N 351.788 1.33704 0.83433 0
M  V30 3769 C 353.065 1.16011 1.57483 0
M  V30 3770 C 353.445 -0.27176 2.09343 0
M  V30 3771 O 352.793 -1.27146 1.89858 0
M  V30 3772 C 353.003 2.20507 2.70514 0
M  V30 3773 C 354.351 2.54898 3.39577 0
M  V30 3774 O 355.375 2.19209 2.80759 0
M  V30 3775 O 354.234 3.16158 4.45765 0
M  V30 3776 H 351.328 0.448992 0.694503 0
M  V30 3777 H 353.874 1.453 0.876691 0
M  V30 3778 H 352.646 3.16667 2.29865 0
M  V30 3779 H 352.269 1.92329 3.47987 0
M  V30 3780 N 353.266 -1.05314 1.17247 0
M  V30 3781 C 354.229 -2.112 0.890357 0
M  V30 3782 C 355.229 -1.60359 -0.118943 0
M  V30 3783 O 356.419 -1.73833 0.113086 0
M  V30 3784 C 353.551 -3.39266 0.333422 0
M  V30 3785 H 354.744 -2.37659 1.82916 0
M  V30 3786 H 352.297 -1.21538 0.982758 0
M  V30 3787 H 353.032 -3.18462 -0.612587 0
M  V30 3788 H 352.817 -3.77477 1.06082 0
M  V30 3789 H 354.307 -4.17315 0.154322 0
M  V30 3790 N 354.744 -0.972509 -1.24016 0
M  V30 3791 C 356.16 -0.679827 -1.44397 0
M  V30 3792 C 356.36 0.756716 -1.86751 0
M  V30 3793 O 355.416 1.53007 -2.00861 0
M  V30 3794 C 356.729 -1.66803 -2.50195 0
M  V30 3795 C 358.277 -1.68119 -2.64017 0
M  V30 3796 C 358.752 -2.65748 -3.73017 0
M  V30 3797 N 360.243 -2.64219 -3.8045 0
M  V30 3798 C 360.978 -3.36433 -4.64328 0
M  V30 3799 N 360.474 -4.1818 -5.52356 0
M  V30 3800 N 362.267 -3.25235 -4.58453 0
M  V30 3801 H 354.418 -1.90059 -0.948228 0
M  V30 3802 H 356.681 -0.818527 -0.478245 0
M  V30 3803 H 356.387 -2.69498 -2.25973 0
M  V30 3804 H 356.261 -1.4446 -3.48441 0
M  V30 3805 H 358.648 -0.661319 -2.87594 0
M  V30 3806 H 358.729 -1.94525 -1.66113 0
M  V30 3807 H 358.373 -3.67872 -3.50189 0
M  V30 3808 H 358.303 -2.36619 -4.70446 0
M  V30 3809 H 360.794 -2.04887 -3.17537 0
M  V30 3810 H 361.107 -4.70157 -6.13329 0
M  V30 3811 H 359.452 -4.22273 -5.52006 0
M  V30 3812 H 362.643 -2.60829 -3.88698 0
M  V30 3813 H 362.816 -3.81776 -5.23594 0
M  V30 3814 N 356.222 1.38976 -0.743202 0
M  V30 3815 C 357.185 2.28901 -0.117014 0
M  V30 3816 C 358.185 1.46698 0.658503 0
M  V30 3817 O 359.375 1.67274 0.486305 0
M  V30 3818 C 356.507 3.30309 0.84315 0
M  V30 3819 H 357.7 2.8578 -0.909373 0
M  V30 3820 H 355.253 1.47761 -0.509547 0
M  V30 3821 H 355.988 2.785 1.66157 0
M  V30 3822 H 355.773 3.91029 0.289594 0
M  V30 3823 H 357.263 3.97577 1.2776 0
M  V30 3824 N 357.7 0.491464 1.49741 0
M  V30 3825 C 358.946 -0.0565092 2.02721 0
M  V30 3826 C 359.279 -1.37522 1.37118 0
M  V30 3827 O 358.554 -1.87866 0.503645 0
M  V30 3828 C 358.837 -0.219051 3.59433 0
M  V30 3829 C 358.69 1.12211 4.35579 0
M  V30 3830 C 360.009 -0.964157 4.29409 0
M  V30 3831 H 357.128 -0.0190627 0.736753 0
M  V30 3832 H 359.77 0.641021 1.7886 0
M  V30 3833 H 357.92 -0.813165 3.79895 0
M  V30 3834 H 359.592 1.75437 4.26637 0
M  V30 3835 H 357.835 1.71377 3.98513 0
M  V30 3836 H 358.506 0.961794 5.43556 0
M  V30 3837 H 360.982 -0.460378 4.13545 0
M  V30 3838 H 359.858 -1.04671 5.38828 0
M  V30 3839 H 360.119 -2.00563 3.93988 0
M  V30 3840 N 359.178 -1.55987 0.224894 0
M  V30 3841 C 360.424 -1.98684 -0.406502 0
M  V30 3842 C 360.757 -1.11248 -1.59177 0
M  V30 3843 O 360.032 -0.170909 -1.93748 0
M  V30 3844 C 360.315 -3.50218 -0.837808 0
M  V30 3845 C 360.168 -4.48426 0.351332 0
M  V30 3846 C 361.487 -4.06243 -1.69278 0
M  V30 3847 H 358.606 -0.722337 -0.146283 0
M  V30 3848 H 361.248 -1.87255 0.321799 0
M  V30 3849 H 359.398 -3.60089 -1.45837 0
M  V30 3850 H 361.07 -4.50562 0.989526 0
M  V30 3851 H 359.313 -4.22159 0.998207 0
M  V30 3852 H 359.984 -5.52 0.00655905 0
M  V30 3853 H 362.46 -3.99337 -1.16914 0
M  V30 3854 H 361.336 -5.12581 -1.96346 0
M  V30 3855 H 361.597 -3.53332 -2.65723 0
M  V30 3856 N 360.656 0.0484629 -1.57525 0
M  V30 3857 C 361.884 0.755421 -1.92616 0
M  V30 3858 C 362.299 1.69919 -0.822984 0
M  V30 3859 O 361.656 1.81378 0.202085 0
M  V30 3860 C 361.707 1.52915 -3.27566 0
M  V30 3861 O 361.428 0.62329 -4.33644 0
M  V30 3862 C 362.929 2.33502 -3.76818 0
M  V30 3863 H 360.149 0.213465 -0.63614 0
M  V30 3864 H 362.693 0.0117698 -2.04497 0
M  V30 3865 H 360.848 2.22486 -3.17142 0
M  V30 3866 H 361.262 1.16383 -5.11425 0
M  V30 3867 H 362.736 2.83214 -4.73808 0
M  V30 3868 H 363.213 3.14068 -3.07014 0
M  V30 3869 H 363.819 1.69043 -3.90262 0
M  V30 3870 N 362.134 1.5431 0.320358 0
M  V30 3871 C 363.084 1.803 1.39556 0
M  V30 3872 C 364.068 0.659166 1.46778 0
M  V30 3873 O 365.26 0.91926 1.51257 0
M  V30 3874 C 362.389 2.03665 2.76361 0
M  V30 3875 C 361.475 3.24178 2.73439 0
M  V30 3876 N 361.866 4.4516 2.40137 0
M  V30 3877 C 360.164 3.25816 3.04565 0
M  V30 3878 C 360.865 5.27109 2.4603 0
M  V30 3879 N 359.841 4.64368 2.82601 0
M  V30 3880 H 363.643 2.71416 1.12742 0
M  V30 3881 H 361.157 1.53548 0.528856 0
M  V30 3882 H 363.154 2.20425 3.53862 0
M  V30 3883 H 361.814 1.13805 3.04103 0
M  V30 3884 H 362.825 4.72104 2.12927 0
M  V30 3885 H 359.502 2.46001 3.37328 0
M  V30 3886 H 360.892 6.33728 2.23246 0
M  V30 3887 N 363.613 -0.582584 1.46437 0
M  V30 3888 C 364.838 -1.37168 1.55563 0
M  V30 3889 C 365.263 -1.87061 0.19743 0
M  V30 3890 O 364.621 -1.61572 -0.822451 0
M  V30 3891 C 364.669 -2.53511 2.56446 0
M  V30 3892 O 363.773 -3.54953 2.09958 0
M  V30 3893 H 363.114 -0.408494 0.523477 0
M  V30 3894 H 365.644 -0.706646 1.9201 0
M  V30 3895 H 365.654 -3.00426 2.76058 0
M  V30 3896 H 364.329 -2.16549 3.55076 0
M  V30 3897 H 362.906 -3.14516 2.00334 0
M  V30 3898 N 365.091 -1.34144 -0.827227 0
M  V30 3899 C 366.001 -1.27428 -1.96975 0
M  V30 3900 C 367.017 -0.182728 -1.73038 0
M  V30 3901 O 368.193 -0.408426 -1.97215 0
M  V30 3902 C 365.258 -1.02526 -3.31194 0
M  V30 3903 C 364.319 -2.20796 -3.68168 0
M  V30 3904 C 363.552 -1.97073 -4.95982 0
M  V30 3905 O 363.775 -0.926822 -5.6282 0
M  V30 3906 O 362.709 -2.83912 -5.30733 0
M  V30 3907 H 366.535 -2.23537 -2.05584 0
M  V30 3908 H 364.12 -1.14307 -0.961989 0
M  V30 3909 H 366.002 -0.904026 -4.11589 0
M  V30 3910 H 364.677 -0.0945389 -3.23562 0
M  V30 3911 H 363.584 -2.38477 -2.88235 0
M  V30 3912 H 364.917 -3.12243 -3.8048 0
M  V30 3913 N 366.569 1.04691 -1.17803 0
M  V30 3914 C 367.818 1.77176 -0.963931 0
M  V30 3915 C 368.131 1.88888 0.508015 0
M  V30 3916 O 369.337 2.58164 0.840465 0
M  V30 3917 C 367.793 3.18518 -1.67555 0
M  V30 3918 C 367.401 3.14919 -3.18637 0
M  V30 3919 C 369.145 3.95424 -1.54402 0
M  V30 3920 C 367.052 4.51081 -3.82466 0
M  V30 3921 H 365.982 0.664116 -0.357023 0
M  V30 3922 H 368.633 1.17303 -1.4111 0
M  V30 3923 H 367.015 3.78748 -1.15613 0
M  V30 3924 H 368.189 2.64178 -3.77554 0
M  V30 3925 H 366.504 2.51512 -3.31859 0
M  V30 3926 H 369.101 4.96106 -1.99456 0
M  V30 3927 H 369.444 4.13343 -0.495329 0
M  V30 3928 H 369.977 3.41754 -2.0359 0
M  V30 3929 H 366.716 4.38368 -4.87354 0
M  V30 3930 H 366.236 5.01951 -3.28337 0
M  V30 3931 H 367.915 5.2001 -3.84965 0
M  V30 3932 N 368.047 0.979072 1.23499 0
M  V30 3933 C 369.275 0.665202 1.95915 0
M  V30 3934 C 369.69 -0.767571 1.72493 0
M  V30 3935 O 369.047 -1.51635 1.01554 0
M  V30 3936 C 369.098 0.944438 3.48945 0
M  V30 3937 O 368.819 2.3209 3.71572 0
M  V30 3938 C 370.32 0.646336 4.38563 0
M  V30 3939 H 367.54 0.247218 0.623798 0
M  V30 3940 H 370.084 1.31009 1.57025 0
M  V30 3941 H 368.239 0.345575 3.85856 0
M  V30 3942 H 368.653 2.40957 4.65876 0
M  V30 3943 H 370.127 0.892091 5.44744 0
M  V30 3944 H 370.604 -0.419575 4.37191 0
M  V30 3945 H 371.21 1.22562 4.07258 0
M  V30 3946 N 369.525 -1.3858 0.750561 0
M  V30 3947 C 370.472 -2.30483 0.120835 0
M  V30 3948 C 371.442 -1.50022 -0.712923 0
M  V30 3949 O 372.627 -1.78662 -0.669676 0
M  V30 3950 C 369.767 -3.36431 -0.768666 0
M  V30 3951 C 368.88 -4.31927 0.0793922 0
M  V30 3952 C 368.015 -5.24944 -0.81283 0
M  V30 3953 C 367.054 -6.12088 0.0390447 0
M  V30 3954 N 366.191 -6.97412 -0.809969 0
M  V30 3955 H 371.031 -2.83761 0.91015 0
M  V30 3956 H 368.568 -1.39707 0.460463 0
M  V30 3957 H 370.526 -3.96462 -1.29898 0
M  V30 3958 H 369.156 -2.8457 -1.5238 0
M  V30 3959 H 368.208 -3.73382 0.727303 0
M  V30 3960 H 369.52 -4.93319 0.737401 0
M  V30 3961 H 368.674 -5.90078 -1.41042 0
M  V30 3962 H 367.413 -4.63911 -1.50458 0
M  V30 3963 H 366.418 -5.45952 0.649328 0
M  V30 3964 H 367.643 -6.75189 0.727809 0
M  V30 3965 H 365.589 -6.38931 -1.48672 0
M  V30 3966 H 365.506 -7.55712 -0.208789 0
M  V30 3967 H 366.774 -7.66959 -1.39263 0
M  V30 3968 N 371.003 -0.499398 -1.49478 0
M  V30 3969 C 371.966 0.268838 -2.27618 0
M  V30 3970 C 372.966 0.895383 -1.33565 0
M  V30 3971 O 374.156 0.760164 -1.56739 0
M  V30 3972 C 371.288 1.38559 -3.11471 0
M  V30 3973 H 372.481 -0.416812 -2.96989 0
M  V30 3974 H 370.034 -0.254313 -1.54217 0
M  V30 3975 H 370.769 2.10544 -2.46661 0
M  V30 3976 H 370.554 0.941797 -3.80621 0
M  V30 3977 H 372.044 1.92678 -3.70493 0
M  V30 3978 N 372.481 1.55866 -0.233164 0
M  V30 3979 C 373.706 2.03449 0.402906 0
M  V30 3980 C 374.131 1.11166 1.51736 0
M  V30 3981 O 373.489 0.101996 1.81013 0
M  V30 3982 C 373.537 3.49165 0.9009 0
M  V30 3983 O 372.641 3.60019 2.01147 0
M  V30 3984 H 371.982 0.657913 0.0897025 0
M  V30 3985 H 374.512 2.01493 -0.355201 0
M  V30 3986 H 374.522 3.89716 1.2077 0
M  V30 3987 H 373.197 4.15813 0.0852889 0
M  V30 3988 H 371.774 3.3136 1.71042 0
M  V30 3989 N 373.959 -0.0401083 1.57549 0
M  V30 3990 C 375.375 -0.395556 1.54621 0
M  V30 3991 C 375.575 -1.77281 0.957799 0
M  V30 3992 O 374.631 -2.45888 0.574031 0
M  V30 3993 C 375.944 -0.307535 2.99123 0
M  V30 3994 C 377.492 -0.385425 3.10618 0
M  V30 3995 C 377.967 -0.326973 4.56831 0
M  V30 3996 N 379.458 -0.386102 4.61588 0
M  V30 3997 C 380.193 -0.363591 5.72246 0
M  V30 3998 N 379.689 -0.29402 6.92176 0
M  V30 3999 N 381.482 -0.412503 5.60584 0
M  V30 4000 H 373.633 0.861325 1.94152 0
M  V30 4001 H 375.896 0.326445 0.890021 0
M  V30 4002 H 375.602 0.638461 3.45856 0
M  V30 4003 H 375.476 -1.10552 3.60636 0
M  V30 4004 H 377.863 -1.32185 2.63839 0
M  V30 4005 H 377.944 0.44171 2.51957 0
M  V30 4006 H 377.588 0.605738 5.04275 0
M  V30 4007 H 377.518 -1.17207 5.13391 0
M  V30 4008 H 380.009 -0.442832 3.75296 0
M  V30 4009 H 380.322 -0.28164 7.72287 0
M  V30 4010 H 378.667 -0.260232 6.94513 0
M  V30 4011 H 381.858 -0.464769 4.65787 0
M  V30 4012 H 382.031 -0.391492 6.46816 0
M  V30 4013 N 375.437 -1.54477 -0.31217 0
M  V30 4014 C 376.384 -1.84655 -1.38461 0
M  V30 4015 C 377.354 -0.694536 -1.50882 0
M  V30 4016 O 378.539 -0.942081 -1.6592 0
M  V30 4017 C 375.679 -2.0896 -2.74645 0
M  V30 4018 C 374.792 -3.36618 -2.70763 0
M  V30 4019 C 373.927 -3.50824 -3.98868 0
M  V30 4020 C 372.966 -4.72315 -3.89339 0
M  V30 4021 N 372.103 -4.83387 -5.09197 0
M  V30 4022 H 376.943 -2.76142 -1.12026 0
M  V30 4023 H 374.48 -1.36748 -0.542065 0
M  V30 4024 H 376.438 -2.21045 -3.53829 0
M  V30 4025 H 375.068 -1.20752 -2.99364 0
M  V30 4026 H 374.12 -3.33211 -1.83506 0
M  V30 4027 H 375.432 -4.25917 -2.59608 0
M  V30 4028 H 374.586 -3.62513 -4.86486 0
M  V30 4029 H 373.325 -2.59638 -4.12843 0
M  V30 4030 H 372.33 -4.6067 -3.00105 0
M  V30 4031 H 373.555 -5.64897 -3.76919 0
M  V30 4032 H 371.501 -3.9512 -5.23657 0
M  V30 4033 H 371.418 -5.66669 -5.00422 0
M  V30 4034 H 372.686 -4.9942 -5.98498 0
M  V30 4035 N 376.915 0.57481 -1.46744 0
M  V30 4036 C 378.331 0.898981 -1.31873 0
M  V30 4037 C 378.531 1.99313 -0.29605 0
M  V30 4038 O 377.587 2.50728 0.298621 0
M  V30 4039 C 378.9 1.30886 -2.7072 0
M  V30 4040 C 380.448 1.42127 -2.78871 0
M  V30 4041 C 380.923 1.86478 -4.18318 0
M  V30 4042 N 382.414 1.93658 -4.20774 0
M  V30 4043 C 383.149 2.29267 -5.2557 0
M  V30 4044 N 382.645 2.63612 -6.40688 0
M  V30 4045 N 384.438 2.29889 -5.1294 0
M  V30 4046 H 376.589 -0.147839 -2.11885 0
M  V30 4047 H 378.852 -0.00347013 -0.947994 0
M  V30 4048 H 378.558 0.578853 -3.46904 0
M  V30 4049 H 378.432 2.26874 -3.01343 0
M  V30 4050 H 380.819 2.14213 -2.0297 0
M  V30 4051 H 380.9 0.443705 -2.51922 0
M  V30 4052 H 380.544 1.14968 -4.94717 0
M  V30 4053 H 380.474 2.85207 -4.42679 0
M  V30 4054 H 382.965 1.69574 -3.37718 0
M  V30 4055 H 383.278 2.89759 -7.16421 0
M  V30 4056 H 381.623 2.61232 -6.44036 0
M  V30 4057 H 384.814 2.02485 -4.22039 0
M  V30 4058 H 384.987 2.57312 -5.94722 0
M  V30 4059 N 378.394 1.34581 0.820102 0
M  V30 4060 C 379.324 1.29038 1.94606 0
M  V30 4061 C 380.305 0.1673 1.69275 0
M  V30 4062 O 381.49 0.360112 1.90832 0
M  V30 4063 C 378.62 1.04793 3.31113 0
M  V30 4064 C 377.574 2.13597 3.70891 0
M  V30 4065 C 376.9 1.74537 5.05412 0
M  V30 4066 C 378.2 3.55451 3.8269 0
M  V30 4067 H 379.894 2.23248 1.99501 0
M  V30 4068 H 377.44 1.0747 0.958449 0
M  V30 4069 H 379.393 0.995592 4.0947 0
M  V30 4070 H 378.117 0.0702565 3.26524 0
M  V30 4071 H 376.776 2.17905 2.9481 0
M  V30 4072 H 376.424 0.754226 4.97313 0
M  V30 4073 H 376.124 2.47361 5.32997 0
M  V30 4074 H 377.648 1.70803 5.86224 0
M  V30 4075 H 379.062 3.5354 4.51312 0
M  V30 4076 H 377.459 4.26922 4.21732 0
M  V30 4077 H 378.529 3.92587 2.84611 0
M  V30 4078 N 379.872 -1.04064 1.18357 0
M  V30 4079 C 381.1 -1.80916 1.00384 0
M  V30 4080 C 381.515 -1.83414 -0.447738 0
M  V30 4081 O 380.872 -1.26962 -1.31099 0
M  V30 4082 C 380.923 -3.26516 1.55144 0
M  V30 4083 O 380.644 -3.2424 2.94618 0
M  V30 4084 C 382.145 -4.20013 1.41789 0
M  V30 4085 H 379.365 -0.569728 0.354474 0
M  V30 4086 H 381.909 -1.31151 1.56906 0
M  V30 4087 H 380.064 -3.73512 1.02798 0
M  V30 4088 H 380.478 -4.15452 3.20156 0
M  V30 4089 H 381.952 -5.20111 1.84901 0
M  V30 4090 H 382.429 -4.37667 0.36661 0
M  V30 4091 H 383.035 -3.78881 1.93207 0
M  V30 4092 N 381.35 -0.985608 -1.22978 0
M  V30 4093 C 382.596 -0.65836 -1.91816 0
M  V30 4094 C 382.929 0.806692 -1.76653 0
M  V30 4095 O 382.204 1.58252 -1.13078 0
M  V30 4096 C 382.487 -1.056 -3.44268 0
M  V30 4097 C 382.34 -2.57906 -3.68516 0
M  V30 4098 C 383.659 -0.603781 -4.35939 0
M  V30 4099 H 380.778 -0.24065 -0.696604 0
M  V30 4100 H 383.42 -1.22783 -1.44998 0
M  V30 4101 H 381.57 -0.571445 -3.84274 0
M  V30 4102 H 383.242 -3.13976 -3.3796 0
M  V30 4103 H 381.485 -3.00305 -3.13048 0
M  V30 4104 H 382.156 -2.80779 -4.75255 0
M  V30 4105 H 384.632 -1.01987 -4.03408 0
M  V30 4106 H 383.508 -0.910383 -5.41298 0
M  V30 4107 H 383.769 0.495761 -4.39312 0
M  V30 4108 N 382.828 1.3818 -0.7579 0
M  V30 4109 C 384.053 2.04827 -0.325679 0
M  V30 4110 C 384.478 1.56788 1.03919 0
M  V30 4111 O 383.836 0.721811 1.66312 0
M  V30 4112 C 383.884 3.58774 -0.362447 0
M  V30 4113 O 382.988 4.07372 0.642033 0
M  V30 4114 H 382.329 0.64833 -0.143402 0
M  V30 4115 H 384.859 1.7677 -1.03023 0
M  V30 4116 H 384.869 4.07434 -0.214844 0
M  V30 4117 H 383.544 3.93096 -1.35824 0
M  V30 4118 H 382.121 3.70068 0.458688 0
M  V30 4119 N 384.306 0.507319 1.49211 0
M  V30 4120 C 385.236 -0.256939 2.32082 0
M  V30 4121 C 386.217 -0.956609 1.40652 0
M  V30 4122 O 387.402 -0.946788 1.69557 0
M  V30 4123 C 384.532 -1.31802 3.21318 0
M  V30 4124 C 383.486 -0.737855 4.21592 0
M  V30 4125 C 382.812 -1.89992 4.99807 0
M  V30 4126 C 384.112 0.275325 5.21574 0
M  V30 4127 H 385.806 0.434798 2.96226 0
M  V30 4128 H 383.352 0.210546 1.42452 0
M  V30 4129 H 385.305 -1.86045 3.78107 0
M  V30 4130 H 384.029 -2.03903 2.5513 0
M  V30 4131 H 382.688 -0.217126 3.65956 0
M  V30 4132 H 382.336 -2.60877 4.30061 0
M  V30 4133 H 382.036 -1.51777 5.6766 0
M  V30 4134 H 383.56 -2.44657 5.59442 0
M  V30 4135 H 384.974 -0.179193 5.7302 0
M  V30 4136 H 383.371 0.573649 5.97352 0
M  V30 4137 H 384.441 1.18903 4.70096 0
M  V30 4138 N 385.784 -1.5574 0.241426 0
M  V30 4139 C 386.747 -2.19877 -0.647063 0
M  V30 4140 C 387.747 -1.16642 -1.10686 0
M  V30 4141 O 388.937 -1.41757 -1.01245 0
M  V30 4142 C 386.069 -2.83797 -1.88871 0
M  V30 4143 H 387.262 -2.99772 -0.087574 0
M  V30 4144 H 384.815 -1.56298 -0.00813574 0
M  V30 4145 H 385.55 -2.07824 -2.48957 0
M  V30 4146 H 385.335 -3.59414 -1.56728 0
M  V30 4147 H 386.825 -3.32898 -2.52129 0
M  V30 4148 N 387.262 0.0317525 -1.57568 0
M  V30 4149 C 388.492 0.733884 -1.93126 0
M  V30 4150 C 388.9 1.69563 -0.839352 0
M  V30 4151 O 388.243 1.82681 0.193175 0
M  V30 4152 C 388.305 1.54798 -3.24465 0
M  V30 4153 C 387.969 0.751304 -4.50782 0
M  V30 4154 C 388.966 0.0527632 -5.19873 0
M  V30 4155 C 386.651 0.706639 -4.97305 0
M  V30 4156 C 388.645 -0.679774 -6.33765 0
M  V30 4157 C 386.332 -0.0296449 -6.11093 0
M  V30 4158 C 387.33 -0.721614 -6.79177 0
M  V30 4159 O 387.018 -1.44595 -7.90789 0
M  V30 4160 H 386.75 0.211459 -0.642076 0
M  V30 4161 H 389.304 -0.00585615 -2.05399 0
M  V30 4162 H 387.534 2.33147 -3.08512 0
M  V30 4163 H 389.223 2.13247 -3.4537 0
M  V30 4164 H 389.989 0.0783188 -4.84937 0
M  V30 4165 H 385.868 1.23474 -4.44157 0
M  V30 4166 H 389.412 -1.22042 -6.86842 0
M  V30 4167 H 385.309 -0.0571331 -6.45475 0
M  V30 4168 H 386.077 -1.35935 -8.07133 0
M  V30 4169 N 388.74 1.54641 0.303973 0
M  V30 4170 C 389.965 1.78092 1.06292 0
M  V30 4171 C 390.39 0.537342 1.80262 0
M  V30 4172 O 389.748 -0.511993 1.7392 0
M  V30 4173 C 389.796 2.98612 2.02147 0
M  V30 4174 O 388.9 2.71528 3.10397 0
M  V30 4175 H 388.241 0.589548 0.305497 0
M  V30 4176 H 390.771 2.01716 0.3423 0
M  V30 4177 H 390.781 3.265 2.44667 0
M  V30 4178 H 389.456 3.88785 1.47714 0
M  V30 4179 H 388.033 2.54648 2.72413 0
M  V30 4180 N 390.218 -0.567019 1.47046 0
M  V30 4181 C 391.128 -1.70247 1.6141 0
M  V30 4182 C 392.144 -1.66746 0.497157 0
M  V30 4183 O 393.32 -1.86371 0.763389 0
M  V30 4184 C 390.385 -3.06756 1.61561 0
M  V30 4185 C 389.446 -3.21399 2.84607 0
M  V30 4186 C 388.679 -4.51396 2.84741 0
M  V30 4187 O 388.902 -5.36255 1.94388 0
M  V30 4188 O 387.836 -4.69621 3.76483 0
M  V30 4189 H 391.662 -1.61073 2.57467 0
M  V30 4190 H 389.247 -0.735894 1.30019 0
M  V30 4191 H 391.129 -3.8801 1.64396 0
M  V30 4192 H 389.804 -3.16333 0.686684 0
M  V30 4193 H 388.711 -2.39579 2.8732 0
M  V30 4194 H 390.044 -3.16721 3.76761 0
M  V30 4195 N 391.696 -1.35014 -0.812953 0
M  V30 4196 C 392.921 -1.31187 -1.60639 0
M  V30 4197 C 393.346 0.109382 -1.87782 0
M  V30 4198 O 392.704 1.07424 -1.46047 0
M  V30 4199 C 392.752 -2.11809 -2.91838 0
M  V30 4200 O 391.856 -1.49444 -3.8437 0
M  V30 4201 H 391.197 -0.450084 -0.488181 0
M  V30 4202 H 393.727 -1.77963 -1.00947 0
M  V30 4203 H 393.737 -2.23531 -3.41318 0
M  V30 4204 H 392.412 -3.15137 -2.71407 0
M  V30 4205 H 390.989 -1.46524 -3.42907 0
M  V30 4206 N 393.175 1.03435 -1.18907 0
M  V30 4207 C 394.125 2.09924 -0.889706 0
M  V30 4208 C 395.109 1.60261 0.143216 0
M  V30 4209 O 396.301 1.76892 -0.0617122 0
M  V30 4210 C 393.43 3.40669 -0.424168 0
M  V30 4211 C 392.516 3.97082 -1.48952 0
M  V30 4212 N 392.907 4.27227 -2.70759 0
M  V30 4213 C 391.205 4.25029 -1.35152 0
M  V30 4214 C 391.906 4.7246 -3.39347 0
M  V30 4215 N 390.882 4.7366 -2.66735 0
M  V30 4216 H 394.684 2.31116 -1.81555 0
M  V30 4217 H 392.198 1.21246 -1.08042 0
M  V30 4218 H 394.195 4.16461 -0.191176 0
M  V30 4219 H 392.855 3.20901 0.495263 0
M  V30 4220 H 393.866 4.16678 -3.0757 0
M  V30 4221 H 390.543 4.14554 -0.495126 0
M  V30 4222 H 391.933 5.04751 -4.43481 0
M  V30 4223 N 394.653 0.992116 1.22453 0
M  V30 4224 C 395.585 0.500024 2.23679 0
M  V30 4225 C 396.598 -0.404463 1.57696 0
M  V30 4226 O 397.787 -0.206722 1.77299 0
M  V30 4227 C 394.887 -0.294711 3.37616 0
M  V30 4228 C 394.06 0.605723 4.33186 0
M  V30 4229 C 393.119 -0.13717 5.26021 0
M  V30 4230 O 392.145 0.477164 5.67196 0
M  V30 4231 N 393.347 -1.4197 5.62872 0
M  V30 4232 H 396.112 1.37045 2.66531 0
M  V30 4233 H 393.673 0.866741 1.36745 0
M  V30 4234 H 395.665 -0.800329 3.96707 0
M  V30 4235 H 394.235 -1.06623 2.93854 0
M  V30 4236 H 393.455 1.29202 3.72425 0
M  V30 4237 H 394.743 1.21896 4.93983 0
M  V30 4238 H 394.141 -1.94015 5.31389 0
M  V30 4239 H 392.698 -1.87052 6.24383 0
M  V30 4240 N 396.131 -1.37776 0.765217 0
M  V30 4241 C 397.38 -1.99092 0.323307 0
M  V30 4242 C 397.693 -1.61434 -1.10446 0
M  V30 4243 O 398.899 -2.15805 -1.64743 0
M  V30 4244 C 397.355 -3.56019 0.527098 0
M  V30 4245 C 396.963 -4.0262 1.96471 0
M  V30 4246 C 398.707 -4.2424 0.148483 0
M  V30 4247 C 396.614 -5.52233 2.11644 0
M  V30 4248 H 395.544 -0.744846 0.117137 0
M  V30 4249 H 398.195 -1.57391 0.943417 0
M  V30 4250 H 396.577 -3.95667 -0.162372 0
M  V30 4251 H 397.751 -3.74234 2.68859 0
M  V30 4252 H 396.066 -3.47161 2.29931 0
M  V30 4253 H 398.663 -5.34159 0.240456 0
M  V30 4254 H 399.006 -4.06446 -0.900422 0
M  V30 4255 H 399.539 -3.89872 0.79025 0
M  V30 4256 H 396.278 -5.74945 3.1483 0
M  V30 4257 H 395.798 -5.82324 1.4373 0
M  V30 4258 H 397.477 -6.18106 1.91193 0
M  V30 4259 N 397.609 -0.515225 -1.4894 0
M  V30 4260 C 399.025 -0.172099 -1.58669 0
M  V30 4261 C 399.225 1.32405 -1.51892 0
M  V30 4262 O 398.281 2.10116 -1.40027 0
M  V30 4263 C 399.594 -0.761533 -2.90897 0
M  V30 4264 C 401.142 -0.728926 -3.04394 0
M  V30 4265 C 401.617 -1.29667 -4.39261 0
M  V30 4266 N 403.108 -1.25799 -4.4579 0
M  V30 4267 C 403.843 -1.66733 -5.48623 0
M  V30 4268 N 403.339 -2.15327 -6.58488 0
M  V30 4269 N 405.132 -1.58061 -5.39419 0
M  V30 4270 H 397.283 -1.48778 -1.51588 0
M  V30 4271 H 399.546 -0.617968 -0.718901 0
M  V30 4272 H 399.252 -1.81136 -3.01468 0
M  V30 4273 H 399.126 -0.230106 -3.76497 0
M  V30 4274 H 401.513 0.312098 -2.93445 0
M  V30 4275 H 401.594 -1.29766 -2.20442 0
M  V30 4276 H 401.238 -2.33655 -4.50963 0
M  V30 4277 H 401.168 -0.703752 -5.21876 0
M  V30 4278 H 403.659 -0.902102 -3.66975 0
M  V30 4279 H 403.972 -2.44594 -7.33071 0
M  V30 4280 H 402.317 -2.19311 -6.59491 0
M  V30 4281 H 405.508 -1.19906 -4.52482 0
M  V30 4282 H 405.681 -1.90284 -6.19432 0
M  V30 4283 N 399.087 1.5561 -0.249682 0
M  V30 4284 C 400.333 1.99306 0.374841 0
M  V30 4285 C 400.666 1.13767 1.57387 0
M  V30 4286 O 399.941 0.201711 1.93451 0
M  V30 4287 C 400.224 3.51507 0.781986 0
M  V30 4288 C 400.077 4.4781 -0.422629 0
M  V30 4289 C 401.396 4.08884 1.62793 0
M  V30 4290 H 398.515 0.724572 0.134773 0
M  V30 4291 H 401.157 1.86719 -0.351549 0
M  V30 4292 H 399.307 3.62363 1.4009 0
M  V30 4293 H 400.979 4.48931 -1.06108 0
M  V30 4294 H 399.222 4.20518 -1.06524 0
M  V30 4295 H 399.893 5.51919 -0.0943766 0
M  V30 4296 H 402.369 4.01147 1.10547 0
M  V30 4297 H 401.245 5.1564 1.88166 0
M  V30 4298 H 401.506 3.57515 2.60068 0
M  V30 4299 N 400.565 -0.0233959 1.57583 0
M  V30 4300 C 401.79 -0.728376 1.94189 0
M  V30 4301 C 402.215 -1.67793 0.850119 0
M  V30 4302 O 401.573 -1.80262 -0.19371 0
M  V30 4303 C 401.621 -1.45669 3.29868 0
M  V30 4304 O 400.725 -2.57013 3.22518 0
M  V30 4305 H 400.066 -0.195493 0.63457 0
M  V30 4306 H 402.596 0.0228214 2.04587 0
M  V30 4307 H 402.606 -1.82535 3.6489 0
M  V30 4308 H 401.281 -0.760314 4.08891 0
M  V30 4309 H 399.858 -2.22648 2.99136 0
M  V30 4310 N 402.043 -1.548 -0.295768 0
M  V30 4311 C 402.975 -1.82492 -1.3867 0
M  V30 4312 C 403.988 -0.708134 -1.46592 0
M  V30 4313 O 405.177 -0.985686 -1.48817 0
M  V30 4314 C 402.277 -1.95256 -2.76999 0
M  V30 4315 C 401.45 -3.25709 -2.91946 0
M  V30 4316 C 400.509 -3.28824 -4.10806 0
M  V30 4317 O 399.535 -4.02328 -4.02643 0
M  V30 4318 N 400.737 -2.5459 -5.21694 0
M  V30 4319 H 403.502 -2.76646 -1.15269 0
M  V30 4320 H 401.063 -1.54438 -0.485849 0
M  V30 4321 H 403.055 -1.94736 -3.54768 0
M  V30 4322 H 401.625 -1.08072 -2.93324 0
M  V30 4323 H 400.845 -3.38959 -2.01247 0
M  V30 4324 H 402.133 -4.11786 -2.98847 0
M  V30 4325 H 401.531 -1.94512 -5.31208 0
M  V30 4326 H 400.088 -2.59818 -5.97778 0
M  V30 4327 N 403.521 0.559213 -1.47345 0
M  V30 4328 C 404.453 1.68161 -1.55738 0
M  V30 4329 C 405.466 1.56636 -0.443744 0
M  V30 4330 O 406.655 1.6363 -0.713258 0
M  V30 4331 C 403.755 3.06611 -1.4437 0
M  V30 4332 C 402.928 3.4391 -2.70268 0
M  V30 4333 C 401.987 4.61515 -2.52765 0
M  V30 4334 O 401.013 4.66197 -3.26572 0
M  V30 4335 N 402.215 5.57883 -1.6046 0
M  V30 4336 H 404.98 1.61408 -2.52522 0
M  V30 4337 H 402.541 0.7458 -1.43699 0
M  V30 4338 H 404.533 3.83117 -1.30398 0
M  V30 4339 H 403.103 3.07602 -0.556766 0
M  V30 4340 H 402.323 2.56873 -2.99015 0
M  V30 4341 H 403.611 3.65605 -3.53851 0
M  V30 4342 H 403.009 5.56855 -0.996422 0
M  V30 4343 H 401.566 6.33723 -1.52441 0
M  V30 4344 N 404.999 1.35443 0.805782 0
M  V30 4345 C 406.276 1.19325 1.54987 0
M  V30 4346 C 406.656 -0.227294 2.09873 0
M  V30 4347 O 406.004 -1.2309 1.92512 0
M  V30 4348 C 406.214 2.26196 2.65775 0
M  V30 4349 C 407.562 2.62043 3.34094 0
M  V30 4350 O 408.586 2.25115 2.76046 0
M  V30 4351 O 407.445 3.25542 4.38958 0
M  V30 4352 H 404.539 0.463623 0.684823 0
M  V30 4353 H 407.085 1.47127 0.845674 0
M  V30 4354 H 405.857 3.21471 2.23096 0
M  V30 4355 H 405.48 1.99667 3.43829 0
M  V30 4356 N 406.477 -1.02803 1.19454 0
M  V30 4357 C 407.724 -1.76217 0.997693 0
M  V30 4358 C 408.052 -1.887 -0.47144 0
M  V30 4359 O 407.307 -1.4011 -1.3663 0
M  V30 4360 C 407.606 -3.18941 1.6128 0
M  V30 4361 C 407.272 -3.26463 3.11019 0
M  V30 4362 C 405.934 -3.28223 3.51885 0
M  V30 4363 C 408.286 -3.25542 4.07028 0
M  V30 4364 C 405.614 -3.26719 4.8731 0
M  V30 4365 C 407.966 -3.25579 5.42385 0
M  V30 4366 C 406.63 -3.25637 5.82681 0
M  V30 4367 H 405.9 -0.644823 0.365082 0
M  V30 4368 H 408.547 -1.20655 1.4871 0
M  V30 4369 H 406.852 -3.77587 1.04572 0
M  V30 4370 H 408.549 -3.74415 1.43577 0
M  V30 4371 H 405.139 -3.25822 2.78457 0
M  V30 4372 H 409.323 -3.23362 3.76498 0
M  V30 4373 H 404.579 -3.25089 5.1781 0
M  V30 4374 H 408.753 -3.23817 6.16535 0
M  V30 4375 H 406.38 -3.24226 6.87591 0
M  V30 4376 N 407.956 -0.998596 -1.21925 0
M  V30 4377 C 409.372 -0.710303 -1.42923 0
M  V30 4378 C 409.572 0.716933 -1.88314 0
M  V30 4379 O 408.628 1.48712 -2.04062 0
M  V30 4380 C 409.941 -1.72072 -2.466 0
M  V30 4381 C 411.489 -1.73681 -2.60392 0
M  V30 4382 C 411.964 -2.73601 -3.67296 0
M  V30 4383 N 413.455 -2.7223 -3.7476 0
M  V30 4384 C 414.19 -3.46206 -4.57087 0
M  V30 4385 N 413.686 -4.29802 -5.43362 0
M  V30 4386 N 415.479 -3.34886 -4.51451 0
M  V30 4387 H 407.63 -1.92028 -0.9077 0
M  V30 4388 H 409.893 -0.828487 -0.460775 0
M  V30 4389 H 409.599 -2.74231 -2.20206 0
M  V30 4390 H 409.473 -1.51818 -3.45299 0
M  V30 4391 H 411.86 -0.722173 -2.86127 0
M  V30 4392 H 411.941 -1.98005 -1.61949 0
M  V30 4393 H 411.585 -3.75217 -3.42307 0
M  V30 4394 H 411.515 -2.46545 -4.65321 0
M  V30 4395 H 414.006 -2.11576 -3.1312 0
M  V30 4396 H 414.319 -4.83061 -6.03218 0
M  V30 4397 H 412.664 -4.33887 -5.42925 0
M  V30 4398 H 415.855 -2.69015 -3.83078 0
M  V30 4399 H 416.028 -3.92796 -5.15379 0
M  V30 4400 N 409.434 1.37368 -0.772513 0
M  V30 4401 C 410.364 2.32856 -0.173304 0
M  V30 4402 C 411.345 1.55818 0.682262 0
M  V30 4403 O 412.53 1.84052 0.619566 0
M  V30 4404 C 409.66 3.40048 0.706007 0
M  V30 4405 C 408.614 4.27973 -0.0483144 0
M  V30 4406 C 407.94 5.26184 0.950491 0
M  V30 4407 C 409.24 5.07665 -1.22776 0
M  V30 4408 H 410.934 2.83217 -0.971002 0
M  V30 4409 H 408.48 1.3617 -0.468377 0
M  V30 4410 H 410.433 4.05827 1.13501 0
M  V30 4411 H 409.157 2.88214 1.53623 0
M  V30 4412 H 407.816 3.63726 -0.458107 0
M  V30 4413 H 407.464 4.7063 1.77529 0
M  V30 4414 H 407.164 5.85872 0.450314 0
M  V30 4415 H 408.688 5.94838 1.37842 0
M  V30 4416 H 410.102 5.66578 -0.875366 0
M  V30 4417 H 408.499 5.76681 -1.66007 0
M  V30 4418 H 409.569 4.40294 -2.03149 0
M  V30 4419 N 410.912 0.523116 1.48665 0
M  V30 4420 C 412.159 -0.0134763 2.02496 0
M  V30 4421 C 412.487 -1.3493 1.40086 0
M  V30 4422 O 411.742 -1.88286 0.533567 0
M  V30 4423 C 412.041 -0.191671 3.56886 0
M  V30 4424 C 411.707 1.06893 4.38046 0
M  V30 4425 C 410.369 1.41443 4.59943 0
M  V30 4426 C 412.721 1.90584 4.85106 0
M  V30 4427 C 410.049 2.59594 5.26144 0
M  V30 4428 C 412.401 3.07907 5.52609 0
M  V30 4429 C 411.065 3.42811 5.72745 0
M  V30 4430 H 410.335 -0.00493133 0.740984 0
M  V30 4431 H 412.982 0.687751 1.78724 0
M  V30 4432 H 411.287 -0.97561 3.79459 0
M  V30 4433 H 412.984 -0.621659 3.96152 0
M  V30 4434 H 409.574 0.789848 4.21259 0
M  V30 4435 H 413.758 1.65203 4.67997 0
M  V30 4436 H 409.014 2.86847 5.39934 0
M  V30 4437 H 413.188 3.73066 5.88043 0
M  V30 4438 H 410.815 4.34462 6.23816 0
M  V30 4439 N 412.39 -1.55475 0.257931 0
M  V30 4440 C 413.806 -1.59307 -0.0966563 0
M  V30 4441 C 414.006 -1.27514 -1.5602 0
M  V30 4442 O 413.062 -1.02774 -2.30637 0
M  V30 4443 C 414.375 -2.99552 0.262481 0
M  V30 4444 C 415.923 -3.1231 0.207683 0
M  V30 4445 C 416.398 -4.54793 0.541012 0
M  V30 4446 N 417.889 -4.6058 0.491921 0
M  V30 4447 C 418.624 -5.68825 0.722857 0
M  V30 4448 N 418.12 -6.85287 1.0175 0
M  V30 4449 N 419.913 -5.58296 0.652815 0
M  V30 4450 H 412.064 -1.74409 1.21224 0
M  V30 4451 H 414.327 -0.812424 0.48854 0
M  V30 4452 H 414.033 -3.27593 1.27967 0
M  V30 4453 H 413.907 -3.75019 -0.40508 0
M  V30 4454 H 416.294 -2.84044 -0.800195 0
M  V30 4455 H 416.375 -2.39095 0.909255 0
M  V30 4456 H 416.019 -4.83783 1.5465 0
M  V30 4457 H 415.949 -5.26285 -0.18216 0
M  V30 4458 H 418.44 -3.7691 0.273366 0
M  V30 4459 H 418.753 -7.63725 1.18084 0
M  V30 4460 H 417.098 -6.86945 1.05509 0
M  V30 4461 H 420.289 -4.66189 0.422592 0
M  V30 4462 H 420.462 -6.42582 0.836182 0
M  V30 4463 N 413.868 0.0150385 -1.57593 0
M  V30 4464 C 415.096 0.714395 -1.94175 0
M  V30 4465 C 415.511 1.68135 -0.858841 0
M  V30 4466 O 414.868 1.81766 0.163567 0
M  V30 4467 C 414.919 1.45933 -3.30735 0
M  V30 4468 O 414.64 0.531167 -4.34868 0
M  V30 4469 C 416.141 2.25456 -3.81686 0
M  V30 4470 H 413.361 0.199923 -0.640525 0
M  V30 4471 H 415.905 -0.0316096 -2.04476 0
M  V30 4472 H 414.06 2.15709 -3.21789 0
M  V30 4473 H 414.474 1.05509 -5.13778 0
M  V30 4474 H 415.948 2.731 -4.79709 0
M  V30 4475 H 416.425 3.07485 -3.13607 0
M  V30 4476 H 417.031 1.60727 -3.9376 0
M  V30 4477 N 415.346 1.54954 0.287554 0
M  V30 4478 C 416.276 1.89839 1.35954 0
M  V30 4479 C 417.257 0.758675 1.52244 0
M  V30 4480 O 418.442 1.01557 1.65529 0
M  V30 4481 C 415.572 2.15753 2.72154 0
M  V30 4482 C 414.526 3.3159 2.70614 0
M  V30 4483 C 413.852 3.42952 4.10229 0
M  V30 4484 C 415.152 4.68359 2.31165 0
M  V30 4485 H 416.846 2.79625 1.07007 0
M  V30 4486 H 414.392 1.3454 0.513316 0
M  V30 4487 H 416.345 2.38743 3.47246 0
M  V30 4488 H 415.069 1.22752 3.02654 0
M  V30 4489 H 413.728 3.08545 1.97979 0
M  V30 4490 H 413.376 2.47443 4.37928 0
M  V30 4491 H 413.076 4.20826 4.10097 0
M  V30 4492 H 414.6 3.68218 4.87081 0
M  V30 4493 H 416.014 4.9099 2.95976 0
M  V30 4494 H 414.411 5.49044 2.42221 0
M  V30 4495 H 415.481 4.68165 1.26291 0
M  V30 4496 N 416.824 -0.551391 1.4764 0
M  V30 4497 C 418.071 -1.3083 1.54563 0
M  V30 4498 C 418.399 -1.93359 0.210361 0
M  V30 4499 O 417.654 -1.78721 -0.797332 0
M  V30 4500 C 417.953 -2.43469 2.61644 0
M  V30 4501 C 417.619 -1.98732 4.04742 0
M  V30 4502 C 416.281 -1.86248 4.43695 0
M  V30 4503 C 418.633 -1.64659 4.94507 0
M  V30 4504 C 415.961 -1.37995 5.70241 0
M  V30 4505 C 418.313 -1.17875 6.21521 0
M  V30 4506 C 416.977 -1.03992 6.5935 0
M  V30 4507 H 416.247 -0.478741 0.565587 0
M  V30 4508 H 418.894 -0.617697 1.81264 0
M  V30 4509 H 417.199 -3.18109 2.28722 0
M  V30 4510 H 418.896 -3.01642 2.64222 0
M  V30 4511 H 415.486 -2.09393 3.73968 0
M  V30 4512 H 419.67 -1.73174 4.65107 0
M  V30 4513 H 414.926 -1.25915 5.98294 0
M  V30 4514 H 419.1 -0.905739 6.90485 0
M  V30 4515 H 416.727 -0.663794 7.57296 0
M  V30 4516 N 418.302 -1.35869 -0.798587 0
M  V30 4517 C 419.232 -1.32118 -1.92528 0
M  V30 4518 C 420.213 -0.194209 -1.68988 0
M  V30 4519 O 421.398 -0.390426 -1.90235 0
M  V30 4520 C 418.528 -1.10047 -3.29404 0
M  V30 4521 C 417.482 -2.19471 -3.67446 0
M  V30 4522 C 416.808 -1.82555 -5.02571 0
M  V30 4523 C 418.108 -3.61495 -3.76987 0
M  V30 4524 H 419.802 -2.26394 -1.95924 0
M  V30 4525 H 417.348 -1.08981 -0.94123 0
M  V30 4526 H 419.301 -1.06061 -4.07835 0
M  V30 4527 H 418.025 -0.122195 -3.26371 0
M  V30 4528 H 416.684 -2.22568 -2.91306 0
M  V30 4529 H 416.332 -0.833249 -4.9605 0
M  V30 4530 H 416.032 -2.5581 -5.28995 0
M  V30 4531 H 417.556 -1.80108 -5.83432 0
M  V30 4532 H 418.97 -3.60676 -4.4563 0
M  V30 4533 H 417.367 -4.33577 -4.14887 0
M  V30 4534 H 418.437 -3.97065 -2.78329 0
M  V30 4535 N 419.78 1.02168 -1.19998 0
M  V30 4536 C 420.71 2.12488 -0.96804 0
M  V30 4537 C 421.691 1.69799 0.101185 0
M  V30 4538 O 422.876 1.94121 -0.0552993 0
M  V30 4539 C 420.006 3.43479 -0.513776 0
M  V30 4540 C 418.96 3.99884 -1.52566 0
M  V30 4541 C 418.286 5.26582 -0.928214 0
M  V30 4542 C 419.586 4.33861 -2.90795 0
M  V30 4543 H 421.28 2.32149 -1.89069 0
M  V30 4544 H 418.826 1.11564 -0.910468 0
M  V30 4545 H 420.779 4.20036 -0.338774 0
M  V30 4546 H 419.503 3.23561 0.444493 0
M  V30 4547 H 418.162 3.25429 -1.68794 0
M  V30 4548 H 417.81 5.02986 0.0378289 0
M  V30 4549 H 417.51 5.65284 -1.60397 0
M  V30 4550 H 419.034 6.05799 -0.764167 0
M  V30 4551 H 420.448 5.01327 -2.78109 0
M  V30 4552 H 418.845 4.83664 -3.55231 0
M  V30 4553 H 419.915 3.42848 -3.42904 0
M  V30 4554 N 421.258 1.00505 1.21394 0
M  V30 4555 C 422.191 0.51032 2.22421 0
M  V30 4556 C 423.169 -0.436 1.56645 0
M  V30 4557 O 424.353 -0.358709 1.85055 0
M  V30 4558 C 421.48 -0.258733 3.3771 0
M  V30 4559 C 420.526 0.635395 4.2174 0
M  V30 4560 S 421.359 2.09783 4.92698 0
M  V30 4561 C 422.515 1.33862 6.11418 0
M  V30 4562 H 422.748 1.36637 2.64041 0
M  V30 4563 H 420.281 0.812991 1.31262 0
M  V30 4564 H 422.239 -0.696372 4.0455 0
M  V30 4565 H 420.9 -1.0902 2.94573 0
M  V30 4566 H 420.093 0.0430189 5.03982 0
M  V30 4567 H 419.695 1.01031 3.60095 0
M  V30 4568 H 421.987 0.612541 6.74725 0
M  V30 4569 H 422.93 2.13675 6.75092 0
M  V30 4570 H 423.338 0.846568 5.58116 0
M  V30 4571 N 422.737 -1.36956 0.779787 0
M  V30 4572 C 423.983 -1.99787 0.348281 0
M  V30 4573 C 424.316 -1.61756 -1.07465 0
M  V30 4574 O 423.591 -0.867639 -1.74075 0
M  V30 4575 C 423.874 -3.56597 0.50104 0
M  V30 4576 C 423.727 -4.04513 1.96697 0
M  V30 4577 C 425.046 -4.40008 -0.0898097 0
M  V30 4578 H 422.165 -0.725796 0.128022 0
M  V30 4579 H 424.807 -1.62514 0.984331 0
M  V30 4580 H 422.957 -3.88479 -0.0404347 0
M  V30 4581 H 424.629 -3.83161 2.56876 0
M  V30 4582 H 422.872 -3.56408 2.47297 0
M  V30 4583 H 423.543 -5.1352 2.02486 0
M  V30 4584 H 426.019 -4.14431 0.372293 0
M  V30 4585 H 424.895 -5.4888 0.0471605 0
M  V30 4586 H 425.156 -4.26035 -1.18096 0
M  V30 4587 N 424.215 -0.530993 -1.48385 0
M  V30 4588 C 425.44 0.000729535 -2.074 0
M  V30 4589 C 425.865 1.27298 -1.3848 0
M  V30 4590 O 425.223 1.75599 -0.451081 0
M  V30 4591 C 425.271 0.206697 -3.60007 0
M  V30 4592 O 424.375 1.27514 -3.92191 0
M  V30 4593 H 423.716 -0.039583 -0.662819 0
M  V30 4594 H 426.246 -0.739194 -1.9078 0
M  V30 4595 H 426.256 0.42904 -4.05738 0
M  V30 4596 H 424.931 -0.722675 -4.09573 0
M  V30 4597 H 423.508 1.03537 -3.58238 0
M  V30 4598 N 425.693 1.55336 -0.266172 0
M  V30 4599 C 426.94 1.99397 0.353158 0
M  V30 4600 C 427.268 1.15451 1.56529 0
M  V30 4601 O 426.523 0.209974 1.9457 0
M  V30 4602 C 426.822 3.48606 0.787957 0
M  V30 4603 C 426.488 4.49773 -0.318541 0
M  V30 4604 C 425.15 4.77158 -0.62239 0
M  V30 4605 C 427.502 5.10212 -1.06459 0
M  V30 4606 C 424.83 5.62251 -1.67602 0
M  V30 4607 C 427.182 5.96449 -2.10788 0
M  V30 4608 C 425.846 6.22158 -2.41817 0
M  V30 4609 H 425.116 0.729644 0.12923 0
M  V30 4610 H 427.763 1.87732 -0.37802 0
M  V30 4611 H 426.068 3.57701 1.59866 0
M  V30 4612 H 427.765 3.80098 1.27775 0
M  V30 4613 H 424.355 4.2854 -0.0715925 0
M  V30 4614 H 428.539 4.89086 -0.843098 0
M  V30 4615 H 423.795 5.80419 -1.92155 0
M  V30 4616 H 427.969 6.42317 -2.69076 0
M  V30 4617 H 425.596 6.87888 -3.23596 0
M  V30 4618 N 427.171 -0.0066808 1.57599 0
M  V30 4619 C 428.418 -0.69292 1.90276 0
M  V30 4620 C 428.746 -1.74148 0.866192 0
M  V30 4621 O 428.001 -1.95268 -0.129933 0
M  V30 4622 C 428.3 -1.37939 3.29708 0
M  V30 4623 C 427.966 -0.464679 4.48499 0
M  V30 4624 C 426.628 -0.212809 4.80729 0
M  V30 4625 C 428.98 0.16551 5.20937 0
M  V30 4626 C 426.308 0.677653 5.82773 0
M  V30 4627 C 428.66 1.04381 6.23929 0
M  V30 4628 C 427.324 1.30492 6.54621 0
M  V30 4629 H 426.594 -0.253558 0.696268 0
M  V30 4630 H 429.241 0.0474123 1.91441 0
M  V30 4631 H 427.546 -2.1936 3.24636 0
M  V30 4632 H 429.243 -1.9163 3.52249 0
M  V30 4633 H 425.833 -0.671153 4.23313 0
M  V30 4634 H 430.017 -0.0160756 4.96297 0
M  V30 4635 H 425.273 0.88803 6.04917 0
M  V30 4636 H 429.447 1.53851 6.79193 0
M  V30 4637 H 427.074 1.99662 7.33512 0
M  V30 4638 N 428.649 -1.55105 -0.279332 0
M  V30 4639 C 429.898 -1.74618 -1.00952 0
M  V30 4640 C 430.211 -0.551096 -1.87676 0
M  V30 4641 O 431.417 -0.628507 -2.64125 0
M  V30 4642 C 429.873 -3.09025 -1.84476 0
M  V30 4643 C 429.481 -4.36081 -1.0265 0
M  V30 4644 C 431.225 -3.37891 -2.56963 0
M  V30 4645 C 429.132 -5.6153 -1.85576 0
M  V30 4646 H 428.062 -0.650868 -0.38064 0
M  V30 4647 H 430.713 -1.81569 -0.265475 0
M  V30 4648 H 429.095 -2.96095 -2.62952 0
M  V30 4649 H 430.269 -4.59909 -0.286354 0
M  V30 4650 H 428.584 -4.14312 -0.416464 0
M  V30 4651 H 431.181 -4.28822 -3.19399 0
M  V30 4652 H 431.524 -2.57737 -3.26921 0
M  V30 4653 H 432.057 -3.5189 -1.85522 0
M  V30 4654 H 428.796 -6.44413 -1.2005 0
M  V30 4655 H 428.316 -5.41854 -2.57204 0
M  V30 4656 H 429.995 -5.99594 -2.43096 0
M  V30 4657 N 430.127 0.543554 -1.4793 0
M  V30 4658 C 431.06 1.66556 -1.55995 0
M  V30 4659 C 432.038 1.57315 -0.411205 0
M  V30 4660 O 433.222 1.7798 -0.620922 0
M  V30 4661 C 430.349 3.04883 -1.47527 0
M  V30 4662 C 429.395 3.32526 -2.67074 0
M  V30 4663 S 430.228 3.20282 -4.29162 0
M  V30 4664 C 431.384 4.61079 -4.23269 0
M  V30 4665 H 431.617 1.59462 -2.50917 0
M  V30 4666 H 429.15 0.725456 -1.36296 0
M  V30 4667 H 431.108 3.84665 -1.43328 0
M  V30 4668 H 429.769 3.09429 -0.539665 0
M  V30 4669 H 428.962 4.33403 -2.5725 0
M  V30 4670 H 428.564 2.60389 -2.68466 0
M  V30 4671 H 430.856 5.52318 -3.92365 0
M  V30 4672 H 431.799 4.75959 -5.24279 0
M  V30 4673 H 432.207 4.39766 -3.5393 0
M  V30 4674 N 431.605 1.3629 0.791371 0
M  V30 4675 C 432.851 1.31613 1.5508 0
M  V30 4676 C 433.206 -0.104372 1.92117 0
M  V30 4677 O 432.499 -1.05845 1.5971 0
M  V30 4678 C 432.693 2.17068 2.8393 0
M  V30 4679 C 432.522 3.67285 2.59484 0
M  V30 4680 C 431.292 4.36469 2.54604 0
M  V30 4681 C 433.49 4.60595 2.28816 0
M  V30 4682 N 431.472 5.7234 2.22036 0
M  V30 4683 C 432.843 5.847 2.06218 0
M  V30 4684 C 434.898 4.4918 2.14806 0
M  V30 4685 C 433.601 6.98671 1.71028 0
M  V30 4686 C 435.627 5.63017 1.81014 0
M  V30 4687 C 434.989 6.86159 1.59263 0
M  V30 4688 H 431.088 0.536878 0.568582 0
M  V30 4689 H 433.672 1.71323 0.925007 0
M  V30 4690 H 431.843 1.79605 3.44378 0
M  V30 4691 H 433.575 2.03795 3.49642 0
M  V30 4692 H 430.33 3.89249 2.69782 0
M  V30 4693 H 430.754 6.44093 2.08503 0
M  V30 4694 H 435.396 3.54564 2.30313 0
M  V30 4695 H 433.114 7.9324 1.54259 0
M  V30 4696 H 436.7 5.56146 1.70861 0
M  V30 4697 H 435.58 7.72753 1.335 0
M  V30 4698 N 433.083 -1.0153 1.20538 0
M  V30 4699 C 434.308 -1.79283 1.04271 0
M  V30 4700 C 434.733 -1.8372 -0.403544 0
M  V30 4701 O 434.091 -1.27321 -1.2907 0
M  V30 4702 C 434.139 -3.21535 1.63241 0
M  V30 4703 O 433.243 -4.03099 0.870908 0
M  V30 4704 H 432.584 -0.55293 0.367647 0
M  V30 4705 H 435.114 -1.27696 1.59859 0
M  V30 4706 H 435.124 -3.72243 1.6703 0
M  V30 4707 H 433.799 -3.1762 2.68497 0
M  V30 4708 H 432.376 -3.61693 0.907323 0
M  V30 4709 N 434.561 -1.01147 -1.20859 0
M  V30 4710 C 435.972 -0.730205 -1.71828 0
M  V30 4711 C 436.323 0.751662 -1.8123 0
M  V30 4712 O 435.448 1.58686 -1.47132 0
M  V30 4713 C 436.043 -1.31885 -3.12077 0
M  V30 4714 C 434.602 -1.08656 -3.60376 0
M  V30 4715 C 433.749 -1.42769 -2.37723 0
M  V30 4716 H 436.7 -1.18158 -1.05945 0
M  V30 4717 H 436.721 -0.706793 -3.73878 0
M  V30 4718 H 436.233 -2.39737 -3.05201 0
M  V30 4719 H 434.334 -0.0254814 -3.72591 0
M  V30 4720 H 434.447 -1.76301 -4.45483 0
M  V30 4721 H 432.811 -0.846603 -2.40218 0
M  V30 4722 H 433.594 -2.51666 -2.33493 0
M  V30 4723 N 436.039 1.36541 -0.78704 0
M  V30 4724 C 437.288 1.98552 -0.35494 0
M  V30 4725 C 437.601 1.63171 1.07864 0
M  V30 4726 O 438.807 2.18399 1.61289 0
M  V30 4727 C 437.263 3.55136 -0.583671 0
M  V30 4728 C 436.871 3.99444 -2.02851 0
M  V30 4729 C 438.615 4.2395 -0.215957 0
M  V30 4730 C 436.522 5.48796 -2.20403 0
M  V30 4731 H 435.452 0.742888 -0.128972 0
M  V30 4732 H 438.103 1.5587 -0.968337 0
M  V30 4733 H 436.485 3.95875 0.0994046 0
M  V30 4734 H 437.659 3.6991 -2.74779 0
M  V30 4735 H 435.974 3.43459 -2.35425 0
M  V30 4736 H 438.571 5.33709 -0.325405 0
M  V30 4737 H 438.914 4.07827 0.835646 0
M  V30 4738 H 439.447 3.88565 -0.852175 0
M  V30 4739 H 436.186 5.69864 -3.23937 0
M  V30 4740 H 435.706 5.79964 -1.52977 0
M  V30 4741 H 437.385 6.14986 -2.01002 0
M  V30 4742 N 437.518 0.538854 1.48102 0
M  V30 4743 C 438.767 0.0059532 2.01699 0
M  V30 4744 C 439.08 -1.34476 1.42041 0
M  V30 4745 O 440.286 -1.96653 1.87189 0
M  V30 4746 C 438.742 -0.0397627 3.59878 0
M  V30 4747 C 438.35 1.30659 4.28523 0
M  V30 4748 C 440.094 -0.521024 4.2129 0
M  V30 4749 C 438.001 1.22098 5.78659 0
M  V30 4750 H 436.931 -0.00154456 0.753998 0
M  V30 4751 H 439.582 0.683963 1.70277 0
M  V30 4752 H 437.964 -0.783037 3.88181 0
M  V30 4753 H 439.138 2.06613 4.11883 0
M  V30 4754 H 437.453 1.7243 3.79021 0
M  V30 4755 H 440.05 -0.603184 5.31287 0
M  V30 4756 H 440.393 -1.52885 3.8721 0
M  V30 4757 H 440.926 0.166834 3.9745 0
M  V30 4758 H 437.665 2.20424 6.17328 0
M  V30 4759 H 437.185 0.50295 5.97688 0
M  V30 4760 H 438.864 0.915345 6.40492 0
M  V30 4761 N 438.996 -1.55193 0.274407 0
M  V30 4762 C 440.245 -1.98758 -0.343213 0
M  V30 4763 C 440.558 -1.16624 -1.5703 0
M  V30 4764 O 441.764 -1.5033 -2.26082 0
M  V30 4765 C 440.22 -3.53759 -0.661996 0
M  V30 4766 C 439.828 -4.4467 0.54524 0
M  V30 4767 C 441.572 -4.05916 -1.24228 0
M  V30 4768 C 439.479 -5.91058 0.201084 0
M  V30 4769 H 438.409 -0.742353 -0.132014 0
M  V30 4770 H 441.06 -1.79545 0.378948 0
M  V30 4771 H 439.442 -3.68772 -1.44304 0
M  V30 4772 H 440.616 -4.41426 1.32212 0
M  V30 4773 H 438.931 -4.03143 1.04232 0
M  V30 4774 H 441.528 -5.12831 -1.51357 0
M  V30 4775 H 441.871 -3.54908 -2.17592 0
M  V30 4776 H 442.404 -3.9434 -0.523542 0
M  V30 4777 H 439.143 -6.46161 1.10258 0
M  V30 4778 H 438.663 -5.97373 -0.539045 0
M  V30 4779 H 440.342 -6.46669 -0.206954 0
M  V30 4780 N 440.474 -0.00167713 -1.576 0
M  V30 4781 C 441.702 0.693759 -1.94922 0
M  V30 4782 C 442.117 1.67215 -0.876626 0
M  V30 4783 O 441.474 1.81929 0.144279 0
M  V30 4784 C 441.525 1.42416 -3.32265 0
M  V30 4785 O 441.246 0.485014 -4.35407 0
M  V30 4786 C 442.747 2.21395 -3.84056 0
M  V30 4787 H 439.967 0.193118 -0.642609 0
M  V30 4788 H 442.511 -0.0532952 -2.04431 0
M  V30 4789 H 440.666 2.12284 -3.24059 0
M  V30 4790 H 441.08 1.00053 -5.14868 0
M  V30 4791 H 442.554 2.67996 -4.82578 0
M  V30 4792 H 443.031 3.04142 -3.16851 0
M  V30 4793 H 443.637 1.56542 -3.95443 0
M  V30 4794 N 441.952 1.55251 0.271103 0
M  V30 4795 C 443.201 1.75151 1.00025 0
M  V30 4796 C 443.514 0.561041 1.87381 0
M  V30 4797 O 444.72 0.642506 2.63788 0
M  V30 4798 C 443.176 3.09999 1.82835 0
M  V30 4799 C 442.784 4.3662 1.00336 0
M  V30 4800 C 444.528 3.39249 2.55168 0
M  V30 4801 C 442.435 5.62506 1.82595 0
M  V30 4802 H 441.365 0.652877 0.377183 0
M  V30 4803 H 444.016 1.81708 0.255843 0
M  V30 4804 H 442.398 2.97485 2.61378 0
M  V30 4805 H 443.572 4.60055 0.261959 0
M  V30 4806 H 441.887 4.14527 0.394486 0
M  V30 4807 H 444.484 4.3051 3.1712 0
M  V30 4808 H 444.827 2.59467 3.2555 0
M  V30 4809 H 445.36 3.52869 1.83653 0
M  V30 4810 H 442.099 6.45041 1.16631 0
M  V30 4811 H 441.619 5.43211 2.54327 0
M  V30 4812 H 443.298 6.00875 2.39913 0
M  V30 4813 N 443.43 -0.535701 1.48216 0
M  V30 4814 C 444.36 -1.65014 1.65204 0
M  V30 4815 C 445.341 -1.62554 0.501011 0
M  V30 4816 O 446.526 -1.7984 0.732886 0
M  V30 4817 C 443.656 -3.03616 1.68626 0
M  V30 4818 C 442.61 -3.20932 2.83172 0
M  V30 4819 C 441.936 -4.60537 2.71679 0
M  V30 4820 C 443.236 -3.04249 4.24535 0
M  V30 4821 H 444.93 -1.51053 2.58502 0
M  V30 4822 H 442.476 -0.725262 1.24402 0
M  V30 4823 H 444.429 -3.81446 1.79099 0
M  V30 4824 H 443.153 -3.18587 0.719026 0
M  V30 4825 H 441.812 -2.45517 2.72244 0
M  V30 4826 H 441.46 -4.72336 1.72937 0
M  V30 4827 H 441.16 -4.73069 3.48538 0
M  V30 4828 H 442.684 -5.40475 2.84112 0
M  V30 4829 H 444.098 -3.71877 4.36326 0
M  V30 4830 H 442.495 -3.28278 5.02348 0
M  V30 4831 H 443.565 -2.00739 4.41397 0
M  V30 4832 N 444.908 -1.36708 -0.784132 0
M  V30 4833 C 445.838 -1.34153 -1.91116 0
M  V30 4834 C 446.819 -0.212121 -1.68772 0
M  V30 4835 O 448.004 -0.410581 -1.8981 0
M  V30 4836 C 445.134 -1.13535 -3.28218 0
M  V30 4837 C 444.088 -2.23356 -3.65097 0
M  V30 4838 C 443.414 -1.87875 -5.00607 0
M  V30 4839 C 444.714 -3.65473 -3.73131 0
M  V30 4840 H 446.408 -2.28459 -1.93512 0
M  V30 4841 H 443.954 -1.09973 -0.929618 0
M  V30 4842 H 445.907 -1.10381 -4.06687 0
M  V30 4843 H 444.631 -0.156804 -3.26223 0
M  V30 4844 H 443.29 -2.25645 -2.88929 0
M  V30 4845 H 442.938 -0.885814 -4.95139 0
M  V30 4846 H 442.638 -2.61406 -5.26252 0
M  V30 4847 H 444.162 -1.86286 -5.81489 0
M  V30 4848 H 445.576 -3.65382 -4.41779 0
M  V30 4849 H 443.973 -4.37953 -4.10265 0
M  V30 4850 H 445.043 -3.99995 -2.74102 0
M  V30 4851 N 446.386 1.0089 -1.21074 0
M  V30 4852 C 447.635 1.74019 -1.01981 0
M  V30 4853 C 447.948 1.90408 0.447665 0
M  V30 4854 O 449.154 2.60707 0.757906 0
M  V30 4855 C 447.61 3.13026 -1.77603 0
M  V30 4856 C 447.218 3.04623 -3.28495 0
M  V30 4857 C 448.962 3.90312 -1.66904 0
M  V30 4858 C 446.869 4.38685 -3.96623 0
M  V30 4859 H 445.799 0.652422 -0.377971 0
M  V30 4860 H 448.45 1.12755 -1.44771 0
M  V30 4861 H 446.832 3.74878 -1.27604 0
M  V30 4862 H 448.006 2.52032 -3.85767 0
M  V30 4863 H 446.321 2.40827 -3.39693 0
M  V30 4864 H 448.918 4.8951 -2.15138 0
M  V30 4865 H 449.261 4.11558 -0.62658 0
M  V30 4866 H 449.794 3.35104 -2.14359 0
M  V30 4867 H 446.533 4.22641 -5.01054 0
M  V30 4868 H 446.053 4.91252 -3.4414 0
M  V30 4869 H 447.732 5.075 -4.01314 0
M  V30 4870 N 447.864 1.01787 1.20321 0
M  V30 4871 C 448.794 0.609625 2.25401 0
M  V30 4872 C 449.775 -0.375951 1.65893 0
M  V30 4873 O 450.96 -0.261101 1.92437 0
M  V30 4874 C 448.09 -0.0515995 3.47262 0
M  V30 4875 C 447.044 0.855095 4.19371 0
M  V30 4876 C 446.37 0.0595757 5.34667 0
M  V30 4877 C 447.67 2.16374 4.75373 0
M  V30 4878 H 449.364 1.48803 2.59804 0
M  V30 4879 H 446.91 0.716934 1.24884 0
M  V30 4880 H 448.863 -0.348764 4.19954 0
M  V30 4881 H 447.587 -0.964726 3.12027 0
M  V30 4882 H 446.246 1.13628 3.48546 0
M  V30 4883 H 445.894 -0.85524 4.95676 0
M  V30 4884 H 445.594 0.663406 5.83843 0
M  V30 4885 H 447.118 -0.231105 6.10162 0
M  V30 4886 H 448.532 1.92885 5.39878 0
M  V30 4887 H 446.929 2.71853 5.34991 0
M  V30 4888 H 447.999 2.82589 3.94045 0
M  V30 4889 N 449.342 -1.36122 0.79427 0
M  V30 4890 C 450.591 -1.98361 0.365464 0
M  V30 4891 C 450.904 -1.6374 -1.06997 0
M  V30 4892 O 452.11 -2.19251 -1.60129 0
M  V30 4893 C 450.566 -3.54821 0.602496 0
M  V30 4894 C 450.174 -3.98362 2.04967 0
M  V30 4895 C 451.918 -4.2383 0.238437 0
M  V30 4896 C 449.825 -5.47619 2.2331 0
M  V30 4897 H 448.755 -0.742193 0.13291 0
M  V30 4898 H 451.406 -1.55354 0.976589 0
M  V30 4899 H 449.788 -3.95922 -0.078409 0
M  V30 4900 H 450.962 -3.68447 2.76737 0
M  V30 4901 H 449.277 -3.42206 2.37243 0
M  V30 4902 H 451.874 -5.33529 0.353705 0
M  V30 4903 H 452.217 -4.08264 -0.814006 0
M  V30 4904 H 452.75 -3.88108 0.872769 0
M  V30 4905 H 449.489 -5.68138 3.26955 0
M  V30 4906 H 449.009 -5.79145 1.5605 0
M  V30 4907 H 450.688 -6.13911 2.0426 0
M  V30 4908 N 450.82 -0.546701 -1.47814 0
M  V30 4909 C 451.752 0.244196 -2.27895 0
M  V30 4910 C 452.765 0.88911 -1.36377 0
M  V30 4911 O 453.954 0.764733 -1.61289 0
M  V30 4912 C 451.054 1.36252 -3.10304 0
M  V30 4913 C 450.227 0.816382 -4.29714 0
M  V30 4914 C 449.286 1.81789 -4.93801 0
M  V30 4915 O 448.312 1.36818 -5.52512 0
M  V30 4916 N 449.514 3.15085 -4.87547 0
M  V30 4917 H 452.279 -0.442694 -2.96412 0
M  V30 4918 H 449.84 -0.382095 -1.57327 0
M  V30 4919 H 451.832 2.03102 -3.50045 0
M  V30 4920 H 450.402 1.95281 -2.44099 0
M  V30 4921 H 449.622 -0.0285981 -3.9419 0
M  V30 4922 H 450.91 0.430668 -5.06974 0
M  V30 4923 H 450.308 3.54275 -4.41028 0
M  V30 4924 H 448.865 3.77522 -5.31339 0
M  V30 4925 N 452.299 1.55045 -0.282633 0
M  V30 4926 C 453.247 2.24254 0.617478 0
M  V30 4927 C 454.241 1.24215 1.15183 0
M  V30 4928 O 455.447 1.42123 1.10459 0
M  V30 4929 H 451.822 0.719801 0.217693 0
M  V30 4930 H 453.793 2.98398 0.0110076 0
M  V30 4931 C 452.542 2.98281 1.78672 0
M  V30 4932 H 451.865 3.75053 1.38475 0
M  V30 4933 H 453.305 3.50017 2.393 0
M  V30 4934 C 451.764 2.04184 2.67975 0
M  V30 4935 O 452.294 1.59792 3.6855 0
M  V30 4936 N 450.5 1.70526 2.35307 0
M  V30 4937 H 450.047 2.06821 1.53567 0
M  V30 4938 H 450.005 1.07839 2.95327 0
M  V30 4939 N 453.777 0.010035 1.57597 0
M  V30 4940 C 455.024 -0.6727 1.91 0
M  V30 4941 C 455.352 -1.73219 0.884614 0
M  V30 4942 O 454.607 -1.95395 -0.109215 0
M  V30 4943 C 454.906 -1.34434 3.31153 0
M  V30 4944 C 454.572 -0.417083 4.48967 0
M  V30 4945 C 453.234 -0.161809 4.80928 0
M  V30 4946 C 455.586 0.220753 5.20732 0
M  V30 4947 C 452.914 0.739426 5.82022 0
M  V30 4948 C 455.266 1.10993 6.22787 0
M  V30 4949 C 453.93 1.37428 6.532 0
M  V30 4950 H 453.2 -0.246158 0.698918 0
M  V30 4951 H 455.847 0.0677145 1.9138 0
M  V30 4952 H 454.152 -2.15905 3.26944 0
M  V30 4953 H 455.849 -1.87883 3.54261 0
M  V30 4954 H 452.439 -0.626217 4.24001 0
M  V30 4955 H 456.623 0.0365643 4.96287 0
M  V30 4956 H 451.879 0.952139 6.03941 0
M  V30 4957 H 456.053 1.61046 6.77523 0
M  V30 4958 H 453.68 2.0743 7.31353 0
M  V30 4959 N 455.255 -1.55392 -0.262866 0
M  V30 4960 C 456.202 -1.88966 -1.32516 0
M  V30 4961 C 457.172 -0.742187 -1.48596 0
M  V30 4962 O 458.357 -0.99439 -1.62839 0
M  V30 4963 C 455.497 -2.17592 -2.67858 0
M  V30 4964 C 454.61 -3.45061 -2.59917 0
M  V30 4965 C 453.745 -3.63336 -3.87505 0
M  V30 4966 C 452.784 -4.84462 -3.74116 0
M  V30 4967 N 451.921 -4.99342 -4.93561 0
M  V30 4968 H 456.761 -2.79566 -1.03184 0
M  V30 4969 H 454.298 -1.38404 -0.498285 0
M  V30 4970 H 456.256 -2.3219 -3.46617 0
M  V30 4971 H 454.886 -1.30215 -2.95371 0
M  V30 4972 H 453.938 -3.38881 -1.72812 0
M  V30 4973 H 455.25 -4.3396 -2.45926 0
M  V30 4974 H 454.404 -3.77807 -4.74707 0
M  V30 4975 H 453.143 -2.72641 -4.04374 0
M  V30 4976 H 452.148 -4.69985 -2.85297 0
M  V30 4977 H 453.373 -5.76603 -3.58757 0
M  V30 4978 H 451.319 -4.1158 -5.10821 0
M  V30 4979 H 451.236 -5.82303 -4.82141 0
M  V30 4980 H 452.504 -5.18208 -5.82306 0
M  V30 4981 N 456.733 0.527833 -1.48498 0
M  V30 4982 C 457.665 1.6482 -1.5927 0
M  V30 4983 C 458.678 1.55659 -0.476869 0
M  V30 4984 O 459.867 1.62081 -0.747806 0
M  V30 4985 C 456.967 3.0348 -1.50842 0
M  V30 4986 C 456.14 3.381 -2.77502 0
M  V30 4987 C 455.199 4.5605 -2.62497 0
M  V30 4988 O 454.225 4.59165 -3.36387 0
M  V30 4989 N 455.427 5.54353 -1.72257 0
M  V30 4990 H 458.192 1.56015 -2.55889 0
M  V30 4991 H 455.753 0.715152 -1.45249 0
M  V30 4992 H 457.745 3.80264 -1.38496 0
M  V30 4993 H 456.315 3.06352 -0.621887 0
M  V30 4994 H 455.535 2.50473 -3.04396 0
M  V30 4995 H 456.823 3.58017 -3.61527 0
M  V30 4996 H 456.221 5.54617 -1.11431 0
M  V30 4997 H 454.778 6.30347 -1.65849 0
M  V30 4998 N 458.211 1.37122 0.776871 0
M  V30 4999 C 459.488 1.22586 1.52421 0
M  V30 5000 C 459.868 -0.182726 2.10308 0
M  V30 5001 O 459.216 -1.18979 1.9508 0
M  V30 5002 C 459.426 2.31782 2.60918 0
M  V30 5003 C 460.774 2.69071 3.2846 0
M  V30 5004 O 461.798 2.3092 2.71209 0
M  V30 5005 O 460.657 3.3478 4.31954 0
M  V30 5006 H 457.751 0.478045 0.674835 0
M  V30 5007 H 460.297 1.48888 0.814275 0
M  V30 5008 H 459.069 3.26131 2.16227 0
M  V30 5009 H 458.692 2.06916 3.39517 0
M  V30 5010 N 459.689 -1.00246 1.21608 0
M  V30 5011 C 460.619 -2.10921 1.00172 0
M  V30 5012 C 461.6 -1.69938 -0.0741587 0
M  V30 5013 O 462.785 -1.94009 0.0861753 0
M  V30 5014 C 459.915 -3.42618 0.568355 0
M  V30 5015 C 458.869 -3.97407 1.58909 0
M  V30 5016 C 458.195 -5.25038 1.01187 0
M  V30 5017 C 459.495 -4.2918 2.97661 0
M  V30 5018 H 461.189 -2.29112 1.92739 0
M  V30 5019 H 458.735 -1.10101 0.928102 0
M  V30 5020 H 460.688 -4.19444 0.405555 0
M  V30 5021 H 459.412 -3.24227 -0.392961 0
M  V30 5022 H 458.071 -3.22703 1.73949 0
M  V30 5023 H 457.719 -5.02982 0.0421965 0
M  V30 5024 H 457.419 -5.62661 1.6937 0
M  V30 5025 H 458.943 -6.04507 0.860448 0
M  V30 5026 H 460.357 -4.96839 2.86049 0
M  V30 5027 H 458.754 -4.77952 3.6288 0
M  V30 5028 H 459.824 -3.3735 3.48315 0
M  V30 5029 N 461.167 -1.02423 -1.1978 0
M  V30 5030 C 462.413 -0.719051 -1.89625 0
M  V30 5031 C 462.746 0.750083 -1.7913 0
M  V30 5032 O 462.021 1.54574 -1.18056 0
M  V30 5033 C 462.304 -1.16499 -3.40735 0
M  V30 5034 C 462.157 -2.695 -3.60125 0
M  V30 5035 C 463.476 -0.742166 -4.33797 0
M  V30 5036 H 460.595 -0.26269 -0.688595 0
M  V30 5037 H 463.237 -1.27333 -1.41018 0
M  V30 5038 H 461.387 -0.69341 -3.82262 0
M  V30 5039 H 463.059 -3.24569 -3.278 0
M  V30 5040 H 461.302 -3.10113 -3.03336 0
M  V30 5041 H 461.973 -2.95757 -4.66081 0
M  V30 5042 H 464.449 -1.1477 -3.99959 0
M  V30 5043 H 463.325 -1.08213 -5.38127 0
M  V30 5044 H 463.586 0.355747 -4.40666 0
M  V30 5045 N 462.645 1.35699 -0.801477 0
M  V30 5046 C 463.894 1.98165 -0.375979 0
M  V30 5047 C 464.207 1.64306 1.06127 0
M  V30 5048 O 465.413 2.20097 1.58964 0
M  V30 5049 C 463.869 3.54497 -0.621305 0
M  V30 5050 C 463.477 3.9727 -2.07076 0
M  V30 5051 C 465.221 4.23697 -0.26091 0
M  V30 5052 C 463.128 5.46427 -2.26211 0
M  V30 5053 H 462.058 0.741478 -0.136844 0
M  V30 5054 H 464.709 1.54834 -0.984814 0
M  V30 5055 H 463.091 3.95958 0.0574112 0
M  V30 5056 H 464.265 3.66974 -2.78687 0
M  V30 5057 H 462.58 3.40943 -2.39054 0
M  V30 5058 H 465.177 5.33334 -0.381994 0
M  V30 5059 H 465.52 4.0869 0.792344 0
M  V30 5060 H 466.053 3.87639 -0.893339 0
M  V30 5061 H 462.792 5.66396 -3.29963 0
M  V30 5062 H 462.312 5.78309 -1.59119 0
M  V30 5063 H 463.991 6.12819 -2.07513 0
M  V30 5064 N 464.123 0.554532 1.47522 0
M  V30 5065 C 465.369 0.0377449 2.03365 0
M  V30 5066 C 465.724 -1.29654 1.42154 0
M  V30 5067 O 465.017 -1.83022 0.566865 0
M  V30 5068 C 465.211 -0.115927 3.57212 0
M  V30 5069 C 465.04 1.20191 4.33341 0
M  V30 5070 C 463.81 1.76849 4.73342 0
M  V30 5071 C 466.008 2.11849 4.68641 0
M  V30 5072 N 463.99 3.02665 5.34104 0
M  V30 5073 C 465.361 3.22245 5.29677 0
M  V30 5074 C 467.416 2.11876 4.5057 0
M  V30 5075 C 466.119 4.32763 5.74551 0
M  V30 5076 C 468.145 3.21405 4.9644 0
M  V30 5077 C 467.507 4.30519 5.57523 0
M  V30 5078 H 463.606 0.0559107 0.779999 0
M  V30 5079 H 466.19 0.741232 1.80038 0
M  V30 5080 H 464.361 -0.788533 3.80311 0
M  V30 5081 H 466.093 -0.634538 3.99695 0
M  V30 5082 H 462.848 1.30681 4.55214 0
M  V30 5083 H 463.272 3.66788 5.69031 0
M  V30 5084 H 467.914 1.28801 4.02704 0
M  V30 5085 H 465.632 5.166 6.2141 0
M  V30 5086 H 469.218 3.22509 4.8423 0
M  V30 5087 H 468.098 5.13873 5.92371 0
M  V30 5088 N 465.601 -1.54893 0.290851 0
M  V30 5089 C 467.012 -1.85584 -0.203816 0
M  V30 5090 C 467.363 -1.21285 -1.54222 0
M  V30 5091 O 466.488 -0.506841 -2.10381 0
M  V30 5092 C 467.083 -3.367 -0.376595 0
M  V30 5093 C 465.642 -3.6746 -0.815485 0
M  V30 5094 C 464.789 -2.77178 0.0821087 0
M  V30 5095 H 467.74 -1.50208 0.512175 0
M  V30 5096 H 467.761 -3.60656 -1.21275 0
M  V30 5097 H 467.273 -3.8347 0.59767 0
M  V30 5098 H 465.374 -3.26201 -1.80066 0
M  V30 5099 H 465.487 -4.7478 -0.641905 0
M  V30 5100 H 463.851 -2.50925 -0.436895 0
M  V30 5101 H 464.634 -3.26767 1.05254 0
M  V30 5102 N 467.08 -0.0183926 -1.57589 0
M  V30 5103 C 468.305 0.676634 -1.96052 0
M  V30 5104 C 468.73 1.6548 -0.894307 0
M  V30 5105 O 468.088 1.80712 0.145849 0
M  V30 5106 C 468.136 1.36872 -3.33614 0
M  V30 5107 O 467.24 2.48372 -3.29219 0
M  V30 5108 H 466.581 0.1786 -0.63953 0
M  V30 5109 H 469.111 -0.077056 -2.04455 0
M  V30 5110 H 469.121 1.72797 -3.69601 0
M  V30 5111 H 467.796 0.651636 -4.10763 0
M  V30 5112 H 466.373 2.14639 -3.04934 0
M  V30 5113 N 468.558 1.5553 0.254621 0
M  V30 5114 C 469.488 1.9268 1.31897 0
M  V30 5115 C 470.469 0.790797 1.506 0
M  V30 5116 O 471.654 1.05045 1.63337 0
M  V30 5117 C 468.784 2.21477 2.67517 0
M  V30 5118 C 467.738 3.37256 2.63519 0
M  V30 5119 C 467.064 3.51576 4.02862 0
M  V30 5120 C 468.364 4.73157 2.21179 0
M  V30 5121 H 470.058 2.81832 1.01051 0
M  V30 5122 H 467.604 1.35599 0.484662 0
M  V30 5123 H 469.557 2.46055 3.42104 0
M  V30 5124 H 468.281 1.29144 2.99982 0
M  V30 5125 H 466.94 3.12675 1.9139 0
M  V30 5126 H 466.588 2.56676 4.32581 0
M  V30 5127 H 466.288 4.2943 4.01078 0
M  V30 5128 H 467.812 3.78467 4.79161 0
M  V30 5129 H 469.226 4.97158 2.85494 0
M  V30 5130 H 467.623 5.54058 2.30521 0
M  V30 5131 H 468.693 4.70739 1.16332 0
M  V30 5132 N 470.036 -0.519951 1.48776 0
M  V30 5133 C 471.283 -1.27522 1.57303 0
M  V30 5134 C 471.611 -1.92869 0.251328 0
M  V30 5135 O 470.866 -1.80372 -0.759243 0
M  V30 5136 C 471.165 -2.37864 2.6675 0
M  V30 5137 C 470.831 -1.90103 4.08867 0
M  V30 5138 C 469.493 -1.76795 4.47546 0
M  V30 5139 C 471.845 -1.54133 4.97888 0
M  V30 5140 C 469.173 -1.25868 5.73039 0
M  V30 5141 C 471.525 -1.04665 6.23881 0
M  V30 5142 C 470.189 -0.899823 6.61407 0
M  V30 5143 H 469.459 -0.466636 0.575614 0
M  V30 5144 H 472.106 -0.579109 1.82534 0
M  V30 5145 H 470.411 -3.13186 2.35418 0
M  V30 5146 H 472.108 -2.95969 2.70561 0
M  V30 5147 H 468.698 -2.01414 3.78326 0
M  V30 5148 H 472.882 -1.6327 4.68675 0
M  V30 5149 H 468.138 -1.13196 6.0083 0
M  V30 5150 H 472.312 -0.759074 6.92251 0
M  V30 5151 H 469.939 -0.503011 7.58534 0
M  V30 5152 N 471.514 -1.37532 -0.769588 0
M  V30 5153 C 472.761 -1.3286 -1.52822 0
M  V30 5154 C 473.089 0.0862597 -1.94309 0
M  V30 5155 O 472.344 1.05995 -1.6451 0
M  V30 5156 C 472.643 -2.21558 -2.8044 0
M  V30 5157 C 472.309 -3.69796 -2.57996 0
M  V30 5158 C 470.971 -4.10194 -2.51583 0
M  V30 5159 C 473.323 -4.63699 -2.37976 0
M  V30 5160 C 470.651 -5.42608 -2.23144 0
M  V30 5161 C 473.003 -5.96353 -2.1106 0
M  V30 5162 C 471.667 -6.35853 -2.03093 0
M  V30 5163 H 470.937 -0.486168 -0.559215 0
M  V30 5164 H 473.584 -1.69757 -0.886277 0
M  V30 5165 H 471.889 -1.77663 -3.49204 0
M  V30 5166 H 473.586 -2.15256 -3.38328 0
M  V30 5167 H 470.176 -3.37759 -2.63851 0
M  V30 5168 H 474.36 -4.33346 -2.41919 0
M  V30 5169 H 469.616 -5.72173 -2.15472 0
M  V30 5170 H 473.79 -6.68667 -1.94568 0
M  V30 5171 H 471.417 -7.38382 -1.8082 0
M  V30 5172 N 472.992 0.995999 -1.22138 0
M  V30 5173 C 474.238 1.7386 -1.05567 0
M  V30 5174 C 474.593 1.8808 0.405418 0
M  V30 5175 O 473.886 1.41062 1.29661 0
M  V30 5176 C 474.08 3.14553 -1.6968 0
M  V30 5177 C 473.909 3.14053 -3.21871 0
M  V30 5178 C 472.679 3.20121 -3.90961 0
M  V30 5179 C 474.877 2.98451 -4.18845 0
M  V30 5180 N 472.859 3.09342 -5.30265 0
M  V30 5181 C 474.23 2.95667 -5.4496 0
M  V30 5182 C 476.285 2.8282 -4.09777 0
M  V30 5183 C 474.988 2.78852 -6.63049 0
M  V30 5184 C 477.014 2.67364 -5.27513 0
M  V30 5185 C 476.376 2.65264 -6.52544 0
M  V30 5186 H 472.475 0.645989 -0.440706 0
M  V30 5187 H 475.059 1.1831 -1.54631 0
M  V30 5188 H 473.23 3.68353 -1.2317 0
M  V30 5189 H 474.962 3.77358 -1.4623 0
M  V30 5190 H 471.717 3.27679 -3.4194 0
M  V30 5191 H 472.141 3.0727 -6.03253 0
M  V30 5192 H 476.783 2.83243 -3.139 0
M  V30 5193 H 474.501 2.77175 -7.59078 0
M  V30 5194 H 478.087 2.56256 -5.22326 0
M  V30 5195 H 476.967 2.5345 -7.42114 0
M  V30 5196 N 474.47 1.03057 1.19235 0
M  V30 5197 C 475.716 0.729098 1.89241 0
M  V30 5198 C 476.049 -0.740573 1.79525 0
M  V30 5199 O 475.324 -1.53946 1.18874 0
M  V30 5200 C 475.607 1.18304 3.40112 0
M  V30 5201 C 475.46 2.71406 3.5869 0
M  V30 5202 C 476.779 0.765161 4.33397 0
M  V30 5203 H 473.898 0.266338 0.687192 0
M  V30 5204 H 476.54 1.28079 1.40341 0
M  V30 5205 H 474.69 0.713672 3.81889 0
M  V30 5206 H 476.362 3.26303 3.26074 0
M  V30 5207 H 474.605 3.11717 3.01687 0
M  V30 5208 H 475.276 2.98225 4.64506 0
M  V30 5209 H 477.752 1.16889 3.99345 0
M  V30 5210 H 476.628 1.11065 5.37546 0
M  V30 5211 H 476.889 -0.332372 4.40849 0
M  V30 5212 N 475.948 -1.35272 0.808662 0
M  V30 5213 C 477.194 -1.99003 0.390581 0
M  V30 5214 C 477.527 -1.63999 -1.0401 0
M  V30 5215 O 476.802 -0.904368 -1.72196 0
M  V30 5216 C 477.085 -3.55454 0.576566 0
M  V30 5217 C 476.938 -4.00249 2.05233 0
M  V30 5218 C 478.257 -4.401 0.00354277 0
M  V30 5219 H 475.376 -0.722917 0.143388 0
M  V30 5220 H 478.018 -1.6039 1.01858 0
M  V30 5221 H 476.168 -3.88477 0.0419766 0
M  V30 5222 H 477.84 -3.77626 2.64946 0
M  V30 5223 H 476.083 -3.51082 2.54801 0
M  V30 5224 H 476.754 -5.0911 2.13333 0
M  V30 5225 H 479.23 -4.13548 0.460117 0
M  V30 5226 H 478.106 -5.48656 0.163575 0
M  V30 5227 H 478.367 -4.28444 -1.09032 0
M  V30 5228 N 477.426 -0.562348 -1.47226 0
M  V30 5229 C 478.389 0.172056 -2.28553 0
M  V30 5230 C 479.389 0.837928 -1.37242 0
M  V30 5231 O 480.579 0.693001 -1.59822 0
M  V30 5232 C 477.711 1.25223 -3.17068 0
M  V30 5233 H 478.904 -0.542401 -2.94954 0
M  V30 5234 H 476.457 -0.319493 -1.53 0
M  V30 5235 H 477.192 1.99892 -2.55369 0
M  V30 5236 H 476.977 0.779515 -3.84273 0
M  V30 5237 H 478.467 1.76791 -3.78332 0
M  V30 5238 N 478.904 1.54736 -0.299062 0
M  V30 5239 C 480.151 2.00101 0.310784 0
M  V30 5240 C 480.479 1.18746 1.54045 0
M  V30 5241 O 479.734 0.251198 1.94081 0
M  V30 5242 C 480.033 3.50199 0.713835 0
M  V30 5243 C 479.699 4.48997 -0.413873 0
M  V30 5244 C 478.361 4.7573 -0.723462 0
M  V30 5245 C 480.713 5.07839 -1.17257 0
M  V30 5246 C 478.041 5.5857 -1.79491 0
M  V30 5247 C 480.393 5.91844 -2.23392 0
M  V30 5248 C 479.057 6.16889 -2.54959 0
M  V30 5249 H 478.327 0.732221 0.113724 0
M  V30 5250 H 480.974 1.86888 -0.417756 0
M  V30 5251 H 479.279 3.61012 1.52243 0
M  V30 5252 H 480.976 3.82723 1.19684 0
M  V30 5253 H 477.566 4.28292 -0.162476 0
M  V30 5254 H 481.75 4.87188 -0.946651 0
M  V30 5255 H 477.006 5.76213 -2.04423 0
M  V30 5256 H 481.18 6.36465 -2.8264 0
M  V30 5257 H 478.807 6.80869 -3.38114 0
M  V30 5258 N 480.382 0.0267497 1.57577 0
M  V30 5259 C 481.61 -0.662661 1.96001 0
M  V30 5260 C 482.025 -1.65799 0.903117 0
M  V30 5261 O 481.382 -1.82135 -0.115317 0
M  V30 5262 C 481.433 -1.37112 3.34488 0
M  V30 5263 O 481.154 -0.415683 4.36123 0
M  V30 5264 C 482.655 -2.15257 3.8753 0
M  V30 5265 H 479.875 -0.18287 0.6456 0
M  V30 5266 H 482.419 0.0858116 2.0432 0
M  V30 5267 H 480.574 -2.07101 3.27395 0
M  V30 5268 H 480.988 -0.918496 5.16395 0
M  V30 5269 H 482.462 -2.60285 4.86781 0
M  V30 5270 H 482.939 -2.99063 3.21649 0
M  V30 5271 H 483.545 -1.50231 3.97883 0
M  V30 5272 N 481.861 -1.55662 -0.24637 0
M  V30 5273 C 483.108 -1.77519 -0.974335 0
M  V30 5274 C 483.436 -0.591165 -1.85298 0
M  V30 5275 O 482.691 0.425497 -1.91018 0
M  V30 5276 C 482.99 -3.04885 -1.86494 0
M  V30 5277 C 482.656 -4.36209 -1.14161 0
M  V30 5278 C 481.318 -4.71896 -0.941701 0
M  V30 5279 C 483.67 -5.17391 -0.628957 0
M  V30 5280 C 480.998 -5.86299 -0.216852 0
M  V30 5281 C 483.35 -6.32546 0.0824273 0
M  V30 5282 C 482.014 -6.66853 0.293807 0
M  V30 5283 H 481.284 -0.649588 -0.356535 0
M  V30 5284 H 483.931 -1.89934 -0.244394 0
M  V30 5285 H 482.236 -2.87484 -2.66196 0
M  V30 5286 H 483.933 -3.18994 -2.42989 0
M  V30 5287 H 480.523 -4.08174 -1.30736 0
M  V30 5288 H 484.707 -4.90276 -0.770943 0
M  V30 5289 H 479.963 -6.11385 -0.0426124 0
M  V30 5290 H 484.137 -6.94693 0.487292 0
M  V30 5291 H 481.764 -7.55349 0.857428 0
M  V30 5292 N 483.339 0.512053 -1.4905 0
M  V30 5293 C 484.302 1.59704 -1.64399 0
M  V30 5294 C 485.302 1.52285 -0.516317 0
M  V30 5295 O 486.492 1.55635 -0.782527 0
M  V30 5296 C 483.624 2.9935 -1.63102 0
M  V30 5297 H 484.817 1.47428 -2.61161 0
M  V30 5298 H 482.37 0.735469 -1.37915 0
M  V30 5299 H 483.105 3.17116 -0.678836 0
M  V30 5300 H 482.89 3.06144 -2.44986 0
M  V30 5301 H 484.38 3.782 -1.77072 0
M  V30 5302 N 484.817 1.37938 0.762283 0
M  V30 5303 C 485.765 1.34569 1.89721 0
M  V30 5304 C 486.759 0.232929 1.67791 0
M  V30 5305 O 487.965 0.401485 1.75465 0
M  V30 5306 H 484.34 0.419594 0.624055 0
M  V30 5307 H 486.311 2.30357 1.8968 0
M  V30 5308 C 485.06 1.17898 3.27101 0
M  V30 5309 H 484.383 2.02781 3.44558 0
M  V30 5310 H 485.823 1.19593 4.06784 0
M  V30 5311 C 484.282 -0.114728 3.36705 0
M  V30 5312 O 484.812 -1.0949 3.8649 0
M  V30 5313 N 483.018 -0.16863 2.9011 0
M  V30 5314 H 482.565 0.62967 2.49786 0
M  V30 5315 H 482.523 -1.03383 2.96916 0
M  V30 5316 N 486.295 -0.989507 1.22664 0
M  V30 5317 C 487.52 -1.77031 1.08051 0
M  V30 5318 C 487.945 -1.84535 -0.364483 0
M  V30 5319 O 487.303 -1.3003 -1.2634 0
M  V30 5320 C 487.351 -3.18 1.70024 0
M  V30 5321 O 486.455 -4.01161 0.956216 0
M  V30 5322 H 485.796 -0.545008 0.379292 0
M  V30 5323 H 488.326 -1.24277 1.62531 0
M  V30 5324 H 488.336 -3.68616 1.74888 0
M  V30 5325 H 487.011 -3.11853 2.75174 0
M  V30 5326 H 485.588 -3.59687 0.98384 0
M  V30 5327 N 487.773 -1.03688 -1.18687 0
M  V30 5328 C 488.736 -0.629115 -2.20397 0
M  V30 5329 C 489.736 0.311495 -1.57754 0
M  V30 5330 O 490.926 0.0974107 -1.73927 0
M  V30 5331 C 488.058 0.0782231 -3.4081 0
M  V30 5332 H 489.251 -1.52915 -2.57987 0
M  V30 5333 H 486.804 -0.828988 -1.32505 0
M  V30 5334 H 487.539 0.992233 -3.08748 0
M  V30 5335 H 487.324 -0.597776 -3.87517 0
M  V30 5336 H 488.814 0.350156 -4.16129 0
M  V30 5337 N 489.251 1.34841 -0.815825 0
M  V30 5338 C 490.181 2.32187 -0.247298 0
M  V30 5339 C 491.162 1.5791 0.632344 0
M  V30 5340 O 492.347 1.8593 0.560698 0
M  V30 5341 C 489.477 3.42122 0.597466 0
M  V30 5342 C 488.431 4.27602 -0.184446 0
M  V30 5343 C 487.757 5.28942 0.782609 0
M  V30 5344 C 489.057 5.03502 -1.38865 0
M  V30 5345 H 490.751 2.79985 -1.06061 0
M  V30 5346 H 488.297 1.34611 -0.511461 0
M  V30 5347 H 490.25 4.09232 1.00533 0
M  V30 5348 H 488.974 2.92956 1.44376 0
M  V30 5349 H 487.633 3.62085 -0.573592 0
M  V30 5350 H 487.281 4.7604 1.62466 0
M  V30 5351 H 486.981 5.87008 0.263695 0
M  V30 5352 H 488.505 5.98922 1.18848 0
M  V30 5353 H 489.919 5.63506 -1.05518 0
M  V30 5354 H 488.316 5.71108 -1.8427 0
M  V30 5355 H 489.386 4.33608 -2.17054 0
M  V30 5356 N 490.729 0.570148 1.46925 0
M  V30 5357 C 491.677 -0.183181 2.31878 0
M  V30 5358 C 492.671 -0.896721 1.43719 0
M  V30 5359 O 493.877 -0.816536 1.60414 0
M  V30 5360 H 490.252 -0.077944 0.74795 0
M  V30 5361 H 492.223 0.552312 2.93244 0
M  V30 5362 C 490.972 -1.19172 3.2664 0
M  V30 5363 H 490.295 -0.652088 3.94446 0
M  V30 5364 H 491.735 -1.68946 3.88887 0
M  V30 5365 C 490.194 -2.24627 2.51086 0
M  V30 5366 O 490.724 -3.31773 2.26472 0
M  V30 5367 N 488.93 -1.98898 2.11867 0
M  V30 5368 H 488.477 -1.11777 2.32086 0
M  V30 5369 H 488.435 -2.6967 1.61634 0
M  V30 5370 N 492.207 -1.54576 0.307264 0
M  V30 5371 C 493.618 -1.8579 -0.184121 0
M  V30 5372 C 493.969 -1.22914 -1.52927 0
M  V30 5373 O 493.094 -0.529126 -2.09831 0
M  V30 5374 C 493.689 -3.37081 -0.340862 0
M  V30 5375 C 492.248 -3.68304 -0.776465 0
M  V30 5376 C 491.395 -2.77076 0.111503 0
M  V30 5377 H 494.346 -1.49656 0.528078 0
M  V30 5378 H 494.367 -3.61922 -1.17443 0
M  V30 5379 H 493.879 -3.82815 0.638309 0
M  V30 5380 H 491.98 -3.28092 -1.76596 0
M  V30 5381 H 492.093 -4.75434 -0.591512 0
M  V30 5382 H 490.457 -2.51374 -0.410256 0
M  V30 5383 H 491.24 -3.25632 1.08714 0
M  V30 5384 N 493.685 -0.035106 -1.57561 0
M  V30 5385 C 494.934 0.641604 -1.91223 0
M  V30 5386 C 495.247 1.72944 -0.913761 0
M  V30 5387 O 496.453 2.46321 -1.14185 0
M  V30 5388 C 494.909 1.19249 -3.3957 0
M  V30 5389 C 494.517 0.137616 -4.47789 0
M  V30 5390 C 496.261 1.84537 -3.82291 0
M  V30 5391 C 494.168 0.700478 -5.87237 0
M  V30 5392 H 493.098 0.243417 -0.713627 0
M  V30 5393 H 495.749 -0.101382 -1.8322 0
M  V30 5394 H 494.131 1.98728 -3.42525 0
M  V30 5395 H 495.305 -0.635153 -4.56402 0
M  V30 5396 H 493.62 -0.416855 -4.14308 0
M  V30 5397 H 496.217 2.27616 -4.83834 0
M  V30 5398 H 496.56 2.69054 -3.17672 0
M  V30 5399 H 497.093 1.11739 -3.81784 0
M  V30 5400 H 493.832 -0.106693 -6.55413 0
M  V30 5401 H 493.352 1.4416 -5.82218 0
M  V30 5402 H 495.031 1.18837 -6.35993 0
M  V30 5403 N 495.163 1.55791 0.238111 0
M  V30 5404 C 496.093 1.94068 1.29846 0
M  V30 5405 C 497.074 0.806726 1.49753 0
M  V30 5406 O 498.259 1.06772 1.62214 0
M  V30 5407 C 495.389 2.24302 2.65153 0
M  V30 5408 C 494.343 3.40032 2.59927 0
M  V30 5409 C 493.669 3.55829 3.99111 0
M  V30 5410 C 494.969 4.75476 2.16148 0
M  V30 5411 H 496.663 2.82887 0.980563 0
M  V30 5412 H 494.209 1.36105 0.470253 0
M  V30 5413 H 496.162 2.4967 3.39475 0
M  V30 5414 H 494.886 1.32318 2.98596 0
M  V30 5415 H 493.545 3.14687 1.88063 0
M  V30 5416 H 493.193 2.6125 4.29834 0
M  V30 5417 H 492.893 4.3366 3.96501 0
M  V30 5418 H 494.417 3.83528 4.7512 0
M  V30 5419 H 495.831 5.00158 2.80205 0
M  V30 5420 H 494.228 5.56472 2.24631 0
M  V30 5421 H 495.298 4.71946 1.11333 0
M  V30 5422 N 496.642 -0.504142 1.49319 0
M  V30 5423 C 497.872 -1.28071 1.62116 0
M  V30 5424 C 498.28 -1.86955 0.290566 0
M  V30 5425 O 497.623 -1.68415 -0.733616 0
M  V30 5426 C 497.685 -2.4521 2.62893 0
M  V30 5427 C 497.349 -2.07218 4.0732 0
M  V30 5428 C 498.346 -1.61375 4.94221 0
M  V30 5429 C 496.031 -2.16949 4.53033 0
M  V30 5430 C 498.025 -1.25763 6.2487 0
M  V30 5431 C 495.712 -1.80949 5.83696 0
M  V30 5432 C 496.71 -1.3543 6.69438 0
M  V30 5433 O 496.398 -0.99915 7.97667 0
M  V30 5434 H 496.13 -0.394763 0.54876 0
M  V30 5435 H 498.684 -0.612118 1.96067 0
M  V30 5436 H 496.914 -3.15134 2.24115 0
M  V30 5437 H 498.603 -3.0724 2.65252 0
M  V30 5438 H 499.369 -1.53306 4.60133 0
M  V30 5439 H 495.248 -2.5133 3.86463 0
M  V30 5440 H 498.792 -0.901631 6.91749 0
M  V30 5441 H 494.689 -1.88667 6.17313 0
M  V30 5442 H 495.457 -1.13089 8.1065 0
M  V30 5443 N 498.12 -1.38341 -0.754957 0
M  V30 5444 C 499.068 -1.35573 -1.89005 0
M  V30 5445 C 500.062 -0.241824 -1.67665 0
M  V30 5446 O 501.268 -0.410785 -1.7525 0
M  V30 5447 H 497.643 -0.422898 -0.621821 0
M  V30 5448 H 499.614 -2.31359 -1.88455 0
M  V30 5449 C 498.363 -1.19631 -3.26471 0
M  V30 5450 H 497.686 -2.04605 -3.43477 0
M  V30 5451 H 499.126 -1.21748 -4.06144 0
M  V30 5452 C 497.585 0.0968705 -3.36761 0
M  V30 5453 O 498.115 1.07439 -3.87066 0
M  V30 5454 N 496.321 0.153242 -2.90196 0
M  V30 5455 H 495.868 -0.642908 -2.49448 0
M  V30 5456 H 495.826 1.01807 -2.9746 0
M  V30 5457 N 499.598 0.982988 -1.23187 0
M  V30 5458 C 500.531 2.07302 -0.953993 0
M  V30 5459 C 501.509 1.62249 0.106753 0
M  V30 5460 O 502.693 1.88481 -0.0269525 0
M  V30 5461 C 499.82 3.35873 -0.436716 0
M  V30 5462 C 498.866 3.99862 -1.48367 0
M  V30 5463 S 499.699 4.39443 -3.06023 0
M  V30 5464 C 500.855 5.7117 -2.55959 0
M  V30 5465 H 501.088 2.30554 -1.87702 0
M  V30 5466 H 498.621 1.11883 -1.06403 0
M  V30 5467 H 500.579 4.10244 -0.144872 0
M  V30 5468 H 499.24 3.10634 0.465351 0
M  V30 5469 H 498.433 4.92471 -1.07182 0
M  V30 5470 H 498.035 3.31857 -1.72473 0
M  V30 5471 H 500.327 6.47977 -1.97818 0
M  V30 5472 H 501.27 6.17194 -3.47098 0
M  V30 5473 H 501.678 5.29046 -1.96902 0
M  V30 5474 N 501.076 1.04316 1.18135 0
M  V30 5475 C 502.304 0.768117 1.92113 0
M  V30 5476 C 502.719 -0.675057 1.76319 0
M  V30 5477 O 502.076 -1.46038 1.09449 0
M  V30 5478 C 502.127 1.12808 3.43448 0
M  V30 5479 O 501.848 2.5146 3.58747 0
M  V30 5480 C 503.349 0.8779 4.3452 0
M  V30 5481 H 500.569 0.279937 0.609817 0
M  V30 5482 H 503.113 1.39149 1.49859 0
M  V30 5483 H 501.268 0.549623 3.83481 0
M  V30 5484 H 501.682 2.65313 4.52448 0
M  V30 5485 H 503.156 1.17959 5.39249 0
M  V30 5486 H 503.633 -0.187239 4.38801 0
M  V30 5487 H 504.239 1.43977 4.00188 0
M  V30 5488 N 502.554 -1.34406 0.822964 0
M  V30 5489 C 503.484 -2.32052 0.259608 0
M  V30 5490 C 504.465 -1.58243 -0.623961 0
M  V30 5491 O 505.65 -1.86224 -0.55083 0
M  V30 5492 C 502.78 -3.42434 -0.579314 0
M  V30 5493 C 501.734 -4.27499 0.20712 0
M  V30 5494 C 501.06 -5.29349 -0.754547 0
M  V30 5495 C 502.36 -5.02758 1.41533 0
M  V30 5496 H 504.054 -2.79418 1.07545 0
M  V30 5497 H 501.6 -1.34338 0.518593 0
M  V30 5498 H 503.553 -4.0976 -0.983612 0
M  V30 5499 H 502.277 -2.93717 -1.4282 0
M  V30 5500 H 500.936 -3.61776 0.592787 0
M  V30 5501 H 500.584 -4.76895 -1.59939 0
M  V30 5502 H 500.284 -5.8714 -0.232561 0
M  V30 5503 H 501.808 -5.99544 -1.1567 0
M  V30 5504 H 503.222 -5.62938 1.08504 0
M  V30 5505 H 501.619 -5.70123 1.87296 0
M  V30 5506 H 502.689 -4.32451 2.1935 0
M  V30 5507 N 504.032 -0.577932 -1.46621 0
M  V30 5508 C 505.272 -0.0643097 -2.04299 0
M  V30 5509 C 505.636 1.26967 -1.44026 0
M  V30 5510 O 506.837 1.87224 -1.92875 0
M  V30 5511 C 505.108 0.00547588 -3.574 0
M  V30 5512 S 506.667 0.462216 -4.36359 0
M  V30 5513 H 503.485 -0.0351573 -0.71013 0
M  V30 5514 H 506.087 -0.76935 -1.79725 0
M  V30 5515 H 504.791 -0.969423 -3.98786 0
M  V30 5516 H 504.322 0.733435 -3.86503 0
M  V30 5517 H 506.337 1.71791 -4.65513 0
M  V30 5518 N 505.51 1.54411 -0.315457 0
M  V30 5519 C 506.926 1.59556 0.037464 0
M  V30 5520 C 507.126 1.33217 1.5118 0
M  V30 5521 O 506.182 1.11264 2.26664 0
M  V30 5522 C 507.495 2.98372 -0.373477 0
M  V30 5523 C 509.043 3.11324 -0.323452 0
M  V30 5524 C 509.518 4.52472 -0.709433 0
M  V30 5525 N 511.009 4.58437 -0.662524 0
M  V30 5526 C 511.744 5.65751 -0.933474 0
M  V30 5527 N 511.24 6.81039 -1.27114 0
M  V30 5528 N 513.033 5.55489 -0.859573 0
M  V30 5529 H 505.184 1.6979 -1.27614 0
M  V30 5530 H 507.447 0.793732 -0.518356 0
M  V30 5531 H 507.153 3.22618 -1.40037 0
M  V30 5532 H 507.027 3.76264 0.265615 0
M  V30 5533 H 509.414 2.86818 0.694223 0
M  V30 5534 H 509.495 2.35555 -0.997367 0
M  V30 5535 H 509.139 4.7771 -1.72498 0
M  V30 5536 H 509.069 5.26598 -0.0132923 0
M  V30 5537 H 511.56 3.75636 -0.413065 0
M  V30 5538 H 511.873 7.58816 -1.46348 0
M  V30 5539 H 510.218 6.82555 -1.30932 0
M  V30 5540 H 513.409 4.64299 -0.595324 0
M  V30 5541 H 513.582 6.39036 -1.0741 0
M  V30 5542 N 506.988 0.0434614 1.5754 0
M  V30 5543 C 507.936 -0.951465 2.1225 0
M  V30 5544 C 508.93 -1.3274 1.05245 0
M  V30 5545 O 510.136 -1.30795 1.23663 0
M  V30 5546 H 506.511 -0.324667 0.678303 0
M  V30 5547 H 508.482 -0.464855 2.94757 0
M  V30 5548 C 507.231 -2.21972 2.67626 0
M  V30 5549 H 506.554 -1.93923 3.4962 0
M  V30 5550 H 507.994 -2.89765 3.09536 0
M  V30 5551 C 506.453 -2.95919 1.61038 0
M  V30 5552 O 506.983 -3.8857 1.01862 0
M  V30 5553 N 505.189 -2.58511 1.32741 0
M  V30 5554 H 504.736 -1.83244 1.81051 0
M  V30 5555 H 504.694 -3.08296 0.616531 0
M  V30 5556 N 508.466 -1.55915 -0.229846 0
M  V30 5557 C 509.376 -1.94891 -1.30593 0
M  V30 5558 C 510.392 -0.851604 -1.51736 0
M  V30 5559 O 511.568 -1.15447 -1.65027 0
M  V30 5560 C 508.633 -2.25052 -2.63728 0
M  V30 5561 C 507.694 -3.48306 -2.5096 0
M  V30 5562 C 506.927 -3.77019 -3.77747 0
M  V30 5563 O 507.15 -3.07534 -4.80395 0
M  V30 5564 O 506.084 -4.70523 -3.75356 0
M  V30 5565 H 509.91 -2.86581 -1.00525 0
M  V30 5566 H 507.495 -1.43017 -0.432025 0
M  V30 5567 H 509.377 -2.45682 -3.42372 0
M  V30 5568 H 508.052 -1.36538 -2.93495 0
M  V30 5569 H 506.959 -3.32964 -1.70546 0
M  V30 5570 H 508.292 -4.37177 -2.26136 0
M  V30 5571 N 509.944 0.496216 -1.49584 0
M  V30 5572 C 511.19 1.24918 -1.60521 0
M  V30 5573 C 511.545 1.90197 -0.290352 0
M  V30 5574 O 510.838 1.77967 0.709813 0
M  V30 5575 C 511.032 2.3359 -2.705 0
M  V30 5576 C 510.861 1.78969 -4.12553 0
M  V30 5577 C 509.631 1.60057 -4.79281 0
M  V30 5578 C 511.829 1.29883 -4.97629 0
M  V30 5579 N 509.811 1.00415 -6.05632 0
M  V30 5580 C 511.182 0.824057 -6.14499 0
M  V30 5581 C 513.237 1.18501 -4.83593 0
M  V30 5582 C 511.94 0.246721 -7.18877 0
M  V30 5583 C 513.966 0.621634 -5.88124 0
M  V30 5584 C 513.328 0.157116 -7.04225 0
M  V30 5585 H 509.427 0.446896 -0.641722 0
M  V30 5586 H 512.011 0.555456 -1.86609 0
M  V30 5587 H 510.182 3.00418 -2.46178 0
M  V30 5588 H 511.914 3.00628 -2.70933 0
M  V30 5589 H 508.669 1.84562 -4.36158 0
M  V30 5590 H 509.093 0.725074 -6.73106 0
M  V30 5591 H 513.735 1.53012 -3.94141 0
M  V30 5592 H 511.453 -0.110651 -8.08024 0
M  V30 5593 H 515.039 0.536279 -5.79323 0
M  V30 5594 H 513.919 -0.272009 -7.83728 0
M  V30 5595 N 511.423 1.38739 0.74761 0
M  V30 5596 C 512.37 1.36449 1.86146 0
M  V30 5597 C 513.34 0.226098 1.64554 0
M  V30 5598 O 514.525 0.41926 1.86137 0
M  V30 5599 C 511.665 1.2013 3.23516 0
M  V30 5600 C 510.778 2.43407 3.56899 0
M  V30 5601 C 509.913 2.19773 4.83605 0
M  V30 5602 C 508.952 3.3879 5.09792 0
M  V30 5603 N 508.089 3.14553 6.27695 0
M  V30 5604 H 512.929 2.3167 1.87438 0
M  V30 5605 H 510.466 1.15094 0.916063 0
M  V30 5606 H 512.424 1.08683 4.02795 0
M  V30 5607 H 511.054 0.285453 3.21535 0
M  V30 5608 H 510.106 2.65504 2.72418 0
M  V30 5609 H 511.418 3.32094 3.72176 0
M  V30 5610 H 510.572 2.05496 5.70838 0
M  V30 5611 H 509.311 1.28461 4.70478 0
M  V30 5612 H 508.316 3.53579 4.21025 0
M  V30 5613 H 509.541 4.30986 5.24812 0
M  V30 5614 H 507.487 2.25893 6.1588 0
M  V30 5615 H 507.404 3.96791 6.435 0
M  V30 5616 H 508.672 3.03943 7.17801 0
M  V30 5617 N 512.901 -0.976442 1.23707 0
M  V30 5618 C 513.848 -2.06952 1.02174 0
M  V30 5619 C 514.818 -1.65984 -0.0621034 0
M  V30 5620 O 516.003 -1.90584 0.0907906 0
M  V30 5621 C 513.143 -3.39425 0.62327 0
M  V30 5622 C 512.256 -3.9364 1.77966 0
M  V30 5623 C 511.391 -5.14343 1.3276 0
M  V30 5624 C 510.43 -5.60733 2.45449 0
M  V30 5625 N 509.567 -6.72662 2.01172 0
M  V30 5626 H 514.407 -2.24704 1.95734 0
M  V30 5627 H 511.944 -1.10143 0.975034 0
M  V30 5628 H 513.902 -4.15526 0.37332 0
M  V30 5629 H 512.532 -3.21624 -0.275329 0
M  V30 5630 H 511.584 -3.14258 2.14351 0
M  V30 5631 H 512.896 -4.24035 2.62671 0
M  V30 5632 H 512.05 -5.97789 1.03601 0
M  V30 5633 H 510.789 -4.8561 0.450975 0
M  V30 5634 H 509.794 -4.75865 2.75378 0
M  V30 5635 H 511.019 -5.91483 3.33654 0
M  V30 5636 H 508.965 -6.45681 1.15895 0
M  V30 5637 H 508.882 -7.02462 2.79434 0
M  V30 5638 H 510.15 -7.59572 1.75129 0
M  V30 5639 N 514.379 -1.04941 -1.1758 0
M  V30 5640 C 515.628 -0.753124 -1.87112 0
M  V30 5641 C 515.941 0.722507 -1.81767 0
M  V30 5642 O 517.147 1.13265 -2.46746 0
M  V30 5643 C 515.603 -1.29695 -3.35719 0
M  V30 5644 C 515.211 -2.80184 -3.49572 0
M  V30 5645 C 516.955 -1.07759 -4.10595 0
M  V30 5646 C 514.862 -3.2788 -4.92187 0
M  V30 5647 H 513.792 -0.278034 -0.700866 0
M  V30 5648 H 516.443 -1.26637 -1.32798 0
M  V30 5649 H 514.825 -0.711522 -3.89555 0
M  V30 5650 H 515.999 -3.44561 -3.05965 0
M  V30 5651 H 514.314 -3.00632 -2.88113 0
M  V30 5652 H 516.911 -1.40899 -5.15802 0
M  V30 5653 H 517.254 -0.0152302 -4.16297 0
M  V30 5654 H 517.787 -1.62809 -3.62957 0
M  V30 5655 H 514.526 -4.33535 -4.91658 0
M  V30 5656 H 514.046 -2.68245 -5.36475 0
M  V30 5657 H 515.725 -3.22412 -5.60945 0
M  V30 5658 N 515.857 1.33968 -0.830081 0
M  V30 5659 C 517.104 1.98063 -0.421566 0
M  V30 5660 C 517.432 1.65787 1.0171 0
M  V30 5661 O 516.687 0.925348 1.72441 0
M  V30 5662 C 516.986 3.52679 -0.57898 0
M  V30 5663 C 516.652 4.04884 -1.98443 0
M  V30 5664 C 515.314 4.18852 -2.36888 0
M  V30 5665 C 517.666 4.32879 -2.90285 0
M  V30 5666 C 514.994 4.58145 -3.66497 0
M  V30 5667 C 517.346 4.7362 -4.19364 0
M  V30 5668 C 516.01 4.85794 -4.57778 0
M  V30 5669 H 515.28 0.724765 -0.154262 0
M  V30 5670 H 517.927 1.59792 -1.05541 0
M  V30 5671 H 516.232 3.91556 0.138219 0
M  V30 5672 H 517.929 4.00261 -0.243317 0
M  V30 5673 H 514.519 3.9448 -1.67581 0
M  V30 5674 H 518.703 4.21619 -2.61823 0
M  V30 5675 H 513.959 4.65762 -3.96075 0
M  V30 5676 H 518.133 4.9424 -4.90612 0
M  V30 5677 H 515.76 5.15998 -5.58256 0
M  V30 5678 N 517.335 0.585699 1.46312 0
M  V30 5679 C 518.575 0.0751432 2.04262 0
M  V30 5680 C 518.939 -1.26201 1.44697 0
M  V30 5681 O 520.14 -1.86198 1.93865 0
M  V30 5682 C 518.411 0.013478 3.57397 0
M  V30 5683 S 519.97 -0.439068 4.36598 0
M  V30 5684 H 516.788 0.0389228 0.709934 0
M  V30 5685 H 519.39 0.778871 1.79315 0
M  V30 5686 H 518.094 0.990558 3.98266 0
M  V30 5687 H 517.625 -0.712927 3.86886 0
M  V30 5688 H 519.64 -1.6932 4.66417 0
M  V30 5689 N 518.813 -1.54241 0.323641 0
M  V30 5690 C 520.053 -2.0248 -0.279502 0
M  V30 5691 C 520.417 -1.20672 -1.49339 0
M  V30 5692 O 521.618 -1.58715 -2.1694 0
M  V30 5693 C 519.889 -3.52238 -0.605266 0
M  V30 5694 S 521.448 -4.22411 -1.18805 0
M  V30 5695 H 518.266 -0.705957 -0.0845313 0
M  V30 5696 H 520.868 -1.90089 0.456781 0
M  V30 5697 H 519.572 -4.094 0.286339 0
M  V30 5698 H 519.103 -3.6871 -1.37174 0
M  V30 5699 H 521.118 -4.30075 -2.47487 0
M  V30 5700 N 520.291 -0.0518155 -1.57515 0
M  V30 5701 C 521.538 0.621823 -1.92716 0
M  V30 5702 C 521.866 1.70813 -0.930229 0
M  V30 5703 O 521.121 1.95616 0.0573708 0
M  V30 5704 C 521.42 1.25607 -3.34601 0
M  V30 5705 C 521.086 0.297901 -4.49915 0
M  V30 5706 C 519.748 0.034243 -4.81188 0
M  V30 5707 C 522.1 -0.358738 -5.19964 0
M  V30 5708 C 519.428 -0.893479 -5.79857 0
M  V30 5709 C 521.78 -1.27466 -6.19625 0
M  V30 5710 C 520.444 -1.54698 -6.49326 0
M  V30 5711 H 519.714 0.227541 -0.705199 0
M  V30 5712 H 522.361 -0.118432 -1.91133 0
M  V30 5713 H 520.666 2.07161 -3.32553 0
M  V30 5714 H 522.363 1.78424 -3.59118 0
M  V30 5715 H 518.953 0.513581 -4.25512 0
M  V30 5716 H 523.137 -0.168133 -4.96015 0
M  V30 5717 H 518.393 -1.11193 -6.01204 0
M  V30 5718 H 522.567 -1.78953 -6.73015 0
M  V30 5719 H 520.194 -2.26748 -7.25596 0
M  V30 5720 N 521.769 1.56035 0.221574 0
M  V30 5721 C 523.015 1.80221 0.942973 0
M  V30 5722 C 523.37 0.624799 1.81973 0
M  V30 5723 O 522.663 -0.381145 1.87771 0
M  V30 5724 C 522.857 3.07813 1.8162 0
M  V30 5725 C 522.686 4.37852 1.02548 0
M  V30 5726 C 521.456 5.00138 0.720418 0
M  V30 5727 C 523.654 5.12813 0.390799 0
M  V30 5728 N 521.636 6.13831 -0.0917139 0
M  V30 5729 C 523.007 6.19346 -0.284728 0
M  V30 5730 C 525.062 4.96972 0.303828 0
M  V30 5731 C 523.765 7.11758 -1.03891 0
M  V30 5732 C 525.791 5.89784 -0.436883 0
M  V30 5733 C 525.153 6.95743 -1.10095 0
M  V30 5734 H 521.252 0.711117 0.325325 0
M  V30 5735 H 523.836 1.93522 0.213854 0
M  V30 5736 H 522.007 2.95795 2.51714 0
M  V30 5737 H 523.739 3.20191 2.47508 0
M  V30 5738 H 520.494 4.62075 1.03843 0
M  V30 5739 H 520.918 6.75249 -0.486615 0
M  V30 5740 H 525.56 4.15107 0.802896 0
M  V30 5741 H 523.278 7.93105 -1.54949 0
M  V30 5742 H 526.864 5.79603 -0.505181 0
M  V30 5743 H 525.744 7.66322 -1.66495 0
M  V30 5744 N 523.247 -0.488276 1.49845 0
M  V30 5745 C 524.494 -1.24157 1.59973 0
M  V30 5746 C 524.822 -1.92293 0.292182 0
M  V30 5747 O 524.077 -1.81942 -0.720813 0
M  V30 5748 C 524.376 -2.32152 2.71735 0
M  V30 5749 C 524.042 -1.81387 4.12807 0
M  V30 5750 C 522.704 -1.67262 4.51195 0
M  V30 5751 C 525.056 -1.43537 5.01045 0
M  V30 5752 C 522.384 -1.13685 5.7558 0
M  V30 5753 C 524.736 -0.914081 6.25961 0
M  V30 5754 C 523.4 -0.759327 6.63167 0
M  V30 5755 H 522.67 -0.454322 0.585383 0
M  V30 5756 H 525.317 -0.540261 1.83721 0
M  V30 5757 H 523.622 -3.08122 2.42008 0
M  V30 5758 H 525.319 -2.90164 2.76778 0
M  V30 5759 H 521.909 -1.93344 3.82513 0
M  V30 5760 H 526.093 -1.53292 4.72033 0
M  V30 5761 H 521.349 -1.00426 6.03096 0
M  V30 5762 H 525.523 -0.612066 6.93705 0
M  V30 5763 H 523.15 -0.342002 7.5943 0
M  V30 5764 N 524.725 -1.39134 -0.740242 0
M  V30 5765 C 526.136 -1.32208 -1.31825 0
M  V30 5766 C 526.487 0.0159919 -1.96193 0
M  V30 5767 O 525.612 0.918111 -1.95958 0
M  V30 5768 C 526.207 -2.39436 -2.39699 0
M  V30 5769 C 524.766 -2.36048 -2.93187 0
M  V30 5770 C 523.913 -2.21599 -1.66701 0
M  V30 5771 H 526.864 -1.49298 -0.538133 0
M  V30 5772 H 526.885 -2.05922 -3.19963 0
M  V30 5773 H 526.397 -3.36811 -1.92821 0
M  V30 5774 H 524.498 -1.42295 -3.44359 0
M  V30 5775 H 524.611 -3.30704 -3.46658 0
M  V30 5776 H 522.975 -1.68681 -1.90837 0
M  V30 5777 H 523.758 -3.20936 -1.21882 0
M  V30 5778 N 526.204 0.969867 -1.24223 0
M  V30 5779 C 527.114 2.09806 -1.0497 0
M  V30 5780 C 528.13 1.73998 0.00886455 0
M  V30 5781 O 529.306 2.00513 -0.188848 0
M  V30 5782 C 526.371 3.40467 -0.654452 0
M  V30 5783 C 525.432 3.90236 -1.78926 0
M  V30 5784 C 524.665 5.14662 -1.41277 0
M  V30 5785 O 524.888 5.69602 -0.301632 0
M  V30 5786 O 523.822 5.58761 -2.23763 0
M  V30 5787 H 527.648 2.28942 -1.99548 0
M  V30 5788 H 525.233 1.08197 -1.03023 0
M  V30 5789 H 527.115 4.19039 -0.445452 0
M  V30 5790 H 525.79 3.22636 0.262216 0
M  V30 5791 H 524.697 3.12735 -2.05299 0
M  V30 5792 H 526.03 4.1254 -2.68462 0
M  V30 5793 N 527.682 1.05563 1.17022 0
M  V30 5794 C 528.629 0.659893 2.21165 0
M  V30 5795 C 529.599 -0.339813 1.62587 0
M  V30 5796 O 530.784 -0.230378 1.89404 0
M  V30 5797 C 527.924 0.0447297 3.45071 0
M  V30 5798 C 527.037 1.09372 4.17926 0
M  V30 5799 C 526.172 0.445481 5.29329 0
M  V30 5800 C 525.211 1.47852 5.93975 0
M  V30 5801 N 524.348 0.854172 6.96885 0
M  V30 5802 H 529.188 1.55243 2.54369 0
M  V30 5803 H 526.725 0.776336 1.24946 0
M  V30 5804 H 528.683 -0.329404 4.15898 0
M  V30 5805 H 527.313 -0.811244 3.1244 0
M  V30 5806 H 526.365 1.58564 3.45777 0
M  V30 5807 H 527.677 1.87773 4.62107 0
M  V30 5808 H 526.831 0.0179688 6.06697 0
M  V30 5809 H 525.57 -0.370481 4.86291 0
M  V30 5810 H 524.575 1.91601 5.15334 0
M  V30 5811 H 525.8 2.29645 6.39093 0
M  V30 5812 H 523.746 0.0587882 6.55974 0
M  V30 5813 H 523.663 1.57567 7.39397 0
M  V30 5814 H 524.931 0.451559 7.78191 0
M  V30 5815 N 529.16 -1.33526 0.837174 0
M  V30 5816 C 530.408 -1.97446 0.431211 0
M  V30 5817 C 530.729 -1.6665 -1.01255 0
M  V30 5818 O 529.999 -0.964559 -1.70508 0
M  V30 5819 H 528.579 -0.73043 0.156463 0
M  V30 5820 H 531.241 -1.62918 1.06976 0
M  V30 5821 H 530.337 -3.07001 0.561877 0
M  V30 5822 N 530.638 -0.59345 -1.46 0
M  V30 5823 C 531.601 0.123538 -2.28867 0
M  V30 5824 C 532.601 0.808628 -1.38989 0
M  V30 5825 O 533.791 0.658945 -1.61256 0
M  V30 5826 C 530.923 1.1847 -3.19653 0
M  V30 5827 H 532.116 -0.604843 -2.93737 0
M  V30 5828 H 529.669 -0.351875 -1.52288 0
M  V30 5829 H 530.404 1.94431 -2.59552 0
M  V30 5830 H 530.189 0.69783 -3.8584 0
M  V30 5831 H 531.679 1.68726 -3.81997 0
M  V30 5832 N 532.116 1.54067 -0.331816 0
M  V30 5833 C 533.365 1.99895 0.269209 0
M  V30 5834 C 533.678 1.22371 1.52593 0
M  V30 5835 O 534.884 1.58618 2.20347 0
M  V30 5836 C 533.34 3.55972 0.530244 0
M  V30 5837 C 532.948 4.4234 -0.709901 0
M  V30 5838 C 534.692 4.10247 1.09077 0
M  V30 5839 C 532.599 5.89905 -0.420312 0
M  V30 5840 H 531.529 0.746741 0.104371 0
M  V30 5841 H 534.18 1.78014 -0.445324 0
M  V30 5842 H 532.562 3.73873 1.30518 0
M  V30 5843 H 533.736 4.36215 -1.48504 0
M  V30 5844 H 532.051 3.98997 -1.19123 0
M  V30 5845 H 534.648 5.18095 1.32219 0
M  V30 5846 H 534.991 3.62739 2.0427 0
M  V30 5847 H 535.524 3.96011 0.376824 0
M  V30 5848 H 532.263 6.41623 -1.34164 0
M  V30 5849 H 531.783 5.98962 0.316962 0
M  V30 5850 H 533.462 6.46991 -0.0331956 0
M  V30 5851 N 533.594 0.0601682 1.57485 0
M  V30 5852 C 534.524 -0.90889 2.15085 0
M  V30 5853 C 535.505 -1.31838 1.07484 0
M  V30 5854 O 536.69 -1.3915 1.35466 0
M  V30 5855 C 533.82 -2.18059 2.7031 0
M  V30 5856 C 532.774 -1.91088 3.82974 0
M  V30 5857 C 532.1 -3.24789 4.24754 0
M  V30 5858 C 533.4 -1.22535 5.07723 0
M  V30 5859 H 535.094 -0.429093 2.96309 0
M  V30 5860 H 532.64 -0.204952 1.42534 0
M  V30 5861 H 534.593 -2.86258 3.09248 0
M  V30 5862 H 533.317 -2.6826 1.8629 0
M  V30 5863 H 531.976 -1.25297 3.44523 0
M  V30 5864 H 531.624 -3.72809 3.37672 0
M  V30 5865 H 531.324 -3.07538 5.00694 0
M  V30 5866 H 532.848 -3.94205 4.66299 0
M  V30 5867 H 534.262 -1.80783 5.4405 0
M  V30 5868 H 532.659 -1.1558 5.88864 0
M  V30 5869 H 533.729 -0.202692 4.84476 0
M  V30 5870 N 535.072 -1.5615 -0.213296 0
M  V30 5871 C 536.3 -1.83638 -0.953139 0
M  V30 5872 C 536.715 -0.640362 -1.77609 0
M  V30 5873 O 536.072 0.391071 -1.78261 0
M  V30 5874 C 536.123 -3.09735 -1.86405 0
M  V30 5875 O 535.844 -4.24723 -1.07435 0
M  V30 5876 C 537.345 -3.5027 -2.71709 0
M  V30 5877 H 534.565 -0.610263 -0.278962 0
M  V30 5878 H 537.109 -2.03247 -0.226035 0
M  V30 5879 H 535.264 -2.92077 -2.545 0
M  V30 5880 H 535.678 -4.9641 -1.69343 0
M  V30 5881 H 537.152 -4.41515 -3.31313 0
M  V30 5882 H 537.629 -2.72406 -3.44516 0
M  V30 5883 H 538.235 -3.70396 -2.09015 0
M  V30 5884 N 536.55 0.480323 -1.50102 0
M  V30 5885 C 537.827 1.24159 -1.51142 0
M  V30 5886 C 538.207 2.09605 -0.250818 0
M  V30 5887 O 537.555 2.15274 0.766118 0
M  V30 5888 C 537.765 2.08057 -2.80202 0
M  V30 5889 C 539.113 2.66556 -3.30504 0
M  V30 5890 O 540.137 2.18308 -2.81461 0
M  V30 5891 O 538.996 3.54442 -4.15973 0
M  V30 5892 H 536.09 0.562928 -0.605839 0
M  V30 5893 H 538.636 0.492899 -1.62384 0
M  V30 5894 H 537.408 1.45032 -3.6343 0
M  V30 5895 H 537.031 2.90079 -2.71919 0
M  V30 5896 N 538.028 1.39524 0.732853 0
M  V30 5897 C 539.256 1.40143 1.52209 0
M  V30 5898 C 539.671 -0.00348836 1.888 0
M  V30 5899 O 539.028 -0.975357 1.5425 0
M  V30 5900 C 539.079 2.27632 2.8083 0
M  V30 5901 O 538.8 3.62654 2.45792 0
M  V30 5902 C 540.301 2.36658 3.74844 0
M  V30 5903 H 537.521 0.478604 0.470297 0
M  V30 5904 H 540.065 1.83366 0.905388 0
M  V30 5905 H 538.22 1.87818 3.38826 0
M  V30 5906 H 538.634 4.08941 3.28431 0
M  V30 5907 H 540.108 3.02118 4.61984 0
M  V30 5908 H 540.585 1.38638 4.16745 0
M  V30 5909 H 541.191 2.76951 3.22766 0
M  V30 5910 N 539.506 -0.963266 1.24736 0
M  V30 5911 C 540.731 -1.74699 1.11781 0
M  V30 5912 C 541.156 -1.85267 -0.325258 0
M  V30 5913 O 540.514 -1.32681 -1.23553 0
M  V30 5914 C 540.562 -3.14322 1.76731 0
M  V30 5915 O 539.666 -3.99043 1.04109 0
M  V30 5916 H 539.007 -0.53684 0.390767 0
M  V30 5917 H 541.537 -1.20801 1.65131 0
M  V30 5918 H 541.547 -3.64824 1.82668 0
M  V30 5919 H 540.222 -3.05946 2.81726 0
M  V30 5920 H 538.799 -3.5752 1.05991 0
M  V30 5921 N 540.985 -1.06182 -1.16461 0
M  V30 5922 C 542.231 -0.779015 -1.87241 0
M  V30 5923 C 542.564 0.692715 -1.81425 0
M  V30 5924 O 541.839 1.5074 -1.22913 0
M  V30 5925 C 542.122 -1.2728 -3.36856 0
M  V30 5926 C 541.975 -2.80821 -3.51368 0
M  V30 5927 C 543.294 -0.879799 -4.31216 0
M  V30 5928 H 540.413 -0.284464 -0.679889 0
M  V30 5929 H 543.055 -1.31755 -1.36896 0
M  V30 5930 H 541.205 -0.814673 -3.79862 0
M  V30 5931 H 542.877 -3.34833 -3.17308 0
M  V30 5932 H 541.12 -3.19606 -2.93316 0
M  V30 5933 H 541.791 -3.10435 -4.56436 0
M  V30 5934 H 544.267 -1.27436 -3.96105 0
M  V30 5935 H 543.143 -1.25278 -5.34412 0
M  V30 5936 H 543.404 0.215372 -4.41575 0
M  V30 5937 N 542.463 1.3308 -0.844243 0
M  V30 5938 C 543.41 2.29104 -0.279323 0
M  V30 5939 C 544.38 1.54577 0.607882 0
M  V30 5940 O 545.565 1.8285 0.545009 0
M  V30 5941 C 542.705 3.40927 0.53508 0
M  V30 5942 C 541.818 4.30354 -0.376749 0
M  V30 5943 C 540.953 5.29297 0.449276 0
M  V30 5944 C 539.992 6.10365 -0.460606 0
M  V30 5945 N 539.129 7.01335 0.327612 0
M  V30 5946 H 543.969 2.76817 -1.10346 0
M  V30 5947 H 541.506 1.36203 -0.555611 0
M  V30 5948 H 543.464 4.04469 1.02278 0
M  V30 5949 H 542.094 2.94391 1.32414 0
M  V30 5950 H 541.146 3.67485 -0.982791 0
M  V30 5951 H 542.458 4.87067 -1.07549 0
M  V30 5952 H 541.612 5.98392 1.00058 0
M  V30 5953 H 540.351 4.73174 1.18143 0
M  V30 5954 H 539.356 5.40182 -1.02388 0
M  V30 5955 H 540.581 6.68571 -1.1912 0
M  V30 5956 H 538.527 6.47655 1.04305 0
M  V30 5957 H 538.444 7.55355 -0.3123 0
M  V30 5958 H 539.712 7.74731 0.86098 0
M  V30 5959 N 543.941 0.601185 1.45683 0
M  V30 5960 C 545.357 0.264315 1.57396 0
M  V30 5961 C 545.557 -1.23324 1.59353 0
M  V30 5962 O 544.613 -2.01594 1.52039 0
M  V30 5963 C 545.926 0.929839 2.85962 0
M  V30 5964 C 547.474 0.905156 2.99626 0
M  V30 5965 C 547.949 1.55057 4.30954 0
M  V30 5966 N 549.44 1.51576 4.37697 0
M  V30 5967 C 550.175 1.98436 5.37969 0
M  V30 5968 N 549.671 2.53352 6.44813 0
M  V30 5969 N 551.464 1.89242 5.29286 0
M  V30 5970 H 543.615 1.57363 1.42656 0
M  V30 5971 H 545.878 0.658831 0.681649 0
M  V30 5972 H 545.584 1.98404 2.90394 0
M  V30 5973 H 545.458 0.449224 3.74515 0
M  V30 5974 H 547.845 -0.14048 2.94765 0
M  V30 5975 H 547.926 1.42397 2.12501 0
M  V30 5976 H 547.57 2.5955 4.36573 0
M  V30 5977 H 547.5 1.00682 5.16886 0
M  V30 5978 H 549.991 1.11452 3.61091 0
M  V30 5979 H 550.304 2.86918 7.17564 0
M  V30 5980 H 548.649 2.57388 6.45582 0
M  V30 5981 H 551.84 1.46083 4.44722 0
M  V30 5982 H 552.013 2.26075 6.07284 0
M  V30 5983 N 545.419 -1.53889 0.339982 0
M  V30 5984 C 546.367 -2.26391 -0.533822 0
M  V30 5985 C 547.361 -1.28404 -1.10493 0
M  V30 5986 O 548.567 -1.46124 -1.05108 0
M  V30 5987 H 544.942 -0.727385 -0.190828 0
M  V30 5988 H 546.913 -2.98233 0.0997484 0
M  V30 5989 C 545.662 -3.04707 -1.67479 0
M  V30 5990 H 544.985 -3.79934 -1.2446 0
M  V30 5991 H 546.425 -3.58657 -2.26144 0
M  V30 5992 C 544.884 -2.13989 -2.60212 0
M  V30 5993 O 545.414 -1.73361 -3.62366 0
M  V30 5994 N 543.62 -1.79141 -2.28816 0
M  V30 5995 H 543.167 -2.12378 -1.45785 0
M  V30 5996 H 543.125 -1.18725 -2.91121 0
M  V30 5997 N 546.897 -0.0685191 -1.57451 0
M  V30 5998 C 548.174 0.642167 -1.84758 0
M  V30 5999 C 548.554 1.87991 -0.960344 0
M  V30 6000 O 547.902 2.28485 -0.0257894 0
M  V30 6001 C 548.112 0.982946 -3.34872 0
M  V30 6002 C 549.46 1.35784 -4.02303 0
M  V30 6003 O 550.484 1.07477 -3.39598 0
M  V30 6004 O 549.343 1.88681 -5.12895 0
M  V30 6005 H 546.437 0.318625 -0.763156 0
M  V30 6006 H 548.983 -0.0992015 -1.6941 0
M  V30 6007 H 547.755 0.10372 -3.91163 0
M  V30 6008 H 547.378 1.78119 -3.55471 0
M  V30 6009 N 548.375 1.56261 0.205012 0
M  V30 6010 C 549.305 1.96779 1.257 0
M  V30 6011 C 550.286 0.838309 1.48008 0
M  V30 6012 O 551.471 1.10189 1.59913 0
M  V30 6013 C 548.601 2.29876 2.60335 0
M  V30 6014 C 547.555 3.45469 2.52656 0
M  V30 6015 C 546.881 3.64215 3.91473 0
M  V30 6016 C 548.181 4.79954 2.06014 0
M  V30 6017 H 549.875 2.84904 0.920338 0
M  V30 6018 H 547.421 1.37072 0.441277 0
M  V30 6019 H 549.374 2.56814 3.34102 0
M  V30 6020 H 548.098 1.38622 2.95722 0
M  V30 6021 H 546.757 3.18605 1.81345 0
M  V30 6022 H 546.405 2.70309 4.24196 0
M  V30 6023 H 546.105 4.41973 3.87213 0
M  V30 6024 H 547.629 3.93519 4.66878 0
M  V30 6025 H 549.043 5.05989 2.69533 0
M  V30 6026 H 547.44 5.61111 2.12777 0
M  V30 6027 H 548.51 4.74201 1.01297 0
M  V30 6028 N 549.853 -0.472356 1.50355 0
M  V30 6029 C 551.078 -1.25251 1.65309 0
M  V30 6030 C 551.503 -1.85081 0.335643 0
M  V30 6031 O 550.861 -1.67227 -0.700335 0
M  V30 6032 C 550.909 -2.3379 2.74544 0
M  V30 6033 O 550.013 -3.38401 2.35709 0
M  V30 6034 H 549.354 -0.368539 0.552336 0
M  V30 6035 H 551.884 -0.562271 1.96722 0
M  V30 6036 H 551.894 -2.79121 2.97583 0
M  V30 6037 H 550.569 -1.89614 3.70161 0
M  V30 6038 H 549.146 -2.9879 2.23112 0
M  V30 6039 N 551.331 -1.39911 -0.725443 0
M  V30 6040 C 552.58 -1.36963 -1.48068 0
M  V30 6041 C 552.893 0.0284478 -1.95579 0
M  V30 6042 O 554.099 0.180535 -2.70899 0
M  V30 6043 C 552.555 -2.40664 -2.67598 0
M  V30 6044 C 552.163 -3.86234 -2.26997 0
M  V30 6045 C 553.907 -2.46807 -3.45379 0
M  V30 6046 C 551.814 -4.81554 -3.43307 0
M  V30 6047 H 550.744 -0.509223 -0.556065 0
M  V30 6048 H 553.395 -1.65602 -0.790454 0
M  V30 6049 H 551.777 -2.05109 -3.38742 0
M  V30 6050 H 552.951 -4.3088 -1.63337 0
M  V30 6051 H 551.266 -3.83475 -1.62284 0
M  V30 6052 H 553.863 -3.15213 -4.31909 0
M  V30 6053 H 554.206 -1.49552 -3.8851 0
M  V30 6054 H 554.739 -2.81303 -2.81271 0
M  V30 6055 H 551.478 -5.80106 -3.05217 0
M  V30 6056 H 550.998 -4.4158 -4.05915 0
M  V30 6057 H 552.677 -5.0091 -4.0951 0
M  V30 6058 N 552.809 0.956637 -1.25245 0
M  V30 6059 C 554.058 1.69537 -1.0927 0
M  V30 6060 C 554.371 1.92136 0.366503 0
M  V30 6061 O 555.577 2.63687 0.64665 0
M  V30 6062 C 554.033 3.05211 -1.9072 0
M  V30 6063 C 553.641 2.90416 -3.41119 0
M  V30 6064 C 555.385 3.82882 -1.83308 0
M  V30 6065 C 553.292 4.21468 -4.14872 0
M  V30 6066 H 552.222 0.635804 -0.405302 0
M  V30 6067 H 554.873 1.06513 -1.49423 0
M  V30 6068 H 553.255 3.69128 -1.43389 0
M  V30 6069 H 554.429 2.35444 -3.9611 0
M  V30 6070 H 552.744 2.26203 -3.49602 0
M  V30 6071 H 555.341 4.79944 -2.35706 0
M  V30 6072 H 555.684 4.0853 -0.800572 0
M  V30 6073 H 556.217 3.25711 -2.28379 0
M  V30 6074 H 552.956 4.01009 -5.18529 0
M  V30 6075 H 552.476 4.76213 -3.64665 0
M  V30 6076 H 554.155 4.90022 -4.22478 0
M  V30 6077 N 554.287 1.06798 1.15896 0
M  V30 6078 C 555.512 0.808739 1.90982 0
M  V30 6079 C 555.937 -0.6316 1.77179 0
M  V30 6080 O 555.295 -1.4407 1.10061 0
M  V30 6081 C 555.343 1.21468 3.39526 0
M  V30 6082 O 554.447 0.356562 4.10856 0
M  V30 6083 H 553.788 0.29512 0.594811 0
M  V30 6084 H 556.318 1.42513 1.46804 0
M  V30 6085 H 556.328 1.18844 3.90308 0
M  V30 6086 H 555.003 2.26379 3.48891 0
M  V30 6087 H 553.58 0.444808 3.70238 0
M  V30 6088 N 555.766 -1.3263 0.851289 0
M  V30 6089 C 557.014 -1.96978 0.452128 0
M  V30 6090 C 557.335 -1.67715 -0.99482 0
M  V30 6091 O 556.605 -0.98259 -1.69476 0
M  V30 6092 H 555.185 -0.72873 0.164202 0
M  V30 6093 H 557.847 -1.61774 1.08698 0
M  V30 6094 H 556.943 -3.06387 0.594407 0
M  V30 6095 O 557.283 -0.749239 -1.43069 0
M  V30 6096 H 557.974 -0.305579 -1.91274 0
M  V30 END ATOM
M  V30 BEGIN BOND
M  V30 END BOND
M  V30 END CTAB
M  END
$$$$
