drugbank_target|Q5PXQ6 Hydroxyquinol 1,2-dioxygenase (DB03793)
 OpenBabel12092120283D

  0  0  0     0  0            999 V3000
M  V30 BEGIN CTAB
M  V30 COUNTS 4403 4459 0 0 0
M  V30 BEGIN ATOM
M  V30 1 H -0.908 1.98254 -0.117106 0
M  V30 2 N 0 1.576 0 0
M  V30 3 C 0.933 2.03868 1.02534 0
M  V30 4 C 1.911 0.928543 1.3348 0
M  V30 5 O 3.095 1.19667 1.45644 0
M  V30 6 C 0.222 2.43627 2.35294 0
M  V30 7 C -0.732 3.65373 2.2001 0
M  V30 8 S 0.101 5.13292 1.52614 0
M  V30 9 C 1.257 5.56322 2.86805 0
M  V30 10 H 1.49 2.90518 0.631377 0
M  V30 11 H -0.977 1.52953 0.210867 0
M  V30 12 H 0.981 2.67203 3.11629 0
M  V30 13 H -0.358 1.57376 2.7183 0
M  V30 14 H -1.165 3.90944 3.18086 0
M  V30 15 H -1.563 3.418 1.51819 0
M  V30 16 H 0.729 5.58782 3.83104 0
M  V30 17 H 1.672 6.56266 2.65933 0
M  V30 18 H 2.08 4.83886 2.90714 0
M  V30 19 N 1.4781 -0.272755 1.55222 0
M  V30 20 C 2.7031 -1.02683 1.80197 0
M  V30 21 C 3.1281 -1.79142 0.573551 0
M  V30 22 O 2.4861 -1.74917 -0.476849 0
M  V30 23 C 2.5341 -1.9609 3.02624 0
M  V30 24 O 1.6381 -3.04863 2.77727 0
M  V30 25 H 0.9791 -0.293557 0.595584 0
M  V30 26 H 3.5091 -0.30159 2.02365 0
M  V30 27 H 3.5191 -2.38039 3.31363 0
M  V30 28 H 2.1941 -1.39851 3.91682 0
M  V30 29 H 0.7711 -2.67228 2.60084 0
M  V30 30 N 2.9562 -1.48159 -0.537278 0
M  V30 31 C 4.1842 -1.59454 -1.31841 0
M  V30 32 C 4.5992 -0.252065 -1.8711 0
M  V30 33 O 3.9562 0.757621 -1.66031 0
M  V30 34 C 4.0072 -2.63546 -2.47439 0
M  V30 35 O 3.7282 -3.92583 -1.94449 0
M  V30 36 C 5.2292 -2.85212 -3.39366 0
M  V30 37 H 2.4492 -0.53785 -0.401196 0
M  V30 38 H 4.9932 -1.93932 -0.648891 0
M  V30 39 H 3.1482 -2.31946 -3.1029 0
M  V30 40 H 3.5622 -4.49629 -2.70063 0
M  V30 41 H 5.0362 -3.61863 -4.16844 0
M  V30 42 H 5.5132 -1.93765 -3.94147 0
M  V30 43 H 6.1192 -3.18086 -2.82314 0
M  V30 44 N 4.4343 0.785586 -1.36625 0
M  V30 45 C 5.8453 1.36101 -1.27803 0
M  V30 46 C 6.1963 1.96035 0.0804875 0
M  V30 47 O 5.3213 1.92834 0.982042 0
M  V30 48 C 5.9163 2.47442 -2.31426 0
M  V30 49 C 4.4753 3.00789 -2.26281 0
M  V30 50 C 3.6223 1.73896 -2.15999 0
M  V30 51 H 6.5733 0.586928 -1.47448 0
M  V30 52 H 6.5943 3.2656 -1.95291 0
M  V30 53 H 6.1063 2.03791 -3.30289 0
M  V30 54 H 4.2073 3.48851 -1.30896 0
M  V30 55 H 4.3203 3.57343 -3.19128 0
M  V30 56 H 2.6843 1.9628 -1.62316 0
M  V30 57 H 3.4673 1.32368 -3.16755 0
M  V30 58 N 5.9124 1.20967 1.01018 0
M  V30 59 C 7.1584 1.02526 1.74975 0
M  V30 60 C 7.4914 -0.4408 1.89131 0
M  V30 61 O 6.7664 -1.32718 1.42184 0
M  V30 62 C 7.0494 1.71699 3.1653 0
M  V30 63 C 6.9024 3.25791 3.10129 0
M  V30 64 C 8.2214 1.45531 4.15342 0
M  V30 65 H 5.3404 0.373863 0.635134 0
M  V30 66 H 7.9824 1.49071 1.17805 0
M  V30 67 H 6.1324 1.32128 3.65341 0
M  V30 68 H 7.8044 3.74697 2.69072 0
M  V30 69 H 6.0474 3.56363 2.47362 0
M  V30 70 H 6.7184 3.69353 4.10222 0
M  V30 71 H 9.1944 1.79872 3.75213 0
M  V30 72 H 8.0704 1.96453 5.1254 0
M  V30 73 H 8.3314 0.384237 4.40427 0
M  V30 74 N 7.3905 -1.2043 1.01659 0
M  V30 75 C 8.6155 -1.94318 0.724942 0
M  V30 76 C 9.0405 -1.74266 -0.708034 0
M  V30 77 O 8.3985 -1.03694 -1.48719 0
M  V30 78 C 8.4465 -3.44486 1.06591 0
M  V30 79 O 7.5505 -4.12017 0.177599 0
M  V30 80 H 6.8915 -0.60708 0.26898 0
M  V30 81 H 9.4215 -1.52861 1.35995 0
M  V30 82 H 9.4315 -3.95106 1.01762 0
M  V30 83 H 8.1065 -3.58404 2.10997 0
M  V30 84 H 6.6835 -3.71821 0.283421 0
M  V30 85 N 8.8686 -0.792821 -1.36206 0
M  V30 86 C 9.8316 -0.199459 -2.2833 0
M  V30 87 C 10.8316 0.605189 -1.48977 0
M  V30 88 O 12.0216 0.425685 -1.68919 0
M  V30 89 C 9.1536 0.723523 -3.33134 0
M  V30 90 H 10.3466 -1.01181 -2.82316 0
M  V30 91 H 7.8996 -0.562485 -1.45828 0
M  V30 92 H 8.6346 1.56008 -2.84309 0
M  V30 93 H 8.4196 0.148436 -3.91819 0
M  V30 94 H 9.9096 1.13344 -4.01924 0
M  V30 95 N 10.3467 1.47872 -0.545128 0
M  V30 96 C 11.2567 2.33633 0.212746 0
M  V30 97 C 12.2727 1.4744 0.923983 0
M  V30 98 O 13.4487 1.80393 0.895572 0
M  V30 99 C 10.5137 3.23884 1.23693 0
M  V30 100 C 9.5747 4.25961 0.534417 0
M  V30 101 C 8.8077 5.11899 1.5098 0
M  V30 102 O 9.0307 5.00077 2.7437 0
M  V30 103 O 7.9647 5.92831 1.0409 0
M  V30 104 H 11.7907 2.99714 -0.490416 0
M  V30 105 H 9.3757 1.46235 -0.305871 0
M  V30 106 H 11.2577 3.79666 1.82843 0
M  V30 107 H 9.9327 2.60446 1.92222 0
M  V30 108 H 8.8397 3.73972 -0.0979679 0
M  V30 109 H 10.1727 4.92079 -0.109213 0
M  V30 110 N 11.8248 0.280983 1.55075 0
M  V30 111 C 12.7568 -0.637268 2.20163 0
M  V30 112 C 13.7698 -1.11298 1.18813 0
M  V30 113 O 14.9588 -1.03388 1.4551 0
M  V30 114 C 12.0588 -1.88199 2.81841 0
M  V30 115 C 11.2318 -1.55211 4.08936 0
M  V30 116 C 10.2908 -2.64991 4.54606 0
M  V30 117 O 9.3168 -2.30929 5.2025 0
M  V30 118 N 10.5188 -3.95161 4.25238 0
M  V30 119 H 13.2838 -0.0801694 2.99593 0
M  V30 120 H 10.8448 0.102329 1.61576 0
M  V30 121 H 12.8368 -2.60948 3.09335 0
M  V30 122 H 11.4068 -2.34799 2.06369 0
M  V30 123 H 10.6268 -0.658185 3.88666 0
M  V30 124 H 11.9148 -1.30681 4.91732 0
M  V30 125 H 11.3128 -4.25653 3.72607 0
M  V30 126 H 9.8698 -4.6427 4.5749 0
M  V30 127 N 13.3029 -1.57598 0.00835791 0
M  V30 128 C 14.2349 -2.05811 -1.00868 0
M  V30 129 C 15.2479 -0.977579 -1.30182 0
M  V30 130 O 16.4369 -1.25421 -1.27011 0
M  V30 131 C 13.5369 -2.45016 -2.34137 0
M  V30 132 C 12.7099 -3.75903 -2.23643 0
M  V30 133 C 11.7689 -4.01884 -3.3967 0
M  V30 134 O 10.7949 -4.72433 -3.17483 0
M  V30 135 N 11.9969 -3.50432 -4.62793 0
M  V30 136 H 14.7619 -2.93684 -0.597458 0
M  V30 137 H 12.3229 -1.60909 -0.178852 0
M  V30 138 H 14.3149 -2.59506 -3.10546 0
M  V30 139 H 12.8849 -1.62618 -2.66972 0
M  V30 140 H 12.1049 -3.7141 -1.32091 0
M  V30 141 H 13.3929 -4.61695 -2.13812 0
M  V30 142 H 12.7909 -2.93317 -4.83716 0
M  V30 143 H 11.3479 -3.70236 -5.3644 0
M  V30 144 N 14.781 0.264519 -1.55364 0
M  V30 145 C 15.744 1.31046 -1.88042 0
M  V30 146 C 16.744 1.41943 -0.755569 0
M  V30 147 O 17.934 1.40947 -1.02369 0
M  V30 148 C 15.066 2.69067 -2.09323 0
M  V30 149 H 16.259 1.03297 -2.81549 0
M  V30 150 H 13.812 0.502989 -1.47986 0
M  V30 151 H 14.547 3.01982 -1.18226 0
M  V30 152 H 14.332 2.62542 -2.91229 0
M  V30 153 H 15.822 3.44623 -2.35848 0
M  V30 154 N 16.2591 1.48442 0.529413 0
M  V30 155 C 17.6751 1.34575 0.858004 0
M  V30 156 C 17.8751 0.3572 1.98309 0
M  V30 157 O 16.9311 -0.221379 2.51528 0
M  V30 158 C 18.2441 2.74617 1.22499 0
M  V30 159 C 19.7921 2.83109 1.33484 0
M  V30 160 C 20.2671 4.23854 1.73526 0
M  V30 161 N 21.7581 4.2653 1.80628 0
M  V30 162 C 22.4931 5.32372 2.12997 0
M  V30 163 N 21.9891 6.48491 2.43786 0
M  V30 164 N 23.7821 5.19766 2.14008 0
M  V30 165 H 15.9331 2.1133 -0.212925 0
M  V30 166 H 18.1961 0.947439 -0.0326199 0
M  V30 167 H 17.9021 3.4852 0.471905 0
M  V30 168 H 17.7761 3.08177 2.17501 0
M  V30 169 H 20.1631 2.09462 2.0787 0
M  V30 170 H 20.2441 2.53168 0.366027 0
M  V30 171 H 19.8881 4.98018 0.997013 0
M  V30 172 H 19.8181 4.5124 2.71459 0
M  V30 173 H 22.3091 3.42772 1.59108 0
M  V30 174 H 22.6221 7.24993 2.67592 0
M  V30 175 H 20.9671 6.51765 2.41304 0
M  V30 176 H 24.1581 4.28066 1.89412 0
M  V30 177 H 24.3311 6.02354 2.38902 0
M  V30 178 N 17.7372 -0.778329 1.37039 0
M  V30 179 C 18.6472 -1.92253 1.34446 0
M  V30 180 C 19.6632 -1.72267 0.244991 0
M  V30 181 O 20.8392 -1.95615 0.479258 0
M  V30 182 C 17.9042 -3.27282 1.144 0
M  V30 183 C 16.9652 -3.59969 2.33925 0
M  V30 184 C 16.1982 -4.88555 2.14825 0
M  V30 185 O 16.4212 -5.59113 1.12912 0
M  V30 186 O 15.3552 -5.20153 3.02861 0
M  V30 187 H 19.1812 -1.97392 2.30803 0
M  V30 188 H 16.7662 -0.920154 1.17701 0
M  V30 189 H 18.6482 -4.08062 1.05182 0
M  V30 190 H 17.3232 -3.23011 0.211124 0
M  V30 191 H 16.2302 -2.7945 2.48714 0
M  V30 192 H 17.5632 -3.68976 3.25757 0
M  V30 193 N 19.2153 -1.21501 -1.00376 0
M  V30 194 C 20.1473 -0.933174 -2.09343 0
M  V30 195 C 21.1603 0.0840896 -1.62583 0
M  V30 196 O 22.3493 -0.148563 -1.77881 0
M  V30 197 C 19.4493 -0.379869 -3.36764 0
M  V30 198 C 18.6223 -1.45176 -4.12605 0
M  V30 199 C 17.6813 -0.907476 -5.18316 0
M  V30 200 O 16.7073 -1.5912 -5.46507 0
M  V30 201 N 17.9093 0.276649 -5.7984 0
M  V30 202 H 20.6743 -1.87124 -2.34104 0
M  V30 203 H 18.2353 -1.12043 -1.16867 0
M  V30 204 H 20.2273 -0.00131488 -4.047 0
M  V30 205 H 18.7973 0.463048 -3.09151 0
M  V30 206 H 18.0173 -2.00411 -3.39454 0
M  V30 207 H 19.3053 -2.17328 -4.6005 0
M  V30 208 H 18.7033 0.849147 -5.59291 0
M  V30 209 H 17.2603 0.596702 -6.49063 0
M  V30 210 N 20.6934 1.19889 -1.02296 0
M  V30 211 C 21.9704 1.85148 -0.630832 0
M  V30 212 C 22.3504 1.91385 0.890782 0
M  V30 213 O 21.6984 1.42642 1.78509 0
M  V30 214 C 21.9084 3.24442 -1.28602 0
M  V30 215 C 23.2564 4.00663 -1.4055 0
M  V30 216 O 24.2804 3.33818 -1.24273 0
M  V30 217 O 23.1394 5.20387 -1.66913 0
M  V30 218 H 20.2334 0.797613 -0.218499 0
M  V30 219 H 22.7794 1.27427 -1.12074 0
M  V30 220 H 21.5514 3.14704 -2.32545 0
M  V30 221 H 21.1744 3.89802 -0.7836 0
M  V30 222 N 22.1715 0.800033 1.35784 0
M  V30 223 C 23.1015 0.220184 2.3246 0
M  V30 224 C 24.0825 -0.65073 1.57161 0
M  V30 225 O 25.2675 -0.582359 1.85263 0
M  V30 226 C 22.3975 -0.637353 3.41402 0
M  V30 227 C 21.3515 0.134531 4.27789 0
M  V30 228 C 20.6775 -0.844285 5.27992 0
M  V30 229 C 21.9775 1.32979 5.05088 0
M  V30 230 H 23.6715 1.02787 2.81203 0
M  V30 231 H 21.2175 0.495717 1.35199 0
M  V30 232 H 23.1705 -1.05302 4.08031 0
M  V30 233 H 21.8945 -1.47785 2.91251 0
M  V30 234 H 20.5535 0.531296 3.6273 0
M  V30 235 H 20.2015 -1.68011 4.74111 0
M  V30 236 H 19.9015 -0.332184 5.8666 0
M  V30 237 H 21.4255 -1.2583 5.97494 0
M  V30 238 H 22.8395 0.98934 5.64699 0
M  V30 239 H 21.2365 1.77593 5.7322 0
M  V30 240 H 22.3065 2.11978 4.36111 0
M  V30 241 N 23.6496 -1.47581 0.552962 0
M  V30 242 C 24.8956 -2.02782 0.0273648 0
M  V30 243 C 25.2286 -1.42687 -1.31734 0
M  V30 244 O 24.5036 -0.580897 -1.85623 0
M  V30 245 C 24.7866 -3.60031 -0.0702371 0
M  V30 246 C 24.6396 -4.30566 1.30126 0
M  V30 247 C 25.9586 -4.33028 -0.785771 0
M  V30 248 H 23.0776 -0.736912 0.0114185 0
M  V30 249 H 25.7196 -1.76056 0.714432 0
M  V30 250 H 23.8696 -3.82932 -0.655382 0
M  V30 251 H 25.5416 -4.19018 1.92929 0
M  V30 252 H 23.7846 -3.91086 1.87709 0
M  V30 253 H 24.4556 -5.39114 1.18573 0
M  V30 254 H 26.9316 -4.15095 -0.288982 0
M  V30 255 H 25.8076 -5.42695 -0.823013 0
M  V30 256 H 26.0686 -4.01945 -1.841 0
M  V30 257 N 25.1277 -0.289203 -1.54924 0
M  V30 258 C 26.0377 0.601863 -2.26748 0
M  V30 259 C 27.0537 1.15834 -1.2984 0
M  V30 260 O 28.2297 1.18564 -1.62802 0
M  V30 261 C 25.2947 1.76299 -2.98529 0
M  V30 262 C 24.3557 1.24178 -4.10948 0
M  V30 263 C 23.5887 2.34757 -4.79296 0
M  V30 264 O 23.8117 3.54411 -4.46933 0
M  V30 265 O 22.7457 2.02115 -5.66951 0
M  V30 266 H 26.5717 0.0195879 -3.03694 0
M  V30 267 H 24.1567 -0.0560868 -1.49295 0
M  V30 268 H 26.0387 2.43973 -3.43592 0
M  V30 269 H 24.7137 2.33209 -2.24488 0
M  V30 270 H 23.6207 0.531104 -3.70311 0
M  V30 271 H 24.9537 0.718252 -4.86931 0
M  V30 272 N 26.6058 1.57591 -0.0167156 0
M  V30 273 C 28.0218 1.55946 0.339557 0
M  V30 274 C 28.2218 1.02109 1.73713 0
M  V30 275 O 27.2778 0.662303 2.43659 0
M  V30 276 C 28.5908 3.00037 0.199499 0
M  V30 277 C 30.1388 3.11805 0.273193 0
M  V30 278 C 30.6138 4.57713 0.162068 0
M  V30 279 N 32.1048 4.6268 0.219444 0
M  V30 280 C 32.8398 5.73185 0.157054 0
M  V30 281 N 32.3358 6.92786 0.0442936 0
M  V30 282 N 34.1288 5.61707 0.21014 0
M  V30 283 H 26.2798 1.90921 -0.930758 0
M  V30 284 H 28.5428 0.877674 -0.358319 0
M  V30 285 H 28.2488 3.4333 -0.76273 0
M  V30 286 H 28.1228 3.64387 0.974786 0
M  V30 287 H 30.5098 2.68433 1.22587 0
M  V30 288 H 30.5908 2.50201 -0.532256 0
M  V30 289 H 30.2348 5.01763 -0.78714 0
M  V30 290 H 30.1648 5.17283 0.986222 0
M  V30 291 H 32.6558 3.76649 0.307246 0
M  V30 292 H 32.9688 7.728 0.00304069 0
M  V30 293 H 31.3138 6.94999 0.00968457 0
M  V30 294 H 34.5048 4.6716 0.296546 0
M  V30 295 H 34.6778 6.47807 0.158054 0
M  V30 296 N 28.0839 -0.256276 1.55502 0
M  V30 297 C 29.3299 -0.987079 1.77157 0
M  V30 298 C 29.6629 -1.85327 0.580315 0
M  V30 299 O 28.9379 -1.89874 -0.421686 0
M  V30 300 C 29.2209 -1.85553 3.08613 0
M  V30 301 C 29.0739 -1.01816 4.38125 0
M  V30 302 C 30.3929 -2.8397 3.36228 0
M  V30 303 H 27.5119 -0.357428 0.644526 0
M  V30 304 H 30.1539 -0.258239 1.88237 0
M  V30 305 H 28.3039 -2.47695 2.99298 0
M  V30 306 H 29.9759 -0.416159 4.59419 0
M  V30 307 H 28.2189 -0.322178 4.32602 0
M  V30 308 H 28.8899 -1.65939 5.26468 0
M  V30 309 H 31.3659 -2.31964 3.45445 0
M  V30 310 H 30.2419 -3.41864 4.29442 0
M  V30 311 H 30.5029 -3.59955 2.56681 0
M  V30 312 N 29.562 -1.4872 -0.521534 0
M  V30 313 C 30.492 -1.66771 -1.63431 0
M  V30 314 C 31.473 -0.516499 -1.62069 0
M  V30 315 O 32.658 -0.750013 -1.79132 0
M  V30 316 C 29.788 -1.71515 -3.01993 0
M  V30 317 C 28.742 -2.86222 -3.18216 0
M  V30 318 C 28.068 -2.76061 -4.57924 0
M  V30 319 C 29.368 -4.27419 -3.00184 0
M  V30 320 H 31.062 -2.59932 -1.48579 0
M  V30 321 H 28.608 -1.25089 -0.713358 0
M  V30 322 H 30.561 -1.82731 -3.7972 0
M  V30 323 H 29.285 -0.749393 -3.17886 0
M  V30 324 H 27.944 -2.74575 -2.42908 0
M  V30 325 H 27.592 -1.77437 -4.70665 0
M  V30 326 H 27.292 -3.53037 -4.69722 0
M  V30 327 H 28.816 -2.89256 -5.37739 0
M  V30 328 H 30.23 -4.39855 -3.67697 0
M  V30 329 H 28.627 -5.05458 -3.2347 0
M  V30 330 H 29.697 -4.43293 -1.96518 0
M  V30 331 N 31.0401 0.771051 -1.3745 0
M  V30 332 C 32.4561 1.07171 -1.18265 0
M  V30 333 C 32.6561 2.01491 -0.019287 0
M  V30 334 O 31.7121 2.44244 0.640408 0
M  V30 335 C 33.0251 1.66854 -2.50161 0
M  V30 336 C 34.5731 1.79109 -2.56689 0
M  V30 337 C 35.0481 2.42205 -3.88717 0
M  V30 338 N 36.5391 2.49655 -3.90162 0
M  V30 339 C 37.2741 2.9933 -4.8907 0
M  V30 340 N 36.7701 3.49172 -5.98374 0
M  V30 341 N 38.5631 2.9821 -4.76474 0
M  V30 342 H 30.7141 0.144796 -2.11906 0
M  V30 343 H 32.9771 0.126863 -0.939473 0
M  V30 344 H 32.6831 1.05017 -3.35655 0
M  V30 345 H 32.5571 2.6614 -2.673 0
M  V30 346 H 34.9441 2.40077 -1.71601 0
M  V30 347 H 35.0251 0.785757 -2.43433 0
M  V30 348 H 34.6691 1.81875 -4.74219 0
M  V30 349 H 34.5991 3.43345 -3.99276 0
M  V30 350 H 37.0901 2.14383 -3.11205 0
M  V30 351 H 37.4031 3.8548 -6.69795 0
M  V30 352 H 35.7481 3.47275 -6.02018 0
M  V30 353 H 38.9391 2.58572 -3.90203 0
M  V30 354 H 39.1121 3.36613 -5.53711 0
M  V30 355 N 32.5182 1.22032 0.997298 0
M  V30 356 C 33.7432 1.06921 1.77715 0
M  V30 357 C 34.1682 -0.376226 1.84299 0
M  V30 358 O 33.5262 -1.27165 1.29223 0
M  V30 359 C 33.5742 1.67996 3.19076 0
M  V30 360 O 32.6782 0.930653 4.01762 0
M  V30 361 H 32.0192 0.375814 0.547412 0
M  V30 362 H 34.5492 1.61737 1.25309 0
M  V30 363 H 34.5592 1.72538 3.69723 0
M  V30 364 H 33.2342 2.73182 3.13599 0
M  V30 365 H 31.8112 0.960917 3.60307 0
M  V30 366 N 33.9963 -1.19345 1.0293 0
M  V30 367 C 35.2433 -1.89038 0.726008 0
M  V30 368 C 35.5713 -1.79649 -0.745427 0
M  V30 369 O 34.8263 -1.18354 -1.55855 0
M  V30 370 C 35.1253 -3.39292 1.12319 0
M  V30 371 C 34.7913 -3.68885 2.59297 0
M  V30 372 C 33.4533 -3.76671 2.99453 0
M  V30 373 C 35.8053 -3.82178 3.54386 0
M  V30 374 C 33.1333 -3.9522 4.33611 0
M  V30 375 C 35.4853 -4.0224 4.88248 0
M  V30 376 C 34.1493 -4.08259 5.28092 0
M  V30 377 H 33.4193 -0.691739 0.265665 0
M  V30 378 H 36.0663 -1.41328 1.29223 0
M  V30 379 H 34.3713 -3.88903 0.475584 0
M  V30 380 H 36.0683 -3.91536 0.866037 0
M  V30 381 H 32.6583 -3.63433 2.27189 0
M  V30 382 H 36.8423 -3.75505 3.24514 0
M  V30 383 H 32.0983 -3.98119 4.64016 0
M  V30 384 H 36.2723 -4.11468 5.61843 0
M  V30 385 H 33.8993 -4.22384 6.32057 0
M  V30 386 N 35.4744 -0.807222 -1.35358 0
M  V30 387 C 36.7514 -0.311126 -1.9311 0
M  V30 388 C 37.1314 1.19937 -1.73719 0
M  V30 389 O 36.4794 1.99918 -1.10657 0
M  V30 390 C 36.6894 -0.723226 -3.41424 0
M  V30 391 C 38.0374 -0.713078 -4.18569 0
M  V30 392 O 39.0614 -0.664811 -3.49941 0
M  V30 393 O 37.9204 -0.772022 -5.41019 0
M  V30 394 H 35.0144 -0.081526 -0.822972 0
M  V30 395 H 37.5604 -0.890962 -1.4443 0
M  V30 396 H 36.3324 -1.76426 -3.4927 0
M  V30 397 H 35.9554 -0.118232 -3.97424 0
M  V30 398 N 36.9525 1.47285 -0.560781 0
M  V30 399 C 37.9155 2.28535 0.174488 0
M  V30 400 C 38.9155 1.37153 0.839388 0
M  V30 401 O 40.1055 1.59748 0.694702 0
M  V30 402 C 37.2375 3.16934 1.25561 0
M  V30 403 H 38.4305 2.95012 -0.539262 0
M  V30 404 H 35.9835 1.53034 -0.317865 0
M  V30 405 H 36.7185 2.55157 2.00164 0
M  V30 406 H 36.5035 3.8419 0.783604 0
M  V30 407 H 37.9935 3.78143 1.77193 0
M  V30 408 N 38.4306 0.297415 1.54768 0
M  V30 409 C 39.6586 -0.315623 2.04478 0
M  V30 410 C 40.0736 -1.47792 1.17486 0
M  V30 411 O 39.4306 -1.81404 0.19971 0
M  V30 412 C 39.4816 -0.7753 3.53088 0
M  V30 413 O 39.2026 0.340732 4.36773 0
M  V30 414 C 40.7036 -1.45386 4.18781 0
M  V30 415 H 37.9236 -0.0690887 0.667434 0
M  V30 416 H 40.4676 0.436003 1.99798 0
M  V30 417 H 38.6226 -1.47696 3.58141 0
M  V30 418 H 39.0366 -0.0165035 5.24497 0
M  V30 419 H 40.5106 -1.72669 5.24299 0
M  V30 420 H 40.9876 -2.39275 3.68299 0
M  V30 421 H 41.5936 -0.795475 4.17795 0
M  V30 422 N 39.9087 -1.5758 0.0250728 0
M  V30 423 C 40.8717 -2.08896 -0.943139 0
M  V30 424 C 41.8717 -1.00321 -1.25668 0
M  V30 425 O 43.0617 -1.26495 -1.19769 0
M  V30 426 C 40.1937 -2.55143 -2.26086 0
M  V30 427 H 41.3867 -2.95723 -0.498775 0
M  V30 428 H 38.9397 -1.54703 -0.222888 0
M  V30 429 H 39.6747 -1.71633 -2.75159 0
M  V30 430 H 39.4597 -3.34461 -2.04641 0
M  V30 431 H 40.9497 -2.95083 -2.95492 0
M  V30 432 N 41.3868 0.248026 -1.55636 0
M  V30 433 C 42.6638 0.998988 -1.68165 0
M  V30 434 C 43.0438 2.03409 -0.564621 0
M  V30 435 O 42.3918 2.24378 0.432076 0
M  V30 436 C 42.6018 1.63334 -3.0842 0
M  V30 437 C 43.9498 2.13562 -3.66983 0
M  V30 438 O 44.9738 1.73277 -3.11213 0
M  V30 439 O 43.8328 2.87526 -4.64749 0
M  V30 440 H 40.9268 0.464933 -0.683935 0
M  V30 441 H 43.4728 0.241902 -1.67967 0
M  V30 442 H 42.2448 0.884583 -3.8117 0
M  V30 443 H 41.8678 2.45666 -3.12624 0
M  V30 444 N 42.8649 1.48995 0.513639 0
M  V30 445 C 44.2759 1.5119 1.09537 0
M  V30 446 C 44.6269 0.290906 1.94031 0
M  V30 447 O 43.7519 -0.60049 2.07902 0
M  V30 448 C 44.3469 2.73964 1.99322 0
M  V30 449 C 42.9059 2.78978 2.52682 0
M  V30 450 C 42.0529 2.44934 1.30009 0
M  V30 451 H 45.0039 1.55875 0.298125 0
M  V30 452 H 45.0249 2.53409 2.83838 0
M  V30 453 H 44.5369 3.62813 1.37799 0
M  V30 454 H 42.6379 1.94378 3.1788 0
M  V30 455 H 42.7509 3.8083 2.90698 0
M  V30 456 H 41.1149 1.9644 1.62122 0
M  V30 457 H 41.8979 3.36043 0.702131 0
M  V30 458 N 44.343 -0.763751 1.37857 0
M  V30 459 C 45.759 -1.06542 1.18832 0
M  V30 460 C 45.959 -2.01478 0.0299722 0
M  V30 461 O 45.015 -2.4458 -0.627447 0
M  V30 462 C 46.328 -1.65525 2.51042 0
M  V30 463 C 47.876 -1.77745 2.57635 0
M  V30 464 C 48.351 -2.4014 3.89996 0
M  V30 465 N 49.842 -2.47582 3.91481 0
M  V30 466 C 50.577 -2.96732 4.9065 0
M  V30 467 N 50.073 -3.45993 6.00217 0
M  V30 468 N 51.866 -2.95679 4.78048 0
M  V30 469 H 44.017 -0.133556 2.1198 0
M  V30 470 H 46.28 -0.121879 0.940133 0
M  V30 471 H 45.986 -1.03236 3.36207 0
M  V30 472 H 45.86 -2.64719 2.68707 0
M  V30 473 H 48.247 -2.39164 1.72872 0
M  V30 474 H 48.328 -0.772836 2.43846 0
M  V30 475 H 47.972 -1.79358 4.75177 0
M  V30 476 H 47.902 -3.41223 4.01092 0
M  V30 477 H 50.393 -2.1273 3.12337 0
M  V30 478 H 50.706 -3.81922 6.7183 0
M  V30 479 H 49.051 -3.44077 6.03851 0
M  V30 480 H 52.242 -2.56499 3.91568 0
M  V30 481 H 52.415 -3.33672 5.55488 0
M  V30 482 N 45.8211 -1.22559 -0.990812 0
M  V30 483 C 46.7511 -1.0218 -2.09956 0
M  V30 484 C 47.7321 0.0579394 -1.70001 0
M  V30 485 O 48.9171 -0.104684 -1.93918 0
M  V30 486 C 46.0471 -0.601023 -3.4206 0
M  V30 487 C 45.0011 -1.62694 -3.95872 0
M  V30 488 C 44.3271 -1.06193 -5.24049 0
M  V30 489 C 45.6271 -3.01743 -4.2632 0
M  V30 490 H 47.3211 -1.94916 -2.27262 0
M  V30 491 H 44.8671 -0.938566 -1.09211 0
M  V30 492 H 46.8201 -0.445561 -4.19038 0
M  V30 493 H 45.5441 0.362005 -3.24588 0
M  V30 494 H 44.2031 -1.77021 -3.21028 0
M  V30 495 H 43.8511 -0.0901903 -5.02919 0
M  V30 496 H 43.5511 -1.74732 -5.61019 0
M  V30 497 H 45.0751 -0.918092 -6.03658 0
M  V30 498 H 46.4891 -2.90777 -4.94087 0
M  V30 499 H 44.8861 -3.67425 -4.74467 0
M  V30 500 H 45.9561 -3.51518 -3.34011 0
M  V30 501 N 47.2992 1.18797 -1.03562 0
M  V30 502 C 48.2462 2.22253 -0.622259 0
M  V30 503 C 49.2162 1.61987 0.36736 0
M  V30 504 O 50.4012 1.88986 0.262492 0
M  V30 505 C 47.5412 3.45097 0.0138462 0
M  V30 506 C 46.6542 4.19722 -1.02263 0
M  V30 507 C 45.7892 5.30009 -0.355573 0
M  V30 508 C 44.8282 5.96399 -1.37749 0
M  V30 509 N 43.9652 6.98234 -0.735766 0
M  V30 510 H 48.8052 2.56968 -1.50903 0
M  V30 511 H 46.3422 1.26245 -0.755017 0
M  V30 512 H 48.3002 4.15279 0.399948 0
M  V30 513 H 46.9302 3.11018 0.864158 0
M  V30 514 H 45.9822 3.48418 -1.52673 0
M  V30 515 H 47.2942 4.65227 -1.79903 0
M  V30 516 H 46.4482 6.0664 0.0850095 0
M  V30 517 H 45.1872 4.85592 0.452967 0
M  V30 518 H 44.1922 5.18512 -1.82826 0
M  V30 519 H 45.4172 6.42899 -2.18764 0
M  V30 520 H 43.3632 6.55979 0.0525597 0
M  V30 521 H 43.2802 7.41965 -1.44995 0
M  V30 522 H 44.5482 7.78845 -0.31941 0
M  V30 523 N 48.7773 0.814389 1.34928 0
M  V30 524 C 49.7093 0.187834 2.28429 0
M  V30 525 C 50.7223 -0.617374 1.5064 0
M  V30 526 O 51.9113 -0.448454 1.72775 0
M  V30 527 C 49.0113 -0.755962 3.30361 0
M  V30 528 C 48.1843 0.00456686 4.374 0
M  V30 529 C 47.2433 -0.858876 5.19143 0
M  V30 530 O 46.2693 -0.306968 5.68372 0
M  V30 531 N 47.4713 -2.17988 5.38016 0
M  V30 532 H 50.2363 0.991105 2.82838 0
M  V30 533 H 47.7973 0.670561 1.4736 0
M  V30 534 H 49.7893 -1.338 3.81942 0
M  V30 535 H 48.3593 -1.46001 2.7641 0
M  V30 536 H 47.5793 0.767865 3.86649 0
M  V30 537 H 48.8673 0.528422 5.06049 0
M  V30 538 H 48.2653 -2.65212 4.99679 0
M  V30 539 H 46.8223 -2.71098 5.92747 0
M  V30 540 N 50.2554 -1.46986 0.568584 0
M  V30 541 C 51.5014 -2.02741 0.0488709 0
M  V30 542 C 51.8344 -1.44077 -1.30214 0
M  V30 543 O 51.1094 -0.600552 -1.84996 0
M  V30 544 C 51.3924 -3.60086 -0.032047 0
M  V30 545 C 51.2454 -4.29162 1.34686 0
M  V30 546 C 52.5644 -4.33838 -0.739798 0
M  V30 547 H 49.6834 -0.736749 0.0192338 0
M  V30 548 H 52.3254 -1.75289 0.733065 0
M  V30 549 H 50.4754 -3.83606 -0.61473 0
M  V30 550 H 52.1474 -4.16948 1.97362 0
M  V30 551 H 50.3904 -3.89073 1.91846 0
M  V30 552 H 51.0614 -5.37826 1.24285 0
M  V30 553 H 53.5374 -4.15378 -0.244939 0
M  V30 554 H 52.4134 -5.43537 -0.765406 0
M  V30 555 H 52.6744 -4.03875 -1.79827 0
M  V30 556 N 51.7335 -0.305618 -1.54608 0
M  V30 557 C 52.6665 0.610536 -2.19881 0
M  V30 558 C 53.6445 1.1294 -1.16976 0
M  V30 559 O 54.8285 1.19673 -1.45638 0
M  V30 560 C 51.9555 1.83583 -2.84631 0
M  V30 561 C 51.0015 1.4498 -4.01102 0
M  V30 562 S 51.8345 0.501793 -5.33144 0
M  V30 563 C 52.9905 1.73478 -6.01379 0
M  V30 564 H 53.2235 0.0560177 -2.97247 0
M  V30 565 H 50.7565 -0.0897434 -1.54139 0
M  V30 566 H 52.7145 2.53898 -3.22562 0
M  V30 567 H 51.3755 2.36152 -2.07102 0
M  V30 568 H 50.5685 2.36236 -4.45206 0
M  V30 569 H 50.1705 0.826553 -3.64752 0
M  V30 570 H 52.4625 2.67473 -6.22467 0
M  V30 571 H 53.4055 1.33622 -6.95378 0
M  V30 572 H 53.8135 1.9136 -5.31076 0
M  V30 573 N 53.2116 1.57565 -0.0334293 0
M  V30 574 C 54.1436 2.0739 0.975811 0
M  V30 575 C 55.1566 0.998166 1.2861 0
M  V30 576 O 56.3456 1.27426 1.25 0
M  V30 577 C 53.4456 2.4871 2.30209 0
M  V30 578 C 52.6186 3.79413 2.17634 0
M  V30 579 C 51.6776 4.07237 3.33233 0
M  V30 580 O 50.7036 4.77425 3.09927 0
M  V30 581 N 51.9056 3.5775 4.5716 0
M  V30 582 H 54.6706 2.94598 0.55066 0
M  V30 583 H 52.2316 1.61173 0.15323 0
M  V30 584 H 54.2236 2.64413 3.06378 0
M  V30 585 H 52.7936 1.66845 2.64351 0
M  V30 586 H 52.0136 3.73465 1.26165 0
M  V30 587 H 53.3016 4.65038 2.0644 0
M  V30 588 H 52.6996 3.00976 4.78989 0
M  V30 589 H 51.2566 3.78724 5.30482 0
M  V30 590 N 54.6897 -0.239769 1.55765 0
M  V30 591 C 55.6527 -1.28038 1.90103 0
M  V30 592 C 56.6527 -1.40723 0.778055 0
M  V30 593 O 57.8427 -1.39301 1.04599 0
M  V30 594 C 54.9747 -2.65702 2.13577 0
M  V30 595 H 56.1677 -0.988048 2.83157 0
M  V30 596 H 53.7207 -0.479382 1.48767 0
M  V30 597 H 54.4557 -3.00063 1.23015 0
M  V30 598 H 54.2407 -2.57875 2.95369 0
M  V30 599 H 55.7307 -3.40828 2.41301 0
M  V30 600 N 56.1678 -1.49265 -0.50573 0
M  V30 601 C 57.0978 -1.68495 -1.61653 0
M  V30 602 C 58.0788 -0.53366 -1.61512 0
M  V30 603 O 59.2638 -0.76897 -1.78327 0
M  V30 604 C 56.3938 -1.74709 -3.00157 0
M  V30 605 C 55.3478 -2.89581 -3.15162 0
M  V30 606 C 54.6738 -2.80903 -4.5497 0
M  V30 607 C 55.9738 -4.30578 -2.95634 0
M  V30 608 H 57.6678 -2.61493 -1.45814 0
M  V30 609 H 55.2138 -1.25838 -0.70005 0
M  V30 610 H 57.1668 -1.86748 -3.77761 0
M  V30 611 H 55.8908 -0.783067 -3.17074 0
M  V30 612 H 54.5498 -2.77136 -2.39982 0
M  V30 613 H 54.1978 -1.82419 -4.68756 0
M  V30 614 H 53.8978 -3.57999 -4.65951 0
M  V30 615 H 55.4218 -2.94944 -5.34641 0
M  V30 616 H 56.8358 -4.4373 -3.63011 0
M  V30 617 H 55.2328 -5.0886 -3.18091 0
M  V30 618 H 56.3028 -4.45352 -1.91806 0
M  V30 619 N 57.6459 0.756429 -1.3826 0
M  V30 620 C 58.8739 1.54565 -1.3754 0
M  V30 621 C 59.2889 1.88767 0.0355331 0
M  V30 622 O 58.6459 1.52572 1.0014 0
M  V30 623 C 58.6969 2.84654 -2.22833 0
M  V30 624 O 58.4179 2.51912 -3.5843 0
M  V30 625 C 59.9189 3.78807 -2.30261 0
M  V30 626 H 57.1389 0.478353 -0.470553 0
M  V30 627 H 59.6829 0.936381 -1.81803 0
M  V30 628 H 57.8379 3.41965 -1.8204 0
M  V30 629 H 58.2519 3.35325 -4.03308 0
M  V30 630 H 59.7259 4.67045 -2.94233 0
M  V30 631 H 60.2029 4.19038 -1.31545 0
M  V30 632 H 60.8089 3.2742 -2.71433 0
M  V30 633 N 59.124 1.23083 0.984299 0
M  V30 634 C 60.54 0.992637 1.24975 0
M  V30 635 C 60.74 -0.308618 1.99123 0
M  V30 636 O 59.796 -1.02905 2.30579 0
M  V30 637 C 61.109 2.19698 2.05312 0
M  V30 638 C 62.657 2.24147 2.18465 0
M  V30 639 C 63.132 3.44157 3.02192 0
M  V30 640 N 64.623 3.44372 3.09777 0
M  V30 641 C 65.358 4.33886 3.74874 0
M  V30 642 N 64.854 5.3363 4.41827 0
M  V30 643 N 66.647 4.21639 3.71721 0
M  V30 644 H 58.798 2.06731 0.487453 0
M  V30 645 H 61.061 0.906339 0.277944 0
M  V30 646 H 60.767 3.1411 1.58201 0
M  V30 647 H 60.641 2.20465 3.06064 0
M  V30 648 H 63.028 1.30277 2.64786 0
M  V30 649 H 63.109 2.27415 1.17115 0
M  V30 650 H 62.753 4.38332 2.56568 0
M  V30 651 H 62.683 3.3813 4.03702 0
M  V30 652 H 65.174 2.72201 2.62135 0
M  V30 653 H 65.487 5.98196 4.89266 0
M  V30 654 H 63.832 5.37534 4.40548 0
M  V30 655 H 67.023 3.42962 3.18582 0
M  V30 656 H 67.196 4.91604 4.22173 0
M  V30 657 N 60.6021 -1.18246 1.0419 0
M  V30 658 C 61.5521 -2.19843 0.604392 0
M  V30 659 C 62.5361 -1.56962 -0.353814 0
M  V30 660 O 63.7281 -1.76156 -0.17267 0
M  V30 661 C 60.8571 -3.43287 -0.0298975 0
M  V30 662 C 59.9431 -4.13288 0.951531 0
M  V30 663 N 60.3341 -4.59271 2.11906 0
M  V30 664 C 58.6321 -4.39165 0.7778 0
M  V30 665 C 59.3331 -5.13173 2.73912 0
M  V30 666 N 58.3091 -5.04763 2.01779 0
M  V30 667 H 62.1111 -2.53089 1.4941 0
M  V30 668 H 59.6251 -1.34465 0.910658 0
M  V30 669 H 61.6221 -4.15334 -0.361037 0
M  V30 670 H 60.2821 -3.11537 -0.915127 0
M  V30 671 H 61.2931 -4.5368 2.49789 0
M  V30 672 H 57.9701 -4.17461 -0.0572331 0
M  V30 673 H 59.3601 -5.58947 3.72864 0
M  V30 674 N 62.0802 -0.821533 -1.34494 0
M  V30 675 C 63.0102 -0.257138 -2.3208 0
M  V30 676 C 63.9912 0.625645 -1.58176 0
M  V30 677 O 65.1762 0.552811 -1.86166 0
M  V30 678 C 62.3062 0.582958 -3.42372 0
M  V30 679 C 61.2602 -0.202571 -4.2752 0
M  V30 680 C 60.5862 0.760179 -5.29269 0
M  V30 681 C 61.8862 -1.40998 -5.02908 0
M  V30 682 H 63.5802 -1.07247 -2.79532 0
M  V30 683 H 61.1262 -0.517163 -1.34393 0
M  V30 684 H 63.0792 0.987972 -4.09655 0
M  V30 685 H 61.8032 1.43133 -2.93565 0
M  V30 686 H 60.4622 -0.588936 -3.61838 0
M  V30 687 H 60.1102 1.60447 -4.76724 0
M  V30 688 H 59.8102 0.238809 -5.87115 0
M  V30 689 H 61.3342 1.16308 -5.9942 0
M  V30 690 H 62.7482 -1.07905 -5.63054 0
M  V30 691 H 61.1452 -1.86689 -5.70322 0
M  V30 692 H 62.2152 -2.1889 -4.32684 0
M  V30 693 N 63.5583 1.46682 -0.576371 0
M  V30 694 C 64.5083 2.27278 0.181288 0
M  V30 695 C 65.4923 1.35497 0.867721 0
M  V30 696 O 66.6843 1.59717 0.762863 0
M  V30 697 C 63.8133 3.21703 1.19841 0
M  V30 698 C 62.8993 4.20969 0.51442 0
M  V30 699 N 63.2903 5.03999 -0.426407 0
M  V30 700 C 61.5883 4.39373 0.765963 0
M  V30 701 C 62.2893 5.75812 -0.825565 0
M  V30 702 N 61.2653 5.43315 -0.176116 0
M  V30 703 H 65.0673 2.88863 -0.541785 0
M  V30 704 H 62.5813 1.57455 -0.397697 0
M  V30 705 H 64.5783 3.78145 1.75533 0
M  V30 706 H 63.2383 2.61677 1.92238 0
M  V30 707 H 64.2493 5.11659 -0.8016 0
M  V30 708 H 60.9263 3.90502 1.47698 0
M  V30 709 H 62.3163 6.52577 -1.59976 0
M  V30 710 N 65.0364 0.313813 1.54444 0
M  V30 711 C 65.9994 -0.54379 2.22656 0
M  V30 712 C 66.9994 -1.05124 1.21678 0
M  V30 713 O 68.1894 -0.945225 1.46325 0
M  V30 714 C 65.3214 -1.75427 2.92298 0
M  V30 715 H 66.5144 0.0523599 2.99854 0
M  V30 716 H 64.0674 0.0647834 1.56166 0
M  V30 717 H 64.8024 -2.38991 2.19211 0
M  V30 718 H 64.5874 -1.39791 3.66334 0
M  V30 719 H 66.0774 -2.36325 3.44297 0
M  V30 720 N 66.5145 -1.57545 0.0417849 0
M  V30 721 C 67.7615 -1.92317 -0.634082 0
M  V30 722 C 68.0895 -0.919334 -1.71402 0
M  V30 723 O 67.3445 0.0698253 -1.95575 0
M  V30 724 C 67.6435 -3.33794 -1.27735 0
M  V30 725 C 67.3095 -4.49716 -0.326543 0
M  V30 726 C 65.9715 -4.81156 -0.0648814 0
M  V30 727 C 68.3235 -5.20182 0.325623 0
M  V30 728 C 65.6515 -5.80414 0.856539 0
M  V30 729 C 68.0035 -6.20424 1.23518 0
M  V30 730 C 66.6675 -6.50298 1.5056 0
M  V30 731 H 65.9375 -0.703736 -0.232027 0
M  V30 732 H 68.5845 -1.91205 0.106259 0
M  V30 733 H 66.8895 -3.31228 -2.09274 0
M  V30 734 H 68.5865 -3.57975 -1.80707 0
M  V30 735 H 65.1765 -4.25176 -0.540665 0
M  V30 736 H 69.3605 -4.96112 0.136546 0
M  V30 737 H 64.6165 -6.019 1.07363 0
M  V30 738 H 68.7905 -6.74141 1.74664 0
M  V30 739 H 66.4175 -7.27025 2.22123 0
M  V30 740 N 67.9926 0.231505 -1.5589 0
M  V30 741 C 68.9226 1.29022 -1.94617 0
M  V30 742 C 69.9036 1.4941 -0.813067 0
M  V30 743 O 71.0886 1.6176 -1.07459 0
M  V30 744 C 68.2186 2.64199 -2.25424 0
M  V30 745 C 67.1726 2.58484 -3.41131 0
M  V30 746 C 66.4986 3.97599 -3.57518 0
M  V30 747 C 67.7986 2.1413 -4.76388 0
M  V30 748 H 69.4926 0.968563 -2.83301 0
M  V30 749 H 67.0386 0.464479 -1.36303 0
M  V30 750 H 68.9916 3.38413 -2.51107 0
M  V30 751 H 67.7156 2.98032 -1.33583 0
M  V30 752 H 66.3746 1.86727 -3.15481 0
M  V30 753 H 66.0226 4.28723 -2.6307 0
M  V30 754 H 65.7226 3.94659 -4.35337 0
M  V30 755 H 67.2466 4.7349 -3.85538 0
M  V30 756 H 68.6606 2.78083 -5.01341 0
M  V30 757 H 67.0576 2.2227 -5.57419 0
M  V30 758 H 68.1276 1.09331 -4.72414 0
M  V30 759 N 69.4707 1.49531 0.497807 0
M  V30 760 C 70.8867 1.36365 0.829266 0
M  V30 761 C 71.0867 0.399184 1.97506 0
M  V30 762 O 70.1427 -0.167977 2.51941 0
M  V30 763 C 71.4557 2.77153 1.16647 0
M  V30 764 C 73.0037 2.85877 1.27449 0
M  V30 765 C 73.4787 4.2744 1.64497 0
M  V30 766 N 74.9697 4.30265 1.7154 0
M  V30 767 C 75.7047 5.3677 2.01656 0
M  V30 768 N 75.2007 6.53516 2.29976 0
M  V30 769 N 76.9937 5.24189 2.02934 0
M  V30 770 H 69.1447 2.10831 -0.257703 0
M  V30 771 H 71.4077 0.946534 -0.0527091 0
M  V30 772 H 71.1137 3.49442 0.397872 0
M  V30 773 H 70.9877 3.12722 2.10915 0
M  V30 774 H 73.3747 2.13824 2.0338 0
M  V30 775 H 73.4557 2.53887 0.312244 0
M  V30 776 H 73.0997 5.00021 0.891151 0
M  V30 777 H 73.0297 4.56896 2.61827 0
M  V30 778 H 75.5207 3.4607 1.51802 0
M  V30 779 H 75.8337 7.30506 2.52153 0
M  V30 780 H 74.1787 6.56737 2.27425 0
M  V30 781 H 77.3697 4.31988 1.80289 0
M  V30 782 H 77.5427 6.07286 2.26071 0
M  V30 783 N 70.9488 -0.749086 1.3866 0
M  V30 784 C 71.8588 -1.89358 1.38494 0
M  V30 785 C 72.8748 -1.71708 0.281476 0
M  V30 786 O 74.0508 -1.94554 0.520643 0
M  V30 787 C 71.1158 -3.24782 1.21316 0
M  V30 788 C 70.1768 -3.54926 2.41508 0
M  V30 789 C 69.4098 -4.83888 2.2514 0
M  V30 790 O 69.6328 -5.56592 1.24746 0
M  V30 791 O 68.5668 -5.13612 3.13826 0
M  V30 792 H 72.3928 -1.92452 2.34938 0
M  V30 793 H 69.9778 -0.894981 1.19626 0
M  V30 794 H 71.8598 -4.05739 1.13814 0
M  V30 795 H 70.5348 -3.2249 0.279592 0
M  V30 796 H 69.4418 -2.74112 2.54585 0
M  V30 797 H 70.7748 -3.61983 3.3351 0
M  V30 798 N 72.4269 -1.23603 -0.977757 0
M  V30 799 C 73.6729 -1.07129 -1.72195 0
M  V30 800 C 74.0059 0.390501 -1.90233 0
M  V30 801 O 73.2809 1.28902 -1.45653 0
M  V30 802 C 73.5639 -1.80031 -3.11867 0
M  V30 803 C 73.4169 -3.33899 -3.01383 0
M  V30 804 C 74.7359 -1.56492 -4.11337 0
M  V30 805 H 71.8549 -0.390571 -0.624999 0
M  V30 806 H 74.4969 -1.52142 -1.13811 0
M  V30 807 H 72.6469 -1.41768 -3.6171 0
M  V30 808 H 74.3189 -3.81699 -2.59043 0
M  V30 809 H 72.5619 -3.62796 -2.37827 0
M  V30 810 H 73.2329 -3.801 -4.00285 0
M  V30 811 H 75.7089 -1.89757 -3.70313 0
M  V30 812 H 74.5849 -2.09973 -5.07151 0
M  V30 813 H 74.8459 -0.500874 -4.39254 0
M  V30 814 N 73.905 1.17692 -1.04816 0
M  V30 815 C 75.321 1.39863 -0.768794 0
M  V30 816 C 75.521 1.91118 0.638451 0
M  V30 817 O 74.577 2.10036 1.40146 0
M  V30 818 C 75.89 2.39274 -1.82122 0
M  V30 819 C 77.438 2.52987 -1.843 0
M  V30 820 C 77.913 3.55669 -2.88555 0
M  V30 821 N 79.404 3.63183 -2.87493 0
M  V30 822 C 80.139 4.42381 -3.64811 0
M  V30 823 N 79.635 5.25125 -4.51903 0
M  V30 824 N 81.428 4.37217 -3.53267 0
M  V30 825 H 73.579 0.82752 -1.95617 0
M  V30 826 H 75.842 0.426123 -0.846831 0
M  V30 827 H 75.548 2.08678 -2.83102 0
M  V30 828 H 75.422 3.38725 -1.65967 0
M  V30 829 H 77.809 2.82896 -0.839869 0
M  V30 830 H 77.89 1.53623 -2.04532 0
M  V30 831 H 77.534 3.26499 -3.89051 0
M  V30 832 H 77.464 4.54728 -2.65575 0
M  V30 833 H 79.955 3.04103 -2.24343 0
M  V30 834 H 80.268 5.82728 -5.07591 0
M  V30 835 H 78.613 5.24519 -4.55966 0
M  V30 836 H 81.804 3.71626 -2.84625 0
M  V30 837 H 81.977 4.98696 -4.13771 0
M  V30 838 N 75.3831 0.828654 1.34056 0
M  V30 839 C 76.3131 0.269443 2.3194 0
M  V30 840 C 77.2941 -0.617247 1.58506 0
M  V30 841 O 78.4791 -0.542931 1.86456 0
M  V30 842 C 75.6091 -0.564793 3.42677 0
M  V30 843 C 74.5631 0.225241 4.27407 0
M  V30 844 C 73.8891 -0.7321 5.29664 0
M  V30 845 C 75.1891 1.43663 5.02154 0
M  V30 846 H 76.8831 1.08728 2.7896 0
M  V30 847 H 74.4291 0.524283 1.34117 0
M  V30 848 H 76.3821 -0.966233 4.10173 0
M  V30 849 H 75.1061 -1.41574 2.9432 0
M  V30 850 H 73.7651 0.608117 3.61521 0
M  V30 851 H 73.4131 -1.57916 4.77568 0
M  V30 852 H 73.1131 -0.20767 5.87233 0
M  V30 853 H 74.6371 -1.13128 6.00029 0
M  V30 854 H 76.0511 1.1089 5.62473 0
M  V30 855 H 74.4481 1.89711 5.69324 0
M  V30 856 H 75.5181 2.21181 4.31517 0
M  V30 857 N 76.8612 -1.46375 0.584142 0
M  V30 858 C 78.0892 -2.06761 0.0759296 0
M  V30 859 C 78.5042 -1.43266 -1.22965 0
M  V30 860 O 77.8612 -0.538458 -1.74376 0
M  V30 861 C 77.9122 -3.61375 -0.0950384 0
M  V30 862 O 77.6332 -4.22495 1.15887 0
M  V30 863 C 79.1342 -4.38693 -0.637434 0
M  V30 864 H 76.3542 -0.668479 0.0581075 0
M  V30 865 H 78.8982 -1.8798 0.805218 0
M  V30 866 H 77.0532 -3.79578 -0.774554 0
M  V30 867 H 77.4672 -5.15385 0.973598 0
M  V30 868 H 78.9412 -5.47464 -0.706237 0
M  V30 869 H 79.4182 -4.06836 -1.65472 0
M  V30 870 H 80.0242 -4.25299 0.00725967 0
M  V30 871 N 78.3393 -0.321999 -1.54275 0
M  V30 872 C 79.2493 0.553631 -2.27974 0
M  V30 873 C 80.2653 1.13054 -1.32268 0
M  V30 874 O 81.4413 1.15084 -1.6528 0
M  V30 875 C 78.5063 1.69927 -3.02201 0
M  V30 876 C 77.5673 1.15433 -4.1349 0
M  V30 877 C 76.8003 2.24537 -4.84168 0
M  V30 878 O 77.0233 3.44852 -4.5435 0
M  V30 879 O 75.9573 1.90044 -5.7111 0
M  V30 880 H 79.7833 -0.0448345 -3.03667 0
M  V30 881 H 77.3683 -0.0877418 -1.49142 0
M  V30 882 H 79.2503 2.3663 -3.48689 0
M  V30 883 H 77.9253 2.28395 -2.29385 0
M  V30 884 H 76.8323 0.452436 -3.71354 0
M  V30 885 H 78.1653 0.614805 -4.88345 0
M  V30 886 N 79.8174 1.5752 -0.0501392 0
M  V30 887 C 80.7804 2.1037 0.909786 0
M  V30 888 C 81.7804 1.02308 1.24056 0
M  V30 889 O 82.9704 1.28385 1.17741 0
M  V30 890 C 80.1024 2.58708 2.21998 0
M  V30 891 H 81.2954 2.96479 0.451665 0
M  V30 892 H 78.8484 1.55038 0.198248 0
M  V30 893 H 79.5834 1.75989 2.72394 0
M  V30 894 H 79.3684 3.37675 1.99295 0
M  V30 895 H 80.8584 2.99747 2.9076 0
M  V30 896 N 81.2955 -0.223234 1.56011 0
M  V30 897 C 82.2055 -1.29766 1.95443 0
M  V30 898 C 83.2215 -1.51373 0.858028 0
M  V30 899 O 84.3975 -1.64536 1.16146 0
M  V30 900 C 81.4625 -2.62772 2.26167 0
M  V30 901 C 80.5235 -2.49482 3.49367 0
M  V30 902 C 79.7565 -3.76145 3.78616 0
M  V30 903 O 79.9795 -4.79087 3.09568 0
M  V30 904 O 78.9135 -3.73358 4.72109 0
M  V30 905 H 82.7395 -0.99309 2.87004 0
M  V30 906 H 80.3245 -0.425958 1.43199 0
M  V30 907 H 82.2065 -3.41327 2.47131 0
M  V30 908 H 80.8815 -2.92913 1.37781 0
M  V30 909 H 79.7885 -1.69133 3.33684 0
M  V30 910 H 81.1215 -2.2428 4.38131 0
M  V30 911 N 82.7736 -1.49793 -0.48987 0
M  V30 912 C 84.0196 -1.61049 -1.24236 0
M  V30 913 C 84.3746 -0.298412 -1.90072 0
M  V30 914 O 83.6676 0.702262 -1.78266 0
M  V30 915 C 83.8616 -2.71488 -2.32441 0
M  V30 916 C 83.6906 -4.13308 -1.77218 0
M  V30 917 C 82.4606 -4.79955 -1.58023 0
M  V30 918 C 84.6586 -4.98176 -1.27772 0
M  V30 919 N 82.6406 -6.06052 -0.978465 0
M  V30 920 C 84.0116 -6.14843 -0.798 0
M  V30 921 C 86.0666 -4.84091 -1.16449 0
M  V30 922 C 84.7696 -7.18975 -0.216245 0
M  V30 923 C 86.7956 -5.88382 -0.596698 0
M  V30 924 C 86.1576 -7.04285 -0.127262 0
M  V30 925 H 82.2566 -0.643611 -0.444172 0
M  V30 926 H 84.8406 -1.86842 -0.54754 0
M  V30 927 H 83.0116 -2.47449 -2.99372 0
M  V30 928 H 84.7436 -2.72205 -2.99477 0
M  V30 929 H 81.4986 -4.36936 -1.82712 0
M  V30 930 H 81.9226 -6.73407 -0.696534 0
M  V30 931 H 86.5646 -3.94786 -1.5134 0
M  V30 932 H 84.2826 -8.0797 0.144903 0
M  V30 933 H 87.8686 -5.79545 -0.511716 0
M  V30 934 H 86.7486 -7.83606 0.30523 0
M  V30 935 N 84.2517 0.741722 -1.39055 0
M  V30 936 C 85.1617 1.88621 -1.39496 0
M  V30 937 C 86.1777 1.71557 -0.290578 0
M  V30 938 O 87.3537 1.94275 -0.530954 0
M  V30 939 C 84.4187 3.24134 -1.23037 0
M  V30 940 C 83.4797 3.5364 -2.43387 0
M  V30 941 C 82.7127 4.82687 -2.27703 0
M  V30 942 O 82.9357 5.55922 -1.27696 0
M  V30 943 O 81.8697 5.1194 -3.16545 0
M  V30 944 H 85.6957 1.91203 -2.35956 0
M  V30 945 H 83.2807 0.888625 -1.20099 0
M  V30 946 H 85.1627 4.0513 -1.15964 0
M  V30 947 H 83.8377 3.22337 -0.296691 0
M  V30 948 H 82.7447 2.72758 -2.56035 0
M  V30 949 H 84.0777 3.60209 -3.35425 0
M  V30 950 N 85.7298 1.2412 0.971189 0
M  V30 951 C 86.9578 1.10575 1.74874 0
M  V30 952 C 87.3728 -0.342017 1.85676 0
M  V30 953 O 86.7298 -1.23617 1.34258 0
M  V30 954 C 86.7808 1.73579 3.171 0
M  V30 955 O 86.5018 3.12695 3.06844 0
M  V30 956 C 88.0028 1.65598 4.11208 0
M  V30 957 H 85.2228 0.386504 0.548503 0
M  V30 958 H 87.7668 1.64156 1.21955 0
M  V30 959 H 85.9218 1.24009 3.67016 0
M  V30 960 H 86.3358 3.43412 3.96445 0
M  V30 961 H 87.8098 2.1437 5.08674 0
M  V30 962 H 88.2868 0.616532 4.34851 0
M  V30 963 H 88.8928 2.14578 3.67201 0
M  V30 964 N 87.2079 -1.17134 1.05439 0
M  V30 965 C 88.4559 -1.87085 0.764429 0
M  V30 966 C 88.7769 -1.81584 -0.710787 0
M  V30 967 O 88.0469 -1.24349 -1.51374 0
M  V30 968 H 86.6269 -0.692627 0.279779 0
M  V30 969 H 89.2889 -1.42087 1.33406 0
M  V30 970 H 88.3849 -2.92759 1.0816 0
M  V30 971 N 88.686 -0.835752 -1.33615 0
M  V30 972 C 89.935 -0.426289 -1.97144 0
M  V30 973 C 90.248 1.01912 -1.66953 0
M  V30 974 O 91.454 1.53311 -2.24072 0
M  V30 975 C 89.91 -0.711321 -3.52801 0
M  V30 976 C 89.518 -2.1712 -3.91871 0
M  V30 977 C 91.262 -0.368654 -4.22896 0
M  V30 978 C 89.169 -2.40044 -5.40493 0
M  V30 979 H 88.099 -0.15567 -0.737755 0
M  V30 980 H 90.75 -1.0239 -1.52278 0
M  V30 981 H 89.132 -0.0433766 -3.95976 0
M  V30 982 H 90.306 -2.87936 -3.59763 0
M  V30 983 H 88.621 -2.47654 -3.34749 0
M  V30 984 H 91.218 -0.517601 -5.32189 0
M  V30 985 H 91.561 0.688078 -4.10574 0
M  V30 986 H 92.094 -0.991702 -3.8524 0
M  V30 987 H 88.833 -3.44271 -5.57815 0
M  V30 988 H 88.353 -1.73785 -5.74072 0
M  V30 989 H 90.032 -2.23042 -6.0734 0
M  V30 990 N 90.1641 1.46063 -0.591896 0
M  V30 991 C 91.4121 2.01938 -0.0808391 0
M  V30 992 C 91.7331 1.46475 1.28725 0
M  V30 993 O 91.0031 0.652944 1.84698 0
M  V30 994 H 89.5831 0.746516 -0.0268938 0
M  V30 995 H 92.2451 1.79055 -0.769752 0
M  V30 996 H 91.3411 3.12094 -0.0187578 0
M  V30 997 N 91.6422 0.330177 1.54103 0
M  V30 998 C 92.8892 -0.270405 2.00686 0
M  V30 999 C 93.2172 -1.51621 1.21825 0
M  V30 1000 O 92.4722 -1.93536 0.29025 0
M  V30 1001 C 92.7712 -0.643134 3.51566 0
M  V30 1002 C 92.4372 0.504251 4.48072 0
M  V30 1003 C 91.0992 0.819163 4.74176 0
M  V30 1004 C 93.4512 1.27465 5.05373 0
M  V30 1005 C 90.7792 1.90708 5.5484 0
M  V30 1006 C 93.1312 2.35271 5.87223 0
M  V30 1007 C 91.7952 2.67336 6.11627 0
M  V30 1008 H 91.0652 -0.0989482 0.734364 0
M  V30 1009 H 93.7122 0.455324 1.86008 0
M  V30 1010 H 92.0172 -1.44938 3.64006 0
M  V30 1011 H 93.7142 -1.11949 3.85056 0
M  V30 1012 H 90.3042 0.248733 4.27878 0
M  V30 1013 H 94.4882 1.04462 4.85182 0
M  V30 1014 H 89.7442 2.15991 5.71977 0
M  V30 1015 H 93.9182 2.95405 6.30641 0
M  V30 1016 H 91.5452 3.51763 6.73919 0
M  V30 1017 N 93.1203 -1.57491 0.0584922 0
M  V30 1018 C 94.0503 -2.14988 -0.911178 0
M  V30 1019 C 95.0313 -1.07343 -1.31952 0
M  V30 1020 O 96.2163 -1.35318 -1.39294 0
M  V30 1021 C 93.3463 -2.70078 -2.18347 0
M  V30 1022 C 92.3003 -3.82771 -1.91495 0
M  V30 1023 C 91.6263 -4.24408 -3.25241 0
M  V30 1024 C 92.9263 -5.07592 -1.23075 0
M  V30 1025 H 94.6203 -2.96263 -0.432246 0
M  V30 1026 H 92.1663 -1.42512 -0.206469 0
M  V30 1027 H 94.1193 -3.08943 -2.86587 0
M  V30 1028 H 92.8433 -1.86005 -2.68458 0
M  V30 1029 H 91.5023 -3.44389 -1.25664 0
M  V30 1030 H 91.1503 -3.37275 -3.73168 0
M  V30 1031 H 90.8503 -5.00366 -3.08071 0
M  V30 1032 H 92.3743 -4.65879 -3.94701 0
M  V30 1033 H 93.7883 -5.43857 -1.81362 0
M  V30 1034 H 92.1853 -5.88741 -1.16207 0
M  V30 1035 H 93.2553 -4.84454 -0.207847 0
M  V30 1036 N 94.5984 0.214957 -1.56127 0
M  V30 1037 C 95.8264 0.955092 -1.83536 0
M  V30 1038 C 96.2414 1.77677 -0.638472 0
M  V30 1039 O 95.5984 1.78219 0.392968 0
M  V30 1040 C 95.6494 1.86734 -3.09536 0
M  V30 1041 O 95.3704 1.07887 -4.24608 0
M  V30 1042 C 96.8714 2.72082 -3.4998 0
M  V30 1043 H 94.0914 0.279611 -0.609966 0
M  V30 1044 H 96.6354 0.228197 -2.03223 0
M  V30 1045 H 94.7904 2.5481 -2.91806 0
M  V30 1046 H 95.2044 1.69872 -4.9623 0
M  V30 1047 H 96.6784 3.31782 -4.41163 0
M  V30 1048 H 97.1554 3.44806 -2.7204 0
M  V30 1049 H 97.7614 2.09409 -3.70173 0
M  V30 1050 N 96.0765 1.50051 0.48192 0
M  V30 1051 C 97.3535 1.51009 1.2432 0
M  V30 1052 C 97.7335 0.248587 2.09631 0
M  V30 1053 O 97.0815 -0.768409 2.15192 0
M  V30 1054 C 97.2915 2.79981 2.08355 0
M  V30 1055 C 98.6395 3.3022 2.66908 0
M  V30 1056 O 99.6635 2.81228 2.18607 0
M  V30 1057 O 98.5225 4.15595 3.54884 0
M  V30 1058 H 95.6165 0.605239 0.563573 0
M  V30 1059 H 98.1625 1.62332 0.494627 0
M  V30 1060 H 96.9345 3.63275 1.45419 0
M  V30 1061 H 96.5575 2.7161 2.90368 0
M  V30 1062 N 97.5546 -0.734337 1.39446 0
M  V30 1063 C 98.5176 -1.83004 1.37994 0
M  V30 1064 C 99.5176 -1.58397 0.276938 0
M  V30 1065 O 100.708 -1.65785 0.534875 0
M  V30 1066 C 97.8396 -3.20802 1.1532 0
M  V30 1067 H 99.0326 -1.85694 2.35494 0
M  V30 1068 H 96.5856 -0.938059 1.25021 0
M  V30 1069 H 97.3206 -3.23772 0.185036 0
M  V30 1070 H 97.1056 -3.4006 1.95197 0
M  V30 1071 H 98.5956 -4.00862 1.17046 0
M  V30 1072 N 99.0327 -1.24633 -0.964593 0
M  V30 1073 C 100.281 -1.08573 -1.70459 0
M  V30 1074 C 100.602 0.375655 -1.91347 0
M  V30 1075 O 99.8717 1.26779 -1.49345 0
M  V30 1076 H 98.4517 -0.398784 -0.631649 0
M  V30 1077 H 101.114 -1.56601 -1.16026 0
M  V30 1078 H 100.21 -1.58623 -2.68785 0
M  V30 1079 N 100.511 1.16574 -1.06058 0
M  V30 1080 C 101.461 2.18854 -0.63929 0
M  V30 1081 C 102.445 1.57505 0.328798 0
M  V30 1082 O 103.637 1.76408 0.144623 0
M  V30 1083 C 100.766 3.43291 -0.0247203 0
M  V30 1084 C 99.8518 4.11722 -1.01716 0
M  V30 1085 N 100.243 4.55841 -2.19186 0
M  V30 1086 C 98.5408 4.37872 -0.847569 0
M  V30 1087 C 99.2418 5.08751 -2.82042 0
M  V30 1088 N 98.2178 5.01489 -2.09784 0
M  V30 1089 H 102.02 2.5068 -1.53417 0
M  V30 1090 H 99.5338 1.32999 -0.931935 0
M  V30 1091 H 101.531 4.15856 0.294915 0
M  V30 1092 H 100.191 3.12954 0.865448 0
M  V30 1093 H 101.202 4.49649 -2.56975 0
M  V30 1094 H 97.8788 4.17499 -0.00918848 0
M  V30 1095 H 99.2688 5.52944 -3.81709 0
M  V30 1096 N 101.989 0.842826 1.3317 0
M  V30 1097 C 103.235 0.441099 1.97945 0
M  V30 1098 C 103.568 -0.998024 1.66593 0
M  V30 1099 O 102.843 -1.69839 0.947898 0
M  V30 1100 C 103.126 0.666841 3.53872 0
M  V30 1101 C 102.979 2.15352 3.94897 0
M  V30 1102 C 104.298 0.115544 4.39948 0
M  V30 1103 H 101.417 0.161739 0.719034 0
M  V30 1104 H 104.059 1.05907 1.57746 0
M  V30 1105 H 102.209 0.140828 3.88245 0
M  V30 1106 H 103.881 2.7447 3.70761 0
M  V30 1107 H 102.124 2.63653 3.44484 0
M  V30 1108 H 102.795 2.26221 5.03516 0
M  V30 1109 H 105.271 0.565213 4.12243 0
M  V30 1110 H 104.147 0.303152 5.48062 0
M  V30 1111 H 104.408 -0.980935 4.3108 0
M  V30 1112 N 103.467 -1.45747 0.599634 0
M  V30 1113 C 104.695 -2.06668 0.0978551 0
M  V30 1114 C 105.11 -1.44562 -1.21439 0
M  V30 1115 O 104.467 -0.556923 -1.73795 0
M  V30 1116 C 104.518 -3.61456 -0.0567044 0
M  V30 1117 O 104.239 -4.21242 1.20361 0
M  V30 1118 C 105.74 -4.39345 -0.590869 0
M  V30 1119 H 102.96 -0.667825 0.0651943 0
M  V30 1120 H 105.504 -1.87115 0.82511 0
M  V30 1121 H 103.659 -3.80378 -0.734251 0
M  V30 1122 H 104.073 -5.14323 1.02821 0
M  V30 1123 H 105.547 -5.48182 -0.648131 0
M  V30 1124 H 106.024 -4.08568 -1.61147 0
M  V30 1125 H 106.63 -4.25268 0.0523679 0
M  V30 1126 N 104.945 -0.338344 -1.53925 0
M  V30 1127 C 105.893 0.536231 -2.26335 0
M  V30 1128 C 106.887 1.1063 -1.28286 0
M  V30 1129 O 108.093 1.05264 -1.46012 0
M  V30 1130 H 104.468 0.191602 -0.727181 0
M  V30 1131 H 106.439 -0.0965747 -2.98244 0
M  V30 1132 C 105.188 1.67803 -3.04528 0
M  V30 1133 H 104.511 1.24864 -3.79801 0
M  V30 1134 H 105.951 2.26526 -3.58416 0
M  V30 1135 C 104.41 2.60439 -2.13712 0
M  V30 1136 O 104.94 3.6255 -1.72975 0
M  V30 1137 N 103.146 2.29006 -1.78898 0
M  V30 1138 H 102.693 1.46011 -2.12223 0
M  V30 1139 H 102.651 2.91248 -1.18416 0
M  V30 1140 N 106.423 1.57458 -0.0668435 0
M  V30 1141 C 107.333 2.15937 0.916975 0
M  V30 1142 C 108.349 1.12123 1.33058 0
M  V30 1143 O 109.525 1.44366 1.40429 0
M  V30 1144 C 106.59 2.70547 2.16807 0
M  V30 1145 C 105.651 3.89215 1.81135 0
M  V30 1146 C 104.884 4.41211 3.0028 0
M  V30 1147 O 105.107 3.92225 4.14144 0
M  V30 1148 O 104.041 5.32605 2.80384 0
M  V30 1149 H 107.867 3.00354 0.449561 0
M  V30 1150 H 105.452 1.48584 0.155949 0
M  V30 1151 H 107.334 3.0557 2.90181 0
M  V30 1152 H 106.009 1.89192 2.62656 0
M  V30 1153 H 104.916 3.59054 1.05028 0
M  V30 1154 H 106.249 4.71848 1.40073 0
M  V30 1155 N 107.901 -0.206675 1.56239 0
M  V30 1156 C 109.317 -0.557025 1.49564 0
M  V30 1157 C 109.517 -1.86424 0.764735 0
M  V30 1158 O 108.573 -2.50584 0.310491 0
M  V30 1159 C 109.886 -0.622478 2.94186 0
M  V30 1160 C 111.434 -0.712099 3.04792 0
M  V30 1161 C 111.909 -0.808767 4.50803 0
M  V30 1162 N 113.4 -0.8726 4.54907 0
M  V30 1163 C 114.135 -0.967365 5.65181 0
M  V30 1164 N 113.631 -1.02515 6.85173 0
M  V30 1165 N 115.424 -1.00366 5.53067 0
M  V30 1166 H 107.575 0.650943 2.02179 0
M  V30 1167 H 109.838 0.230387 0.919579 0
M  V30 1168 H 109.544 0.268727 3.50672 0
M  V30 1169 H 109.418 -1.4811 3.46905 0
M  V30 1170 H 111.805 -1.59374 2.48363 0
M  V30 1171 H 111.886 0.172489 2.55218 0
M  V30 1172 H 111.53 0.0684754 5.07854 0
M  V30 1173 H 111.46 -1.70899 4.98098 0
M  V30 1174 H 113.951 -0.837657 3.68499 0
M  V30 1175 H 114.264 -1.09765 7.64965 0
M  V30 1176 H 112.609 -0.994026 6.87855 0
M  V30 1177 H 115.8 -0.95527 4.58249 0
M  V30 1178 H 115.973 -1.07405 6.39037 0
M  V30 1179 N 109.379 -1.50304 -0.473955 0
M  V30 1180 C 110.795 -1.37667 -0.807466 0
M  V30 1181 C 110.995 -0.430555 -1.96846 0
M  V30 1182 O 110.051 0.127874 -2.52176 0
M  V30 1183 C 111.364 -2.78974 -1.12223 0
M  V30 1184 C 112.912 -2.87868 -1.22885 0
M  V30 1185 C 113.387 -4.30003 -1.57676 0
M  V30 1186 N 114.878 -4.3294 -1.64673 0
M  V30 1187 C 115.613 -5.3991 -1.93091 0
M  V30 1188 N 115.109 -6.57092 -2.1955 0
M  V30 1189 N 116.902 -5.27351 -1.94569 0
M  V30 1190 H 109.053 -2.10394 0.291212 0
M  V30 1191 H 111.316 -0.945575 0.0677609 0
M  V30 1192 H 111.022 -3.50031 -0.342229 0
M  V30 1193 H 110.896 -3.16038 -2.05913 0
M  V30 1194 H 113.283 -2.17032 -1.99953 0
M  V30 1195 H 113.364 -2.54352 -0.271814 0
M  V30 1196 H 113.008 -5.01375 -0.81149 0
M  V30 1197 H 112.938 -4.61004 -2.54525 0
M  V30 1198 H 115.429 -3.48441 -1.46277 0
M  V30 1199 H 115.742 -7.34425 -2.405 0
M  V30 1200 H 114.087 -6.60272 -2.16948 0
M  V30 1201 H 117.278 -4.34801 -1.73394 0
M  V30 1202 H 117.451 -6.10805 -2.16381 0
M  V30 1203 N 110.857 0.726932 -1.39834 0
M  V30 1204 C 111.789 1.85147 -1.35104 0
M  V30 1205 C 112.802 1.60736 -0.258392 0
M  V30 1206 O 113.991 1.70821 -0.517931 0
M  V30 1207 C 111.091 3.21332 -1.07697 0
M  V30 1208 C 110.264 3.73033 -2.28396 0
M  V30 1209 C 109.323 4.87802 -1.97322 0
M  V30 1210 O 108.349 5.01043 -2.70083 0
M  V30 1211 N 109.551 5.72768 -0.944273 0
M  V30 1212 H 112.316 1.89706 -2.32017 0
M  V30 1213 H 109.877 0.908006 -1.3404 0
M  V30 1214 H 111.869 3.95691 -0.849144 0
M  V30 1215 H 110.439 3.11992 -0.194909 0
M  V30 1216 H 109.659 2.89934 -2.6708 0
M  V30 1217 H 110.947 4.0431 -3.08887 0
M  V30 1218 H 110.345 5.64669 -0.341427 0
M  V30 1219 H 108.902 6.4716 -0.776346 0
M  V30 1220 N 112.336 1.25143 0.95797 0
M  V30 1221 C 113.246 1.06968 2.08794 0
M  V30 1222 C 114.262 0.00773911 1.73998 0
M  V30 1223 O 115.438 0.207972 2.00323 0
M  V30 1224 C 112.503 0.68691 3.39827 0
M  V30 1225 C 111.564 1.82641 3.88511 0
M  V30 1226 C 110.797 1.46181 5.1329 0
M  V30 1227 O 111.02 0.355971 5.69288 0
M  V30 1228 O 109.954 2.29085 5.566 0
M  V30 1229 H 113.78 2.01723 2.27027 0
M  V30 1230 H 111.365 1.04051 1.07209 0
M  V30 1231 H 113.247 0.485417 4.18595 0
M  V30 1232 H 111.922 -0.231417 3.22872 0
M  V30 1233 H 110.829 2.08274 3.10762 0
M  V30 1234 H 112.162 2.72386 4.09959 0
M  V30 1235 N 113.814 -1.1601 1.06675 0
M  V30 1236 C 115.061 -1.86633 0.785781 0
M  V30 1237 C 115.389 -1.81929 -0.687896 0
M  V30 1238 O 114.644 -1.23253 -1.52011 0
M  V30 1239 C 114.943 -3.35547 1.23057 0
M  V30 1240 C 114.609 -3.60448 2.70902 0
M  V30 1241 C 113.271 -3.66954 3.11285 0
M  V30 1242 C 115.623 -3.7071 3.66365 0
M  V30 1243 C 112.951 -3.81225 4.45965 0
M  V30 1244 C 115.303 -3.86503 5.00797 0
M  V30 1245 C 113.967 -3.91252 5.40813 0
M  V30 1246 H 113.237 -0.682937 0.287538 0
M  V30 1247 H 115.884 -1.37146 1.33654 0
M  V30 1248 H 114.189 -3.87193 0.59907 0
M  V30 1249 H 115.886 -3.88583 0.990163 0
M  V30 1250 H 112.476 -3.56021 2.38636 0
M  V30 1251 H 116.66 -3.64991 3.36296 0
M  V30 1252 H 111.916 -3.83155 4.76447 0
M  V30 1253 H 116.09 -3.93385 5.74649 0
M  V30 1254 H 113.717 -4.02062 6.45174 0
M  V30 1255 N 115.292 -0.849877 -1.32721 0
M  V30 1256 C 116.541 -0.447175 -1.96681 0
M  V30 1257 C 116.854 1.00135 -1.68025 0
M  V30 1258 O 118.06 1.50926 -2.25685 0
M  V30 1259 C 116.516 -0.7487 -3.52026 0
M  V30 1260 C 116.124 -2.21264 -3.89546 0
M  V30 1261 C 117.868 -0.413487 -4.22481 0
M  V30 1262 C 115.775 -2.45763 -5.37917 0
M  V30 1263 H 114.705 -0.163486 -0.736063 0
M  V30 1264 H 117.356 -1.03999 -1.51183 0
M  V30 1265 H 115.738 -0.0853727 -3.95908 0
M  V30 1266 H 116.912 -2.91736 -3.56689 0
M  V30 1267 H 115.227 -2.5119 -3.32103 0
M  V30 1268 H 117.824 -0.574017 -5.3161 0
M  V30 1269 H 118.167 0.644492 -4.11281 0
M  V30 1270 H 118.7 -1.03251 -3.84167 0
M  V30 1271 H 115.439 -3.50168 -5.54132 0
M  V30 1272 H 114.959 -1.79864 -5.72197 0
M  V30 1273 H 116.638 -2.29471 -6.0494 0
M  V30 1274 N 116.77 1.45427 -0.607355 0
M  V30 1275 C 117.7 2.3329 0.0989352 0
M  V30 1276 C 118.681 1.46816 0.859007 0
M  V30 1277 O 119.866 1.75588 0.829604 0
M  V30 1278 C 116.996 3.29518 1.09705 0
M  V30 1279 C 115.95 4.25626 0.450206 0
M  V30 1280 C 115.276 5.11542 1.55655 0
M  V30 1281 C 116.576 5.18505 -0.628455 0
M  V30 1282 H 118.27 2.92595 -0.634716 0
M  V30 1283 H 115.816 1.40696 -0.306681 0
M  V30 1284 H 117.769 3.89855 1.59971 0
M  V30 1285 H 116.493 2.68372 1.86129 0
M  V30 1286 H 115.152 3.66586 -0.0315886 0
M  V30 1287 H 114.8 4.46765 2.31107 0
M  V30 1288 H 114.5 5.76647 1.12925 0
M  V30 1289 H 116.024 5.74748 2.06148 0
M  V30 1290 H 117.438 5.72916 -0.209877 0
M  V30 1291 H 115.835 5.92085 -0.977489 0
M  V30 1292 H 116.905 4.60948 -1.50514 0
M  V30 1293 N 118.248 0.346503 1.53744 0
M  V30 1294 C 119.178 -0.501193 2.28058 0
M  V30 1295 C 120.159 -1.10014 1.29734 0
M  V30 1296 O 121.344 -1.12097 1.58581 0
M  V30 1297 C 118.474 -1.65078 3.05559 0
M  V30 1298 C 117.428 -1.18003 4.11411 0
M  V30 1299 C 116.754 -2.41837 4.76884 0
M  V30 1300 C 118.054 -0.278394 5.21558 0
M  V30 1301 H 119.748 0.11875 2.99164 0
M  V30 1302 H 117.294 0.0585531 1.43881 0
M  V30 1303 H 119.247 -2.25028 3.56287 0
M  V30 1304 H 117.971 -2.29767 2.32109 0
M  V30 1305 H 116.63 -0.603331 3.61601 0
M  V30 1306 H 116.278 -3.0494 4.00026 0
M  V30 1307 H 115.978 -2.1102 5.48402 0
M  V30 1308 H 117.502 -3.02508 5.30397 0
M  V30 1309 H 118.916 -0.784823 5.67903 0
M  V30 1310 H 117.313 -0.0619707 6.00068 0
M  V30 1311 H 118.383 0.684677 4.80042 0
M  V30 1312 N 119.726 -1.57421 0.075193 0
M  V30 1313 C 120.951 -1.98364 -0.605515 0
M  V30 1314 C 121.376 -0.953383 -1.62149 0
M  V30 1315 O 120.734 0.0806053 -1.81121 0
M  V30 1316 C 120.782 -3.38332 -1.24756 0
M  V30 1317 O 119.886 -3.37959 -2.36342 0
M  V30 1318 H 119.227 -0.645553 -0.155428 0
M  V30 1319 H 121.757 -2.04044 0.150714 0
M  V30 1320 H 121.767 -3.75591 -1.5936 0
M  V30 1321 H 120.442 -4.12846 -0.503129 0
M  V30 1322 H 119.019 -3.12474 -2.03506 0
M  V30 1323 N 121.204 0.198386 -1.56346 0
M  V30 1324 C 122.481 0.944982 -1.71258 0
M  V30 1325 C 122.861 2.0151 -0.629048 0
M  V30 1326 O 122.209 2.25639 0.360473 0
M  V30 1327 C 122.419 1.5344 -3.1346 0
M  V30 1328 C 123.767 2.01778 -3.73591 0
M  V30 1329 O 124.791 1.63288 -3.16568 0
M  V30 1330 O 123.65 2.72594 -4.73661 0
M  V30 1331 H 120.744 0.442939 -0.69838 0
M  V30 1332 H 123.29 0.188342 -1.68652 0
M  V30 1333 H 122.062 0.762869 -3.83792 0
M  V30 1334 H 121.685 2.35596 -3.20282 0
M  V30 1335 N 122.682 1.50554 0.465978 0
M  V30 1336 C 123.928 1.62038 1.21949 0
M  V30 1337 C 124.261 0.322116 1.9151 0
M  V30 1338 O 123.536 -0.676723 1.82348 0
M  V30 1339 C 123.819 2.80421 2.25912 0
M  V30 1340 C 123.672 4.20144 1.60622 0
M  V30 1341 C 124.991 2.94354 3.27176 0
M  V30 1342 H 122.11 0.589752 0.441998 0
M  V30 1343 H 124.752 1.82956 0.51257 0
M  V30 1344 H 122.902 2.62717 2.86203 0
M  V30 1345 H 124.574 4.49449 1.03889 0
M  V30 1346 H 122.817 4.24165 0.909211 0
M  V30 1347 H 123.488 4.98914 2.36196 0
M  V30 1348 H 125.964 3.10578 2.76913 0
M  V30 1349 H 124.84 3.788 3.97242 0
M  V30 1350 H 125.101 2.05186 3.916 0
M  V30 1351 N 124.16 -0.719506 1.40217 0
M  V30 1352 C 125.09 -1.8465 1.42922 0
M  V30 1353 C 126.071 -1.67599 0.29062 0
M  V30 1354 O 127.256 -1.87688 0.498677 0
M  V30 1355 C 124.386 -3.22565 1.28722 0
M  V30 1356 C 123.34 -3.54281 2.40144 0
M  V30 1357 C 122.666 -4.91298 2.11023 0
M  V30 1358 C 123.966 -3.55676 3.82481 0
M  V30 1359 H 125.66 -1.82644 2.37237 0
M  V30 1360 H 123.206 -0.877305 1.1419 0
M  V30 1361 H 125.159 -4.01095 1.29232 0
M  V30 1362 H 123.883 -3.25137 0.308811 0
M  V30 1363 H 122.542 -2.78088 2.38877 0
M  V30 1364 H 122.19 -4.90468 1.11582 0
M  V30 1365 H 121.89 -5.13485 2.8567 0
M  V30 1366 H 123.414 -5.72166 2.13209 0
M  V30 1367 H 124.828 -4.24254 3.85592 0
M  V30 1368 H 123.225 -3.89388 4.56614 0
M  V30 1369 H 124.295 -2.55144 4.12346 0
M  V30 1370 N 125.638 -1.25649 -0.95132 0
M  V30 1371 C 126.886 -1.10375 -1.69298 0
M  V30 1372 C 127.207 0.355339 -1.91735 0
M  V30 1373 O 126.477 1.25188 -1.50681 0
M  V30 1374 H 125.057 -0.405461 -0.627384 0
M  V30 1375 H 127.719 -1.57823 -1.14358 0
M  V30 1376 H 126.815 -1.61465 -2.67087 0
M  V30 1377 N 127.117 1.15442 -1.07289 0
M  V30 1378 C 128.08 2.18358 -0.696591 0
M  V30 1379 C 129.08 1.58637 0.262837 0
M  V30 1380 O 130.27 1.74145 0.0438809 0
M  V30 1381 C 127.402 3.4089 -0.0266151 0
M  V30 1382 H 128.595 2.53162 -1.60776 0
M  V30 1383 H 126.148 1.29893 -0.869342 0
M  V30 1384 H 126.883 3.11653 0.896822 0
M  V30 1385 H 126.668 3.85495 -0.716657 0
M  V30 1386 H 128.158 4.17009 0.222028 0
M  V30 1387 N 128.595 0.856903 1.32268 0
M  V30 1388 C 129.82 0.474569 2.01897 0
M  V30 1389 C 130.245 -0.921766 1.63967 0
M  V30 1390 O 129.603 -1.60589 0.84148 0
M  V30 1391 C 129.651 0.623799 3.55164 0
M  V30 1392 O 128.755 -0.342459 4.10976 0
M  V30 1393 H 128.096 0.190422 0.63611 0
M  V30 1394 H 130.626 1.15672 1.68764 0
M  V30 1395 H 130.636 0.512169 4.04773 0
M  V30 1396 H 129.311 1.64202 3.82113 0
M  V30 1397 H 127.888 -0.18688 3.72431 0
M  V30 1398 N 130.073 -1.45103 0.615059 0
M  V30 1399 C 131.006 -2.27717 -0.148408 0
M  V30 1400 C 131.984 -1.37584 -0.866572 0
M  V30 1401 O 133.168 -1.67017 -0.87393 0
M  V30 1402 C 130.295 -3.16136 -1.21557 0
M  V30 1403 C 129.341 -4.22263 -0.599712 0
M  V30 1404 S 130.174 -5.3215 0.598081 0
M  V30 1405 C 131.33 -6.24137 -0.469484 0
M  V30 1406 H 131.563 -2.92121 0.552483 0
M  V30 1407 H 129.096 -1.49054 0.402778 0
M  V30 1408 H 131.054 -3.67633 -1.82638 0
M  V30 1409 H 129.715 -2.50982 -1.88857 0
M  V30 1410 H 128.908 -4.84081 -1.4029 0
M  V30 1411 H 128.51 -3.73945 -0.063876 0
M  V30 1412 H 130.802 -6.63984 -1.34652 0
M  V30 1413 H 131.745 -7.0801 0.112725 0
M  V30 1414 H 132.153 -5.58971 -0.788168 0
M  V30 1415 N 131.551 -0.354651 -1.53558 0
M  V30 1416 C 132.483 0.5315 -2.22952 0
M  V30 1417 C 133.496 1.05503 -1.23988 0
M  V30 1418 O 134.685 0.963279 -1.50277 0
M  V30 1419 C 131.785 1.74538 -2.90499 0
M  V30 1420 C 130.958 1.35524 -4.15875 0
M  V30 1421 C 130.017 2.42999 -4.66731 0
M  V30 1422 O 129.043 2.05844 -5.30676 0
M  V30 1423 N 130.245 3.74423 -4.43608 0
M  V30 1424 H 133.01 -0.0628615 -2.99634 0
M  V30 1425 H 130.571 -0.179302 -1.60904 0
M  V30 1426 H 132.563 2.45892 -3.21433 0
M  V30 1427 H 131.133 2.24686 -2.17336 0
M  V30 1428 H 130.353 0.471998 -3.91364 0
M  V30 1429 H 131.641 1.07071 -4.97406 0
M  V30 1430 H 131.039 4.07391 -3.92491 0
M  V30 1431 H 129.596 4.41913 -4.7912 0
M  V30 1432 N 133.029 1.57378 -0.0835403 0
M  V30 1433 C 134.257 1.98263 0.59157 0
M  V30 1434 C 134.672 0.962302 1.62435 0
M  V30 1435 O 134.029 -0.049581 1.82433 0
M  V30 1436 C 134.08 3.39214 1.24965 0
M  V30 1437 O 133.801 4.37339 0.258186 0
M  V30 1438 C 135.302 3.95038 2.01147 0
M  V30 1439 H 132.522 0.651773 0.159477 0
M  V30 1440 H 135.066 2.03878 -0.159415 0
M  V30 1441 H 133.221 3.34649 1.95164 0
M  V30 1442 H 133.635 5.19371 0.731734 0
M  V30 1443 H 135.109 4.95848 2.42567 0
M  V30 1444 H 135.586 3.32222 2.87272 0
M  V30 1445 H 136.192 4.0304 1.35789 0
M  V30 1446 N 134.507 -0.190092 1.56449 0
M  V30 1447 C 135.756 -0.907912 1.80111 0
M  V30 1448 C 136.069 -1.84214 0.657619 0
M  V30 1449 O 137.275 -2.60094 0.778663 0
M  V30 1450 C 135.731 -1.66485 3.19078 0
M  V30 1451 C 135.339 -0.7752 4.41242 0
M  V30 1452 C 137.083 -2.37201 3.52045 0
M  V30 1453 C 134.99 -1.53129 5.71231 0
M  V30 1454 H 133.92 -0.34276 0.671589 0
M  V30 1455 H 136.571 -0.161109 1.82791 0
M  V30 1456 H 134.953 -2.45572 3.10661 0
M  V30 1457 H 136.127 -0.0226298 4.60794 0
M  V30 1458 H 134.442 -0.178627 4.16017 0
M  V30 1459 H 137.039 -2.94329 4.46402 0
M  V30 1460 H 137.382 -3.11632 2.76028 0
M  V30 1461 H 137.915 -1.65075 3.61932 0
M  V30 1462 H 134.654 -0.82967 6.50228 0
M  V30 1463 H 134.174 -2.25767 5.55688 0
M  V30 1464 H 135.853 -2.08377 6.12526 0
M  V30 1465 N 135.985 -1.50799 -0.457987 0
M  V30 1466 C 136.948 -1.7005 -1.53674 0
M  V30 1467 C 137.948 -0.570881 -1.50325 0
M  V30 1468 O 139.138 -0.838126 -1.52712 0
M  V30 1469 C 136.27 -1.73788 -2.93276 0
M  V30 1470 H 137.463 -2.66306 -1.37917 0
M  V30 1471 H 135.016 -1.40477 -0.685271 0
M  V30 1472 H 135.751 -0.792717 -3.14462 0
M  V30 1473 H 135.536 -2.55864 -2.97113 0
M  V30 1474 H 137.026 -1.90591 -3.71571 0
M  V30 1475 N 137.463 0.71206 -1.40597 0
M  V30 1476 C 138.396 1.83582 -1.35546 0
M  V30 1477 C 139.374 1.61032 -0.225284 0
M  V30 1478 O 140.558 1.83998 -0.409519 0
M  V30 1479 C 137.685 3.19983 -1.11034 0
M  V30 1480 C 136.731 3.61355 -2.2655 0
M  V30 1481 S 137.564 3.68062 -3.88961 0
M  V30 1482 C 138.72 5.07216 -3.66719 0
M  V30 1483 H 138.953 1.87586 -2.30648 0
M  V30 1484 H 136.486 0.879182 -1.26924 0
M  V30 1485 H 138.444 3.98734 -0.975761 0
M  V30 1486 H 137.105 3.13608 -0.175798 0
M  V30 1487 H 136.298 4.60403 -2.0505 0
M  V30 1488 H 135.9 2.8987 -2.36329 0
M  V30 1489 H 138.192 5.94238 -3.25404 0
M  V30 1490 H 139.135 5.33753 -4.6531 0
M  V30 1491 H 139.543 4.77976 -3.00332 0
M  V30 1492 N 138.941 1.26152 0.944643 0
M  V30 1493 C 139.889 1.07215 2.06417 0
M  V30 1494 C 140.883 9.2007e-05 1.694 0
M  V30 1495 O 142.089 0.1565 1.79318 0
M  V30 1496 H 138.464 0.329837 0.675805 0
M  V30 1497 H 140.435 2.02099 2.19541 0
M  V30 1498 C 139.184 0.718197 3.40202 0
M  V30 1499 H 138.507 1.53497 3.69159 0
M  V30 1500 H 139.947 0.625459 4.19361 0
M  V30 1501 C 138.406 -0.576435 3.31932 0
M  V30 1502 O 138.936 -1.61574 3.67773 0
M  V30 1503 N 137.142 -0.565781 2.85039 0
M  V30 1504 H 136.689 0.280367 2.5607 0
M  V30 1505 H 136.647 -1.43213 2.79888 0
M  V30 1506 N 140.419 -1.14872 1.07899 0
M  V30 1507 C 141.367 -2.21857 0.698727 0
M  V30 1508 C 142.361 -1.66845 -0.293086 0
M  V30 1509 O 143.567 -1.79321 -0.156204 0
M  V30 1510 H 139.942 -0.722691 0.207899 0
M  V30 1511 H 141.913 -2.51205 1.61054 0
M  V30 1512 C 140.662 -3.47498 0.11858 0
M  V30 1513 H 139.985 -3.90154 0.872914 0
M  V30 1514 H 141.425 -4.23858 -0.109759 0
M  V30 1515 C 139.884 -3.16947 -1.1422 0
M  V30 1516 O 140.414 -3.3426 -2.22785 0
M  V30 1517 N 138.62 -2.70946 -1.05055 0
M  V30 1518 H 138.167 -2.57058 -0.167038 0
M  V30 1519 H 138.125 -2.50879 -1.89491 0
M  V30 1520 N 141.898 -0.863906 -1.31812 0
M  V30 1521 C 142.808 -0.318461 -2.32428 0
M  V30 1522 C 143.824 0.568496 -1.64451 0
M  V30 1523 O 145 0.46666 -1.95919 0
M  V30 1524 C 142.065 0.476355 -3.43412 0
M  V30 1525 C 141.126 -0.43784 -4.27061 0
M  V30 1526 C 140.359 0.319138 -5.32745 0
M  V30 1527 O 140.582 1.54799 -5.48993 0
M  V30 1528 O 139.516 -0.319861 -6.01049 0
M  V30 1529 H 143.342 -1.15229 -2.80991 0
M  V30 1530 H 140.927 -0.627103 -1.35602 0
M  V30 1531 H 142.809 0.927156 -4.11074 0
M  V30 1532 H 141.484 1.28683 -2.97022 0
M  V30 1533 H 140.391 -0.937013 -3.62175 0
M  V30 1534 H 141.724 -1.21375 -4.77 0
M  V30 1535 N 143.376 1.44774 -0.622745 0
M  V30 1536 C 144.339 2.29069 0.0774015 0
M  V30 1537 C 145.339 1.4059 0.780461 0
M  V30 1538 O 146.529 1.62551 0.626322 0
M  V30 1539 C 143.661 3.21974 1.12006 0
M  V30 1540 H 144.854 2.92459 -0.663901 0
M  V30 1541 H 142.407 1.51548 -0.382486 0
M  V30 1542 H 143.142 2.63417 1.89162 0
M  V30 1543 H 142.927 3.87168 0.619951 0
M  V30 1544 H 144.417 3.85318 1.60995 0
M  V30 1545 N 144.854 0.36279 1.53368 0
M  V30 1546 C 145.804 -0.501391 2.22419 0
M  V30 1547 C 146.788 -1.0509 1.2184 0
M  V30 1548 O 147.98 -0.981404 1.47301 0
M  V30 1549 C 145.109 -1.64201 3.01484 0
M  V30 1550 C 144.195 -1.10552 4.09438 0
M  V30 1551 N 144.586 -0.291788 5.04958 0
M  V30 1552 C 142.884 -1.3806 4.24094 0
M  V30 1553 C 143.585 0.00162655 5.817 0
M  V30 1554 N 142.561 -0.595244 5.40331 0
M  V30 1555 H 146.363 0.127159 2.93625 0
M  V30 1556 H 143.877 0.170658 1.61501 0
M  V30 1557 H 145.874 -2.27326 3.49469 0
M  V30 1558 H 144.534 -2.27365 2.31809 0
M  V30 1559 H 145.545 0.0687731 5.17854 0
M  V30 1560 H 142.222 -2.01522 3.65644 0
M  V30 1561 H 143.612 0.659278 6.68658 0
M  V30 1562 N 146.332 -1.57332 0.0918853 0
M  V30 1563 C 147.58 -1.93853 -0.571446 0
M  V30 1564 C 147.901 -0.974212 -1.6892 0
M  V30 1565 O 147.171 -0.0257254 -1.95883 0
M  V30 1566 H 145.751 -0.715666 -0.214082 0
M  V30 1567 H 148.413 -1.94287 0.154464 0
M  V30 1568 H 147.509 -2.96191 -0.983729 0
M  V30 1569 N 147.81 0.181792 -1.56548 0
M  V30 1570 C 149.087 0.926765 -1.72251 0
M  V30 1571 C 149.467 2.00831 -0.650386 0
M  V30 1572 O 148.815 2.26008 0.336521 0
M  V30 1573 C 149.025 1.50106 -3.1507 0
M  V30 1574 C 150.373 1.97805 -3.75711 0
M  V30 1575 O 151.397 1.59922 -3.18282 0
M  V30 1576 O 150.256 2.67555 -4.76525 0
M  V30 1577 H 147.35 0.435506 -0.703039 0
M  V30 1578 H 149.896 0.170443 -1.68842 0
M  V30 1579 H 148.668 0.72212 -3.84579 0
M  V30 1580 H 148.291 2.32186 -3.22763 0
M  V30 1581 N 149.288 1.51039 0.449983 0
M  V30 1582 C 150.251 1.70863 1.5277 0
M  V30 1583 C 151.251 0.578846 1.5002 0
M  V30 1584 O 152.441 0.846213 1.52266 0
M  V30 1585 C 149.573 1.75341 2.9235 0
M  V30 1586 H 150.766 2.67034 1.36502 0
M  V30 1587 H 148.319 1.40838 0.677812 0
M  V30 1588 H 149.054 0.809383 3.14037 0
M  V30 1589 H 148.839 2.57436 2.95752 0
M  V30 1590 H 150.329 1.92559 3.70555 0
M  V30 1591 N 150.766 -0.704594 1.40972 0
M  V30 1592 C 151.994 -1.49354 1.43182 0
M  V30 1593 C 152.409 -1.88768 0.0345508 0
M  V30 1594 O 151.766 -1.56184 -0.944081 0
M  V30 1595 C 151.817 -2.76187 2.33244 0
M  V30 1596 O 151.538 -2.38436 3.67532 0
M  V30 1597 C 153.039 -3.7 2.44162 0
M  V30 1598 H 150.259 -0.460559 0.487982 0
M  V30 1599 H 152.803 -0.868261 1.85153 0
M  V30 1600 H 150.958 -3.34974 1.94606 0
M  V30 1601 H 151.372 -3.20126 4.15475 0
M  V30 1602 H 152.846 -4.55803 3.11364 0
M  V30 1603 H 153.323 -4.13867 1.47006 0
M  V30 1604 H 153.929 -3.17121 2.83398 0
M  V30 1605 N 152.244 -1.26651 -0.937939 0
M  V30 1606 C 153.154 -1.10276 -2.07066 0
M  V30 1607 C 154.17 -0.0354197 -1.73964 0
M  V30 1608 O 155.346 -0.239816 -1.99967 0
M  V30 1609 C 152.411 -0.740887 -3.38691 0
M  V30 1610 C 151.472 -1.88799 -3.85556 0
M  V30 1611 C 150.705 -1.54329 -5.10899 0
M  V30 1612 O 150.928 -0.446494 -5.6865 0
M  V30 1613 O 149.862 -2.37911 -5.52885 0
M  V30 1614 H 153.688 -2.05309 -2.23789 0
M  V30 1615 H 151.273 -1.05743 -1.0554 0
M  V30 1616 H 153.155 -0.55195 -4.1777 0
M  V30 1617 H 151.83 0.180022 -3.23199 0
M  V30 1618 H 150.737 -2.13191 -3.07409 0
M  V30 1619 H 152.07 -2.78874 -4.05574 0
M  V30 1620 N 153.722 1.14298 -1.08507 0
M  V30 1621 C 154.685 2.17607 -0.719711 0
M  V30 1622 C 155.685 1.58907 0.245997 0
M  V30 1623 O 156.875 1.74181 0.0254081 0
M  V30 1624 C 154.007 3.40842 -0.0627695 0
M  V30 1625 H 155.2 2.51443 -1.63452 0
M  V30 1626 H 152.753 1.28963 -0.88307 0
M  V30 1627 H 153.488 3.12587 0.863716 0
M  V30 1628 H 153.273 3.84713 -0.757504 0
M  V30 1629 H 154.763 4.17221 0.177786 0
M  V30 1630 N 155.201 0.870884 1.31352 0
M  V30 1631 C 156.429 0.49677 2.00848 0
M  V30 1632 C 156.844 -0.910998 1.65367 0
M  V30 1633 O 156.201 -1.59696 0.883374 0
M  V30 1634 C 156.252 0.645308 3.55694 0
M  V30 1635 O 155.973 1.99764 3.89905 0
M  V30 1636 C 157.474 0.272326 4.42463 0
M  V30 1637 H 154.694 0.193462 0.642506 0
M  V30 1638 H 157.238 1.1723 1.67563 0
M  V30 1639 H 155.393 0.0173176 3.87396 0
M  V30 1640 H 155.807 2.00607 4.84621 0
M  V30 1641 H 157.281 0.427208 5.50344 0
M  V30 1642 H 157.758 -0.788587 4.32062 0
M  V30 1643 H 158.364 0.876054 4.1618 0
M  V30 1644 N 156.679 -1.44442 0.630414 0
M  V30 1645 C 157.925 -2.02351 0.134816 0
M  V30 1646 C 158.258 -1.4947 -1.23986 0
M  V30 1647 O 157.533 -0.678475 -1.82283 0
M  V30 1648 C 157.816 -3.59898 0.120707 0
M  V30 1649 C 157.669 -4.23063 1.52767 0
M  V30 1650 C 158.988 -4.36585 -0.555127 0
M  V30 1651 H 156.107 -0.73527 0.0504646 0
M  V30 1652 H 158.749 -1.72022 0.806751 0
M  V30 1653 H 156.899 -3.85868 -0.451477 0
M  V30 1654 H 158.571 -4.08202 2.14869 0
M  V30 1655 H 156.814 -3.80586 2.08175 0
M  V30 1656 H 157.485 -5.32071 1.46984 0
M  V30 1657 H 159.961 -4.16044 -0.0685429 0
M  V30 1658 H 158.837 -5.46294 -0.534185 0
M  V30 1659 H 159.098 -4.11138 -1.62535 0
M  V30 1660 N 158.157 -0.370918 -1.53173 0
M  V30 1661 C 159.404 0.217102 -2.01333 0
M  V30 1662 C 159.732 1.48338 -1.25802 0
M  V30 1663 O 158.987 1.92698 -0.34146 0
M  V30 1664 C 159.286 0.549696 -3.53147 0
M  V30 1665 C 158.952 -0.622872 -4.46577 0
M  V30 1666 C 157.614 -0.944595 -4.71838 0
M  V30 1667 C 159.966 -1.40819 -5.01816 0
M  V30 1668 C 157.294 -2.05351 -5.49589 0
M  V30 1669 C 159.646 -2.50757 -5.80778 0
M  V30 1670 C 158.31 -2.83458 -6.04324 0
M  V30 1671 H 157.58 0.0794431 -0.736729 0
M  V30 1672 H 160.227 -0.504481 -1.84736 0
M  V30 1673 H 158.532 1.35237 -3.6772 0
M  V30 1674 H 160.229 1.017 -3.87889 0
M  V30 1675 H 156.819 -0.36209 -4.27068 0
M  V30 1676 H 161.003 -1.17289 -4.82242 0
M  V30 1677 H 156.259 -2.3108 -5.6605 0
M  V30 1678 H 160.433 -3.12022 -6.22588 0
M  V30 1679 H 158.06 -3.69508 -6.64355 0
M  V30 1680 N 159.635 1.57281 -0.100228 0
M  V30 1681 C 160.883 1.94153 0.561157 0
M  V30 1682 C 161.204 0.983157 1.68401 0
M  V30 1683 O 160.474 0.0361132 1.95867 0
M  V30 1684 H 159.054 0.716791 0.210283 0
M  V30 1685 H 161.716 1.94202 -0.164765 0
M  V30 1686 H 160.812 2.96709 0.968008 0
M  V30 1687 N 161.113 -0.173488 1.56642 0
M  V30 1688 C 162.524 -0.736155 1.71574 0
M  V30 1689 C 162.875 -1.82888 0.710389 0
M  V30 1690 O 162 -2.16017 -0.1287 0
M  V30 1691 C 162.595 -1.34211 3.11083 0
M  V30 1692 C 161.154 -1.85162 3.27707 0
M  V30 1693 C 160.301 -0.729765 2.67525 0
M  V30 1694 H 163.252 0.0518786 1.58615 0
M  V30 1695 H 163.273 -2.21178 3.09613 0
M  V30 1696 H 162.785 -0.546579 3.84232 0
M  V30 1697 H 160.886 -2.67366 2.59512 0
M  V30 1698 H 160.999 -1.99855 4.35425 0
M  V30 1699 H 159.363 -1.14965 2.27278 0
M  V30 1700 H 160.146 0.0538806 3.43258 0
M  V30 1701 N 162.591 -1.51276 -0.441967 0
M  V30 1702 C 163.838 -1.63715 -1.19179 0
M  V30 1703 C 164.166 -0.351175 -1.91303 0
M  V30 1704 O 163.421 0.664524 -1.84072 0
M  V30 1705 C 163.72 -2.78746 -2.23686 0
M  V30 1706 C 163.386 -4.18189 -1.68607 0
M  V30 1707 C 162.048 -4.56125 -1.53308 0
M  V30 1708 C 164.4 -5.05222 -1.28062 0
M  V30 1709 C 161.728 -5.78804 -0.959317 0
M  V30 1710 C 164.08 -6.28476 -0.721162 0
M  V30 1711 C 162.744 -6.65188 -0.55504 0
M  V30 1712 H 162.014 -0.599076 -0.436106 0
M  V30 1713 H 164.661 -1.85296 -0.48351 0
M  V30 1714 H 162.966 -2.51369 -3.00535 0
M  V30 1715 H 164.663 -2.8557 -2.81515 0
M  V30 1716 H 161.253 -3.88277 -1.8149 0
M  V30 1717 H 165.437 -4.76524 -1.38704 0
M  V30 1718 H 160.693 -6.05899 -0.81833 0
M  V30 1719 H 164.867 -6.95259 -0.398458 0
M  V30 1720 H 162.494 -7.60123 -0.108311 0
M  V30 1721 N 164.069 0.697108 -1.41344 0
M  V30 1722 C 165.316 1.45714 -1.40619 0
M  V30 1723 C 165.644 1.94494 -0.0147907 0
M  V30 1724 O 164.899 1.69794 0.973066 0
M  V30 1725 C 165.198 2.68553 -2.35826 0
M  V30 1726 C 164.864 2.38438 -3.82698 0
M  V30 1727 C 163.526 2.29936 -4.22709 0
M  V30 1728 C 165.878 2.13567 -4.75435 0
M  V30 1729 C 163.206 1.94656 -5.53467 0
M  V30 1730 C 165.558 1.79797 -6.06511 0
M  V30 1731 C 164.222 1.69789 -6.45545 0
M  V30 1732 H 163.492 0.533206 -0.51456 0
M  V30 1733 H 166.139 0.796901 -1.74131 0
M  V30 1734 H 164.444 3.39503 -1.95563 0
M  V30 1735 H 166.141 3.2669 -2.32539 0
M  V30 1736 H 162.731 2.4595 -3.51008 0
M  V30 1737 H 166.915 2.19082 -4.45328 0
M  V30 1738 H 162.171 1.8546 -5.82593 0
M  V30 1739 H 166.345 1.59572 -6.77872 0
M  V30 1740 H 163.972 1.4222 -7.46778 0
M  V30 1741 N 165.547 1.27147 0.931209 0
M  V30 1742 C 166.793 1.13446 1.68101 0
M  V30 1743 C 167.126 -0.319628 1.91552 0
M  V30 1744 O 166.401 -1.23407 1.50336 0
M  V30 1745 C 166.684 1.91482 3.0497 0
M  V30 1746 C 166.537 3.44855 2.88782 0
M  V30 1747 C 167.856 1.71651 4.05246 0
M  V30 1748 H 164.975 0.413498 0.610072 0
M  V30 1749 H 167.617 1.56261 1.08086 0
M  V30 1750 H 165.767 1.55095 3.56199 0
M  V30 1751 H 167.439 3.9105 2.44698 0
M  V30 1752 H 165.682 3.71373 2.24198 0
M  V30 1753 H 166.353 3.94694 3.85902 0
M  V30 1754 H 168.829 2.0337 3.63015 0
M  V30 1755 H 167.705 2.28651 4.99009 0
M  V30 1756 H 167.966 0.663555 4.37092 0
M  V30 1757 N 167.025 -1.13721 1.09112 0
M  V30 1758 C 167.935 -2.22638 0.73957 0
M  V30 1759 C 168.951 -1.72091 -0.257068 0
M  V30 1760 O 170.127 -2.01155 -0.0992154 0
M  V30 1761 C 167.192 -3.46322 0.16191 0
M  V30 1762 C 166.253 -4.11775 1.21408 0
M  V30 1763 C 165.486 -5.29555 0.663891 0
M  V30 1764 O 165.709 -5.68077 -0.514274 0
M  V30 1765 O 164.643 -5.84973 1.41738 0
M  V30 1766 H 168.469 -2.55074 1.64836 0
M  V30 1767 H 166.054 -1.21791 0.865289 0
M  V30 1768 H 167.936 -4.21107 -0.157073 0
M  V30 1769 H 166.611 -3.15593 -0.719932 0
M  V30 1770 H 165.518 -3.3883 1.58571 0
M  V30 1771 H 166.851 -4.46627 2.06845 0
M  V30 1772 N 168.503 -0.877838 -1.30888 0
M  V30 1773 C 169.751 -0.491723 -1.96027 0
M  V30 1774 C 170.072 0.960827 -1.69685 0
M  V30 1775 O 169.342 1.67462 -1.01654 0
M  V30 1776 H 167.922 -0.17885 -0.725273 0
M  V30 1777 H 170.584 -1.11935 -1.59551 0
M  V30 1778 H 169.68 -0.656016 -3.05128 0
M  V30 1779 N 169.982 1.44106 -0.638065 0
M  V30 1780 C 171.207 2.0685 -0.150916 0
M  V30 1781 C 171.632 1.47417 1.16833 0
M  V30 1782 O 170.99 0.578264 1.71831 0
M  V30 1783 C 171.038 3.60555 -0.05708 0
M  V30 1784 O 170.142 4.00465 0.984972 0
M  V30 1785 H 169.483 0.658151 -0.0879399 0
M  V30 1786 H 172.013 1.84865 -0.876707 0
M  V30 1787 H 172.023 4.07789 0.131232 0
M  V30 1788 H 170.698 4.03193 -1.02021 0
M  V30 1789 H 169.275 3.64849 0.770672 0
M  V30 1790 N 171.46 0.379036 1.52974 0
M  V30 1791 C 172.871 -0.0972525 1.86447 0
M  V30 1792 C 173.222 -1.47027 1.29914 0
M  V30 1793 O 172.347 -2.07135 0.626433 0
M  V30 1794 C 172.942 -0.183248 3.38304 0
M  V30 1795 C 171.501 -0.603812 3.71525 0
M  V30 1796 C 170.648 0.240632 2.76254 0
M  V30 1797 H 173.599 0.597316 1.4703 0
M  V30 1798 H 173.62 -1.00432 3.67006 0
M  V30 1799 H 173.132 0.816191 3.79421 0
M  V30 1800 H 171.233 -1.61099 3.35973 0
M  V30 1801 H 171.346 -0.369086 4.77676 0
M  V30 1802 H 169.71 -0.292548 2.53014 0
M  V30 1803 H 170.493 1.23786 3.20206 0
M  V30 1804 N 172.938 -1.57226 0.108567 0
M  V30 1805 C 174.354 -1.5766 -0.248058 0
M  V30 1806 C 174.554 -1.12063 -1.67464 0
M  V30 1807 O 173.61 -0.803236 -2.39383 0
M  V30 1808 C 174.923 -3.0069 -0.0242287 0
M  V30 1809 C 176.471 -3.12868 -0.0909372 0
M  V30 1810 C 176.946 -4.57879 0.105067 0
M  V30 1811 N 178.437 -4.63172 0.0506846 0
M  V30 1812 C 179.172 -5.73126 0.177396 0
M  V30 1813 N 178.668 -6.91866 0.359696 0
M  V30 1814 N 180.461 -5.61977 0.117709 0
M  V30 1815 H 172.612 -1.85169 1.04049 0
M  V30 1816 H 174.875 -0.85529 0.40888 0
M  V30 1817 H 174.581 -3.38299 0.961604 0
M  V30 1818 H 174.455 -3.6945 -0.76068 0
M  V30 1819 H 176.842 -2.75124 -1.06729 0
M  V30 1820 H 176.923 -2.46672 0.677225 0
M  V30 1821 H 176.567 -4.96321 1.07834 0
M  V30 1822 H 176.497 -5.22153 -0.682954 0
M  V30 1823 H 178.988 -3.778 -0.0871266 0
M  V30 1824 H 179.301 -7.71503 0.447529 0
M  V30 1825 H 177.646 -6.93874 0.395536 0
M  V30 1826 H 180.837 -4.68094 -0.0236741 0
M  V30 1827 H 181.01 -6.47627 0.219905 0
M  V30 1828 N 174.416 0.165178 -1.56732 0
M  V30 1829 C 175.665 0.879143 -1.81532 0
M  V30 1830 C 175.978 1.83144 -0.686842 0
M  V30 1831 O 177.184 2.58823 -0.819944 0
M  V30 1832 C 175.64 1.61388 -3.21686 0
M  V30 1833 C 175.248 0.704904 -4.4242 0
M  V30 1834 C 176.992 2.3157 -3.55774 0
M  V30 1835 C 174.899 1.44022 -5.73595 0
M  V30 1836 H 173.829 0.332033 -0.676957 0
M  V30 1837 H 176.48 0.132008 -1.83025 0
M  V30 1838 H 174.862 2.40599 -3.14529 0
M  V30 1839 H 176.036 -0.0506815 -4.60772 0
M  V30 1840 H 174.351 0.112419 -4.16248 0
M  V30 1841 H 176.948 2.8719 -4.51028 0
M  V30 1842 H 177.291 3.07201 -2.8095 0
M  V30 1843 H 177.824 1.59297 -3.64513 0
M  V30 1844 H 174.563 0.72612 -6.51466 0
M  V30 1845 H 174.083 2.16898 -5.5921 0
M  V30 1846 H 175.762 1.98606 -6.15764 0
M  V30 1847 N 175.894 1.51508 0.433938 0
M  V30 1848 C 176.804 1.75917 1.5521 0
M  V30 1849 C 177.82 0.643545 1.61662 0
M  V30 1850 O 178.996 0.926183 1.7884 0
M  V30 1851 C 176.061 1.88213 2.91164 0
M  V30 1852 C 175.122 3.12074 2.94802 0
M  V30 1853 C 174.355 3.23774 4.24271 0
M  V30 1854 O 174.578 2.4133 5.16833 0
M  V30 1855 O 173.512 4.16774 4.34262 0
M  V30 1856 H 177.338 2.70777 1.37527 0
M  V30 1857 H 174.923 1.36051 0.617293 0
M  V30 1858 H 176.805 1.98267 3.71845 0
M  V30 1859 H 175.48 0.965413 3.08968 0
M  V30 1860 H 174.387 3.07497 2.13065 0
M  V30 1861 H 175.72 4.03446 2.81943 0
M  V30 1862 N 177.372 -0.689602 1.41712 0
M  V30 1863 C 178.597 -1.48329 1.44959 0
M  V30 1864 C 179.022 -1.8801 0.0581283 0
M  V30 1865 O 178.38 -1.55026 -0.940035 0
M  V30 1866 C 178.428 -2.71835 2.36935 0
M  V30 1867 O 177.532 -3.69549 1.8305 0
M  V30 1868 H 176.873 -0.446199 0.491734 0
M  V30 1869 H 179.403 -0.847127 1.86239 0
M  V30 1870 H 179.413 -3.20076 2.53013 0
M  V30 1871 H 178.088 -2.42291 3.38035 0
M  V30 1872 H 176.665 -3.2851 1.76452 0
M  V30 1873 N 178.85 -1.27639 -0.924453 0
M  V30 1874 C 180.098 -1.13941 -1.66918 0
M  V30 1875 C 180.419 0.314589 -1.92446 0
M  V30 1876 O 179.689 1.21964 -1.53303 0
M  V30 1877 H 178.269 -0.418678 -0.618642 0
M  V30 1878 H 180.931 -1.60213 -1.10985 0
M  V30 1879 H 180.027 -1.67094 -2.63602 0
M  V30 1880 N 180.328 1.1314 -1.09713 0
M  V30 1881 C 181.576 1.84119 -0.833338 0
M  V30 1882 C 181.897 1.84097 0.642904 0
M  V30 1883 O 181.167 1.29881 1.46655 0
M  V30 1884 H 179.747 0.681766 -0.305293 0
M  V30 1885 H 182.409 1.37038 -1.38588 0
M  V30 1886 H 181.505 2.88543 -1.18951 0
M  V30 1887 N 181.806 0.884767 1.30421 0
M  V30 1888 C 183.083 0.423185 1.90967 0
M  V30 1889 C 183.463 -1.09605 1.80416 0
M  V30 1890 O 182.811 -1.93126 1.22125 0
M  V30 1891 C 183.021 0.921056 3.36627 0
M  V30 1892 C 184.369 0.955903 4.137 0
M  V30 1893 O 185.393 0.867706 3.4547 0
M  V30 1894 O 184.252 1.08614 5.35598 0
M  V30 1895 H 181.346 0.129369 0.816819 0
M  V30 1896 H 183.892 0.973653 1.3899 0
M  V30 1897 H 182.664 1.96489 3.3839 0
M  V30 1898 H 182.287 0.349741 3.96059 0
M  V30 1899 N 183.284 -1.43765 0.645699 0
M  V30 1900 C 184.533 -2.01116 0.153412 0
M  V30 1901 C 184.846 -1.51493 -1.23731 0
M  V30 1902 O 186.052 -2.01067 -1.8244 0
M  V30 1903 C 184.508 -3.59206 0.223473 0
M  V30 1904 C 184.116 -4.17823 1.61642 0
M  V30 1905 C 185.86 -4.23972 -0.211597 0
M  V30 1906 C 183.767 -5.68183 1.64081 0
M  V30 1907 H 182.697 -0.752093 0.0535891 0
M  V30 1908 H 185.348 -1.6482 0.806633 0
M  V30 1909 H 183.73 -3.92867 -0.497118 0
M  V30 1910 H 184.904 -3.95674 2.36176 0
M  V30 1911 H 183.219 -3.65399 1.99681 0
M  V30 1912 H 185.816 -5.34275 -0.213112 0
M  V30 1913 H 186.159 -3.97352 -1.24165 0
M  V30 1914 H 186.692 -3.95166 0.456988 0
M  V30 1915 H 183.431 -5.99559 2.64971 0
M  V30 1916 H 182.951 -5.9241 0.938611 0
M  V30 1917 H 184.63 -6.32085 1.3812 0
M  V30 1918 N 184.763 -0.387143 -1.52771 0
M  V30 1919 C 185.726 0.436939 -2.24997 0
M  V30 1920 C 186.726 0.991991 -1.26555 0
M  V30 1921 O 187.916 0.874335 -1.50669 0
M  V30 1922 C 185.048 1.61281 -3.00335 0
M  V30 1923 H 186.241 -0.195365 -2.99263 0
M  V30 1924 H 183.794 -0.139218 -1.55679 0
M  V30 1925 H 184.529 2.2826 -2.30364 0
M  V30 1926 H 184.314 1.22154 -3.72587 0
M  V30 1927 H 185.804 2.19629 -3.5518 0
M  V30 1928 N 186.241 1.57166 -0.116904 0
M  V30 1929 C 187.489 1.94737 0.540533 0
M  V30 1930 C 187.81 1.00096 1.67349 0
M  V30 1931 O 187.08 0.0568854 1.95817 0
M  V30 1932 H 185.66 0.718981 0.202669 0
M  V30 1933 H 188.322 1.94017 -0.185353 0
M  V30 1934 H 187.418 2.97719 0.936483 0
M  V30 1935 N 187.719 -0.156864 1.56817 0
M  V30 1936 C 188.967 -0.869404 1.82444 0
M  V30 1937 C 189.288 -1.82147 0.69623 0
M  V30 1938 O 188.558 -1.93847 -0.28287 0
M  V30 1939 H 187.138 -0.324043 0.673056 0
M  V30 1940 H 189.8 -0.153224 1.94297 0
M  V30 1941 H 188.896 -1.43761 2.77019 0
M  V30 1942 N 189.197 -1.51736 -0.425897 0
M  V30 1943 C 190.16 -1.73271 -1.50032 0
M  V30 1944 C 191.16 -0.602639 -1.4908 0
M  V30 1945 O 192.35 -0.87033 -1.509 0
M  V30 1946 C 189.482 -1.79969 -2.89523 0
M  V30 1947 H 190.675 -2.69172 -1.32237 0
M  V30 1948 H 188.228 -1.41899 -0.65532 0
M  V30 1949 H 188.963 -0.859241 -3.1271 0
M  V30 1950 H 188.748 -2.62109 -2.91619 0
M  V30 1951 H 190.238 -1.9843 -3.67444 0
M  V30 1952 N 190.675 0.682077 -1.42076 0
M  V30 1953 C 191.638 1.77756 -1.44691 0
M  V30 1954 C 192.638 1.5726 -0.335535 0
M  V30 1955 O 193.828 1.63686 -0.596037 0
M  V30 1956 C 190.96 3.16301 -1.27146 0
M  V30 1957 H 192.153 1.76826 -2.42224 0
M  V30 1958 H 189.706 0.891012 -1.28416 0
M  V30 1959 H 190.441 3.22862 -0.305075 0
M  V30 1960 H 190.226 3.32581 -2.07683 0
M  V30 1961 H 191.716 3.96241 -1.31843 0
M  V30 1962 N 192.153 1.28127 0.917671 0
M  V30 1963 C 193.401 1.14825 1.66312 0
M  V30 1964 C 193.722 -0.304379 1.9261 0
M  V30 1965 O 192.992 -1.21149 1.53947 0
M  V30 1966 H 191.572 0.421953 0.616413 0
M  V30 1967 H 194.234 1.608 1.10134 0
M  V30 1968 H 193.33 1.68489 2.62712 0
M  V30 1969 N 193.631 -1.12557 1.10312 0
M  V30 1970 C 194.541 -2.21841 0.763142 0
M  V30 1971 C 195.557 -1.72354 -0.238801 0
M  V30 1972 O 196.733 -2.01249 -0.0778746 0
M  V30 1973 C 193.798 -3.46131 0.198632 0
M  V30 1974 C 192.859 -4.10464 1.25769 0
M  V30 1975 C 192.092 -5.28821 0.72002 0
M  V30 1976 O 192.315 -5.6859 -0.453993 0
M  V30 1977 O 191.249 -5.83437 1.47935 0
M  V30 1978 H 195.075 -2.53312 1.67532 0
M  V30 1979 H 192.66 -1.20867 0.878157 0
M  V30 1980 H 194.542 -4.2125 -0.112401 0
M  V30 1981 H 193.217 -3.16338 -0.686419 0
M  V30 1982 H 192.124 -3.3713 1.62156 0
M  V30 1983 H 193.457 -4.44408 2.11571 0
M  V30 1984 N 195.109 -0.891671 -1.2995 0
M  V30 1985 C 196.52 -0.563104 -1.78006 0
M  V30 1986 C 196.871 0.920978 -1.73241 0
M  V30 1987 O 195.996 1.71987 -1.31337 0
M  V30 1988 C 196.591 -1.01539 -3.23226 0
M  V30 1989 C 195.15 -0.738124 -3.69092 0
M  V30 1990 C 194.297 -1.19461 -2.50249 0
M  V30 1991 H 197.248 -1.07522 -1.16725 0
M  V30 1992 H 197.269 -0.347217 -3.78912 0
M  V30 1993 H 196.781 -2.09555 -3.26662 0
M  V30 1994 H 194.882 0.329766 -3.71138 0
M  V30 1995 H 194.995 -1.33037 -4.60259 0
M  V30 1996 H 193.359 -0.613787 -2.47194 0
M  V30 1997 H 194.142 -2.28265 -2.56417 0
M  V30 1998 N 196.587 1.43421 -0.653314 0
M  V30 1999 C 197.827 2.03689 -0.170346 0
M  V30 2000 C 198.191 1.50427 1.19314 0
M  V30 2001 O 199.392 2.0234 1.76952 0
M  V30 2002 C 197.663 3.56946 -0.180183 0
M  V30 2003 S 199.222 4.38171 0.234925 0
M  V30 2004 H 196.04 0.707345 -0.0719976 0
M  V30 2005 H 198.642 1.75486 -0.86167 0
M  V30 2006 H 197.346 3.93212 -1.17526 0
M  V30 2007 H 196.877 3.89791 0.531675 0
M  V30 2008 H 198.892 4.73808 1.47378 0
M  V30 2009 N 198.065 0.39524 1.52563 0
M  V30 2010 C 199.311 -0.177763 2.02622 0
M  V30 2011 C 199.666 -1.43974 1.27629 0
M  V30 2012 O 198.959 -1.87995 0.36992 0
M  V30 2013 C 199.153 -0.493444 3.53977 0
M  V30 2014 C 198.982 0.736392 4.4363 0
M  V30 2015 C 197.752 1.25744 4.89404 0
M  V30 2016 C 199.95 1.61046 4.88435 0
M  V30 2017 N 197.932 2.44421 5.63145 0
M  V30 2018 C 199.303 2.64359 5.60816 0
M  V30 2019 C 201.358 1.62985 4.70468 0
M  V30 2020 C 200.061 3.69505 6.17137 0
M  V30 2021 C 202.087 2.67042 5.27677 0
M  V30 2022 C 201.449 3.69077 5.99968 0
M  V30 2023 H 197.548 -0.0269794 0.781534 0
M  V30 2024 H 200.132 0.546466 1.86874 0
M  V30 2025 H 198.303 -1.18672 3.69826 0
M  V30 2026 H 200.035 -1.05412 3.90731 0
M  V30 2027 H 196.79 0.817546 4.6649 0
M  V30 2028 H 197.214 3.04485 6.04663 0
M  V30 2029 H 201.856 0.854442 4.14076 0
M  V30 2030 H 199.574 4.4791 6.72608 0
M  V30 2031 H 203.16 2.69433 5.15652 0
M  V30 2032 H 202.04 4.48273 6.43444 0
M  V30 2033 N 199.544 -1.57102 0.125237 0
M  V30 2034 C 200.79 -1.95697 -0.532035 0
M  V30 2035 C 201.123 -1.009 -1.6593 0
M  V30 2036 O 200.398 -0.047347 -1.94442 0
M  V30 2037 C 200.681 -3.44181 -1.05884 0
M  V30 2038 C 200.534 -4.49752 0.0654392 0
M  V30 2039 C 201.853 -3.94655 -1.9477 0
M  V30 2040 H 198.972 -0.711571 -0.191925 0
M  V30 2041 H 201.614 -1.88923 0.20206 0
M  V30 2042 H 199.764 -3.50085 -1.68442 0
M  V30 2043 H 201.436 -4.55943 0.700982 0
M  V30 2044 H 199.679 -4.27653 0.727709 0
M  V30 2045 H 200.35 -5.50924 -0.344505 0
M  V30 2046 H 202.826 -3.91094 -1.42074 0
M  V30 2047 H 201.702 -4.99057 -2.28546 0
M  V30 2048 H 201.963 -3.35718 -2.87656 0
M  V30 2049 N 201.022 0.148545 -1.56898 0
M  V30 2050 C 201.932 1.20293 -2.01412 0
M  V30 2051 C 202.948 1.47107 -0.929273 0
M  V30 2052 O 204.124 1.58807 -1.23863 0
M  V30 2053 C 201.189 2.51682 -2.38447 0
M  V30 2054 C 200.25 2.32529 -3.60872 0
M  V30 2055 C 199.483 3.57653 -3.96132 0
M  V30 2056 O 199.706 4.63771 -3.32073 0
M  V30 2057 O 198.64 3.50408 -4.89385 0
M  V30 2058 H 202.466 0.855025 -2.91416 0
M  V30 2059 H 200.051 0.357151 -1.45068 0
M  V30 2060 H 201.933 3.29147 -2.63135 0
M  V30 2061 H 200.608 2.86006 -1.51599 0
M  V30 2062 H 199.515 1.53019 -3.41373 0
M  V30 2063 H 200.848 2.03121 -4.48333 0
M  V30 2064 N 202.5 1.5196 0.417844 0
M  V30 2065 C 203.748 1.65263 1.16329 0
M  V30 2066 C 204.069 0.380634 1.91249 0
M  V30 2067 O 203.339 -0.604214 1.86349 0
M  V30 2068 H 201.919 0.60912 0.432414 0
M  V30 2069 H 204.581 1.88969 0.477162 0
M  V30 2070 H 203.677 2.4896 1.88217 0
M  V30 2071 N 203.978 -0.674533 1.42435 0
M  V30 2072 C 205.206 -1.46283 1.46317 0
M  V30 2073 C 205.621 -1.88653 0.0745836 0
M  V30 2074 O 204.978 -1.58151 -0.91074 0
M  V30 2075 C 205.029 -2.71178 2.3905 0
M  V30 2076 O 204.75 -2.30586 3.72507 0
M  V30 2077 C 206.251 -3.64738 2.51955 0
M  V30 2078 H 203.471 -0.450104 0.497642 0
M  V30 2079 H 206.015 -0.828792 1.86953 0
M  V30 2080 H 204.17 -3.3077 2.01667 0
M  V30 2081 H 204.584 -3.11241 4.22172 0
M  V30 2082 H 206.058 -4.49096 3.20962 0
M  V30 2083 H 206.535 -4.10656 1.55752 0
M  V30 2084 H 207.141 -3.11038 2.90061 0
M  V30 2085 N 205.456 -1.28612 -0.910864 0
M  V30 2086 C 206.702 -1.16106 -1.66274 0
M  V30 2087 C 207.035 0.289113 -1.92036 0
M  V30 2088 O 206.31 1.21 -1.52281 0
M  V30 2089 C 206.593 -1.96309 -3.01885 0
M  V30 2090 C 206.446 -3.49405 -2.8326 0
M  V30 2091 C 207.765 -1.78076 -4.02463 0
M  V30 2092 H 204.884 -0.423152 -0.603417 0
M  V30 2093 H 207.526 -1.57961 -1.05586 0
M  V30 2094 H 205.676 -1.60742 -3.53687 0
M  V30 2095 H 207.348 -3.94894 -2.38446 0
M  V30 2096 H 205.591 -3.74893 -2.18261 0
M  V30 2097 H 206.262 -4.00784 -3.79574 0
M  V30 2098 H 208.738 -2.0912 -3.59733 0
M  V30 2099 H 207.614 -2.36561 -4.95308 0
M  V30 2100 H 207.875 -0.733008 -4.35981 0
M  V30 2101 N 206.934 1.1197 -1.10907 0
M  V30 2102 C 208.162 1.87402 -0.876824 0
M  V30 2103 C 208.577 1.79894 0.573025 0
M  V30 2104 O 207.934 1.17629 1.39534 0
M  V30 2105 C 207.985 3.36428 -1.32282 0
M  V30 2106 O 207.706 3.43765 -2.71582 0
M  V30 2107 C 209.207 4.28783 -1.12518 0
M  V30 2108 H 206.427 0.592793 -0.314384 0
M  V30 2109 H 208.971 1.41649 -1.47499 0
M  V30 2110 H 207.126 3.79706 -0.768229 0
M  V30 2111 H 207.54 4.3652 -2.90776 0
M  V30 2112 H 209.014 5.31613 -1.48633 0
M  V30 2113 H 209.491 4.39153 -0.0642394 0
M  V30 2114 H 210.097 3.91291 -1.66648 0
M  V30 2115 N 208.412 0.89855 1.29475 0
M  V30 2116 C 209.689 0.443416 1.90508 0
M  V30 2117 C 210.069 -1.07685 1.81569 0
M  V30 2118 O 209.417 -1.9182 1.24166 0
M  V30 2119 C 209.627 0.956708 3.35631 0
M  V30 2120 C 210.975 0.999728 4.12663 0
M  V30 2121 O 211.999 0.904299 3.4453 0
M  V30 2122 O 210.858 1.14289 5.34416 0
M  V30 2123 H 207.952 0.138025 0.815401 0
M  V30 2124 H 210.498 0.98834 1.37949 0
M  V30 2125 H 209.27 2.00067 3.36287 0
M  V30 2126 H 208.893 0.391728 3.95666 0
M  V30 2127 N 209.89 -1.43072 0.660911 0
M  V30 2128 C 211.118 -2.06067 0.185422 0
M  V30 2129 C 211.533 -1.49582 -1.15198 0
M  V30 2130 O 210.89 -0.630134 -1.71276 0
M  V30 2131 C 210.941 -3.61371 0.0966523 0
M  V30 2132 O 210.662 -4.15758 1.38119 0
M  V30 2133 C 212.163 -4.41455 -0.403996 0
M  V30 2134 H 209.383 -0.664459 0.0934604 0
M  V30 2135 H 211.927 -1.83447 0.90373 0
M  V30 2136 H 210.082 -3.8315 -0.572259 0
M  V30 2137 H 210.496 -5.09499 1.24542 0
M  V30 2138 H 211.97 -5.50437 -0.415045 0
M  V30 2139 H 212.447 -4.15036 -1.43674 0
M  V30 2140 H 213.053 -4.24663 0.232691 0
M  V30 2141 N 211.368 -0.403325 -1.52352 0
M  V30 2142 C 212.645 0.232611 -1.94212 0
M  V30 2143 C 213.025 1.63133 -1.33981 0
M  V30 2144 O 212.373 2.22659 -0.513344 0
M  V30 2145 C 212.583 0.244811 -3.4814 0
M  V30 2146 C 213.931 0.46698 -4.22024 0
M  V30 2147 O 214.955 0.324419 -3.5472 0
M  V30 2148 O 213.814 0.74747 -5.41364 0
M  V30 2149 H 210.908 0.148223 -0.813609 0
M  V30 2150 H 213.454 -0.458848 -1.63379 0
M  V30 2151 H 212.226 -0.734378 -3.84347 0
M  V30 2152 H 211.849 0.980611 -3.85318 0
M  V30 2153 N 212.846 1.57033 -0.133567 0
M  V30 2154 C 214.094 1.953 0.519848 0
M  V30 2155 C 214.415 1.01866 1.66278 0
M  V30 2156 O 213.685 0.0776513 1.95746 0
M  V30 2157 H 212.265 0.721091 0.195032 0
M  V30 2158 H 214.927 1.93809 -0.205921 0
M  V30 2159 H 214.023 2.98695 0.904854 0
M  V30 2160 N 214.325 -0.140222 1.56975 0
M  V30 2161 C 215.273 -1.19207 1.99731 0
M  V30 2162 C 216.267 -1.44089 0.890777 0
M  V30 2163 O 217.473 -1.44301 1.07597 0
M  V30 2164 H 213.848 -0.40142 0.635898 0
M  V30 2165 H 215.819 -0.804813 2.87342 0
M  V30 2166 C 214.568 -2.51617 2.39967 0
M  V30 2167 H 213.891 -2.33303 3.24669 0
M  V30 2168 H 215.331 -3.23827 2.73701 0
M  V30 2169 C 213.79 -3.12654 1.25496 0
M  V30 2170 O 214.32 -3.97786 0.559371 0
M  V30 2171 N 212.526 -2.72206 1.01746 0
M  V30 2172 H 212.073 -2.03074 1.58489 0
M  V30 2173 H 212.031 -3.13377 0.253461 0
M  V30 2174 N 215.803 -1.52179 -0.40978 0
M  V30 2175 C 217.214 -1.58377 -0.988615 0
M  V30 2176 C 217.565 -0.423879 -1.91566 0
M  V30 2177 O 216.69 0.455844 -2.11544 0
M  V30 2178 C 217.285 -2.87044 -1.79976 0
M  V30 2179 C 215.844 -2.95722 -2.32863 0
M  V30 2180 C 214.991 -2.53309 -1.12828 0
M  V30 2181 H 217.942 -1.57558 -0.190039 0
M  V30 2182 H 217.963 -2.7236 -2.65707 0
M  V30 2183 H 217.475 -3.71444 -1.12478 0
M  V30 2184 H 215.576 -2.15814 -3.03735 0
M  V30 2185 H 215.689 -3.99951 -2.63773 0
M  V30 2186 H 214.053 -2.07142 -1.48204 0
M  V30 2187 H 214.836 -3.40082 -0.46897 0
M  V30 2188 N 217.281 0.66697 -1.42791 0
M  V30 2189 C 218.527 1.4291 -1.43891 0
M  V30 2190 C 218.86 1.94114 -0.0578972 0
M  V30 2191 O 218.135 1.71414 0.91911 0
M  V30 2192 C 218.418 2.62049 -2.46987 0
M  V30 2193 C 218.271 2.16426 -3.94309 0
M  V30 2194 C 219.59 3.64266 -2.46978 0
M  V30 2195 H 216.709 0.518306 -0.523954 0
M  V30 2196 H 219.351 0.757321 -1.74255 0
M  V30 2197 H 217.501 3.19361 -2.21225 0
M  V30 2198 H 219.173 1.64221 -4.31079 0
M  V30 2199 H 217.416 1.47925 -4.078 0
M  V30 2200 H 218.087 3.02038 -4.62036 0
M  V30 2201 H 220.563 3.16686 -2.69906 0
M  V30 2202 H 219.439 4.45196 -3.21079 0
M  V30 2203 H 219.7 4.15927 -1.49857 0
M  V30 2204 N 218.759 1.29093 0.90403 0
M  V30 2205 C 220.17 1.15186 1.46932 0
M  V30 2206 C 220.521 -0.254587 1.94541 0
M  V30 2207 O 219.646 -1.14972 1.83332 0
M  V30 2208 C 220.241 2.08492 2.67051 0
M  V30 2209 C 218.8 1.98621 3.19729 0
M  V30 2210 C 217.947 1.9967 1.92425 0
M  V30 2211 H 220.898 1.41641 0.715789 0
M  V30 2212 H 220.919 1.65461 3.42641 0
M  V30 2213 H 220.431 3.10847 2.3237 0
M  V30 2214 H 218.532 0.993389 3.59114 0
M  V30 2215 H 218.645 2.86068 3.8432 0
M  V30 2216 H 217.009 1.44208 2.09943 0
M  V30 2217 H 217.792 3.03721 1.60026 0
M  V30 2218 N 220.237 -1.11381 1.11499 0
M  V30 2219 C 221.514 -1.7955 0.775965 0
M  V30 2220 C 221.894 -1.97859 -0.73588 0
M  V30 2221 O 221.242 -1.56376 -1.66609 0
M  V30 2222 C 221.452 -3.13196 1.53977 0
M  V30 2223 C 222.8 -3.88227 1.71944 0
M  V30 2224 O 223.824 -3.22887 1.50407 0
M  V30 2225 O 222.683 -5.05477 2.07738 0
M  V30 2226 H 219.777 -0.777728 0.28119 0
M  V30 2227 H 222.323 -1.18118 1.21845 0
M  V30 2228 H 221.095 -2.95229 2.56818 0
M  V30 2229 H 220.718 -3.82342 1.09088 0
M  V30 2230 N 221.715 -0.905404 -1.28997 0
M  V30 2231 C 222.678 -0.392253 -2.25819 0
M  V30 2232 C 223.678 0.476753 -1.5357 0
M  V30 2233 O 224.868 0.280994 -1.71919 0
M  V30 2234 C 222 0.438588 -3.38067 0
M  V30 2235 H 223.193 -1.24743 -2.72725 0
M  V30 2236 H 220.746 -0.684051 -1.40536 0
M  V30 2237 H 221.481 1.31352 -2.96508 0
M  V30 2238 H 221.266 -0.184167 -3.91667 0
M  V30 2239 H 222.756 0.78873 -4.10084 0
M  V30 2240 N 223.193 1.4272 -0.668489 0
M  V30 2241 C 224.609 1.55992 -0.33745 0
M  V30 2242 C 224.809 1.64933 1.15756 0
M  V30 2243 O 223.865 1.61278 1.94282 0
M  V30 2244 C 225.178 2.81314 -1.06222 0
M  V30 2245 C 226.726 2.95078 -1.04394 0
M  V30 2246 C 227.201 4.23252 -1.74991 0
M  V30 2247 N 228.692 4.3015 -1.71829 0
M  V30 2248 C 229.427 5.28127 -2.23315 0
M  V30 2249 N 228.923 6.32293 -2.83156 0
M  V30 2250 N 230.716 5.19882 -2.13726 0
M  V30 2251 H 222.867 1.3516 -1.63846 0
M  V30 2252 H 225.13 0.650174 -0.689912 0
M  V30 2253 H 224.836 2.80823 -2.11734 0
M  V30 2254 H 224.71 3.72012 -0.62344 0
M  V30 2255 H 227.097 2.951 0.0028244 0
M  V30 2256 H 227.178 2.05627 -1.52155 0
M  V30 2257 H 226.822 4.2399 -2.79633 0
M  V30 2258 H 226.752 5.11626 -1.24685 0
M  V30 2259 H 229.243 3.55499 -1.28175 0
M  V30 2260 H 229.556 7.03398 -3.20079 0
M  V30 2261 H 227.901 6.32873 -2.87223 0
M  V30 2262 H 231.092 4.37423 -1.66669 0
M  V30 2263 H 231.265 5.96077 -2.54158 0
M  V30 2264 N 224.671 0.411399 1.52136 0
M  V30 2265 C 225.92 -0.165009 2.01024 0
M  V30 2266 C 226.233 -1.4603 1.30133 0
M  V30 2267 O 227.439 -2.1181 1.69849 0
M  V30 2268 C 225.895 -0.344618 3.58246 0
M  V30 2269 C 225.503 0.938716 4.38055 0
M  V30 2270 C 227.247 -0.876195 4.15359 0
M  V30 2271 C 225.154 0.726172 5.86925 0
M  V30 2272 H 224.084 -0.0654407 0.751155 0
M  V30 2273 H 226.735 0.537192 1.75461 0
M  V30 2274 H 225.117 -1.10921 3.80148 0
M  V30 2275 H 226.291 1.70963 4.27912 0
M  V30 2276 H 224.606 1.39688 3.92271 0
M  V30 2277 H 227.203 -1.05128 5.24263 0
M  V30 2278 H 227.546 -1.85152 3.7286 0
M  V30 2279 H 228.079 -0.170607 3.97434 0
M  V30 2280 H 224.818 1.67312 6.33788 0
M  V30 2281 H 224.338 -0.00540283 5.998 0
M  V30 2282 H 226.017 0.369231 6.45946 0
M  V30 2283 N 226.149 -1.5696 0.141893 0
M  V30 2284 C 227.059 -2.20066 -0.812905 0
M  V30 2285 C 228.075 -1.18344 -1.27557 0
M  V30 2286 O 229.251 -1.50902 -1.33381 0
M  V30 2287 C 226.316 -2.80583 -2.03652 0
M  V30 2288 C 225.377 -3.97414 -1.62359 0
M  V30 2289 C 224.61 -4.55036 -2.78887 0
M  V30 2290 O 224.833 -4.11538 -3.94959 0
M  V30 2291 O 223.767 -5.45376 -2.54653 0
M  V30 2292 H 227.593 -3.02157 -0.305746 0
M  V30 2293 H 225.178 -1.49159 -0.0848799 0
M  V30 2294 H 227.06 -3.19067 -2.75272 0
M  V30 2295 H 225.735 -2.01508 -2.5333 0
M  V30 2296 H 224.642 -3.63656 -0.877775 0
M  V30 2297 H 225.975 -4.77994 -1.17401 0
M  V30 2298 N 227.627 0.131896 -1.57047 0
M  V30 2299 C 228.873 0.843179 -1.84441 0
M  V30 2300 C 229.206 1.80129 -0.725749 0
M  V30 2301 O 228.481 1.92624 0.269469 0
M  V30 2302 C 228.764 1.60442 -3.22382 0
M  V30 2303 C 228.617 0.666782 -4.4483 0
M  V30 2304 C 229.936 2.56354 -3.5773 0
M  V30 2305 H 227.055 0.305081 -0.670891 0
M  V30 2306 H 229.697 0.107839 -1.89694 0
M  V30 2307 H 227.847 2.23128 -3.18035 0
M  V30 2308 H 229.519 0.0497646 -4.61273 0
M  V30 2309 H 227.762 -0.022609 -4.33794 0
M  V30 2310 H 228.433 1.23579 -5.37989 0
M  V30 2311 H 230.909 2.0378 -3.62785 0
M  V30 2312 H 229.785 3.06657 -4.5525 0
M  V30 2313 H 230.046 3.38419 -2.84473 0
M  V30 2314 N 229.106 1.52395 0.401703 0
M  V30 2315 C 230.352 1.68019 1.14635 0
M  V30 2316 C 230.707 0.408722 1.88009 0
M  V30 2317 O 230 -0.597133 1.82057 0
M  V30 2318 C 230.194 2.84578 2.16217 0
M  V30 2319 C 230.023 4.22938 1.5282 0
M  V30 2320 C 228.793 4.88352 1.29772 0
M  V30 2321 C 230.991 5.04778 0.985094 0
M  V30 2322 N 228.973 6.10726 0.623455 0
M  V30 2323 C 230.344 6.1845 0.438172 0
M  V30 2324 C 232.399 4.90057 0.880275 0
M  V30 2325 C 231.102 7.19013 -0.203306 0
M  V30 2326 C 233.128 5.9086 0.252639 0
M  V30 2327 C 232.49 7.03829 -0.283573 0
M  V30 2328 H 228.589 0.668413 0.405892 0
M  V30 2329 H 231.173 1.89717 0.437674 0
M  V30 2330 H 229.344 2.64483 2.84435 0
M  V30 2331 H 231.076 2.89202 2.83098 0
M  V30 2332 H 227.831 4.46846 1.56926 0
M  V30 2333 H 228.255 6.76323 0.302733 0
M  V30 2334 H 232.897 4.02938 1.28065 0
M  V30 2335 H 230.615 8.05751 -0.615726 0
M  V30 2336 H 234.201 5.81543 0.172954 0
M  V30 2337 H 233.081 7.80493 -0.761575 0
M  V30 2338 N 230.584 -0.659388 1.43143 0
M  V30 2339 C 231.494 -1.80167 1.50256 0
M  V30 2340 C 232.51 -1.69571 0.390106 0
M  V30 2341 O 233.686 -1.90849 0.643319 0
M  V30 2342 C 230.751 -3.16409 1.41725 0
M  V30 2343 C 229.812 -3.38848 2.63591 0
M  V30 2344 C 229.045 -4.68591 2.55458 0
M  V30 2345 O 229.268 -5.47532 1.59891 0
M  V30 2346 O 228.202 -4.92614 3.45854 0
M  V30 2347 H 232.028 -1.77121 2.46702 0
M  V30 2348 H 229.613 -0.817092 1.25076 0
M  V30 2349 H 231.495 -3.9768 1.39387 0
M  V30 2350 H 230.17 -3.20059 0.484118 0
M  V30 2351 H 229.077 -2.57366 2.71502 0
M  V30 2352 H 230.41 -3.4004 3.55856 0
M  V30 2353 N 232.062 -1.29571 -0.897171 0
M  V30 2354 C 233.025 -1.14913 -1.98312 0
M  V30 2355 C 234.025 -0.0838629 -1.60581 0
M  V30 2356 O 235.215 -0.331006 -1.71026 0
M  V30 2357 C 232.347 -0.757835 -3.3237 0
M  V30 2358 H 233.54 -2.11377 -2.12743 0
M  V30 2359 H 231.093 -1.12793 -1.08201 0
M  V30 2360 H 231.828 0.206837 -3.2364 0
M  V30 2361 H 231.613 -1.52755 -3.61121 0
M  V30 2362 H 233.103 -0.678408 -4.12053 0
M  V30 2363 N 233.54 1.10788 -1.12088 0
M  V30 2364 C 234.817 1.79136 -0.785476 0
M  V30 2365 C 235.197 1.98246 0.725377 0
M  V30 2366 O 234.545 1.57258 1.65778 0
M  V30 2367 C 234.755 3.12375 -1.55636 0
M  V30 2368 C 236.103 3.8731 -1.74001 0
M  V30 2369 O 237.127 3.22085 -1.52117 0
M  V30 2370 O 235.986 5.04369 -2.10415 0
M  V30 2371 H 233.08 0.776226 -0.285311 0
M  V30 2372 H 235.626 1.1747 -1.2247 0
M  V30 2373 H 234.398 2.93863 -2.5838 0
M  V30 2374 H 234.021 3.81758 -1.11114 0
M  V30 2375 N 235.018 0.912232 1.28515 0
M  V30 2376 C 236.295 0.463597 1.90027 0
M  V30 2377 C 236.675 -1.05753 1.82701 0
M  V30 2378 O 236.023 -1.90492 1.26194 0
M  V30 2379 C 236.233 0.992253 3.34597 0
M  V30 2380 C 237.581 1.04344 4.11579 0
M  V30 2381 O 238.605 0.94079 3.43551 0
M  V30 2382 O 237.464 1.1995 5.33174 0
M  V30 2383 H 234.558 0.146666 0.813891 0
M  V30 2384 H 237.104 1.00292 1.36893 0
M  V30 2385 H 235.876 2.03623 3.34146 0
M  V30 2386 H 235.499 0.433672 3.95228 0
M  V30 2387 N 236.496 -1.42363 0.676048 0
M  V30 2388 C 237.773 -1.95183 0.127726 0
M  V30 2389 C 238.153 -1.61641 -1.35777 0
M  V30 2390 O 237.501 -0.913216 -2.09458 0
M  V30 2391 C 237.711 -3.46721 0.398199 0
M  V30 2392 C 239.059 -4.23427 0.315383 0
M  V30 2393 O 240.083 -3.54649 0.332016 0
M  V30 2394 O 238.942 -5.45888 0.25865 0
M  V30 2395 H 236.036 -0.826992 0.00359427 0
M  V30 2396 H 238.582 -1.52184 0.750864 0
M  V30 2397 H 237.354 -3.64344 1.4272 0
M  V30 2398 H 236.977 -3.96769 -0.256885 0
M  V30 2399 N 237.974 -0.419461 -1.51915 0
M  V30 2400 C 239.222 0.152637 -2.01523 0
M  V30 2401 C 239.543 1.44762 -1.30649 0
M  V30 2402 O 238.813 1.90997 -0.435535 0
M  V30 2403 H 237.393 0.0593966 -0.744635 0
M  V30 2404 H 240.055 -0.558073 -1.86739 0
M  V30 2405 H 239.151 0.341369 -3.10227 0
M  V30 2406 N 239.452 1.56882 -0.150215 0
M  V30 2407 C 240.699 1.96228 0.500093 0
M  V30 2408 C 241.027 1.03522 1.64661 0
M  V30 2409 O 240.282 0.0650683 1.95592 0
M  V30 2410 C 240.581 3.41801 1.04437 0
M  V30 2411 C 240.247 4.50897 0.0159671 0
M  V30 2412 C 238.909 4.8046 -0.266731 0
M  V30 2413 C 241.261 5.16703 -0.683192 0
M  V30 2414 C 238.589 5.73135 -1.25434 0
M  V30 2415 C 240.941 6.10441 -1.65964 0
M  V30 2416 C 239.605 6.38382 -1.95 0
M  V30 2417 H 238.875 0.718048 0.182997 0
M  V30 2418 H 241.522 1.90019 -0.237724 0
M  V30 2419 H 239.827 3.44857 1.85959 0
M  V30 2420 H 241.524 3.69573 1.55618 0
M  V30 2421 H 238.114 4.27891 0.246485 0
M  V30 2422 H 242.298 4.93993 -0.477983 0
M  V30 2423 H 237.554 5.93074 -1.48571 0
M  V30 2424 H 241.728 6.60507 -2.20689 0
M  V30 2425 H 239.355 7.09996 -2.71679 0
M  V30 2426 N 240.93 -0.123565 1.57115 0
M  V30 2427 C 242.16 -0.845233 1.88519 0
M  V30 2428 C 242.568 -1.74168 0.739064 0
M  V30 2429 O 241.911 -1.81244 -0.299355 0
M  V30 2430 C 241.973 -1.73452 3.14888 0
M  V30 2431 C 241.637 -1.01285 4.45635 0
M  V30 2432 C 242.634 -0.355774 5.18681 0
M  V30 2433 C 240.319 -0.99538 4.92339 0
M  V30 2434 C 242.313 0.309114 6.3665 0
M  V30 2435 C 240 -0.32669 6.10226 0
M  V30 2436 C 240.998 0.324406 6.82229 0
M  V30 2437 O 240.686 0.982437 7.97874 0
M  V30 2438 H 240.418 -0.248534 0.628655 0
M  V30 2439 H 242.972 -0.113907 2.05084 0
M  V30 2440 H 241.202 -2.50737 2.94394 0
M  V30 2441 H 242.891 -2.33021 3.32349 0
M  V30 2442 H 243.657 -0.360918 4.83655 0
M  V30 2443 H 239.536 -1.49159 4.36202 0
M  V30 2444 H 243.08 0.8179 6.92789 0
M  V30 2445 H 238.977 -0.319294 6.4471 0
M  V30 2446 H 239.745 0.886454 8.13686 0
M  V30 2447 N 242.408 -1.52605 -0.393616 0
M  V30 2448 C 243.685 -1.58001 -1.15304 0
M  V30 2449 C 244.065 -0.370385 -2.07825 0
M  V30 2450 O 243.413 0.641638 -2.19306 0
M  V30 2451 C 243.623 -2.91652 -1.91677 0
M  V30 2452 C 244.971 -3.4522 -2.47201 0
M  V30 2453 O 245.995 -2.93495 -2.01839 0
M  V30 2454 O 244.854 -4.35579 -3.3005 0
M  V30 2455 H 241.948 -0.637068 -0.527327 0
M  V30 2456 H 244.494 -1.64939 -0.399141 0
M  V30 2457 H 243.266 -3.71136 -1.23992 0
M  V30 2458 H 242.889 -2.88077 -2.74039 0
M  V30 2459 N 243.887 0.651787 -1.4349 0
M  V30 2460 C 245.133 1.41376 -1.45398 0
M  V30 2461 C 245.466 1.94041 -0.0784823 0
M  V30 2462 O 244.741 1.72379 0.900878 0
M  V30 2463 C 245.024 2.59414 -2.49752 0
M  V30 2464 C 244.877 2.12232 -3.96582 0
M  V30 2465 C 246.196 3.61626 -2.50827 0
M  V30 2466 H 243.315 0.512719 -0.529422 0
M  V30 2467 H 245.957 0.738796 -1.75048 0
M  V30 2468 H 244.107 3.16997 -2.246 0
M  V30 2469 H 245.779 1.59639 -4.32797 0
M  V30 2470 H 244.022 1.43592 -4.09346 0
M  V30 2471 H 244.693 2.9712 -4.65214 0
M  V30 2472 H 247.169 3.13805 -2.7325 0
M  V30 2473 H 246.045 4.41766 -3.25783 0
M  V30 2474 H 246.306 4.14314 -1.5426 0
M  V30 2475 N 245.365 1.30045 0.890287 0
M  V30 2476 C 246.297 1.11786 2.00091 0
M  V30 2477 C 247.31 0.0626307 1.62679 0
M  V30 2478 O 248.499 0.308112 1.75821 0
M  V30 2479 C 245.599 0.681527 3.31977 0
M  V30 2480 C 244.772 1.81735 3.97858 0
M  V30 2481 C 243.831 1.37045 5.08041 0
M  V30 2482 O 242.857 2.07677 5.29961 0
M  V30 2483 N 244.059 0.246525 5.79976 0
M  V30 2484 H 246.824 2.07441 2.16306 0
M  V30 2485 H 244.385 1.2211 1.06305 0
M  V30 2486 H 246.377 0.365675 4.03045 0
M  V30 2487 H 244.947 -0.182828 3.12065 0
M  V30 2488 H 244.167 2.30159 3.20032 0
M  V30 2489 H 245.455 2.57865 4.38615 0
M  V30 2490 H 244.853 -0.34215 5.64664 0
M  V30 2491 H 243.41 -0.00990438 6.51799 0
M  V30 2492 N 246.843 -1.10192 1.12674 0
M  V30 2493 C 248.073 -1.85713 0.905213 0
M  V30 2494 C 248.481 -1.81056 -0.549108 0
M  V30 2495 O 247.824 -1.19927 -1.39151 0
M  V30 2496 C 247.886 -3.34972 1.30516 0
M  V30 2497 C 247.55 -3.63385 2.77129 0
M  V30 2498 C 248.547 -3.59772 3.75313 0
M  V30 2499 C 246.232 -3.91981 3.14096 0
M  V30 2500 C 248.226 -3.84354 5.08479 0
M  V30 2501 C 245.913 -4.16218 4.47443 0
M  V30 2502 C 246.911 -4.12395 5.44444 0
M  V30 2503 O 246.599 -4.36014 6.75387 0
M  V30 2504 H 246.331 -0.593719 0.323223 0
M  V30 2505 H 248.885 -1.40198 1.50112 0
M  V30 2506 H 247.115 -3.81156 0.652463 0
M  V30 2507 H 248.804 -3.91886 1.05736 0
M  V30 2508 H 249.57 -3.37716 3.48099 0
M  V30 2509 H 245.449 -3.94085 2.39202 0
M  V30 2510 H 248.993 -3.81285 5.84181 0
M  V30 2511 H 244.89 -4.37754 4.74386 0
M  V30 2512 H 245.658 -4.53516 6.8137 0
M  V30 2513 N 248.321 -0.919034 -1.28029 0
M  V30 2514 C 249.598 -0.473668 -1.89778 0
M  V30 2515 C 249.978 1.04783 -1.83259 0
M  V30 2516 O 249.326 1.8982 -1.27202 0
M  V30 2517 C 249.536 -1.00998 -3.34066 0
M  V30 2518 C 250.884 -1.06525 -4.1102 0
M  V30 2519 O 251.908 -0.958996 -3.43048 0
M  V30 2520 O 250.767 -1.22776 -5.3253 0
M  V30 2521 H 247.861 -0.15098 -0.813101 0
M  V30 2522 H 250.407 -1.01016 -1.36359 0
M  V30 2523 H 249.179 -2.05392 -3.33061 0
M  V30 2524 H 248.802 -0.454626 -3.94992 0
M  V30 2525 N 249.799 1.42003 -0.683588 0
M  V30 2526 C 251.076 1.95112 -0.138075 0
M  V30 2527 C 251.456 1.62359 1.34918 0
M  V30 2528 O 250.804 0.924311 2.08971 0
M  V30 2529 C 251.014 3.46505 -0.416581 0
M  V30 2530 C 252.362 4.23254 -0.337834 0
M  V30 2531 O 253.386 3.54468 -0.35082 0
M  V30 2532 O 252.245 5.45743 -0.287596 0
M  V30 2533 H 249.339 0.826961 -0.00797996 0
M  V30 2534 H 251.885 1.51784 -0.758924 0
M  V30 2535 H 250.657 3.63582 -1.4465 0
M  V30 2536 H 250.28 3.969 0.235839 0
M  V30 2537 N 251.277 0.427512 1.51691 0
M  V30 2538 C 252.554 -0.201684 1.94557 0
M  V30 2539 C 252.934 -1.60981 1.36559 0
M  V30 2540 O 252.282 -2.21814 0.548702 0
M  V30 2541 C 252.492 -0.189394 3.48486 0
M  V30 2542 C 253.84 -0.39978 4.22714 0
M  V30 2543 O 254.864 -0.267945 3.55191 0
M  V30 2544 O 253.723 -0.661249 5.42485 0
M  V30 2545 H 250.817 -0.135261 0.815864 0
M  V30 2546 H 253.363 0.484782 1.62628 0
M  V30 2547 H 252.135 0.795431 3.8313 0
M  V30 2548 H 251.758 -0.919187 3.86829 0
M  V30 2549 N 252.755 -1.56801 0.158532 0
M  V30 2550 C 254.171 -1.5837 -0.197774 0
M  V30 2551 C 254.371 -1.17334 -1.63814 0
M  V30 2552 O 253.427 -0.878988 -2.36707 0
M  V30 2553 C 254.74 -3.00615 0.0714459 0
M  V30 2554 C 256.288 -3.12999 0.00864533 0
M  V30 2555 C 256.763 -4.57313 0.250685 0
M  V30 2556 N 258.254 -4.62777 0.198014 0
M  V30 2557 C 258.989 -5.72271 0.359642 0
M  V30 2558 N 258.485 -6.90371 0.579625 0
M  V30 2559 N 260.278 -5.61318 0.296438 0
M  V30 2560 H 252.429 -1.81765 1.09887 0
M  V30 2561 H 254.692 -0.841849 0.435884 0
M  V30 2562 H 254.398 -3.35068 1.06874 0
M  V30 2563 H 254.272 -3.71683 -0.642757 0
M  V30 2564 H 256.659 -2.7838 -0.979217 0
M  V30 2565 H 256.74 -2.44393 0.755359 0
M  V30 2566 H 256.384 -4.92639 1.2357 0
M  V30 2567 H 256.314 -5.24061 -0.516489 0
M  V30 2568 H 258.805 -3.77885 0.0331115 0
M  V30 2569 H 259.118 -7.69689 0.69275 0
M  V30 2570 H 257.463 -6.92264 0.616087 0
M  V30 2571 H 260.654 -4.67932 0.125258 0
M  V30 2572 H 260.827 -6.46599 0.425831 0
M  V30 2573 N 254.233 0.115231 -1.57178 0
M  V30 2574 C 255.461 0.836437 -1.89239 0
M  V30 2575 C 255.876 1.73256 -0.750175 0
M  V30 2576 O 255.233 1.80357 0.278832 0
M  V30 2577 C 255.284 1.66671 -3.20785 0
M  V30 2578 O 255.005 0.806652 -4.3061 0
M  V30 2579 C 256.506 2.49274 -3.66575 0
M  V30 2580 H 253.726 0.240253 -0.626514 0
M  V30 2581 H 256.27 0.0984932 -2.04263 0
M  V30 2582 H 254.425 2.35737 -3.0742 0
M  V30 2583 H 254.839 1.37969 -5.06028 0
M  V30 2584 H 256.313 3.03055 -4.6137 0
M  V30 2585 H 256.79 3.26807 -2.93417 0
M  V30 2586 H 257.396 1.85443 -3.82741 0
M  V30 2587 N 255.711 1.52812 0.385517 0
M  V30 2588 C 256.674 1.77188 1.45386 0
M  V30 2589 C 257.674 0.641953 1.4743 0
M  V30 2590 O 258.864 0.910033 1.4854 0
M  V30 2591 C 255.996 1.87582 2.8465 0
M  V30 2592 H 257.189 2.72583 1.25054 0
M  V30 2593 H 254.742 1.43586 0.617467 0
M  V30 2594 H 255.477 0.941849 3.10322 0
M  V30 2595 H 255.262 2.69748 2.84567 0
M  V30 2596 H 256.752 2.08102 3.62054 0
M  V30 2597 N 257.189 -0.644168 1.43834 0
M  V30 2598 C 258.152 -1.73857 1.49353 0
M  V30 2599 C 259.152 -1.56315 0.377112 0
M  V30 2600 O 260.342 -1.62048 0.639226 0
M  V30 2601 C 257.474 -3.12819 1.35488 0
M  V30 2602 H 258.667 -1.70342 2.46827 0
M  V30 2603 H 256.22 -0.856652 1.30733 0
M  V30 2604 H 256.955 -3.2194 0.390569 0
M  V30 2605 H 256.74 -3.26958 2.16428 0
M  V30 2606 H 258.23 -3.92606 1.42302 0
M  V30 2607 N 258.668 -1.30515 -0.883378 0
M  V30 2608 C 260.084 -1.08881 -1.16692 0
M  V30 2609 C 260.284 0.149409 -2.00945 0
M  V30 2610 O 259.34 0.84257 -2.38027 0
M  V30 2611 C 260.653 -2.35319 -1.87204 0
M  V30 2612 C 262.201 -2.40799 -1.99962 0
M  V30 2613 C 262.676 -3.67083 -2.73887 0
M  V30 2614 N 264.167 -3.679 -2.81432 0
M  V30 2615 C 264.902 -4.62303 -3.3921 0
M  V30 2616 N 264.398 -5.67052 -3.98025 0
M  V30 2617 N 266.191 -4.49845 -3.3704 0
M  V30 2618 H 258.342 -2.09951 -0.321633 0
M  V30 2619 H 260.605 -0.92556 -0.205043 0
M  V30 2620 H 260.311 -3.25689 -1.3274 0
M  V30 2621 H 260.185 -2.44089 -2.87577 0
M  V30 2622 H 262.572 -1.50907 -2.53597 0
M  V30 2623 H 262.653 -2.36003 -0.98673 0
M  V30 2624 H 262.297 -4.57334 -2.20925 0
M  V30 2625 H 262.227 -3.69141 -3.75556 0
M  V30 2626 H 264.718 -2.92171 -2.39676 0
M  V30 2627 H 265.031 -6.35184 -4.40183 0
M  V30 2628 H 263.376 -5.70842 -3.96439 0
M  V30 2629 H 266.567 -3.67194 -2.90321 0
M  V30 2630 H 266.74 -5.23597 -3.81772 0
M  V30 2631 N 260.146 1.09593 -1.13257 0
M  V30 2632 C 261.109 2.14359 -0.811358 0
M  V30 2633 C 262.109 1.59808 0.178377 0
M  V30 2634 O 263.299 1.74132 -0.0484911 0
M  V30 2635 C 260.431 3.40269 -0.207276 0
M  V30 2636 H 261.624 2.44284 -1.73969 0
M  V30 2637 H 259.177 1.25102 -0.936973 0
M  V30 2638 H 259.912 3.15969 0.73036 0
M  V30 2639 H 259.697 3.81154 -0.919992 0
M  V30 2640 H 261.187 4.176 0.000667944 0
M  V30 2641 N 261.624 0.925811 1.2754 0
M  V30 2642 C 262.574 0.394488 2.24561 0
M  V30 2643 C 263.558 -0.500183 1.52928 0
M  V30 2644 O 264.75 -0.337936 1.73744 0
M  V30 2645 C 261.879 -0.353328 3.41477 0
M  V30 2646 C 260.965 0.557752 4.20416 0
M  V30 2647 N 261.356 1.67674 4.77199 0
M  V30 2648 C 259.654 0.360404 4.44541 0
M  V30 2649 C 260.355 2.24324 5.36706 0
M  V30 2650 N 259.331 1.53305 5.21535 0
M  V30 2651 H 263.133 1.2489 2.66045 0
M  V30 2652 H 260.647 0.779864 1.4245 0
M  V30 2653 H 262.644 -0.7509 4.10082 0
M  V30 2654 H 261.304 -1.20469 3.01525 0
M  V30 2655 H 262.315 2.05915 4.75204 0
M  V30 2656 H 258.992 -0.450454 4.15063 0
M  V30 2657 H 260.382 3.18521 5.91603 0
M  V30 2658 N 263.102 -1.41638 0.69111 0
M  V30 2659 C 264.032 -2.3347 0.037248 0
M  V30 2660 C 265.013 -1.51575 -0.771947 0
M  V30 2661 O 266.198 -1.80126 -0.72582 0
M  V30 2662 C 263.328 -3.35354 -0.903064 0
M  V30 2663 C 262.282 -4.27526 -0.201288 0
M  V30 2664 C 261.608 -5.19747 -1.25565 0
M  V30 2665 C 262.908 -5.13959 0.929689 0
M  V30 2666 H 264.602 -2.88397 0.804227 0
M  V30 2667 H 262.148 -1.38669 0.388189 0
M  V30 2668 H 264.101 -3.98519 -1.36969 0
M  V30 2669 H 262.825 -2.78767 -1.70166 0
M  V30 2670 H 261.484 -3.65779 0.245265 0
M  V30 2671 H 261.132 -4.59479 -2.04666 0
M  V30 2672 H 260.832 -5.8225 -0.791128 0
M  V30 2673 H 262.356 -5.85789 -1.72288 0
M  V30 2674 H 263.77 -5.70718 0.543546 0
M  V30 2675 H 262.167 -5.85379 1.32103 0
M  V30 2676 H 263.237 -4.51389 1.77133 0
M  V30 2677 N 264.58 -0.43555 -1.51462 0
M  V30 2678 C 265.51 0.367376 -2.30592 0
M  V30 2679 C 266.491 1.02263 -1.35928 0
M  V30 2680 O 267.676 1.02661 -1.64847 0
M  V30 2681 C 264.806 1.46983 -3.14664 0
M  V30 2682 C 263.76 0.938161 -4.17591 0
M  V30 2683 C 263.086 2.13622 -4.90173 0
M  V30 2684 C 264.386 -0.0261621 -5.22293 0
M  V30 2685 H 266.08 -0.292969 -2.97963 0
M  V30 2686 H 263.626 -0.14234 -1.43295 0
M  V30 2687 H 265.579 2.03873 -3.688 0
M  V30 2688 H 264.303 2.15843 -2.4511 0
M  V30 2689 H 262.962 0.391481 -3.64504 0
M  V30 2690 H 262.61 2.81098 -4.17124 0
M  V30 2691 H 262.31 1.78688 -5.59772 0
M  V30 2692 H 263.834 2.7107 -5.47132 0
M  V30 2693 H 265.248 0.452384 -5.71512 0
M  V30 2694 H 263.645 -0.287992 -5.99409 0
M  V30 2695 H 264.715 -0.963391 -4.75233 0
M  V30 2696 N 266.058 1.56714 -0.166846 0
M  V30 2697 C 267.283 2.01557 0.488833 0
M  V30 2698 C 267.708 1.0463 1.56314 0
M  V30 2699 O 267.066 0.0251304 1.81283 0
M  V30 2700 C 267.114 3.4503 1.04818 0
M  V30 2701 O 266.218 3.51163 2.16236 0
M  V30 2702 H 265.559 0.653516 0.117526 0
M  V30 2703 H 268.089 2.02818 -0.269421 0
M  V30 2704 H 268.099 3.84243 1.37191 0
M  V30 2705 H 266.774 4.15077 0.261572 0
M  V30 2706 H 265.351 3.23807 1.84942 0
M  V30 2707 N 267.536 -0.106894 1.57237 0
M  V30 2708 C 268.784 -0.810921 1.85117 0
M  V30 2709 C 269.105 -1.7984 0.753827 0
M  V30 2710 O 268.375 -1.94649 -0.221056 0
M  V30 2711 H 266.955 -0.302466 0.683025 0
M  V30 2712 H 269.617 -0.0913324 1.94686 0
M  V30 2713 H 268.713 -1.34875 2.81452 0
M  V30 2714 N 269.014 -1.53014 -0.377408 0
M  V30 2715 C 270.425 -1.60438 -0.954798 0
M  V30 2716 C 270.776 -0.464418 -1.90624 0
M  V30 2717 O 269.901 0.41087 -2.12464 0
M  V30 2718 C 270.496 -2.90797 -1.73847 0
M  V30 2719 C 269.055 -3.00595 -2.26538 0
M  V30 2720 C 268.202 -2.55645 -1.07429 0
M  V30 2721 H 271.153 -1.57926 -0.156575 0
M  V30 2722 H 271.174 -2.77935 -2.5987 0
M  V30 2723 H 270.686 -3.73746 -1.04574 0
M  V30 2724 H 268.787 -2.22208 -2.99089 0
M  V30 2725 H 268.9 -4.05456 -2.5523 0
M  V30 2726 H 267.264 -2.10239 -1.43777 0
M  V30 2727 H 268.047 -3.41 -0.396728 0
M  V30 2728 N 270.492 0.636531 -1.44174 0
M  V30 2729 C 271.769 1.39463 -1.37148 0
M  V30 2730 C 272.149 2.11082 -0.027507 0
M  V30 2731 O 271.497 2.05954 0.989716 0
M  V30 2732 C 271.707 2.36552 -2.56601 0
M  V30 2733 C 273.055 3.00048 -3.00427 0
M  V30 2734 O 274.079 2.46878 -2.56767 0
M  V30 2735 O 272.938 3.96488 -3.76111 0
M  V30 2736 H 270.032 0.623903 -0.542839 0
M  V30 2737 H 272.578 0.662039 -1.56253 0
M  V30 2738 H 271.35 1.82692 -3.46034 0
M  V30 2739 H 270.973 3.17236 -2.39681 0
M  V30 2740 N 271.97 1.30982 0.876444 0
M  V30 2741 C 273.218 1.20058 1.62575 0
M  V30 2742 C 273.539 -0.242947 1.93481 0
M  V30 2743 O 272.809 -1.1619 1.57724 0
M  V30 2744 H 271.389 0.44135 0.602677 0
M  V30 2745 H 274.051 1.64222 1.04962 0
M  V30 2746 H 273.147 1.76762 2.57219 0
M  V30 2747 N 273.449 -1.08991 1.13837 0
M  V30 2748 C 274.697 -1.80899 0.901098 0
M  V30 2749 C 275.018 -1.86356 -0.574134 0
M  V30 2750 O 274.288 -1.35235 -1.41733 0
M  V30 2751 H 272.868 -0.669966 0.330386 0
M  V30 2752 H 275.53 -1.318 1.43578 0
M  V30 2753 H 274.626 -2.83929 1.29578 0
M  V30 2754 N 274.927 -0.932562 -1.27047 0
M  V30 2755 C 276.157 -0.591173 -1.97961 0
M  V30 2756 C 276.565 0.836219 -1.69717 0
M  V30 2757 O 275.908 1.56801 -0.957036 0
M  V30 2758 C 275.97 -0.743082 -3.51736 0
M  V30 2759 C 275.634 -2.1435 -4.03613 0
M  V30 2760 C 276.631 -3.11815 -4.16014 0
M  V30 2761 C 274.316 -2.46175 -4.37839 0
M  V30 2762 C 276.31 -4.39211 -4.61923 0
M  V30 2763 C 273.997 -3.73806 -4.83438 0
M  V30 2764 C 274.995 -4.70137 -4.95439 0
M  V30 2765 O 274.683 -5.95496 -5.40037 0
M  V30 2766 H 274.415 -0.222375 -0.638377 0
M  V30 2767 H 276.969 -1.25317 -1.62742 0
M  V30 2768 H 275.199 -0.0239739 -3.86693 0
M  V30 2769 H 276.888 -0.40603 -4.03864 0
M  V30 2770 H 277.654 -2.88549 -3.89826 0
M  V30 2771 H 273.533 -1.71936 -4.27737 0
M  V30 2772 H 277.077 -5.14404 -4.71205 0
M  V30 2773 H 272.974 -3.96888 -5.09068 0
M  V30 2774 H 273.742 -5.98554 -5.58279 0
M  V30 2775 N 276.405 1.4127 -0.698611 0
M  V30 2776 C 277.368 2.29158 -0.044132 0
M  V30 2777 C 278.368 1.44529 0.704841 0
M  V30 2778 O 279.558 1.65643 0.539276 0
M  V30 2779 C 276.69 3.27459 0.947809 0
M  V30 2780 H 277.883 2.88529 -0.817994 0
M  V30 2781 H 275.436 1.49307 -0.46228 0
M  V30 2782 H 276.171 2.73073 1.74933 0
M  V30 2783 H 275.956 3.8991 0.41385 0
M  V30 2784 H 277.446 3.93311 1.40344 0
M  V30 2785 N 277.883 0.443576 1.51229 0
M  V30 2786 C 279.13 -0.120796 2.02139 0
M  V30 2787 C 279.458 -1.42166 1.32736 0
M  V30 2788 O 278.713 -1.90849 0.43301 0
M  V30 2789 C 279.012 -0.380579 3.55368 0
M  V30 2790 C 278.678 0.83523 4.43097 0
M  V30 2791 C 277.34 1.16864 4.66794 0
M  V30 2792 C 279.692 1.64601 4.94526 0
M  V30 2793 C 277.02 2.31339 5.39165 0
M  V30 2794 C 279.372 2.78181 5.68153 0
M  V30 2795 C 278.036 3.11969 5.90112 0
M  V30 2796 H 277.306 -0.0442023 0.73968 0
M  V30 2797 H 279.953 0.592046 1.82118 0
M  V30 2798 H 278.258 -1.17538 3.73754 0
M  V30 2799 H 279.955 -0.830777 3.923 0
M  V30 2800 H 276.545 0.565437 4.24854 0
M  V30 2801 H 280.729 1.40163 4.76097 0
M  V30 2802 H 275.985 2.57823 5.5438 0
M  V30 2803 H 280.159 3.41371 6.06992 0
M  V30 2804 H 277.786 4.00784 6.45969 0
M  V30 2805 N 279.361 -1.56624 0.175154 0
M  V30 2806 C 280.607 -1.98061 -0.462976 0
M  V30 2807 C 280.962 -1.05949 -1.60601 0
M  V30 2808 O 280.255 -0.0999027 -1.91339 0
M  V30 2809 C 280.449 -3.43419 -0.989864 0
M  V30 2810 C 280.278 -4.49587 0.100583 0
M  V30 2811 C 279.048 -5.02281 0.551539 0
M  V30 2812 C 281.246 -5.06322 0.902369 0
M  V30 2813 N 279.228 -5.92088 1.62189 0
M  V30 2814 C 280.599 -5.92607 1.82256 0
M  V30 2815 C 282.654 -4.88811 0.947019 0
M  V30 2816 C 281.357 -6.63254 2.78364 0
M  V30 2817 C 283.383 -5.60182 1.89606 0
M  V30 2818 C 282.745 -6.46197 2.80372 0
M  V30 2819 H 278.844 -0.769833 -0.137409 0
M  V30 2820 H 281.428 -1.9273 0.276256 0
M  V30 2821 H 279.599 -3.49288 -1.6986 0
M  V30 2822 H 281.331 -3.7186 -1.59694 0
M  V30 2823 H 278.086 -4.73367 0.148537 0
M  V30 2824 H 278.51 -6.41696 2.15767 0
M  V30 2825 H 283.152 -4.22004 0.259304 0
M  V30 2826 H 280.87 -7.29271 3.48122 0
M  V30 2827 H 284.456 -5.48617 1.93676 0
M  V30 2828 H 283.336 -7.00453 3.52612 0
M  V30 2829 N 280.839 0.0985539 -1.57292 0
M  V30 2830 C 281.802 1.10402 -2.00858 0
M  V30 2831 C 282.802 1.33146 -0.901593 0
M  V30 2832 O 283.992 1.29318 -1.16716 0
M  V30 2833 C 281.124 2.45394 -2.36632 0
M  V30 2834 H 282.317 0.729099 -2.90902 0
M  V30 2835 H 279.87 0.343495 -1.52479 0
M  V30 2836 H 280.605 2.87769 -1.49531 0
M  V30 2837 H 280.39 2.30235 -3.17387 0
M  V30 2838 H 281.88 3.17718 -2.71007 0
M  V30 2839 N 282.317 1.53212 0.369288 0
M  V30 2840 C 283.566 1.68436 1.10961 0
M  V30 2841 C 283.879 0.440738 1.9057 0
M  V30 2842 O 285.085 0.473446 2.6734 0
M  V30 2843 C 283.541 2.97744 2.0218 0
M  V30 2844 C 283.149 4.29355 1.279 0
M  V30 2845 C 284.893 3.22334 2.76226 0
M  V30 2846 C 282.8 5.49755 2.17999 0
M  V30 2847 H 281.73 0.627568 0.41794 0
M  V30 2848 H 284.381 1.79713 0.370884 0
M  V30 2849 H 282.763 2.8026 2.79768 0
M  V30 2850 H 283.937 4.57458 0.554007 0
M  V30 2851 H 282.252 4.11179 0.657311 0
M  V30 2852 H 284.849 4.09471 3.43857 0
M  V30 2853 H 285.192 2.38238 3.41392 0
M  V30 2854 H 285.725 3.40475 2.05723 0
M  V30 2855 H 282.464 6.36318 1.57417 0
M  V30 2856 H 281.984 5.25937 2.88359 0
M  V30 2857 H 283.663 5.84401 2.77641 0
M  V30 2858 N 283.795 -0.628877 1.44509 0
M  V30 2859 C 285.023 -1.41554 1.50897 0
M  V30 2860 C 285.438 -1.8832 0.134564 0
M  V30 2861 O 284.795 -1.60969 -0.859965 0
M  V30 2862 C 284.846 -2.63435 2.47556 0
M  V30 2863 O 284.567 -2.18619 3.79654 0
M  V30 2864 C 286.068 -3.56537 2.63431 0
M  V30 2865 H 283.288 -0.434044 0.511709 0
M  V30 2866 H 285.832 -0.768895 1.89495 0
M  V30 2867 H 283.987 -3.24187 2.12089 0
M  V30 2868 H 284.401 -2.97652 4.31861 0
M  V30 2869 H 285.875 -4.38657 3.35088 0
M  V30 2870 H 286.352 -4.05493 1.68738 0
M  V30 2871 H 286.958 -3.01653 2.9981 0
M  V30 2872 N 285.273 -1.31445 -0.869486 0
M  V30 2873 C 286.684 -1.19042 -1.43826 0
M  V30 2874 C 287.035 0.202919 -1.95148 0
M  V30 2875 O 286.16 1.10071 -1.86315 0
M  V30 2876 C 286.755 -2.15499 -2.6143 0
M  V30 2877 C 285.314 -2.07028 -3.14351 0
M  V30 2878 C 284.461 -2.04701 -1.87063 0
M  V30 2879 H 287.412 -1.43489 -0.677984 0
M  V30 2880 H 287.433 -1.74488 -3.38134 0
M  V30 2881 H 286.945 -3.16899 -2.24046 0
M  V30 2882 H 285.046 -1.08825 -3.56354 0
M  V30 2883 H 285.159 -2.96157 -3.766 0
M  V30 2884 H 283.523 -1.49724 -2.06046 0
M  V30 2885 H 284.306 -3.07857 -1.51917 0
M  V30 2886 N 286.751 1.08385 -1.14413 0
M  V30 2887 C 287.979 1.84517 -0.936001 0
M  V30 2888 C 288.394 1.81626 0.515503 0
M  V30 2889 O 287.751 1.22008 1.35721 0
M  V30 2890 C 287.802 3.32049 -1.42918 0
M  V30 2891 O 287.523 3.34951 -2.82381 0
M  V30 2892 C 289.024 4.24986 -1.26103 0
M  V30 2893 H 286.244 0.582491 -0.333084 0
M  V30 2894 H 288.788 1.36885 -1.5193 0
M  V30 2895 H 286.943 3.7707 -0.888641 0
M  V30 2896 H 287.357 4.27048 -3.04517 0
M  V30 2897 H 288.831 5.26615 -1.6547 0
M  V30 2898 H 289.308 4.38726 -0.20392 0
M  V30 2899 H 289.914 3.85791 -1.79012 0
M  V30 2900 N 288.23 0.939286 1.26551 0
M  V30 2901 C 289.641 0.628782 1.75793 0
M  V30 2902 C 289.992 -0.856046 1.7654 0
M  V30 2903 O 289.117 -1.66994 1.3763 0
M  V30 2904 C 289.712 1.13465 3.19235 0
M  V30 2905 C 288.271 0.874601 3.66098 0
M  V30 2906 C 287.418 1.28667 2.45642 0
M  V30 2907 H 290.369 1.1178 1.12654 0
M  V30 2908 H 290.39 0.487609 3.77363 0
M  V30 2909 H 289.902 2.21535 3.1866 0
M  V30 2910 H 288.003 -0.191793 3.72106 0
M  V30 2911 H 288.116 1.50028 4.55004 0
M  V30 2912 H 286.48 0.705109 2.44745 0
M  V30 2913 H 287.263 2.37625 2.47769 0
M  V30 2914 N 289.708 -1.40897 0.706093 0
M  V30 2915 C 290.938 -2.05075 0.250523 0
M  V30 2916 C 291.346 -1.53275 -1.10921 0
M  V30 2917 O 290.689 -0.680281 -1.7064 0
M  V30 2918 C 290.751 -3.59219 0.142178 0
M  V30 2919 C 290.415 -4.33864 1.43566 0
M  V30 2920 C 291.412 -4.62448 2.37566 0
M  V30 2921 C 289.097 -4.72946 1.69195 0
M  V30 2922 C 291.091 -5.29088 3.5545 0
M  V30 2923 C 288.778 -5.3932 2.87362 0
M  V30 2924 C 289.776 -5.6732 3.80312 0
M  V30 2925 O 289.464 -6.32325 4.96408 0
M  V30 2926 H 289.196 -0.666645 0.112074 0
M  V30 2927 H 291.75 -1.81467 0.962239 0
M  V30 2928 H 289.98 -3.81609 -0.6254 0
M  V30 2929 H 291.669 -4.0495 -0.277584 0
M  V30 2930 H 292.435 -4.32727 2.19027 0
M  V30 2931 H 288.314 -4.50527 0.977042 0
M  V30 2932 H 291.858 -5.50859 4.28018 0
M  V30 2933 H 287.755 -5.68461 3.05814 0
M  V30 2934 H 288.523 -6.50821 4.9636 0
M  V30 2935 N 291.186 -0.45159 -1.50991 0
M  V30 2936 C 292.597 0.00818571 -1.86698 0
M  V30 2937 C 292.948 1.40661 -1.3678 0
M  V30 2938 O 292.073 2.0391 -0.724546 0
M  V30 2939 C 292.668 0.0216303 -3.38793 0
M  V30 2940 C 291.227 0.425865 -3.73983 0
M  V30 2941 C 290.374 -0.372163 -2.74791 0
M  V30 2942 H 293.325 -0.666785 -1.44013 0
M  V30 2943 H 293.346 0.828078 -3.7138 0
M  V30 2944 H 292.858 -0.996288 -3.75094 0
M  V30 2945 H 290.959 1.44886 -3.43277 0
M  V30 2946 H 291.072 0.140761 -4.78893 0
M  V30 2947 H 289.436 0.171498 -2.54122 0
M  V30 2948 H 290.219 -1.38922 -3.13935 0
M  V30 2949 N 292.664 1.56529 -0.183458 0
M  V30 2950 C 293.913 1.96419 0.458511 0
M  V30 2951 C 294.226 1.0727 1.63562 0
M  V30 2952 O 295.432 1.36893 2.34462 0
M  V30 2953 C 293.888 3.49298 0.867122 0
M  V30 2954 C 293.496 4.47092 -0.285057 0
M  V30 2955 C 295.24 3.97983 1.47683 0
M  V30 2956 C 293.147 5.91225 0.143862 0
M  V30 2957 H 292.077 0.733394 0.175071 0
M  V30 2958 H 294.728 1.81448 -0.273624 0
M  V30 2959 H 293.11 3.59731 1.65559 0
M  V30 2960 H 294.284 4.48383 -1.0625 0
M  V30 2961 H 292.599 4.08535 -0.805503 0
M  V30 2962 H 295.196 5.03134 1.80999 0
M  V30 2963 H 295.539 3.41618 2.37914 0
M  V30 2964 H 296.072 3.90617 0.752562 0
M  V30 2965 H 292.811 6.5149 -0.723974 0
M  V30 2966 H 292.331 5.93214 0.886413 0
M  V30 2967 H 294.01 6.44362 0.583628 0
M  V30 2968 N 294.142 -0.090211 1.57342 0
M  V30 2969 C 295.553 -0.644173 1.75235 0
M  V30 2970 C 295.904 -1.78865 0.806335 0
M  V30 2971 O 295.029 -2.16395 -0.0140128 0
M  V30 2972 C 295.624 -1.17532 3.1776 0
M  V30 2973 C 294.183 -1.67531 3.37061 0
M  V30 2974 C 293.33 -0.58693 2.71017 0
M  V30 2975 H 296.281 0.135884 1.58117 0
M  V30 2976 H 296.302 -2.04455 3.20902 0
M  V30 2977 H 295.814 -0.342138 3.86589 0
M  V30 2978 H 293.915 -2.53234 2.73319 0
M  V30 2979 H 294.028 -1.76493 4.45406 0
M  V30 2980 H 292.392 -1.02756 2.33052 0
M  V30 2981 H 293.175 0.235758 3.4249 0
M  V30 2982 N 295.62 -1.53406 -0.361157 0
M  V30 2983 C 296.57 -1.76536 -1.44287 0
M  V30 2984 C 297.554 -0.620019 -1.48474 0
M  V30 2985 O 298.746 -0.878834 -1.53641 0
M  V30 2986 C 295.875 -1.96266 -2.81664 0
M  V30 2987 C 294.961 -3.16815 -2.81938 0
M  V30 2988 N 295.352 -4.38637 -2.51855 0
M  V30 2989 C 293.65 -3.17627 -3.13096 0
M  V30 2990 C 294.351 -5.20401 -2.59919 0
M  V30 2991 N 293.327 -4.56712 -2.94814 0
M  V30 2992 H 297.129 -2.68331 -1.19899 0
M  V30 2993 H 294.643 -1.52091 -0.56938 0
M  V30 2994 H 296.64 -2.10966 -3.59582 0
M  V30 2995 H 295.3 -1.05702 -3.07013 0
M  V30 2996 H 296.311 -4.66293 -2.25369 0
M  V30 2997 H 292.988 -2.36971 -3.43731 0
M  V30 2998 H 294.378 -6.27586 -2.39969 0
M  V30 2999 N 297.098 0.621204 -1.44841 0
M  V30 3000 C 298.375 1.38 -1.38619 0
M  V30 3001 C 298.755 2.11041 -0.0498935 0
M  V30 3002 O 298.103 2.06992 0.967816 0
M  V30 3003 C 298.313 2.33817 -2.59096 0
M  V30 3004 C 299.661 2.96844 -3.03593 0
M  V30 3005 O 300.685 2.44141 -2.59371 0
M  V30 3006 O 299.544 3.92476 -3.80296 0
M  V30 3007 H 296.638 0.61811 -0.549426 0
M  V30 3008 H 299.184 0.645429 -1.56947 0
M  V30 3009 H 297.956 1.79012 -3.47952 0
M  V30 3010 H 297.579 3.14676 -2.43032 0
M  V30 3011 N 298.576 1.31904 0.862503 0
M  V30 3012 C 299.824 1.21776 1.61292 0
M  V30 3013 C 300.145 -0.222413 1.93727 0
M  V30 3014 O 299.415 -1.1451 1.58947 0
M  V30 3015 H 297.995 0.447717 0.597962 0
M  V30 3016 H 300.657 1.65326 1.03215 0
M  V30 3017 H 299.753 1.7948 2.5533 0
M  V30 3018 N 300.054 -1.07777 1.14986 0
M  V30 3019 C 301.465 -1.61766 0.932127 0
M  V30 3020 C 301.816 -1.88974 -0.527581 0
M  V30 3021 O 300.941 -1.65198 -1.39781 0
M  V30 3022 C 301.536 -2.93891 1.68563 0
M  V30 3023 C 300.095 -3.44639 1.5133 0
M  V30 3024 C 299.242 -2.18767 1.704 0
M  V30 3025 H 302.193 -0.909201 1.30074 0
M  V30 3026 H 302.214 -3.62623 1.15259 0
M  V30 3027 H 301.726 -2.74057 2.74799 0
M  V30 3028 H 299.827 -3.69564 0.474702 0
M  V30 3029 H 299.94 -4.20966 2.28746 0
M  V30 3030 H 298.304 -2.28253 1.13016 0
M  V30 3031 H 299.087 -2.01433 2.77992 0
M  V30 3032 N 301.532 -0.945985 -1.26051 0
M  V30 3033 C 302.778 -0.597002 -1.93814 0
M  V30 3034 C 303.111 0.862484 -1.73997 0
M  V30 3035 O 302.386 1.61769 -1.07986 0
M  V30 3036 C 302.669 -0.945937 -3.47454 0
M  V30 3037 C 302.522 -2.46052 -3.76535 0
M  V30 3038 C 303.841 -0.464785 -4.37639 0
M  V30 3039 H 300.96 -0.218366 -0.703907 0
M  V30 3040 H 303.602 -1.18107 -1.48831 0
M  V30 3041 H 301.752 -0.448902 -3.85898 0
M  V30 3042 H 303.424 -3.03065 -3.47778 0
M  V30 3043 H 301.667 -2.90194 -3.22444 0
M  V30 3044 H 302.338 -2.65517 -4.83947 0
M  V30 3045 H 304.814 -0.891016 -4.06448 0
M  V30 3046 H 303.69 -0.737712 -5.4392 0
M  V30 3047 H 303.951 0.635274 -4.37512 0
M  V30 3048 N 303.011 1.40521 -0.713556 0
M  V30 3049 C 304.259 2.00527 -0.251692 0
M  V30 3050 C 304.58 1.56857 1.15848 0
M  V30 3051 O 303.85 0.807127 1.785 0
M  V30 3052 H 302.43 0.741551 -0.0900646 0
M  V30 3053 H 305.092 1.71887 -0.918733 0
M  V30 3054 H 304.188 3.10813 -0.283192 0
M  V30 3055 N 304.489 0.459591 1.5075 0
M  V30 3056 C 305.905 0.113092 1.59199 0
M  V30 3057 C 306.105 -1.37951 1.46874 0
M  V30 3058 O 305.161 -2.15168 1.32132 0
M  V30 3059 C 306.474 0.653043 2.93523 0
M  V30 3060 C 308.022 0.615449 3.0689 0
M  V30 3061 C 308.497 1.13275 4.43771 0
M  V30 3062 N 309.988 1.09167 4.50152 0
M  V30 3063 C 310.723 1.46256 5.54434 0
M  V30 3064 N 310.219 1.90739 6.66026 0
M  V30 3065 N 312.012 1.37932 5.44914 0
M  V30 3066 H 304.163 1.43049 1.57005 0
M  V30 3067 H 306.426 0.590861 0.741341 0
M  V30 3068 H 306.132 1.69822 3.07983 0
M  V30 3069 H 306.006 0.0902132 3.77092 0
M  V30 3070 H 308.393 -0.420793 2.92084 0
M  V30 3071 H 308.474 1.21495 2.25106 0
M  V30 3072 H 308.118 2.16757 4.59324 0
M  V30 3073 H 308.048 0.509576 5.24129 0
M  V30 3074 H 310.539 0.76528 3.7007 0
M  V30 3075 H 310.852 2.17218 7.41644 0
M  V30 3076 H 309.197 1.94683 6.67176 0
M  V30 3077 H 312.388 1.0303 4.56621 0
M  V30 3078 H 312.561 1.67164 6.26067 0
M  V30 3079 N 305.967 -1.56429 0.191757 0
M  V30 3080 C 306.9 -2.14829 -0.76967 0
M  V30 3081 C 307.878 -1.08405 -1.2119 0
M  V30 3082 O 309.062 -1.36498 -1.30002 0
M  V30 3083 C 306.189 -2.70446 -2.03903 0
M  V30 3084 C 305.235 -3.89428 -1.7392 0
M  V30 3085 S 306.068 -5.28048 -0.890265 0
M  V30 3086 C 307.224 -5.87085 -2.16984 0
M  V30 3087 H 307.457 -2.96042 -0.273204 0
M  V30 3088 H 304.99 -1.54383 -0.0231975 0
M  V30 3089 H 306.948 -3.03134 -2.76803 0
M  V30 3090 H 305.609 -1.89281 -2.50662 0
M  V30 3091 H 304.802 -4.26742 -2.68155 0
M  V30 3092 H 304.404 -3.57732 -1.09103 0
M  V30 3093 H 306.696 -6.01244 -3.12269 0
M  V30 3094 H 307.639 -6.83747 -1.84108 0
M  V30 3095 H 308.047 -5.15663 -2.29678 0
M  V30 3096 N 307.445 0.0818655 -1.57387 0
M  V30 3097 C 308.375 1.09885 -2.06028 0
M  V30 3098 C 309.356 1.4098 -0.951774 0
M  V30 3099 O 310.541 1.50781 -1.22387 0
M  V30 3100 C 307.671 2.4151 -2.4958 0
M  V30 3101 C 306.625 2.24792 -3.64215 0
M  V30 3102 C 305.951 3.61712 -3.93787 0
M  V30 3103 C 307.251 1.67749 -4.94629 0
M  V30 3104 H 308.945 0.694128 -2.91243 0
M  V30 3105 H 306.491 0.332448 -1.4011 0
M  V30 3106 H 308.444 3.12939 -2.82219 0
M  V30 3107 H 307.168 2.83943 -1.61381 0
M  V30 3108 H 305.827 1.55807 -3.31843 0
M  V30 3109 H 305.475 4.01697 -3.02735 0
M  V30 3110 H 305.175 3.51368 -4.70971 0
M  V30 3111 H 306.699 4.34587 -4.28913 0
M  V30 3112 H 308.113 2.29032 -5.25564 0
M  V30 3113 H 306.51 1.68128 -5.76067 0
M  V30 3114 H 307.58 0.638059 -4.80684 0
M  V30 3115 N 308.923 1.53595 0.353017 0
M  V30 3116 C 309.886 1.80232 1.41594 0
M  V30 3117 C 310.886 0.673081 1.46035 0
M  V30 3118 O 312.076 0.941335 1.46576 0
M  V30 3119 C 309.208 1.93578 2.80607 0
M  V30 3120 H 310.401 2.75174 1.19244 0
M  V30 3121 H 307.954 1.44864 0.586872 0
M  V30 3122 H 308.689 1.00746 3.08254 0
M  V30 3123 H 308.474 2.75724 2.78781 0
M  V30 3124 H 309.964 2.15735 3.57558 0
M  V30 3125 N 310.401 -0.613514 1.45168 0
M  V30 3126 C 311.364 -1.7065 1.53007 0
M  V30 3127 C 312.364 -1.5548 0.410184 0
M  V30 3128 O 313.554 -1.60656 0.673455 0
M  V30 3129 C 310.686 -3.09875 1.42093 0
M  V30 3130 H 311.879 -1.65068 2.50385 0
M  V30 3131 H 309.432 -0.828728 1.32521 0
M  V30 3132 H 310.167 -3.21039 0.458769 0
M  V30 3133 H 309.952 -3.22293 2.23315 0
M  V30 3134 H 311.442 -3.895 1.50598 0
M  V30 3135 N 311.879 -1.3236 -0.855495 0
M  V30 3136 C 313.107 -1.2587 -1.64208 0
M  V30 3137 C 313.522 0.173457 -1.88002 0
M  V30 3138 O 312.879 1.11027 -1.44842 0
M  V30 3139 C 312.93 -2.01424 -3.00184 0
M  V30 3140 O 312.651 -3.39051 -2.77445 0
M  V30 3141 C 314.152 -2.01948 -3.94629 0
M  V30 3142 H 311.372 -0.434318 -0.511477 0
M  V30 3143 H 313.916 -1.74469 -1.0668 0
M  V30 3144 H 312.071 -1.56549 -3.5436 0
M  V30 3145 H 312.485 -3.77711 -3.63916 0
M  V30 3146 H 313.959 -2.59297 -4.87308 0
M  V30 3147 H 314.436 -1.00554 -4.27534 0
M  V30 3148 H 315.042 -2.46767 -3.4639 0
M  V30 3149 N 313.357 1.07166 -1.15556 0
M  V30 3150 C 314.605 1.79443 -0.929764 0
M  V30 3151 C 314.926 1.87246 0.544414 0
M  V30 3152 O 314.196 1.37473 1.39564 0
M  V30 3153 H 312.776 0.664625 -0.341003 0
M  V30 3154 H 315.438 1.29499 -1.45657 0
M  V30 3155 H 314.534 2.81832 -1.34079 0
M  V30 3156 N 314.835 0.952656 1.25548 0
M  V30 3157 C 316.251 0.656769 1.4546 0
M  V30 3158 C 316.451 -0.78633 1.85524 0
M  V30 3159 O 315.507 -1.56183 1.98402 0
M  V30 3160 C 316.82 1.62801 2.52817 0
M  V30 3161 C 318.368 1.63897 2.66659 0
M  V30 3162 C 318.843 2.5978 3.77198 0
M  V30 3163 N 320.334 2.58133 3.84606 0
M  V30 3164 C 321.069 3.29003 4.69621 0
M  V30 3165 N 320.565 4.09339 5.58939 0
M  V30 3166 N 322.358 3.179 4.63569 0
M  V30 3167 H 314.509 1.88526 0.978344 0
M  V30 3168 H 316.772 0.810815 0.491206 0
M  V30 3169 H 316.478 2.65869 2.30232 0
M  V30 3170 H 316.352 1.38898 3.50695 0
M  V30 3171 H 318.739 0.615481 2.8861 0
M  V30 3172 H 318.82 1.91858 1.69187 0
M  V30 3173 H 318.464 3.62254 3.55997 0
M  V30 3174 H 318.394 2.29105 4.7415 0
M  V30 3175 H 320.885 1.99809 3.20757 0
M  V30 3176 H 321.198 4.6034 6.20731 0
M  V30 3177 H 319.543 4.13438 5.58654 0
M  V30 3178 H 322.734 2.54612 3.92798 0
M  V30 3179 H 322.907 3.73398 5.29602 0
M  V30 3180 N 316.313 -1.40141 0.720998 0
M  V30 3181 C 317.538 -2.05618 0.271258 0
M  V30 3182 C 317.963 -1.53978 -1.08039 0
M  V30 3183 O 317.321 -0.677463 -1.68167 0
M  V30 3184 C 317.369 -3.59609 0.267197 0
M  V30 3185 O 316.473 -4.05526 -0.749814 0
M  V30 3186 H 315.814 -0.651904 0.126162 0
M  V30 3187 H 318.344 -1.79439 0.982997 0
M  V30 3188 H 318.354 -4.0786 0.106744 0
M  V30 3189 H 317.029 -3.96559 1.25354 0
M  V30 3190 H 315.606 -3.68722 -0.556644 0
M  V30 3191 N 317.792 -0.46758 -1.50504 0
M  V30 3192 C 319.203 -0.0116166 -1.86696 0
M  V30 3193 C 319.554 1.39202 -1.38265 0
M  V30 3194 O 318.679 2.0313 -0.746132 0
M  V30 3195 C 319.274 -0.0143044 -3.38797 0
M  V30 3196 C 317.833 0.386175 -3.74414 0
M  V30 3197 C 316.98 -0.401287 -2.74381 0
M  V30 3198 H 319.931 -0.682022 -1.43297 0
M  V30 3199 H 319.952 0.788641 -3.72237 0
M  V30 3200 H 319.464 -1.03602 -3.74016 0
M  V30 3201 H 317.565 1.41237 -3.44794 0
M  V30 3202 H 317.678 0.0899596 -4.79016 0
M  V30 3203 H 316.042 0.144536 -2.5429 0
M  V30 3204 H 316.825 -1.42244 -3.12444 0
M  V30 3205 N 319.27 1.56325 -0.20005 0
M  V30 3206 C 320.203 2.15234 0.758267 0
M  V30 3207 C 321.181 1.09046 1.20614 0
M  V30 3208 O 322.365 1.37186 1.29276 0
M  V30 3209 C 319.492 2.71524 2.02466 0
M  V30 3210 C 318.538 3.90345 1.71852 0
M  V30 3211 S 319.371 5.28513 0.862249 0
M  V30 3212 C 320.527 5.88227 2.13868 0
M  V30 3213 H 320.76 2.96183 0.2575 0
M  V30 3214 H 318.293 1.54393 0.0150099 0
M  V30 3215 H 320.251 3.04598 2.75191 0
M  V30 3216 H 318.912 1.90607 2.49655 0
M  V30 3217 H 318.105 4.28158 2.65888 0
M  V30 3218 H 317.707 3.58306 1.07205 0
M  V30 3219 H 319.999 6.02891 3.09076 0
M  V30 3220 H 320.942 6.84714 1.80479 0
M  V30 3221 H 321.35 5.16874 2.2694 0
M  V30 3222 N 320.748 -0.0735177 1.57428 0
M  V30 3223 C 322.164 -0.428264 1.53747 0
M  V30 3224 C 322.364 -1.79272 0.91998 0
M  V30 3225 O 321.42 -2.47051 0.521745 0
M  V30 3226 C 322.733 -0.370914 2.98404 0
M  V30 3227 C 324.281 -0.451224 3.0973 0
M  V30 3228 C 324.756 -0.4238 4.56035 0
M  V30 3229 N 326.247 -0.483925 4.60665 0
M  V30 3230 C 326.982 -0.484891 5.71346 0
M  V30 3231 N 326.478 -0.440775 6.91396 0
M  V30 3232 N 328.271 -0.531319 5.59583 0
M  V30 3233 H 320.422 0.819949 1.95935 0
M  V30 3234 H 322.685 0.307493 0.896745 0
M  V30 3235 H 322.391 0.564956 3.47133 0
M  V30 3236 H 322.265 -1.18176 3.5821 0
M  V30 3237 H 324.652 -1.37752 2.60976 0
M  V30 3238 H 324.733 0.388167 2.52838 0
M  V30 3239 H 324.377 0.498638 5.05446 0
M  V30 3240 H 324.307 -1.2807 5.10789 0
M  V30 3241 H 326.798 -0.522338 3.74273 0
M  V30 3242 H 327.111 -0.44539 7.71515 0
M  V30 3243 H 325.456 -0.40749 6.93804 0
M  V30 3244 H 328.647 -0.563464 4.64696 0
M  V30 3245 H 328.82 -0.528603 6.4584 0
M  V30 3246 N 322.226 -1.5378 -0.344866 0
M  V30 3247 C 323.189 -1.80981 -1.40637 0
M  V30 3248 C 324.189 -0.680816 -1.45676 0
M  V30 3249 O 325.379 -0.949095 -1.46075 0
M  V30 3250 C 322.511 -1.95063 -2.79577 0
M  V30 3251 H 323.704 -2.75803 -1.17783 0
M  V30 3252 H 321.257 -1.45173 -0.579181 0
M  V30 3253 H 321.992 -1.02379 -3.07716 0
M  V30 3254 H 321.777 -2.77198 -2.77315 0
M  V30 3255 H 323.267 -2.17629 -3.56409 0
M  V30 3256 N 323.704 0.605807 -1.45491 0
M  V30 3257 C 324.929 1.39625 -1.53361 0
M  V30 3258 C 325.354 1.87351 -0.167645 0
M  V30 3259 O 324.712 1.60243 0.848051 0
M  V30 3260 C 324.76 2.57559 -2.5238 0
M  V30 3261 O 323.864 3.58248 -2.04285 0
M  V30 3262 H 323.205 0.416771 -0.516912 0
M  V30 3263 H 325.735 0.737103 -1.90861 0
M  V30 3264 H 325.745 3.0478 -2.71244 0
M  V30 3265 H 324.42 2.22171 -3.51586 0
M  V30 3266 H 322.997 3.17664 -1.95305 0
M  V30 3267 N 325.182 1.32811 0.848464 0
M  V30 3268 C 326.132 1.18842 1.94578 0
M  V30 3269 C 327.116 0.0937517 1.60627 0
M  V30 3270 O 328.308 0.320887 1.74067 0
M  V30 3271 C 325.437 0.91999 3.30743 0
M  V30 3272 C 324.523 2.05665 3.70894 0
M  V30 3273 N 324.914 3.30579 3.8282 0
M  V30 3274 C 323.212 1.9612 4.00566 0
M  V30 3275 C 323.913 4.05067 4.17487 0
M  V30 3276 N 322.889 3.33419 4.2934 0
M  V30 3277 H 326.691 2.13536 2.0194 0
M  V30 3278 H 324.205 1.2468 1.0406 0
M  V30 3279 H 326.202 0.800859 4.09136 0
M  V30 3280 H 324.862 -0.0185076 3.24695 0
M  V30 3281 H 325.873 3.65441 3.66978 0
M  V30 3282 H 322.55 1.09871 4.02784 0
M  V30 3283 H 323.94 5.12815 4.34131 0
M  V30 3284 N 326.66 -1.06551 1.16123 0
M  V30 3285 C 327.59 -2.15935 0.88851 0
M  V30 3286 C 328.571 -1.69306 -0.164135 0
M  V30 3287 O 329.756 -1.94193 -0.0167857 0
M  V30 3288 C 326.886 -3.45149 0.385942 0
M  V30 3289 C 325.84 -4.05271 1.3762 0
M  V30 3290 C 325.166 -5.29664 0.732137 0
M  V30 3291 C 326.466 -4.44355 2.74493 0
M  V30 3292 H 328.16 -2.39006 1.80323 0
M  V30 3293 H 325.706 -1.14866 0.868435 0
M  V30 3294 H 327.659 -4.21004 0.182647 0
M  V30 3295 H 326.383 -3.21689 -0.564274 0
M  V30 3296 H 325.042 -3.3147 1.56599 0
M  V30 3297 H 324.69 -5.02499 -0.224483 0
M  V30 3298 H 324.39 -5.70848 1.39307 0
M  V30 3299 H 325.914 -6.08218 0.538802 0
M  V30 3300 H 327.328 -5.11303 2.59311 0
M  V30 3301 H 325.725 -4.96515 3.37035 0
M  V30 3302 H 326.795 -3.55339 3.29943 0
M  V30 3303 N 328.138 -0.959301 -1.25041 0
M  V30 3304 C 329.088 -0.453888 -2.23436 0
M  V30 3305 C 330.072 0.459461 -1.542 0
M  V30 3306 O 331.264 0.291752 -1.74579 0
M  V30 3307 C 328.393 0.262667 -3.42294 0
M  V30 3308 C 327.479 -0.669022 -4.1879 0
M  V30 3309 N 327.87 -1.80267 -4.72586 0
M  V30 3310 C 326.168 -0.47814 -4.4343 0
M  V30 3311 C 326.869 -2.38475 -5.3057 0
M  V30 3312 N 325.845 -1.67078 -5.17287 0
M  V30 3313 H 329.647 -1.319 -2.6264 0
M  V30 3314 H 327.161 -0.817358 -1.40332 0
M  V30 3315 H 329.158 0.641911 -4.11929 0
M  V30 3316 H 327.818 1.12432 -3.04613 0
M  V30 3317 H 328.829 -2.18442 -4.69578 0
M  V30 3318 H 325.506 0.340249 -4.16111 0
M  V30 3319 H 326.896 -3.34094 -5.8295 0
M  V30 3320 N 329.616 1.39756 -0.72842 0
M  V30 3321 C 330.863 2.00645 -0.273487 0
M  V30 3322 C 331.191 1.57786 1.13727 0
M  V30 3323 O 330.446 0.794886 1.7883 0
M  V30 3324 C 330.745 3.56002 -0.315776 0
M  V30 3325 C 330.411 4.18489 -1.67863 0
M  V30 3326 C 329.073 4.3527 -2.05166 0
M  V30 3327 C 331.425 4.53219 -2.57375 0
M  V30 3328 C 328.753 4.84069 -3.31503 0
M  V30 3329 C 331.105 5.03423 -3.83077 0
M  V30 3330 C 329.769 5.18413 -4.20481 0
M  V30 3331 H 329.039 0.734211 -0.100076 0
M  V30 3332 H 331.686 1.6718 -0.933972 0
M  V30 3333 H 329.991 3.89452 0.428285 0
M  V30 3334 H 331.688 4.00963 0.0542575 0
M  V30 3335 H 328.278 4.05824 -1.37858 0
M  V30 3336 H 332.462 4.39878 -2.29827 0
M  V30 3337 H 327.718 4.93859 -3.60435 0
M  V30 3338 H 331.892 5.2927 -4.52599 0
M  V30 3339 H 329.519 5.55987 -5.18443 0
M  V30 3340 N 331.094 0.475555 1.50254 0
M  V30 3341 C 332.027 -0.362381 2.25304 0
M  V30 3342 C 333.005 -0.992393 1.28803 0
M  V30 3343 O 334.189 -1.02746 1.58036 0
M  V30 3344 C 331.316 -1.50813 3.03271 0
M  V30 3345 C 330.362 -0.995044 4.1473 0
M  V30 3346 S 331.195 0.0938436 5.35418 0
M  V30 3347 C 332.351 -1.05567 6.16933 0
M  V30 3348 H 332.584 0.274686 2.96028 0
M  V30 3349 H 330.117 0.260495 1.52187 0
M  V30 3350 H 332.075 -2.16476 3.48781 0
M  V30 3351 H 330.736 -2.11672 2.32064 0
M  V30 3352 H 329.929 -1.85293 4.68703 0
M  V30 3353 H 329.531 -0.416052 3.71679 0
M  V30 3354 H 331.823 -1.96636 6.48337 0
M  V30 3355 H 332.766 -0.555109 7.05921 0
M  V30 3356 H 333.174 -1.31151 5.49053 0
M  V30 3357 N 332.573 -1.56217 0.208337 0
M  V30 3358 C 333.819 -1.98242 -0.427552 0
M  V30 3359 C 334.152 -1.09554 -1.60348 0
M  V30 3360 O 333.427 -0.15035 -1.93918 0
M  V30 3361 C 333.71 -3.4931 -0.874907 0
M  V30 3362 C 333.563 -4.48773 0.303751 0
M  V30 3363 C 334.882 -4.04424 -1.73577 0
M  V30 3364 H 332.001 -0.720744 -0.153936 0
M  V30 3365 H 334.643 -1.87586 0.30192 0
M  V30 3366 H 332.793 -3.58522 -1.49648 0
M  V30 3367 H 334.465 -4.51586 0.941682 0
M  V30 3368 H 332.708 -4.23194 0.953375 0
M  V30 3369 H 333.379 -5.51976 -0.0519883 0
M  V30 3370 H 335.855 -3.98075 -1.21143 0
M  V30 3371 H 334.731 -5.1047 -2.01771 0
M  V30 3372 H 334.992 -3.50494 -2.69456 0
M  V30 3373 N 334.051 0.0651679 -1.57465 0
M  V30 3374 C 335.279 0.775808 -1.91804 0
M  V30 3375 C 335.694 1.70782 -0.804916 0
M  V30 3376 O 335.051 1.81153 0.221311 0
M  V30 3377 C 335.102 1.56381 -3.25925 0
M  V30 3378 O 334.823 0.669248 -4.32958 0
M  V30 3379 C 336.324 2.37485 -3.7432 0
M  V30 3380 H 333.544 0.2202 -0.63384 0
M  V30 3381 H 336.088 0.0334587 -2.04473 0
M  V30 3382 H 334.243 2.25837 -3.14764 0
M  V30 3383 H 334.657 1.21801 -5.10162 0
M  V30 3384 H 336.131 2.88223 -4.70778 0
M  V30 3385 H 336.608 3.17307 -3.03666 0
M  V30 3386 H 337.214 1.73173 -3.88447 0
M  V30 3387 N 335.529 1.53961 0.336706 0
M  V30 3388 C 336.492 1.81724 1.39675 0
M  V30 3389 C 337.492 0.688532 1.45313 0
M  V30 3390 O 338.682 0.956829 1.45569 0
M  V30 3391 C 335.814 1.96543 2.78538 0
M  V30 3392 H 337.007 2.76424 1.16318 0
M  V30 3393 H 334.56 1.45478 0.571474 0
M  V30 3394 H 335.295 1.0401 3.07168 0
M  V30 3395 H 335.08 2.78665 2.75841 0
M  V30 3396 H 336.57 2.19516 3.5525 0
M  V30 3397 N 337.007 -0.598083 1.45811 0
M  V30 3398 C 338.418 -1.18011 1.44673 0
M  V30 3399 C 338.769 -1.95378 0.179364 0
M  V30 3400 O 337.894 -2.04124 -0.718509 0
M  V30 3401 C 338.489 -2.14677 2.62105 0
M  V30 3402 C 337.048 -2.68236 2.64057 0
M  V30 3403 C 336.195 -1.43816 2.37091 0
M  V30 3404 H 339.146 -0.38686 1.53913 0
M  V30 3405 H 339.167 -2.97878 2.36746 0
M  V30 3406 H 338.679 -1.5834 3.5433 0
M  V30 3407 H 336.78 -3.28486 1.75864 0
M  V30 3408 H 336.893 -3.12021 3.63566 0
M  V30 3409 H 335.257 -1.731 1.86838 0
M  V30 3410 H 336.04 -0.893333 3.31473 0
M  V30 3411 N 338.485 -1.33259 -0.841409 0
M  V30 3412 C 339.733 -1.24326 -1.59334 0
M  V30 3413 C 340.054 0.191564 -1.94057 0
M  V30 3414 O 339.324 1.11967 -1.60749 0
M  V30 3415 H 337.904 -0.457174 -0.590763 0
M  V30 3416 H 340.566 -1.66947 -1.00571 0
M  V30 3417 H 339.662 -1.8352 -2.52442 0
M  V30 3418 N 339.963 1.05934 -1.16686 0
M  V30 3419 C 341.379 1.30938 -0.912542 0
M  V30 3420 C 341.579 1.96803 0.432533 0
M  V30 3421 O 340.635 2.23693 1.17123 0
M  V30 3422 C 341.948 2.18649 -2.06429 0
M  V30 3423 C 343.496 2.32055 -2.10047 0
M  V30 3424 C 343.971 3.23122 -3.24586 0
M  V30 3425 N 345.462 3.30706 -3.24327 0
M  V30 3426 C 346.197 4.01273 -4.09594 0
M  V30 3427 N 345.693 4.74332 -5.04956 0
M  V30 3428 N 347.486 3.97361 -3.97569 0
M  V30 3429 H 339.637 0.615777 -2.03278 0
M  V30 3430 H 341.9 0.334077 -0.887185 0
M  V30 3431 H 341.606 1.77534 -3.03603 0
M  V30 3432 H 341.48 3.19252 -2.00894 0
M  V30 3433 H 343.867 2.72415 -1.13464 0
M  V30 3434 H 343.948 1.31107 -2.19647 0
M  V30 3435 H 343.592 2.83477 -4.2143 0
M  V30 3436 H 343.522 4.24057 -3.12223 0
M  V30 3437 H 346.013 2.78644 -2.55276 0
M  V30 3438 H 346.326 5.25716 -5.6643 0
M  V30 3439 H 344.671 4.733 -5.08933 0
M  V30 3440 H 347.862 3.39405 -3.22369 0
M  V30 3441 H 348.035 4.52089 -4.64241 0
M  V30 3442 N 341.441 0.965919 1.2453 0
M  V30 3443 C 342.857 0.67216 1.44756 0
M  V30 3444 C 343.057 -0.766609 1.86347 0
M  V30 3445 O 342.113 -1.5407 2.00047 0
M  V30 3446 C 343.426 1.65473 2.51076 0
M  V30 3447 C 344.974 1.66716 2.64905 0
M  V30 3448 C 345.449 2.63766 3.74421 0
M  V30 3449 N 346.94 2.62198 3.81846 0
M  V30 3450 C 347.675 3.33966 4.66106 0
M  V30 3451 N 347.171 4.15245 5.54566 0
M  V30 3452 N 348.964 3.22799 4.60171 0
M  V30 3453 H 341.115 1.89553 0.958293 0
M  V30 3454 H 343.378 0.815979 0.482579 0
M  V30 3455 H 343.084 2.68296 2.27399 0
M  V30 3456 H 342.958 1.4261 3.49202 0
M  V30 3457 H 345.345 0.646057 2.87941 0
M  V30 3458 H 345.426 1.93642 1.67142 0
M  V30 3459 H 345.07 3.6601 3.52135 0
M  V30 3460 H 345 2.34121 4.71694 0
M  V30 3461 H 347.491 2.032 3.18619 0
M  V30 3462 H 347.804 4.66898 6.15814 0
M  V30 3463 H 346.149 4.1934 5.54237 0
M  V30 3464 H 349.34 2.58764 3.90075 0
M  V30 3465 H 349.513 3.78994 5.25612 0
M  V30 3466 N 342.919 -1.39368 0.735821 0
M  V30 3467 C 344.147 -2.04795 0.294393 0
M  V30 3468 C 344.562 -1.55478 -1.07107 0
M  V30 3469 O 343.919 -0.720038 -1.67695 0
M  V30 3470 C 343.97 -3.6035 0.288071 0
M  V30 3471 O 343.691 -4.07852 1.59963 0
M  V30 3472 C 345.192 -4.42976 -0.169422 0
M  V30 3473 H 342.412 -0.658571 0.128551 0
M  V30 3474 H 344.956 -1.78399 0.999701 0
M  V30 3475 H 343.111 -3.85645 -0.368355 0
M  V30 3476 H 343.525 -5.02181 1.51375 0
M  V30 3477 H 344.999 -5.51864 -0.122687 0
M  V30 3478 H 345.476 -4.22068 -1.21472 0
M  V30 3479 H 346.082 -4.22832 0.457469 0
M  V30 3480 N 344.397 -0.483516 -1.5 0
M  V30 3481 C 345.327 0.293829 -2.31644 0
M  V30 3482 C 346.308 0.978864 -1.39112 0
M  V30 3483 O 347.493 0.973644 -1.68029 0
M  V30 3484 C 344.623 1.36897 -3.19181 0
M  V30 3485 C 343.577 0.804833 -4.20365 0
M  V30 3486 C 342.903 1.9792 -4.96721 0
M  V30 3487 C 344.203 -0.192313 -5.21946 0
M  V30 3488 H 345.897 -0.387616 -2.9688 0
M  V30 3489 H 343.443 -0.187856 -1.42769 0
M  V30 3490 H 345.396 1.92037 -3.751 0
M  V30 3491 H 344.12 2.07936 -2.51853 0
M  V30 3492 H 342.779 0.275319 -3.65565 0
M  V30 3493 H 342.427 2.67686 -4.25856 0
M  V30 3494 H 342.127 1.60789 -5.65173 0
M  V30 3495 H 343.651 2.53526 -5.55479 0
M  V30 3496 H 345.065 0.270333 -5.72662 0
M  V30 3497 H 343.462 -0.478543 -5.98189 0
M  V30 3498 H 344.532 -1.11409 -4.71928 0
M  V30 3499 N 345.875 1.56104 -0.216619 0
M  V30 3500 C 347.121 1.98466 0.417033 0
M  V30 3501 C 347.454 1.10403 1.59765 0
M  V30 3502 O 346.729 0.160632 1.93836 0
M  V30 3503 C 347.012 3.49769 0.85637 0
M  V30 3504 C 346.865 4.48606 -0.327546 0
M  V30 3505 C 348.184 4.05339 1.7143 0
M  V30 3506 H 345.303 0.721551 0.150112 0
M  V30 3507 H 347.945 1.87423 -0.311864 0
M  V30 3508 H 346.095 3.5931 1.47745 0
M  V30 3509 H 347.767 4.5108 -0.965618 0
M  V30 3510 H 346.01 4.22682 -0.975805 0
M  V30 3511 H 346.681 5.51995 0.0227149 0
M  V30 3512 H 349.157 3.98712 1.19031 0
M  V30 3513 H 348.033 5.11533 1.99061 0
M  V30 3514 H 348.294 3.51918 2.67593 0
M  V30 3515 N 347.353 -0.0568162 1.57498 0
M  V30 3516 C 348.581 -0.765626 1.92213 0
M  V30 3517 C 348.996 -1.70353 0.813961 0
M  V30 3518 O 348.353 -1.81268 -0.211701 0
M  V30 3519 C 348.404 -1.5465 3.2675 0
M  V30 3520 O 348.125 -0.646278 4.33307 0
M  V30 3521 C 349.626 -2.35497 3.75574 0
M  V30 3522 H 346.846 -0.216835 0.634999 0
M  V30 3523 H 349.39 -0.0226146 2.04487 0
M  V30 3524 H 347.545 -2.24165 3.15957 0
M  V30 3525 H 347.959 -1.19093 5.108 0
M  V30 3526 H 349.433 -2.85722 4.72299 0
M  V30 3527 H 349.91 -3.15692 3.05344 0
M  V30 3528 H 350.516 -1.7111 3.8936 0
M  V30 3529 N 348.832 -1.54138 -0.328536 0
M  V30 3530 C 349.782 -1.79557 -1.4051 0
M  V30 3531 C 350.766 -0.651373 -1.47126 0
M  V30 3532 O 351.958 -0.911226 -1.51742 0
M  V30 3533 C 349.087 -2.02196 -2.77438 0
M  V30 3534 C 348.173 -3.22724 -2.75155 0
M  V30 3535 N 348.564 -4.43881 -2.42494 0
M  V30 3536 C 346.862 -3.24196 -3.06289 0
M  V30 3537 C 347.563 -5.25797 -2.48822 0
M  V30 3538 N 346.539 -4.62862 -2.8506 0
M  V30 3539 H 350.341 -2.70814 -1.1418 0
M  V30 3540 H 347.855 -1.53265 -0.536991 0
M  V30 3541 H 349.852 -2.18546 -3.55026 0
M  V30 3542 H 348.512 -1.12191 -3.04702 0
M  V30 3543 H 349.523 -4.70969 -2.15428 0
M  V30 3544 H 346.2 -2.44208 -3.38627 0
M  V30 3545 H 347.59 -6.32535 -2.26603 0
M  V30 3546 N 350.31 0.590341 -1.46126 0
M  V30 3547 C 351.559 1.34499 -1.50309 0
M  V30 3548 C 351.872 1.94977 -0.156021 0
M  V30 3549 O 353.078 2.71395 -0.0756037 0
M  V30 3550 C 351.534 2.43723 -2.64815 0
M  V30 3551 C 351.142 1.89582 -4.0591 0
M  V30 3552 C 352.886 3.20579 -2.78262 0
M  V30 3553 C 350.793 2.9639 -5.11769 0
M  V30 3554 H 349.723 0.505593 -0.559368 0
M  V30 3555 H 352.374 0.630848 -1.72315 0
M  V30 3556 H 350.756 3.17902 -2.36124 0
M  V30 3557 H 351.93 1.21997 -4.44357 0
M  V30 3558 H 350.245 1.25418 -3.97063 0
M  V30 3559 H 352.842 4.00276 -3.54519 0
M  V30 3560 H 353.185 3.72684 -1.85505 0
M  V30 3561 H 353.718 2.53505 -3.06562 0
M  V30 3562 H 350.457 2.49181 -6.06291 0
M  V30 3563 H 349.977 3.62487 -4.77873 0
M  V30 3564 H 351.656 3.60474 -5.37278 0
M  V30 3565 N 351.788 1.33704 0.83433 0
M  V30 3566 C 353.035 1.25417 1.58987 0
M  V30 3567 C 353.363 -0.178869 1.93676 0
M  V30 3568 O 352.618 -1.13723 1.59265 0
M  V30 3569 C 352.917 2.07926 2.90692 0
M  V30 3570 C 352.583 3.57066 2.75345 0
M  V30 3571 C 351.245 3.97724 2.70867 0
M  V30 3572 C 353.597 4.51817 2.59828 0
M  V30 3573 C 350.925 5.31344 2.48778 0
M  V30 3574 C 353.277 5.85604 2.39272 0
M  V30 3575 C 351.941 6.25439 2.33199 0
M  V30 3576 H 351.211 0.458934 0.581774 0
M  V30 3577 H 353.858 1.65335 0.966261 0
M  V30 3578 H 352.163 1.608 3.57282 0
M  V30 3579 H 353.86 1.98868 3.48213 0
M  V30 3580 H 350.45 3.24785 2.79665 0
M  V30 3581 H 354.634 4.21311 2.62319 0
M  V30 3582 H 349.89 5.61241 2.42526 0
M  V30 3583 H 354.064 6.58623 2.2625 0
M  V30 3584 H 351.691 7.28914 2.15843 0
M  V30 3585 N 353.266 -1.05314 1.17247 0
M  V30 3586 C 354.512 -1.78557 0.961513 0
M  V30 3587 C 354.845 -1.87419 -0.508697 0
M  V30 3588 O 354.12 -1.37307 -1.37757 0
M  V30 3589 C 354.403 -3.22514 1.60176 0
M  V30 3590 C 354.256 -3.21673 3.14399 0
M  V30 3591 C 355.575 -4.20318 1.30463 0
M  V30 3592 H 352.694 -0.6482 0.350723 0
M  V30 3593 H 355.336 -1.23102 1.44727 0
M  V30 3594 H 353.486 -3.69867 1.18871 0
M  V30 3595 H 355.158 -2.82405 3.64753 0
M  V30 3596 H 353.401 -2.60048 3.47214 0
M  V30 3597 H 354.072 -4.23271 3.54324 0
M  V30 3598 H 356.548 -3.81454 1.66229 0
M  V30 3599 H 355.424 -5.19289 1.77848 0
M  V30 3600 H 355.685 -4.41526 0.22521 0
M  V30 3601 N 354.744 -0.972509 -1.24016 0
M  V30 3602 C 355.654 -0.5143 -2.28893 0
M  V30 3603 C 356.67 0.427078 -1.68677 0
M  V30 3604 O 357.846 0.298939 -1.99169 0
M  V30 3605 C 354.911 0.183598 -3.46214 0
M  V30 3606 C 353.972 -0.798202 -4.21814 0
M  V30 3607 C 353.205 -0.133514 -5.33533 0
M  V30 3608 O 353.428 1.07714 -5.60137 0
M  V30 3609 O 352.362 -0.828103 -5.96176 0
M  V30 3610 H 356.188 -1.38629 -2.70214 0
M  V30 3611 H 353.773 -0.739769 -1.29799 0
M  V30 3612 H 355.655 0.575433 -4.17453 0
M  V30 3613 H 354.33 1.03048 -3.0686 0
M  V30 3614 H 353.237 -1.24059 -3.52931 0
M  V30 3615 H 354.57 -1.61364 -4.64997 0
M  V30 3616 N 356.222 1.38976 -0.743202 0
M  V30 3617 C 357.47 1.99948 -0.29417 0
M  V30 3618 C 357.791 1.59279 1.12495 0
M  V30 3619 O 357.061 0.844808 1.76748 0
M  V30 3620 H 355.641 0.739473 -0.105774 0
M  V30 3621 H 358.303 1.699 -0.954986 0
M  V30 3622 H 357.399 3.10142 -0.349056 0
M  V30 3623 N 357.7 0.491464 1.49741 0
M  V30 3624 C 358.977 -0.118984 1.95238 0
M  V30 3625 C 359.357 -1.55044 1.43264 0
M  V30 3626 O 358.705 -2.19287 0.642287 0
M  V30 3627 C 358.915 -0.0414187 3.48975 0
M  V30 3628 C 360.263 -0.220133 4.24029 0
M  V30 3629 O 361.287 -0.117055 3.56008 0
M  V30 3630 O 360.146 -0.430567 5.44801 0
M  V30 3631 H 357.24 -0.100536 0.820866 0
M  V30 3632 H 359.786 0.553322 1.60426 0
M  V30 3633 H 358.558 0.957214 3.79412 0
M  V30 3634 H 358.181 -0.754292 3.9038 0
M  V30 3635 N 359.178 -1.55987 0.224894 0
M  V30 3636 C 360.088 -2.24066 -0.69511 0
M  V30 3637 C 361.104 -1.24939 -1.21104 0
M  V30 3638 O 362.28 -1.5776 -1.25195 0
M  V30 3639 C 359.345 -2.90983 -1.88493 0
M  V30 3640 C 358.406 -4.05462 -1.41064 0
M  V30 3641 C 357.639 -4.69179 -2.54375 0
M  V30 3642 O 357.862 -4.31895 -3.72589 0
M  V30 3643 O 356.796 -5.58108 -2.25386 0
M  V30 3644 H 360.622 -3.03353 -0.145149 0
M  V30 3645 H 358.207 -1.49399 -0.00569476 0
M  V30 3646 H 360.089 -3.33209 -2.57972 0
M  V30 3647 H 358.764 -2.14653 -2.42293 0
M  V30 3648 H 357.671 -3.67798 -0.683774 0
M  V30 3649 H 359.004 -4.83545 -0.918985 0
M  V30 3650 N 360.656 0.0484629 -1.57525 0
M  V30 3651 C 361.586 1.0549 -2.08313 0
M  V30 3652 C 362.567 1.38929 -0.981463 0
M  V30 3653 O 363.752 1.48151 -1.25558 0
M  V30 3654 C 360.882 2.36162 -2.54646 0
M  V30 3655 C 359.836 2.17016 -3.68901 0
M  V30 3656 C 359.162 3.53278 -4.01371 0
M  V30 3657 C 360.462 1.57219 -4.98076 0
M  V30 3658 H 362.156 0.632195 -2.92649 0
M  V30 3659 H 359.702 0.302654 -1.40784 0
M  V30 3660 H 361.655 3.06882 -2.88793 0
M  V30 3661 H 360.379 2.80456 -1.67368 0
M  V30 3662 H 359.038 1.48733 -3.35073 0
M  V30 3663 H 358.686 3.95185 -3.11188 0
M  V30 3664 H 358.386 3.41299 -4.78318 0
M  V30 3665 H 359.91 4.25391 -4.38035 0
M  V30 3666 H 361.324 2.17832 -5.30304 0
M  V30 3667 H 359.721 1.55871 -5.79503 0
M  V30 3668 H 360.791 0.535956 -4.81929 0
M  V30 3669 N 362.134 1.5431 0.320358 0
M  V30 3670 C 363.064 1.86912 1.3995 0
M  V30 3671 C 364.045 0.726211 1.53819 0
M  V30 3672 O 365.23 0.980233 1.67646 0
M  V30 3673 C 362.36 2.09932 2.7667 0
M  V30 3674 C 361.314 3.25776 2.77586 0
M  V30 3675 C 360.64 3.34173 4.17412 0
M  V30 3676 C 361.94 4.6335 2.41048 0
M  V30 3677 H 363.634 2.77292 1.12914 0
M  V30 3678 H 361.18 1.33421 0.541738 0
M  V30 3679 H 363.133 2.31324 3.52232 0
M  V30 3680 H 361.857 1.16304 3.0519 0
M  V30 3681 H 360.516 3.04276 2.04479 0
M  V30 3682 H 360.164 2.38098 4.43078 0
M  V30 3683 H 359.864 4.12033 4.18931 0
M  V30 3684 H 361.388 3.57803 4.94782 0
M  V30 3685 H 362.802 4.84602 3.06324 0
M  V30 3686 H 361.199 5.43782 2.53813 0
M  V30 3687 H 362.269 4.65381 1.36193 0
M  V30 3688 N 363.613 -0.582584 1.46437 0
M  V30 3689 C 364.89 -1.34276 1.4223 0
M  V30 3690 C 365.27 -2.10835 0.10583 0
M  V30 3691 O 364.618 -2.09485 -0.912596 0
M  V30 3692 C 364.828 -2.26865 2.65204 0
M  V30 3693 C 366.176 -2.88691 3.11356 0
M  V30 3694 O 367.2 -2.37178 2.65753 0
M  V30 3695 O 366.059 -3.82255 3.90568 0
M  V30 3696 H 363.153 -0.603326 0.565621 0
M  V30 3697 H 365.699 -0.603591 1.58603 0
M  V30 3698 H 364.471 -1.69724 3.52576 0
M  V30 3699 H 364.094 -3.08122 2.5129 0
M  V30 3700 N 365.091 -1.34144 -0.827227 0
M  V30 3701 C 366.507 -1.13732 -1.11969 0
M  V30 3702 C 366.707 0.0640463 -2.01398 0
M  V30 3703 O 365.763 0.740856 -2.41387 0
M  V30 3704 C 367.076 -2.43047 -1.77055 0
M  V30 3705 C 368.624 -2.49063 -1.89569 0
M  V30 3706 C 369.099 -3.78369 -2.58072 0
M  V30 3707 N 370.59 -3.79505 -2.65575 0
M  V30 3708 C 371.325 -4.76274 -3.19297 0
M  V30 3709 N 370.821 -5.83424 -3.73616 0
M  V30 3710 N 372.614 -4.63735 -3.17658 0
M  V30 3711 H 364.765 -2.11126 -0.232296 0
M  V30 3712 H 367.028 -0.933424 -0.165602 0
M  V30 3713 H 366.734 -3.31025 -1.18807 0
M  V30 3714 H 366.608 -2.56066 -2.76966 0
M  V30 3715 H 368.995 -1.61527 -2.46968 0
M  V30 3716 H 369.076 -2.39975 -0.885745 0
M  V30 3717 H 368.72 -4.66293 -2.01329 0
M  V30 3718 H 368.65 -3.84737 -3.59562 0
M  V30 3719 H 371.141 -3.02074 -2.27068 0
M  V30 3720 H 371.454 -6.53282 -4.12846 0
M  V30 3721 H 369.799 -5.87143 -3.71871 0
M  V30 3722 H 372.99 -3.79177 -2.74486 0
M  V30 3723 H 373.163 -5.39318 -3.59221 0
M  V30 3724 N 366.569 1.04691 -1.17803 0
M  V30 3725 C 367.846 1.7472 -0.879328 0
M  V30 3726 C 368.226 2.01812 0.619271 0
M  V30 3727 O 367.574 1.65824 1.57209 0
M  V30 3728 C 367.784 3.03686 -1.71976 0
M  V30 3729 C 369.132 3.77542 -1.94286 0
M  V30 3730 O 370.156 3.13569 -1.68976 0
M  V30 3731 O 369.015 4.92506 -2.36855 0
M  V30 3732 H 366.109 0.760011 -0.326056 0
M  V30 3733 H 368.655 1.10813 -1.28525 0
M  V30 3734 H 367.427 2.79754 -2.73594 0
M  V30 3735 H 367.05 3.75332 -1.31194 0
M  V30 3736 N 368.047 0.979072 1.23499 0
M  V30 3737 C 369.272 0.664845 1.96455 0
M  V30 3738 C 369.697 -0.761287 1.72006 0
M  V30 3739 O 369.055 -1.51837 0.990713 0
M  V30 3740 C 369.103 0.959479 3.47601 0
M  V30 3741 O 368.207 0.0508168 4.12369 0
M  V30 3742 H 367.548 0.250185 0.615064 0
M  V30 3743 H 370.078 1.31231 1.5697 0
M  V30 3744 H 370.088 0.895642 3.98048 0
M  V30 3745 H 368.763 1.99876 3.64723 0
M  V30 3746 H 367.34 0.16895 3.72517 0
M  V30 3747 N 369.525 -1.3858 0.750561 0
M  V30 3748 C 370.771 -2.00481 0.305825 0
M  V30 3749 C 371.104 -1.5944 -1.10872 0
M  V30 3750 O 370.379 -0.83052 -1.75877 0
M  V30 3751 C 370.662 -3.5758 0.425287 0
M  V30 3752 C 370.515 -4.08594 1.88072 0
M  V30 3753 C 371.834 -4.39719 -0.183122 0
M  V30 3754 H 368.953 -0.728348 0.112598 0
M  V30 3755 H 371.595 -1.64566 0.949638 0
M  V30 3756 H 369.745 -3.88306 -0.122828 0
M  V30 3757 H 371.417 -3.88523 2.48691 0
M  V30 3758 H 369.66 -3.61574 2.39681 0
M  V30 3759 H 370.331 -5.177 1.91548 0
M  V30 3760 H 372.807 -4.15128 0.284303 0
M  V30 3761 H 371.683 -5.48856 -0.0692757 0
M  V30 3762 H 371.944 -4.23434 -1.27106 0
M  V30 3763 N 371.003 -0.499398 -1.49478 0
M  V30 3764 C 372.25 0.0456899 -2.02448 0
M  V30 3765 C 372.578 1.37142 -1.37921 0
M  V30 3766 O 371.833 1.89111 -0.503544 0
M  V30 3767 C 372.132 0.248424 -3.56536 0
M  V30 3768 C 371.798 -0.999107 -4.39692 0
M  V30 3769 C 370.46 -1.34108 -4.62135 0
M  V30 3770 C 372.812 -1.82842 -4.88076 0
M  V30 3771 C 370.14 -2.51191 -5.30208 0
M  V30 3772 C 372.492 -2.99076 -5.57437 0
M  V30 3773 C 371.156 -3.33655 -5.78127 0
M  V30 3774 H 370.426 0.0167191 -0.740811 0
M  V30 3775 H 373.073 -0.65923 -1.79795 0
M  V30 3776 H 371.378 1.03586 -3.77859 0
M  V30 3777 H 373.075 0.684605 -3.95113 0
M  V30 3778 H 369.665 -0.722729 -4.22463 0
M  V30 3779 H 373.849 -1.57737 -4.70566 0
M  V30 3780 H 369.105 -2.78221 -5.44429 0
M  V30 3781 H 373.279 -3.63664 -5.93904 0
M  V30 3782 H 370.906 -4.24483 -6.30649 0
M  V30 3783 N 372.481 1.55866 -0.233164 0
M  V30 3784 C 373.729 1.9821 0.394593 0
M  V30 3785 C 374.05 1.12234 1.59463 0
M  V30 3786 O 373.32 0.201981 1.94856 0
M  V30 3787 H 371.9 0.732034 0.148778 0
M  V30 3788 H 374.562 1.92107 -0.32876 0
M  V30 3789 H 373.658 3.03845 0.713063 0
M  V30 3790 N 373.959 -0.0401083 1.57549 0
M  V30 3791 C 375.205 -0.734211 1.89043 0
M  V30 3792 C 375.538 -1.75591 0.829535 0
M  V30 3793 O 374.813 -1.93868 -0.156706 0
M  V30 3794 C 375.096 -1.41374 3.31188 0
M  V30 3795 C 374.949 -0.406299 4.47961 0
M  V30 3796 C 376.268 -2.35061 3.72068 0
M  V30 3797 H 373.387 -0.265447 0.687537 0
M  V30 3798 H 376.029 0.00294087 1.9 0
M  V30 3799 H 374.179 -2.04206 3.30503 0
M  V30 3800 H 375.851 0.219255 4.60779 0
M  V30 3801 H 374.094 0.275485 4.32924 0
M  V30 3802 H 374.765 -0.920022 5.44279 0
M  V30 3803 H 377.241 -1.82282 3.74049 0
M  V30 3804 H 376.117 -2.79593 4.72355 0
M  V30 3805 H 376.378 -3.21258 3.0372 0
M  V30 3806 N 375.437 -1.54477 -0.31217 0
M  V30 3807 C 376.384 -1.84655 -1.38461 0
M  V30 3808 C 377.354 -0.694536 -1.50882 0
M  V30 3809 O 378.539 -0.942081 -1.6592 0
M  V30 3810 C 375.679 -2.0896 -2.74645 0
M  V30 3811 C 374.792 -3.36618 -2.70763 0
M  V30 3812 C 373.927 -3.50824 -3.98868 0
M  V30 3813 C 372.966 -4.72315 -3.89339 0
M  V30 3814 N 372.103 -4.83387 -5.09197 0
M  V30 3815 H 376.943 -2.76142 -1.12026 0
M  V30 3816 H 374.48 -1.36748 -0.542065 0
M  V30 3817 H 376.438 -2.21045 -3.53829 0
M  V30 3818 H 375.068 -1.20752 -2.99364 0
M  V30 3819 H 374.12 -3.33211 -1.83506 0
M  V30 3820 H 375.432 -4.25917 -2.59608 0
M  V30 3821 H 374.586 -3.62513 -4.86486 0
M  V30 3822 H 373.325 -2.59638 -4.12843 0
M  V30 3823 H 372.33 -4.6067 -3.00105 0
M  V30 3824 H 373.555 -5.64897 -3.76919 0
M  V30 3825 H 371.501 -3.9512 -5.23657 0
M  V30 3826 H 371.418 -5.66669 -5.00422 0
M  V30 3827 H 372.686 -4.9942 -5.98498 0
M  V30 3828 N 376.915 0.57481 -1.46744 0
M  V30 3829 C 378.192 1.3352 -1.4294 0
M  V30 3830 C 378.572 2.10775 -0.117009 0
M  V30 3831 O 377.92 2.09966 0.901474 0
M  V30 3832 C 378.13 2.25456 -2.66403 0
M  V30 3833 C 379.478 2.87035 -3.12883 0
M  V30 3834 O 380.502 2.35766 -2.67007 0
M  V30 3835 O 379.361 3.80179 -3.92589 0
M  V30 3836 H 376.455 0.600318 -0.568812 0
M  V30 3837 H 379.001 0.595171 -1.58921 0
M  V30 3838 H 377.773 1.67851 -3.53471 0
M  V30 3839 H 377.396 3.06785 -2.52921 0
M  V30 3840 N 378.394 1.34581 0.820102 0
M  V30 3841 C 379.619 1.30333 1.61332 0
M  V30 3842 C 380.044 -0.119339 1.87721 0
M  V30 3843 O 379.402 -1.08197 1.45475 0
M  V30 3844 C 379.45 2.10258 2.92957 0
M  V30 3845 O 378.554 1.47404 3.85157 0
M  V30 3846 H 377.895 0.447488 0.490561 0
M  V30 3847 H 380.425 1.77425 1.01889 0
M  V30 3848 H 380.435 2.21718 3.42498 0
M  V30 3849 H 379.11 3.13693 2.73074 0
M  V30 3850 H 377.687 1.44703 3.43679 0
M  V30 3851 N 379.872 -1.04064 1.18357 0
M  V30 3852 C 380.802 -2.14001 0.934113 0
M  V30 3853 C 381.783 -1.69616 -0.128186 0
M  V30 3854 O 382.968 -1.94185 0.0244093 0
M  V30 3855 C 380.098 -3.44253 0.459066 0
M  V30 3856 C 379.052 -4.02261 1.46185 0
M  V30 3857 C 378.378 -5.27992 0.844322 0
M  V30 3858 C 379.678 -4.38432 2.83856 0
M  V30 3859 H 381.372 -2.35127 1.85352 0
M  V30 3860 H 378.918 -1.12998 0.892604 0
M  V30 3861 H 380.871 -4.20522 0.271907 0
M  V30 3862 H 379.595 -3.22813 -0.495912 0
M  V30 3863 H 378.254 -3.28074 1.63595 0
M  V30 3864 H 377.902 -5.02862 -0.117845 0
M  V30 3865 H 377.602 -5.67765 1.51384 0
M  V30 3866 H 379.126 -6.06938 0.667693 0
M  V30 3867 H 380.54 -5.05688 2.70098 0
M  V30 3868 H 378.937 -4.89254 3.47491 0
M  V30 3869 H 380.007 -3.4826 3.37406 0
M  V30 3870 N 381.35 -0.985608 -1.22978 0
M  V30 3871 C 382.596 -0.65836 -1.91816 0
M  V30 3872 C 382.929 0.806692 -1.76653 0
M  V30 3873 O 382.204 1.58252 -1.13078 0
M  V30 3874 C 382.487 -1.056 -3.44268 0
M  V30 3875 C 382.34 -2.57906 -3.68516 0
M  V30 3876 C 383.659 -0.603781 -4.35939 0
M  V30 3877 H 380.778 -0.24065 -0.696604 0
M  V30 3878 H 383.42 -1.22783 -1.44998 0
M  V30 3879 H 381.57 -0.571445 -3.84274 0
M  V30 3880 H 383.242 -3.13976 -3.3796 0
M  V30 3881 H 381.485 -3.00305 -3.13048 0
M  V30 3882 H 382.156 -2.80779 -4.75255 0
M  V30 3883 H 384.632 -1.01987 -4.03408 0
M  V30 3884 H 383.508 -0.910383 -5.41298 0
M  V30 3885 H 383.769 0.495761 -4.39312 0
M  V30 3886 N 382.828 1.3818 -0.7579 0
M  V30 3887 C 383.775 2.30416 -0.133057 0
M  V30 3888 C 384.745 1.50398 0.704957 0
M  V30 3889 O 385.93 1.79014 0.660192 0
M  V30 3890 C 383.07 3.36834 0.750813 0
M  V30 3891 C 382.183 4.31879 -0.102297 0
M  V30 3892 C 381.318 5.25368 0.784979 0
M  V30 3893 C 380.357 6.12058 -0.0715046 0
M  V30 3894 N 379.494 6.97832 0.772972 0
M  V30 3895 H 384.334 2.83274 -0.925186 0
M  V30 3896 H 381.871 1.39461 -0.467866 0
M  V30 3897 H 383.829 3.97145 1.27794 0
M  V30 3898 H 382.459 2.85374 1.50868 0
M  V30 3899 H 381.511 3.72991 -0.747095 0
M  V30 3900 H 382.823 4.92921 -0.763552 0
M  V30 3901 H 381.977 5.90818 1.37911 0
M  V30 3902 H 380.716 4.64703 1.47996 0
M  V30 3903 H 379.721 5.456 -0.678272 0
M  V30 3904 H 380.946 6.74793 -0.763606 0
M  V30 3905 H 378.892 6.3971 1.45282 0
M  V30 3906 H 378.809 7.55812 0.168709 0
M  V30 3907 H 380.077 7.67687 1.35194 0
M  V30 3908 N 384.306 0.507319 1.49211 0
M  V30 3909 C 385.531 -0.033725 2.07373 0
M  V30 3910 C 385.956 -1.29485 1.36437 0
M  V30 3911 O 385.314 -1.76294 0.423087 0
M  V30 3912 C 385.362 -0.263945 3.59633 0
M  V30 3913 O 384.466 -1.33737 3.90113 0
M  V30 3914 H 383.807 0.0290331 0.663365 0
M  V30 3915 H 386.337 0.708749 1.91932 0
M  V30 3916 H 386.347 -0.493536 4.05004 0
M  V30 3917 H 385.022 0.657424 4.10671 0
M  V30 3918 H 383.599 -1.09224 3.56545 0
M  V30 3919 N 385.784 -1.5574 0.241426 0
M  V30 3920 C 387.031 -1.9881 -0.384836 0
M  V30 3921 C 387.359 -1.12947 -1.58346 0
M  V30 3922 O 386.614 -0.178993 -1.9488 0
M  V30 3923 C 386.913 -3.47308 -0.843317 0
M  V30 3924 C 386.579 -4.50223 0.246946 0
M  V30 3925 C 385.241 -4.78088 0.546399 0
M  V30 3926 C 387.593 -5.11841 0.983282 0
M  V30 3927 C 384.921 -5.64846 1.58636 0
M  V30 3928 C 387.273 -5.99727 2.01272 0
M  V30 3929 C 385.937 -6.25927 2.31888 0
M  V30 3930 H 385.207 -0.727496 -0.140821 0
M  V30 3931 H 387.854 -1.8831 0.348106 0
M  V30 3932 H 386.159 -3.55112 -1.65537 0
M  V30 3933 H 387.856 -3.78017 -1.33806 0
M  V30 3934 H 384.446 -4.286 0.00340639 0
M  V30 3935 H 388.63 -4.90366 0.765182 0
M  V30 3936 H 383.886 -5.83403 1.82896 0
M  V30 3937 H 388.06 -6.46517 2.58823 0
M  V30 3938 H 385.687 -6.92949 3.12611 0
M  V30 3939 N 387.262 0.0317525 -1.57568 0
M  V30 3940 C 388.172 1.05021 -2.0978 0
M  V30 3941 C 389.188 1.39809 -1.03583 0
M  V30 3942 O 390.364 1.49182 -1.35302 0
M  V30 3943 C 387.429 2.33301 -2.56459 0
M  V30 3944 C 386.49 2.0512 -3.77127 0
M  V30 3945 C 385.723 3.27283 -4.2157 0
M  V30 3946 O 385.946 4.37861 -3.65559 0
M  V30 3947 O 384.88 3.13141 -5.14029 0
M  V30 3948 H 388.706 0.636505 -2.96955 0
M  V30 3949 H 386.291 0.248559 -1.47318 0
M  V30 3950 H 388.173 3.08722 -2.86825 0
M  V30 3951 H 386.848 2.73973 -1.72397 0
M  V30 3952 H 385.755 1.27276 -3.51784 0
M  V30 3953 H 387.088 1.69305 -4.62165 0
M  V30 3954 N 388.74 1.54641 0.303973 0
M  V30 3955 C 390.156 1.45788 0.649463 0
M  V30 3956 C 390.356 0.64666 1.90842 0
M  V30 3957 O 389.412 0.153183 2.52035 0
M  V30 3958 C 390.725 2.89718 0.805227 0
M  V30 3959 C 392.273 2.99742 0.901305 0
M  V30 3960 C 392.748 4.44863 1.08909 0
M  V30 3961 N 394.239 4.48559 1.15536 0
M  V30 3962 C 394.974 5.58026 1.3189 0
M  V30 3963 N 394.47 6.77422 1.45161 0
M  V30 3964 N 396.263 5.45708 1.34755 0
M  V30 3965 H 388.414 2.05854 -0.523237 0
M  V30 3966 H 390.677 0.932186 -0.172431 0
M  V30 3967 H 390.383 3.51666 -0.0489108 0
M  V30 3968 H 390.257 3.36964 1.69513 0
M  V30 3969 H 392.644 2.3791 1.74593 0
M  V30 3970 H 392.725 2.55797 -0.0125531 0
M  V30 3971 H 392.369 5.07288 0.249241 0
M  V30 3972 H 392.299 4.86436 2.01713 0
M  V30 3973 H 394.79 3.6254 1.06646 0
M  V30 3974 H 395.103 7.56604 1.57387 0
M  V30 3975 H 393.448 6.80292 1.42223 0
M  V30 3976 H 396.639 4.51378 1.23996 0
M  V30 3977 H 396.812 6.3107 1.47157 0
M  V30 3978 N 390.218 -0.567019 1.47046 0
M  V30 3979 C 391.15 -1.68985 1.54844 0
M  V30 3980 C 392.163 -1.56869 0.435431 0
M  V30 3981 O 393.352 -1.64006 0.70457 0
M  V30 3982 C 390.452 -3.07373 1.42742 0
M  V30 3983 C 389.625 -3.45339 2.6844 0
M  V30 3984 C 388.684 -4.62849 2.50314 0
M  V30 3985 O 387.71 -4.67922 3.24095 0
M  V30 3986 N 388.912 -5.58726 1.57499 0
M  V30 3987 H 391.677 -1.62745 2.51663 0
M  V30 3988 H 389.238 -0.753411 1.43302 0
M  V30 3989 H 391.23 -3.83803 1.28365 0
M  V30 3990 H 389.8 -3.07893 0.540445 0
M  V30 3991 H 389.02 -2.58455 2.97648 0
M  V30 3992 H 390.308 -3.67476 3.51907 0
M  V30 3993 H 389.706 -5.57376 0.966876 0
M  V30 3994 H 388.263 -6.34523 1.49078 0
M  V30 3995 N 391.696 -1.35014 -0.812953 0
M  V30 3996 C 393.107 -1.25035 -1.38648 0
M  V30 3997 C 393.458 0.119967 -1.95833 0
M  V30 3998 O 392.583 1.02069 -1.90816 0
M  V30 3999 C 393.178 -2.26394 -2.52054 0
M  V30 4000 C 391.737 -2.20175 -3.05287 0
M  V30 4001 C 390.884 -2.12451 -1.78213 0
M  V30 4002 H 393.835 -1.46235 -0.616516 0
M  V30 4003 H 393.856 -1.88672 -3.30429 0
M  V30 4004 H 393.368 -3.26116 -2.10404 0
M  V30 4005 H 391.469 -1.23841 -3.51417 0
M  V30 4006 H 391.582 -3.11863 -3.63701 0
M  V30 4007 H 389.946 -1.58328 -1.9951 0
M  V30 4008 H 390.729 -3.14024 -1.38723 0
M  V30 4009 N 393.175 1.03435 -1.18907 0
M  V30 4010 C 394.138 2.09756 -0.923844 0
M  V30 4011 C 395.138 1.60528 0.093416 0
M  V30 4012 O 396.328 1.73631 -0.140727 0
M  V30 4013 C 393.46 3.38692 -0.387354 0
M  V30 4014 H 394.653 2.34719 -1.86674 0
M  V30 4015 H 392.206 1.19959 -1.00197 0
M  V30 4016 H 392.941 3.19396 0.561845 0
M  V30 4017 H 392.726 3.75742 -1.12074 0
M  V30 4018 H 394.216 4.17016 -0.220694 0
M  V30 4019 N 394.653 0.992116 1.22453 0
M  V30 4020 C 395.901 0.666215 1.90804 0
M  V30 4021 C 396.222 -0.804152 1.77647 0
M  V30 4022 O 395.492 -1.57629 1.16318 0
M  V30 4023 H 394.072 0.243423 0.706225 0
M  V30 4024 H 396.734 1.25845 1.48825 0
M  V30 4025 H 395.83 0.928069 2.97982 0
M  V30 4026 N 396.131 -1.37776 0.765217 0
M  V30 4027 C 397.094 -2.28686 0.153416 0
M  V30 4028 C 398.094 -1.47727 -0.635081 0
M  V30 4029 O 399.284 -1.68027 -0.459632 0
M  V30 4030 C 396.416 -3.31608 -0.790495 0
M  V30 4031 H 397.609 -2.84297 0.954723 0
M  V30 4032 H 395.162 -1.46932 0.53299 0
M  V30 4033 H 395.897 -2.81109 -1.61705 0
M  V30 4034 H 395.682 -3.9144 -0.227348 0
M  V30 4035 H 397.172 -3.99559 -1.21419 0
M  V30 4036 N 397.609 -0.515225 -1.4894 0
M  V30 4037 C 399.02 -0.0710067 -1.86565 0
M  V30 4038 C 399.371 1.34733 -1.42623 0
M  V30 4039 O 398.496 2.00653 -0.810379 0
M  V30 4040 C 399.091 -0.122083 -3.3858 0
M  V30 4041 C 397.65 0.266863 -3.75453 0
M  V30 4042 C 396.797 -0.488376 -2.72966 0
M  V30 4043 H 399.748 -0.727266 -1.41055 0
M  V30 4044 H 399.769 0.669818 -3.74558 0
M  V30 4045 H 399.281 -1.15448 -3.70531 0
M  V30 4046 H 397.382 1.30196 -3.49113 0
M  V30 4047 H 397.495 -0.0624811 -4.79059 0
M  V30 4048 H 395.859 0.0635622 -2.54621 0
M  V30 4049 H 396.642 -1.52113 -3.07761 0
M  V30 4050 N 399.087 1.5561 -0.249682 0
M  V30 4051 C 400.315 2.03411 0.378352 0
M  V30 4052 C 400.73 1.12886 1.51335 0
M  V30 4053 O 400.087 0.143833 1.81932 0
M  V30 4054 C 400.138 3.50537 0.88351 0
M  V30 4055 O 399.859 4.37614 -0.20626 0
M  V30 4056 C 401.36 4.14113 1.58195 0
M  V30 4057 H 398.58 0.664994 0.08958 0
M  V30 4058 H 401.124 2.01044 -0.374357 0
M  V30 4059 H 399.279 3.5343 1.58639 0
M  V30 4060 H 399.693 5.24199 0.177782 0
M  V30 4061 H 401.167 5.18741 1.8871 0
M  V30 4062 H 401.644 3.60767 2.50487 0
M  V30 4063 H 402.25 4.15151 0.923573 0
M  V30 4064 N 400.565 -0.0233959 1.57583 0
M  V30 4065 C 401.976 -0.56927 1.77809 0
M  V30 4066 C 402.327 -1.75284 0.881472 0
M  V30 4067 O 401.452 -2.1626 0.0777805 0
M  V30 4068 C 402.047 -1.03949 3.22459 0
M  V30 4069 C 400.606 -1.53084 3.43864 0
M  V30 4070 C 399.753 -0.471454 2.73263 0
M  V30 4071 H 402.704 0.202825 1.57399 0
M  V30 4072 H 402.725 -1.90661 3.29285 0
M  V30 4073 H 402.237 -0.177865 3.87692 0
M  V30 4074 H 400.338 -2.41414 2.83814 0
M  V30 4075 H 400.451 -1.57443 4.52491 0
M  V30 4076 H 398.815 -0.927788 2.37201 0
M  V30 4077 H 399.598 0.380808 3.41181 0
M  V30 4078 N 402.043 -1.548 -0.295768 0
M  V30 4079 C 403.291 -1.73985 -1.02828 0
M  V30 4080 C 403.612 -0.531406 -1.87619 0
M  V30 4081 O 402.882 0.454221 -1.90561 0
M  V30 4082 H 401.462 -0.641556 -0.382642 0
M  V30 4083 H 404.124 -1.92163 -0.325489 0
M  V30 4084 H 403.22 -2.63129 -1.67838 0
M  V30 4085 N 403.521 0.559213 -1.47345 0
M  V30 4086 C 404.769 1.31388 -1.53563 0
M  V30 4087 C 405.09 1.93985 -0.198678 0
M  V30 4088 O 404.36 1.79825 0.777167 0
M  V30 4089 H 402.94 0.487901 -0.565652 0
M  V30 4090 H 405.602 0.65315 -1.8363 0
M  V30 4091 H 404.698 2.10844 -2.30111 0
M  V30 4092 N 404.999 1.35443 0.805782 0
M  V30 4093 C 406.415 1.15499 1.10146 0
M  V30 4094 C 406.615 -0.0319975 2.01475 0
M  V30 4095 O 405.671 -0.70236 2.42535 0
M  V30 4096 C 406.984 2.45833 1.73166 0
M  V30 4097 C 408.532 2.52047 1.85583 0
M  V30 4098 C 409.007 3.82427 2.52019 0
M  V30 4099 N 410.498 3.83682 2.59504 0
M  V30 4100 C 411.233 4.81294 3.11679 0
M  V30 4101 N 410.729 5.89294 3.64287 0
M  V30 4102 N 412.522 4.6873 3.1024 0
M  V30 4103 H 404.673 2.11469 0.198678 0
M  V30 4104 H 406.936 0.93594 0.150731 0
M  V30 4105 H 406.642 3.32874 1.13526 0
M  V30 4106 H 406.516 2.6044 2.72857 0
M  V30 4107 H 408.903 1.65435 2.44367 0
M  V30 4108 H 408.984 2.41354 0.847455 0
M  V30 4109 H 408.628 4.69437 1.93885 0
M  V30 4110 H 408.558 3.90409 3.53395 0
M  V30 4111 H 411.049 3.05648 2.22234 0
M  V30 4112 H 411.362 6.59768 4.02401 0
M  V30 4113 H 409.707 5.92985 3.62483 0
M  V30 4114 H 412.898 3.83496 2.68419 0
M  V30 4115 H 413.071 5.44965 3.50596 0
M  V30 4116 N 406.477 -1.02803 1.19454 0
M  V30 4117 C 407.387 -2.14575 0.948408 0
M  V30 4118 C 408.403 -1.73757 -0.091871 0
M  V30 4119 O 409.579 -2.01185 0.0929654 0
M  V30 4120 C 406.644 -3.43202 0.491265 0
M  V30 4121 C 405.705 -3.98328 1.60103 0
M  V30 4122 C 404.938 -5.20816 1.16561 0
M  V30 4123 O 405.161 -5.70392 0.0295238 0
M  V30 4124 O 404.095 -5.68801 1.96849 0
M  V30 4125 H 407.921 -2.38202 1.88397 0
M  V30 4126 H 405.506 -1.12989 0.977433 0
M  V30 4127 H 407.388 -4.20687 0.245015 0
M  V30 4128 H 406.063 -3.21018 -0.415851 0
M  V30 4129 H 404.97 -3.22174 1.90144 0
M  V30 4130 H 406.303 -4.24879 2.48473 0
M  V30 4131 N 407.956 -0.998596 -1.21925 0
M  V30 4132 C 409.205 -0.673085 -1.90138 0
M  V30 4133 C 409.518 0.79895 -1.78539 0
M  V30 4134 O 410.724 1.23628 -2.4172 0
M  V30 4135 C 409.18 -1.15339 -3.40918 0
M  V30 4136 C 408.788 -2.65106 -3.61141 0
M  V30 4137 C 410.532 -0.902476 -4.14796 0
M  V30 4138 C 408.439 -3.0671 -5.05651 0
M  V30 4139 H 407.369 -0.248057 -0.712028 0
M  V30 4140 H 410.02 -1.20891 -1.38049 0
M  V30 4141 H 408.402 -0.545658 -3.92223 0
M  V30 4142 H 409.576 -3.31274 -3.20304 0
M  V30 4143 H 407.891 -2.88142 -3.00605 0
M  V30 4144 H 410.488 -1.18895 -5.21314 0
M  V30 4145 H 410.831 0.161349 -4.15987 0
M  V30 4146 H 411.364 -1.47269 -3.69536 0
M  V30 4147 H 408.103 -4.12292 -5.09603 0
M  V30 4148 H 407.623 -2.45249 -5.47369 0
M  V30 4149 H 409.302 -2.9833 -5.74115 0
M  V30 4150 N 409.434 1.37368 -0.772513 0
M  V30 4151 C 410.711 1.93839 -0.26188 0
M  V30 4152 C 411.091 1.7061 1.24319 0
M  V30 4153 O 410.439 1.05534 2.02669 0
M  V30 4154 C 410.649 3.43154 -0.636102 0
M  V30 4155 C 411.997 4.20249 -0.606324 0
M  V30 4156 O 413.021 3.5152 -0.575538 0
M  V30 4157 O 411.88 5.42809 -0.634086 0
M  V30 4158 H 408.974 0.82478 -0.0605555 0
M  V30 4159 H 411.52 1.4665 -0.853917 0
M  V30 4160 H 410.292 3.53647 -1.6748 0
M  V30 4161 H 409.915 3.97596 -0.0170516 0
M  V30 4162 N 410.912 0.523116 1.48665 0
M  V30 4163 C 412.16 -0.0134497 2.02096 0
M  V30 4164 C 412.481 -1.35418 1.40311 0
M  V30 4165 O 411.751 -1.87543 0.566074 0
M  V30 4166 H 410.331 -0.00795915 0.746958 0
M  V30 4167 H 412.993 0.685388 1.82451 0
M  V30 4168 H 412.089 -0.126849 3.11842 0
M  V30 4169 N 412.39 -1.55475 0.257931 0
M  V30 4170 C 413.801 -1.8511 -0.243135 0
M  V30 4171 C 414.152 -1.17986 -1.5676 0
M  V30 4172 O 413.277 -0.462102 -2.11409 0
M  V30 4173 C 413.872 -3.35826 -0.447929 0
M  V30 4174 C 412.431 -3.65647 -0.893245 0
M  V30 4175 C 411.578 -2.7729 0.0232965 0
M  V30 4176 H 414.529 -1.51261 0.480199 0
M  V30 4177 H 414.55 -3.58002 -1.28898 0
M  V30 4178 H 414.062 -3.84652 0.516196 0
M  V30 4179 H 412.163 -3.22308 -1.86945 0
M  V30 4180 H 412.276 -4.73312 -0.742469 0
M  V30 4181 H 410.64 -2.49942 -0.490021 0
M  V30 4182 H 411.423 -3.28926 0.982994 0
M  V30 4183 N 413.868 0.0150385 -1.57593 0
M  V30 4184 C 415.114 0.69849 -1.91031 0
M  V30 4185 C 415.469 1.72208 -0.85804 0
M  V30 4186 O 414.762 1.91147 0.131614 0
M  V30 4187 C 414.956 1.39686 -3.28972 0
M  V30 4188 C 414.785 0.442428 -4.47518 0
M  V30 4189 C 413.555 0.0583223 -5.05266 0
M  V30 4190 C 415.753 -0.285072 -5.13509 0
M  V30 4191 N 413.735 -0.895893 -6.07328 0
M  V30 4192 C 415.106 -1.09447 -6.10263 0
M  V30 4193 C 417.161 -0.350518 -4.96665 0
M  V30 4194 C 415.864 -1.96333 -6.91987 0
M  V30 4195 C 417.89 -1.20655 -5.78962 0
M  V30 4196 C 417.252 -2.00383 -6.75297 0
M  V30 4197 H 413.351 0.22926 -0.747639 0
M  V30 4198 H 415.935 -0.0417748 -1.94655 0
M  V30 4199 H 414.106 2.1075 -3.2625 0
M  V30 4200 H 415.838 2.03381 -3.49883 0
M  V30 4201 H 412.593 0.423506 -4.71703 0
M  V30 4202 H 413.017 -1.36792 -6.63036 0
M  V30 4203 H 417.659 0.251596 -4.22051 0
M  V30 4204 H 415.377 -2.57618 -7.65936 0
M  V30 4205 H 418.963 -1.2609 -5.67972 0
M  V30 4206 H 417.843 -2.65552 -7.3787 0
M  V30 4207 N 415.346 1.54954 0.287554 0
M  V30 4208 C 416.571 1.79209 1.04397 0
M  V30 4209 C 416.996 0.556431 1.79682 0
M  V30 4210 O 416.354 -0.493518 1.74454 0
M  V30 4211 C 416.402 3.00739 1.98969 0
M  V30 4212 O 415.506 2.74805 3.075 0
M  V30 4213 H 414.847 0.592755 0.299227 0
M  V30 4214 H 417.377 2.02068 0.320886 0
M  V30 4215 H 417.387 3.29077 2.4119 0
M  V30 4216 H 416.062 3.90329 1.43582 0
M  V30 4217 H 414.639 2.57523 2.69697 0
M  V30 4218 N 416.824 -0.551391 1.4764 0
M  V30 4219 C 418.24 -0.877887 1.33287 0
M  V30 4220 C 418.44 -1.98817 0.327721 0
M  V30 4221 O 417.496 -2.51171 -0.258695 0
M  V30 4222 C 418.809 -1.26563 2.72768 0
M  V30 4223 C 420.357 -1.37673 2.81097 0
M  V30 4224 C 420.832 -1.79799 4.21232 0
M  V30 4225 N 422.323 -1.8694 4.23802 0
M  V30 4226 C 423.058 -2.20876 5.29151 0
M  V30 4227 N 422.554 -2.53386 6.448 0
M  V30 4228 N 424.347 -2.217 5.16532 0
M  V30 4229 H 416.498 0.18153 2.11623 0
M  V30 4230 H 418.761 0.0185514 0.947818 0
M  V30 4231 H 418.467 -0.523591 3.47781 0
M  V30 4232 H 418.341 -2.22052 3.04915 0
M  V30 4233 H 420.728 -2.10956 2.06353 0
M  V30 4234 H 420.809 -0.40357 2.52596 0
M  V30 4235 H 420.453 -1.07083 4.96483 0
M  V30 4236 H 420.383 -2.78128 4.4716 0
M  V30 4237 H 422.874 -1.64179 3.40373 0
M  V30 4238 H 423.187 -2.78325 7.20941 0
M  V30 4239 H 421.532 -2.50953 6.48111 0
M  V30 4240 H 424.723 -1.95745 4.25207 0
M  V30 4241 H 424.896 -2.47818 5.98741 0
M  V30 4242 N 418.302 -1.35869 -0.798587 0
M  V30 4243 C 419.548 -1.2978 -1.55836 0
M  V30 4244 C 419.881 0.125322 -1.93795 0
M  V30 4245 O 419.156 1.07658 -1.61987 0
M  V30 4246 C 419.439 -2.21188 -2.84162 0
M  V30 4247 C 419.292 -3.72155 -2.52628 0
M  V30 4248 C 420.611 -2.11545 -3.85923 0
M  V30 4249 H 417.73 -0.472769 -0.565383 0
M  V30 4250 H 420.372 -1.66341 -0.918192 0
M  V30 4251 H 418.522 -1.90139 -3.38791 0
M  V30 4252 H 420.194 -4.13682 -2.04121 0
M  V30 4253 H 418.437 -3.92042 -1.85704 0
M  V30 4254 H 419.108 -4.31511 -3.44242 0
M  V30 4255 H 421.584 -2.38855 -3.40716 0
M  V30 4256 H 420.46 -2.77688 -4.73477 0
M  V30 4257 H 420.721 -1.09987 -4.282 0
M  V30 4258 N 419.78 1.02168 -1.19998 0
M  V30 4259 C 421.196 1.27969 -0.953737 0
M  V30 4260 C 421.396 1.98079 0.369703 0
M  V30 4261 O 420.452 2.27306 1.09947 0
M  V30 4262 C 421.765 2.11971 -2.13281 0
M  V30 4263 C 423.313 2.25255 -2.17323 0
M  V30 4264 C 423.788 3.12632 -3.34702 0
M  V30 4265 N 425.279 3.2022 -3.34684 0
M  V30 4266 C 426.014 3.88039 -4.22153 0
M  V30 4267 N 425.51 4.58027 -5.19791 0
M  V30 4268 N 427.303 3.84511 -4.10009 0
M  V30 4269 H 419.454 0.550794 -2.05134 0
M  V30 4270 H 421.717 0.305683 -0.897364 0
M  V30 4271 H 421.423 1.67785 -3.09097 0
M  V30 4272 H 421.297 3.12699 -2.10949 0
M  V30 4273 H 423.684 2.68667 -1.22073 0
M  V30 4274 H 423.765 1.24053 -2.23706 0
M  V30 4275 H 423.409 2.69926 -4.30235 0
M  V30 4276 H 423.339 4.13909 -3.25556 0
M  V30 4277 H 425.83 2.70382 -2.64012 0
M  V30 4278 H 426.143 5.07429 -5.82868 0
M  V30 4279 H 424.488 4.56869 -5.23733 0
M  V30 4280 H 427.679 3.28978 -3.33003 0
M  V30 4281 H 427.852 4.3709 -4.78389 0
M  V30 4282 N 421.258 1.00505 1.21394 0
M  V30 4283 C 422.505 0.687774 1.90462 0
M  V30 4284 C 422.833 -0.78147 1.7811 0
M  V30 4285 O 422.088 -1.58208 1.1519 0
M  V30 4286 C 422.387 1.0546 3.41486 0
M  V30 4287 C 422.053 2.51812 3.74034 0
M  V30 4288 C 420.715 2.91804 3.82628 0
M  V30 4289 C 423.067 3.46614 3.8924 0
M  V30 4290 C 420.395 4.2556 4.03876 0
M  V30 4291 C 422.747 4.80044 4.11995 0
M  V30 4292 C 421.411 5.19759 4.18816 0
M  V30 4293 H 420.681 0.251674 0.696951 0
M  V30 4294 H 423.328 1.26349 1.43903 0
M  V30 4295 H 421.633 0.397133 3.89782 0
M  V30 4296 H 423.33 0.786976 3.93202 0
M  V30 4297 H 419.92 2.1982 3.67936 0
M  V30 4298 H 424.104 3.16883 3.81967 0
M  V30 4299 H 419.36 4.55901 4.07387 0
M  V30 4300 H 423.534 5.53439 4.22704 0
M  V30 4301 H 421.161 6.23418 4.35033 0
M  V30 4302 N 422.737 -1.36956 0.779787 0
M  V30 4303 C 424.014 -1.93697 0.272156 0
M  V30 4304 C 424.394 -1.71267 -1.23413 0
M  V30 4305 O 423.742 -1.06607 -2.02107 0
M  V30 4306 C 423.952 -3.42812 0.654291 0
M  V30 4307 C 425.3 -4.19921 0.628602 0
M  V30 4308 O 426.324 -3.51209 0.594172 0
M  V30 4309 O 425.183 -5.42465 0.662864 0
M  V30 4310 H 422.277 -0.824447 0.0649286 0
M  V30 4311 H 424.823 -1.46196 0.861682 0
M  V30 4312 H 423.595 -3.52754 1.69353 0
M  V30 4313 H 423.218 -3.97582 0.0381369 0
M  V30 4314 N 424.215 -0.530993 -1.48385 0
M  V30 4315 C 425.464 0.00474348 -2.01699 0
M  V30 4316 C 425.777 1.35227 -1.41325 0
M  V30 4317 O 426.983 1.97643 -1.86144 0
M  V30 4318 C 425.439 0.0588473 -3.59852 0
M  V30 4319 C 425.047 -1.28385 -4.2921 0
M  V30 4320 C 426.791 0.543358 -4.21008 0
M  V30 4321 C 424.698 -1.19028 -5.79298 0
M  V30 4322 H 423.628 0.00554317 -0.75398 0
M  V30 4323 H 426.279 -0.674924 -1.70637 0
M  V30 4324 H 424.661 0.803612 -3.8776 0
M  V30 4325 H 425.835 -2.04426 -4.12973 0
M  V30 4326 H 424.15 -1.70418 -3.7993 0
M  V30 4327 H 426.747 0.631351 -5.3096 0
M  V30 4328 H 427.09 1.54937 -3.86394 0
M  V30 4329 H 427.623 -0.145754 -3.97533 0
M  V30 4330 H 424.362 -2.17147 -6.18488 0
M  V30 4331 H 423.882 -0.471246 -5.97946 0
M  V30 4332 H 425.561 -0.881365 -6.40969 0
M  V30 4333 N 425.693 1.55336 -0.266172 0
M  V30 4334 C 426.939 1.99692 0.353681 0
M  V30 4335 C 427.272 1.1543 1.56172 0
M  V30 4336 O 426.547 0.222218 1.93226 0
M  V30 4337 C 426.83 3.52316 0.74466 0
M  V30 4338 C 426.683 4.47337 -0.470101 0
M  V30 4339 C 428.002 4.10588 1.58447 0
M  V30 4340 H 425.121 0.725961 0.12708 0
M  V30 4341 H 427.763 1.86336 -0.371333 0
M  V30 4342 H 425.913 3.63829 1.36239 0
M  V30 4343 H 427.585 4.4778 -1.10864 0
M  V30 4344 H 425.828 4.19364 -1.10978 0
M  V30 4345 H 426.499 5.51788 -0.15291 0
M  V30 4346 H 428.975 4.02297 1.06286 0
M  V30 4347 H 427.851 5.17607 1.82686 0
M  V30 4348 H 428.112 3.60253 2.56262 0
M  V30 4349 N 427.171 -0.0066808 1.57599 0
M  V30 4350 C 428.101 -0.999296 2.11036 0
M  V30 4351 C 429.082 -1.36278 1.01795 0
M  V30 4352 O 430.267 -1.4477 1.29442 0
M  V30 4353 C 427.397 -2.29328 2.60818 0
M  V30 4354 C 426.351 -2.07159 3.74525 0
M  V30 4355 C 425.677 -3.42512 4.10596 0
M  V30 4356 C 426.977 -1.43959 5.02069 0
M  V30 4357 H 428.671 -0.554382 2.94223 0
M  V30 4358 H 426.217 -0.265221 1.41536 0
M  V30 4359 H 428.17 -2.99117 2.96828 0
M  V30 4360 H 426.894 -2.7592 1.74745 0
M  V30 4361 H 425.553 -1.39797 3.38899 0
M  V30 4362 H 425.201 -3.86795 3.21556 0
M  V30 4363 H 424.901 -3.28498 4.87199 0
M  V30 4364 H 426.425 -4.13628 4.4916 0
M  V30 4365 H 427.839 -2.03696 5.35893 0
M  V30 4366 H 426.236 -1.40452 5.83432 0
M  V30 4367 H 427.306 -0.407992 4.83181 0
M  V30 4368 N 428.649 -1.55105 -0.279332 0
M  V30 4369 C 429.612 -1.86783 -1.32834 0
M  V30 4370 C 430.612 -0.74199 -1.42657 0
M  V30 4371 O 431.802 -1.0102 -1.41918 0
M  V30 4372 C 428.934 -2.06746 -2.71052 0
M  V30 4373 H 430.127 -2.8055 -1.05979 0
M  V30 4374 H 427.68 -1.47499 -0.517087 0
M  V30 4375 H 428.415 -1.15339 -3.03097 0
M  V30 4376 H 428.2 -2.88711 -2.65309 0
M  V30 4377 H 429.69 -2.32549 -3.46858 0
M  V30 4378 N 430.127 0.543554 -1.4793 0
M  V30 4379 C 431.538 1.12561 -1.48953 0
M  V30 4380 C 431.889 1.94578 -0.251754 0
M  V30 4381 O 431.014 2.0665 0.642255 0
M  V30 4382 C 431.609 2.04801 -2.69892 0
M  V30 4383 C 430.168 2.58251 -2.73831 0
M  V30 4384 C 429.315 1.34918 -2.42265 0
M  V30 4385 H 432.266 0.32947 -1.55242 0
M  V30 4386 H 432.287 2.88886 -2.47639 0
M  V30 4387 H 431.799 1.4508 -3.59963 0
M  V30 4388 H 429.9 3.21732 -1.87934 0
M  V30 4389 H 430.013 2.98312 -3.74895 0
M  V30 4390 H 428.377 1.66046 -1.93134 0
M  V30 4391 H 429.16 0.769693 -3.3456 0
M  V30 4392 N 431.605 1.3629 0.791371 0
M  V30 4393 C 432.568 1.30309 1.88553 0
M  V30 4394 C 433.568 0.211204 1.59407 0
M  V30 4395 O 434.758 0.465865 1.67855 0
M  V30 4396 C 431.89 1.01956 3.25297 0
M  V30 4397 H 433.083 2.27614 1.95273 0
M  V30 4398 H 430.636 1.21035 0.988953 0
M  V30 4399 H 431.371 0.050998 3.2426 0
M  V30 4400 H 431.156 1.80968 3.4784 0
M  V30 4401 H 432.646 1.0037 4.05359 0
M  V30 4402 O 433.122 -0.93083 1.31977 0
M  V30 4403 H 433.813 -1.56227 1.14512 0
M  V30 END ATOM
M  V30 BEGIN BOND
M  V30 END BOND
M  V30 END CTAB
M  END
$$$$
