drugbank_target|Q5R2K6 P-type Ca2+-transporting ATPase (DB11638)
 OpenBabel12092121093D

  0  0  0     0  0            999 V3000
M  V30 BEGIN CTAB
M  V30 COUNTS 19663 19843 0 0 0
M  V30 BEGIN ATOM
M  V30 1 H -0.908 1.98254 -0.117106 0
M  V30 2 N 0 1.576 0 0
M  V30 3 C 0.933 2.03868 1.02534 0
M  V30 4 C 1.911 0.928543 1.3348 0
M  V30 5 O 3.095 1.19667 1.45644 0
M  V30 6 C 0.222 2.43627 2.35294 0
M  V30 7 C -0.732 3.65373 2.2001 0
M  V30 8 S 0.101 5.13292 1.52614 0
M  V30 9 C 1.257 5.56322 2.86805 0
M  V30 10 H 1.49 2.90518 0.631377 0
M  V30 11 H -0.977 1.52953 0.210867 0
M  V30 12 H 0.981 2.67203 3.11629 0
M  V30 13 H -0.358 1.57376 2.7183 0
M  V30 14 H -1.165 3.90944 3.18086 0
M  V30 15 H -1.563 3.418 1.51819 0
M  V30 16 H 0.729 5.58782 3.83104 0
M  V30 17 H 1.672 6.56266 2.65933 0
M  V30 18 H 2.08 4.83886 2.90714 0
M  V30 19 N 1.4781 -0.272755 1.55222 0
M  V30 20 C 2.3881 -1.35918 1.91216 0
M  V30 21 C 3.4041 -1.54026 0.809436 0
M  V30 22 O 4.5801 -1.68148 1.10852 0
M  V30 23 C 1.6451 -2.69834 2.17693 0
M  V30 24 C 0.7061 -2.6047 3.41253 0
M  V30 25 C -0.0609 -3.88 3.66458 0
M  V30 26 O 0.1621 -4.88693 2.94169 0
M  V30 27 O -0.9039 -3.88189 4.59992 0
M  V30 28 H 2.9221 -1.0839 2.83699 0
M  V30 29 H 0.5071 -0.471301 1.41771 0
M  V30 30 H 2.3891 -3.49017 2.36147 0
M  V30 31 H 1.0641 -2.97148 1.28392 0
M  V30 32 H -0.0289 -1.79663 3.28134 0
M  V30 33 H 1.3041 -2.38106 4.30774 0
M  V30 34 N 2.9562 -1.48159 -0.537278 0
M  V30 35 C 3.8662 -1.64807 -1.6696 0
M  V30 36 C 4.8822 -0.530651 -1.65711 0
M  V30 37 O 6.0582 -0.800784 -1.84796 0
M  V30 38 C 3.1232 -1.67708 -3.03438 0
M  V30 39 C 2.1842 -2.91025 -3.156 0
M  V30 40 C 1.4172 -2.93778 -4.45567 0
M  V30 41 O 1.6402 -2.05153 -5.3223 0
M  V30 42 O 0.5742 -3.85868 -4.61941 0
M  V30 43 H 4.4002 -2.6066 -1.55853 0
M  V30 44 H 1.9852 -1.31475 -0.709549 0
M  V30 45 H 3.8672 -1.7218 -3.84619 0
M  V30 46 H 2.5422 -0.750278 -3.14885 0
M  V30 47 H 1.4492 -2.92089 -2.33741 0
M  V30 48 H 2.7822 -3.83065 -3.09066 0
M  V30 49 N 4.4343 0.785586 -1.36625 0
M  V30 50 C 5.6803 1.54591 -1.31261 0
M  V30 51 C 6.0133 1.93906 0.106823 0
M  V30 52 O 5.2883 1.63007 1.06108 0
M  V30 53 C 5.5713 2.82038 -2.23889 0
M  V30 54 C 5.4243 2.49066 -3.74548 0
M  V30 55 C 6.7433 3.83887 -2.15217 0
M  V30 56 H 3.8623 0.560846 -0.478143 0
M  V30 57 H 6.5043 0.902278 -1.67209 0
M  V30 58 H 4.6543 3.36961 -1.93363 0
M  V30 59 H 6.3263 2.00164 -4.15611 0
M  V30 60 H 4.5693 1.81954 -3.93796 0
M  V30 61 H 5.2403 3.40109 -4.34776 0
M  V30 62 H 7.7163 3.38421 -2.42096 0
M  V30 63 H 6.5923 4.70806 -2.82193 0
M  V30 64 H 6.8533 4.27131 -1.14068 0
M  V30 65 N 5.9124 1.20967 1.01018 0
M  V30 66 C 7.1614 1.01796 1.74128 0
M  V30 67 C 7.4744 -0.449691 1.90361 0
M  V30 68 O 8.6804 -0.76068 2.60626 0
M  V30 69 C 7.1364 1.7727 3.13215 0
M  V30 70 C 6.7444 3.28171 3.04972 0
M  V30 71 C 8.4884 1.66489 3.90489 0
M  V30 72 C 6.3954 3.96156 4.39107 0
M  V30 73 H 5.3254 0.377276 0.652824 0
M  V30 74 H 7.9764 1.44651 1.12909 0
M  V30 75 H 6.3584 1.27205 3.75013 0
M  V30 76 H 7.5324 3.85499 2.52443 0
M  V30 77 H 5.8474 3.39437 2.41188 0
M  V30 78 H 8.4444 2.14617 4.89738 0
M  V30 79 H 8.7874 0.6222 4.11624 0
M  V30 80 H 9.3204 2.14003 3.35332 0
M  V30 81 H 6.0594 5.00604 4.23174 0
M  V30 82 H 5.5794 3.43617 4.91617 0
M  V30 83 H 7.2584 4.00774 5.07926 0
M  V30 84 N 7.3905 -1.2043 1.01659 0
M  V30 85 C 8.3375 -2.23215 0.586822 0
M  V30 86 C 9.3075 -1.61382 -0.393085 0
M  V30 87 O 10.4925 -1.88544 -0.292525 0
M  V30 88 C 7.6325 -3.45032 -0.0687464 0
M  V30 89 C 6.7455 -4.21296 0.955724 0
M  V30 90 C 5.8805 -5.30507 0.271208 0
M  V30 91 C 4.9195 -5.98515 1.28244 0
M  V30 92 N 4.0565 -6.99316 0.62459 0
M  V30 93 H 8.8965 -2.59336 1.46796 0
M  V30 94 H 6.4335 -1.27431 0.734836 0
M  V30 95 H 8.3915 -4.1459 -0.465965 0
M  V30 96 H 7.0215 -3.09604 -0.913529 0
M  V30 97 H 6.0735 -3.50803 1.4711 0
M  V30 98 H 7.3855 -4.6803 1.72479 0
M  V30 99 H 6.5395 -6.06428 -0.18151 0
M  V30 100 H 5.2785 -4.8481 -0.530163 0
M  V30 101 H 4.2835 -5.21355 1.74554 0
M  V30 102 H 5.5085 -6.46298 2.08509 0
M  V30 103 H 3.4545 -6.55812 -0.156914 0
M  V30 104 H 3.3715 -7.44178 1.33172 0
M  V30 105 H 4.6395 -7.79255 0.195462 0
M  V30 106 N 8.8686 -0.792821 -1.36206 0
M  V30 107 C 9.8166 -0.181555 -2.3189 0
M  V30 108 C 10.8106 0.661025 -1.55971 0
M  V30 109 O 12.0166 0.555728 -1.71206 0
M  V30 110 H 8.3916 -0.0399382 -0.750939 0
M  V30 111 H 10.3626 -1.00394 -2.81005 0
M  V30 112 C 9.1116 0.666444 -3.41253 0
M  V30 113 H 8.4346 0.0274489 -3.99791 0
M  V30 114 H 9.8746 1.06076 -4.10517 0
M  V30 115 C 8.3336 1.82614 -2.83114 0
M  V30 116 O 8.8636 2.9229 -2.75553 0
M  V30 117 N 7.0696 1.63333 -2.40356 0
M  V30 118 H 6.6166 0.741217 -2.46706 0
M  V30 119 H 6.5746 2.41087 -2.01803 0
M  V30 120 N 10.3467 1.47872 -0.545128 0
M  V30 121 C 11.3097 2.28337 0.198717 0
M  V30 122 C 12.3097 1.36255 0.853888 0
M  V30 123 O 13.4997 1.59003 0.711606 0
M  V30 124 C 10.6317 3.15585 1.28915 0
M  V30 125 H 11.8247 2.95567 -0.507941 0
M  V30 126 H 9.3777 1.53362 -0.301616 0
M  V30 127 H 10.1127 2.53019 2.02859 0
M  V30 128 H 9.8977 3.83337 0.824309 0
M  V30 129 H 11.3877 3.76243 1.81194 0
M  V30 130 N 11.8248 0.280983 1.55075 0
M  V30 131 C 12.7748 -0.618585 2.19448 0
M  V30 132 C 13.7588 -1.11401 1.16098 0
M  V30 133 O 14.9508 -1.0581 1.41891 0
M  V30 134 C 12.0798 -1.79951 2.92357 0
M  V30 135 C 11.1658 -1.321 4.03002 0
M  V30 136 N 11.5568 -0.559044 5.02701 0
M  V30 137 C 9.8548 -1.60346 4.16179 0
M  V30 138 C 10.5558 -0.306722 5.80891 0
M  V30 139 N 9.5318 -0.880825 5.36416 0
M  V30 140 H 13.3338 -0.0286638 2.93886 0
M  V30 141 H 10.8478 0.0848104 1.62178 0
M  V30 142 H 12.8448 -2.45531 3.36927 0
M  V30 143 H 11.5048 -2.39333 2.19431 0
M  V30 144 H 12.5158 -0.205827 5.17491 0
M  V30 145 H 9.1928 -2.20621 3.54447 0
M  V30 146 H 10.5828 0.30391 6.71212 0
M  V30 147 N 13.3029 -1.57598 0.00835791 0
M  V30 148 C 14.5309 -1.95214 -0.68549 0
M  V30 149 C 14.9459 -0.883706 -1.66841 0
M  V30 150 O 14.3029 0.136565 -1.81988 0
M  V30 151 C 14.3539 -3.32865 -1.41007 0
M  V30 152 O 14.0749 -4.35609 -0.466552 0
M  V30 153 C 15.5759 -3.84991 -2.19765 0
M  V30 154 H 12.7959 -0.643422 -0.190392 0
M  V30 155 H 15.3399 -2.04406 0.0619607 0
M  V30 156 H 13.4949 -3.24956 -2.10908 0
M  V30 157 H 13.9089 -5.15288 -0.978699 0
M  V30 158 H 15.3829 -4.8371 -2.65948 0
M  V30 159 H 15.8599 -3.18137 -3.02796 0
M  V30 160 H 16.4659 -3.96103 -1.54864 0
M  V30 161 N 14.781 0.264519 -1.55364 0
M  V30 162 C 16.011 1.01153 -1.80143 0
M  V30 163 C 16.419 1.80115 -0.579253 0
M  V30 164 O 15.762 1.77813 0.46132 0
M  V30 165 C 15.824 2.01098 -2.97993 0
M  V30 166 C 15.488 1.40995 -4.34706 0
M  V30 167 C 16.485 0.821316 -5.13372 0
M  V30 168 C 14.17 1.43461 -4.81378 0
M  V30 169 C 16.164 0.265339 -6.36847 0
M  V30 170 C 13.851 0.874771 -6.04807 0
M  V30 171 C 14.849 0.291146 -6.82379 0
M  V30 172 O 14.537 -0.260093 -8.03479 0
M  V30 173 H 14.269 0.304125 -0.603725 0
M  V30 174 H 16.823 0.298089 -2.03225 0
M  V30 175 H 15.053 2.76224 -2.70623 0
M  V30 176 H 16.742 2.61997 -3.1002 0
M  V30 177 H 17.508 0.794903 -4.78442 0
M  V30 178 H 13.387 1.87826 -4.21002 0
M  V30 179 H 16.931 -0.190837 -6.97339 0
M  V30 180 H 12.828 0.898452 -6.39217 0
M  V30 181 H 13.596 -0.150265 -8.18362 0
M  V30 182 N 16.2591 1.48442 0.529413 0
M  V30 183 C 17.5361 1.46978 1.29062 0
M  V30 184 C 17.9161 0.181769 2.10316 0
M  V30 185 O 17.2641 -0.836481 2.12639 0
M  V30 186 C 17.4741 2.7321 2.17157 0
M  V30 187 C 18.8221 3.21562 2.77278 0
M  V30 188 O 19.8461 2.74131 2.27444 0
M  V30 189 O 18.7051 4.04094 3.67927 0
M  V30 190 H 15.7991 0.587003 0.582543 0
M  V30 191 H 18.3451 1.60676 0.546021 0
M  V30 192 H 17.1171 3.58465 1.56903 0
M  V30 193 H 16.7401 2.62235 2.98862 0
M  V30 194 N 17.7372 -0.778329 1.37039 0
M  V30 195 C 18.9832 -1.53892 1.32079 0
M  V30 196 C 19.3162 -1.9396 -0.0965386 0
M  V30 197 O 18.5912 -1.63568 -1.05242 0
M  V30 198 C 18.8742 -2.80847 2.25382 0
M  V30 199 C 18.7272 -2.47076 3.75864 0
M  V30 200 C 20.0462 -3.82741 2.1725 0
M  V30 201 H 17.1652 -0.558303 0.48111 0
M  V30 202 H 19.8072 -0.893397 1.67685 0
M  V30 203 H 17.9572 -3.35931 1.95148 0
M  V30 204 H 19.6292 -1.97957 4.16666 0
M  V30 205 H 17.8722 -1.79863 3.94755 0
M  V30 206 H 18.5432 -3.37798 4.36574 0
M  V30 207 H 21.0192 -3.37133 2.43887 0
M  V30 208 H 19.8952 -4.69303 2.84686 0
M  V30 209 H 20.1562 -4.2652 1.16331 0
M  V30 210 N 19.2153 -1.21501 -1.00376 0
M  V30 211 C 20.1253 -0.991447 -2.12621 0
M  V30 212 C 21.1413 0.0568446 -1.73907 0
M  V30 213 O 22.3173 -0.13348 -2.00957 0
M  V30 214 C 19.3823 -0.560312 -3.42142 0
M  V30 215 C 18.4433 -1.68096 -3.95022 0
M  V30 216 C 17.6763 -1.2703 -5.18362 0
M  V30 217 O 17.8993 -0.144438 -5.70217 0
M  V30 218 O 16.8333 -2.08269 -5.64719 0
M  V30 219 H 20.6593 -1.93158 -2.34358 0
M  V30 220 H 18.2443 -0.999999 -1.10997 0
M  V30 221 H 20.1263 -0.329724 -4.20108 0
M  V30 222 H 18.8013 0.351089 -3.2179 0
M  V30 223 H 17.7083 -1.96597 -3.18278 0
M  V30 224 H 19.0413 -2.56983 -4.19786 0
M  V30 225 N 20.6934 1.19889 -1.02296 0
M  V30 226 C 21.9704 1.85148 -0.630832 0
M  V30 227 C 22.3504 1.91385 0.890782 0
M  V30 228 O 21.6984 1.42642 1.78509 0
M  V30 229 C 21.9084 3.24442 -1.28602 0
M  V30 230 C 23.2564 4.00663 -1.4055 0
M  V30 231 O 24.2804 3.33818 -1.24273 0
M  V30 232 O 23.1394 5.20387 -1.66913 0
M  V30 233 H 20.2334 0.797613 -0.218499 0
M  V30 234 H 22.7794 1.27427 -1.12074 0
M  V30 235 H 21.5514 3.14704 -2.32545 0
M  V30 236 H 21.1744 3.89802 -0.7836 0
M  V30 237 N 22.1715 0.800033 1.35784 0
M  V30 238 C 23.4175 0.377901 1.99248 0
M  V30 239 C 23.7505 -1.05052 1.63333 0
M  V30 240 O 23.0255 -1.72768 0.893385 0
M  V30 241 C 23.3085 0.553922 3.55814 0
M  V30 242 C 23.1615 2.0268 4.01548 0
M  V30 243 C 24.4805 -0.0244802 4.40093 0
M  V30 244 H 21.5995 0.138782 0.723815 0
M  V30 245 H 24.2415 1.00835 1.61035 0
M  V30 246 H 22.3915 0.0172398 3.88496 0
M  V30 247 H 24.0635 2.62536 3.79305 0
M  V30 248 H 22.3065 2.5256 3.52698 0
M  V30 249 H 22.9775 2.10087 5.10458 0
M  V30 250 H 25.4535 0.433775 4.13833 0
M  V30 251 H 24.3295 0.128637 5.48749 0
M  V30 252 H 24.5905 -1.11758 4.27741 0
M  V30 253 N 23.6496 -1.47581 0.552962 0
M  V30 254 C 24.5796 -2.32762 -0.185451 0
M  V30 255 C 25.5606 -1.43527 -0.912905 0
M  V30 256 O 26.7456 -1.72388 -0.894201 0
M  V30 257 C 23.8756 -3.25219 -1.21859 0
M  V30 258 C 22.8296 -4.23661 -0.607864 0
M  V30 259 C 22.1556 -5.05413 -1.74533 0
M  V30 260 C 23.4556 -5.20481 0.435582 0
M  V30 261 H 25.1496 -2.94749 0.525684 0
M  V30 262 H 22.6956 -1.41738 0.254251 0
M  V30 263 H 24.6486 -3.8365 -1.7433 0
M  V30 264 H 23.3726 -2.61279 -1.95961 0
M  V30 265 H 22.0316 -3.66451 -0.104489 0
M  V30 266 H 21.6796 -4.3788 -2.47529 0
M  V30 267 H 21.3796 -5.72059 -1.34249 0
M  V30 268 H 22.9036 -5.66701 -2.27338 0
M  V30 269 H 24.3176 -5.733 -0.00290157 0
M  V30 270 H 22.7146 -5.95305 0.757067 0
M  V30 271 H 23.7846 -4.66217 1.33303 0
M  V30 272 N 25.1277 -0.289203 -1.54924 0
M  V30 273 C 26.0747 0.592115 -2.23075 0
M  V30 274 C 27.0447 1.13881 -1.20915 0
M  V30 275 O 28.2297 1.18551 -1.495 0
M  V30 276 C 25.3697 1.76376 -2.96623 0
M  V30 277 C 24.4827 1.24959 -4.13533 0
M  V30 278 C 23.6177 2.38416 -4.74691 0
M  V30 279 C 22.6567 1.84072 -5.83767 0
M  V30 280 N 21.7937 2.91057 -6.38929 0
M  V30 281 H 26.6337 0.00432038 -2.98 0
M  V30 282 H 24.1707 -0.00963529 -1.47097 0
M  V30 283 H 26.1287 2.45268 -3.3749 0
M  V30 284 H 24.7587 2.32337 -2.24097 0
M  V30 285 H 23.8107 0.453307 -3.77689 0
M  V30 286 H 25.1227 0.811662 -4.92152 0
M  V30 287 H 24.2767 3.15276 -5.18349 0
M  V30 288 H 23.0157 2.8553 -3.95378 0
M  V30 289 H 22.0207 1.05697 -5.39545 0
M  V30 290 H 23.2457 1.37877 -6.64956 0
M  V30 291 H 21.1917 3.37526 -5.62505 0
M  V30 292 H 21.1087 2.51724 -7.12861 0
M  V30 293 H 22.3767 3.6785 -6.87246 0
M  V30 294 N 26.6058 1.57591 -0.0167156 0
M  V30 295 C 27.8528 1.91283 0.664597 0
M  V30 296 C 28.1808 0.891949 1.72842 0
M  V30 297 O 27.4358 -0.100931 1.9544 0
M  V30 298 C 27.7348 3.3172 1.33029 0
M  V30 299 C 27.4008 4.4914 0.398047 0
M  V30 300 C 26.0628 4.80992 0.141421 0
M  V30 301 C 28.4148 5.20634 -0.242825 0
M  V30 302 C 25.7428 5.81703 -0.764092 0
M  V30 303 C 28.0948 6.22311 -1.13632 0
M  V30 304 C 26.7588 6.52611 -1.40196 0
M  V30 305 H 26.0288 0.699956 0.243193 0
M  V30 306 H 28.6758 1.9135 -0.0758267 0
M  V30 307 H 26.9808 3.27856 2.14517 0
M  V30 308 H 28.6778 3.55055 1.86379 0
M  V30 309 H 25.2678 4.24262 0.608238 0
M  V30 310 H 29.4518 4.96267 -0.0576019 0
M  V30 311 H 24.7078 6.03532 -0.977732 0
M  V30 312 H 28.8818 6.76834 -1.63917 0
M  V30 313 H 26.5088 7.30467 -2.10529 0
M  V30 314 N 28.0839 -0.256276 1.55502 0
M  V30 315 C 29.0139 -1.32102 1.92539 0
M  V30 316 C 29.9949 -1.50684 0.789194 0
M  V30 317 O 31.1799 -1.63449 1.04872 0
M  V30 318 C 28.3099 -2.67752 2.21192 0
M  V30 319 C 27.2639 -2.63878 3.36975 0
M  V30 320 C 26.5899 -4.03236 3.51147 0
M  V30 321 C 27.8899 -2.21682 4.72921 0
M  V30 322 H 29.5839 -1.01351 2.81724 0
M  V30 323 H 27.1299 -0.486105 1.35547 0
M  V30 324 H 29.0829 -3.42365 2.45691 0
M  V30 325 H 27.8069 -3.0012 1.28824 0
M  V30 326 H 26.4659 -1.91722 3.12471 0
M  V30 327 H 26.1139 -4.32854 2.56216 0
M  V30 328 H 25.8139 -4.01535 4.29003 0
M  V30 329 H 27.3379 -4.79563 3.77957 0
M  V30 330 H 28.7519 -2.86023 4.96854 0
M  V30 331 H 27.1489 -2.3111 5.53812 0
M  V30 332 H 28.2189 -1.16833 4.70615 0
M  V30 333 N 29.562 -1.4872 -0.521534 0
M  V30 334 C 30.839 -1.4766 -1.2828 0
M  V30 335 C 31.219 -0.19292 -2.10217 0
M  V30 336 O 30.567 0.825193 -2.13079 0
M  V30 337 C 30.777 -2.74358 -2.15705 0
M  V30 338 C 32.125 -3.23028 -2.75569 0
M  V30 339 O 33.149 -2.75333 -2.25987 0
M  V30 340 O 32.008 -4.0604 -3.65778 0
M  V30 341 H 29.102 -0.590085 -0.579421 0
M  V30 342 H 31.648 -1.60963 -0.537492 0
M  V30 343 H 30.42 -3.59292 -1.54999 0
M  V30 344 H 30.043 -2.63816 -2.97467 0
M  V30 345 N 31.0401 0.771051 -1.3745 0
M  V30 346 C 32.2861 1.5319 -1.32894 0
M  V30 347 C 32.6191 1.94008 0.0862511 0
M  V30 348 O 31.8941 1.64124 1.04373 0
M  V30 349 C 32.1771 2.79648 -2.26868 0
M  V30 350 C 32.0301 2.45079 -3.77169 0
M  V30 351 C 33.3491 3.81583 -2.19277 0
M  V30 352 H 30.4681 0.555744 -0.484064 0
M  V30 353 H 33.1101 0.884492 -1.68157 0
M  V30 354 H 31.2601 3.34891 -1.96926 0
M  V30 355 H 32.9321 1.95745 -4.1771 0
M  V30 356 H 31.1751 1.77767 -3.95704 0
M  V30 357 H 31.8461 3.35478 -4.38359 0
M  V30 358 H 34.3221 3.35835 -2.45671 0
M  V30 359 H 33.1981 4.67787 -2.87171 0
M  V30 360 H 33.4591 4.25897 -1.18592 0
M  V30 361 N 32.5182 1.22032 0.997298 0
M  V30 362 C 33.4662 0.983634 2.10778 0
M  V30 363 C 34.4602 -0.0717564 1.69248 0
M  V30 364 O 35.6662 0.080304 1.79821 0
M  V30 365 H 32.0412 0.300877 0.689186 0
M  V30 366 H 34.0122 1.92606 2.27916 0
M  V30 367 C 32.7612 0.57326 3.42942 0
M  V30 368 H 32.0842 1.37702 3.75338 0
M  V30 369 H 33.5242 0.447031 4.21637 0
M  V30 370 C 31.9832 -0.7167 3.29188 0
M  V30 371 O 32.5132 -1.77027 3.60589 0
M  V30 372 N 30.7192 -0.686167 2.82383 0
M  V30 373 H 30.2662 0.171507 2.57028 0
M  V30 374 H 30.2242 -1.54955 2.73562 0
M  V30 375 N 33.9963 -1.19345 1.0293 0
M  V30 376 C 34.9433 -2.2258 0.610464 0
M  V30 377 C 35.9133 -1.6179 -0.375946 0
M  V30 378 O 37.0983 -1.88844 -0.272511 0
M  V30 379 C 34.2383 -3.45085 -0.0321473 0
M  V30 380 C 33.3513 -4.20258 1.00035 0
M  V30 381 C 32.4863 -5.3019 0.32746 0
M  V30 382 C 31.5253 -5.97121 1.34584 0
M  V30 383 N 30.6623 -6.98615 0.698726 0
M  V30 384 H 35.5023 -2.57764 1.49538 0
M  V30 385 H 33.0393 -1.26644 0.748311 0
M  V30 386 H 34.9973 -4.15061 -0.421966 0
M  V30 387 H 33.6273 -3.10555 -0.88064 0
M  V30 388 H 32.6793 -3.49223 1.50823 0
M  V30 389 H 33.9913 -4.66175 1.77433 0
M  V30 390 H 33.1453 -6.06587 -0.11718 0
M  V30 391 H 31.8843 -4.85345 -0.478713 0
M  V30 392 H 30.8893 -5.19474 1.80074 0
M  V30 393 H 32.1143 -6.4405 2.15352 0
M  V30 394 H 30.0603 -6.55942 -0.0873471 0
M  V30 395 H 29.9773 -7.42724 1.41058 0
M  V30 396 H 31.2453 -7.79004 0.278102 0
M  V30 397 N 35.4744 -0.807222 -1.35358 0
M  V30 398 C 36.7514 -0.311126 -1.9311 0
M  V30 399 C 37.1314 1.19937 -1.73719 0
M  V30 400 O 36.4794 1.99918 -1.10657 0
M  V30 401 C 36.6894 -0.723226 -3.41424 0
M  V30 402 C 38.0374 -0.713078 -4.18569 0
M  V30 403 O 39.0614 -0.664811 -3.49941 0
M  V30 404 O 37.9204 -0.772022 -5.41019 0
M  V30 405 H 35.0144 -0.081526 -0.822972 0
M  V30 406 H 37.5604 -0.890962 -1.4443 0
M  V30 407 H 36.3324 -1.76426 -3.4927 0
M  V30 408 H 35.9554 -0.118232 -3.97424 0
M  V30 409 N 36.9525 1.47285 -0.560781 0
M  V30 410 C 37.9005 2.31756 0.197942 0
M  V30 411 C 38.8945 1.43146 0.905854 0
M  V30 412 O 40.1005 1.59891 0.826733 0
M  V30 413 H 36.4755 0.747438 0.0827049 0
M  V30 414 H 38.4465 2.9359 -0.533629 0
M  V30 415 C 37.1955 3.25874 1.21249 0
M  V30 416 H 36.5185 3.94023 0.67719 0
M  V30 417 H 37.9585 3.87803 1.71419 0
M  V30 418 C 36.4175 2.49651 2.26221 0
M  V30 419 O 36.9475 2.24355 3.33208 0
M  V30 420 N 35.1535 2.10597 2.00243 0
M  V30 421 H 34.7005 2.31369 1.13252 0
M  V30 422 H 34.6585 1.59913 2.70694 0
M  V30 423 N 38.4306 0.297415 1.54768 0
M  V30 424 C 39.6786 -0.312295 1.99673 0
M  V30 425 C 39.9996 -1.54686 1.18732 0
M  V30 426 O 39.2696 -1.93854 0.282382 0
M  V30 427 H 37.8496 -0.118381 0.73756 0
M  V30 428 H 40.5116 0.407915 1.90583 0
M  V30 429 H 39.6076 -0.586813 3.06534 0
M  V30 430 N 39.9087 -1.5758 0.0250728 0
M  V30 431 C 40.8387 -2.13007 -0.956575 0
M  V30 432 C 41.8197 -1.0452 -1.342 0
M  V30 433 O 43.0047 -1.32332 -1.42133 0
M  V30 434 C 40.1347 -2.65386 -2.24026 0
M  V30 435 C 39.0887 -3.78623 -1.99571 0
M  V30 436 C 38.4147 -4.17414 -3.3417 0
M  V30 437 C 39.7147 -5.04867 -1.33814 0
M  V30 438 H 41.4087 -2.9528 -0.494991 0
M  V30 439 H 38.9547 -1.42042 -0.236651 0
M  V30 440 H 40.9077 -3.02794 -2.93076 0
M  V30 441 H 39.6317 -1.80268 -2.72343 0
M  V30 442 H 38.2907 -3.41646 -1.32941 0
M  V30 443 H 37.9387 -3.29284 -3.80238 0
M  V30 444 H 37.6387 -4.93719 -3.18615 0
M  V30 445 H 39.1627 -4.57402 -4.04495 0
M  V30 446 H 40.5767 -5.39888 -1.92857 0
M  V30 447 H 38.9737 -5.86144 -1.28669 0
M  V30 448 H 40.0437 -4.83904 -0.310561 0
M  V30 449 N 41.3868 0.248026 -1.55636 0
M  V30 450 C 42.3338 1.30707 -1.90222 0
M  V30 451 C 43.3038 1.47881 -0.756332 0
M  V30 452 O 44.4888 1.61883 -1.00988 0
M  V30 453 C 41.6288 2.65769 -2.20138 0
M  V30 454 C 40.7418 2.56612 -3.47526 0
M  V30 455 C 39.8768 3.8402 -3.67017 0
M  V30 456 C 38.9158 3.69476 -4.8801 0
M  V30 457 N 38.0528 4.88774 -5.04029 0
M  V30 458 H 42.8928 1.00512 -2.80538 0
M  V30 459 H 40.4298 0.485055 -1.38873 0
M  V30 460 H 42.3878 3.44386 -2.35487 0
M  V30 461 H 41.0178 2.94115 -1.33027 0
M  V30 462 H 40.0698 1.69571 -3.40514 0
M  V30 463 H 41.3818 2.41774 -4.36287 0
M  V30 464 H 40.5358 4.7108 -3.8232 0
M  V30 465 H 39.2748 4.01754 -2.76487 0
M  V30 466 H 38.2798 2.80799 -4.72686 0
M  V30 467 H 39.5048 3.53238 -5.8 0
M  V30 468 H 37.4508 5.0687 -4.16435 0
M  V30 469 H 37.3678 4.76562 -5.86877 0
M  V30 470 H 38.6358 5.77335 -5.23741 0
M  V30 471 N 42.8649 1.48995 0.513639 0
M  V30 472 C 43.8129 1.65199 1.63744 0
M  V30 473 C 44.8069 0.51809 1.61283 0
M  V30 474 O 46.0129 0.697335 1.65943 0
M  V30 475 H 42.3879 0.52069 0.542574 0
M  V30 476 H 44.3589 2.59552 1.47226 0
M  V30 477 C 43.1079 1.72409 3.01945 0
M  V30 478 H 42.4309 2.59029 3.04539 0
M  V30 479 H 43.8709 1.87785 3.80148 0
M  V30 480 C 42.3299 0.46618 3.33659 0
M  V30 481 O 42.8599 -0.413744 3.99564 0
M  V30 482 N 41.0659 0.332931 2.88687 0
M  V30 483 H 40.6129 1.04996 2.35231 0
M  V30 484 H 40.5709 -0.507665 3.10274 0
M  V30 485 N 44.343 -0.763751 1.37857 0
M  V30 486 C 45.253 -1.90817 1.36478 0
M  V30 487 C 46.269 -1.71997 0.263248 0
M  V30 488 O 47.445 -1.95095 0.499979 0
M  V30 489 C 44.51 -3.2605 1.17864 0
M  V30 490 C 43.571 -3.57467 2.3773 0
M  V30 491 C 42.804 -4.86249 2.19995 0
M  V30 492 O 43.027 -5.57884 1.18836 0
M  V30 493 O 41.961 -5.16911 3.08361 0
M  V30 494 H 45.787 -1.94933 2.32884 0
M  V30 495 H 43.372 -0.907619 1.1867 0
M  V30 496 H 45.254 -4.06924 1.09504 0
M  V30 497 H 43.929 -3.22769 0.245372 0
M  V30 498 H 42.836 -2.76796 2.51664 0
M  V30 499 H 44.169 -3.655 3.29652 0
M  V30 500 N 45.8211 -1.22559 -0.990812 0
M  V30 501 C 46.7311 -1.01394 -2.11557 0
M  V30 502 C 47.7471 0.0383962 -1.73958 0
M  V30 503 O 48.9231 -0.154787 -2.00804 0
M  V30 504 C 45.9881 -0.596569 -3.41529 0
M  V30 505 C 45.0491 -1.72276 -3.93217 0
M  V30 506 C 44.2821 -1.32521 -5.16985 0
M  V30 507 O 44.5051 -0.204909 -5.70032 0
M  V30 508 O 43.4391 -2.14247 -5.62478 0
M  V30 509 H 47.2651 -1.95633 -2.32296 0
M  V30 510 H 44.8501 -1.01172 -1.0993 0
M  V30 511 H 46.7321 -0.374263 -4.19735 0
M  V30 512 H 45.4071 0.316939 -3.22145 0
M  V30 513 H 44.3141 -1.99961 -3.16174 0
M  V30 514 H 45.6471 -2.61421 -4.17037 0
M  V30 515 N 47.2992 1.18797 -1.03562 0
M  V30 516 C 48.2292 2.24472 -0.643019 0
M  V30 517 C 49.2102 1.66433 0.351283 0
M  V30 518 O 50.3952 1.92803 0.232505 0
M  V30 519 C 47.5252 3.473 4.24935e-05 0
M  V30 520 C 46.4792 4.18055 -0.917257 0
M  V30 521 C 45.8052 5.34519 -0.138941 0
M  V30 522 C 47.1052 4.72109 -2.23407 0
M  V30 523 H 48.7992 2.57566 -1.52643 0
M  V30 524 H 46.3452 1.23806 -0.735394 0
M  V30 525 H 48.2982 4.20426 0.286383 0
M  V30 526 H 47.0222 3.13424 0.918299 0
M  V30 527 H 45.6812 3.46821 -1.1879 0
M  V30 528 H 45.3292 4.96891 0.781562 0
M  V30 529 H 45.0292 5.82794 -0.750005 0
M  V30 530 H 46.5532 6.10438 0.1405 0
M  V30 531 H 47.9672 5.36955 -2.00879 0
M  V30 532 H 46.3642 5.30897 -2.79765 0
M  V30 533 H 47.4342 3.89807 -2.88407 0
M  V30 534 N 48.7773 0.814389 1.34928 0
M  V30 535 C 50.0543 0.321363 1.92942 0
M  V30 536 C 50.4343 -1.19014 1.74353 0
M  V30 537 O 49.7823 -1.99328 1.11716 0
M  V30 538 C 49.9923 0.741323 3.41036 0
M  V30 539 C 51.3403 0.735266 4.18185 0
M  V30 540 O 52.3643 0.68336 3.49584 0
M  V30 541 O 51.2233 0.800703 5.40602 0
M  V30 542 H 48.3173 0.0858893 0.822528 0
M  V30 543 H 50.8633 0.898609 1.43955 0
M  V30 544 H 49.6353 1.78276 3.4833 0
M  V30 545 H 49.2583 0.139307 3.97356 0
M  V30 546 N 50.2554 -1.46986 0.568584 0
M  V30 547 C 51.5324 -1.95592 -0.0174074 0
M  V30 548 C 51.9124 -1.51124 -1.47393 0
M  V30 549 O 51.2604 -0.755329 -2.15655 0
M  V30 550 C 51.4704 -3.48719 0.139913 0
M  V30 551 C 52.8184 -4.246 0.000426376 0
M  V30 552 O 53.8424 -3.56135 0.0680316 0
M  V30 553 O 52.7014 -5.46302 -0.146988 0
M  V30 554 H 49.7954 -0.82498 -0.0577599 0
M  V30 555 H 52.3414 -1.57335 0.635909 0
M  V30 556 H 51.1134 -3.73927 1.15301 0
M  V30 557 H 50.7364 -3.93771 -0.550491 0
M  V30 558 N 51.7335 -0.305618 -1.54608 0
M  V30 559 C 53.1495 0.0476228 -1.59529 0
M  V30 560 C 53.3495 1.52025 -1.32252 0
M  V30 561 O 52.4055 2.27368 -1.09818 0
M  V30 562 C 53.7185 -0.354471 -2.98603 0
M  V30 563 C 55.2665 -0.303622 -3.11524 0
M  V30 564 C 55.7415 -0.680608 -4.52915 0
M  V30 565 N 57.2325 -0.63332 -4.5885 0
M  V30 566 C 57.9675 -0.897432 -5.66334 0
M  V30 567 N 57.4635 -1.22775 -6.81834 0
M  V30 568 N 59.2565 -0.824186 -5.56025 0
M  V30 569 H 51.4075 -1.2653 -1.70599 0
M  V30 570 H 53.6705 -0.513291 -0.797017 0
M  V30 571 H 53.3765 -1.3798 -3.23503 0
M  V30 572 H 53.2505 0.289568 -3.76087 0
M  V30 573 H 55.6375 0.712472 -2.8637 0
M  V30 574 H 55.7185 -0.982348 -2.36185 0
M  V30 575 H 55.3625 -1.69453 -4.78799 0
M  V30 576 H 55.2925 0.0202385 -5.26596 0
M  V30 577 H 57.7835 -0.389138 -3.75891 0
M  V30 578 H 58.0965 -1.41513 -7.59733 0
M  V30 579 H 56.4415 -1.26583 -6.83375 0
M  V30 580 H 59.6325 -0.565748 -4.64669 0
M  V30 581 H 59.8055 -1.03338 -6.39707 0
M  V30 582 N 53.2116 1.57565 -0.0334293 0
M  V30 583 C 54.6276 1.56297 0.322997 0
M  V30 584 C 54.8276 1.03945 1.7262 0
M  V30 585 O 53.8836 0.688109 2.42943 0
M  V30 586 C 55.1966 3.00232 0.167664 0
M  V30 587 C 56.7446 3.12078 0.240107 0
M  V30 588 C 57.2196 4.57859 0.113513 0
M  V30 589 N 58.7106 4.62887 0.170359 0
M  V30 590 C 59.4456 5.73319 0.0962517 0
M  V30 591 N 58.9416 6.92794 -0.0291881 0
M  V30 592 N 60.7346 5.61898 0.150551 0
M  V30 593 H 52.8856 1.89923 -0.950956 0
M  V30 594 H 55.1486 0.873824 -0.367608 0
M  V30 595 H 54.8546 3.42501 -0.799102 0
M  V30 596 H 54.7286 3.654 0.936083 0
M  V30 597 H 57.1156 2.69718 1.19733 0
M  V30 598 H 57.1966 2.49623 -0.558763 0
M  V30 599 H 56.8406 5.009 -0.840314 0
M  V30 600 H 56.7706 5.18299 0.931302 0
M  V30 601 H 59.2616 3.76954 0.26728 0
M  V30 602 H 59.5746 7.7276 -0.0789252 0
M  V30 603 H 57.9196 6.94971 -0.0640299 0
M  V30 604 H 61.1106 4.67448 0.246981 0
M  V30 605 H 61.2836 6.47938 0.0893365 0
M  V30 606 N 54.6897 -0.239769 1.55765 0
M  V30 607 C 55.6197 -1.30052 1.9393 0
M  V30 608 C 56.6007 -1.49839 0.805132 0
M  V30 609 O 57.7857 -1.62328 1.06599 0
M  V30 610 C 54.9157 -2.65391 2.2402 0
M  V30 611 C 53.8697 -2.60289 3.39755 0
M  V30 612 C 53.1957 -3.99489 3.55405 0
M  V30 613 C 54.4957 -2.16654 4.75246 0
M  V30 614 H 56.1897 -0.983573 2.82783 0
M  V30 615 H 53.7357 -0.471701 1.36055 0
M  V30 616 H 55.6887 -3.3974 2.49308 0
M  V30 617 H 54.4127 -2.98736 1.32 0
M  V30 618 H 53.0717 -1.88398 3.14487 0
M  V30 619 H 52.7197 -4.30112 2.60793 0
M  V30 620 H 52.4197 -3.96962 4.33238 0
M  V30 621 H 53.9437 -4.75528 3.83022 0
M  V30 622 H 55.3577 -2.80737 4.99859 0
M  V30 623 H 53.7547 -2.25223 5.56232 0
M  V30 624 H 54.8247 -1.11835 4.71827 0
M  V30 625 N 56.1678 -1.49265 -0.50573 0
M  V30 626 C 57.1148 -1.65585 -1.6078 0
M  V30 627 C 58.0848 -0.497396 -1.58478 0
M  V30 628 O 59.2698 -0.72385 -1.76536 0
M  V30 629 C 56.4098 -1.72408 -2.98948 0
M  V30 630 C 55.5228 -2.99525 -3.11301 0
M  V30 631 C 54.6578 -2.97356 -4.40174 0
M  V30 632 C 53.6968 -4.19074 -4.46143 0
M  V30 633 N 52.8338 -4.14841 -5.66437 0
M  V30 634 H 57.6738 -2.59688 -1.46172 0
M  V30 635 H 55.2108 -1.28761 -0.711261 0
M  V30 636 H 57.1688 -1.74344 -3.79025 0
M  V30 637 H 55.7988 -0.817753 -3.1227 0
M  V30 638 H 54.8508 -3.07222 -2.24318 0
M  V30 639 H 56.1628 -3.89518 -3.11572 0
M  V30 640 H 55.3168 -2.97829 -5.28567 0
M  V30 641 H 54.0558 -2.05133 -4.42461 0
M  V30 642 H 53.0608 -4.1885 -3.56153 0
M  V30 643 H 54.2858 -5.12483 -4.45575 0
M  V30 644 H 52.2318 -3.25453 -5.69575 0
M  V30 645 H 52.1488 -4.98564 -5.68304 0
M  V30 646 H 53.4168 -4.1941 -6.57051 0
M  V30 647 N 57.6459 0.756429 -1.3826 0
M  V30 648 C 58.8759 1.54341 -1.3734 0
M  V30 649 C 59.2839 1.89159 0.0393917 0
M  V30 650 O 58.6269 1.5307 1.01565 0
M  V30 651 C 58.6889 2.87238 -2.16182 0
M  V30 652 C 58.3529 2.74973 -3.65019 0
M  V30 653 C 59.3499 2.44962 -4.58574 0
M  V30 654 C 57.0349 2.92515 -4.08338 0
M  V30 655 C 59.0289 2.32642 -5.93428 0
M  V30 656 C 56.7159 2.79815 -5.43274 0
M  V30 657 C 57.7139 2.49921 -6.35632 0
M  V30 658 O 57.4019 2.37275 -7.68086 0
M  V30 659 H 57.1339 0.484281 -0.471643 0
M  V30 660 H 59.6879 0.944152 -1.82414 0
M  V30 661 H 57.9179 3.49342 -1.65822 0
M  V30 662 H 59.6069 3.48731 -2.07705 0
M  V30 663 H 60.3729 2.31081 -4.26412 0
M  V30 664 H 56.2519 3.14781 -3.368 0
M  V30 665 H 59.7959 2.0923 -6.65484 0
M  V30 666 H 55.6929 2.93269 -5.75034 0
M  V30 667 H 56.4609 2.52509 -7.78577 0
M  V30 668 N 59.124 1.23083 0.984299 0
M  V30 669 C 60.372 1.05848 1.72165 0
M  V30 670 C 60.693 -0.406049 1.90726 0
M  V30 671 O 59.963 -1.29139 1.47309 0
M  V30 672 H 58.543 0.388685 0.637913 0
M  V30 673 H 61.205 1.54736 1.18503 0
M  V30 674 H 60.301 1.54327 2.71274 0
M  V30 675 N 60.6021 -1.18246 1.0419 0
M  V30 676 C 61.5321 -2.24127 0.654914 0
M  V30 677 C 62.5131 -1.66617 -0.342451 0
M  V30 678 O 63.6981 -1.92924 -0.222277 0
M  V30 679 C 60.8281 -3.47295 0.0183757 0
M  V30 680 C 59.7821 -4.17563 0.939414 0
M  V30 681 C 59.1081 -5.34438 0.167286 0
M  V30 682 C 60.4081 -4.70917 2.25908 0
M  V30 683 H 62.1021 -2.56753 1.54007 0
M  V30 684 H 59.6481 -1.23414 0.74195 0
M  V30 685 H 61.6011 -4.20572 -0.264082 0
M  V30 686 H 60.3251 -3.13907 -0.901664 0
M  V30 687 H 58.9841 -3.46186 1.20628 0
M  V30 688 H 58.6321 -4.97298 -0.7552 0
M  V30 689 H 58.3321 -5.82388 0.780901 0
M  V30 690 H 59.8561 -6.10504 -0.108125 0
M  V30 691 H 61.2701 -5.35882 2.03724 0
M  V30 692 H 59.6671 -5.29406 2.82577 0
M  V30 693 H 60.7371 -3.88272 2.9047 0
M  V30 694 N 62.0802 -0.821533 -1.34494 0
M  V30 695 C 63.0282 -0.230702 -2.31453 0
M  V30 696 C 64.0222 0.627793 -1.57338 0
M  V30 697 O 65.2282 0.519288 -1.72347 0
M  V30 698 H 61.6032 -0.0558577 -0.749923 0
M  V30 699 H 63.5742 -1.06332 -2.78812 0
M  V30 700 C 62.3232 0.59391 -3.4259 0
M  V30 701 H 61.6462 -0.0573588 -3.99759 0
M  V30 702 H 63.0862 0.973446 -4.12674 0
M  V30 703 C 61.5452 1.76568 -2.86924 0
M  V30 704 O 62.0752 2.8638 -2.81691 0
M  V30 705 N 60.2812 1.58198 -2.43766 0
M  V30 706 H 59.8282 0.68872 -2.48222 0
M  V30 707 H 59.7862 2.36752 -2.06871 0
M  V30 708 N 63.5583 1.46682 -0.576371 0
M  V30 709 C 64.4683 2.34032 0.163141 0
M  V30 710 C 65.4843 1.49367 0.892501 0
M  V30 711 O 66.6603 1.82252 0.857106 0
M  V30 712 C 63.7253 3.26435 1.16795 0
M  V30 713 C 62.7863 4.26998 0.443944 0
M  V30 714 C 62.0193 5.14986 1.40088 0
M  V30 715 O 62.2423 5.05785 2.637 0
M  V30 716 O 61.1763 5.94906 0.914917 0
M  V30 717 H 65.0023 2.98607 -0.55388 0
M  V30 718 H 62.5873 1.45554 -0.336821 0
M  V30 719 H 64.4693 3.83459 1.74748 0
M  V30 720 H 63.1443 2.64465 1.86655 0
M  V30 721 H 62.0513 3.7368 -0.177271 0
M  V30 722 H 63.3843 4.91736 -0.213566 0
M  V30 723 N 65.0364 0.313813 1.54444 0
M  V30 724 C 65.9664 -0.549454 2.26943 0
M  V30 725 C 66.9474 -1.12741 1.27372 0
M  V30 726 O 68.1324 -1.15436 1.56167 0
M  V30 727 C 65.2624 -1.71523 3.01989 0
M  V30 728 C 64.2164 -1.26703 4.08816 0
M  V30 729 C 63.5424 -2.51898 4.71647 0
M  V30 730 C 64.8424 -0.388962 5.2085 0
M  V30 731 H 66.5364 0.0552661 2.99349 0
M  V30 732 H 64.0824 0.0280207 1.43973 0
M  V30 733 H 66.0354 -2.32535 3.51433 0
M  V30 734 H 64.7594 -2.34639 2.27183 0
M  V30 735 H 63.4184 -0.679896 3.6024 0
M  V30 736 H 63.0664 -3.13356 3.93468 0
M  V30 737 H 62.7664 -2.22605 5.43802 0
M  V30 738 H 64.2904 -3.1369 5.23861 0
M  V30 739 H 65.7044 -0.905107 5.6611 0
M  V30 740 H 64.1014 -0.18924 5.99802 0
M  V30 741 H 65.1714 0.582699 4.81386 0
M  V30 742 N 66.5145 -1.57545 0.0417849 0
M  V30 743 C 67.4245 -2.14451 -0.951213 0
M  V30 744 C 68.4405 -1.09992 -1.34825 0
M  V30 745 O 69.6165 -1.42114 -1.42708 0
M  V30 746 C 66.6815 -2.67063 -2.21084 0
M  V30 747 C 65.7425 -3.86284 -1.87304 0
M  V30 748 C 64.9755 -4.36378 -3.07261 0
M  V30 749 O 65.1985 -3.85587 -4.20332 0
M  V30 750 O 64.1325 -5.28077 -2.88822 0
M  V30 751 H 67.9585 -2.99601 -0.497287 0
M  V30 752 H 65.5435 -1.48317 -0.179567 0
M  V30 753 H 67.4255 -3.00914 -2.95006 0
M  V30 754 H 66.1005 -1.84989 -2.65633 0
M  V30 755 H 65.0075 -3.57338 -1.10727 0
M  V30 756 H 66.3405 -4.6956 -1.47562 0
M  V30 757 N 67.9926 0.231505 -1.5589 0
M  V30 758 C 69.2386 0.95877 -1.78705 0
M  V30 759 C 69.5716 1.8438 -0.609725 0
M  V30 760 O 68.8466 1.90521 0.391426 0
M  V30 761 C 69.1296 1.8062 -3.11526 0
M  V30 762 C 68.9826 0.948328 -4.39689 0
M  V30 763 C 70.3016 2.78585 -3.40703 0
M  V30 764 H 67.4206 0.347129 -0.650131 0
M  V30 765 H 70.0626 0.228259 -1.88624 0
M  V30 766 H 68.2126 2.42902 -3.03201 0
M  V30 767 H 69.8846 0.343016 -4.60023 0
M  V30 768 H 68.1276 0.253314 -4.3306 0
M  V30 769 H 68.7986 1.57543 -5.29041 0
M  V30 770 H 71.2746 2.26439 -3.49091 0
M  V30 771 H 70.1506 3.34988 -4.34826 0
M  V30 772 H 70.4116 3.55825 -2.62375 0
M  V30 773 N 69.4707 1.49531 0.497807 0
M  V30 774 C 70.3807 1.69176 1.62532 0
M  V30 775 C 71.3967 0.5744 1.64246 0
M  V30 776 O 72.5727 0.849497 1.82608 0
M  V30 777 C 69.6377 1.75695 2.98885 0
M  V30 778 C 68.6987 2.9929 3.07773 0
M  V30 779 C 67.9317 3.05488 4.37622 0
M  V30 780 O 68.1547 2.19192 5.26603 0
M  V30 781 O 67.0887 3.9798 4.51548 0
M  V30 782 H 70.9147 2.647 1.48887 0
M  V30 783 H 68.4997 1.3331 0.674441 0
M  V30 784 H 70.3817 1.82317 3.79919 0
M  V30 785 H 69.0567 0.8335 3.12785 0
M  V30 786 H 67.9637 2.98183 2.25915 0
M  V30 787 H 69.2967 3.91125 2.98801 0
M  V30 788 N 70.9488 -0.749086 1.3866 0
M  V30 789 C 71.8958 -1.86291 1.36251 0
M  V30 790 C 72.8658 -1.64578 0.224347 0
M  V30 791 O 74.0508 -1.86181 0.417279 0
M  V30 792 C 71.1908 -3.23644 1.19786 0
M  V30 793 C 70.3038 -3.57158 2.43027 0
M  V30 794 C 69.4388 -4.83838 2.19258 0
M  V30 795 C 68.4778 -5.10152 3.38247 0
M  V30 796 N 67.6148 -6.28029 3.13884 0
M  V30 797 H 72.4548 -1.87685 2.3147 0
M  V30 798 H 69.9918 -0.917287 1.14997 0
M  V30 799 H 71.9498 -4.0291 1.08254 0
M  V30 800 H 70.5798 -3.21566 0.282031 0
M  V30 801 H 69.6318 -2.72701 2.65214 0
M  V30 802 H 70.9438 -3.7253 3.31697 0
M  V30 803 H 70.0978 -5.71057 2.04888 0
M  V30 804 H 68.8368 -4.70614 1.2796 0
M  V30 805 H 67.8418 -4.21401 3.53131 0
M  V30 806 H 69.0668 -5.25271 4.30427 0
M  V30 807 H 67.0128 -6.1612 2.25238 0
M  V30 808 H 66.9298 -6.43922 3.96106 0
M  V30 809 H 68.1978 -7.18124 3.03179 0
M  V30 810 N 72.4269 -1.23603 -0.977757 0
M  V30 811 C 73.3739 -1.01954 -2.07061 0
M  V30 812 C 74.3439 0.0638697 -1.65977 0
M  V30 813 O 75.5289 -0.0887624 -1.90593 0
M  V30 814 C 72.6689 -0.619658 -3.39491 0
M  V30 815 C 71.7819 -1.77547 -3.93829 0
M  V30 816 C 70.9169 -1.32212 -5.14484 0
M  V30 817 C 69.9559 -2.44852 -5.60994 0
M  V30 818 N 69.0929 -2.00456 -6.72876 0
M  V30 819 H 73.9329 -1.95495 -2.24913 0
M  V30 820 H 71.4699 -0.973861 -1.10247 0
M  V30 821 H 73.4279 -0.368898 -4.15566 0
M  V30 822 H 72.0579 0.278752 -3.21594 0
M  V30 823 H 71.1099 -2.14016 -3.14486 0
M  V30 824 H 72.4219 -2.62219 -4.24314 0
M  V30 825 H 71.5759 -1.02965 -5.97899 0
M  V30 826 H 70.3149 -0.445808 -4.85658 0
M  V30 827 H 69.3199 -2.74871 -4.76157 0
M  V30 828 H 70.5449 -3.33024 -5.91837 0
M  V30 829 H 68.4909 -1.15208 -6.45804 0
M  V30 830 H 68.4079 -2.78687 -7.02759 0
M  V30 831 H 69.6759 -1.7432 -7.59758 0
M  V30 832 N 73.905 1.17692 -1.04816 0
M  V30 833 C 74.852 2.21581 -0.645797 0
M  V30 834 C 75.822 1.62367 0.350159 0
M  V30 835 O 77.007 1.89254 0.242433 0
M  V30 836 C 74.147 3.45092 -0.0227568 0
M  V30 837 C 73.26 4.18613 -1.06709 0
M  V30 838 C 72.395 5.29602 -0.411767 0
M  V30 839 C 71.434 5.94904 -1.44067 0
M  V30 840 N 70.571 6.97414 -0.809781 0
M  V30 841 H 75.411 2.55353 -1.5362 0
M  V30 842 H 72.948 1.25438 -0.768364 0
M  V30 843 H 74.906 4.15679 0.35588 0
M  V30 844 H 73.536 3.11917 0.831122 0
M  V30 845 H 72.588 3.46779 -1.5636 0
M  V30 846 H 73.9 4.63293 -1.84827 0
M  V30 847 H 73.054 6.06696 0.0206623 0
M  V30 848 H 71.793 4.86045 0.401438 0
M  V30 849 H 70.798 5.16544 -1.88316 0
M  V30 850 H 72.023 6.40542 -2.25571 0
M  V30 851 H 69.969 6.55998 -0.0170186 0
M  V30 852 H 69.886 7.40386 -1.52856 0
M  V30 853 H 71.154 7.78463 -0.401999 0
M  V30 854 N 75.3831 0.828654 1.34056 0
M  V30 855 C 76.6081 0.431637 2.02859 0
M  V30 856 C 77.0331 -0.956339 1.61975 0
M  V30 857 O 76.3911 -1.62338 0.807228 0
M  V30 858 C 76.4391 0.548323 3.56407 0
M  V30 859 O 75.5431 -0.429556 4.10157 0
M  V30 860 H 74.8841 0.176886 0.640006 0
M  V30 861 H 77.4141 1.12066 1.71179 0
M  V30 862 H 77.4241 0.426196 4.05768 0
M  V30 863 H 76.0991 1.5606 3.8551 0
M  V30 864 H 74.6761 -0.265836 3.71951 0
M  V30 865 N 76.8612 -1.46375 0.584142 0
M  V30 866 C 78.1102 -2.01585 0.0679741 0
M  V30 867 C 78.4232 -1.46109 -1.30045 0
M  V30 868 O 79.6292 -1.93148 -1.90804 0
M  V30 869 C 78.0852 -3.5983 0.0709207 0
M  V30 870 C 77.6932 -4.24303 1.43775 0
M  V30 871 C 79.4372 -4.22693 -0.391228 0
M  V30 872 C 77.3442 -5.74631 1.39834 0
M  V30 873 H 76.2742 -0.753689 0.0216421 0
M  V30 874 H 78.9252 -1.68093 0.736001 0
M  V30 875 H 77.3072 -3.90405 -0.663299 0
M  V30 876 H 78.4812 -4.05335 2.19181 0
M  V30 877 H 76.7962 -3.73539 1.84004 0
M  V30 878 H 79.3932 -5.3289 -0.439524 0
M  V30 879 H 79.7362 -3.91728 -1.40906 0
M  V30 880 H 80.2692 -3.96749 0.288974 0
M  V30 881 H 77.0082 -6.10258 2.39303 0
M  V30 882 H 76.5282 -5.95858 0.686505 0
M  V30 883 H 78.2072 -6.37375 1.11187 0
M  V30 884 N 78.3393 -0.321999 -1.54275 0
M  V30 885 C 79.5863 0.281044 -2.0054 0
M  V30 886 C 79.9143 1.52265 -1.21019 0
M  V30 887 O 79.1693 1.93687 -0.279982 0
M  V30 888 C 79.4683 0.661769 -3.5122 0
M  V30 889 C 79.1343 -0.480482 -4.48333 0
M  V30 890 C 77.7963 -0.794005 -4.74604 0
M  V30 891 C 80.1483 -1.24783 -5.06042 0
M  V30 892 C 77.4763 -1.87763 -5.55844 0
M  V30 893 C 79.8283 -2.32153 -5.88462 0
M  V30 894 C 78.4923 -2.64089 -6.13036 0
M  V30 895 H 77.7623 0.102841 -0.733829 0
M  V30 896 H 80.4093 -0.445453 -1.86247 0
M  V30 897 H 78.7143 1.46867 -3.63232 0
M  V30 898 H 80.4113 1.13989 -3.84457 0
M  V30 899 H 77.0013 -0.226039 -4.28004 0
M  V30 900 H 81.1853 -1.01887 -4.85729 0
M  V30 901 H 76.4413 -2.12954 -5.73115 0
M  V30 902 H 80.6153 -2.92057 -6.32199 0
M  V30 903 H 78.2423 -3.48185 -6.75775 0
M  V30 904 N 79.8174 1.5752 -0.0501392 0
M  V30 905 C 80.7274 2.14952 0.939827 0
M  V30 906 C 81.7434 1.10706 1.34239 0
M  V30 907 O 82.9194 1.42869 1.41952 0
M  V30 908 C 79.9844 2.68232 2.19665 0
M  V30 909 C 79.0454 3.87272 1.85253 0
M  V30 910 C 78.2784 4.38002 3.04943 0
M  V30 911 O 78.5014 3.87811 4.18281 0
M  V30 912 O 77.4354 5.29602 2.86017 0
M  V30 913 H 81.2614 2.9986 0.481392 0
M  V30 914 H 78.8464 1.4841 0.171699 0
M  V30 915 H 80.7284 3.02475 2.93406 0
M  V30 916 H 79.4034 1.86395 2.64648 0
M  V30 917 H 78.3104 3.5792 1.0883 0
M  V30 918 H 79.6434 4.70336 1.4507 0
M  V30 919 N 81.2955 -0.223234 1.56011 0
M  V30 920 C 82.2255 -1.27988 1.95298 0
M  V30 921 C 83.2065 -1.48976 0.820979 0
M  V30 922 O 84.3915 -1.61188 1.08315 0
M  V30 923 C 81.5215 -2.63 2.26822 0
M  V30 924 C 80.4755 -2.56671 3.42497 0
M  V30 925 C 79.8015 -3.95697 3.59622 0
M  V30 926 C 81.1015 -2.11601 4.77517 0
M  V30 927 H 82.7955 -0.953525 2.8381 0
M  V30 928 H 80.3415 -0.457244 1.36548 0
M  V30 929 H 82.2945 -3.37077 2.52898 0
M  V30 930 H 81.0185 -2.9732 1.35161 0
M  V30 931 H 79.6775 -1.85051 3.16467 0
M  V30 932 H 79.3255 -4.27322 2.6534 0
M  V30 933 H 79.0255 -3.92345 4.37424 0
M  V30 934 H 80.5495 -4.71438 3.88044 0
M  V30 935 H 81.9635 -2.7542 5.02809 0
M  V30 936 H 80.3605 -2.19311 5.5859 0
M  V30 937 H 81.4305 -1.06824 4.72987 0
M  V30 938 N 82.7736 -1.49793 -0.48987 0
M  V30 939 C 84.0226 -1.59085 -1.23995 0
M  V30 940 C 84.3356 -0.287907 -1.9347 0
M  V30 941 O 85.5416 -0.259506 -2.70257 0
M  V30 942 C 83.9976 -2.80736 -2.252 0
M  V30 943 C 83.6056 -4.17833 -1.61614 0
M  V30 944 C 85.3496 -2.99364 -3.00967 0
M  V30 945 C 83.2566 -5.30693 -2.60996 0
M  V30 946 H 82.1866 -0.592372 -0.466488 0
M  V30 947 H 84.8376 -1.76197 -0.51252 0
M  V30 948 H 83.2196 -2.57142 -3.01154 0
M  V30 949 H 84.3936 -4.51608 -0.915774 0
M  V30 950 H 82.7086 -4.04656 -0.981977 0
M  V30 951 H 85.3056 -3.80851 -3.75308 0
M  V30 952 H 85.6486 -2.10356 -3.59244 0
M  V30 953 H 86.1816 -3.2305 -2.32128 0
M  V30 954 H 82.9206 -6.21796 -2.07485 0
M  V30 955 H 82.4406 -5.01359 -3.2924 0
M  V30 956 H 84.1196 -5.6049 -3.23202 0
M  V30 957 N 84.2517 0.741722 -1.39055 0
M  V30 958 C 85.1817 1.869 -1.39966 0
M  V30 959 C 86.1627 1.6804 -0.26392 0
M  V30 960 O 87.3477 1.88458 -0.468755 0
M  V30 961 C 84.4777 3.24572 -1.23574 0
M  V30 962 C 83.4317 3.58056 -2.34477 0
M  V30 963 C 82.7577 4.94593 -2.0318 0
M  V30 964 C 84.0577 3.61716 -3.76774 0
M  V30 965 H 85.7517 1.86395 -2.34302 0
M  V30 966 H 83.2977 0.895361 -1.1278 0
M  V30 967 H 85.2507 4.031 -1.22834 0
M  V30 968 H 83.9747 3.25587 -0.257045 0
M  V30 969 H 82.6337 2.81854 -2.34423 0
M  V30 970 H 82.2817 4.92181 -1.03765 0
M  V30 971 H 81.9817 5.17964 -2.77465 0
M  V30 972 H 83.5057 5.75486 -2.04079 0
M  V30 973 H 84.9197 4.30335 -3.78794 0
M  V30 974 H 83.3167 3.96603 -4.50362 0
M  V30 975 H 84.3867 2.61672 -4.08235 0
M  V30 976 N 85.7298 1.2412 0.971189 0
M  V30 977 C 86.6778 1.02812 2.08644 0
M  V30 978 C 87.6718 -0.0358403 1.69362 0
M  V30 979 O 88.8778 0.118429 1.7961 0
M  V30 980 H 85.2528 0.315428 0.682649 0
M  V30 981 H 87.2238 1.97397 2.23779 0
M  V30 982 C 85.9728 0.645874 3.41649 0
M  V30 983 H 85.2958 1.45632 3.72332 0
M  V30 984 H 86.7358 0.536366 4.20594 0
M  V30 985 C 85.1948 -0.646713 3.30635 0
M  V30 986 O 85.7248 -1.69338 3.64263 0
M  V30 987 N 83.9308 -0.626115 2.83775 0
M  V30 988 H 83.4778 0.225988 2.56607 0
M  V30 989 H 83.4358 -1.49117 2.76788 0
M  V30 990 N 87.2079 -1.17134 1.05439 0
M  V30 991 C 88.1399 -2.2078 0.615539 0
M  V30 992 C 89.1529 -1.59584 -0.322001 0
M  V30 993 O 90.3419 -1.78133 -0.114344 0
M  V30 994 C 87.4419 -3.38691 -0.118938 0
M  V30 995 C 86.6149 -4.29454 0.829924 0
M  V30 996 C 85.6739 -5.26024 0.136258 0
M  V30 997 O 84.6999 -5.63952 0.77115 0
M  V30 998 N 85.9019 -5.69487 -1.1254 0
M  V30 999 H 88.6669 -2.59052 1.50705 0
M  V30 1000 H 86.2279 -1.32058 0.936603 0
M  V30 1001 H 88.2199 -4.00329 -0.593179 0
M  V30 1002 H 86.7899 -2.98996 -0.91215 0
M  V30 1003 H 86.0099 -3.65211 1.48373 0
M  V30 1004 H 87.2979 -4.86984 1.47392 0
M  V30 1005 H 86.6959 -5.4075 -1.6615 0
M  V30 1006 H 85.2529 -6.33257 -1.54366 0
M  V30 1007 N 88.686 -0.835752 -1.33615 0
M  V30 1008 C 89.933 -0.429959 -1.97883 0
M  V30 1009 C 90.261 1.01006 -1.66217 0
M  V30 1010 O 89.516 1.72047 -0.93265 0
M  V30 1011 C 89.815 -0.593925 -3.52431 0
M  V30 1012 C 89.481 -2.00158 -4.04039 0
M  V30 1013 C 88.143 -2.38662 -4.17844 0
M  V30 1014 C 90.495 -2.92117 -4.31644 0
M  V30 1015 C 87.823 -3.68435 -4.56588 0
M  V30 1016 C 90.175 -4.21368 -4.71838 0
M  V30 1017 C 88.839 -4.59833 -4.83849 0
M  V30 1018 H 88.109 -0.157333 -0.724104 0
M  V30 1019 H 90.756 -1.06217 -1.59343 0
M  V30 1020 H 89.061 0.121619 -3.91611 0
M  V30 1021 H 90.758 -0.260282 -4.00154 0
M  V30 1022 H 87.348 -1.69252 -3.93766 0
M  V30 1023 H 91.532 -2.63608 -4.20505 0
M  V30 1024 H 86.788 -3.98046 -4.64079 0
M  V30 1025 H 90.962 -4.92703 -4.92155 0
M  V30 1026 H 88.589 -5.60438 -5.13627 0
M  V30 1027 N 90.1641 1.46063 -0.591896 0
M  V30 1028 C 91.4411 1.95595 -0.0137119 0
M  V30 1029 C 91.8211 1.5345 1.4497 0
M  V30 1030 O 91.1691 0.789543 2.14426 0
M  V30 1031 C 91.3791 3.48453 -0.195373 0
M  V30 1032 C 92.7271 4.24546 -0.0679765 0
M  V30 1033 O 93.7511 3.55982 -0.124681 0
M  V30 1034 O 92.6101 5.46467 0.0600579 0
M  V30 1035 H 89.7041 0.825795 0.0446279 0
M  V30 1036 H 92.2501 1.56303 -0.660859 0
M  V30 1037 H 91.0221 3.72045 -1.21235 0
M  V30 1038 H 90.6451 3.94597 0.487775 0
M  V30 1039 N 91.6422 0.330177 1.54103 0
M  V30 1040 C 92.9192 -0.325007 1.92881 0
M  V30 1041 C 93.2992 -1.6934 1.26045 0
M  V30 1042 O 92.6472 -2.24855 0.406526 0
M  V30 1043 C 92.8572 -0.410634 3.46576 0
M  V30 1044 C 94.2052 -0.667801 4.19316 0
M  V30 1045 O 95.2292 -0.49329 3.52768 0
M  V30 1046 O 94.0882 -1.00491 5.37181 0
M  V30 1047 H 91.1822 -0.186873 0.80561 0
M  V30 1048 H 93.7282 0.380376 1.65382 0
M  V30 1049 H 92.5002 0.550164 3.87413 0
M  V30 1050 H 92.1232 -1.16333 3.802 0
M  V30 1051 N 93.1203 -1.57491 0.0584922 0
M  V30 1052 C 94.0503 -2.14988 -0.911178 0
M  V30 1053 C 95.0313 -1.07343 -1.31952 0
M  V30 1054 O 96.2163 -1.35318 -1.39294 0
M  V30 1055 C 93.3463 -2.70078 -2.18347 0
M  V30 1056 C 92.3003 -3.82771 -1.91495 0
M  V30 1057 C 91.6263 -4.24408 -3.25241 0
M  V30 1058 C 92.9263 -5.07592 -1.23075 0
M  V30 1059 H 94.6203 -2.96263 -0.432246 0
M  V30 1060 H 92.1663 -1.42512 -0.206469 0
M  V30 1061 H 94.1193 -3.08943 -2.86587 0
M  V30 1062 H 92.8433 -1.86005 -2.68458 0
M  V30 1063 H 91.5023 -3.44389 -1.25664 0
M  V30 1064 H 91.1503 -3.37275 -3.73168 0
M  V30 1065 H 90.8503 -5.00366 -3.08071 0
M  V30 1066 H 92.3743 -4.65879 -3.94701 0
M  V30 1067 H 93.7883 -5.43857 -1.81362 0
M  V30 1068 H 92.1853 -5.88741 -1.16207 0
M  V30 1069 H 93.2553 -4.84454 -0.207847 0
M  V30 1070 N 94.5984 0.214957 -1.56127 0
M  V30 1071 C 95.5284 1.2695 -1.95974 0
M  V30 1072 C 96.5094 1.48539 -0.828868 0
M  V30 1073 O 97.6944 1.60611 -1.09168 0
M  V30 1074 C 94.8244 2.61794 -2.28214 0
M  V30 1075 C 93.7784 2.54851 -3.43853 0
M  V30 1076 C 93.1044 3.93785 -3.61715 0
M  V30 1077 C 94.4044 2.09065 -4.78632 0
M  V30 1078 H 96.0984 0.93846 -2.84312 0
M  V30 1079 H 93.6444 0.449996 -1.36788 0
M  V30 1080 H 95.5974 3.35731 -2.54682 0
M  V30 1081 H 94.3214 2.96599 -1.36736 0
M  V30 1082 H 92.9804 1.8337 -3.17444 0
M  V30 1083 H 92.6284 4.25908 -2.67602 0
M  V30 1084 H 92.3284 3.90019 -4.39498 0
M  V30 1085 H 93.8524 4.69374 -3.90539 0
M  V30 1086 H 95.2664 2.7275 -5.04262 0
M  V30 1087 H 93.6634 2.16346 -5.59745 0
M  V30 1088 H 94.7334 1.04315 -4.73547 0
M  V30 1089 N 96.0765 1.50051 0.48192 0
M  V30 1090 C 97.3225 1.60736 1.2366 0
M  V30 1091 C 97.6555 0.301786 1.91841 0
M  V30 1092 O 96.9305 -0.696025 1.8162 0
M  V30 1093 C 97.2135 2.78009 2.28874 0
M  V30 1094 C 97.0665 4.18416 1.65069 0
M  V30 1095 C 98.3855 2.90867 3.30279 0
M  V30 1096 H 95.5045 0.585031 0.448228 0
M  V30 1097 H 98.1465 1.82402 0.531946 0
M  V30 1098 H 96.2965 2.59667 2.88973 0
M  V30 1099 H 97.9685 4.48322 1.0865 0
M  V30 1100 H 96.2115 4.23177 0.954148 0
M  V30 1101 H 96.8825 4.96381 2.41474 0
M  V30 1102 H 99.3585 3.07623 2.80191 0
M  V30 1103 H 98.2345 3.74566 4.01238 0
M  V30 1104 H 98.4955 2.01021 3.93755 0
M  V30 1105 N 97.5546 -0.734337 1.39446 0
M  V30 1106 C 98.5016 -1.84835 1.38219 0
M  V30 1107 C 99.4716 -1.64331 0.24179 0
M  V30 1108 O 100.657 -1.85728 0.437002 0
M  V30 1109 C 97.7966 -3.22355 1.23212 0
M  V30 1110 C 96.9096 -3.5456 2.46801 0
M  V30 1111 C 96.0446 -4.81485 2.24377 0
M  V30 1112 C 95.0836 -5.06536 3.43639 0
M  V30 1113 N 94.2206 -6.24665 3.20528 0
M  V30 1114 H 99.0606 -1.85219 2.33448 0
M  V30 1115 H 96.5976 -0.905039 1.15963 0
M  V30 1116 H 98.5556 -4.0174 1.12522 0
M  V30 1117 H 97.1856 -3.21248 0.316121 0
M  V30 1118 H 96.2376 -2.69872 2.68092 0
M  V30 1119 H 97.5496 -3.6899 3.3563 0
M  V30 1120 H 96.7036 -5.68852 2.10933 0
M  V30 1121 H 95.4426 -4.6923 1.32944 0
M  V30 1122 H 94.4476 -4.17632 3.5758 0
M  V30 1123 H 95.6726 -5.20676 4.35974 0
M  V30 1124 H 93.6186 -6.13696 2.3176 0
M  V30 1125 H 93.5356 -6.39685 4.02913 0
M  V30 1126 H 94.8036 -7.14868 3.10779 0
M  V30 1127 N 99.0327 -1.24633 -0.964593 0
M  V30 1128 C 100.282 -1.08188 -1.7023 0
M  V30 1129 C 100.595 0.37873 -1.91898 0
M  V30 1130 O 101.801 0.663427 -2.6327 0
M  V30 1131 C 100.257 -1.88773 -3.06419 0
M  V30 1132 C 99.8647 -3.39263 -2.92582 0
M  V30 1133 C 101.609 -1.80867 -3.84041 0
M  V30 1134 C 99.5157 -4.1218 -4.24101 0
M  V30 1135 H 98.4457 -0.401245 -0.638372 0
M  V30 1136 H 101.097 -1.48742 -1.07462 0
M  V30 1137 H 99.4787 -1.41035 -3.70034 0
M  V30 1138 H 100.653 -3.94603 -2.37961 0
M  V30 1139 H 98.9677 -3.48154 -2.28424 0
M  V30 1140 H 101.565 -2.32646 -4.81435 0
M  V30 1141 H 101.908 -0.774543 -4.09031 0
M  V30 1142 H 102.441 -2.26301 -3.27159 0
M  V30 1143 H 99.1797 -5.15965 -4.04303 0
M  V30 1144 H 98.6997 -3.61626 -4.78526 0
M  V30 1145 H 100.379 -4.19349 -4.92702 0
M  V30 1146 N 100.511 1.16574 -1.06058 0
M  V30 1147 C 101.441 2.23057 -0.690488 0
M  V30 1148 C 102.422 1.67141 0.315901 0
M  V30 1149 O 103.607 1.93253 0.191556 0
M  V30 1150 C 100.737 3.47222 -0.073625 0
M  V30 1151 C 99.6908 4.16016 -1.00573 0
M  V30 1152 C 99.0168 5.34104 -0.252289 0
M  V30 1153 C 100.317 4.67264 -2.33371 0
M  V30 1154 H 102.011 2.54271 -1.58072 0
M  V30 1155 H 99.5568 1.22218 -0.76149 0
M  V30 1156 H 101.51 4.20939 0.19714 0
M  V30 1157 H 100.234 3.15302 0.85161 0
M  V30 1158 H 98.8928 3.44223 -1.2612 0
M  V30 1159 H 98.5408 4.98437 0.675988 0
M  V30 1160 H 98.2408 5.81072 -0.873455 0
M  V30 1161 H 99.7648 6.10599 0.0109857 0
M  V30 1162 H 101.179 5.32573 -2.12223 0
M  V30 1163 H 99.5758 5.24843 -2.90963 0
M  V30 1164 H 100.646 3.83602 -2.96611 0
M  V30 1165 N 101.989 0.842826 1.3317 0
M  V30 1166 C 102.919 0.294028 2.31641 0
M  V30 1167 C 103.9 -0.600401 1.59151 0
M  V30 1168 O 105.085 -0.523124 1.87022 0
M  V30 1169 C 102.215 -0.528416 3.43257 0
M  V30 1170 C 101.169 0.27056 4.27144 0
M  V30 1171 C 100.495 -0.675881 5.30411 0
M  V30 1172 C 101.795 1.48981 5.00602 0
M  V30 1173 H 103.489 1.11681 2.77791 0
M  V30 1174 H 101.035 0.538478 1.33553 0
M  V30 1175 H 102.988 -0.922674 4.11175 0
M  V30 1176 H 101.712 -1.38445 2.95805 0
M  V30 1177 H 100.371 0.646427 3.60856 0
M  V30 1178 H 100.019 -1.52842 4.79216 0
M  V30 1179 H 99.7189 -0.145374 5.8742 0
M  V30 1180 H 101.243 -1.06757 6.01195 0
M  V30 1181 H 102.657 1.16849 5.61266 0
M  V30 1182 H 101.054 1.95739 5.6728 0
M  V30 1183 H 102.124 2.25746 4.29147 0
M  V30 1184 N 103.467 -1.45747 0.599634 0
M  V30 1185 C 104.397 -2.33235 -0.111306 0
M  V30 1186 C 105.378 -1.46359 -0.866781 0
M  V30 1187 O 106.563 -1.75146 -0.838904 0
M  V30 1188 C 103.693 -3.28932 -1.11451 0
M  V30 1189 C 102.647 -4.25381 -0.472772 0
M  V30 1190 C 101.973 -5.1071 -1.58365 0
M  V30 1191 C 103.273 -5.18831 0.600948 0
M  V30 1192 H 104.967 -2.92927 0.61919 0
M  V30 1193 H 102.513 -1.40857 0.299215 0
M  V30 1194 H 104.466 -3.89002 -1.62036 0
M  V30 1195 H 103.19 -2.67381 -1.8755 0
M  V30 1196 H 101.849 -3.66598 0.0121472 0
M  V30 1197 H 101.497 -4.45533 -2.33473 0
M  V30 1198 H 101.197 -5.7604 -1.15982 0
M  V30 1199 H 102.721 -5.73647 -2.09194 0
M  V30 1200 H 104.135 -5.73019 0.179491 0
M  V30 1201 H 102.532 -5.92595 0.946076 0
M  V30 1202 H 103.602 -4.6174 1.48068 0
M  V30 1203 N 104.945 -0.338344 -1.53925 0
M  V30 1204 C 105.908 0.508299 -2.23493 0
M  V30 1205 C 106.908 1.03175 -1.23335 0
M  V30 1206 O 108.098 0.921826 -1.47811 0
M  V30 1207 C 105.23 1.70754 -2.95052 0
M  V30 1208 H 106.423 -0.100058 -2.99733 0
M  V30 1209 H 103.976 -0.0896198 -1.56043 0
M  V30 1210 H 104.711 2.35474 -2.22986 0
M  V30 1211 H 104.496 1.33946 -3.68512 0
M  V30 1212 H 105.986 2.30818 -3.48013 0
M  V30 1213 N 106.423 1.57458 -0.0668435 0
M  V30 1214 C 107.386 2.11323 0.887422 0
M  V30 1215 C 108.386 1.03618 1.22964 0
M  V30 1216 O 109.576 1.29626 1.16373 0
M  V30 1217 C 106.708 2.61048 2.19242 0
M  V30 1218 H 107.901 2.96942 0.420194 0
M  V30 1219 H 105.454 1.55239 0.181793 0
M  V30 1220 H 106.189 1.78868 2.70512 0
M  V30 1221 H 105.974 3.39769 1.95702 0
M  V30 1222 H 107.464 3.02814 2.87565 0
M  V30 1223 N 107.901 -0.206675 1.56239 0
M  V30 1224 C 109.148 -0.928842 1.79941 0
M  V30 1225 C 109.476 -1.83734 0.638131 0
M  V30 1226 O 108.731 -1.92039 -0.376746 0
M  V30 1227 C 109.03 -1.78675 3.09532 0
M  V30 1228 C 108.696 -1.03022 4.38973 0
M  V30 1229 C 107.358 -0.821302 4.74139 0
M  V30 1230 C 109.71 -0.497081 5.18824 0
M  V30 1231 C 107.038 -0.0675719 5.86661 0
M  V30 1232 C 109.39 0.24338 6.32132 0
M  V30 1233 C 108.054 0.463422 6.65889 0
M  V30 1234 H 107.324 -0.339887 0.658451 0
M  V30 1235 H 109.971 -0.195977 1.90495 0
M  V30 1236 H 108.276 -2.58794 2.94165 0
M  V30 1237 H 109.973 -2.34792 3.25075 0
M  V30 1238 H 106.563 -1.20306 4.11369 0
M  V30 1239 H 110.747 -0.645921 4.92079 0
M  V30 1240 H 106.003 0.112995 6.11296 0
M  V30 1241 H 110.177 0.66393 6.93228 0
M  V30 1242 H 107.804 1.04938 7.52922 0
M  V30 1243 N 109.379 -1.50304 -0.473955 0
M  V30 1244 C 110.628 -1.60392 -1.22301 0
M  V30 1245 C 110.941 -0.308411 -1.93153 0
M  V30 1246 O 112.147 -0.288156 -2.69966 0
M  V30 1247 C 110.603 -2.83109 -2.2221 0
M  V30 1248 C 110.211 -4.19524 -1.57173 0
M  V30 1249 C 111.955 -3.0254 -2.97775 0
M  V30 1250 C 109.862 -5.33431 -2.55353 0
M  V30 1251 H 108.792 -0.597286 -0.460179 0
M  V30 1252 H 111.443 -1.76731 -0.493803 0
M  V30 1253 H 109.825 -2.60322 -2.9841 0
M  V30 1254 H 110.999 -4.52554 -0.867824 0
M  V30 1255 H 109.314 -4.05674 -0.939002 0
M  V30 1256 H 111.911 -3.84811 -3.71248 0
M  V30 1257 H 112.254 -2.14154 -3.56992 0
M  V30 1258 H 112.787 -3.25494 -2.28688 0
M  V30 1259 H 109.526 -6.23962 -2.00878 0
M  V30 1260 H 109.046 -5.04823 -3.23904 0
M  V30 1261 H 110.725 -5.63887 -3.17239 0
M  V30 1262 N 110.857 0.726932 -1.39834 0
M  V30 1263 C 112.082 1.52121 -1.40976 0
M  V30 1264 C 112.507 1.88098 -0.00826029 0
M  V30 1265 O 111.865 1.52479 0.980807 0
M  V30 1266 C 111.913 2.78021 -2.29644 0
M  V30 1267 O 111.017 3.74272 -1.73188 0
M  V30 1268 H 110.358 0.45908 -0.479731 0
M  V30 1269 H 112.888 0.896207 -1.83927 0
M  V30 1270 H 112.898 3.26671 -2.44438 0
M  V30 1271 H 111.573 2.51169 -3.31492 0
M  V30 1272 H 110.15 3.33073 -1.6768 0
M  V30 1273 N 112.336 1.25143 0.95797 0
M  V30 1274 C 113.583 1.09692 1.70217 0
M  V30 1275 C 113.911 -0.362654 1.91089 0
M  V30 1276 O 113.166 -1.28386 1.47701 0
M  V30 1277 C 113.465 1.79272 3.09187 0
M  V30 1278 C 113.131 3.29196 3.08125 0
M  V30 1279 C 111.793 3.70096 3.07543 0
M  V30 1280 C 114.145 4.24995 3.0171 0
M  V30 1281 C 111.473 5.05213 2.9829 0
M  V30 1282 C 113.825 5.60132 2.93999 0
M  V30 1283 C 112.489 6.00365 2.9175 0
M  V30 1284 H 111.759 0.401393 0.622868 0
M  V30 1285 H 114.406 1.55372 1.11945 0
M  V30 1286 H 112.711 1.26014 3.70982 0
M  V30 1287 H 114.408 1.64773 3.65583 0
M  V30 1288 H 110.998 2.96651 3.09348 0
M  V30 1289 H 115.182 3.9439 3.01281 0
M  V30 1290 H 110.438 5.35569 2.94916 0
M  V30 1291 H 114.612 6.3406 2.87996 0
M  V30 1292 H 112.239 7.05023 2.84336 0
M  V30 1293 N 113.814 -1.1601 1.06675 0
M  V30 1294 C 115.06 -1.86909 0.786945 0
M  V30 1295 C 115.393 -1.81717 -0.685018 0
M  V30 1296 O 114.668 -1.23551 -1.50218 0
M  V30 1297 C 114.951 -3.36313 1.28707 0
M  V30 1298 C 114.804 -3.50175 2.82308 0
M  V30 1299 C 116.123 -4.3084 0.898071 0
M  V30 1300 H 113.242 -0.678677 0.287343 0
M  V30 1301 H 115.884 -1.36336 1.32334 0
M  V30 1302 H 114.034 -3.79513 0.830768 0
M  V30 1303 H 115.706 -3.15886 3.36175 0
M  V30 1304 H 113.949 -2.91959 3.20847 0
M  V30 1305 H 114.62 -4.55116 3.12368 0
M  V30 1306 H 117.096 -3.95561 1.29114 0
M  V30 1307 H 115.972 -5.33876 1.27543 0
M  V30 1308 H 116.233 -4.41662 -0.196651 0
M  V30 1309 N 115.292 -0.849877 -1.32721 0
M  V30 1310 C 116.222 -0.306308 -2.31482 0
M  V30 1311 C 117.203 0.591952 -1.59468 0
M  V30 1312 O 118.388 0.513199 -1.87296 0
M  V30 1313 C 115.518 0.510204 -3.43532 0
M  V30 1314 C 114.472 -0.293209 -4.26994 0
M  V30 1315 C 113.798 0.647743 -5.30762 0
M  V30 1316 C 115.098 -1.51634 -4.99804 0
M  V30 1317 H 116.792 -1.13153 -2.77195 0
M  V30 1318 H 114.338 -0.545553 -1.33266 0
M  V30 1319 H 116.291 0.900856 -4.11658 0
M  V30 1320 H 115.015 1.36874 -2.96535 0
M  V30 1321 H 113.674 -0.665555 -3.60508 0
M  V30 1322 H 113.322 1.50299 -4.8002 0
M  V30 1323 H 113.022 0.11422 -5.87489 0
M  V30 1324 H 114.546 1.03567 -6.01753 0
M  V30 1325 H 115.96 -1.19824 -5.60638 0
M  V30 1326 H 114.357 -1.98745 -5.66234 0
M  V30 1327 H 115.427 -2.28018 -4.27943 0
M  V30 1328 N 116.77 1.45427 -0.607355 0
M  V30 1329 C 117.998 2.06614 -0.108814 0
M  V30 1330 C 118.413 1.45204 1.2067 0
M  V30 1331 O 117.77 0.566132 1.73497 0
M  V30 1332 C 117.821 3.61481 0.0375347 0
M  V30 1333 O 117.542 4.20598 -1.22593 0
M  V30 1334 C 119.043 4.39652 0.567561 0
M  V30 1335 H 116.263 0.66747 -0.0687351 0
M  V30 1336 H 118.807 1.86675 -0.835022 0
M  V30 1337 H 116.962 3.80762 0.714068 0
M  V30 1338 H 117.376 5.1377 -1.05547 0
M  V30 1339 H 118.85 5.48518 0.61905 0
M  V30 1340 H 119.327 4.09417 1.58978 0
M  V30 1341 H 119.933 4.25234 -0.0749202 0
M  V30 1342 N 118.248 0.346503 1.53744 0
M  V30 1343 C 119.178 -0.501193 2.28058 0
M  V30 1344 C 120.159 -1.10014 1.29734 0
M  V30 1345 O 121.344 -1.12097 1.58581 0
M  V30 1346 C 118.474 -1.65078 3.05559 0
M  V30 1347 C 117.428 -1.18003 4.11411 0
M  V30 1348 C 116.754 -2.41837 4.76884 0
M  V30 1349 C 118.054 -0.278394 5.21558 0
M  V30 1350 H 119.748 0.11875 2.99164 0
M  V30 1351 H 117.294 0.0585531 1.43881 0
M  V30 1352 H 119.247 -2.25028 3.56287 0
M  V30 1353 H 117.971 -2.29767 2.32109 0
M  V30 1354 H 116.63 -0.603331 3.61601 0
M  V30 1355 H 116.278 -3.0494 4.00026 0
M  V30 1356 H 115.978 -2.1102 5.48402 0
M  V30 1357 H 117.502 -3.02508 5.30397 0
M  V30 1358 H 118.916 -0.784823 5.67903 0
M  V30 1359 H 117.313 -0.0619707 6.00068 0
M  V30 1360 H 118.383 0.684677 4.80042 0
M  V30 1361 N 119.726 -1.57421 0.075193 0
M  V30 1362 C 120.656 -2.15942 -0.888324 0
M  V30 1363 C 121.637 -1.08737 -1.30806 0
M  V30 1364 O 122.822 -1.36787 -1.37851 0
M  V30 1365 C 119.952 -2.72379 -2.1547 0
M  V30 1366 C 118.906 -3.8478 -1.87425 0
M  V30 1367 C 118.232 -4.27834 -3.20721 0
M  V30 1368 C 119.532 -5.08869 -1.17684 0
M  V30 1369 H 121.226 -2.96705 -0.400799 0
M  V30 1370 H 118.772 -1.42723 -0.191342 0
M  V30 1371 H 120.725 -3.11965 -2.83295 0
M  V30 1372 H 119.449 -1.88841 -2.6647 0
M  V30 1373 H 118.108 -3.45703 -1.22004 0
M  V30 1374 H 117.756 -3.41214 -3.6957 0
M  V30 1375 H 117.456 -5.03605 -3.02746 0
M  V30 1376 H 118.98 -4.70039 -3.89738 0
M  V30 1377 H 120.394 -5.4575 -1.75584 0
M  V30 1378 H 118.791 -5.8994 -1.09956 0
M  V30 1379 H 119.861 -4.84648 -0.156453 0
M  V30 1380 N 121.204 0.198386 -1.56346 0
M  V30 1381 C 122.481 0.944982 -1.71258 0
M  V30 1382 C 122.861 2.0151 -0.629048 0
M  V30 1383 O 122.209 2.25639 0.360473 0
M  V30 1384 C 122.419 1.5344 -3.1346 0
M  V30 1385 C 123.767 2.01778 -3.73591 0
M  V30 1386 O 124.791 1.63288 -3.16568 0
M  V30 1387 O 123.65 2.72594 -4.73661 0
M  V30 1388 H 120.744 0.442939 -0.69838 0
M  V30 1389 H 123.29 0.188342 -1.68652 0
M  V30 1390 H 122.062 0.762869 -3.83792 0
M  V30 1391 H 121.685 2.35596 -3.20282 0
M  V30 1392 N 122.682 1.50554 0.465978 0
M  V30 1393 C 123.615 1.64436 1.58227 0
M  V30 1394 C 124.593 0.492367 1.54966 0
M  V30 1395 O 125.777 0.712536 1.74514 0
M  V30 1396 C 122.904 1.63165 2.96808 0
M  V30 1397 C 121.95 2.83987 3.18204 0
M  V30 1398 S 122.783 4.45219 2.97557 0
M  V30 1399 C 123.939 4.46649 4.3847 0
M  V30 1400 H 124.172 2.58861 1.46213 0
M  V30 1401 H 121.705 1.3988 0.653678 0
M  V30 1402 H 123.663 1.63116 3.76701 0
M  V30 1403 H 122.324 0.69967 3.06208 0
M  V30 1404 H 121.517 2.79416 4.19455 0
M  V30 1405 H 121.119 2.81629 2.46092 0
M  V30 1406 H 123.411 4.20526 5.31191 0
M  V30 1407 H 124.354 5.48295 4.48082 0
M  V30 1408 H 124.762 3.76296 4.20787 0
M  V30 1409 N 124.16 -0.719506 1.40217 0
M  V30 1410 C 125.107 -1.83359 1.40172 0
M  V30 1411 C 126.077 -1.64065 0.259206 0
M  V30 1412 O 127.262 -1.85254 0.456677 0
M  V30 1413 C 124.402 -3.2103 1.26624 0
M  V30 1414 C 123.515 -3.51923 2.50548 0
M  V30 1415 C 122.65 -4.79079 2.29471 0
M  V30 1416 C 121.689 -5.02863 3.48992 0
M  V30 1417 N 120.826 -6.2123 3.27135 0
M  V30 1418 H 125.666 -1.82733 2.35399 0
M  V30 1419 H 123.203 -0.892688 1.16917 0
M  V30 1420 H 125.161 -4.00524 1.16776 0
M  V30 1421 H 123.791 -3.20895 0.350176 0
M  V30 1422 H 122.843 -2.67014 2.70939 0
M  V30 1423 H 124.155 -3.6541 3.39525 0
M  V30 1424 H 123.309 -5.66582 2.16955 0
M  V30 1425 H 122.048 -4.67794 1.37913 0
M  V30 1426 H 121.053 -4.13816 3.6199 0
M  V30 1427 H 122.278 -5.16023 4.41472 0
M  V30 1428 H 120.224 -6.11204 2.38256 0
M  V30 1429 H 120.141 -6.35375 4.09675 0
M  V30 1430 H 121.409 -7.11532 3.18344 0
M  V30 1431 N 125.638 -1.25649 -0.95132 0
M  V30 1432 C 126.588 -1.03004 -2.03406 0
M  V30 1433 C 127.572 0.034187 -1.60864 0
M  V30 1434 O 128.764 -0.181549 -1.76066 0
M  V30 1435 C 125.893 -0.654255 -3.37008 0
M  V30 1436 C 124.979 -1.75542 -3.86065 0
M  V30 1437 N 125.37 -2.99113 -4.07879 0
M  V30 1438 C 123.668 -1.63669 -4.14884 0
M  V30 1439 C 124.369 -3.70611 -4.48356 0
M  V30 1440 N 123.345 -2.98247 -4.54477 0
M  V30 1441 H 127.147 -1.96813 -2.1827 0
M  V30 1442 H 124.661 -1.16017 -1.13639 0
M  V30 1443 H 126.658 -0.473206 -4.14206 0
M  V30 1444 H 125.318 0.276468 -3.23521 0
M  V30 1445 H 126.329 -3.35124 -3.94857 0
M  V30 1446 H 123.006 -0.775161 -4.10241 0
M  V30 1447 H 124.396 -4.76695 -4.73509 0
M  V30 1448 N 127.117 1.15442 -1.07289 0
M  V30 1449 C 128.064 2.20161 -0.692653 0
M  V30 1450 C 129.034 1.63073 0.31564 0
M  V30 1451 O 130.219 1.89725 0.202235 0
M  V30 1452 C 127.359 3.44967 -0.0959509 0
M  V30 1453 C 126.472 4.16256 -1.15564 0
M  V30 1454 C 125.607 5.28609 -0.524011 0
M  V30 1455 C 124.646 5.91715 -1.56653 0
M  V30 1456 N 123.783 6.9554 -0.957531 0
M  V30 1457 H 128.623 2.52037 -1.59002 0
M  V30 1458 H 126.16 1.2378 -0.794798 0
M  V30 1459 H 128.118 4.16341 0.267628 0
M  V30 1460 H 126.748 3.1361 0.764772 0
M  V30 1461 H 125.8 3.43385 -1.6368 0
M  V30 1462 H 127.112 4.59268 -1.94613 0
M  V30 1463 H 126.266 6.06604 -0.108032 0
M  V30 1464 H 125.005 4.86787 0.29825 0
M  V30 1465 H 124.01 5.12433 -1.9923 0
M  V30 1466 H 125.235 6.35614 -2.39107 0
M  V30 1467 H 123.181 6.55814 -0.156162 0
M  V30 1468 H 123.098 7.36977 -1.68526 0
M  V30 1469 H 124.366 7.77435 -0.567032 0
M  V30 1470 N 128.595 0.856903 1.32268 0
M  V30 1471 C 129.542 0.301172 2.28827 0
M  V30 1472 C 130.512 -0.593104 1.5515 0
M  V30 1473 O 131.697 -0.527537 1.83362 0
M  V30 1474 C 128.837 -0.502523 3.41422 0
M  V30 1475 C 127.95 0.417797 4.29975 0
M  V30 1476 C 127.085 -0.398749 5.29701 0
M  V30 1477 C 126.124 0.518827 6.09897 0
M  V30 1478 N 125.261 -0.260674 7.01616 0
M  V30 1479 H 130.101 1.12983 2.75751 0
M  V30 1480 H 127.638 0.568582 1.35667 0
M  V30 1481 H 129.596 -0.984141 4.05426 0
M  V30 1482 H 128.226 -1.29599 2.95642 0
M  V30 1483 H 127.278 1.01781 3.66531 0
M  V30 1484 H 128.59 1.12191 4.86019 0
M  V30 1485 H 127.744 -0.943435 5.9932 0
M  V30 1486 H 126.483 -1.13622 4.7428 0
M  V30 1487 H 125.488 1.07538 5.39181 0
M  V30 1488 H 126.713 1.25495 6.67404 0
M  V30 1489 H 124.659 -0.981198 6.4862 0
M  V30 1490 H 124.576 0.384364 7.55022 0
M  V30 1491 H 125.844 -0.787014 7.75517 0
M  V30 1492 N 130.073 -1.45103 0.615059 0
M  V30 1493 C 131.322 -2.01396 0.110718 0
M  V30 1494 C 131.635 -1.48834 -1.26916 0
M  V30 1495 O 132.841 -1.97152 -1.86664 0
M  V30 1496 C 131.297 -3.59599 0.14723 0
M  V30 1497 C 130.905 -4.21158 1.52743 0
M  V30 1498 C 132.649 -4.23428 -0.30148 0
M  V30 1499 C 130.556 -5.71535 1.51992 0
M  V30 1500 H 129.486 -0.753061 0.0376241 0
M  V30 1501 H 132.137 -1.66494 0.77149 0
M  V30 1502 H 130.519 -3.91724 -0.580339 0
M  V30 1503 H 131.693 -4.00594 2.2773 0
M  V30 1504 H 130.008 -3.69552 1.91886 0
M  V30 1505 H 132.605 -5.33703 -0.326392 0
M  V30 1506 H 132.948 -3.94629 -1.32565 0
M  V30 1507 H 133.481 -3.96047 0.373065 0
M  V30 1508 H 130.22 -6.05044 2.52193 0
M  V30 1509 H 129.74 -5.94268 0.81274 0
M  V30 1510 H 131.419 -6.34873 1.24681 0
M  V30 1511 N 131.551 -0.354651 -1.53558 0
M  V30 1512 C 132.461 0.50515 -2.29097 0
M  V30 1513 C 133.477 1.10223 -1.34636 0
M  V30 1514 O 134.653 1.11553 -1.67684 0
M  V30 1515 C 131.718 1.63479 -3.05738 0
M  V30 1516 C 130.779 1.06636 -4.15845 0
M  V30 1517 C 130.012 2.14217 -4.88822 0
M  V30 1518 O 130.235 3.35137 -4.61562 0
M  V30 1519 O 129.169 1.77887 -5.75013 0
M  V30 1520 H 132.995 -0.109237 -3.03503 0
M  V30 1521 H 130.58 -0.119357 -1.48922 0
M  V30 1522 H 132.462 2.2918 -3.5363 0
M  V30 1523 H 131.137 2.23478 -2.34178 0
M  V30 1524 H 130.044 0.373565 -3.7223 0
M  V30 1525 H 131.377 0.511081 -4.89539 0
M  V30 1526 N 133.029 1.57378 -0.0835403 0
M  V30 1527 C 134.278 1.93106 0.582498 0
M  V30 1528 C 134.591 0.96651 1.70053 0
M  V30 1529 O 135.797 1.21705 2.42693 0
M  V30 1530 C 134.253 3.43076 1.08751 0
M  V30 1531 C 133.861 4.48 -0.000146404 0
M  V30 1532 C 135.605 3.87785 1.72694 0
M  V30 1533 C 133.512 5.89113 0.519568 0
M  V30 1534 H 132.442 0.720775 0.221358 0
M  V30 1535 H 135.093 1.82821 -0.157675 0
M  V30 1536 H 133.475 3.48474 1.88101 0
M  V30 1537 H 134.649 4.54233 -0.775199 0
M  V30 1538 H 132.964 4.1283 -0.54406 0
M  V30 1539 H 135.561 4.90604 2.1263 0
M  V30 1540 H 135.904 3.25796 2.59158 0
M  V30 1541 H 136.437 3.8504 0.999457 0
M  V30 1542 H 133.176 6.54775 -0.308186 0
M  V30 1543 H 132.696 5.86376 1.26188 0
M  V30 1544 H 134.375 6.39346 0.992237 0
M  V30 1545 N 134.507 -0.190092 1.56449 0
M  V30 1546 C 135.747 -0.916414 1.82705 0
M  V30 1547 C 136.111 -1.80235 0.661763 0
M  V30 1548 O 137.312 -2.56484 0.80433 0
M  V30 1549 C 135.583 -1.70691 3.14005 0
M  V30 1550 S 137.142 -2.48457 3.61683 0
M  V30 1551 H 133.96 -0.307281 0.64117 0
M  V30 1552 H 136.562 -0.179433 1.94675 0
M  V30 1553 H 135.266 -1.04677 3.96826 0
M  V30 1554 H 134.797 -2.48562 3.04927 0
M  V30 1555 H 136.812 -3.72756 3.27517 0
M  V30 1556 N 135.985 -1.50799 -0.457987 0
M  V30 1557 C 137.262 -1.52968 -1.21902 0
M  V30 1558 C 137.642 -0.281906 -2.09209 0
M  V30 1559 O 136.99 0.734076 -2.16388 0
M  V30 1560 C 137.2 -2.8326 -2.03875 0
M  V30 1561 C 138.548 -3.34425 -2.6162 0
M  V30 1562 O 139.572 -2.8467 -2.14106 0
M  V30 1563 O 138.431 -4.21188 -3.48228 0
M  V30 1564 H 135.525 -0.614129 -0.553873 0
M  V30 1565 H 138.071 -1.63098 -0.468739 0
M  V30 1566 H 136.843 -3.65543 -1.39621 0
M  V30 1567 H 136.466 -2.76195 -2.8601 0
M  V30 1568 N 137.463 0.71206 -1.40597 0
M  V30 1569 C 138.71 1.47197 -1.39065 0
M  V30 1570 C 139.038 1.94499 0.00583891 0
M  V30 1571 O 138.293 1.68752 0.99102 0
M  V30 1572 C 138.592 2.71039 -2.32965 0
M  V30 1573 C 138.258 2.42484 -3.80148 0
M  V30 1574 C 136.92 2.34406 -4.20247 0
M  V30 1575 C 139.272 2.18598 -4.73143 0
M  V30 1576 C 136.6 2.00516 -5.51371 0
M  V30 1577 C 138.952 1.8622 -6.0457 0
M  V30 1578 C 137.616 1.76626 -6.43708 0
M  V30 1579 H 136.886 0.538634 -0.508876 0
M  V30 1580 H 139.533 0.815325 -1.73276 0
M  V30 1581 H 137.838 3.41558 -1.91951 0
M  V30 1582 H 139.535 3.29138 -2.29061 0
M  V30 1583 H 136.125 2.49659 -3.4838 0
M  V30 1584 H 140.309 2.23793 -4.42979 0
M  V30 1585 H 135.565 1.91628 -5.80593 0
M  V30 1586 H 139.739 1.66752 -6.76141 0
M  V30 1587 H 137.366 1.50133 -7.45228 0
M  V30 1588 N 138.941 1.26152 0.944643 0
M  V30 1589 C 140.19 1.10883 1.68487 0
M  V30 1590 C 140.503 -0.348153 1.92477 0
M  V30 1591 O 141.709 -0.621459 2.64292 0
M  V30 1592 C 140.165 1.93624 3.03377 0
M  V30 1593 C 139.773 3.43875 2.87148 0
M  V30 1594 C 141.517 1.86954 3.81115 0
M  V30 1595 C 139.424 4.18875 4.1749 0
M  V30 1596 H 138.354 0.41135 0.631907 0
M  V30 1597 H 141.005 1.50433 1.05082 0
M  V30 1598 H 139.387 1.46904 3.67743 0
M  V30 1599 H 140.561 3.98338 2.31653 0
M  V30 1600 H 138.876 3.51744 2.22856 0
M  V30 1601 H 141.473 2.40275 4.77673 0
M  V30 1602 H 141.816 0.839518 4.07747 0
M  V30 1603 H 142.349 2.31477 3.23517 0
M  V30 1604 H 139.088 5.22332 3.96043 0
M  V30 1605 H 138.608 3.69193 4.72712 0
M  V30 1606 H 140.287 4.27134 4.85968 0
M  V30 1607 N 140.419 -1.14872 1.07899 0
M  V30 1608 C 141.329 -2.2341 0.715915 0
M  V30 1609 C 142.345 -1.71808 -0.275306 0
M  V30 1610 O 143.521 -2.01039 -0.120545 0
M  V30 1611 C 140.586 -3.46474 0.125168 0
M  V30 1612 C 139.647 -4.13039 1.17034 0
M  V30 1613 C 138.88 -5.30229 0.607688 0
M  V30 1614 O 139.103 -5.675 -0.574497 0
M  V30 1615 O 138.037 -5.86444 1.35526 0
M  V30 1616 H 141.863 -2.56808 1.62121 0
M  V30 1617 H 139.448 -1.22702 0.852322 0
M  V30 1618 H 141.33 -4.20917 -0.201729 0
M  V30 1619 H 140.005 -3.14811 -0.753364 0
M  V30 1620 H 138.912 -3.40493 1.54968 0
M  V30 1621 H 140.245 -4.48796 2.02097 0
M  V30 1622 N 141.898 -0.863906 -1.31812 0
M  V30 1623 C 143.309 -0.52522 -1.7916 0
M  V30 1624 C 143.66 0.957518 -1.71248 0
M  V30 1625 O 142.785 1.74734 -1.27659 0
M  V30 1626 C 143.38 -0.9466 -3.25307 0
M  V30 1627 C 141.939 -0.659668 -3.70574 0
M  V30 1628 C 141.086 -1.14126 -2.52726 0
M  V30 1629 H 144.037 -1.05022 -1.1898 0
M  V30 1630 H 144.058 -0.266766 -3.79564 0
M  V30 1631 H 143.57 -2.02579 -3.31034 0
M  V30 1632 H 141.671 0.408416 -3.70355 0
M  V30 1633 H 141.784 -1.23245 -4.62977 0
M  V30 1634 H 140.148 -0.561216 -2.4844 0
M  V30 1635 H 140.931 -2.22775 -2.61201 0
M  V30 1636 N 143.376 1.44774 -0.622745 0
M  V30 1637 C 144.306 2.33382 0.0741861 0
M  V30 1638 C 145.287 1.47719 0.843387 0
M  V30 1639 O 146.472 1.76458 0.810934 0
M  V30 1640 C 143.602 3.30663 1.06204 0
M  V30 1641 C 142.556 4.26079 0.405037 0
M  V30 1642 C 141.882 5.13165 1.5022 0
M  V30 1643 C 143.182 5.1781 -0.683414 0
M  V30 1644 H 144.876 2.91905 -0.665713 0
M  V30 1645 H 142.422 1.40363 -0.321587 0
M  V30 1646 H 144.375 3.9153 1.55827 0
M  V30 1647 H 143.099 2.70331 1.83272 0
M  V30 1648 H 141.758 3.66532 -0.0704683 0
M  V30 1649 H 141.406 4.49191 2.26355 0
M  V30 1650 H 141.106 5.77812 1.06803 0
M  V30 1651 H 142.63 5.76902 2.00041 0
M  V30 1652 H 144.044 5.72661 -0.270631 0
M  V30 1653 H 142.441 5.91015 -1.04023 0
M  V30 1654 H 143.511 4.59326 -1.55395 0
M  V30 1655 N 144.854 0.36279 1.53368 0
M  V30 1656 C 146.1 -0.228113 2.01513 0
M  V30 1657 C 146.433 -1.48648 1.2497 0
M  V30 1658 O 145.708 -1.91459 0.342616 0
M  V30 1659 C 145.991 -0.522884 3.56284 0
M  V30 1660 C 145.844 0.74892 4.43521 0
M  V30 1661 C 147.163 -1.32461 4.19693 0
M  V30 1662 H 144.282 -0.0814343 0.732487 0
M  V30 1663 H 146.924 0.48713 1.83649 0
M  V30 1664 H 145.074 -1.1322 3.71636 0
M  V30 1665 H 146.746 1.38648 4.39971 0
M  V30 1666 H 144.989 1.36986 4.11603 0
M  V30 1667 H 145.66 0.497667 5.49752 0
M  V30 1668 H 148.136 -0.809203 4.08156 0
M  V30 1669 H 147.012 -1.49961 5.28018 0
M  V30 1670 H 147.273 -2.33232 3.75573 0
M  V30 1671 N 146.332 -1.57332 0.0918853 0
M  V30 1672 C 147.581 -1.93412 -0.572249 0
M  V30 1673 C 147.894 -0.975515 -1.69538 0
M  V30 1674 O 149.1 -1.22991 -2.42045 0
M  V30 1675 C 147.556 -3.43648 -1.0693 0
M  V30 1676 C 147.164 -4.47994 0.0239049 0
M  V30 1677 C 148.908 -3.88695 -1.70635 0
M  V30 1678 C 146.815 -5.89381 -0.488319 0
M  V30 1679 H 145.745 -0.721939 -0.217532 0
M  V30 1680 H 148.396 -1.82735 0.167369 0
M  V30 1681 H 146.778 -3.49466 -1.8625 0
M  V30 1682 H 147.952 -4.53815 0.799277 0
M  V30 1683 H 146.267 -4.12536 0.565946 0
M  V30 1684 H 148.864 -4.91725 -2.10025 0
M  V30 1685 H 149.207 -3.27166 -2.57426 0
M  V30 1686 H 149.74 -3.85564 -0.979023 0
M  V30 1687 H 146.479 -6.54602 0.342906 0
M  V30 1688 H 145.999 -5.87037 -1.23077 0
M  V30 1689 H 147.678 -6.39863 -0.958317 0
M  V30 1690 N 147.81 0.181792 -1.56548 0
M  V30 1691 C 149.056 0.901431 -1.81665 0
M  V30 1692 C 149.389 1.82347 -0.668075 0
M  V30 1693 O 148.664 1.91669 0.330615 0
M  V30 1694 C 148.947 1.70618 -3.17115 0
M  V30 1695 C 148.8 0.807964 -4.42484 0
M  V30 1696 C 150.119 2.67605 -3.49393 0
M  V30 1697 H 147.238 0.32627 -0.660846 0
M  V30 1698 H 149.88 0.168134 -1.89255 0
M  V30 1699 H 148.03 2.33133 -3.10775 0
M  V30 1700 H 149.702 0.19649 -4.60881 0
M  V30 1701 H 147.945 0.115411 -4.33646 0
M  V30 1702 H 148.616 1.40632 -5.33785 0
M  V30 1703 H 151.092 2.15218 -3.56118 0
M  V30 1704 H 149.968 3.20985 -4.45264 0
M  V30 1705 H 150.229 3.47298 -2.73563 0
M  V30 1706 N 149.288 1.51039 0.449983 0
M  V30 1707 C 150.218 1.74379 1.55288 0
M  V30 1708 C 151.199 0.593236 1.5942 0
M  V30 1709 O 152.384 0.834625 1.7535 0
M  V30 1710 C 149.514 1.85728 2.93466 0
M  V30 1711 C 148.468 3.01078 3.04197 0
M  V30 1712 C 147.794 2.97595 4.44231 0
M  V30 1713 C 149.094 4.41254 2.7945 0
M  V30 1714 H 150.788 2.66725 1.36008 0
M  V30 1715 H 148.334 1.2835 0.652864 0
M  V30 1716 H 150.287 2.0064 3.70569 0
M  V30 1717 H 149.011 0.900207 3.13949 0
M  V30 1718 H 147.67 2.85851 2.29531 0
M  V30 1719 H 147.318 1.99691 4.61663 0
M  V30 1720 H 147.018 3.75046 4.52343 0
M  V30 1721 H 148.542 3.14583 5.23326 0
M  V30 1722 H 149.956 4.56897 3.46292 0
M  V30 1723 H 148.353 5.20315 2.98985 0
M  V30 1724 H 149.423 4.52164 1.75144 0
M  V30 1725 N 150.766 -0.704594 1.40972 0
M  V30 1726 C 152.015 -1.46018 1.39146 0
M  V30 1727 C 152.328 -1.956 0.000589254 0
M  V30 1728 O 153.534 -2.71137 -0.1403 0
M  V30 1729 C 151.99 -2.63996 2.4461 0
M  V30 1730 C 151.598 -2.21238 3.89561 0
M  V30 1731 C 153.342 -3.41677 2.51907 0
M  V30 1732 C 151.249 -3.3612 4.86598 0
M  V30 1733 H 150.179 -0.548444 0.517422 0
M  V30 1734 H 152.83 -0.765784 1.66757 0
M  V30 1735 H 151.212 -3.3566 2.10115 0
M  V30 1736 H 152.386 -1.56923 4.33257 0
M  V30 1737 H 150.701 -1.56574 3.85841 0
M  V30 1738 H 153.298 -4.27182 3.2159 0
M  V30 1739 H 153.641 -3.86247 1.55303 0
M  V30 1740 H 154.174 -2.77064 2.85448 0
M  V30 1741 H 150.913 -2.96572 5.84573 0
M  V30 1742 H 150.433 -3.99315 4.47557 0
M  V30 1743 H 152.112 -4.02029 5.06934 0
M  V30 1744 N 152.244 -1.26651 -0.937939 0
M  V30 1745 C 153.174 -1.10993 -2.05433 0
M  V30 1746 C 154.155 -0.0142161 -1.70094 0
M  V30 1747 O 155.34 -0.186837 -1.93299 0
M  V30 1748 C 152.47 -0.745561 -3.39203 0
M  V30 1749 C 151.424 -1.79337 -3.88616 0
M  V30 1750 C 150.75 -1.28324 -5.19073 0
M  V30 1751 C 152.05 -3.19553 -4.13138 0
M  V30 1752 H 153.744 -2.0438 -2.1879 0
M  V30 1753 H 151.29 -0.984041 -1.05131 0
M  V30 1754 H 153.243 -0.622888 -4.16771 0
M  V30 1755 H 151.967 0.22401 -3.25831 0
M  V30 1756 H 150.626 -1.90477 -3.13231 0
M  V30 1757 H 150.274 -0.303414 -5.02084 0
M  V30 1758 H 149.974 -1.98369 -5.53103 0
M  V30 1759 H 151.498 -1.1733 -5.99221 0
M  V30 1760 H 152.912 -3.11471 -4.81309 0
M  V30 1761 H 151.309 -3.87218 -4.58457 0
M  V30 1762 H 152.379 -3.65368 -3.18801 0
M  V30 1763 N 153.722 1.14298 -1.08507 0
M  V30 1764 C 154.971 1.84708 -0.810305 0
M  V30 1765 C 155.284 1.83903 0.666271 0
M  V30 1766 O 156.49 2.50112 1.05624 0
M  V30 1767 C 154.946 3.31572 -1.39957 0
M  V30 1768 C 154.554 3.40791 -2.90801 0
M  V30 1769 C 156.298 4.07087 -1.20334 0
M  V30 1770 C 154.205 4.81872 -3.4286 0
M  V30 1771 H 153.135 0.691985 -0.299454 0
M  V30 1772 H 155.786 1.28841 -1.30661 0
M  V30 1773 H 154.168 3.87183 -0.830976 0
M  V30 1774 H 155.342 2.95225 -3.53806 0
M  V30 1775 H 153.657 2.78732 -3.0935 0
M  V30 1776 H 156.254 5.11225 -1.56693 0
M  V30 1777 H 156.597 4.16054 -0.143237 0
M  V30 1778 H 157.13 3.57779 -1.73893 0
M  V30 1779 H 153.869 4.78094 -4.48449 0
M  V30 1780 H 153.389 5.27972 -2.84615 0
M  V30 1781 H 155.068 5.50765 -3.39509 0
M  V30 1782 N 155.201 0.870884 1.31352 0
M  V30 1783 C 156.131 0.343096 2.30966 0
M  V30 1784 C 157.112 -0.566507 1.60389 0
M  V30 1785 O 158.297 -0.483336 1.88089 0
M  V30 1786 C 155.427 -0.455487 3.443 0
M  V30 1787 C 154.381 0.361103 4.26474 0
M  V30 1788 C 153.707 -0.563221 5.31725 0
M  V30 1789 C 155.007 1.59566 4.97329 0
M  V30 1790 H 156.701 1.17548 2.75359 0
M  V30 1791 H 154.247 0.566686 1.32381 0
M  V30 1792 H 156.2 -0.83525 4.13039 0
M  V30 1793 H 154.924 -1.32139 2.98675 0
M  V30 1794 H 153.583 0.722825 3.59403 0
M  V30 1795 H 153.231 -1.42643 4.82351 0
M  V30 1796 H 152.931 -0.0207409 5.87596 0
M  V30 1797 H 154.455 -0.939808 6.03324 0
M  V30 1798 H 155.869 1.28728 5.58661 0
M  V30 1799 H 154.266 2.07728 5.63 0
M  V30 1800 H 155.336 2.34798 4.24262 0
M  V30 1801 N 156.679 -1.44442 0.630414 0
M  V30 1802 C 157.627 -2.32437 -0.0871428 0
M  V30 1803 C 158.621 -1.47304 -0.836525 0
M  V30 1804 O 159.827 -1.63653 -0.749506 0
M  V30 1805 H 156.202 -0.750533 -0.0469495 0
M  V30 1806 H 158.173 -2.90709 0.673096 0
M  V30 1807 C 156.922 -3.31288 -1.05563 0
M  V30 1808 H 156.245 -3.96805 -0.488426 0
M  V30 1809 H 157.685 -3.9554 -1.52721 0
M  V30 1810 C 156.144 -2.6016 -2.14052 0
M  V30 1811 O 156.674 -2.39997 -3.22124 0
M  V30 1812 N 154.88 -2.19911 -1.89967 0
M  V30 1813 H 154.427 -2.36509 -1.02085 0
M  V30 1814 H 154.385 -1.72646 -2.62756 0
M  V30 1815 N 158.157 -0.370918 -1.53173 0
M  V30 1816 C 159.12 0.460778 -2.24521 0
M  V30 1817 C 160.12 1.00536 -1.25496 0
M  V30 1818 O 161.31 0.890266 -1.49733 0
M  V30 1819 C 158.442 1.64457 -2.98608 0
M  V30 1820 H 159.635 -0.163613 -2.99453 0
M  V30 1821 H 157.188 -0.122699 -1.55818 0
M  V30 1822 H 157.923 2.30691 -2.2793 0
M  V30 1823 H 157.708 1.26099 -3.7127 0
M  V30 1824 H 159.198 2.23384 -3.5283 0
M  V30 1825 N 159.635 1.57281 -0.100228 0
M  V30 1826 C 160.598 2.13158 0.842398 0
M  V30 1827 C 161.598 1.06202 1.20738 0
M  V30 1828 O 162.788 1.32066 1.13597 0
M  V30 1829 C 159.92 2.65639 2.13655 0
M  V30 1830 H 161.113 2.97766 0.357114 0
M  V30 1831 H 158.666 1.5559 0.148823 0
M  V30 1832 H 159.401 1.84566 2.66657 0
M  V30 1833 H 159.186 3.43844 1.88451 0
M  V30 1834 H 160.676 3.08846 2.81077 0
M  V30 1835 N 161.113 -0.173488 1.56642 0
M  V30 1836 C 162.359 -0.891784 1.8214 0
M  V30 1837 C 162.692 -1.8199 0.677736 0
M  V30 1838 O 161.967 -1.91842 -0.320446 0
M  V30 1839 C 162.25 -1.68933 3.18015 0
M  V30 1840 C 162.103 -0.784487 4.42906 0
M  V30 1841 C 163.422 -2.65748 3.50808 0
M  V30 1842 H 160.541 -0.322761 0.662567 0
M  V30 1843 H 163.183 -0.158095 1.89341 0
M  V30 1844 H 161.333 -2.31482 3.12007 0
M  V30 1845 H 163.005 -0.172046 4.60979 0
M  V30 1846 H 161.248 -0.0924117 4.33702 0
M  V30 1847 H 161.919 -1.37799 5.34524 0
M  V30 1848 H 164.395 -2.13327 3.57255 0
M  V30 1849 H 163.271 -3.18619 4.4696 0
M  V30 1850 H 163.532 -3.45842 2.75401 0
M  V30 1851 N 162.591 -1.51276 -0.441967 0
M  V30 1852 C 163.839 -1.63392 -1.18943 0
M  V30 1853 C 164.16 -0.350159 -1.9183 0
M  V30 1854 O 163.43 0.633784 -1.85364 0
M  V30 1855 H 162.01 -0.602164 -0.442049 0
M  V30 1856 H 164.672 -1.88186 -0.507165 0
M  V30 1857 H 163.768 -2.45934 -1.92154 0
M  V30 1858 N 164.069 0.697108 -1.41344 0
M  V30 1859 C 165.315 1.4593 -1.40827 0
M  V30 1860 C 165.648 1.94193 -0.0167098 0
M  V30 1861 O 164.923 1.69425 0.955263 0
M  V30 1862 C 165.206 2.67229 -2.41373 0
M  V30 1863 C 165.059 2.24741 -3.8963 0
M  V30 1864 C 166.378 3.69423 -2.39196 0
M  V30 1865 H 163.497 0.529303 -0.512842 0
M  V30 1866 H 166.139 0.794112 -1.72609 0
M  V30 1867 H 164.289 3.23982 -2.14401 0
M  V30 1868 H 165.961 1.73327 -4.27499 0
M  V30 1869 H 164.204 1.56542 -4.0457 0
M  V30 1870 H 164.875 3.1177 -4.55525 0
M  V30 1871 H 167.351 3.2234 -2.63128 0
M  V30 1872 H 166.227 4.51907 -3.11563 0
M  V30 1873 H 166.488 4.19012 -1.41001 0
M  V30 1874 N 165.547 1.27147 0.931209 0
M  V30 1875 C 166.793 1.14455 1.68141 0
M  V30 1876 C 167.148 -0.307172 1.89932 0
M  V30 1877 O 166.441 -1.22158 1.47607 0
M  V30 1878 C 166.635 1.8579 3.05314 0
M  V30 1879 C 166.464 3.3775 2.96909 0
M  V30 1880 C 165.234 4.07062 2.99381 0
M  V30 1881 C 167.432 4.33783 2.76291 0
M  V30 1882 N 165.414 5.45618 2.8138 0
M  V30 1883 C 166.785 5.59582 2.6696 0
M  V30 1884 C 168.84 4.23915 2.61152 0
M  V30 1885 C 167.543 6.76639 2.44033 0
M  V30 1886 C 169.569 5.40689 2.39602 0
M  V30 1887 C 168.931 6.65443 2.3101 0
M  V30 1888 H 165.03 0.473667 0.622225 0
M  V30 1889 H 167.614 1.60568 1.10118 0
M  V30 1890 H 165.785 1.42138 3.61457 0
M  V30 1891 H 167.517 1.65634 3.69253 0
M  V30 1892 H 164.272 3.585 3.09475 0
M  V30 1893 H 164.696 6.184 2.75519 0
M  V30 1894 H 169.338 3.28189 2.66555 0
M  V30 1895 H 167.056 7.72451 2.3737 0
M  V30 1896 H 170.642 5.34932 2.28778 0
M  V30 1897 H 169.522 7.54277 2.14558 0
M  V30 1898 N 167.025 -1.13721 1.09112 0
M  V30 1899 C 167.957 -2.1871 0.685467 0
M  V30 1900 C 168.97 -1.60527 -0.271068 0
M  V30 1901 O 170.159 -1.78407 -0.0576148 0
M  V30 1902 C 167.259 -3.38898 -0.0111255 0
M  V30 1903 C 166.432 -4.26597 0.966131 0
M  V30 1904 C 165.491 -5.25324 0.303539 0
M  V30 1905 O 164.517 -5.61213 0.950177 0
M  V30 1906 N 165.719 -5.72779 -0.943651 0
M  V30 1907 H 168.484 -2.54126 1.58871 0
M  V30 1908 H 166.045 -1.29012 0.978143 0
M  V30 1909 H 168.037 -4.02014 -0.465517 0
M  V30 1910 H 166.607 -3.01747 -0.816565 0
M  V30 1911 H 165.827 -3.60306 1.59917 0
M  V30 1912 H 167.115 -4.82048 1.6281 0
M  V30 1913 H 166.513 -5.45762 -1.48862 0
M  V30 1914 H 165.07 -6.37847 -1.34142 0
M  V30 1915 N 168.503 -0.877838 -1.30888 0
M  V30 1916 C 169.413 -0.343096 -2.32078 0
M  V30 1917 C 170.429 0.551022 -1.65045 0
M  V30 1918 O 171.605 0.445854 -1.96403 0
M  V30 1919 C 168.67 0.439905 -3.43898 0
M  V30 1920 C 167.731 -0.483111 -4.26573 0
M  V30 1921 C 166.964 0.262616 -5.33053 0
M  V30 1922 O 167.187 1.48967 -5.50604 0
M  V30 1923 O 166.121 -0.383593 -6.00676 0
M  V30 1924 H 169.947 -1.18203 -2.79753 0
M  V30 1925 H 167.532 -0.64145 -1.34929 0
M  V30 1926 H 169.414 0.883504 -4.12034 0
M  V30 1927 H 168.089 1.25526 -2.98371 0
M  V30 1928 H 166.996 -0.975374 -3.61161 0
M  V30 1929 H 168.329 -1.26427 -4.75686 0
M  V30 1930 N 169.982 1.44106 -0.638065 0
M  V30 1931 C 171.222 2.03858 -0.148733 0
M  V30 1932 C 171.586 1.49153 1.20903 0
M  V30 1933 O 172.787 2.00452 1.79088 0
M  V30 1934 C 171.058 3.57117 -0.142314 0
M  V30 1935 S 172.617 4.37897 0.281385 0
M  V30 1936 H 169.435 0.708069 -0.0644912 0
M  V30 1937 H 172.037 1.7639 -0.843009 0
M  V30 1938 H 170.741 3.94436 -1.13349 0
M  V30 1939 H 170.272 3.89205 0.572988 0
M  V30 1940 H 172.287 4.72218 1.52395 0
M  V30 1941 N 171.46 0.379036 1.52974 0
M  V30 1942 C 172.408 -0.476033 2.27677 0
M  V30 1943 C 173.402 -1.0719 1.31174 0
M  V30 1944 O 174.608 -1.01355 1.48752 0
M  V30 1945 H 170.983 -0.172255 0.732006 0
M  V30 1946 H 172.954 0.175615 2.97883 0
M  V30 1947 C 171.703 -1.5967 3.0887 0
M  V30 1948 H 171.026 -1.1475 3.82978 0
M  V30 1949 H 172.466 -2.16943 3.64296 0
M  V30 1950 C 170.925 -2.54682 2.20542 0
M  V30 1951 O 171.455 -3.57836 1.82527 0
M  V30 1952 N 169.661 -2.24183 1.84907 0
M  V30 1953 H 169.208 -1.40333 2.1602 0
M  V30 1954 H 169.166 -2.88006 1.26096 0
M  V30 1955 N 172.938 -1.57226 0.108567 0
M  V30 1956 C 173.901 -2.13602 -0.831082 0
M  V30 1957 C 174.901 -1.06841 -1.20173 0
M  V30 1958 O 176.091 -1.32666 -1.12895 0
M  V30 1959 C 173.223 -2.66769 -2.12243 0
M  V30 1960 H 174.416 -2.97951 -0.341317 0
M  V30 1961 H 171.969 -1.55667 -0.14057 0
M  V30 1962 H 172.704 -1.85977 -2.65675 0
M  V30 1963 H 172.489 -3.44839 -1.86625 0
M  V30 1964 H 173.979 -3.10332 -2.79435 0
M  V30 1965 N 174.416 0.165178 -1.56732 0
M  V30 1966 C 175.326 1.22423 -2.00125 0
M  V30 1967 C 176.342 1.48084 -0.913619 0
M  V30 1968 O 177.518 1.60112 -1.22172 0
M  V30 1969 C 174.583 2.54197 -2.35764 0
M  V30 1970 C 173.644 2.36343 -3.58386 0
M  V30 1971 C 172.877 3.61834 -3.92316 0
M  V30 1972 O 173.1 4.67267 -3.27135 0
M  V30 1973 O 172.034 3.55579 -4.85641 0
M  V30 1974 H 175.86 0.885886 -2.90492 0
M  V30 1975 H 173.445 0.372518 -1.44681 0
M  V30 1976 H 175.327 3.3192 -2.59629 0
M  V30 1977 H 174.002 2.87598 -1.48557 0
M  V30 1978 H 172.909 1.56632 -3.39731 0
M  V30 1979 H 174.242 2.07865 -4.46154 0
M  V30 1980 N 175.894 1.51508 0.433938 0
M  V30 1981 C 176.841 1.73068 1.52696 0
M  V30 1982 C 177.811 0.572441 1.55924 0
M  V30 1983 O 178.996 0.807253 1.72882 0
M  V30 1984 C 176.136 1.86474 2.90381 0
M  V30 1985 C 175.249 3.14037 2.96656 0
M  V30 1986 C 174.384 3.18019 4.25485 0
M  V30 1987 C 173.423 4.39882 4.2564 0
M  V30 1988 N 172.56 4.41394 5.45999 0
M  V30 1989 H 177.4 2.66366 1.33615 0
M  V30 1990 H 174.937 1.32008 0.649018 0
M  V30 1991 H 176.895 1.92229 3.70275 0
M  V30 1992 H 175.525 0.965809 3.08013 0
M  V30 1993 H 174.577 3.17575 2.09404 0
M  V30 1994 H 175.889 4.0394 2.92633 0
M  V30 1995 H 175.043 3.22708 5.13755 0
M  V30 1996 H 173.782 2.2601 4.3217 0
M  V30 1997 H 172.787 4.35366 3.35763 0
M  V30 1998 H 174.012 5.33159 4.20617 0
M  V30 1999 H 171.958 3.52258 5.53399 0
M  V30 2000 H 171.875 5.25111 5.4387 0
M  V30 2001 H 173.143 4.50281 6.36292 0
M  V30 2002 N 177.372 -0.689602 1.41712 0
M  V30 2003 C 178.597 -1.48329 1.44959 0
M  V30 2004 C 179.022 -1.8801 0.0581283 0
M  V30 2005 O 178.38 -1.55026 -0.940035 0
M  V30 2006 C 178.428 -2.71835 2.36935 0
M  V30 2007 O 177.532 -3.69549 1.8305 0
M  V30 2008 H 176.873 -0.446199 0.491734 0
M  V30 2009 H 179.403 -0.847127 1.86239 0
M  V30 2010 H 179.413 -3.20076 2.53013 0
M  V30 2011 H 178.088 -2.42291 3.38035 0
M  V30 2012 H 176.665 -3.2851 1.76452 0
M  V30 2013 N 178.85 -1.27639 -0.924453 0
M  V30 2014 C 179.78 -1.13166 -2.04244 0
M  V30 2015 C 180.761 -0.032256 -1.70069 0
M  V30 2016 O 181.946 -0.207328 -1.9309 0
M  V30 2017 C 179.076 -0.781496 -3.38393 0
M  V30 2018 C 178.03 -1.83449 -3.86692 0
M  V30 2019 C 177.356 -1.33822 -5.17683 0
M  V30 2020 C 178.656 -3.23917 -4.09726 0
M  V30 2021 H 180.35 -2.06689 -2.1661 0
M  V30 2022 H 177.896 -0.995136 -1.04082 0
M  V30 2023 H 179.849 -0.667057 -4.16087 0
M  V30 2024 H 178.573 0.189439 -3.2605 0
M  V30 2025 H 177.232 -1.93789 -3.11193 0
M  V30 2026 H 176.88 -0.35665 -5.01734 0
M  V30 2027 H 176.58 -2.04224 -5.50968 0
M  V30 2028 H 178.104 -1.23679 -5.97943 0
M  V30 2029 H 179.518 -3.16559 -4.77978 0
M  V30 2030 H 177.915 -3.92059 -4.54324 0
M  V30 2031 H 178.985 -3.68729 -3.14908 0
M  V30 2032 N 180.328 1.1314 -1.09713 0
M  V30 2033 C 181.238 2.22242 -0.751367 0
M  V30 2034 C 182.254 1.72224 0.247938 0
M  V30 2035 O 183.43 2.01205 0.0885463 0
M  V30 2036 C 180.495 3.46231 -0.180274 0
M  V30 2037 C 179.556 4.11125 -1.2359 0
M  V30 2038 C 178.789 5.29195 -0.691966 0
M  V30 2039 O 179.012 5.68342 0.48414 0
M  V30 2040 O 177.946 5.84214 -1.44838 0
M  V30 2041 H 181.772 2.54197 -1.66186 0
M  V30 2042 H 179.357 1.21331 -0.871735 0
M  V30 2043 H 181.239 4.21185 0.134739 0
M  V30 2044 H 179.914 3.1597 0.703185 0
M  V30 2045 H 178.821 3.37985 -1.60366 0
M  V30 2046 H 180.154 4.45524 -2.09211 0
M  V30 2047 N 181.806 0.884767 1.30421 0
M  V30 2048 C 182.769 0.356277 2.26414 0
M  V30 2049 C 183.769 -0.501124 1.52792 0
M  V30 2050 O 184.959 -0.30831 1.7145 0
M  V30 2051 C 182.091 -0.492316 3.37326 0
M  V30 2052 H 183.284 1.20389 2.74675 0
M  V30 2053 H 180.837 0.661607 1.41607 0
M  V30 2054 H 181.572 -1.36052 2.94381 0
M  V30 2055 H 181.357 0.121832 3.91911 0
M  V30 2056 H 182.847 -0.853871 4.08777 0
M  V30 2057 N 183.284 -1.43765 0.645699 0
M  V30 2058 C 184.214 -2.33471 -0.0370477 0
M  V30 2059 C 185.195 -1.49042 -0.819779 0
M  V30 2060 O 186.38 -1.77726 -0.782758 0
M  V30 2061 C 183.51 -3.32311 -1.0093 0
M  V30 2062 C 182.464 -4.2667 -0.337201 0
M  V30 2063 C 181.79 -5.1549 -1.42037 0
M  V30 2064 C 183.09 -5.16657 0.765706 0
M  V30 2065 H 184.784 -2.90809 0.712069 0
M  V30 2066 H 182.33 -1.39834 0.343876 0
M  V30 2067 H 184.283 -3.9396 -1.49578 0
M  V30 2068 H 183.007 -2.73213 -1.78948 0
M  V30 2069 H 181.666 -3.66374 0.128771 0
M  V30 2070 H 181.314 -4.52735 -2.1918 0
M  V30 2071 H 181.014 -5.79438 -0.975966 0
M  V30 2072 H 182.538 -5.80012 -1.90838 0
M  V30 2073 H 183.952 -5.72158 0.361702 0
M  V30 2074 H 182.349 -5.89286 1.13413 0
M  V30 2075 H 183.419 -4.56796 1.62683 0
M  V30 2076 N 184.763 -0.387143 -1.52771 0
M  V30 2077 C 185.71 0.449048 -2.26389 0
M  V30 2078 C 186.68 1.05961 -1.27912 0
M  V30 2079 O 187.865 1.08804 -1.56737 0
M  V30 2080 C 185.005 1.57155 -3.0724 0
M  V30 2081 C 184.118 0.984066 -4.20643 0
M  V30 2082 C 183.253 2.07745 -4.88892 0
M  V30 2083 C 182.292 1.46574 -5.94292 0
M  V30 2084 N 181.429 2.49834 -6.56146 0
M  V30 2085 H 186.269 -0.185205 -2.97424 0
M  V30 2086 H 183.806 -0.103164 -1.46738 0
M  V30 2087 H 185.764 2.23309 -3.52405 0
M  V30 2088 H 184.394 2.17615 -2.38419 0
M  V30 2089 H 183.446 0.212193 -3.79808 0
M  V30 2090 H 184.758 0.497029 -4.96318 0
M  V30 2091 H 183.912 2.81673 -5.3735 0
M  V30 2092 H 182.651 2.59807 -4.12737 0
M  V30 2093 H 181.656 0.711696 -5.45174 0
M  V30 2094 H 182.881 0.953088 -6.72379 0
M  V30 2095 H 180.827 3.0107 -5.82832 0
M  V30 2096 H 180.744 2.05879 -7.27427 0
M  V30 2097 H 182.012 3.23399 -7.09249 0
M  V30 2098 N 186.241 1.57166 -0.116904 0
M  V30 2099 C 187.151 2.18745 0.847812 0
M  V30 2100 C 188.167 1.163 1.29423 0
M  V30 2101 O 189.343 1.48761 1.35765 0
M  V30 2102 C 186.408 2.77307 2.0809 0
M  V30 2103 C 185.469 3.94781 1.68661 0
M  V30 2104 C 184.702 4.50541 2.86091 0
M  V30 2105 O 184.925 4.05202 4.01456 0
M  V30 2106 O 183.859 5.41256 2.63298 0
M  V30 2107 H 187.685 3.01632 0.353778 0
M  V30 2108 H 185.27 1.49005 0.108599 0
M  V30 2109 H 187.152 3.14647 2.80313 0
M  V30 2110 H 185.827 1.97452 2.56504 0
M  V30 2111 H 184.734 3.62214 0.935518 0
M  V30 2112 H 186.067 4.76065 1.24991 0
M  V30 2113 N 187.719 -0.156864 1.56817 0
M  V30 2114 C 188.649 -1.19589 2.00551 0
M  V30 2115 C 189.63 -1.4536 0.883426 0
M  V30 2116 O 190.815 -1.56449 1.15054 0
M  V30 2117 C 187.945 -2.53143 2.37773 0
M  V30 2118 C 186.899 -2.41913 3.53075 0
M  V30 2119 C 186.225 -3.80088 3.76081 0
M  V30 2120 C 187.525 -1.91157 4.86062 0
M  V30 2121 H 189.219 -0.832293 2.87599 0
M  V30 2122 H 186.765 -0.398918 1.38364 0
M  V30 2123 H 188.718 -3.26047 2.66967 0
M  V30 2124 H 187.442 -2.91319 1.4765 0
M  V30 2125 H 186.101 -1.71462 3.24031 0
M  V30 2126 H 185.749 -4.15683 2.83225 0
M  V30 2127 H 185.449 -3.73439 4.53671 0
M  V30 2128 H 186.973 -4.54556 4.0769 0
M  V30 2129 H 188.387 -2.53846 5.14038 0
M  V30 2130 H 186.784 -1.95422 5.67389 0
M  V30 2131 H 187.854 -0.866673 4.77092 0
M  V30 2132 N 189.197 -1.51736 -0.425897 0
M  V30 2133 C 190.129 -1.70083 -1.53638 0
M  V30 2134 C 191.142 -0.581349 -1.52066 0
M  V30 2135 O 192.331 -0.856017 -1.56635 0
M  V30 2136 C 189.431 -1.71078 -2.9255 0
M  V30 2137 C 188.604 -2.99795 -3.185 0
M  V30 2138 C 187.663 -2.92825 -4.37196 0
M  V30 2139 O 186.689 -3.66756 -4.35291 0
M  V30 2140 N 187.891 -2.0946 -5.41393 0
M  V30 2141 H 190.656 -2.65882 -1.383 0
M  V30 2142 H 188.217 -1.49765 -0.614988 0
M  V30 2143 H 190.209 -1.63969 -3.69995 0
M  V30 2144 H 188.779 -0.828242 -3.01428 0
M  V30 2145 H 187.999 -3.20684 -2.2925 0
M  V30 2146 H 189.287 -3.84977 -3.32671 0
M  V30 2147 H 188.685 -1.48792 -5.45781 0
M  V30 2148 H 187.242 -2.08221 -6.17647 0
M  V30 2149 N 190.675 0.682077 -1.42076 0
M  V30 2150 C 192.086 1.26246 -1.37546 0
M  V30 2151 C 192.437 1.96092 -0.0651481 0
M  V30 2152 O 191.562 1.99587 0.836297 0
M  V30 2153 C 192.157 2.29594 -2.49143 0
M  V30 2154 C 190.716 2.83175 -2.47969 0
M  V30 2155 C 189.863 1.57395 -2.28303 0
M  V30 2156 H 192.814 0.475937 -1.51395 0
M  V30 2157 H 192.835 3.11175 -2.18976 0
M  V30 2158 H 192.347 1.78729 -3.44496 0
M  V30 2159 H 190.448 3.3818 -1.56413 0
M  V30 2160 H 190.561 3.32687 -3.44755 0
M  V30 2161 H 188.925 1.83699 -1.76428 0
M  V30 2162 H 189.708 1.08507 -3.25701 0
M  V30 2163 N 192.153 1.28127 0.917671 0
M  V30 2164 C 193.381 1.17892 1.70026 0
M  V30 2165 C 193.796 -0.262958 1.8696 0
M  V30 2166 O 193.153 -1.17811 1.3938 0
M  V30 2167 C 193.204 1.86872 3.09453 0
M  V30 2168 O 192.925 3.25428 2.93306 0
M  V30 2169 C 194.426 1.8289 4.03815 0
M  V30 2170 H 191.646 0.40942 0.531617 0
M  V30 2171 H 194.19 1.69181 1.14883 0
M  V30 2172 H 192.345 1.39464 3.61426 0
M  V30 2173 H 192.759 3.59918 3.81523 0
M  V30 2174 H 194.233 2.35751 4.99125 0
M  V30 2175 H 194.71 0.800412 4.31845 0
M  V30 2176 H 195.316 2.29959 3.57769 0
M  V30 2177 N 193.631 -1.12557 1.10312 0
M  V30 2178 C 194.578 -2.18247 0.750781 0
M  V30 2179 C 195.548 -1.63853 -0.272293 0
M  V30 2180 O 196.733 -1.90195 -0.151862 0
M  V30 2181 C 193.873 -3.44591 0.187379 0
M  V30 2182 C 192.986 -4.13046 1.2656 0
M  V30 2183 C 192.121 -5.27034 0.663978 0
M  V30 2184 C 191.16 -5.87353 1.72287 0
M  V30 2185 N 190.297 -6.92757 1.1416 0
M  V30 2186 H 195.137 -2.47732 1.65628 0
M  V30 2187 H 192.674 -1.21629 0.827337 0
M  V30 2188 H 194.632 -4.16904 -0.157148 0
M  V30 2189 H 193.262 -3.15527 -0.681355 0
M  V30 2190 H 192.314 -3.38924 1.72727 0
M  V30 2191 H 193.626 -4.53947 2.06721 0
M  V30 2192 H 192.78 -6.06104 0.268824 0
M  V30 2193 H 191.519 -4.87407 -0.169082 0
M  V30 2194 H 190.524 -5.06971 2.12746 0
M  V30 2195 H 191.749 -6.29051 2.55875 0
M  V30 2196 H 189.695 -6.5517 0.329984 0
M  V30 2197 H 189.612 -7.3225 1.88007 0
M  V30 2198 H 190.88 -7.75658 0.772956 0
M  V30 2199 N 195.109 -0.891671 -1.2995 0
M  V30 2200 C 196.072 -0.36828 -2.26222 0
M  V30 2201 C 197.072 0.493014 -1.53056 0
M  V30 2202 O 198.262 0.299213 -1.71611 0
M  V30 2203 C 195.394 0.47442 -3.37583 0
M  V30 2204 H 196.587 -1.21844 -2.74033 0
M  V30 2205 H 194.14 -0.669107 -1.41254 0
M  V30 2206 H 194.875 1.34489 -2.95099 0
M  V30 2207 H 194.66 -0.142615 -3.91841 0
M  V30 2208 H 196.15 0.83218 -4.09224 0
M  V30 2209 N 196.587 1.43421 -0.653314 0
M  V30 2210 C 197.534 2.30768 0.0382271 0
M  V30 2211 C 198.504 1.44755 0.814576 0
M  V30 2212 O 199.689 1.73624 0.791162 0
M  V30 2213 C 196.829 3.30336 0.998599 0
M  V30 2214 C 195.942 4.31448 0.218342 0
M  V30 2215 C 195.077 5.18098 1.17252 0
M  V30 2216 C 194.116 6.10902 0.382702 0
M  V30 2217 N 193.253 6.90176 1.28848 0
M  V30 2218 H 198.093 2.89357 -0.712511 0
M  V30 2219 H 195.63 1.42548 -0.363128 0
M  V30 2220 H 197.588 3.86572 1.56901 0
M  V30 2221 H 196.218 2.73397 1.71621 0
M  V30 2222 H 195.27 3.77506 -0.46836 0
M  V30 2223 H 196.582 4.97227 -0.395812 0
M  V30 2224 H 195.736 5.7896 1.81356 0
M  V30 2225 H 194.475 4.52444 1.82058 0
M  V30 2226 H 193.48 5.49128 -0.27169 0
M  V30 2227 H 194.705 6.78598 -0.260957 0
M  V30 2228 H 192.651 6.27171 1.92334 0
M  V30 2229 H 192.568 7.52478 0.728887 0
M  V30 2230 H 193.836 7.55543 1.91766 0
M  V30 2231 N 198.065 0.39524 1.52563 0
M  V30 2232 C 199.311 -0.185318 2.01952 0
M  V30 2233 C 199.644 -1.45964 1.28095 0
M  V30 2234 O 198.919 -1.90689 0.38315 0
M  V30 2235 C 199.202 -0.447193 3.57312 0
M  V30 2236 C 199.055 0.842828 4.41833 0
M  V30 2237 C 200.374 -1.23529 4.22408 0
M  V30 2238 H 197.493 -0.0658788 0.73405 0
M  V30 2239 H 200.135 0.525975 1.82575 0
M  V30 2240 H 198.285 -1.05312 3.73954 0
M  V30 2241 H 199.957 1.4795 4.36931 0
M  V30 2242 H 198.2 1.45686 4.08605 0
M  V30 2243 H 198.871 0.614165 5.48573 0
M  V30 2244 H 201.347 -0.722445 4.0978 0
M  V30 2245 H 200.223 -1.38727 5.3108 0
M  V30 2246 H 200.484 -2.25213 3.80436 0
M  V30 2247 N 199.544 -1.57102 0.125237 0
M  V30 2248 C 200.474 -2.18659 -0.819174 0
M  V30 2249 C 201.455 -1.12843 -1.27281 0
M  V30 2250 O 202.64 -1.41104 -1.33429 0
M  V30 2251 C 199.77 -2.79096 -2.06695 0
M  V30 2252 C 198.724 -3.90548 -1.75088 0
M  V30 2253 C 198.05 -4.37821 -3.06948 0
M  V30 2254 C 199.35 -5.12356 -1.01435 0
M  V30 2255 H 201.044 -2.9783 -0.306202 0
M  V30 2256 H 198.59 -1.4326 -0.145839 0
M  V30 2257 H 200.543 -3.2082 -2.73226 0
M  V30 2258 H 199.267 -1.97223 -2.60328 0
M  V30 2259 H 197.926 -3.49409 -1.10944 0
M  V30 2260 H 197.574 -3.52799 -3.58527 0
M  V30 2261 H 197.274 -5.12982 -2.86571 0
M  V30 2262 H 198.798 -4.822 -3.74587 0
M  V30 2263 H 200.212 -5.5106 -1.58132 0
M  V30 2264 H 198.609 -5.9314 -0.911319 0
M  V30 2265 H 199.679 -4.849 -0.00218681 0
M  V30 2266 N 201.022 0.148545 -1.56898 0
M  V30 2267 C 202.438 0.501131 -1.51528 0
M  V30 2268 C 202.638 1.83458 -0.833399 0
M  V30 2269 O 201.694 2.49259 -0.40328 0
M  V30 2270 C 203.007 0.512864 -2.96294 0
M  V30 2271 C 204.555 0.598487 -3.07225 0
M  V30 2272 C 205.03 0.640897 -4.53494 0
M  V30 2273 N 206.521 0.703163 -4.57832 0
M  V30 2274 C 207.256 0.756935 -5.68382 0
M  V30 2275 N 206.752 0.770147 -6.88506 0
M  V30 2276 N 208.545 0.797698 -5.56411 0
M  V30 2277 H 200.696 -0.725532 -1.99624 0
M  V30 2278 H 202.959 -0.264358 -0.910395 0
M  V30 2279 H 202.665 -0.398691 -3.49433 0
M  V30 2280 H 202.539 1.35133 -3.52163 0
M  V30 2281 H 204.926 1.50046 -2.54106 0
M  V30 2282 H 205.007 -0.267093 -2.54402 0
M  V30 2283 H 204.651 -0.256915 -5.0725 0
M  V30 2284 H 204.581 1.52295 -5.04097 0
M  V30 2285 H 207.072 0.700314 -3.71354 0
M  V30 2286 H 207.385 0.812983 -7.68512 0
M  V30 2287 H 205.73 0.738049 -6.9107 0
M  V30 2288 H 208.921 0.784535 -4.61479 0
M  V30 2289 H 209.094 0.83614 -6.42583 0
M  V30 2290 N 202.5 1.5196 0.417844 0
M  V30 2291 C 203.777 1.56146 1.17803 0
M  V30 2292 C 204.157 0.337275 2.08388 0
M  V30 2293 O 203.505 -0.676447 2.18258 0
M  V30 2294 C 203.715 2.88566 1.96293 0
M  V30 2295 C 205.063 3.41244 2.52662 0
M  V30 2296 O 206.087 2.90247 2.06483 0
M  V30 2297 O 204.946 4.30273 3.36938 0
M  V30 2298 H 202.04 0.628598 0.537395 0
M  V30 2299 H 204.586 1.64283 0.425331 0
M  V30 2300 H 203.358 3.69116 1.2988 0
M  V30 2301 H 202.981 2.83681 2.78587 0
M  V30 2302 N 203.978 -0.674533 1.42435 0
M  V30 2303 C 205.226 -1.43175 1.42637 0
M  V30 2304 C 205.547 -1.94951 0.0438992 0
M  V30 2305 O 204.817 -1.7308 -0.917607 0
M  V30 2306 H 203.397 -0.531307 0.525092 0
M  V30 2307 H 206.059 -0.797006 1.77859 0
M  V30 2308 H 205.155 -2.28463 2.12629 0
M  V30 2309 N 205.456 -1.28612 -0.910864 0
M  V30 2310 C 206.403 -1.12786 -2.01365 0
M  V30 2311 C 207.373 -0.024201 -1.66082 0
M  V30 2312 O 208.558 -0.189667 -1.89855 0
M  V30 2313 C 205.698 -0.798743 -3.35729 0
M  V30 2314 C 204.811 -1.98173 -3.83864 0
M  V30 2315 C 203.946 -1.59298 -5.06752 0
M  V30 2316 C 202.985 -2.74245 -5.47226 0
M  V30 2317 N 202.122 -2.35842 -6.61304 0
M  V30 2318 H 206.962 -2.07142 -2.14234 0
M  V30 2319 H 204.499 -1.03093 -1.0493 0
M  V30 2320 H 206.457 -0.588662 -4.13026 0
M  V30 2321 H 205.087 0.10789 -3.2262 0
M  V30 2322 H 204.139 -2.30386 -3.02699 0
M  V30 2323 H 205.451 -2.84343 -4.09818 0
M  V30 2324 H 204.605 -1.34513 -5.916 0
M  V30 2325 H 203.344 -0.702618 -4.82612 0
M  V30 2326 H 202.349 -2.99725 -4.60918 0
M  V30 2327 H 203.574 -3.63928 -5.73353 0
M  V30 2328 H 201.52 -1.49279 -6.38789 0
M  V30 2329 H 201.437 -3.15546 -6.86998 0
M  V30 2330 H 202.705 -2.14348 -7.4945 0
M  V30 2331 N 206.934 1.1197 -1.10907 0
M  V30 2332 C 208.18 1.84059 -0.865674 0
M  V30 2333 C 208.535 1.82731 0.602254 0
M  V30 2334 O 207.828 1.26543 1.43866 0
M  V30 2335 C 208.022 3.30749 -1.35425 0
M  V30 2336 C 207.851 3.46363 -2.86815 0
M  V30 2337 C 206.621 3.59712 -3.54874 0
M  V30 2338 C 208.819 3.41116 -3.84895 0
M  V30 2339 N 206.801 3.63741 -4.94536 0
M  V30 2340 C 208.172 3.51698 -5.10596 0
M  V30 2341 C 210.227 3.24612 -3.77533 0
M  V30 2342 C 208.93 3.4748 -6.29802 0
M  V30 2343 C 210.956 3.21708 -4.96244 0
M  V30 2344 C 210.318 3.32856 -6.20795 0
M  V30 2345 H 206.417 0.689015 -0.369841 0
M  V30 2346 H 209.001 1.34016 -1.41237 0
M  V30 2347 H 207.172 3.79322 -0.834814 0
M  V30 2348 H 208.904 3.90718 -1.05458 0
M  V30 2349 H 205.659 3.62038 -3.05329 0
M  V30 2350 H 206.083 3.69408 -5.67333 0
M  V30 2351 H 210.725 3.14883 -2.8215 0
M  V30 2352 H 208.443 3.55978 -7.25469 0
M  V30 2353 H 212.029 3.10113 -4.92261 0
M  V30 2354 H 210.909 3.3059 -7.11112 0
M  V30 2355 N 208.412 0.89855 1.29475 0
M  V30 2356 C 209.322 0.379974 2.31502 0
M  V30 2357 C 210.338 -0.524695 1.659 0
M  V30 2358 O 211.514 -0.414551 1.97087 0
M  V30 2359 C 208.579 -0.385138 3.44554 0
M  V30 2360 C 207.64 0.550914 4.2575 0
M  V30 2361 C 206.873 -0.177778 5.33404 0
M  V30 2362 O 207.096 -1.40189 5.52904 0
M  V30 2363 O 206.03 0.479106 5.9999 0
M  V30 2364 H 209.856 1.22639 2.77837 0
M  V30 2365 H 207.441 0.662834 1.33891 0
M  V30 2366 H 209.323 -0.817841 4.13388 0
M  V30 2367 H 207.998 -1.20763 3.0033 0
M  V30 2368 H 206.905 1.03271 3.59564 0
M  V30 2369 H 208.238 1.33979 4.73614 0
M  V30 2370 N 209.89 -1.43072 0.660911 0
M  V30 2371 C 211.139 -2.00942 0.174735 0
M  V30 2372 C 211.452 -1.52797 -1.22117 0
M  V30 2373 O 212.658 -2.02991 -1.80297 0
M  V30 2374 C 211.114 -3.58948 0.261559 0
M  V30 2375 C 210.722 -4.16085 1.66064 0
M  V30 2376 C 212.466 -4.24173 -0.166617 0
M  V30 2377 C 210.373 -5.6641 1.70098 0
M  V30 2378 H 209.303 -0.751483 0.0615631 0
M  V30 2379 H 211.954 -1.63955 0.824069 0
M  V30 2380 H 210.336 -3.93372 -0.455421 0
M  V30 2381 H 211.51 -3.93147 2.40359 0
M  V30 2382 H 209.825 -3.6326 2.03546 0
M  V30 2383 H 212.422 -5.34471 -0.156433 0
M  V30 2384 H 212.765 -3.98647 -1.19943 0
M  V30 2385 H 213.298 -3.94659 0.498875 0
M  V30 2386 H 210.037 -5.96715 2.71315 0
M  V30 2387 H 209.557 -5.91382 1.00139 0
M  V30 2388 H 211.236 -6.30585 1.44816 0
M  V30 2389 N 211.368 -0.403325 -1.52352 0
M  V30 2390 C 212.617 0.175668 -2.00934 0
M  V30 2391 C 212.93 1.46718 -1.29356 0
M  V30 2392 O 214.136 2.12708 -1.68724 0
M  V30 2393 C 212.592 0.363612 -3.58058 0
M  V30 2394 C 212.2 -0.915472 -4.38547 0
M  V30 2395 C 213.944 0.89821 -4.14888 0
M  V30 2396 C 211.851 -0.695035 -5.87302 0
M  V30 2397 H 210.781 0.0694234 -0.750797 0
M  V30 2398 H 213.432 -0.527879 -1.75743 0
M  V30 2399 H 211.814 1.12935 -3.79555 0
M  V30 2400 H 212.988 -1.68691 -4.28812 0
M  V30 2401 H 211.303 -1.37606 -3.93006 0
M  V30 2402 H 213.9 1.07907 -5.23699 0
M  V30 2403 H 214.243 1.87126 -3.71873 0
M  V30 2404 H 214.776 0.191681 -3.97338 0
M  V30 2405 H 211.515 -1.63948 -6.34666 0
M  V30 2406 H 211.035 0.0372116 -5.99788 0
M  V30 2407 H 212.714 -0.33497 -6.46132 0
M  V30 2408 N 212.846 1.57033 -0.133567 0
M  V30 2409 C 214.123 1.87256 0.56522 0
M  V30 2410 C 214.503 1.03726 1.83859 0
M  V30 2411 O 213.851 0.120247 2.28183 0
M  V30 2412 C 214.061 3.3865 0.843636 0
M  V30 2413 C 215.409 4.07574 1.19032 0
M  V30 2414 O 216.433 3.43752 0.933429 0
M  V30 2415 O 215.292 5.20259 1.67312 0
M  V30 2416 H 212.386 0.775678 0.286796 0
M  V30 2417 H 214.932 1.68855 -0.169168 0
M  V30 2418 H 213.704 3.91257 -0.0581149 0
M  V30 2419 H 213.327 3.62532 1.63268 0
M  V30 2420 N 214.325 -0.140222 1.56975 0
M  V30 2421 C 215.55 -0.870414 1.88251 0
M  V30 2422 C 215.975 -1.73637 0.723312 0
M  V30 2423 O 215.333 -1.78329 -0.32689 0
M  V30 2424 C 215.381 -1.69737 3.18154 0
M  V30 2425 O 214.485 -2.80229 3.02565 0
M  V30 2426 H 213.826 -0.242025 0.61832 0
M  V30 2427 H 216.356 -0.128999 2.04193 0
M  V30 2428 H 216.366 -2.09099 3.50345 0
M  V30 2429 H 215.041 -1.06152 4.02125 0
M  V30 2430 H 213.618 -2.44224 2.81796 0
M  V30 2431 N 215.803 -1.52179 -0.40978 0
M  V30 2432 C 216.75 -1.75475 -1.49924 0
M  V30 2433 C 217.72 -0.597175 -1.54994 0
M  V30 2434 O 218.905 -0.834655 -1.71575 0
M  V30 2435 C 216.045 -1.9107 -2.87378 0
M  V30 2436 C 215.158 -3.18717 -2.91622 0
M  V30 2437 C 214.293 -3.24747 -4.20372 0
M  V30 2438 C 213.332 -4.46598 -4.18588 0
M  V30 2439 N 212.469 -4.50025 -5.38908 0
M  V30 2440 H 217.309 -2.68458 -1.29361 0
M  V30 2441 H 214.846 -1.33024 -0.627934 0
M  V30 2442 H 216.804 -1.98096 -3.6717 0
M  V30 2443 H 215.434 -1.01469 -3.06437 0
M  V30 2444 H 214.486 -3.20866 -2.04326 0
M  V30 2445 H 215.798 -4.08544 -2.86169 0
M  V30 2446 H 214.952 -3.30841 -5.08556 0
M  V30 2447 H 213.691 -2.32857 -4.28519 0
M  V30 2448 H 212.696 -4.40652 -3.28794 0
M  V30 2449 H 213.921 -5.39783 -4.12081 0
M  V30 2450 H 211.867 -3.61017 -5.47725 0
M  V30 2451 H 211.784 -5.33697 -5.35447 0
M  V30 2452 H 213.052 -4.60347 -6.29048 0
M  V30 2453 N 217.281 0.66697 -1.42791 0
M  V30 2454 C 218.511 1.45294 -1.46878 0
M  V30 2455 C 218.919 1.89027 -0.0809861 0
M  V30 2456 O 218.262 1.59219 0.916246 0
M  V30 2457 C 218.324 2.72908 -2.34012 0
M  V30 2458 C 217.988 2.51203 -3.81767 0
M  V30 2459 C 218.985 2.15302 -4.73224 0
M  V30 2460 C 216.67 2.65954 -4.26115 0
M  V30 2461 C 218.664 1.94431 -6.07022 0
M  V30 2462 C 216.351 2.44699 -5.59969 0
M  V30 2463 C 217.349 2.08992 -6.5024 0
M  V30 2464 O 217.037 1.87948 -7.81621 0
M  V30 2465 H 216.769 0.453306 -0.501487 0
M  V30 2466 H 219.323 0.826232 -1.88049 0
M  V30 2467 H 217.553 3.38089 -1.87703 0
M  V30 2468 H 219.242 3.34816 -2.29462 0
M  V30 2469 H 220.008 2.03495 -4.40244 0
M  V30 2470 H 215.887 2.92724 -3.56137 0
M  V30 2471 H 219.431 1.66484 -6.77443 0
M  V30 2472 H 215.328 2.56105 -5.9252 0
M  V30 2473 H 216.096 2.02483 -7.93059 0
M  V30 2474 N 218.759 1.29093 0.90403 0
M  V30 2475 C 219.689 1.16401 2.02418 0
M  V30 2476 C 220.67 0.0593085 1.69997 0
M  V30 2477 O 221.855 0.238021 1.92736 0
M  V30 2478 C 218.985 0.835233 3.37107 0
M  V30 2479 C 217.939 1.89578 3.83724 0
M  V30 2480 C 217.265 1.42041 5.15489 0
M  V30 2481 C 218.565 3.30394 4.04521 0
M  V30 2482 H 220.259 2.10109 2.13295 0
M  V30 2483 H 217.805 1.01157 1.02486 0
M  V30 2484 H 219.758 0.733169 4.14973 0
M  V30 2485 H 218.482 -0.137543 3.2631 0
M  V30 2486 H 217.141 1.98715 3.08071 0
M  V30 2487 H 216.789 0.436426 5.01103 0
M  V30 2488 H 216.489 2.12964 5.4765 0
M  V30 2489 H 218.013 1.33176 5.959 0
M  V30 2490 H 219.427 3.24123 4.72882 0
M  V30 2491 H 217.824 3.99237 4.48029 0
M  V30 2492 H 218.894 3.73692 3.09002 0
M  V30 2493 N 220.237 -1.11381 1.11499 0
M  V30 2494 C 221.467 -1.86663 0.885464 0
M  V30 2495 C 221.875 -1.80464 -0.568281 0
M  V30 2496 O 221.218 -1.18445 -1.40415 0
M  V30 2497 C 221.28 -3.36337 1.26956 0
M  V30 2498 C 220.944 -3.66304 2.73259 0
M  V30 2499 C 221.941 -3.63733 3.71476 0
M  V30 2500 C 219.626 -3.9529 3.09921 0
M  V30 2501 C 221.62 -3.89725 5.04374 0
M  V30 2502 C 219.307 -4.20941 4.43004 0
M  V30 2503 C 220.305 -4.18147 5.40039 0
M  V30 2504 O 219.993 -4.43153 6.70724 0
M  V30 2505 H 219.725 -0.597114 0.316908 0
M  V30 2506 H 222.279 -1.41782 1.48617 0
M  V30 2507 H 220.509 -3.81826 0.611999 0
M  V30 2508 H 222.198 -3.92986 1.01573 0
M  V30 2509 H 222.964 -3.41389 3.44498 0
M  V30 2510 H 218.843 -3.966 2.35009 0
M  V30 2511 H 222.387 -3.8746 5.80104 0
M  V30 2512 H 218.284 -4.42761 4.69716 0
M  V30 2513 H 219.052 -4.60717 6.76522 0
M  V30 2514 N 221.715 -0.905404 -1.28997 0
M  V30 2515 C 222.961 -0.535039 -1.95615 0
M  V30 2516 C 223.294 0.917404 -1.71165 0
M  V30 2517 O 222.569 1.65123 -1.02785 0
M  V30 2518 C 222.852 -0.834918 -3.50287 0
M  V30 2519 C 222.705 -2.33948 -3.84172 0
M  V30 2520 C 224.024 -0.325318 -4.38896 0
M  V30 2521 H 221.143 -0.195861 -0.710498 0
M  V30 2522 H 223.785 -1.13313 -1.52513 0
M  V30 2523 H 221.935 -0.325904 -3.87131 0
M  V30 2524 H 223.607 -2.91847 -3.57243 0
M  V30 2525 H 221.85 -2.79789 -3.31513 0
M  V30 2526 H 222.521 -2.49987 -4.92149 0
M  V30 2527 H 224.997 -0.761256 -4.09077 0
M  V30 2528 H 223.873 -0.564295 -5.45992 0
M  V30 2529 H 224.134 0.774144 -4.35269 0
M  V30 2530 N 223.193 1.4272 -0.668489 0
M  V30 2531 C 224.441 2.01226 -0.187769 0
M  V30 2532 C 224.762 1.53092 1.2078 0
M  V30 2533 O 224.032 0.74993 1.80977 0
M  V30 2534 H 222.612 0.744041 -0.0664272 0
M  V30 2535 H 225.274 1.74723 -0.863583 0
M  V30 2536 H 224.37 3.11556 -0.184166 0
M  V30 2537 N 224.671 0.411399 1.52136 0
M  V30 2538 C 225.948 -0.222308 1.94333 0
M  V30 2539 C 226.328 -1.6242 1.34844 0
M  V30 2540 O 225.676 -2.22384 0.525145 0
M  V30 2541 C 225.886 -0.226345 3.48265 0
M  V30 2542 C 227.234 -0.444592 4.22266 0
M  V30 2543 O 228.258 -0.305602 3.54887 0
M  V30 2544 O 227.117 -0.718749 5.41753 0
M  V30 2545 H 224.211 -0.143907 0.814383 0
M  V30 2546 H 226.757 0.467506 1.63133 0
M  V30 2547 H 225.529 0.75475 3.83952 0
M  V30 2548 H 225.152 -0.960163 3.85832 0
M  V30 2549 N 226.149 -1.5696 0.141893 0
M  V30 2550 C 227.398 -1.95135 -0.510427 0
M  V30 2551 C 227.711 -1.02896 -1.66348 0
M  V30 2552 O 228.917 -1.30629 -2.38009 0
M  V30 2553 C 227.373 -3.46876 -0.959427 0
M  V30 2554 C 226.981 -4.47691 0.166419 0
M  V30 2555 C 228.725 -3.93927 -1.58183 0
M  V30 2556 C 226.632 -5.90636 -0.300565 0
M  V30 2557 H 225.562 -0.728494 -0.194454 0
M  V30 2558 H 228.213 -1.8211 0.22542 0
M  V30 2559 H 226.595 -3.55215 -1.75038 0
M  V30 2560 H 227.769 -4.51043 0.94325 0
M  V30 2561 H 226.084 -4.10527 0.696905 0
M  V30 2562 H 228.681 -4.98158 -1.94275 0
M  V30 2563 H 229.024 -3.3519 -2.46888 0
M  V30 2564 H 229.557 -3.88484 -0.855863 0
M  V30 2565 H 226.296 -6.5318 0.550989 0
M  V30 2566 H 225.816 -5.90655 -1.04338 0
M  V30 2567 H 227.495 -6.42588 -0.754265 0
M  V30 2568 N 227.627 0.131896 -1.57047 0
M  V30 2569 C 228.876 0.84044 -1.83356 0
M  V30 2570 C 229.189 1.81646 -0.725535 0
M  V30 2571 O 230.395 2.57025 -0.874659 0
M  V30 2572 C 228.851 1.54528 -3.25037 0
M  V30 2573 C 228.459 0.610902 -4.43815 0
M  V30 2574 C 230.203 2.23972 -3.60606 0
M  V30 2575 C 228.11 1.31823 -5.76521 0
M  V30 2576 H 227.04 0.317599 -0.683847 0
M  V30 2577 H 229.691 0.0931561 -1.83263 0
M  V30 2578 H 228.073 2.33873 -3.19561 0
M  V30 2579 H 229.247 -0.148407 -4.60561 0
M  V30 2580 H 227.562 0.0241016 -4.16393 0
M  V30 2581 H 230.159 2.77558 -4.57018 0
M  V30 2582 H 230.502 3.01173 -2.87403 0
M  V30 2583 H 231.035 1.51529 -3.6781 0
M  V30 2584 H 227.774 0.587771 -6.52859 0
M  V30 2585 H 227.294 2.04987 -5.63685 0
M  V30 2586 H 228.973 1.855 -6.19838 0
M  V30 2587 N 229.106 1.52395 0.401703 0
M  V30 2588 C 230.016 1.7917 1.51444 0
M  V30 2589 C 231.032 0.677691 1.6026 0
M  V30 2590 O 232.208 0.963909 1.76835 0
M  V30 2591 C 229.273 1.94347 2.87107 0
M  V30 2592 C 228.334 3.18257 2.88116 0
M  V30 2593 C 227.567 3.32701 4.17308 0
M  V30 2594 O 227.79 2.52238 5.11598 0
M  V30 2595 O 226.724 4.25891 4.25324 0
M  V30 2596 H 230.55 2.73633 1.31752 0
M  V30 2597 H 228.135 1.3733 0.588296 0
M  V30 2598 H 230.017 2.06109 3.67555 0
M  V30 2599 H 228.692 1.03073 3.06851 0
M  V30 2600 H 227.599 3.11947 2.06494 0
M  V30 2601 H 228.932 4.09336 2.73322 0
M  V30 2602 N 230.584 -0.659388 1.43143 0
M  V30 2603 C 231.514 -1.78422 1.50625 0
M  V30 2604 C 232.495 -1.66216 0.361443 0
M  V30 2605 O 233.68 -1.85404 0.577834 0
M  V30 2606 C 230.81 -3.16815 1.42287 0
M  V30 2607 C 229.764 -3.43777 2.54954 0
M  V30 2608 C 229.09 -4.81905 2.31671 0
M  V30 2609 C 230.39 -3.39134 3.97222 0
M  V30 2610 H 232.084 -1.72417 2.44771 0
M  V30 2611 H 229.63 -0.828084 1.17808 0
M  V30 2612 H 231.583 -3.95253 1.46127 0
M  V30 2613 H 230.307 -3.23534 0.446435 0
M  V30 2614 H 228.966 -2.67707 2.50457 0
M  V30 2615 H 228.614 -4.85294 1.32284 0
M  V30 2616 H 228.314 -5.00906 3.07192 0
M  V30 2617 H 229.838 -5.62609 2.37284 0
M  V30 2618 H 231.252 -4.07518 4.03239 0
M  V30 2619 H 229.649 -3.69671 4.72719 0
M  V30 2620 H 230.719 -2.37426 4.22797 0
M  V30 2621 N 232.062 -1.29571 -0.897171 0
M  V30 2622 C 233.287 -1.20705 -1.68656 0
M  V30 2623 C 233.712 0.228582 -1.86706 0
M  V30 2624 O 233.07 1.16494 -1.3892 0
M  V30 2625 C 233.118 -1.9282 -3.04717 0
M  V30 2626 O 232.222 -1.24697 -3.93096 0
M  V30 2627 H 231.563 -0.418126 -0.515816 0
M  V30 2628 H 234.093 -1.71183 -1.12061 0
M  V30 2629 H 234.103 -2.01372 -3.54843 0
M  V30 2630 H 232.778 -2.97239 -2.90899 0
M  V30 2631 H 231.355 -1.2442 -3.51531 0
M  V30 2632 N 233.54 1.10788 -1.12088 0
M  V30 2633 C 234.786 1.82942 -0.875226 0
M  V30 2634 C 235.119 1.84779 0.597538 0
M  V30 2635 O 234.394 1.30578 1.44152 0
M  V30 2636 C 234.677 3.29789 -1.44606 0
M  V30 2637 C 234.53 3.36307 -2.98693 0
M  V30 2638 C 235.849 4.26064 -1.10261 0
M  V30 2639 H 232.968 0.664195 -0.319397 0
M  V30 2640 H 235.61 1.29867 -1.38689 0
M  V30 2641 H 233.76 3.75118 -1.01089 0
M  V30 2642 H 235.432 2.99487 -3.50864 0
M  V30 2643 H 233.675 2.76318 -3.34411 0
M  V30 2644 H 234.346 4.39694 -3.33726 0
M  V30 2645 H 236.822 3.88951 -1.4784 0
M  V30 2646 H 235.698 5.27183 -1.52869 0
M  V30 2647 H 235.959 4.42098 -0.0142953 0
M  V30 2648 N 235.018 0.912232 1.28515 0
M  V30 2649 C 236.266 0.543523 1.94654 0
M  V30 2650 C 236.587 -0.9155 1.72173 0
M  V30 2651 O 235.857 -1.64708 1.06058 0
M  V30 2652 H 234.437 0.198017 0.720277 0
M  V30 2653 H 237.099 1.16126 1.56527 0
M  V30 2654 H 236.195 0.736684 3.03281 0
M  V30 2655 N 236.496 -1.42363 0.676048 0
M  V30 2656 C 237.444 -2.32596 -0.0131507 0
M  V30 2657 C 238.438 -1.49891 -0.789238 0
M  V30 2658 O 239.644 -1.65955 -0.697061 0
M  V30 2659 H 236.019 -0.751647 -0.0230481 0
M  V30 2660 H 237.99 -2.88421 0.765243 0
M  V30 2661 C 236.739 -3.34479 -0.949702 0
M  V30 2662 H 236.062 -3.98158 -0.361938 0
M  V30 2663 H 237.502 -4.00199 -1.4006 0
M  V30 2664 C 235.961 -2.66838 -2.05667 0
M  V30 2665 O 236.491 -2.50124 -3.14326 0
M  V30 2666 N 234.697 -2.25843 -1.82875 0
M  V30 2667 H 234.244 -2.39637 -0.945085 0
M  V30 2668 H 234.202 -1.80918 -2.5713 0
M  V30 2669 N 237.974 -0.419461 -1.51915 0
M  V30 2670 C 238.921 0.400927 -2.27291 0
M  V30 2671 C 239.891 1.03224 -1.30131 0
M  V30 2672 O 241.076 1.05455 -1.59009 0
M  V30 2673 C 238.216 1.50603 -3.10504 0
M  V30 2674 C 237.329 0.89462 -4.22635 0
M  V30 2675 C 236.464 1.97328 -4.93189 0
M  V30 2676 C 235.503 1.33935 -5.97267 0
M  V30 2677 N 234.64 2.3586 -6.61298 0
M  V30 2678 H 239.48 -0.248251 -2.96964 0
M  V30 2679 H 237.017 -0.134266 -1.46486 0
M  V30 2680 H 238.975 2.15783 -3.57062 0
M  V30 2681 H 237.605 2.12509 -2.42981 0
M  V30 2682 H 236.657 0.131583 -3.80172 0
M  V30 2683 H 237.969 0.391641 -4.9726 0
M  V30 2684 H 237.123 2.70211 -5.43204 0
M  V30 2685 H 235.862 2.50994 -4.18155 0
M  V30 2686 H 234.867 0.595896 -5.46561 0
M  V30 2687 H 236.092 0.810252 -6.74249 0
M  V30 2688 H 234.038 2.88639 -5.89087 0
M  V30 2689 H 233.955 1.90403 -7.3163 0
M  V30 2690 H 235.223 3.08282 -7.15949 0
M  V30 2691 N 239.452 1.56882 -0.150215 0
M  V30 2692 C 240.68 2.00593 0.506948 0
M  V30 2693 C 241.095 1.03033 1.58208 0
M  V30 2694 O 240.452 0.0278396 1.82479 0
M  V30 2695 C 240.503 3.44209 1.10465 0
M  V30 2696 O 240.224 4.3804 0.0724636 0
M  V30 2697 C 241.725 4.03214 1.84211 0
M  V30 2698 H 238.945 0.65795 0.13169 0
M  V30 2699 H 241.489 2.03018 -0.245743 0
M  V30 2700 H 239.644 3.42625 1.80795 0
M  V30 2701 H 240.058 5.22007 0.510793 0
M  V30 2702 H 241.532 5.0569 2.21318 0
M  V30 2703 H 242.009 3.44107 2.72923 0
M  V30 2704 H 242.615 4.08437 1.18572 0
M  V30 2705 N 240.93 -0.123565 1.57115 0
M  V30 2706 C 242.341 -0.681198 1.73829 0
M  V30 2707 C 242.692 -1.80535 0.768214 0
M  V30 2708 O 241.817 -2.16317 -0.0599103 0
M  V30 2709 C 242.412 -1.24246 3.15196 0
M  V30 2710 C 240.971 -1.74643 3.33432 0
M  V30 2711 C 240.118 -0.644284 2.69711 0
M  V30 2712 H 243.069 0.102315 1.5837 0
M  V30 2713 H 243.09 -2.11216 3.16493 0
M  V30 2714 H 242.602 -0.424062 3.85776 0
M  V30 2715 H 240.703 -2.58974 2.67886 0
M  V30 2716 H 240.816 -1.85902 4.41562 0
M  V30 2717 H 239.18 -1.07676 2.3082 0
M  V30 2718 H 239.963 0.163058 3.42913 0
M  V30 2719 N 242.408 -1.52605 -0.393616 0
M  V30 2720 C 243.371 -1.76415 -1.46323 0
M  V30 2721 C 244.371 -0.634126 -1.47768 0
M  V30 2722 O 245.561 -0.902142 -1.4902 0
M  V30 2723 C 242.693 -1.8607 -2.85641 0
M  V30 2724 H 243.886 -2.71916 -1.26498 0
M  V30 2725 H 241.439 -1.43257 -0.625073 0
M  V30 2726 H 242.174 -0.925378 -3.10817 0
M  V30 2727 H 241.959 -2.68235 -2.85993 0
M  V30 2728 H 243.449 -2.06179 -3.63153 0
M  V30 2729 N 243.887 0.651787 -1.4349 0
M  V30 2730 C 245.164 1.40909 -1.35661 0
M  V30 2731 C 245.544 2.11099 -0.00511733 0
M  V30 2732 O 244.892 2.04892 1.0115 0
M  V30 2733 C 245.102 2.3926 -2.54078 0
M  V30 2734 C 246.45 3.03217 -2.97228 0
M  V30 2735 O 247.474 2.49588 -2.54135 0
M  V30 2736 O 246.333 4.00455 -3.71885 0
M  V30 2737 H 243.427 0.629625 -0.536191 0
M  V30 2738 H 245.973 0.678575 -1.55542 0
M  V30 2739 H 244.745 1.86352 -3.44076 0
M  V30 2740 H 244.368 3.1976 -2.36303 0
M  V30 2741 N 245.365 1.30045 0.890287 0
M  V30 2742 C 246.328 1.15963 1.977 0
M  V30 2743 C 247.328 0.0923777 1.60534 0
M  V30 2744 O 248.518 0.340071 1.70848 0
M  V30 2745 C 245.65 0.775451 3.31963 0
M  V30 2746 H 246.843 2.12502 2.11619 0
M  V30 2747 H 244.396 1.13366 1.07601 0
M  V30 2748 H 245.131 -0.189671 3.23745 0
M  V30 2749 H 244.916 1.54668 3.60306 0
M  V30 2750 H 246.406 0.700251 4.11687 0
M  V30 2751 N 246.843 -1.10192 1.12674 0
M  V30 2752 C 248.259 -1.34235 0.863317 0
M  V30 2753 C 248.459 -1.95062 -0.505277 0
M  V30 2754 O 247.515 -2.19192 -1.25345 0
M  V30 2755 C 248.828 -2.2616 1.98172 0
M  V30 2756 C 250.376 -2.3969 2.0129 0
M  V30 2757 C 250.851 -3.34946 3.1237 0
M  V30 2758 N 252.342 -3.42515 3.11829 0
M  V30 2759 C 253.077 -4.16199 3.94419 0
M  V30 2760 N 252.573 -4.92747 4.87004 0
M  V30 2761 N 254.366 -4.11843 3.82547 0
M  V30 2762 H 246.517 -0.690798 2.00853 0
M  V30 2763 H 248.78 -0.366774 0.874174 0
M  V30 2764 H 248.486 -1.8868 2.96804 0
M  V30 2765 H 248.36 -3.26488 1.88906 0
M  V30 2766 H 250.747 -2.76438 1.03276 0
M  V30 2767 H 250.828 -1.39169 2.14629 0
M  V30 2768 H 250.472 -2.98923 4.10619 0
M  V30 2769 H 250.402 -4.35353 2.96269 0
M  V30 2770 H 252.893 -2.87926 2.44759 0
M  V30 2771 H 253.206 -5.46376 5.46528 0
M  V30 2772 H 251.551 -4.91862 4.91016 0
M  V30 2773 H 254.742 -3.51136 3.0955 0
M  V30 2774 H 254.915 -4.69007 4.47142 0
M  V30 2775 N 248.321 -0.919034 -1.28029 0
M  V30 2776 C 249.57 -0.550802 -1.94034 0
M  V30 2777 C 249.883 0.910877 -1.73096 0
M  V30 2778 O 251.089 1.3875 -2.33368 0
M  V30 2779 C 249.545 -0.934249 -3.47563 0
M  V30 2780 C 249.153 -2.41602 -3.7727 0
M  V30 2781 C 250.897 -0.636854 -4.19696 0
M  V30 2782 C 248.804 -2.73932 -5.24133 0
M  V30 2783 H 247.734 -0.202273 -0.726362 0
M  V30 2784 H 250.385 -1.11867 -1.45458 0
M  V30 2785 H 248.767 -0.295115 -3.94899 0
M  V30 2786 H 249.941 -3.10233 -3.40723 0
M  V30 2787 H 248.256 -2.68441 -3.18321 0
M  V30 2788 H 250.853 -0.855005 -5.2782 0
M  V30 2789 H 251.196 0.425575 -4.14119 0
M  V30 2790 H 251.729 -1.23469 -3.78154 0
M  V30 2791 H 248.468 -3.79049 -5.34792 0
M  V30 2792 H 247.988 -2.09942 -5.61858 0
M  V30 2793 H 249.667 -2.61215 -5.91925 0
M  V30 2794 N 249.799 1.42003 -0.683588 0
M  V30 2795 C 251.048 2.00638 -0.206681 0
M  V30 2796 C 251.361 1.5472 1.19671 0
M  V30 2797 O 252.567 2.05833 1.77045 0
M  V30 2798 C 251.023 3.58487 -0.318632 0
M  V30 2799 C 250.631 4.1339 -1.72663 0
M  V30 2800 C 252.375 4.24384 0.0991141 0
M  V30 2801 C 250.282 5.63633 -1.79087 0
M  V30 2802 H 249.212 0.750408 -0.0735107 0
M  V30 2803 H 251.863 1.62624 -0.850048 0
M  V30 2804 H 250.245 3.94047 0.392781 0
M  V30 2805 H 251.419 3.89273 -2.46583 0
M  V30 2806 H 249.734 3.59976 -2.09299 0
M  V30 2807 H 252.331 5.34652 0.0713833 0
M  V30 2808 H 252.674 4.00505 1.13586 0
M  V30 2809 H 253.207 3.93816 -0.561599 0
M  V30 2810 H 249.946 5.92323 -2.80774 0
M  V30 2811 H 249.466 5.89714 -1.09535 0
M  V30 2812 H 251.145 6.28201 -1.5483 0
M  V30 2813 N 251.277 0.427512 1.51691 0
M  V30 2814 C 252.224 -0.388867 2.275 0
M  V30 2815 C 253.194 -1.02532 1.30677 0
M  V30 2816 O 254.379 -1.0461 1.59566 0
M  V30 2817 C 251.519 -1.48954 3.11298 0
M  V30 2818 C 250.632 -0.872194 4.23104 0
M  V30 2819 C 249.767 -1.94709 4.94228 0
M  V30 2820 C 248.806 -1.30766 5.97969 0
M  V30 2821 N 247.943 -2.32349 6.62539 0
M  V30 2822 H 252.783 0.263997 2.96828 0
M  V30 2823 H 250.32 0.142033 1.46413 0
M  V30 2824 H 252.278 -2.13887 3.58201 0
M  V30 2825 H 250.908 -2.11217 2.44105 0
M  V30 2826 H 249.96 -0.111419 3.80237 0
M  V30 2827 H 251.272 -0.365264 4.97461 0
M  V30 2828 H 250.426 -2.67327 5.44629 0
M  V30 2829 H 249.165 -2.48773 4.1948 0
M  V30 2830 H 248.17 -0.566902 5.4687 0
M  V30 2831 H 249.395 -0.774483 6.74669 0
M  V30 2832 H 247.341 -2.85511 5.90609 0
M  V30 2833 H 247.258 -1.8652 7.3263 0
M  V30 2834 H 248.526 -3.04481 7.17574 0
M  V30 2835 N 252.755 -1.56801 0.158532 0
M  V30 2836 C 254.004 -1.95665 -0.489702 0
M  V30 2837 C 254.317 -1.04654 -1.65248 0
M  V30 2838 O 255.523 -1.33146 -2.3661 0
M  V30 2839 C 253.979 -3.47874 -0.922582 0
M  V30 2840 C 253.587 -4.47489 0.213893 0
M  V30 2841 C 255.331 -3.95583 -1.53996 0
M  V30 2842 C 253.238 -5.90921 -0.237903 0
M  V30 2843 H 252.168 -0.730516 -0.186716 0
M  V30 2844 H 254.819 -1.81861 0.244722 0
M  V30 2845 H 253.201 -3.57051 -1.71261 0
M  V30 2846 H 254.375 -4.50017 0.991036 0
M  V30 2847 H 252.69 -4.09764 0.740407 0
M  V30 2848 H 255.287 -5.0019 -1.8898 0
M  V30 2849 H 255.63 -3.37789 -2.43319 0
M  V30 2850 H 256.163 -3.8937 -0.814611 0
M  V30 2851 H 252.902 -6.52559 0.620236 0
M  V30 2852 H 252.422 -5.91729 -0.980676 0
M  V30 2853 H 254.101 -6.43352 -0.686067 0
M  V30 2854 N 254.233 0.115231 -1.57178 0
M  V30 2855 C 255.463 0.835224 -1.88964 0
M  V30 2856 C 255.871 1.73774 -0.74829 0
M  V30 2857 O 255.214 1.81401 0.289739 0
M  V30 2858 C 255.276 1.7178 -3.15804 0
M  V30 2859 C 254.94 0.989198 -4.46166 0
M  V30 2860 C 255.937 0.328263 -5.18863 0
M  V30 2861 C 253.622 0.969256 -4.9286 0
M  V30 2862 C 255.616 -0.342873 -6.36477 0
M  V30 2863 C 253.303 0.294324 -6.10391 0
M  V30 2864 C 254.301 -0.360582 -6.82048 0
M  V30 2865 O 253.989 -1.02474 -7.97342 0
M  V30 2866 H 253.721 0.245197 -0.629964 0
M  V30 2867 H 256.275 0.10303 -2.05141 0
M  V30 2868 H 254.505 2.49173 -2.95719 0
M  V30 2869 H 256.194 2.31255 -3.33581 0
M  V30 2870 H 256.96 0.335263 -4.8384 0
M  V30 2871 H 252.839 1.46844 -4.36987 0
M  V30 2872 H 256.383 -0.854629 -6.92345 0
M  V30 2873 H 252.28 0.285099 -6.4487 0
M  V30 2874 H 253.048 -0.929594 -8.13204 0
M  V30 2875 N 255.711 1.52812 0.385517 0
M  V30 2876 C 256.936 1.72207 1.15583 0
M  V30 2877 C 257.361 0.441034 1.82857 0
M  V30 2878 O 256.719 -0.603465 1.70962 0
M  V30 2879 C 256.767 2.87476 2.17692 0
M  V30 2880 O 255.871 2.54693 3.24354 0
M  V30 2881 H 255.212 0.572526 0.336319 0
M  V30 2882 H 257.742 1.99618 0.448744 0
M  V30 2883 H 257.752 3.13072 2.6163 0
M  V30 2884 H 256.427 3.80408 1.68115 0
M  V30 2885 H 255.004 2.3985 2.85529 0
M  V30 2886 N 257.189 -0.644168 1.43834 0
M  V30 2887 C 258.417 -1.43147 1.49387 0
M  V30 2888 C 258.832 -1.88452 0.114583 0
M  V30 2889 O 258.189 -1.60047 -0.876989 0
M  V30 2890 C 258.24 -2.66046 2.44748 0
M  V30 2891 O 257.961 -2.22633 3.77314 0
M  V30 2892 C 259.462 -3.59311 2.59635 0
M  V30 2893 H 256.682 -0.439447 0.507077 0
M  V30 2894 H 259.226 -0.78895 1.88669 0
M  V30 2895 H 257.381 -3.26418 2.08638 0
M  V30 2896 H 257.795 -3.02216 4.28679 0
M  V30 2897 H 259.269 -4.42187 3.30416 0
M  V30 2898 H 259.746 -4.07259 1.64427 0
M  V30 2899 H 260.352 -3.04816 2.96593 0
M  V30 2900 N 258.668 -1.30515 -0.883378 0
M  V30 2901 C 259.893 -1.22487 -1.67367 0
M  V30 2902 C 260.318 0.208767 -1.86938 0
M  V30 2903 O 259.676 1.15015 -1.40148 0
M  V30 2904 C 259.724 -1.96041 -3.02655 0
M  V30 2905 O 258.828 -1.28859 -3.91751 0
M  V30 2906 H 258.169 -0.423573 -0.511353 0
M  V30 2907 H 260.699 -1.72362 -1.10239 0
M  V30 2908 H 260.709 -2.05124 -3.52687 0
M  V30 2909 H 259.384 -3.00307 -2.8773 0
M  V30 2910 H 257.961 -1.28141 -3.50192 0
M  V30 2911 N 260.146 1.09593 -1.13257 0
M  V30 2912 C 261.076 2.18214 -0.830946 0
M  V30 2913 C 262.057 1.68812 0.208966 0
M  V30 2914 O 263.242 1.9408 0.0682666 0
M  V30 2915 C 260.372 3.46051 -0.294296 0
M  V30 2916 C 259.326 4.08778 -1.26826 0
M  V30 2917 C 258.652 5.31419 -0.591449 0
M  V30 2918 C 259.952 4.51476 -2.62615 0
M  V30 2919 H 261.646 2.43703 -1.73923 0
M  V30 2920 H 259.192 1.17128 -0.837675 0
M  V30 2921 H 261.145 4.2134 -0.0709606 0
M  V30 2922 H 259.869 3.20079 0.649366 0
M  V30 2923 H 258.528 3.35505 -1.47756 0
M  V30 2924 H 258.176 5.01727 0.357633 0
M  V30 2925 H 257.876 5.74341 -1.24123 0
M  V30 2926 H 259.4 6.09433 -0.377355 0
M  V30 2927 H 260.814 5.17999 -2.45663 0
M  V30 2928 H 259.211 5.05277 -3.23752 0
M  V30 2929 H 260.281 3.63962 -3.20406 0
M  V30 2930 N 261.624 0.925811 1.2754 0
M  V30 2931 C 262.571 0.422045 2.26908 0
M  V30 2932 C 263.541 -0.510029 1.58076 0
M  V30 2933 O 264.726 -0.429599 1.85901 0
M  V30 2934 C 261.866 -0.320837 3.43605 0
M  V30 2935 C 260.979 0.64513 4.27156 0
M  V30 2936 C 260.114 -0.117405 5.3107 0
M  V30 2937 C 259.153 0.841391 6.0629 0
M  V30 2938 N 258.29 0.111604 7.02011 0
M  V30 2939 H 263.13 1.27441 2.69375 0
M  V30 2940 H 260.667 0.639697 1.32462 0
M  V30 2941 H 262.625 -0.76785 4.10073 0
M  V30 2942 H 261.255 -1.13745 3.02096 0
M  V30 2943 H 260.307 1.21067 3.6062 0
M  V30 2944 H 261.619 1.37797 4.79389 0
M  V30 2945 H 260.773 -0.624422 6.03478 0
M  V30 2946 H 259.512 -0.883219 4.79636 0
M  V30 2947 H 258.517 1.35967 5.32722 0
M  V30 2948 H 259.742 1.60696 6.59813 0
M  V30 2949 H 257.688 -0.635999 6.5291 0
M  V30 2950 H 257.605 0.784044 7.51923 0
M  V30 2951 H 258.873 -0.374823 7.78598 0
M  V30 2952 N 263.102 -1.41638 0.69111 0
M  V30 2953 C 264.348 -2.01598 0.220519 0
M  V30 2954 C 264.681 -1.54594 -1.17535 0
M  V30 2955 O 263.956 -0.755177 -1.79241 0
M  V30 2956 C 264.239 -3.59062 0.273243 0
M  V30 2957 C 264.092 -4.16203 1.70573 0
M  V30 2958 C 265.411 -4.38546 -0.369457 0
M  V30 2959 H 262.53 -0.732468 0.0816045 0
M  V30 2960 H 265.172 -1.68445 0.878986 0
M  V30 2961 H 263.322 -3.87435 -0.287411 0
M  V30 2962 H 264.994 -3.98722 2.31989 0
M  V30 2963 H 263.237 -3.71414 2.2413 0
M  V30 2964 H 263.908 -5.25358 1.69419 0
M  V30 2965 H 266.384 -4.1596 0.107977 0
M  V30 2966 H 265.26 -5.48069 -0.302002 0
M  V30 2967 H 265.521 -4.17662 -1.44951 0
M  V30 2968 N 264.58 -0.43555 -1.51462 0
M  V30 2969 C 265.49 0.383001 -2.31453 0
M  V30 2970 C 266.506 1.02931 -1.4029 0
M  V30 2971 O 267.682 1.02507 -1.73362 0
M  V30 2972 C 264.747 1.47043 -3.13973 0
M  V30 2973 C 263.808 0.844433 -4.20913 0
M  V30 2974 C 263.041 1.88004 -4.9949 0
M  V30 2975 O 263.264 3.10199 -4.78678 0
M  V30 2976 O 262.198 1.47157 -5.83634 0
M  V30 2977 H 266.024 -0.269964 -3.02498 0
M  V30 2978 H 263.609 -0.19813 -1.4808 0
M  V30 2979 H 265.491 2.10113 -3.65281 0
M  V30 2980 H 264.166 2.10751 -2.45695 0
M  V30 2981 H 263.073 0.175729 -3.73687 0
M  V30 2982 H 264.406 0.250869 -4.9156 0
M  V30 2983 N 266.058 1.56714 -0.166846 0
M  V30 2984 C 266.99 2.14914 0.796537 0
M  V30 2985 C 268.003 1.10357 1.19688 0
M  V30 2986 O 269.192 1.37561 1.13751 0
M  V30 2987 C 266.292 2.67326 2.08303 0
M  V30 2988 C 265.465 3.96493 1.84696 0
M  V30 2989 C 264.524 4.34014 2.97521 0
M  V30 2990 O 263.55 5.01973 2.6835 0
M  V30 2991 N 264.752 3.95208 4.25196 0
M  V30 2992 H 267.517 2.98205 0.299006 0
M  V30 2993 H 265.078 1.61892 0.0160839 0
M  V30 2994 H 267.07 2.89428 2.82867 0
M  V30 2995 H 265.64 1.88649 2.4926 0
M  V30 2996 H 264.86 3.82814 0.940602 0
M  V30 2997 H 266.148 4.8086 1.66285 0
M  V30 2998 H 265.546 3.40487 4.51758 0
M  V30 2999 H 264.103 4.2232 4.96477 0
M  V30 3000 N 267.536 -0.106894 1.57237 0
M  V30 3001 C 268.761 -0.830287 1.90055 0
M  V30 3002 C 269.186 -1.72064 0.75998 0
M  V30 3003 O 268.544 -1.78982 -0.288991 0
M  V30 3004 C 268.592 -1.6295 3.21683 0
M  V30 3005 O 267.696 -2.73748 3.08441 0
M  V30 3006 H 267.037 -0.228855 0.623315 0
M  V30 3007 H 269.567 -0.085658 2.04421 0
M  V30 3008 H 269.577 -2.01621 3.54701 0
M  V30 3009 H 268.252 -0.975989 4.04286 0
M  V30 3010 H 266.829 -2.38192 2.86913 0
M  V30 3011 N 269.014 -1.53014 -0.377408 0
M  V30 3012 C 269.947 -1.73382 -1.48371 0
M  V30 3013 C 270.925 -0.581879 -1.51832 0
M  V30 3014 O 272.109 -0.81307 -1.70063 0
M  V30 3015 C 269.236 -1.80192 -2.8679 0
M  V30 3016 C 268.282 -3.02056 -3.01105 0
M  V30 3017 S 269.115 -4.61811 -2.71093 0
M  V30 3018 C 270.271 -4.71453 -4.11683 0
M  V30 3019 H 270.504 -2.66946 -1.30872 0
M  V30 3020 H 268.037 -1.43453 -0.571012 0
M  V30 3021 H 269.995 -1.84802 -3.6655 0
M  V30 3022 H 268.656 -0.877008 -3.01608 0
M  V30 3023 H 267.849 -3.03396 -4.02451 0
M  V30 3024 H 267.451 -2.95498 -2.29253 0
M  V30 3025 H 269.743 -4.50781 -5.0577 0
M  V30 3026 H 270.686 -5.73487 -4.15353 0
M  V30 3027 H 271.094 -4.00189 -3.98132 0
M  V30 3028 N 270.492 0.636531 -1.44174 0
M  V30 3029 C 271.422 1.76003 -1.53444 0
M  V30 3030 C 272.403 1.65619 -0.387841 0
M  V30 3031 O 273.588 1.84461 -0.607257 0
M  V30 3032 C 270.718 3.14511 -1.4731 0
M  V30 3033 C 269.672 3.39677 -2.60391 0
M  V30 3034 C 268.998 4.78159 -2.39308 0
M  V30 3035 C 270.298 3.32772 -4.02567 0
M  V30 3036 H 271.992 1.68501 -2.47483 0
M  V30 3037 H 269.538 0.809237 -1.19111 0
M  V30 3038 H 271.491 3.92878 -1.52397 0
M  V30 3039 H 270.215 3.22783 -0.49785 0
M  V30 3040 H 268.874 2.63688 -2.54684 0
M  V30 3041 H 268.522 4.83128 -1.39988 0
M  V30 3042 H 268.222 4.95956 -3.15122 0
M  V30 3043 H 269.746 5.58762 -2.46205 0
M  V30 3044 H 271.16 4.01051 -4.09672 0
M  V30 3045 H 269.557 3.62104 -4.7854 0
M  V30 3046 H 270.627 2.30669 -4.2652 0
M  V30 3047 N 271.97 1.30982 0.876444 0
M  V30 3048 C 273.198 1.23242 1.6619 0
M  V30 3049 C 273.613 -0.203345 1.87702 0
M  V30 3050 O 272.97 -1.13317 1.43057 0
M  V30 3051 C 273.021 1.96623 3.03351 0
M  V30 3052 O 272.742 3.34594 2.82804 0
M  V30 3053 C 274.243 1.95644 3.97792 0
M  V30 3054 H 271.463 0.426126 0.518322 0
M  V30 3055 H 274.007 1.7275 1.09442 0
M  V30 3056 H 272.162 1.50892 3.56806 0
M  V30 3057 H 272.576 3.71873 3.69879 0
M  V30 3058 H 274.05 2.51511 4.91372 0
M  V30 3059 H 274.527 0.937395 4.2908 0
M  V30 3060 H 275.133 2.41225 3.50272 0
M  V30 3061 N 273.449 -1.08991 1.13837 0
M  V30 3062 C 274.697 -1.80899 0.901098 0
M  V30 3063 C 275.018 -1.86356 -0.574134 0
M  V30 3064 O 274.288 -1.35235 -1.41733 0
M  V30 3065 H 272.868 -0.669966 0.330386 0
M  V30 3066 H 275.53 -1.318 1.43578 0
M  V30 3067 H 274.626 -2.83929 1.29578 0
M  V30 3068 N 274.927 -0.932562 -1.27047 0
M  V30 3069 C 275.837 -0.441219 -2.30414 0
M  V30 3070 C 276.853 0.480525 -1.67233 0
M  V30 3071 O 278.029 0.362151 -1.98117 0
M  V30 3072 C 275.094 0.293651 -3.45454 0
M  V30 3073 C 274.155 -0.663601 -4.2414 0
M  V30 3074 C 273.388 0.0362932 -5.33688 0
M  V30 3075 O 273.611 1.2548 -5.56427 0
M  V30 3076 O 272.545 -0.638015 -5.98509 0
M  V30 3077 H 276.371 -1.29962 -2.74488 0
M  V30 3078 H 273.956 -0.6981 -1.32087 0
M  V30 3079 H 275.838 0.707951 -4.15411 0
M  V30 3080 H 274.513 1.12758 -3.03426 0
M  V30 3081 H 273.42 -1.12768 -3.56699 0
M  V30 3082 H 274.753 -1.46489 -4.69896 0
M  V30 3083 N 276.405 1.4127 -0.698611 0
M  V30 3084 C 277.63 2.06024 -0.238512 0
M  V30 3085 C 278.055 1.5224 1.10475 0
M  V30 3086 O 277.413 0.650623 1.69223 0
M  V30 3087 C 277.461 3.59988 -0.209952 0
M  V30 3088 O 276.565 4.04282 0.814235 0
M  V30 3089 H 275.906 0.653829 -0.115775 0
M  V30 3090 H 278.436 1.8098 -0.954326 0
M  V30 3091 H 278.446 4.07979 -0.0418436 0
M  V30 3092 H 277.121 3.98503 -1.1903 0
M  V30 3093 H 275.698 3.6779 0.615234 0
M  V30 3094 N 277.883 0.443576 1.51229 0
M  V30 3095 C 279.123 -0.119889 2.04048 0
M  V30 3096 C 279.487 -1.39418 1.32009 0
M  V30 3097 O 280.688 -2.03829 1.75235 0
M  V30 3098 C 278.959 -0.327233 3.55899 0
M  V30 3099 S 280.518 -0.853208 4.30425 0
M  V30 3100 H 277.336 -0.028921 0.710412 0
M  V30 3101 H 279.938 0.604413 1.85922 0
M  V30 3102 H 278.642 0.606445 4.05895 0
M  V30 3103 H 278.173 -1.07844 3.7833 0
M  V30 3104 H 280.188 -2.13005 4.48155 0
M  V30 3105 N 279.361 -1.56624 0.175154 0
M  V30 3106 C 280.586 -2.01813 -0.478137 0
M  V30 3107 C 281.011 -1.05457 -1.55757 0
M  V30 3108 O 280.369 -0.0347439 -1.81267 0
M  V30 3109 C 280.417 -3.45581 -1.02987 0
M  V30 3110 O 279.521 -3.52305 -2.14371 0
M  V30 3111 H 278.862 -0.65413 -0.114059 0
M  V30 3112 H 281.392 -2.02673 0.280173 0
M  V30 3113 H 281.402 -3.84965 -1.35151 0
M  V30 3114 H 280.077 -4.1521 -0.239556 0
M  V30 3115 H 278.654 -3.24783 -1.83222 0
M  V30 3116 N 280.839 0.0985539 -1.57292 0
M  V30 3117 C 282.085 0.803867 -1.86188 0
M  V30 3118 C 282.418 1.78549 -0.763794 0
M  V30 3119 O 281.693 1.93153 0.22855 0
M  V30 3120 C 281.976 1.53568 -3.25713 0
M  V30 3121 C 281.829 0.572277 -4.46145 0
M  V30 3122 C 283.148 2.48708 -3.63087 0
M  V30 3123 H 280.267 0.290781 -0.677211 0
M  V30 3124 H 282.909 0.0675783 -1.8988 0
M  V30 3125 H 281.059 2.16332 -3.22696 0
M  V30 3126 H 282.731 -0.0480894 -4.61275 0
M  V30 3127 H 280.974 -0.114618 -4.33649 0
M  V30 3128 H 281.645 1.12139 -5.40489 0
M  V30 3129 H 284.121 1.96039 -3.67026 0
M  V30 3130 H 282.997 2.96932 -4.61652 0
M  V30 3131 H 283.258 3.32309 -2.91588 0
M  V30 3132 N 282.317 1.53212 0.369288 0
M  V30 3133 C 283.594 1.59815 1.12776 0
M  V30 3134 C 283.974 0.403402 2.0721 0
M  V30 3135 O 283.322 -0.606667 2.20299 0
M  V30 3136 C 283.532 2.94664 1.87013 0
M  V30 3137 C 284.88 3.49109 2.41677 0
M  V30 3138 O 285.904 2.96669 1.97144 0
M  V30 3139 O 284.763 4.40775 3.23079 0
M  V30 3140 H 281.857 0.645376 0.517125 0
M  V30 3141 H 284.403 1.65553 0.37285 0
M  V30 3142 H 283.175 3.73061 1.18071 0
M  V30 3143 H 282.798 2.92401 2.69421 0
M  V30 3144 N 283.795 -0.628877 1.44509 0
M  V30 3145 C 284.742 -1.74074 1.51549 0
M  V30 3146 C 285.712 -1.62084 0.363021 0
M  V30 3147 O 286.897 -1.81975 0.573567 0
M  V30 3148 C 284.037 -3.12328 1.46784 0
M  V30 3149 C 283.15 -3.35277 2.72422 0
M  V30 3150 C 282.285 -4.63515 2.59475 0
M  V30 3151 C 281.324 -4.7965 3.80266 0
M  V30 3152 N 280.461 -5.99168 3.65981 0
M  V30 3153 H 285.301 -1.67392 2.46544 0
M  V30 3154 H 282.838 -0.816527 1.22357 0
M  V30 3155 H 284.796 -3.92286 1.42012 0
M  V30 3156 H 283.426 -3.18018 0.553544 0
M  V30 3157 H 282.478 -2.49242 2.87372 0
M  V30 3158 H 283.79 -3.43078 3.62076 0
M  V30 3159 H 282.944 -5.51638 2.52548 0
M  V30 3160 H 281.683 -4.58076 1.67384 0
M  V30 3161 H 280.688 -3.89957 3.87574 0
M  V30 3162 H 281.913 -4.86902 4.73395 0
M  V30 3163 H 279.859 -5.94814 2.76644 0
M  V30 3164 H 279.776 -6.08035 4.49254 0
M  V30 3165 H 281.044 -6.89846 3.6295 0
M  V30 3166 N 285.273 -1.31445 -0.869486 0
M  V30 3167 C 286.503 -1.23942 -1.65294 0
M  V30 3168 C 286.911 0.197561 -1.88166 0
M  V30 3169 O 286.254 1.14019 -1.44033 0
M  V30 3170 C 286.316 -1.91385 -3.04322 0
M  V30 3171 C 285.98 -3.40726 -3.04557 0
M  V30 3172 C 286.977 -4.36464 -2.82481 0
M  V30 3173 C 284.662 -3.82425 -3.25663 0
M  V30 3174 C 286.656 -5.71876 -2.8149 0
M  V30 3175 C 284.343 -5.1795 -3.243 0
M  V30 3176 C 285.341 -6.12486 -3.02241 0
M  V30 3177 O 285.029 -7.45534 -3.00724 0
M  V30 3178 H 284.761 -0.429459 -0.522054 0
M  V30 3179 H 287.315 -1.73873 -1.0935 0
M  V30 3180 H 285.545 -1.36004 -3.61994 0
M  V30 3181 H 287.234 -1.77791 -3.64891 0
M  V30 3182 H 288 -4.05576 -2.65956 0
M  V30 3183 H 283.879 -3.09274 -3.41863 0
M  V30 3184 H 287.423 -6.45638 -2.64191 0
M  V30 3185 H 283.32 -5.48473 -3.40365 0
M  V30 3186 H 284.088 -7.54713 -3.16782 0
M  V30 3187 N 286.751 1.08385 -1.14413 0
M  V30 3188 C 287.714 2.13486 -0.834048 0
M  V30 3189 C 288.714 1.59988 0.161418 0
M  V30 3190 O 289.904 1.74071 -0.0669575 0
M  V30 3191 C 287.036 3.4003 -0.243354 0
M  V30 3192 H 288.229 2.42425 -1.7655 0
M  V30 3193 H 285.782 1.24101 -0.950189 0
M  V30 3194 H 286.517 3.16726 0.696807 0
M  V30 3195 H 286.302 3.80157 -0.960367 0
M  V30 3196 H 287.792 4.17577 -0.0436242 0
M  V30 3197 N 288.23 0.939286 1.26551 0
M  V30 3198 C 289.14 0.453432 2.30176 0
M  V30 3199 C 290.156 -0.471649 1.67486 0
M  V30 3200 O 291.332 -0.35164 1.98306 0
M  V30 3201 C 288.397 -0.275326 3.45605 0
M  V30 3202 C 287.458 0.686084 4.23782 0
M  V30 3203 C 286.691 -0.00798994 5.33699 0
M  V30 3204 O 286.914 -1.22528 5.57085 0
M  V30 3205 O 285.848 0.669746 5.98162 0
M  V30 3206 H 289.674 1.31416 2.73795 0
M  V30 3207 H 287.259 0.705095 1.31715 0
M  V30 3208 H 289.141 -0.685911 4.1578 0
M  V30 3209 H 287.816 -1.11147 3.0402 0
M  V30 3210 H 286.723 1.14658 3.56096 0
M  V30 3211 H 288.056 1.48979 4.69112 0
M  V30 3212 N 289.708 -1.40897 0.706093 0
M  V30 3213 C 290.655 -2.30751 0.0474474 0
M  V30 3214 C 291.625 -1.47678 -0.76029 0
M  V30 3215 O 292.81 -1.76441 -0.726177 0
M  V30 3216 C 289.95 -3.33815 -0.875309 0
M  V30 3217 C 289.063 -4.31961 -0.0580623 0
M  V30 3218 C 288.198 -5.22093 -0.979425 0
M  V30 3219 C 287.237 -6.11902 -0.155706 0
M  V30 3220 N 286.374 -6.94482 -1.03144 0
M  V30 3221 H 291.214 -2.86513 0.819413 0
M  V30 3222 H 288.751 -1.41102 0.415783 0
M  V30 3223 H 290.709 -3.92129 -1.42446 0
M  V30 3224 H 289.339 -2.79579 -1.61356 0
M  V30 3225 H 288.391 -3.75507 0.608147 0
M  V30 3226 H 289.703 -4.95415 0.580082 0
M  V30 3227 H 288.857 -5.85292 -1.59744 0
M  V30 3228 H 287.596 -4.5889 -1.65141 0
M  V30 3229 H 286.601 -5.47742 0.475309 0
M  V30 3230 H 287.826 -6.77162 0.512635 0
M  V30 3231 H 285.772 -6.33877 -1.68924 0
M  V30 3232 H 285.689 -7.54665 -0.449108 0
M  V30 3233 H 286.957 -7.6214 -1.63593 0
M  V30 3234 N 291.186 -0.45159 -1.50991 0
M  V30 3235 C 292.119 0.398179 -2.24699 0
M  V30 3236 C 293.097 1.01276 -1.27208 0
M  V30 3237 O 294.281 1.05247 -1.56382 0
M  V30 3238 C 291.408 1.55618 -3.00833 0
M  V30 3239 C 290.454 1.0609 -4.13095 0
M  V30 3240 S 291.287 -0.00865136 -5.35499 0
M  V30 3241 C 292.443 1.15369 -6.15175 0
M  V30 3242 H 292.676 -0.227555 -2.96428 0
M  V30 3243 H 290.209 -0.236251 -1.52582 0
M  V30 3244 H 292.167 2.21997 -3.45293 0
M  V30 3245 H 290.828 2.15337 -2.28667 0
M  V30 3246 H 290.021 1.92726 -4.65696 0
M  V30 3247 H 289.623 0.47513 -3.7097 0
M  V30 3248 H 291.915 2.06925 -6.45126 0
M  V30 3249 H 292.858 0.667344 -7.04948 0
M  V30 3250 H 293.266 1.3987 -5.46897 0
M  V30 3251 N 292.664 1.56529 -0.183458 0
M  V30 3252 C 293.574 2.22144 0.754272 0
M  V30 3253 C 294.59 1.21684 1.24374 0
M  V30 3254 O 295.766 1.54385 1.29333 0
M  V30 3255 C 292.831 2.85884 1.96141 0
M  V30 3256 C 291.892 4.01579 1.51765 0
M  V30 3257 C 291.125 4.6227 2.66725 0
M  V30 3258 O 291.348 4.21865 3.83909 0
M  V30 3259 O 290.282 5.51936 2.40104 0
M  V30 3260 H 294.108 3.02861 0.225527 0
M  V30 3261 H 291.693 1.49331 0.0453032 0
M  V30 3262 H 293.575 3.26253 2.66715 0
M  V30 3263 H 292.25 2.08154 2.47899 0
M  V30 3264 H 291.157 3.65856 0.781049 0
M  V30 3265 H 292.49 4.80938 1.04686 0
M  V30 3266 N 294.142 -0.090211 1.57342 0
M  V30 3267 C 295.419 -0.824761 1.77361 0
M  V30 3268 C 295.799 -1.96698 0.76637 0
M  V30 3269 O 295.147 -2.27586 -0.204179 0
M  V30 3270 C 295.357 -1.31481 3.23286 0
M  V30 3271 C 296.705 -1.75563 3.86604 0
M  V30 3272 O 297.729 -1.41093 3.27065 0
M  V30 3273 O 296.588 -2.39317 4.91314 0
M  V30 3274 H 293.682 -0.393776 0.727234 0
M  V30 3275 H 296.228 -0.0717138 1.69548 0
M  V30 3276 H 295 -0.496671 3.88135 0
M  V30 3277 H 294.623 -2.12973 3.35751 0
M  V30 3278 N 295.62 -1.53406 -0.361157 0
M  V30 3279 C 296.845 -1.74024 -1.12829 0
M  V30 3280 C 297.27 -0.470069 -1.82132 0
M  V30 3281 O 296.628 0.57619 -1.719 0
M  V30 3282 C 296.676 -2.90903 -2.13091 0
M  V30 3283 O 295.78 -2.59821 -3.20261 0
M  V30 3284 H 295.121 -0.577804 -0.327168 0
M  V30 3285 H 297.651 -2.00307 -0.41693 0
M  V30 3286 H 297.661 -3.17194 -2.56616 0
M  V30 3287 H 296.336 -3.83034 -1.62042 0
M  V30 3288 H 294.913 -2.44362 -2.81677 0
M  V30 3289 N 297.098 0.621204 -1.44841 0
M  V30 3290 C 298.328 1.40548 -1.51426 0
M  V30 3291 C 298.736 1.88673 -0.141083 0
M  V30 3292 O 298.079 1.62053 0.865128 0
M  V30 3293 C 298.141 2.65325 -2.42576 0
M  V30 3294 C 297.805 2.3893 -3.89566 0
M  V30 3295 C 298.802 2.00138 -4.79834 0
M  V30 3296 C 296.487 2.52263 -4.3436 0
M  V30 3297 C 298.481 1.75021 -6.129 0
M  V30 3298 C 296.168 2.2676 -5.67471 0
M  V30 3299 C 297.166 1.88199 -6.56559 0
M  V30 3300 O 296.854 1.62986 -7.87204 0
M  V30 3301 H 296.586 0.437122 -0.515655 0
M  V30 3302 H 299.14 0.765987 -1.90583 0
M  V30 3303 H 297.37 3.31947 -1.98364 0
M  V30 3304 H 299.059 3.27347 -2.39998 0
M  V30 3305 H 299.825 1.89386 -4.46495 0
M  V30 3306 H 295.704 2.81246 -3.65269 0
M  V30 3307 H 299.248 1.44848 -6.82396 0
M  V30 3308 H 295.145 2.37125 -6.00368 0
M  V30 3309 H 295.913 1.7715 -7.991 0
M  V30 3310 N 298.576 1.31904 0.862503 0
M  V30 3311 C 299.523 1.20182 1.9704 0
M  V30 3312 C 300.493 0.0858247 1.65878 0
M  V30 3313 O 301.678 0.26 1.8902 0
M  V30 3314 C 298.818 0.922797 3.32533 0
M  V30 3315 C 297.931 2.12284 3.76244 0
M  V30 3316 C 297.066 1.77996 5.00491 0
M  V30 3317 C 296.105 2.94366 5.36671 0
M  V30 3318 N 295.242 2.60223 6.52095 0
M  V30 3319 H 300.082 2.14951 2.06398 0
M  V30 3320 H 297.619 1.06917 1.01031 0
M  V30 3321 H 299.577 0.741548 4.10557 0
M  V30 3322 H 298.207 0.0119227 3.22798 0
M  V30 3323 H 297.259 2.41461 2.9394 0
M  V30 3324 H 298.571 2.99357 3.98982 0
M  V30 3325 H 297.725 1.56377 5.862 0
M  V30 3326 H 296.464 0.881252 4.79672 0
M  V30 3327 H 295.469 3.16625 4.49476 0
M  V30 3328 H 296.694 3.84957 5.59451 0
M  V30 3329 H 294.64 1.72884 6.32809 0
M  V30 3330 H 294.557 3.40827 6.74814 0
M  V30 3331 H 295.825 2.42016 7.40978 0
M  V30 3332 N 300.054 -1.07777 1.14986 0
M  V30 3333 C 301.002 -2.16964 0.838406 0
M  V30 3334 C 301.996 -1.68372 -0.186386 0
M  V30 3335 O 303.202 -1.79951 -0.0418465 0
M  V30 3336 H 299.577 -0.708006 0.253439 0
M  V30 3337 H 301.548 -2.40454 1.76704 0
M  V30 3338 C 300.297 -3.4604 0.339335 0
M  V30 3339 H 299.62 -3.83813 1.11927 0
M  V30 3340 H 301.06 -4.23698 0.160021 0
M  V30 3341 C 299.519 -3.23569 -0.938325 0
M  V30 3342 O 300.049 -3.47752 -2.01077 0
M  V30 3343 N 298.255 -2.77079 -0.876117 0
M  V30 3344 H 297.802 -2.576 -0.00322037 0
M  V30 3345 H 297.76 -2.62422 -1.73153 0
M  V30 3346 N 301.532 -0.945985 -1.26051 0
M  V30 3347 C 302.772 -0.603665 -1.95282 0
M  V30 3348 C 303.136 0.842377 -1.72534 0
M  V30 3349 O 304.337 1.29387 -2.35611 0
M  V30 3350 C 302.608 -0.942292 -3.44754 0
M  V30 3351 S 304.167 -0.711242 -4.32997 0
M  V30 3352 H 300.985 -0.222176 -0.675395 0
M  V30 3353 H 303.587 -1.21832 -1.52896 0
M  V30 3354 H 302.291 -1.99203 -3.58812 0
M  V30 3355 H 301.822 -0.317546 -3.92116 0
M  V30 3356 H 303.837 0.422221 -4.944 0
M  V30 3357 N 303.011 1.40521 -0.713556 0
M  V30 3358 C 303.921 2.34522 -0.0606667 0
M  V30 3359 C 304.937 1.57193 0.74607 0
M  V30 3360 O 306.113 1.89591 0.679493 0
M  V30 3361 C 303.178 3.36081 0.851491 0
M  V30 3362 C 302.239 4.29286 0.0349339 0
M  V30 3363 C 301.472 5.25994 0.903649 0
M  V30 3364 O 301.695 5.28616 2.14292 0
M  V30 3365 O 300.629 6.00918 0.343723 0
M  V30 3366 H 304.455 2.91968 -0.835972 0
M  V30 3367 H 302.04 1.41681 -0.47402 0
M  V30 3368 H 303.922 3.98369 1.37404 0
M  V30 3369 H 302.597 2.81052 1.60598 0
M  V30 3370 H 301.504 3.70289 -0.532633 0
M  V30 3371 H 302.837 4.87462 -0.681287 0
M  V30 3372 N 304.489 0.459591 1.5075 0
M  V30 3373 C 305.738 -0.100971 2.01447 0
M  V30 3374 C 306.051 -1.41816 1.34713 0
M  V30 3375 O 307.257 -2.06299 1.76502 0
M  V30 3376 C 305.713 -0.23047 3.59161 0
M  V30 3377 C 305.321 1.0776 4.34847 0
M  V30 3378 C 307.065 -0.743608 4.17936 0
M  V30 3379 C 304.972 0.91253 5.84317 0
M  V30 3380 H 303.902 -0.0415102 0.752856 0
M  V30 3381 H 306.553 0.592742 1.73663 0
M  V30 3382 H 304.935 -0.987703 3.83485 0
M  V30 3383 H 306.109 1.8449 4.22256 0
M  V30 3384 H 304.424 1.52097 3.87628 0
M  V30 3385 H 307.021 -0.883959 5.27343 0
M  V30 3386 H 307.364 -1.73196 3.78562 0
M  V30 3387 H 307.897 -0.04408 3.97776 0
M  V30 3388 H 304.636 1.87391 6.28144 0
M  V30 3389 H 304.156 0.185422 5.99513 0
M  V30 3390 H 305.835 0.574547 6.44444 0
M  V30 3391 N 305.967 -1.56429 0.191757 0
M  V30 3392 C 306.899 -2.16154 -0.762245 0
M  V30 3393 C 307.912 -1.12247 -1.17917 0
M  V30 3394 O 309.101 -1.39353 -1.11548 0
M  V30 3395 C 306.201 -2.70606 -2.04024 0
M  V30 3396 C 305.374 -3.99381 -1.78364 0
M  V30 3397 C 304.433 -4.38692 -2.90578 0
M  V30 3398 O 303.459 -5.06179 -2.6033 0
M  V30 3399 N 304.661 -4.01922 -4.18854 0
M  V30 3400 H 307.426 -2.98643 -0.251526 0
M  V30 3401 H 304.987 -1.61897 0.00967373 0
M  V30 3402 H 306.979 -2.93891 -2.78227 0
M  V30 3403 H 305.549 -1.9259 -2.46227 0
M  V30 3404 H 304.769 -3.84262 -0.879581 0
M  V30 3405 H 306.057 -4.83445 -1.58614 0
M  V30 3406 H 305.455 -3.47631 -4.46283 0
M  V30 3407 H 304.012 -4.30165 -4.89695 0
M  V30 3408 N 307.445 0.0818655 -1.57387 0
M  V30 3409 C 308.375 1.09885 -2.06028 0
M  V30 3410 C 309.356 1.4098 -0.951774 0
M  V30 3411 O 310.541 1.50781 -1.22387 0
M  V30 3412 C 307.671 2.4151 -2.4958 0
M  V30 3413 C 306.625 2.24792 -3.64215 0
M  V30 3414 C 305.951 3.61712 -3.93787 0
M  V30 3415 C 307.251 1.67749 -4.94629 0
M  V30 3416 H 308.945 0.694128 -2.91243 0
M  V30 3417 H 306.491 0.332448 -1.4011 0
M  V30 3418 H 308.444 3.12939 -2.82219 0
M  V30 3419 H 307.168 2.83943 -1.61381 0
M  V30 3420 H 305.827 1.55807 -3.31843 0
M  V30 3421 H 305.475 4.01697 -3.02735 0
M  V30 3422 H 305.175 3.51368 -4.70971 0
M  V30 3423 H 306.699 4.34587 -4.28913 0
M  V30 3424 H 308.113 2.29032 -5.25564 0
M  V30 3425 H 306.51 1.68128 -5.76067 0
M  V30 3426 H 307.58 0.638059 -4.80684 0
M  V30 3427 N 308.923 1.53595 0.353017 0
M  V30 3428 C 309.87 1.80919 1.43308 0
M  V30 3429 C 310.84 0.654288 1.5267 0
M  V30 3430 O 312.025 0.897759 1.6836 0
M  V30 3431 C 309.165 2.01605 2.80089 0
M  V30 3432 C 308.278 3.29321 2.79593 0
M  V30 3433 C 307.413 3.40125 4.0803 0
M  V30 3434 C 306.452 4.61826 4.01725 0
M  V30 3435 N 305.589 4.69716 5.21834 0
M  V30 3436 H 310.429 2.73074 1.19308 0
M  V30 3437 H 307.966 1.35263 0.578131 0
M  V30 3438 H 309.924 2.11586 3.59565 0
M  V30 3439 H 308.554 1.12772 3.0246 0
M  V30 3440 H 307.606 3.28229 1.92276 0
M  V30 3441 H 308.918 4.18884 2.70809 0
M  V30 3442 H 308.072 3.49488 4.95927 0
M  V30 3443 H 306.811 2.48601 4.19582 0
M  V30 3444 H 305.816 4.52552 3.12213 0
M  V30 3445 H 307.041 5.54705 3.91764 0
M  V30 3446 H 304.987 3.81097 5.33948 0
M  V30 3447 H 304.904 5.53202 5.1527 0
M  V30 3448 H 306.172 4.83376 6.11529 0
M  V30 3449 N 310.401 -0.613514 1.45168 0
M  V30 3450 C 311.348 -1.72456 1.53387 0
M  V30 3451 C 312.318 -1.6169 0.380191 0
M  V30 3452 O 313.503 -1.81356 0.592836 0
M  V30 3453 C 310.643 -3.10753 1.50088 0
M  V30 3454 C 309.756 -3.32368 2.75963 0
M  V30 3455 C 308.891 -4.60737 2.64376 0
M  V30 3456 C 307.93 -4.7559 3.85332 0
M  V30 3457 N 307.067 -5.95253 3.72315 0
M  V30 3458 H 311.907 -1.64768 2.48305 0
M  V30 3459 H 309.444 -0.803503 1.23216 0
M  V30 3460 H 311.402 -3.90758 1.46164 0
M  V30 3461 H 310.032 -3.17413 0.587243 0
M  V30 3462 H 309.084 -2.4618 2.89999 0
M  V30 3463 H 310.396 -3.39218 3.65695 0
M  V30 3464 H 309.55 -5.48928 2.58385 0
M  V30 3465 H 308.289 -4.56275 1.72233 0
M  V30 3466 H 307.294 -3.85824 3.91688 0
M  V30 3467 H 308.519 -4.81854 4.78533 0
M  V30 3468 H 306.465 -5.91847 2.82937 0
M  V30 3469 H 306.382 -6.03236 4.55677 0
M  V30 3470 H 307.65 -6.85958 3.70246 0
M  V30 3471 N 311.879 -1.3236 -0.855495 0
M  V30 3472 C 312.827 -1.2118 -1.9854 0
M  V30 3473 C 313.821 -0.116788 -1.68997 0
M  V30 3474 O 315.027 -0.279657 -1.77814 0
M  V30 3475 H 311.402 -0.375608 -0.651477 0
M  V30 3476 H 313.373 -2.16743 -2.05098 0
M  V30 3477 C 312.122 -0.950849 -3.34446 0
M  V30 3478 H 311.445 -1.78563 -3.57708 0
M  V30 3479 H 312.885 -0.912863 -4.14057 0
M  V30 3480 C 311.344 0.346404 -3.35114 0
M  V30 3481 O 311.874 1.35855 -3.7803 0
M  V30 3482 N 310.08 0.36808 -2.88259 0
M  V30 3483 H 309.627 -0.456102 -2.5353 0
M  V30 3484 H 309.585 1.23591 -2.89089 0
M  V30 3485 N 313.357 1.07166 -1.15556 0
M  V30 3486 C 314.606 1.79181 -0.926132 0
M  V30 3487 C 314.919 1.87768 0.547967 0
M  V30 3488 O 316.125 2.56323 0.895036 0
M  V30 3489 C 314.581 3.22 -1.60761 0
M  V30 3490 C 314.189 3.21607 -3.11886 0
M  V30 3491 C 315.933 3.9861 -1.4598 0
M  V30 3492 C 313.84 4.59092 -3.72812 0
M  V30 3493 H 312.77 0.67154 -0.342856 0
M  V30 3494 H 315.421 1.2027 -1.3859 0
M  V30 3495 H 313.803 3.81115 -1.07553 0
M  V30 3496 H 314.977 2.72127 -3.71865 0
M  V30 3497 H 313.292 2.58495 -3.2645 0
M  V30 3498 H 315.889 5.00225 -1.88888 0
M  V30 3499 H 316.232 4.143 -0.407541 0
M  V30 3500 H 316.765 3.45996 -1.96295 0
M  V30 3501 H 313.504 4.48606 -4.77946 0
M  V30 3502 H 313.024 5.08803 -3.17616 0
M  V30 3503 H 314.703 5.28059 -3.73848 0
M  V30 3504 N 314.835 0.952656 1.25548 0
M  V30 3505 C 315.765 0.489287 2.28316 0
M  V30 3506 C 316.746 -0.463359 1.63667 0
M  V30 3507 O 317.931 -0.36274 1.90782 0
M  V30 3508 C 315.061 -0.235603 3.465 0
M  V30 3509 C 314.015 0.631593 4.23314 0
M  V30 3510 C 313.341 -0.223923 5.34231 0
M  V30 3511 C 314.641 1.90871 4.86174 0
M  V30 3512 H 316.335 1.34822 2.67326 0
M  V30 3513 H 313.881 0.649728 1.28509 0
M  V30 3514 H 315.834 -0.570882 4.17515 0
M  V30 3515 H 314.558 -1.12877 3.06474 0
M  V30 3516 H 313.217 0.949929 3.54079 0
M  V30 3517 H 312.865 -1.11678 4.90446 0
M  V30 3518 H 312.565 0.35299 5.86539 0
M  V30 3519 H 314.089 -0.554214 6.0808 0
M  V30 3520 H 315.503 1.63997 5.49343 0
M  V30 3521 H 313.9 2.43112 5.4865 0
M  V30 3522 H 314.97 2.61304 4.08471 0
M  V30 3523 N 316.313 -1.40141 0.720998 0
M  V30 3524 C 317.56 -2.00787 0.262842 0
M  V30 3525 C 317.888 -1.5718 -1.14563 0
M  V30 3526 O 317.143 -0.785391 -1.79249 0
M  V30 3527 C 317.442 -3.56165 0.296892 0
M  V30 3528 C 317.108 -4.19373 1.65641 0
M  V30 3529 C 315.77 -4.36352 2.02855 0
M  V30 3530 C 318.122 -4.54578 2.54968 0
M  V30 3531 C 315.45 -4.8582 3.28931 0
M  V30 3532 C 317.802 -5.05447 3.80402 0
M  V30 3533 C 316.466 -5.20635 4.17726 0
M  V30 3534 H 315.736 -0.734731 0.0961807 0
M  V30 3535 H 318.383 -1.67673 0.925093 0
M  V30 3536 H 316.688 -3.8922 -0.448932 0
M  V30 3537 H 318.385 -4.00929 -0.0755208 0
M  V30 3538 H 314.975 -4.06549 1.35704 0
M  V30 3539 H 319.159 -4.41091 2.27491 0
M  V30 3540 H 314.415 -4.95764 3.57811 0
M  V30 3541 H 318.589 -5.31663 4.49786 0
M  V30 3542 H 316.216 -5.58728 5.15487 0
M  V30 3543 N 317.792 -0.46758 -1.50504 0
M  V30 3544 C 319.017 0.0886943 -2.0721 0
M  V30 3545 C 319.442 1.33057 -1.32956 0
M  V30 3546 O 318.8 1.77354 -0.376197 0
M  V30 3547 C 318.848 0.359202 -3.58806 0
M  V30 3548 O 317.952 1.44034 -3.8643 0
M  V30 3549 H 317.293 -0.0114349 -0.663902 0
M  V30 3550 H 319.823 -0.657613 -1.93744 0
M  V30 3551 H 319.833 0.600742 -4.03553 0
M  V30 3552 H 318.508 -0.548311 -4.1227 0
M  V30 3553 H 317.085 1.18638 -3.53524 0
M  V30 3554 N 319.27 1.56325 -0.20005 0
M  V30 3555 C 320.495 2.02548 0.44597 0
M  V30 3556 C 320.92 1.07922 1.5406 0
M  V30 3557 O 320.278 0.0635775 1.81188 0
M  V30 3558 C 320.326 3.47175 0.974761 0
M  V30 3559 O 319.43 3.55671 2.08739 0
M  V30 3560 H 318.771 0.655862 0.103638 0
M  V30 3561 H 321.301 2.02201 -0.312381 0
M  V30 3562 H 321.311 3.87067 1.2901 0
M  V30 3563 H 319.986 4.15538 0.17347 0
M  V30 3564 H 318.563 3.27657 1.78032 0
M  V30 3565 N 320.748 -0.0735177 1.57428 0
M  V30 3566 C 321.976 -0.785969 1.9139 0
M  V30 3567 C 322.391 -1.71207 0.795847 0
M  V30 3568 O 321.748 -1.81033 -0.230915 0
M  V30 3569 C 321.799 -1.58107 3.25091 0
M  V30 3570 O 321.52 -0.6922 4.32597 0
M  V30 3571 C 323.021 -2.39467 3.73055 0
M  V30 3572 H 320.241 -0.223558 0.632663 0
M  V30 3573 H 322.785 -0.044302 2.04452 0
M  V30 3574 H 320.94 -2.27503 3.13562 0
M  V30 3575 H 321.354 -1.24504 5.09508 0
M  V30 3576 H 322.828 -2.90716 4.69242 0
M  V30 3577 H 323.305 -3.18913 3.01979 0
M  V30 3578 H 323.911 -1.7523 3.87523 0
M  V30 3579 N 322.226 -1.5378 -0.344866 0
M  V30 3580 C 323.189 -1.80981 -1.40637 0
M  V30 3581 C 324.189 -0.680816 -1.45676 0
M  V30 3582 O 325.379 -0.949095 -1.46075 0
M  V30 3583 C 322.511 -1.95063 -2.79577 0
M  V30 3584 H 323.704 -2.75803 -1.17783 0
M  V30 3585 H 321.257 -1.45173 -0.579181 0
M  V30 3586 H 321.992 -1.02379 -3.07716 0
M  V30 3587 H 321.777 -2.77198 -2.77315 0
M  V30 3588 H 323.267 -2.17629 -3.56409 0
M  V30 3589 N 323.704 0.605807 -1.45491 0
M  V30 3590 C 324.953 1.36086 -1.48874 0
M  V30 3591 C 325.266 1.95131 -0.135333 0
M  V30 3592 O 326.472 2.7146 -0.0468144 0
M  V30 3593 C 324.928 2.46518 -2.62215 0
M  V30 3594 C 324.536 1.93877 -4.03876 0
M  V30 3595 C 326.28 3.23512 -2.74846 0
M  V30 3596 C 324.187 3.01801 -5.08596 0
M  V30 3597 H 323.117 0.511497 -0.553974 0
M  V30 3598 H 325.768 0.649089 -1.71636 0
M  V30 3599 H 324.15 3.20388 -2.32739 0
M  V30 3600 H 325.324 1.26704 -4.43038 0
M  V30 3601 H 323.639 1.29622 -3.95711 0
M  V30 3602 H 326.236 4.04013 -3.50253 0
M  V30 3603 H 326.579 3.74631 -1.81542 0
M  V30 3604 H 327.112 2.56742 -3.03856 0
M  V30 3605 H 323.851 2.55597 -6.03614 0
M  V30 3606 H 323.371 3.67535 -4.74002 0
M  V30 3607 H 325.05 3.66152 -5.33424 0
M  V30 3608 N 325.182 1.32811 0.848464 0
M  V30 3609 C 326.428 1.23907 1.60546 0
M  V30 3610 C 326.761 -0.197161 1.93197 0
M  V30 3611 O 326.036 -1.13596 1.5788 0
M  V30 3612 C 326.319 2.10489 2.92175 0
M  V30 3613 C 326.172 3.62522 2.66266 0
M  V30 3614 C 327.491 1.97075 3.93509 0
M  V30 3615 H 324.61 0.451459 0.58254 0
M  V30 3616 H 327.252 1.62818 0.979296 0
M  V30 3617 H 325.402 1.77434 3.45614 0
M  V30 3618 H 327.074 4.05821 2.19334 0
M  V30 3619 H 325.317 3.84879 2.00126 0
M  V30 3620 H 325.988 4.18437 3.6002 0
M  V30 3621 H 328.464 2.26045 3.49346 0
M  V30 3622 H 327.34 2.59923 4.83457 0
M  V30 3623 H 327.601 0.940186 4.31987 0
M  V30 3624 N 326.66 -1.06551 1.16123 0
M  V30 3625 C 327.9 -1.80889 0.951766 0
M  V30 3626 C 328.264 -1.85062 -0.511465 0
M  V30 3627 O 329.465 -2.55353 -0.83954 0
M  V30 3628 C 327.736 -3.21609 1.55893 0
M  V30 3629 S 329.295 -4.12593 1.49373 0
M  V30 3630 H 326.113 -0.623156 0.342341 0
M  V30 3631 H 328.715 -1.27943 1.47821 0
M  V30 3632 H 327.419 -3.16165 2.61664 0
M  V30 3633 H 326.95 -3.79631 1.0317 0
M  V30 3634 H 328.965 -4.93753 0.492196 0
M  V30 3635 N 328.138 -0.959301 -1.25041 0
M  V30 3636 C 329.386 -0.615393 -1.92503 0
M  V30 3637 C 329.707 0.850969 -1.75452 0
M  V30 3638 O 328.977 1.60658 -1.12098 0
M  V30 3639 H 327.557 -0.224613 -0.712431 0
M  V30 3640 H 330.219 -1.21855 -1.5211 0
M  V30 3641 H 329.315 -0.848738 -3.00338 0
M  V30 3642 N 329.616 1.39756 -0.72842 0
M  V30 3643 C 331.032 1.5442 -0.403308 0
M  V30 3644 C 331.232 1.69694 1.08656 0
M  V30 3645 O 330.288 1.69373 1.87267 0
M  V30 3646 C 331.601 2.76555 -1.18058 0
M  V30 3647 C 333.149 2.90384 -1.16815 0
M  V30 3648 C 333.624 4.15449 -1.92785 0
M  V30 3649 N 335.115 4.22475 -1.89918 0
M  V30 3650 C 335.85 5.1818 -2.45514 0
M  V30 3651 N 335.346 6.19714 -3.09719 0
M  V30 3652 N 337.139 5.1035 -2.35584 0
M  V30 3653 H 329.29 1.28089 -1.69431 0
M  V30 3654 H 331.553 0.620327 -0.716867 0
M  V30 3655 H 331.259 2.7159 -2.23455 0
M  V30 3656 H 331.133 3.69033 -0.780662 0
M  V30 3657 H 333.52 2.94846 -0.12234 0
M  V30 3658 H 333.601 1.98988 -1.6074 0
M  V30 3659 H 333.245 4.11749 -2.97364 0
M  V30 3660 H 333.175 5.05877 -1.46272 0
M  V30 3661 H 335.666 3.49743 -1.43138 0
M  V30 3662 H 335.979 6.8919 -3.49625 0
M  V30 3663 H 334.324 6.20121 -3.13807 0
M  V30 3664 H 337.515 4.2996 -1.85072 0
M  V30 3665 H 337.688 5.84761 -2.79211 0
M  V30 3666 N 331.094 0.475555 1.50254 0
M  V30 3667 C 332.334 -0.0765802 2.04256 0
M  V30 3668 C 332.698 -1.36587 1.34937 0
M  V30 3669 O 333.899 -2.00066 1.79519 0
M  V30 3670 C 332.17 -0.251668 3.56513 0
M  V30 3671 S 333.729 -0.761716 4.32138 0
M  V30 3672 H 330.547 -0.0138456 0.710865 0
M  V30 3673 H 333.149 0.643714 1.84598 0
M  V30 3674 H 331.853 0.692404 4.04517 0
M  V30 3675 H 331.384 -0.997946 3.80532 0
M  V30 3676 H 333.399 -2.03451 4.52573 0
M  V30 3677 N 332.573 -1.56217 0.208337 0
M  V30 3678 C 333.822 -1.97124 -0.427204 0
M  V30 3679 C 334.135 -1.09859 -1.61835 0
M  V30 3680 O 335.341 -1.40606 -2.32255 0
M  V30 3681 C 333.797 -3.50633 -0.811442 0
M  V30 3682 C 333.405 -4.46582 0.35615 0
M  V30 3683 C 335.149 -4.00282 -1.41332 0
M  V30 3684 C 333.056 -5.91379 -0.0497852 0
M  V30 3685 H 331.986 -0.736086 -0.163381 0
M  V30 3686 H 334.637 -1.8099 0.302456 0
M  V30 3687 H 333.019 -3.62319 -1.59815 0
M  V30 3688 H 334.193 -4.46636 1.1337 0
M  V30 3689 H 332.508 -4.07202 0.870396 0
M  V30 3690 H 335.105 -5.0595 -1.72972 0
M  V30 3691 H 335.448 -3.45359 -2.32449 0
M  V30 3692 H 335.981 -3.91764 -0.690323 0
M  V30 3693 H 332.72 -6.50255 0.827529 0
M  V30 3694 H 332.24 -5.94549 -0.791926 0
M  V30 3695 H 333.919 -6.45209 -0.481042 0
M  V30 3696 N 334.051 0.0651679 -1.57465 0
M  V30 3697 C 335.014 1.06117 -2.03155 0
M  V30 3698 C 336.014 1.31204 -0.929632 0
M  V30 3699 O 337.204 1.26813 -1.19432 0
M  V30 3700 C 334.336 2.4032 -2.41783 0
M  V30 3701 H 335.529 0.667231 -2.92383 0
M  V30 3702 H 333.082 0.311075 -1.53173 0
M  V30 3703 H 333.817 2.84532 -1.55601 0
M  V30 3704 H 333.602 2.23451 -3.22199 0
M  V30 3705 H 335.092 3.11898 -2.77685 0
M  V30 3706 N 335.529 1.53961 0.336706 0
M  V30 3707 C 336.775 1.7179 1.07777 0
M  V30 3708 C 337.108 0.483263 1.88091 0
M  V30 3709 O 336.383 -0.519747 1.87427 0
M  V30 3710 C 336.666 2.98558 2.01334 0
M  V30 3711 C 336.519 4.32245 1.24437 0
M  V30 3712 C 337.838 3.21023 3.01052 0
M  V30 3713 H 334.957 0.625089 0.390426 0
M  V30 3714 H 337.599 1.86641 0.35567 0
M  V30 3715 H 335.749 2.86028 2.62908 0
M  V30 3716 H 337.421 4.56637 0.654243 0
M  V30 3717 H 335.664 4.30344 0.546458 0
M  V30 3718 H 336.335 5.17137 1.93063 0
M  V30 3719 H 338.811 3.32929 2.49595 0
M  V30 3720 H 337.687 4.11104 3.6371 0
M  V30 3721 H 337.948 2.37637 3.72802 0
M  V30 3722 N 337.007 -0.598083 1.45811 0
M  V30 3723 C 338.253 -1.35882 1.50545 0
M  V30 3724 C 338.586 -1.93616 0.150445 0
M  V30 3725 O 337.861 -1.75604 -0.83628 0
M  V30 3726 C 338.144 -2.49966 2.59208 0
M  V30 3727 C 337.997 -1.97367 4.04186 0
M  V30 3728 C 339.316 -3.52068 2.64076 0
M  V30 3729 H 336.435 -0.492717 0.548087 0
M  V30 3730 H 339.077 -0.673319 1.77669 0
M  V30 3731 H 337.227 -3.08443 2.3621 0
M  V30 3732 H 338.899 -1.43466 4.38423 0
M  V30 3733 H 337.142 -1.283 4.14393 0
M  V30 3734 H 337.813 -2.79649 4.75921 0
M  V30 3735 H 340.289 -3.03448 2.84708 0
M  V30 3736 H 339.165 -4.2937 3.41954 0
M  V30 3737 H 339.426 -4.08304 1.69531 0
M  V30 3738 N 338.485 -1.33259 -0.841409 0
M  V30 3739 C 339.734 -1.23921 -1.59143 0
M  V30 3740 C 340.047 0.1941 -1.94635 0
M  V30 3741 O 341.253 0.409474 -2.68394 0
M  V30 3742 C 339.709 -2.17119 -2.87032 0
M  V30 3743 C 339.317 -3.65606 -2.58914 0
M  V30 3744 C 341.061 -2.16648 -3.65053 0
M  V30 3745 C 338.968 -4.50726 -3.82884 0
M  V30 3746 H 337.898 -0.460264 -0.597221 0
M  V30 3747 H 340.549 -1.58307 -0.927959 0
M  V30 3748 H 338.931 -1.75663 -3.54906 0
M  V30 3749 H 340.105 -4.15487 -1.99267 0
M  V30 3750 H 338.42 -3.68341 -1.942 0
M  V30 3751 H 341.017 -2.77474 -4.57069 0
M  V30 3752 H 341.36 -1.16088 -3.99787 0
M  V30 3753 H 341.893 -2.56453 -3.041 0
M  V30 3754 H 338.632 -5.52151 -3.53283 0
M  V30 3755 H 338.152 -4.0559 -4.41879 0
M  V30 3756 H 339.831 -4.64401 -4.50489 0
M  V30 3757 N 339.963 1.05934 -1.16686 0
M  V30 3758 C 340.911 2.15603 -0.872817 0
M  V30 3759 C 341.905 1.68647 0.159576 0
M  V30 3760 O 343.111 1.79995 0.0132125 0
M  V30 3761 H 339.486 0.703885 -0.264671 0
M  V30 3762 H 341.457 2.37613 -1.80507 0
M  V30 3763 C 340.206 3.45457 -0.394344 0
M  V30 3764 H 339.529 3.81984 -1.18019 0
M  V30 3765 H 340.969 4.2339 -0.227408 0
M  V30 3766 C 339.428 3.25021 0.88673 0
M  V30 3767 O 339.958 3.50906 1.95519 0
M  V30 3768 N 338.164 2.78437 0.831925 0
M  V30 3769 H 337.711 2.57572 -0.0377619 0
M  V30 3770 H 337.669 2.65144 1.68956 0
M  V30 3771 N 341.441 0.965919 1.2453 0
M  V30 3772 C 342.69 0.622437 1.91856 0
M  V30 3773 C 343.003 -0.846006 1.76358 0
M  V30 3774 O 344.209 -1.29993 2.38357 0
M  V30 3775 C 342.665 1.0626 3.43856 0
M  V30 3776 C 342.273 2.55437 3.68043 0
M  V30 3777 C 344.017 0.792183 4.17043 0
M  V30 3778 C 341.924 2.93196 5.13605 0
M  V30 3779 H 340.854 0.229092 0.718354 0
M  V30 3780 H 343.505 1.17189 1.41206 0
M  V30 3781 H 341.887 0.441476 3.93531 0
M  V30 3782 H 343.061 3.22665 3.28974 0
M  V30 3783 H 341.376 2.8007 3.08139 0
M  V30 3784 H 343.973 1.05031 5.24283 0
M  V30 3785 H 344.316 -0.271584 4.15413 0
M  V30 3786 H 344.849 1.37419 3.73311 0
M  V30 3787 H 341.588 3.98636 5.20355 0
M  V30 3788 H 341.108 2.30651 5.53679 0
M  V30 3789 H 342.787 2.83004 5.81823 0
M  V30 3790 N 342.919 -1.39368 0.735821 0
M  V30 3791 C 344.167 -2.00101 0.283562 0
M  V30 3792 C 344.488 -1.5868 -1.13338 0
M  V30 3793 O 343.758 -0.835423 -1.77193 0
M  V30 3794 H 342.338 -0.740024 0.101851 0
M  V30 3795 H 345 -1.70404 0.945962 0
M  V30 3796 H 344.096 -3.10323 0.332604 0
M  V30 3797 N 344.397 -0.483516 -1.5 0
M  V30 3798 C 345.33 0.350427 -2.25493 0
M  V30 3799 C 346.308 0.985549 -1.29328 0
M  V30 3800 O 347.492 1.01906 -1.58579 0
M  V30 3801 C 344.619 1.49202 -3.04066 0
M  V30 3802 C 343.665 0.973036 -4.15252 0
M  V30 3803 S 344.498 -0.122237 -5.3536 0
M  V30 3804 C 345.654 1.02294 -6.17484 0
M  V30 3805 H 345.887 -0.290381 -2.95878 0
M  V30 3806 H 343.42 -0.268562 -1.52046 0
M  V30 3807 H 345.378 2.14623 -3.49925 0
M  V30 3808 H 344.039 2.10438 -2.33183 0
M  V30 3809 H 343.232 1.82804 -4.69679 0
M  V30 3810 H 342.834 0.396335 -3.71894 0
M  V30 3811 H 345.126 1.93195 -6.49371 0
M  V30 3812 H 346.069 0.517664 -7.06205 0
M  V30 3813 H 346.477 1.28238 -5.49741 0
M  V30 3814 N 345.875 1.56104 -0.216619 0
M  V30 3815 C 346.822 2.2007 0.695531 0
M  V30 3816 C 347.792 1.15471 1.19397 0
M  V30 3817 O 348.977 1.43807 1.25396 0
M  V30 3818 C 346.117 2.88073 1.90021 0
M  V30 3819 C 345.23 4.07253 1.44113 0
M  V30 3820 C 344.365 4.63052 2.603 0
M  V30 3821 C 343.404 5.74545 2.11103 0
M  V30 3822 N 342.541 6.24656 3.20545 0
M  V30 3823 H 347.381 2.97655 0.143327 0
M  V30 3824 H 344.918 1.46982 0.0589934 0
M  V30 3825 H 346.876 3.25681 2.60745 0
M  V30 3826 H 345.506 2.13015 2.42538 0
M  V30 3827 H 344.558 3.75164 0.628999 0
M  V30 3828 H 345.87 4.8783 1.04036 0
M  V30 3829 H 345.024 5.03078 3.39113 0
M  V30 3830 H 343.763 3.81628 3.03663 0
M  V30 3831 H 342.768 5.34027 1.3075 0
M  V30 3832 H 343.993 6.57801 1.68746 0
M  V30 3833 H 341.939 5.46148 3.63399 0
M  V30 3834 H 341.856 7.00343 2.84704 0
M  V30 3835 H 343.124 6.69338 3.99508 0
M  V30 3836 N 347.353 -0.0568162 1.57498 0
M  V30 3837 C 348.581 -0.765626 1.92213 0
M  V30 3838 C 348.996 -1.70353 0.813961 0
M  V30 3839 O 348.353 -1.81268 -0.211701 0
M  V30 3840 C 348.404 -1.5465 3.2675 0
M  V30 3841 O 348.125 -0.646278 4.33307 0
M  V30 3842 C 349.626 -2.35497 3.75574 0
M  V30 3843 H 346.846 -0.216835 0.634999 0
M  V30 3844 H 349.39 -0.0226146 2.04487 0
M  V30 3845 H 347.545 -2.24165 3.15957 0
M  V30 3846 H 347.959 -1.19093 5.108 0
M  V30 3847 H 349.433 -2.85722 4.72299 0
M  V30 3848 H 349.91 -3.15692 3.05344 0
M  V30 3849 H 350.516 -1.7111 3.8936 0
M  V30 3850 N 348.832 -1.54138 -0.328536 0
M  V30 3851 C 349.742 -1.86192 -1.42723 0
M  V30 3852 C 350.758 -0.753382 -1.56844 0
M  V30 3853 O 351.934 -1.04718 -1.72035 0
M  V30 3854 C 348.999 -2.07824 -2.77507 0
M  V30 3855 C 348.06 -3.31641 -2.72603 0
M  V30 3856 C 347.293 -3.52232 -4.00959 0
M  V30 3857 O 347.516 -2.7636 -4.9898 0
M  V30 3858 O 346.45 -4.45699 -4.0452 0
M  V30 3859 H 350.276 -2.79608 -1.18547 0
M  V30 3860 H 347.861 -1.3998 -0.522104 0
M  V30 3861 H 349.743 -2.23411 -3.57303 0
M  V30 3862 H 348.418 -1.17596 -3.01584 0
M  V30 3863 H 347.325 -3.21444 -1.91376 0
M  V30 3864 H 348.658 -4.2191 -2.53481 0
M  V30 3865 N 350.31 0.590341 -1.46126 0
M  V30 3866 C 351.559 1.34499 -1.50309 0
M  V30 3867 C 351.872 1.94977 -0.156021 0
M  V30 3868 O 353.078 2.71395 -0.0756037 0
M  V30 3869 C 351.534 2.43723 -2.64815 0
M  V30 3870 C 351.142 1.89582 -4.0591 0
M  V30 3871 C 352.886 3.20579 -2.78262 0
M  V30 3872 C 350.793 2.9639 -5.11769 0
M  V30 3873 H 349.723 0.505593 -0.559368 0
M  V30 3874 H 352.374 0.630848 -1.72315 0
M  V30 3875 H 350.756 3.17902 -2.36124 0
M  V30 3876 H 351.93 1.21997 -4.44357 0
M  V30 3877 H 350.245 1.25418 -3.97063 0
M  V30 3878 H 352.842 4.00276 -3.54519 0
M  V30 3879 H 353.185 3.72684 -1.85505 0
M  V30 3880 H 353.718 2.53505 -3.06562 0
M  V30 3881 H 350.457 2.49181 -6.06291 0
M  V30 3882 H 349.977 3.62487 -4.77873 0
M  V30 3883 H 351.656 3.60474 -5.37278 0
M  V30 3884 N 351.788 1.33704 0.83433 0
M  V30 3885 C 353.036 1.25169 1.58673 0
M  V30 3886 C 353.357 -0.18127 1.94156 0
M  V30 3887 O 352.627 -1.11113 1.6134 0
M  V30 3888 H 351.207 0.4603 0.58833 0
M  V30 3889 H 353.869 1.67478 0.996847 0
M  V30 3890 H 352.965 1.84856 2.51465 0
M  V30 3891 N 353.266 -1.05314 1.17247 0
M  V30 3892 C 354.216 -2.11313 0.856196 0
M  V30 3893 C 355.2 -1.60013 -0.168694 0
M  V30 3894 O 356.392 -1.76968 0.0335624 0
M  V30 3895 C 353.521 -3.41301 0.369917 0
M  V30 3896 C 352.607 -3.99401 1.42616 0
M  V30 3897 N 352.998 -4.31481 2.63928 0
M  V30 3898 C 351.296 -4.27126 1.28373 0
M  V30 3899 C 351.997 -4.77799 3.31787 0
M  V30 3900 N 350.973 -4.77843 2.59166 0
M  V30 3901 H 354.775 -2.33976 1.77856 0
M  V30 3902 H 352.289 -1.2295 1.06099 0
M  V30 3903 H 354.286 -4.16713 0.124897 0
M  V30 3904 H 352.946 -3.20072 -0.546253 0
M  V30 3905 H 353.957 -4.21519 3.00902 0
M  V30 3906 H 350.634 -4.15289 0.429111 0
M  V30 3907 H 352.024 -5.11743 4.35395 0
M  V30 3908 N 354.744 -0.972509 -1.24016 0
M  V30 3909 C 355.993 -0.632603 -1.91523 0
M  V30 3910 C 356.306 0.836641 -1.76804 0
M  V30 3911 O 357.512 1.28728 -2.39043 0
M  V30 3912 C 355.968 -1.08082 -3.43287 0
M  V30 3913 C 355.576 -2.57386 -3.66683 0
M  V30 3914 C 357.32 -0.814288 -4.16617 0
M  V30 3915 C 355.227 -2.95915 -5.12043 0
M  V30 3916 H 354.157 -0.232898 -0.717129 0
M  V30 3917 H 356.808 -1.17936 -1.40582 0
M  V30 3918 H 355.19 -0.462339 -3.93292 0
M  V30 3919 H 356.364 -3.24405 -3.27258 0
M  V30 3920 H 354.679 -2.81701 -3.06649 0
M  V30 3921 H 357.276 -1.0781 -5.23718 0
M  V30 3922 H 357.619 0.24955 -4.15551 0
M  V30 3923 H 358.152 -1.39397 -3.72577 0
M  V30 3924 H 354.891 -4.0139 -5.18234 0
M  V30 3925 H 354.411 -2.33584 -5.52448 0
M  V30 3926 H 356.09 -2.86086 -5.80314 0
M  V30 3927 N 356.222 1.38976 -0.743202 0
M  V30 3928 C 357.154 2.29096 -0.0689228 0
M  V30 3929 C 358.167 1.47229 0.694791 0
M  V30 3930 O 359.356 1.70212 0.537597 0
M  V30 3931 C 356.456 3.25988 0.926548 0
M  V30 3932 C 355.629 4.36833 0.222647 0
M  V30 3933 C 354.688 5.13981 1.12739 0
M  V30 3934 O 353.714 5.6601 0.601795 0
M  V30 3935 N 354.916 5.25966 2.45641 0
M  V30 3936 H 357.681 2.87604 -0.842846 0
M  V30 3937 H 355.242 1.50645 -0.593109 0
M  V30 3938 H 357.234 3.74476 1.5346 0
M  V30 3939 H 355.804 2.68453 1.60162 0
M  V30 3940 H 355.024 3.90116 -0.565983 0
M  V30 3941 H 356.312 5.0811 -0.264841 0
M  V30 3942 H 355.71 4.85228 2.9081 0
M  V30 3943 H 354.267 5.77865 3.01522 0
M  V30 3944 N 357.7 0.491464 1.49741 0
M  V30 3945 C 358.65 -0.311086 2.25868 0
M  V30 3946 C 359.634 -0.943857 1.30308 0
M  V30 3947 O 360.826 -0.853035 1.55088 0
M  V30 3948 C 357.955 -1.38059 3.14316 0
M  V30 3949 C 357.041 -0.754541 4.17334 0
M  V30 3950 N 357.432 0.137216 5.05614 0
M  V30 3951 C 355.73 -1.01621 4.34269 0
M  V30 3952 C 356.431 0.494614 5.79593 0
M  V30 3953 N 355.407 -0.135169 5.43432 0
M  V30 3954 H 359.209 0.37555 2.91491 0
M  V30 3955 H 356.723 0.306917 1.59473 0
M  V30 3956 H 358.72 -1.96891 3.67477 0
M  V30 3957 H 357.38 -2.06901 2.50244 0
M  V30 3958 H 358.391 0.50741 5.15408 0
M  V30 3959 H 355.068 -1.69808 3.81407 0
M  V30 3960 H 356.458 1.2236 6.60665 0
M  V30 3961 N 359.178 -1.55987 0.224894 0
M  V30 3962 C 360.141 -2.19178 -0.670348 0
M  V30 3963 C 361.141 -1.15461 -1.11917 0
M  V30 3964 O 362.331 -1.40675 -1.02743 0
M  V30 3965 C 359.463 -2.81777 -1.9187 0
M  V30 3966 H 360.656 -2.99662 -0.119364 0
M  V30 3967 H 358.209 -1.5628 -0.0247128 0
M  V30 3968 H 358.944 -2.05172 -2.51147 0
M  V30 3969 H 358.729 -3.57732 -1.60531 0
M  V30 3970 H 360.219 -3.30205 -2.55645 0
M  V30 3971 N 360.656 0.0484629 -1.57525 0
M  V30 3972 C 361.902 0.744226 -1.88651 0
M  V30 3973 C 362.235 1.76029 -0.820212 0
M  V30 3974 O 361.51 1.93782 0.166985 0
M  V30 3975 C 361.793 1.43128 -3.30434 0
M  V30 3976 C 361.646 0.43005 -4.47739 0
M  V30 3977 C 362.965 2.37031 -3.70816 0
M  V30 3978 H 360.084 0.269089 -0.68612 0
M  V30 3979 H 362.726 0.00713532 -1.89999 0
M  V30 3980 H 360.876 2.05956 -3.29415 0
M  V30 3981 H 362.548 -0.194816 -4.60888 0
M  V30 3982 H 360.791 -0.252522 -4.33064 0
M  V30 3983 H 361.462 0.948874 -5.43783 0
M  V30 3984 H 363.938 1.84263 -3.73077 0
M  V30 3985 H 362.814 2.82094 -4.70865 0
M  V30 3986 H 363.075 3.22864 -3.02012 0
M  V30 3987 N 362.134 1.5431 0.320358 0
M  V30 3988 C 363.383 1.7188 1.05546 0
M  V30 3989 C 363.696 0.501143 1.89071 0
M  V30 3990 O 364.902 0.558258 2.65699 0
M  V30 3991 C 363.358 3.04025 1.92605 0
M  V30 3992 C 362.966 4.33207 1.14176 0
M  V30 3993 C 364.71 3.30959 2.65832 0
M  V30 3994 C 362.617 5.56412 2.00399 0
M  V30 3995 H 361.547 0.640547 0.397763 0
M  V30 3996 H 364.198 1.80802 0.313522 0
M  V30 3997 H 362.58 2.89019 2.7071 0
M  V30 3998 H 363.754 4.58989 0.40819 0
M  V30 3999 H 362.069 4.13062 0.526165 0
M  V30 4000 H 364.666 4.20203 3.30656 0
M  V30 4001 H 365.009 2.48979 3.33639 0
M  V30 4002 H 365.542 3.46847 1.94787 0
M  V30 4003 H 362.281 6.41004 1.37094 0
M  V30 4004 H 361.801 5.34844 2.7148 0
M  V30 4005 H 363.48 5.92938 2.58908 0
M  V30 4006 N 363.613 -0.582584 1.46437 0
M  V30 4007 C 364.523 -1.71949 1.59595 0
M  V30 4008 C 365.539 -1.67264 0.479443 0
M  V30 4009 O 366.715 -1.87171 0.743579 0
M  V30 4010 C 363.78 -3.08452 1.58298 0
M  V30 4011 C 362.841 -3.244 2.81182 0
M  V30 4012 C 362.074 -4.54391 2.79937 0
M  V30 4013 O 362.297 -5.38287 1.8869 0
M  V30 4014 O 361.231 -4.73588 3.71481 0
M  V30 4015 H 365.057 -1.63795 2.55744 0
M  V30 4016 H 362.642 -0.749643 1.29231 0
M  V30 4017 H 364.524 -3.89732 1.60271 0
M  V30 4018 H 363.199 -3.17043 0.653094 0
M  V30 4019 H 362.106 -2.42613 2.84763 0
M  V30 4020 H 363.439 -3.20699 3.7338 0
M  V30 4021 N 365.091 -1.34144 -0.827227 0
M  V30 4022 C 366.316 -1.29476 -1.62021 0
M  V30 4023 C 366.741 0.129292 -1.87655 0
M  V30 4024 O 366.099 1.08967 -1.449 0
M  V30 4025 C 366.147 -2.08702 -2.94068 0
M  V30 4026 O 365.251 -1.45359 -3.85933 0
M  V30 4027 H 364.592 -0.444881 -0.492927 0
M  V30 4028 H 367.122 -1.76882 -1.02829 0
M  V30 4029 H 367.132 -2.19898 -3.43669 0
M  V30 4030 H 365.807 -3.12241 -2.74734 0
M  V30 4031 H 364.384 -1.42879 -3.44442 0
M  V30 4032 N 366.569 1.04691 -1.17803 0
M  V30 4033 C 367.517 2.14665 -0.895635 0
M  V30 4034 C 368.511 1.68806 0.141679 0
M  V30 4035 O 369.717 1.79999 -0.00587914 0
M  V30 4036 H 366.092 0.701038 -0.272121 0
M  V30 4037 H 368.063 2.35685 -1.83017 0
M  V30 4038 C 366.812 3.45019 -0.430962 0
M  V30 4039 H 366.135 3.8071 -1.22064 0
M  V30 4040 H 367.575 4.23125 -0.272301 0
M  V30 4041 C 366.034 3.25943 0.852207 0
M  V30 4042 O 366.564 3.5296 1.91786 0
M  V30 4043 N 364.77 2.79304 0.802346 0
M  V30 4044 H 364.317 2.57518 -0.0650788 0
M  V30 4045 H 364.275 2.66921 1.66134 0
M  V30 4046 N 368.047 0.979072 1.23499 0
M  V30 4047 C 369.272 0.664845 1.96455 0
M  V30 4048 C 369.697 -0.761287 1.72006 0
M  V30 4049 O 369.055 -1.51837 0.990713 0
M  V30 4050 C 369.103 0.959479 3.47601 0
M  V30 4051 O 368.207 0.0508168 4.12369 0
M  V30 4052 H 367.548 0.250185 0.615064 0
M  V30 4053 H 370.078 1.31231 1.5697 0
M  V30 4054 H 370.088 0.895642 3.98048 0
M  V30 4055 H 368.763 1.99876 3.64723 0
M  V30 4056 H 367.34 0.16895 3.72517 0
M  V30 4057 N 369.525 -1.3858 0.750561 0
M  V30 4058 C 370.435 -2.34278 0.122825 0
M  V30 4059 C 371.451 -1.59116 -0.704131 0
M  V30 4060 O 372.627 -1.91326 -0.628987 0
M  V30 4061 C 369.692 -3.38221 -0.762086 0
M  V30 4062 C 368.753 -4.29227 0.078896 0
M  V30 4063 C 367.986 -5.28205 -0.763874 0
M  V30 4064 O 368.209 -5.34112 -2.00201 0
M  V30 4065 O 367.143 -6.01618 -0.18428 0
M  V30 4066 H 370.969 -2.89649 0.913088 0
M  V30 4067 H 368.554 -1.40374 0.511417 0
M  V30 4068 H 370.436 -4.01872 -1.26793 0
M  V30 4069 H 369.111 -2.85211 -1.5309 0
M  V30 4070 H 368.018 -3.68747 0.630621 0
M  V30 4071 H 369.351 -4.85484 0.810289 0
M  V30 4072 N 371.003 -0.499398 -1.49478 0
M  V30 4073 C 372.28 0.108629 -1.95298 0
M  V30 4074 C 372.66 1.54282 -1.44084 0
M  V30 4075 O 372.008 2.18944 -0.653908 0
M  V30 4076 C 372.218 0.0229111 -3.48992 0
M  V30 4077 C 373.566 0.197643 -4.2414 0
M  V30 4078 O 374.59 0.0981735 -3.56065 0
M  V30 4079 O 373.449 0.401669 -5.45022 0
M  V30 4080 H 370.543 0.096181 -0.821388 0
M  V30 4081 H 373.089 -0.561822 -1.6013 0
M  V30 4082 H 371.861 -0.977321 -3.78899 0
M  V30 4083 H 371.484 0.733579 -3.90774 0
M  V30 4084 N 372.481 1.55866 -0.233164 0
M  V30 4085 C 373.709 2.02998 0.399905 0
M  V30 4086 C 374.124 1.11274 1.52524 0
M  V30 4087 O 373.481 0.124528 1.82075 0
M  V30 4088 C 373.532 3.4958 0.920639 0
M  V30 4089 O 373.253 4.37808 -0.159834 0
M  V30 4090 C 374.754 4.12411 1.62578 0
M  V30 4091 H 371.974 0.664006 0.0966281 0
M  V30 4092 H 374.518 2.0143 -0.353013 0
M  V30 4093 H 372.673 3.51727 1.62379 0
M  V30 4094 H 373.087 5.23981 0.23337 0
M  V30 4095 H 374.561 5.16711 1.94201 0
M  V30 4096 H 375.038 3.5809 2.54299 0
M  V30 4097 H 375.644 4.14148 0.967553 0
M  V30 4098 N 373.959 -0.0401083 1.57549 0
M  V30 4099 C 374.891 -1.07149 2.02612 0
M  V30 4100 C 375.904 -1.33126 0.937085 0
M  V30 4101 O 377.093 -1.30808 1.21456 0
M  V30 4102 C 374.193 -2.41561 2.37701 0
M  V30 4103 C 373.366 -2.35096 3.68848 0
M  V30 4104 C 372.425 -3.51867 3.91249 0
M  V30 4105 O 371.451 -3.3186 4.62447 0
M  V30 4106 N 372.653 -4.73351 3.36035 0
M  V30 4107 H 375.418 -0.687485 2.91708 0
M  V30 4108 H 372.979 -0.228248 1.60283 0
M  V30 4109 H 374.971 -3.18379 2.49833 0
M  V30 4110 H 373.541 -2.71846 1.54332 0
M  V30 4111 H 372.761 -1.4345 3.67173 0
M  V30 4112 H 374.049 -2.27908 4.54901 0
M  V30 4113 H 373.447 -4.92507 2.78304 0
M  V30 4114 H 372.004 -5.47572 3.53565 0
M  V30 4115 N 375.437 -1.54477 -0.31217 0
M  V30 4116 C 376.665 -1.77205 -1.068 0
M  V30 4117 C 377.08 -0.526114 -1.81321 0
M  V30 4118 O 376.437 0.503647 -1.75413 0
M  V30 4119 C 376.488 -2.97253 -2.05725 0
M  V30 4120 O 376.209 -4.1703 -1.34228 0
M  V30 4121 C 377.71 -3.32281 -2.93435 0
M  V30 4122 H 374.93 -0.591287 -0.317208 0
M  V30 4123 H 377.474 -2.01398 -0.354834 0
M  V30 4124 H 375.629 -2.753 -2.72559 0
M  V30 4125 H 376.043 -4.84636 -2.00571 0
M  V30 4126 H 377.517 -4.19551 -3.58721 0
M  V30 4127 H 377.994 -2.49945 -3.61143 0
M  V30 4128 H 378.6 -3.56353 -2.32147 0
M  V30 4129 N 376.915 0.57481 -1.46744 0
M  V30 4130 C 378.326 1.15695 -1.46532 0
M  V30 4131 C 378.677 1.95068 -0.210425 0
M  V30 4132 O 377.802 2.05241 0.685944 0
M  V30 4133 C 378.397 2.1048 -2.65487 0
M  V30 4134 C 376.956 2.64002 -2.68291 0
M  V30 4135 C 376.103 1.40026 -2.39349 0
M  V30 4136 H 379.054 0.362325 -1.54509 0
M  V30 4137 H 379.075 2.94074 -2.41455 0
M  V30 4138 H 378.587 1.52683 -3.56805 0
M  V30 4139 H 376.688 3.25646 -1.81067 0
M  V30 4140 H 376.801 3.06197 -3.68483 0
M  V30 4141 H 375.165 1.70106 -1.89568 0
M  V30 4142 H 375.948 0.840485 -3.32852 0
M  V30 4143 N 378.394 1.34581 0.820102 0
M  V30 4144 C 379.324 1.29038 1.94606 0
M  V30 4145 C 380.305 0.1673 1.69275 0
M  V30 4146 O 381.49 0.360112 1.90832 0
M  V30 4147 C 378.62 1.04793 3.31113 0
M  V30 4148 C 377.574 2.13597 3.70891 0
M  V30 4149 C 376.9 1.74537 5.05412 0
M  V30 4150 C 378.2 3.55451 3.8269 0
M  V30 4151 H 379.894 2.23248 1.99501 0
M  V30 4152 H 377.44 1.0747 0.958449 0
M  V30 4153 H 379.393 0.995592 4.0947 0
M  V30 4154 H 378.117 0.0702565 3.26524 0
M  V30 4155 H 376.776 2.17905 2.9481 0
M  V30 4156 H 376.424 0.754226 4.97313 0
M  V30 4157 H 376.124 2.47361 5.32997 0
M  V30 4158 H 377.648 1.70803 5.86224 0
M  V30 4159 H 379.062 3.5354 4.51312 0
M  V30 4160 H 377.459 4.26922 4.21732 0
M  V30 4161 H 378.529 3.92587 2.84611 0
M  V30 4162 N 379.872 -1.04064 1.18357 0
M  V30 4163 C 380.804 -2.12114 0.868358 0
M  V30 4164 C 381.817 -1.62247 -0.134045 0
M  V30 4165 O 383.006 -1.78253 0.0937933 0
M  V30 4166 C 380.106 -3.37773 0.276132 0
M  V30 4167 C 379.279 -4.16874 1.3242 0
M  V30 4168 C 378.338 -5.20861 0.747662 0
M  V30 4169 O 377.364 -5.51141 1.42239 0
M  V30 4170 N 378.566 -5.78715 -0.454823 0
M  V30 4171 H 381.331 -2.39748 1.79836 0
M  V30 4172 H 378.892 -1.20258 1.08396 0
M  V30 4173 H 380.884 -4.04513 -0.123133 0
M  V30 4174 H 379.454 -3.07581 -0.557895 0
M  V30 4175 H 378.674 -3.45456 1.89878 0
M  V30 4176 H 379.962 -4.66516 2.03078 0
M  V30 4177 H 379.36 -5.56415 -1.02073 0
M  V30 4178 H 377.917 -6.46921 -0.79601 0
M  V30 4179 N 381.35 -0.985608 -1.22978 0
M  V30 4180 C 382.599 -0.652881 -1.90841 0
M  V30 4181 C 382.912 0.817842 -1.77681 0
M  V30 4182 O 384.118 1.26185 -2.40395 0
M  V30 4183 C 382.574 -1.11717 -3.42122 0
M  V30 4184 C 382.182 -2.6126 -3.63933 0
M  V30 4185 C 383.926 -0.85843 -4.1573 0
M  V30 4186 C 381.833 -3.0133 -5.08876 0
M  V30 4187 H 380.763 -0.240491 -0.714619 0
M  V30 4188 H 383.414 -1.1942 -1.39324 0
M  V30 4189 H 381.796 -0.504027 -3.92779 0
M  V30 4190 H 382.97 -3.27858 -3.23799 0
M  V30 4191 H 381.285 -2.84937 -3.03644 0
M  V30 4192 H 383.882 -1.13359 -5.22546 0
M  V30 4193 H 384.225 0.205461 -4.15793 0
M  V30 4194 H 384.758 -1.43341 -3.71077 0
M  V30 4195 H 381.497 -4.06864 -5.13947 0
M  V30 4196 H 381.017 -2.3943 -5.49939 0
M  V30 4197 H 382.696 -2.92224 -5.77247 0
M  V30 4198 N 382.828 1.3818 -0.7579 0
M  V30 4199 C 383.775 2.30416 -0.133057 0
M  V30 4200 C 384.745 1.50398 0.704957 0
M  V30 4201 O 385.93 1.79014 0.660192 0
M  V30 4202 C 383.07 3.36834 0.750813 0
M  V30 4203 C 382.183 4.31879 -0.102297 0
M  V30 4204 C 381.318 5.25368 0.784979 0
M  V30 4205 C 380.357 6.12058 -0.0715046 0
M  V30 4206 N 379.494 6.97832 0.772972 0
M  V30 4207 H 384.334 2.83274 -0.925186 0
M  V30 4208 H 381.871 1.39461 -0.467866 0
M  V30 4209 H 383.829 3.97145 1.27794 0
M  V30 4210 H 382.459 2.85374 1.50868 0
M  V30 4211 H 381.511 3.72991 -0.747095 0
M  V30 4212 H 382.823 4.92921 -0.763552 0
M  V30 4213 H 381.977 5.90818 1.37911 0
M  V30 4214 H 380.716 4.64703 1.47996 0
M  V30 4215 H 379.721 5.456 -0.678272 0
M  V30 4216 H 380.946 6.74793 -0.763606 0
M  V30 4217 H 378.892 6.3971 1.45282 0
M  V30 4218 H 378.809 7.55812 0.168709 0
M  V30 4219 H 380.077 7.67687 1.35194 0
M  V30 4220 N 384.306 0.507319 1.49211 0
M  V30 4221 C 385.555 -0.0368315 2.01666 0
M  V30 4222 C 385.868 -1.37459 1.39156 0
M  V30 4223 O 387.074 -2.00579 1.82976 0
M  V30 4224 C 385.53 -0.116089 3.59713 0
M  V30 4225 C 385.138 1.2154 4.31198 0
M  V30 4226 C 386.882 -0.610268 4.2009 0
M  V30 4227 C 384.789 1.09796 5.81119 0
M  V30 4228 H 383.719 -0.0175376 0.753796 0
M  V30 4229 H 386.37 0.647691 1.71689 0
M  V30 4230 H 384.752 -0.8652 3.86433 0
M  V30 4231 H 385.926 1.9783 4.16173 0
M  V30 4232 H 384.241 1.64352 3.82593 0
M  V30 4233 H 386.838 -0.715742 5.29888 0
M  V30 4234 H 387.181 -1.61064 3.8388 0
M  V30 4235 H 387.714 0.0824916 3.97714 0
M  V30 4236 H 384.453 2.0728 6.21864 0
M  V30 4237 H 383.973 0.376058 5.9862 0
M  V30 4238 H 385.652 0.779281 6.4229 0
M  V30 4239 N 385.784 -1.5574 0.241426 0
M  V30 4240 C 387.061 -1.90704 -0.434881 0
M  V30 4241 C 387.441 -1.16145 -1.76277 0
M  V30 4242 O 386.789 -0.277152 -2.26813 0
M  V30 4243 C 386.999 -3.43657 -0.608343 0
M  V30 4244 C 388.347 -4.14806 -0.906725 0
M  V30 4245 O 389.371 -3.49366 -0.694408 0
M  V30 4246 O 388.23 -5.30548 -1.31075 0
M  V30 4247 H 385.324 -0.793592 -0.23268 0
M  V30 4248 H 387.87 -1.67288 0.285086 0
M  V30 4249 H 386.642 -3.89927 0.327505 0
M  V30 4250 H 386.265 -3.72918 -1.37906 0
M  V30 4251 N 387.262 0.0317525 -1.57568 0
M  V30 4252 C 388.192 1.03274 -2.0942 0
M  V30 4253 C 389.173 1.3788 -0.996143 0
M  V30 4254 O 390.358 1.46811 -1.27122 0
M  V30 4255 C 387.488 2.33448 -2.57137 0
M  V30 4256 C 386.442 2.13091 -3.71182 0
M  V30 4257 C 385.768 3.49001 -4.05095 0
M  V30 4258 C 387.068 1.51928 -4.99715 0
M  V30 4259 H 388.762 0.60112 -2.93303 0
M  V30 4260 H 386.308 0.287705 -1.41097 0
M  V30 4261 H 388.261 3.03802 -2.92032 0
M  V30 4262 H 386.985 2.78665 -1.70333 0
M  V30 4263 H 385.644 1.45171 -3.36632 0
M  V30 4264 H 385.292 3.91862 -3.15362 0
M  V30 4265 H 384.992 3.36207 -4.81911 0
M  V30 4266 H 386.516 4.20721 -4.42522 0
M  V30 4267 H 387.93 2.12196 -5.32584 0
M  V30 4268 H 386.327 1.49716 -5.81124 0
M  V30 4269 H 387.397 0.484811 -4.8247 0
M  V30 4270 N 388.74 1.54641 0.303973 0
M  V30 4271 C 389.987 1.7378 1.03955 0
M  V30 4272 C 390.315 0.521986 1.87365 0
M  V30 4273 O 389.57 -0.496099 1.89308 0
M  V30 4274 C 389.869 2.97753 1.97681 0
M  V30 4275 C 389.535 4.31671 1.30271 0
M  V30 4276 C 388.197 4.68075 1.11619 0
M  V30 4277 C 390.549 5.147 0.82055 0
M  V30 4278 C 387.877 5.8509 0.434304 0
M  V30 4279 C 390.229 6.32416 0.152395 0
M  V30 4280 C 388.893 6.67484 -0.0461067 0
M  V30 4281 H 388.163 0.635908 0.380398 0
M  V30 4282 H 390.81 1.88896 0.314718 0
M  V30 4283 H 389.115 2.77406 2.76682 0
M  V30 4284 H 390.812 3.09756 2.54661 0
M  V30 4285 H 387.402 4.03041 1.45795 0
M  V30 4286 H 391.586 4.87077 0.952374 0
M  V30 4287 H 386.842 6.10806 0.269495 0
M  V30 4288 H 391.016 6.96023 -0.229126 0
M  V30 4289 H 388.643 7.58011 -0.576494 0
M  V30 4290 N 390.218 -0.567019 1.47046 0
M  V30 4291 C 391.466 -1.322 1.52864 0
M  V30 4292 C 391.787 -1.94088 0.188388 0
M  V30 4293 O 391.057 -1.7941 -0.786693 0
M  V30 4294 H 389.637 -0.490894 0.563056 0
M  V30 4295 H 392.299 -0.662879 1.83281 0
M  V30 4296 H 391.395 -2.12062 2.2899 0
M  V30 4297 N 391.696 -1.35014 -0.812953 0
M  V30 4298 C 392.628 -1.23262 -1.93233 0
M  V30 4299 C 393.641 -0.157371 -1.62038 0
M  V30 4300 O 394.83 -0.410096 -1.73725 0
M  V30 4301 C 391.93 -0.87392 -3.27438 0
M  V30 4302 C 391.103 -2.04622 -3.86586 0
M  V30 4303 C 390.162 -1.66432 -4.99186 0
M  V30 4304 O 389.188 -2.38222 -5.16951 0
M  V30 4305 N 390.39 -0.584248 -5.77552 0
M  V30 4306 H 393.155 -2.19699 -2.03844 0
M  V30 4307 H 390.716 -1.281 -0.99005 0
M  V30 4308 H 392.708 -0.600039 -4.00227 0
M  V30 4309 H 391.278 0.00057392 -3.126 0
M  V30 4310 H 390.498 -2.48427 -3.06068 0
M  V30 4311 H 391.786 -2.82999 -4.22835 0
M  V30 4312 H 391.184 0.0123526 -5.65699 0
M  V30 4313 H 389.741 -0.37013 -6.50748 0
M  V30 4314 N 393.175 1.03435 -1.18907 0
M  V30 4315 C 394.107 2.1165 -0.879595 0
M  V30 4316 C 395.12 1.62316 0.125439 0
M  V30 4317 O 396.309 1.78201 -0.103245 0
M  V30 4318 C 393.409 3.37622 -0.294042 0
M  V30 4319 C 392.582 4.16166 -1.34629 0
M  V30 4320 C 391.641 5.20457 -0.775274 0
M  V30 4321 O 390.667 5.50379 -1.4516 0
M  V30 4322 N 391.869 5.78949 0.424126 0
M  V30 4323 H 394.634 2.38791 -1.81105 0
M  V30 4324 H 392.195 1.19681 -1.09032 0
M  V30 4325 H 394.187 4.04572 0.101679 0
M  V30 4326 H 392.757 3.07873 0.541575 0
M  V30 4327 H 391.977 3.44444 -1.91707 0
M  V30 4328 H 393.265 4.65432 -2.05549 0
M  V30 4329 H 392.663 5.56948 0.991209 0
M  V30 4330 H 391.22 6.47334 0.761691 0
M  V30 4331 N 394.653 0.992116 1.22453 0
M  V30 4332 C 395.583 0.561677 2.26644 0
M  V30 4333 C 396.564 -0.411055 1.65059 0
M  V30 4334 O 397.749 -0.301861 1.9184 0
M  V30 4335 C 394.879 -0.125247 3.47074 0
M  V30 4336 C 393.833 0.765948 4.21091 0
M  V30 4337 C 393.159 -0.0538484 5.34673 0
M  V30 4338 C 394.459 2.06242 4.79856 0
M  V30 4339 H 396.153 1.43259 2.62902 0
M  V30 4340 H 393.699 0.690283 1.26377 0
M  V30 4341 H 395.652 -0.437764 4.1912 0
M  V30 4342 H 394.376 -1.03069 3.0991 0
M  V30 4343 H 393.035 1.0621 3.50878 0
M  V30 4344 H 392.683 -0.960188 4.9375 0
M  V30 4345 H 392.383 0.539415 5.85119 0
M  V30 4346 H 393.907 -0.360477 6.09535 0
M  V30 4347 H 395.321 1.8139 5.43848 0
M  V30 4348 H 393.718 2.60444 5.40638 0
M  V30 4349 H 394.788 2.74167 3.99951 0
M  V30 4350 N 396.131 -1.37776 0.765217 0
M  V30 4351 C 397.356 -2.04651 0.336537 0
M  V30 4352 C 397.781 -1.57337 -1.03086 0
M  V30 4353 O 397.139 -0.730621 -1.65927 0
M  V30 4354 C 397.187 -3.58577 0.381468 0
M  V30 4355 O 396.291 -4.07706 -0.62042 0
M  V30 4356 H 395.632 -0.64756 0.146838 0
M  V30 4357 H 398.162 -1.76221 1.03959 0
M  V30 4358 H 398.172 -4.07314 0.236448 0
M  V30 4359 H 396.847 -3.9237 1.37907 0
M  V30 4360 H 395.424 -3.70306 -0.439056 0
M  V30 4361 N 397.609 -0.515225 -1.4894 0
M  V30 4362 C 398.556 0.255567 -2.29381 0
M  V30 4363 C 399.526 0.947387 -1.36432 0
M  V30 4364 O 400.711 0.951288 -1.65394 0
M  V30 4365 C 397.851 1.30551 -3.19453 0
M  V30 4366 C 396.964 0.624029 -4.27469 0
M  V30 4367 C 396.099 1.65563 -5.0474 0
M  V30 4368 C 395.138 0.956802 -6.04576 0
M  V30 4369 N 394.275 1.93326 -6.74959 0
M  V30 4370 H 399.115 -0.436607 -2.94784 0
M  V30 4371 H 396.652 -0.227154 -1.45336 0
M  V30 4372 H 398.61 1.92639 -3.70062 0
M  V30 4373 H 397.24 1.96626 -2.56004 0
M  V30 4374 H 396.292 -0.110459 -3.8024 0
M  V30 4375 H 397.604 0.0746092 -4.98744 0
M  V30 4376 H 396.758 2.35119 -5.59289 0
M  V30 4377 H 395.497 2.23893 -4.3327 0
M  V30 4378 H 394.502 0.247097 -5.49244 0
M  V30 4379 H 395.727 0.379814 -6.78037 0
M  V30 4380 H 393.673 2.50591 -6.06251 0
M  V30 4381 H 393.59 1.43489 -7.42258 0
M  V30 4382 H 394.858 2.62126 -7.34105 0
M  V30 4383 N 399.087 1.5561 -0.249682 0
M  V30 4384 C 400.336 1.98187 0.37479 0
M  V30 4385 C 400.649 1.14111 1.58865 0
M  V30 4386 O 401.855 1.46714 2.28445 0
M  V30 4387 C 400.311 3.52661 0.718192 0
M  V30 4388 C 399.919 4.45481 -0.474428 0
M  V30 4389 C 401.663 4.03888 1.3067 0
M  V30 4390 C 399.57 5.91303 -0.107026 0
M  V30 4391 H 398.5 0.740159 0.143808 0
M  V30 4392 H 401.151 1.80125 -0.350336 0
M  V30 4393 H 399.533 3.66429 1.50152 0
M  V30 4394 H 400.707 4.43473 -1.25172 0
M  V30 4395 H 399.022 4.04751 -0.978052 0
M  V30 4396 H 401.619 5.10358 1.59496 0
M  V30 4397 H 401.962 3.51401 2.23211 0
M  V30 4398 H 402.495 3.93457 0.586211 0
M  V30 4399 H 399.234 6.47833 -0.999642 0
M  V30 4400 H 398.754 5.9644 0.634013 0
M  V30 4401 H 400.433 6.46258 0.309807 0
M  V30 4402 N 400.565 -0.0233959 1.57583 0
M  V30 4403 C 401.814 -0.712133 1.8871 0
M  V30 4404 C 402.127 -1.76217 0.848944 0
M  V30 4405 O 403.333 -2.50389 1.04964 0
M  V30 4406 C 401.789 -1.3177 3.3491 0
M  V30 4407 C 401.397 -0.303715 4.46969 0
M  V30 4408 C 403.141 -1.98598 3.75179 0
M  V30 4409 C 401.048 -0.917945 5.84233 0
M  V30 4410 H 399.978 -0.269735 0.704101 0
M  V30 4411 H 402.629 0.0333114 1.8347 0
M  V30 4412 H 401.011 -2.11304 3.34913 0
M  V30 4413 H 402.185 0.465325 4.58445 0
M  V30 4414 H 400.5 0.2628 4.1557 0
M  V30 4415 H 403.097 -2.45416 4.75053 0
M  V30 4416 H 403.44 -2.80659 3.07468 0
M  V30 4417 H 403.973 -1.25831 3.77374 0
M  V30 4418 H 400.712 -0.136633 6.55358 0
M  V30 4419 H 400.232 -1.65669 5.76467 0
M  V30 4420 H 401.911 -1.4236 6.31144 0
M  V30 4421 N 402.043 -1.548 -0.295768 0
M  V30 4422 C 403.29 -1.74329 -1.03032 0
M  V30 4423 C 403.618 -0.531915 -1.87085 0
M  V30 4424 O 402.873 0.486052 -1.89568 0
M  V30 4425 C 403.172 -2.98797 -1.961 0
M  V30 4426 C 402.838 -4.32356 -1.2798 0
M  V30 4427 C 401.5 -4.68661 -1.09135 0
M  V30 4428 C 403.852 -5.15128 -0.793243 0
M  V30 4429 C 401.18 -5.85312 -0.403269 0
M  V30 4430 C 403.532 -6.32488 -0.118854 0
M  V30 4431 C 402.196 -6.6745 0.0815043 0
M  V30 4432 H 401.466 -0.637916 -0.37702 0
M  V30 4433 H 404.113 -1.8906 -0.304696 0
M  V30 4434 H 402.418 -2.78869 -2.75207 0
M  V30 4435 H 404.115 -3.11102 -2.53015 0
M  V30 4436 H 400.705 -4.03808 -1.43655 0
M  V30 4437 H 404.889 -4.87575 -0.92653 0
M  V30 4438 H 400.145 -6.1094 -0.237098 0
M  V30 4439 H 404.319 -6.95892 0.266035 0
M  V30 4440 H 401.946 -7.57695 0.616685 0
M  V30 4441 N 403.521 0.559213 -1.47345 0
M  V30 4442 C 404.767 1.31843 -1.54095 0
M  V30 4443 C 405.1 1.93149 -0.201726 0
M  V30 4444 O 404.375 1.77759 0.789428 0
M  V30 4445 C 404.658 2.43006 -2.65744 0
M  V30 4446 C 404.511 1.86581 -4.09277 0
M  V30 4447 C 405.83 3.44943 -2.73318 0
M  V30 4448 H 402.949 0.478012 -0.560957 0
M  V30 4449 H 405.591 0.625977 -1.79392 0
M  V30 4450 H 403.741 3.02072 -2.44305 0
M  V30 4451 H 405.413 1.31792 -4.42073 0
M  V30 4452 H 403.656 1.17268 -4.17649 0
M  V30 4453 H 404.327 2.66933 -4.83168 0
M  V30 4454 H 406.803 2.95793 -2.92653 0
M  V30 4455 H 405.679 4.20153 -3.53218 0
M  V30 4456 H 405.94 4.03665 -1.80296 0
M  V30 4457 N 404.999 1.35443 0.805782 0
M  V30 4458 C 406.248 1.28097 1.55801 0
M  V30 4459 C 406.561 -0.142428 1.95081 0
M  V30 4460 O 407.767 -0.33817 2.69386 0
M  V30 4461 C 406.223 2.24653 2.81174 0
M  V30 4462 C 405.831 3.72342 2.49129 0
M  V30 4463 C 407.575 2.2625 3.59181 0
M  V30 4464 C 405.482 4.60719 3.70799 0
M  V30 4465 H 404.412 0.475937 0.584808 0
M  V30 4466 H 407.063 1.60712 0.885661 0
M  V30 4467 H 405.445 1.85011 3.50124 0
M  V30 4468 H 406.619 4.20624 1.88181 0
M  V30 4469 H 404.934 3.73361 1.84366 0
M  V30 4470 H 407.531 2.89495 4.49552 0
M  V30 4471 H 407.874 1.26647 3.96568 0
M  V30 4472 H 408.407 2.64426 2.97193 0
M  V30 4473 H 405.146 5.61324 3.3852 0
M  V30 4474 H 404.666 4.17163 4.3097 0
M  V30 4475 H 406.345 4.76182 4.38018 0
M  V30 4476 N 406.477 -1.02803 1.19454 0
M  V30 4477 C 407.717 -1.77769 1.00883 0
M  V30 4478 C 408.081 -1.86596 -0.45233 0
M  V30 4479 O 409.282 -2.57895 -0.757877 0
M  V30 4480 C 407.553 -3.16486 1.66046 0
M  V30 4481 S 409.112 -4.07632 1.62424 0
M  V30 4482 H 405.93 -0.611949 0.361993 0
M  V30 4483 H 408.532 -1.23175 1.51816 0
M  V30 4484 H 407.236 -3.0768 2.7159 0
M  V30 4485 H 406.767 -3.76156 1.15196 0
M  V30 4486 H 408.782 -4.91937 0.64903 0
M  V30 4487 N 407.956 -0.998596 -1.21925 0
M  V30 4488 C 409.202 -0.678667 -1.91107 0
M  V30 4489 C 409.535 0.78791 -1.77498 0
M  V30 4490 O 408.81 1.57043 -1.1475 0
M  V30 4491 C 409.093 -1.09245 -3.43129 0
M  V30 4492 C 408.946 -2.61801 -3.6576 0
M  V30 4493 C 410.265 -0.649984 -4.35274 0
M  V30 4494 H 407.384 -0.248025 -0.694012 0
M  V30 4495 H 410.026 -1.24314 -1.43688 0
M  V30 4496 H 408.176 -0.612171 -3.83647 0
M  V30 4497 H 409.848 -3.17543 -3.34611 0
M  V30 4498 H 408.091 -3.03609 -3.09845 0
M  V30 4499 H 408.762 -2.85804 -4.7225 0
M  V30 4500 H 411.238 -1.0626 -4.02303 0
M  V30 4501 H 410.114 -0.967743 -5.40302 0
M  V30 4502 H 410.375 0.449139 -4.39813 0
M  V30 4503 N 409.434 1.37368 -0.772513 0
M  V30 4504 C 410.662 2.03942 -0.348588 0
M  V30 4505 C 411.077 1.58264 1.02947 0
M  V30 4506 O 410.434 0.764246 1.65727 0
M  V30 4507 C 410.485 3.5946 -0.38351 0
M  V30 4508 O 410.206 4.03468 -1.70721 0
M  V30 4509 C 411.707 4.4327 0.0519152 0
M  V30 4510 H 408.927 0.654931 -0.145966 0
M  V30 4511 H 411.471 1.75686 -1.04665 0
M  V30 4512 H 409.626 3.86486 0.265978 0
M  V30 4513 H 410.04 4.97991 -1.64636 0
M  V30 4514 H 411.514 5.51995 -0.0236733 0
M  V30 4515 H 411.991 4.2514 1.10238 0
M  V30 4516 H 412.597 4.21471 -0.569415 0
M  V30 4517 N 410.912 0.523116 1.48665 0
M  V30 4518 C 412.158 -0.0134963 2.02796 0
M  V30 4519 C 412.491 -1.34582 1.40004 0
M  V30 4520 O 411.766 -1.86756 0.543381 0
M  V30 4521 C 412.049 -0.14276 3.59817 0
M  V30 4522 C 411.902 1.21425 4.331 0
M  V30 4523 C 413.221 -0.872856 4.31357 0
M  V30 4524 H 410.34 -0.00343074 0.736992 0
M  V30 4525 H 412.982 0.678816 1.7746 0
M  V30 4526 H 411.132 -0.732401 3.81534 0
M  V30 4527 H 412.804 1.84447 4.2282 0
M  V30 4528 H 411.047 1.79791 3.94788 0
M  V30 4529 H 411.718 1.07687 5.41394 0
M  V30 4530 H 414.194 -0.372555 4.14429 0
M  V30 4531 H 413.07 -0.932185 5.40927 0
M  V30 4532 H 413.331 -1.92161 3.98154 0
M  V30 4533 N 412.39 -1.55475 0.257931 0
M  V30 4534 C 413.636 -2.00237 -0.357338 0
M  V30 4535 C 413.991 -1.14313 -1.54759 0
M  V30 4536 O 413.284 -0.201187 -1.90541 0
M  V30 4537 C 413.478 -3.48183 -0.806433 0
M  V30 4538 C 413.307 -4.48422 0.338758 0
M  V30 4539 C 412.077 -4.98651 0.817011 0
M  V30 4540 C 414.275 -5.00827 1.16949 0
M  V30 4541 N 412.257 -5.82658 1.93346 0
M  V30 4542 C 413.628 -5.82113 2.13413 0
M  V30 4543 C 415.683 -4.83104 1.2048 0
M  V30 4544 C 414.386 -6.47566 3.13131 0
M  V30 4545 C 416.412 -5.49343 2.19034 0
M  V30 4546 C 415.774 -6.30427 3.14232 0
M  V30 4547 H 411.873 -0.776034 -0.0964083 0
M  V30 4548 H 414.457 -1.90995 0.37803 0
M  V30 4549 H 412.628 -3.57801 -1.51107 0
M  V30 4550 H 414.36 -3.79802 -1.39758 0
M  V30 4551 H 411.115 -4.71914 0.39925 0
M  V30 4552 H 411.539 -6.29356 2.49478 0
M  V30 4553 H 416.181 -4.20036 0.482634 0
M  V30 4554 H 413.899 -7.09793 3.8629 0
M  V30 4555 H 417.485 -5.37579 2.22485 0
M  V30 4556 H 416.365 -6.80777 3.89246 0
M  V30 4557 N 413.868 0.0150385 -1.57593 0
M  V30 4558 C 415.117 0.702115 -1.89085 0
M  V30 4559 C 415.43 1.75764 -0.858277 0
M  V30 4560 O 416.636 2.49829 -1.0629 0
M  V30 4561 C 415.092 1.29992 -3.35604 0
M  V30 4562 C 414.7 0.280007 -4.47124 0
M  V30 4563 C 416.444 1.96606 -3.76227 0
M  V30 4564 C 414.351 0.886949 -5.84711 0
M  V30 4565 H 413.281 0.265997 -0.705522 0
M  V30 4566 H 415.932 -0.0430408 -1.8345 0
M  V30 4567 H 414.314 2.09525 -3.36029 0
M  V30 4568 H 415.488 -0.489631 -4.58191 0
M  V30 4569 H 413.803 -0.284835 -4.15425 0
M  V30 4570 H 416.4 2.42893 -4.76347 0
M  V30 4571 H 416.743 2.79024 -3.08952 0
M  V30 4572 H 417.276 1.23828 -3.78036 0
M  V30 4573 H 414.015 0.101876 -6.55421 0
M  V30 4574 H 413.535 1.6261 -5.77337 0
M  V30 4575 H 415.214 1.39011 -6.3189 0
M  V30 4576 N 415.346 1.54954 0.287554 0
M  V30 4577 C 416.595 1.74081 1.01877 0
M  V30 4578 C 416.908 0.541135 1.87966 0
M  V30 4579 O 418.114 0.614491 2.64455 0
M  V30 4580 C 416.57 3.08042 1.86113 0
M  V30 4581 C 416.178 4.35531 1.04961 0
M  V30 4582 C 417.922 3.36523 2.58752 0
M  V30 4583 C 415.829 5.60538 1.88551 0
M  V30 4584 H 414.759 0.64884 0.384087 0
M  V30 4585 H 417.41 1.81426 0.275101 0
M  V30 4586 H 415.792 2.94696 2.64519 0
M  V30 4587 H 416.966 4.59751 0.31074 0
M  V30 4588 H 415.281 4.14085 0.43843 0
M  V30 4589 H 417.878 4.27122 3.21668 0
M  V30 4590 H 418.221 2.56 3.28283 0
M  V30 4591 H 418.754 3.50901 1.87386 0
M  V30 4592 H 415.493 6.43767 1.23466 0
M  V30 4593 H 415.013 5.40483 2.60074 0
M  V30 4594 H 416.692 5.98297 2.46273 0
M  V30 4595 N 416.824 -0.551391 1.4764 0
M  V30 4596 C 417.772 -1.67896 1.60978 0
M  V30 4597 C 418.766 -1.62549 0.476877 0
M  V30 4598 O 419.972 -1.67664 0.654878 0
M  V30 4599 H 416.347 -0.555649 0.506713 0
M  V30 4600 H 418.318 -1.53784 2.55721 0
M  V30 4601 C 417.067 -3.06234 1.64669 0
M  V30 4602 H 416.39 -3.11033 2.51194 0
M  V30 4603 H 417.83 -3.84804 1.7805 0
M  V30 4604 C 416.289 -3.34737 0.381115 0
M  V30 4605 O 416.819 -3.98381 -0.515297 0
M  V30 4606 N 415.025 -2.8944 0.259354 0
M  V30 4607 H 414.572 -2.37827 0.98976 0
M  V30 4608 H 414.53 -3.08882 -0.586464 0
M  V30 4609 N 418.302 -1.35869 -0.798587 0
M  V30 4610 C 419.549 -1.29588 -1.55606 0
M  V30 4611 C 419.877 0.127456 -1.94082 0
M  V30 4612 O 419.132 1.09461 -1.62225 0
M  V30 4613 C 419.431 -2.1556 -2.85077 0
M  V30 4614 C 419.097 -3.6424 -2.65781 0
M  V30 4615 C 417.759 -4.04766 -2.60227 0
M  V30 4616 C 420.111 -4.58547 -2.47758 0
M  V30 4617 C 417.439 -5.37753 -2.34603 0
M  V30 4618 C 419.791 -5.91742 -2.23662 0
M  V30 4619 C 418.455 -6.31402 -2.16534 0
M  V30 4620 H 417.725 -0.474197 -0.569402 0
M  V30 4621 H 420.372 -1.67839 -0.922086 0
M  V30 4622 H 418.677 -1.70216 -3.52893 0
M  V30 4623 H 420.374 -2.08031 -3.42818 0
M  V30 4624 H 416.964 -3.32086 -2.70956 0
M  V30 4625 H 421.148 -4.28117 -2.51056 0
M  V30 4626 H 416.404 -5.67474 -2.2756 0
M  V30 4627 H 420.578 -6.6439 -2.08708 0
M  V30 4628 H 418.205 -7.34381 -1.96441 0
M  V30 4629 N 419.78 1.02168 -1.19998 0
M  V30 4630 C 420.727 2.10601 -0.944228 0
M  V30 4631 C 421.697 1.65639 0.123664 0
M  V30 4632 O 422.882 1.9079 -0.0199941 0
M  V30 4633 C 420.022 3.41504 -0.496865 0
M  V30 4634 C 419.135 3.99973 -1.63234 0
M  V30 4635 C 418.27 5.18915 -1.13579 0
M  V30 4636 C 417.309 5.69456 -2.24468 0
M  V30 4637 N 416.446 6.79665 -1.76068 0
M  V30 4638 H 421.286 2.31814 -1.8726 0
M  V30 4639 H 418.823 1.13686 -0.933483 0
M  V30 4640 H 420.781 4.16626 -0.218843 0
M  V30 4641 H 419.411 3.2038 0.394508 0
M  V30 4642 H 418.463 3.21997 -2.0254 0
M  V30 4643 H 419.775 4.33492 -2.46752 0
M  V30 4644 H 418.929 6.01222 -0.813429 0
M  V30 4645 H 417.668 4.8695 -0.270434 0
M  V30 4646 H 416.673 4.85757 -2.57526 0
M  V30 4647 H 417.898 6.03459 -3.11472 0
M  V30 4648 H 415.844 6.49538 -0.918516 0
M  V30 4649 H 415.761 7.12349 -2.5317 0
M  V30 4650 H 417.029 7.65549 -1.46817 0
M  V30 4651 N 421.258 1.00505 1.21394 0
M  V30 4652 C 422.208 0.536503 2.21598 0
M  V30 4653 C 423.192 -0.401914 1.55799 0
M  V30 4654 O 424.384 -0.226757 1.75541 0
M  V30 4655 C 421.513 -0.135446 3.43033 0
M  V30 4656 C 420.599 0.823992 4.16018 0
M  V30 4657 N 420.99 1.97683 4.6557 0
M  V30 4658 C 419.288 0.642387 4.4135 0
M  V30 4659 C 419.989 2.58003 5.21354 0
M  V30 4660 N 418.965 1.86162 5.1073 0
M  V30 4661 H 422.767 1.41557 2.57563 0
M  V30 4662 H 420.281 0.868878 1.37202 0
M  V30 4663 H 422.278 -0.488584 4.14027 0
M  V30 4664 H 420.938 -1.01049 3.08576 0
M  V30 4665 H 421.949 2.3572 4.61147 0
M  V30 4666 H 418.626 -0.185578 4.17087 0
M  V30 4667 H 420.016 3.555 5.70149 0
M  V30 4668 N 422.737 -1.36956 0.779787 0
M  V30 4669 C 423.984 -1.99491 0.347766 0
M  V30 4670 C 424.312 -1.61898 -1.07793 0
M  V30 4671 O 423.567 -0.86071 -1.75756 0
M  V30 4672 C 423.866 -3.54585 0.447686 0
M  V30 4673 C 423.532 -4.1197 1.83279 0
M  V30 4674 C 422.194 -4.27356 2.2118 0
M  V30 4675 C 424.546 -4.43354 2.74019 0
M  V30 4676 C 421.874 -4.71432 3.4924 0
M  V30 4677 C 424.226 -4.88858 4.01497 0
M  V30 4678 C 422.89 -5.0245 4.39432 0
M  V30 4679 H 422.16 -0.729991 0.127257 0
M  V30 4680 H 424.807 -1.63599 0.995376 0
M  V30 4681 H 423.112 -3.90773 -0.283447 0
M  V30 4682 H 424.809 -4.00888 0.0945948 0
M  V30 4683 H 421.399 -4.00428 1.52825 0
M  V30 4684 H 425.583 -4.31045 2.45995 0
M  V30 4685 H 420.839 -4.80141 3.78516 0
M  V30 4686 H 425.013 -5.12108 4.71931 0
M  V30 4687 H 422.64 -5.36362 5.38721 0
M  V30 4688 N 424.215 -0.530993 -1.48385 0
M  V30 4689 C 425.44 0.000729535 -2.074 0
M  V30 4690 C 425.865 1.27298 -1.3848 0
M  V30 4691 O 425.223 1.75599 -0.451081 0
M  V30 4692 C 425.271 0.206697 -3.60007 0
M  V30 4693 O 424.375 1.27514 -3.92191 0
M  V30 4694 H 423.716 -0.039583 -0.662819 0
M  V30 4695 H 426.246 -0.739194 -1.9078 0
M  V30 4696 H 426.256 0.42904 -4.05738 0
M  V30 4697 H 424.931 -0.722675 -4.09573 0
M  V30 4698 H 423.508 1.03537 -3.58238 0
M  V30 4699 N 425.693 1.55336 -0.266172 0
M  V30 4700 C 426.97 1.91372 0.404486 0
M  V30 4701 C 427.35 1.18935 1.74407 0
M  V30 4702 O 426.698 0.3132 2.26343 0
M  V30 4703 C 426.908 3.44581 0.553593 0
M  V30 4704 C 428.256 4.16196 0.840618 0
M  V30 4705 O 429.28 3.50426 0.638739 0
M  V30 4706 O 428.139 5.32567 1.22618 0
M  V30 4707 H 425.233 0.797194 0.220025 0
M  V30 4708 H 427.779 1.66813 -0.311664 0
M  V30 4709 H 426.551 3.89357 -0.389498 0
M  V30 4710 H 426.174 3.75065 1.31955 0
M  V30 4711 N 427.171 -0.0066808 1.57599 0
M  V30 4712 C 428.582 -0.550379 1.78403 0
M  V30 4713 C 428.933 -1.74339 0.900014 0
M  V30 4714 O 428.058 -2.16166 0.100713 0
M  V30 4715 C 428.653 -1.00523 3.23544 0
M  V30 4716 C 427.212 -1.49428 3.45468 0
M  V30 4717 C 426.359 -0.442444 2.73748 0
M  V30 4718 H 429.31 0.219508 1.57175 0
M  V30 4719 H 429.331 -1.87157 3.31289 0
M  V30 4720 H 428.843 -0.136735 3.87859 0
M  V30 4721 H 426.944 -2.3839 2.86358 0
M  V30 4722 H 427.057 -1.52635 4.54136 0
M  V30 4723 H 425.421 -0.902578 2.38171 0
M  V30 4724 H 426.204 0.416973 3.40758 0
M  V30 4725 N 428.649 -1.55105 -0.279332 0
M  V30 4726 C 429.898 -1.74618 -1.00952 0
M  V30 4727 C 430.211 -0.551096 -1.87676 0
M  V30 4728 O 431.417 -0.628507 -2.64125 0
M  V30 4729 C 429.873 -3.09025 -1.84476 0
M  V30 4730 C 429.481 -4.36081 -1.0265 0
M  V30 4731 C 431.225 -3.37891 -2.56963 0
M  V30 4732 C 429.132 -5.6153 -1.85576 0
M  V30 4733 H 428.062 -0.650868 -0.38064 0
M  V30 4734 H 430.713 -1.81569 -0.265475 0
M  V30 4735 H 429.095 -2.96095 -2.62952 0
M  V30 4736 H 430.269 -4.59909 -0.286354 0
M  V30 4737 H 428.584 -4.14312 -0.416464 0
M  V30 4738 H 431.181 -4.28822 -3.19399 0
M  V30 4739 H 431.524 -2.57737 -3.26921 0
M  V30 4740 H 432.057 -3.5189 -1.85522 0
M  V30 4741 H 428.796 -6.44413 -1.2005 0
M  V30 4742 H 428.316 -5.41854 -2.57204 0
M  V30 4743 H 429.995 -5.99594 -2.43096 0
M  V30 4744 N 430.127 0.543554 -1.4793 0
M  V30 4745 C 431.077 1.64527 -1.57844 0
M  V30 4746 C 432.061 1.54869 -0.436408 0
M  V30 4747 O 433.253 1.63119 -0.687101 0
M  V30 4748 C 430.382 3.03281 -1.6086 0
M  V30 4749 C 429.468 3.18093 -2.80495 0
M  V30 4750 N 429.859 3.02923 -4.05057 0
M  V30 4751 C 428.157 3.49121 -2.77543 0
M  V30 4752 C 428.858 3.20791 -4.85251 0
M  V30 4753 N 427.834 3.47749 -4.17818 0
M  V30 4754 H 431.636 1.51388 -2.5191 0
M  V30 4755 H 429.15 0.748671 -1.44113 0
M  V30 4756 H 431.147 3.82403 -1.66054 0
M  V30 4757 H 429.807 3.17521 -0.678996 0
M  V30 4758 H 430.818 2.79966 -4.35705 0
M  V30 4759 H 427.495 3.69804 -1.93781 0
M  V30 4760 H 428.885 3.13915 -5.9406 0
M  V30 4761 N 431.605 1.3629 0.791371 0
M  V30 4762 C 432.853 1.30154 1.5461 0
M  V30 4763 C 433.174 -0.119409 1.94634 0
M  V30 4764 O 432.444 -1.05924 1.64794 0
M  V30 4765 H 431.024 0.478784 0.573389 0
M  V30 4766 H 433.686 1.70565 0.94306 0
M  V30 4767 H 432.782 1.92762 2.45457 0
M  V30 4768 N 433.083 -1.0153 1.20538 0
M  V30 4769 C 434.308 -1.79283 1.04271 0
M  V30 4770 C 434.733 -1.8372 -0.403544 0
M  V30 4771 O 434.091 -1.27321 -1.2907 0
M  V30 4772 C 434.139 -3.21535 1.63241 0
M  V30 4773 O 433.243 -4.03099 0.870908 0
M  V30 4774 H 432.584 -0.55293 0.367647 0
M  V30 4775 H 435.114 -1.27696 1.59859 0
M  V30 4776 H 435.124 -3.72243 1.6703 0
M  V30 4777 H 433.799 -3.1762 2.68497 0
M  V30 4778 H 432.376 -3.61693 0.907323 0
M  V30 4779 N 434.561 -1.01147 -1.20859 0
M  V30 4780 C 435.808 -0.697865 -1.90095 0
M  V30 4781 C 436.136 0.772014 -1.78522 0
M  V30 4782 O 435.391 1.57595 -1.16027 0
M  V30 4783 C 435.69 -1.0727 -3.40922 0
M  V30 4784 C 435.356 -2.53792 -3.72693 0
M  V30 4785 C 434.018 -2.93829 -3.81075 0
M  V30 4786 C 436.37 -3.48674 -3.87397 0
M  V30 4787 C 433.698 -4.27696 -4.01613 0
M  V30 4788 C 436.05 -4.82223 -4.09444 0
M  V30 4789 C 434.714 -5.21973 -4.16054 0
M  V30 4790 H 433.984 -0.255367 -0.695607 0
M  V30 4791 H 436.631 -1.27111 -1.43231 0
M  V30 4792 H 434.936 -0.417799 -3.89566 0
M  V30 4793 H 436.633 -0.807818 -3.92779 0
M  V30 4794 H 433.223 -2.21768 -3.66765 0
M  V30 4795 H 437.407 -3.18904 -3.80281 0
M  V30 4796 H 432.663 -4.58055 -4.04964 0
M  V30 4797 H 436.837 -5.55672 -4.19763 0
M  V30 4798 H 434.464 -6.25717 -4.31721 0
M  V30 4799 N 436.039 1.36541 -0.78704 0
M  V30 4800 C 436.969 2.32659 -0.197992 0
M  V30 4801 C 437.95 1.56533 0.665697 0
M  V30 4802 O 439.135 1.84698 0.60001 0
M  V30 4803 C 436.265 3.40778 0.669901 0
M  V30 4804 C 435.219 4.27897 -0.0937039 0
M  V30 4805 C 434.545 5.27163 0.894629 0
M  V30 4806 C 435.845 5.06334 -1.28154 0
M  V30 4807 H 437.539 2.82171 -1.00099 0
M  V30 4808 H 435.085 1.35665 -0.482793 0
M  V30 4809 H 437.038 4.07008 1.09191 0
M  V30 4810 H 435.762 2.89827 1.50558 0
M  V30 4811 H 434.421 3.6322 -0.49666 0
M  V30 4812 H 434.069 4.72486 1.72527 0
M  V30 4813 H 433.769 5.86317 0.388149 0
M  V30 4814 H 435.293 5.96266 1.31525 0
M  V30 4815 H 436.707 5.65617 -0.93541 0
M  V30 4816 H 435.104 5.74888 -1.72115 0
M  V30 4817 H 436.174 4.38114 -2.07807 0
M  V30 4818 N 437.518 0.538854 1.48102 0
M  V30 4819 C 438.748 0.0122958 2.06596 0
M  V30 4820 C 439.156 -1.27861 1.39457 0
M  V30 4821 O 438.499 -1.77348 0.478907 0
M  V30 4822 C 438.561 -0.273131 3.58461 0
M  V30 4823 C 438.225 0.92561 4.47528 0
M  V30 4824 C 439.222 1.82637 4.86765 0
M  V30 4825 C 436.907 1.13511 4.89306 0
M  V30 4826 C 438.901 2.92047 5.66558 0
M  V30 4827 C 436.588 2.23233 5.68868 0
M  V30 4828 C 437.586 3.12333 6.07402 0
M  V30 4829 O 437.274 4.20155 6.85365 0
M  V30 4830 H 437.006 0.0344283 0.675123 0
M  V30 4831 H 439.56 0.746494 1.91355 0
M  V30 4832 H 437.79 -1.06141 3.71848 0
M  V30 4833 H 439.479 -0.742842 3.99045 0
M  V30 4834 H 440.245 1.67649 4.55103 0
M  V30 4835 H 436.124 0.450835 4.5879 0
M  V30 4836 H 439.668 3.6162 5.96554 0
M  V30 4837 H 435.565 2.38201 5.99942 0
M  V30 4838 H 436.333 4.17975 7.03732 0
M  V30 4839 N 438.996 -1.55193 0.274407 0
M  V30 4840 C 440.244 -1.99187 -0.341902 0
M  V30 4841 C 440.565 -1.16422 -1.56431 0
M  V30 4842 O 439.835 -0.253573 -1.94252 0
M  V30 4843 H 438.415 -0.735721 -0.129317 0
M  V30 4844 H 441.077 -1.91168 0.379578 0
M  V30 4845 H 440.173 -3.05629 -0.632253 0
M  V30 4846 N 440.474 -0.00167713 -1.576 0
M  V30 4847 C 441.714 0.687302 -1.92498 0
M  V30 4848 C 442.078 1.70844 -0.876144 0
M  V30 4849 O 443.279 2.44792 -1.11043 0
M  V30 4850 C 441.55 1.31217 -3.32441 0
M  V30 4851 S 443.109 2.02604 -3.89226 0
M  V30 4852 H 439.927 0.226985 -0.673794 0
M  V30 4853 H 442.529 -0.0587666 -1.95412 0
M  V30 4854 H 441.233 0.556164 -4.06614 0
M  V30 4855 H 440.764 2.09613 -3.32905 0
M  V30 4856 H 442.779 3.30137 -3.70438 0
M  V30 4857 N 441.952 1.55251 0.271103 0
M  V30 4858 C 442.882 1.9127 1.33933 0
M  V30 4859 C 443.863 0.77478 1.5143 0
M  V30 4860 O 445.048 1.03307 1.64442 0
M  V30 4861 C 442.178 2.18627 2.69851 0
M  V30 4862 C 441.132 3.34442 2.67081 0
M  V30 4863 C 440.458 3.47284 4.06569 0
M  V30 4864 C 441.758 4.70784 2.26185 0
M  V30 4865 H 443.452 2.80744 1.04035 0
M  V30 4866 H 440.998 1.35077 0.499017 0
M  V30 4867 H 442.951 2.42413 3.44694 0
M  V30 4868 H 441.675 1.25955 3.01335 0
M  V30 4869 H 440.334 3.10627 1.94695 0
M  V30 4870 H 439.982 2.52074 4.35279 0
M  V30 4871 H 439.682 4.25152 4.0561 0
M  V30 4872 H 441.206 3.73363 4.83148 0
M  V30 4873 H 442.62 4.94102 2.90751 0
M  V30 4874 H 441.017 5.51582 2.36384 0
M  V30 4875 H 442.087 4.69478 1.21319 0
M  V30 4876 N 443.43 -0.535701 1.48216 0
M  V30 4877 C 444.66 -1.3148 1.59363 0
M  V30 4878 C 445.068 -1.8753 0.250844 0
M  V30 4879 O 444.411 -1.66821 -0.769174 0
M  V30 4880 C 444.473 -2.50731 2.57632 0
M  V30 4881 C 444.137 -2.15811 4.02833 0
M  V30 4882 C 445.134 -1.71822 4.90686 0
M  V30 4883 C 442.819 -2.26509 4.48329 0
M  V30 4884 C 444.813 -1.3899 6.22062 0
M  V30 4885 C 442.5 -1.93289 5.79726 0
M  V30 4886 C 443.498 -1.49599 6.66415 0
M  V30 4887 O 443.186 -1.16812 7.95368 0
M  V30 4888 H 442.918 -0.406315 0.540263 0
M  V30 4889 H 445.472 -0.653569 1.94725 0
M  V30 4890 H 443.702 -3.19817 2.1738 0
M  V30 4891 H 445.391 -3.12797 2.58675 0
M  V30 4892 H 446.157 -1.63031 4.56778 0
M  V30 4893 H 442.036 -2.59471 3.81045 0
M  V30 4894 H 445.58 -1.04816 6.89681 0
M  V30 4895 H 441.477 -2.01718 6.13172 0
M  V30 4896 H 442.245 -1.30259 8.08069 0
M  V30 4897 N 444.908 -1.36708 -0.784132 0
M  V30 4898 C 446.138 -1.34203 -1.57077 0
M  V30 4899 C 446.546 0.0774945 -1.89041 0
M  V30 4900 O 445.889 1.04628 -1.50992 0
M  V30 4901 C 445.951 -2.10351 -2.91535 0
M  V30 4902 C 445.615 -3.59405 -2.82272 0
M  V30 4903 C 446.612 -4.53545 -2.54151 0
M  V30 4904 C 444.297 -4.02362 -3.00683 0
M  V30 4905 C 446.291 -5.8862 -2.44551 0
M  V30 4906 C 443.978 -5.37526 -2.90704 0
M  V30 4907 C 444.976 -6.30468 -2.62677 0
M  V30 4908 O 444.664 -7.63149 -2.52702 0
M  V30 4909 H 444.396 -0.461791 -0.493685 0
M  V30 4910 H 446.95 -1.80475 -0.980712 0
M  V30 4911 H 445.18 -1.5875 -3.52612 0
M  V30 4912 H 446.869 -2.00636 -3.52845 0
M  V30 4913 H 447.635 -4.21669 -2.39625 0
M  V30 4914 H 443.514 -3.30389 -3.21503 0
M  V30 4915 H 447.058 -6.61133 -2.22596 0
M  V30 4916 H 442.955 -5.69008 -3.04795 0
M  V30 4917 H 443.723 -7.73331 -2.68144 0
M  V30 4918 N 446.386 1.0089 -1.21074 0
M  V30 4919 C 447.633 1.74607 -1.0256 0
M  V30 4920 C 447.961 1.89426 0.44136 0
M  V30 4921 O 447.216 1.42266 1.34384 0
M  V30 4922 C 447.515 3.16335 -1.66334 0
M  V30 4923 C 447.181 3.21474 -3.16173 0
M  V30 4924 C 445.843 3.22583 -3.57062 0
M  V30 4925 C 448.195 3.19025 -4.12156 0
M  V30 4926 C 445.523 3.18925 -4.92446 0
M  V30 4927 C 447.875 3.16909 -5.47496 0
M  V30 4928 C 446.539 3.16326 -5.87787 0
M  V30 4929 H 445.809 0.638933 -0.375294 0
M  V30 4930 H 448.456 1.18274 -1.50611 0
M  V30 4931 H 446.761 3.75876 -1.10566 0
M  V30 4932 H 448.458 3.72083 -1.49516 0
M  V30 4933 H 445.048 3.2135 -2.83605 0
M  V30 4934 H 449.232 3.17332 -3.81595 0
M  V30 4935 H 444.488 3.16809 -5.22917 0
M  V30 4936 H 448.662 3.13968 -6.21609 0
M  V30 4937 H 446.289 3.13246 -6.92662 0
M  V30 4938 N 447.864 1.01787 1.20321 0
M  V30 4939 C 448.811 0.589197 2.23153 0
M  V30 4940 C 449.781 -0.391367 1.61423 0
M  V30 4941 O 450.966 -0.290518 1.88575 0
M  V30 4942 C 448.106 -0.0650747 3.45039 0
M  V30 4943 C 447.219 0.960207 4.21194 0
M  V30 4944 C 446.354 0.276854 5.30478 0
M  V30 4945 C 445.393 1.2888 5.98378 0
M  V30 4946 N 444.53 0.632031 6.99249 0
M  V30 4947 H 449.37 1.47071 2.59179 0
M  V30 4948 H 446.907 0.736192 1.27352 0
M  V30 4949 H 448.865 -0.461552 4.14639 0
M  V30 4950 H 447.495 -0.910233 3.09701 0
M  V30 4951 H 446.547 1.47484 3.50646 0
M  V30 4952 H 447.859 1.72977 4.67847 0
M  V30 4953 H 447.013 -0.175056 6.06447 0
M  V30 4954 H 445.752 -0.525004 4.84866 0
M  V30 4955 H 444.757 1.75109 5.21169 0
M  V30 4956 H 445.982 2.09196 6.46076 0
M  V30 4957 H 443.928 -0.149935 6.55829 0
M  V30 4958 H 443.845 1.33964 7.44036 0
M  V30 4959 H 445.113 0.203755 7.79234 0
M  V30 4960 N 449.342 -1.36122 0.79427 0
M  V30 4961 C 450.591 -1.98361 0.365464 0
M  V30 4962 C 450.904 -1.6374 -1.06997 0
M  V30 4963 O 452.11 -2.19251 -1.60129 0
M  V30 4964 C 450.566 -3.54821 0.602496 0
M  V30 4965 C 450.174 -3.98362 2.04967 0
M  V30 4966 C 451.918 -4.2383 0.238437 0
M  V30 4967 C 449.825 -5.47619 2.2331 0
M  V30 4968 H 448.755 -0.742193 0.13291 0
M  V30 4969 H 451.406 -1.55354 0.976589 0
M  V30 4970 H 449.788 -3.95922 -0.078409 0
M  V30 4971 H 450.962 -3.68447 2.76737 0
M  V30 4972 H 449.277 -3.42206 2.37243 0
M  V30 4973 H 451.874 -5.33529 0.353705 0
M  V30 4974 H 452.217 -4.08264 -0.814006 0
M  V30 4975 H 452.75 -3.88108 0.872769 0
M  V30 4976 H 449.489 -5.68138 3.26955 0
M  V30 4977 H 449.009 -5.79145 1.5605 0
M  V30 4978 H 450.688 -6.13911 2.0426 0
M  V30 4979 N 450.82 -0.546701 -1.47814 0
M  V30 4980 C 452.045 -0.021268 -2.07389 0
M  V30 4981 C 452.47 1.25822 -1.39822 0
M  V30 4982 O 451.828 1.75111 -0.46968 0
M  V30 4983 C 451.876 0.168502 -3.60206 0
M  V30 4984 O 450.98 1.23347 -3.93522 0
M  V30 4985 H 450.321 -0.0466108 -0.662362 0
M  V30 4986 H 452.851 -0.759387 -1.89985 0
M  V30 4987 H 452.861 0.385982 -4.0617 0
M  V30 4988 H 451.536 -0.766075 -4.08784 0
M  V30 4989 H 450.113 0.997319 -3.59316 0
M  V30 4990 N 452.299 1.55045 -0.282633 0
M  V30 4991 C 453.545 2.00056 0.332481 0
M  V30 4992 C 453.878 1.1708 1.54939 0
M  V30 4993 O 453.153 0.2427 1.9298 0
M  V30 4994 C 453.436 3.53086 0.70725 0
M  V30 4995 C 453.289 4.46813 -0.517521 0
M  V30 4996 C 454.608 4.12245 1.54084 0
M  V30 4997 H 451.727 0.727268 0.119373 0
M  V30 4998 H 454.369 1.85932 -0.391076 0
M  V30 4999 H 452.519 3.65253 1.32372 0
M  V30 5000 H 454.191 4.46579 -1.15607 0
M  V30 5001 H 452.434 4.18163 -1.1542 0
M  V30 5002 H 453.105 5.51595 -0.211426 0
M  V30 5003 H 455.581 4.03401 1.02013 0
M  V30 5004 H 454.457 5.19515 1.77186 0
M  V30 5005 H 454.718 3.62951 2.52427 0
M  V30 5006 N 453.777 0.010035 1.57597 0
M  V30 5007 C 454.74 -0.963029 2.07986 0
M  V30 5008 C 455.74 -1.26619 0.991173 0
M  V30 5009 O 456.93 -1.2097 1.25347 0
M  V30 5010 C 454.062 -2.2851 2.52974 0
M  V30 5011 H 455.255 -0.526971 2.95234 0
M  V30 5012 H 452.808 -0.237639 1.54483 0
M  V30 5013 H 453.543 -2.76784 1.69 0
M  V30 5014 H 453.328 -2.07824 3.32493 0
M  V30 5015 H 454.818 -2.98294 2.9225 0
M  V30 5016 N 455.255 -1.55392 -0.262866 0
M  V30 5017 C 456.185 -1.91978 -1.32917 0
M  V30 5018 C 457.166 -0.7828 -1.51017 0
M  V30 5019 O 458.351 -1.04178 -1.63892 0
M  V30 5020 C 455.481 -2.20055 -2.68687 0
M  V30 5021 C 454.435 -3.35854 -2.65304 0
M  V30 5022 C 453.761 -3.49435 -4.04721 0
M  V30 5023 C 455.061 -4.71977 -2.23685 0
M  V30 5024 H 456.755 -2.81292 -1.02544 0
M  V30 5025 H 454.301 -1.3534 -0.491846 0
M  V30 5026 H 456.254 -2.44237 -3.43404 0
M  V30 5027 H 454.978 -1.27551 -3.00663 0
M  V30 5028 H 453.637 -3.11655 -1.93045 0
M  V30 5029 H 453.285 -2.54379 -4.33936 0
M  V30 5030 H 452.985 -4.27297 -4.0335 0
M  V30 5031 H 454.509 -3.7592 -4.81161 0
M  V30 5032 H 455.923 -4.95637 -2.88127 0
M  V30 5033 H 454.32 -5.52828 -2.33456 0
M  V30 5034 H 455.39 -4.70115 -1.18827 0
M  V30 5035 N 456.733 0.527833 -1.48498 0
M  V30 5036 C 457.696 1.61439 -1.62696 0
M  V30 5037 C 458.696 1.52824 -0.500136 0
M  V30 5038 O 459.886 1.56456 -0.765976 0
M  V30 5039 C 457.018 3.01063 -1.59918 0
M  V30 5040 H 458.211 1.50189 -2.59583 0
M  V30 5041 H 455.764 0.750055 -1.37127 0
M  V30 5042 H 456.499 3.17818 -0.645163 0
M  V30 5043 H 456.284 3.08725 -2.41726 0
M  V30 5044 H 457.774 3.80057 -1.73051 0
M  V30 5045 N 458.211 1.37122 0.776871 0
M  V30 5046 C 459.457 1.32243 1.53752 0
M  V30 5047 C 459.79 -0.0944745 1.9397 0
M  V30 5048 O 459.065 -1.05068 1.6368 0
M  V30 5049 C 459.348 2.25681 2.80607 0
M  V30 5050 C 459.201 3.76127 2.46676 0
M  V30 5051 C 460.52 2.17657 3.82509 0
M  V30 5052 H 457.639 0.481704 0.557791 0
M  V30 5053 H 460.281 1.6778 0.891612 0
M  V30 5054 H 458.431 1.95505 3.35723 0
M  V30 5055 H 460.103 4.16877 1.97513 0
M  V30 5056 H 458.346 3.94946 1.79443 0
M  V30 5057 H 459.017 4.36933 3.37333 0
M  V30 5058 H 461.493 2.44245 3.36873 0
M  V30 5059 H 460.369 2.85185 4.69 0
M  V30 5060 H 460.63 1.16785 4.26396 0
M  V30 5061 N 459.689 -1.00246 1.21608 0
M  V30 5062 C 460.652 -2.07233 0.979133 0
M  V30 5063 C 461.652 -1.6072 -0.0508219 0
M  V30 5064 O 462.842 -1.73196 0.186712 0
M  V30 5065 C 459.974 -3.37546 0.477016 0
M  V30 5066 H 461.167 -2.29687 1.92831 0
M  V30 5067 H 458.72 -1.17261 1.03342 0
M  V30 5068 H 459.455 -3.20773 -0.476966 0
M  V30 5069 H 459.24 -3.72638 1.21997 0
M  V30 5070 H 460.73 -4.16285 0.331181 0
M  V30 5071 N 461.167 -1.02423 -1.1978 0
M  V30 5072 C 462.13 -0.605703 -2.21052 0
M  V30 5073 C 463.13 0.328209 -1.57415 0
M  V30 5074 O 464.32 0.115853 -1.73814 0
M  V30 5075 C 461.452 0.114366 -3.40708 0
M  V30 5076 H 462.645 -1.5017 -2.59594 0
M  V30 5077 H 460.198 -0.814888 -1.33376 0
M  V30 5078 H 460.933 1.02492 -3.07678 0
M  V30 5079 H 460.718 -0.556641 -3.88129 0
M  V30 5080 H 462.208 0.394272 -4.15735 0
M  V30 5081 N 462.645 1.35699 -0.801477 0
M  V30 5082 C 463.894 1.98165 -0.375979 0
M  V30 5083 C 464.207 1.64306 1.06127 0
M  V30 5084 O 465.413 2.20097 1.58964 0
M  V30 5085 C 463.869 3.54497 -0.621305 0
M  V30 5086 C 463.477 3.9727 -2.07076 0
M  V30 5087 C 465.221 4.23697 -0.26091 0
M  V30 5088 C 463.128 5.46427 -2.26211 0
M  V30 5089 H 462.058 0.741478 -0.136844 0
M  V30 5090 H 464.709 1.54834 -0.984814 0
M  V30 5091 H 463.091 3.95958 0.0574112 0
M  V30 5092 H 464.265 3.66974 -2.78687 0
M  V30 5093 H 462.58 3.40943 -2.39054 0
M  V30 5094 H 465.177 5.33334 -0.381994 0
M  V30 5095 H 465.52 4.0869 0.792344 0
M  V30 5096 H 466.053 3.87639 -0.893339 0
M  V30 5097 H 462.792 5.66396 -3.29963 0
M  V30 5098 H 462.312 5.78309 -1.59119 0
M  V30 5099 H 463.991 6.12819 -2.07513 0
M  V30 5100 N 464.123 0.554532 1.47522 0
M  V30 5101 C 465.534 0.120446 1.86311 0
M  V30 5102 C 465.885 -1.30904 1.46145 0
M  V30 5103 O 465.01 -1.98434 0.863294 0
M  V30 5104 C 465.605 0.211808 3.38137 0
M  V30 5105 C 464.164 -0.167224 3.76028 0
M  V30 5106 C 463.311 0.560576 2.71575 0
M  V30 5107 H 466.262 0.764408 1.39077 0
M  V30 5108 H 466.283 -0.570275 3.76202 0
M  V30 5109 H 465.795 1.25232 3.6734 0
M  V30 5110 H 463.896 -1.20894 3.52442 0
M  V30 5111 H 464.009 0.189473 4.78725 0
M  V30 5112 H 462.373 0.00396836 2.547 0
M  V30 5113 H 463.156 1.60219 3.0362 0
M  V30 5114 N 465.601 -1.54893 0.290851 0
M  V30 5115 C 466.511 -2.26812 -0.59945 0
M  V30 5116 C 467.527 -1.29963 -1.15696 0
M  V30 5117 O 468.703 -1.62928 -1.18391 0
M  V30 5118 C 465.768 -2.98716 -1.75982 0
M  V30 5119 C 464.829 -4.1108 -1.2374 0
M  V30 5120 C 464.062 -4.79546 -2.34246 0
M  V30 5121 O 464.285 -4.47309 -3.53936 0
M  V30 5122 O 463.219 -5.67165 -2.01512 0
M  V30 5123 H 467.045 -3.03696 -0.0163561 0
M  V30 5124 H 464.63 -1.49289 0.0576755 0
M  V30 5125 H 466.512 -3.43851 -2.43607 0
M  V30 5126 H 465.187 -2.24737 -2.3297 0
M  V30 5127 H 464.094 -3.70367 -0.527163 0
M  V30 5128 H 465.427 -4.87007 -0.71307 0
M  V30 5129 N 467.08 -0.0183926 -1.57589 0
M  V30 5130 C 468.328 0.661253 -1.90976 0
M  V30 5131 C 468.649 1.73281 -0.894353 0
M  V30 5132 O 467.919 1.9579 0.0656788 0
M  V30 5133 H 466.499 0.247233 -0.704901 0
M  V30 5134 H 469.161 -0.0636639 -1.94796 0
M  V30 5135 H 468.257 1.12083 -2.9128 0
M  V30 5136 N 468.558 1.5553 0.254621 0
M  V30 5137 C 469.488 1.9268 1.31897 0
M  V30 5138 C 470.469 0.790797 1.506 0
M  V30 5139 O 471.654 1.05045 1.63337 0
M  V30 5140 C 468.784 2.21477 2.67517 0
M  V30 5141 C 467.738 3.37256 2.63519 0
M  V30 5142 C 467.064 3.51576 4.02862 0
M  V30 5143 C 468.364 4.73157 2.21179 0
M  V30 5144 H 470.058 2.81832 1.01051 0
M  V30 5145 H 467.604 1.35599 0.484662 0
M  V30 5146 H 469.557 2.46055 3.42104 0
M  V30 5147 H 468.281 1.29144 2.99982 0
M  V30 5148 H 466.94 3.12675 1.9139 0
M  V30 5149 H 466.588 2.56676 4.32581 0
M  V30 5150 H 466.288 4.2943 4.01078 0
M  V30 5151 H 467.812 3.78467 4.79161 0
M  V30 5152 H 469.226 4.97158 2.85494 0
M  V30 5153 H 467.623 5.54058 2.30521 0
M  V30 5154 H 468.693 4.70739 1.16332 0
M  V30 5155 N 470.036 -0.519951 1.48776 0
M  V30 5156 C 471.447 -1.10177 1.50725 0
M  V30 5157 C 471.798 -1.94153 0.282678 0
M  V30 5158 O 470.923 -2.07645 -0.609298 0
M  V30 5159 C 471.518 -2.00482 2.73116 0
M  V30 5160 C 470.077 -2.53862 2.77905 0
M  V30 5161 C 469.224 -1.31047 2.44381 0
M  V30 5162 H 472.175 -0.30473 1.55747 0
M  V30 5163 H 472.196 -2.8491 2.52203 0
M  V30 5164 H 471.708 -1.39335 3.62225 0
M  V30 5165 H 469.809 -3.18702 1.93029 0
M  V30 5166 H 469.922 -2.9231 3.79594 0
M  V30 5167 H 468.286 -1.62953 1.95751 0
M  V30 5168 H 469.069 -0.71637 3.35743 0
M  V30 5169 N 471.514 -1.37532 -0.769588 0
M  V30 5170 C 472.477 -1.33292 -1.86456 0
M  V30 5171 C 473.477 -0.236537 -1.59051 0
M  V30 5172 O 474.667 -0.492511 -1.67093 0
M  V30 5173 C 471.799 -1.07118 -3.23633 0
M  V30 5174 H 472.992 -2.30692 -1.91628 0
M  V30 5175 H 470.545 -1.22593 -0.969572 0
M  V30 5176 H 471.28 -0.102578 -3.24138 0
M  V30 5177 H 471.065 -1.86479 -3.44917 0
M  V30 5178 H 472.555 -1.06806 -4.03711 0
M  V30 5179 N 472.992 0.995999 -1.22138 0
M  V30 5180 C 474.238 1.73767 -1.04561 0
M  V30 5181 C 474.571 1.89633 0.418698 0
M  V30 5182 O 473.846 1.43723 1.3105 0
M  V30 5183 C 474.129 3.14505 -1.75382 0
M  V30 5184 C 473.982 3.06306 -3.29388 0
M  V30 5185 C 475.301 4.13615 -1.50369 0
M  V30 5186 H 472.42 0.630728 -0.38125 0
M  V30 5187 H 475.062 1.16057 -1.50435 0
M  V30 5188 H 473.212 3.63775 -1.36383 0
M  V30 5189 H 474.884 2.64681 -3.77812 0
M  V30 5190 H 473.127 2.43186 -3.59226 0
M  V30 5191 H 473.798 4.05884 -3.74116 0
M  V30 5192 H 476.274 3.73089 -1.84239 0
M  V30 5193 H 475.15 5.10212 -2.02421 0
M  V30 5194 H 475.411 4.39949 -0.435611 0
M  V30 5195 N 474.47 1.03057 1.19235 0
M  V30 5196 C 475.719 0.72326 1.88287 0
M  V30 5197 C 476.032 -0.751333 1.80594 0
M  V30 5198 O 477.238 -1.17176 2.44912 0
M  V30 5199 C 475.694 1.24338 3.3774 0
M  V30 5200 C 475.302 2.74587 3.53986 0
M  V30 5201 C 477.046 1.01213 4.12257 0
M  V30 5202 C 474.953 3.20009 4.97341 0
M  V30 5203 H 473.883 0.266848 0.705201 0
M  V30 5204 H 476.534 1.24509 1.34795 0
M  V30 5205 H 474.916 0.649457 3.90638 0
M  V30 5206 H 476.09 3.39649 3.11408 0
M  V30 5207 H 474.405 2.9601 2.9286 0
M  V30 5208 H 477.002 1.32675 5.17978 0
M  V30 5209 H 477.345 -0.051001 4.16269 0
M  V30 5210 H 477.878 1.57014 3.65501 0
M  V30 5211 H 474.617 4.25659 4.98493 0
M  V30 5212 H 474.137 2.59676 5.40674 0
M  V30 5213 H 475.816 3.13447 5.66003 0
M  V30 5214 N 475.948 -1.35272 0.808662 0
M  V30 5215 C 477.176 -2.02946 0.402537 0
M  V30 5216 C 477.591 -1.60937 -0.987147 0
M  V30 5217 O 476.948 -0.807917 -1.63643 0
M  V30 5218 C 476.999 -3.58317 0.47868 0
M  V30 5219 O 476.72 -3.98799 1.81358 0
M  V30 5220 C 478.221 -4.43251 0.0656281 0
M  V30 5221 H 475.441 -0.650831 0.163279 0
M  V30 5222 H 477.985 -1.72849 1.09286 0
M  V30 5223 H 476.14 -3.87055 -0.163415 0
M  V30 5224 H 476.554 -4.93451 1.77781 0
M  V30 5225 H 478.028 -5.51738 0.170017 0
M  V30 5226 H 478.505 -4.27913 -0.989278 0
M  V30 5227 H 479.111 -4.19813 0.68096 0
M  V30 5228 N 477.426 -0.562348 -1.47226 0
M  V30 5229 C 478.654 -0.0452275 -2.06851 0
M  V30 5230 C 479.069 1.25078 -1.41424 0
M  V30 5231 O 478.426 1.75156 -0.512513 0
M  V30 5232 C 478.477 0.148674 -3.61194 0
M  V30 5233 O 478.198 -1.09602 -4.24169 0
M  V30 5234 C 479.699 0.702488 -4.37699 0
M  V30 5235 H 476.919 -0.0481775 -0.669268 0
M  V30 5236 H 479.463 -0.777223 -1.89155 0
M  V30 5237 H 477.618 0.830817 -3.78386 0
M  V30 5238 H 478.032 -0.896982 -5.16773 0
M  V30 5239 H 479.506 0.78743 -5.46355 0
M  V30 5240 H 479.983 1.71493 -4.04335 0
M  V30 5241 H 480.589 0.0558772 -4.25263 0
M  V30 5242 N 478.904 1.54736 -0.299062 0
M  V30 5243 C 480.144 2.0201 0.31168 0
M  V30 5244 C 480.508 1.18281 1.5124 0
M  V30 5245 O 481.709 1.55243 2.19438 0
M  V30 5246 C 479.98 3.5123 0.661227 0
M  V30 5247 S 481.539 4.20467 1.2551 0
M  V30 5248 H 478.357 0.704523 0.0957517 0
M  V30 5249 H 480.959 1.90791 -0.426482 0
M  V30 5250 H 479.663 4.09804 -0.221171 0
M  V30 5251 H 479.194 3.66481 1.43023 0
M  V30 5252 H 481.209 4.26083 2.54298 0
M  V30 5253 N 480.382 0.0267497 1.57577 0
M  V30 5254 C 481.312 -0.954308 2.13108 0
M  V30 5255 C 482.293 -1.34088 1.04663 0
M  V30 5256 O 483.478 -1.41992 1.32484 0
M  V30 5257 C 480.608 -2.23744 2.65624 0
M  V30 5258 C 479.562 -1.99168 3.78835 0
M  V30 5259 C 478.888 -3.33726 4.17769 0
M  V30 5260 C 480.188 -1.33277 5.0501 0
M  V30 5261 H 481.882 -0.491848 2.95332 0
M  V30 5262 H 479.428 -0.23514 1.42067 0
M  V30 5263 H 481.381 -2.92754 3.03106 0
M  V30 5264 H 480.105 -2.72151 1.80558 0
M  V30 5265 H 478.764 -1.32577 3.41788 0
M  V30 5266 H 478.412 -3.79888 3.29688 0
M  V30 5267 H 478.112 -3.18089 4.94058 0
M  V30 5268 H 479.636 -4.04008 4.57832 0
M  V30 5269 H 481.05 -1.92283 5.40093 0
M  V30 5270 H 479.447 -1.28045 5.8628 0
M  V30 5271 H 480.517 -0.305411 4.83937 0
M  V30 5272 N 481.861 -1.55662 -0.24637 0
M  V30 5273 C 482.824 -1.89558 -1.28842 0
M  V30 5274 C 483.824 -0.772082 -1.41052 0
M  V30 5275 O 485.014 -1.04007 -1.39743 0
M  V30 5276 C 482.146 -2.12449 -2.66605 0
M  V30 5277 H 483.339 -2.82735 -1.00004 0
M  V30 5278 H 480.892 -1.48562 -0.485684 0
M  V30 5279 H 481.627 -1.21742 -3.00582 0
M  V30 5280 H 481.412 -2.94273 -2.59125 0
M  V30 5281 H 482.902 -2.39854 -3.41847 0
M  V30 5282 N 483.339 0.512053 -1.4905 0
M  V30 5283 C 484.269 1.62365 -1.67809 0
M  V30 5284 C 485.25 1.61737 -0.526809 0
M  V30 5285 O 486.435 1.78651 -0.761404 0
M  V30 5286 C 483.565 3.00895 -1.73435 0
M  V30 5287 C 482.519 3.16387 -2.88242 0
M  V30 5288 C 481.845 4.56157 -2.78971 0
M  V30 5289 C 483.145 2.97457 -4.29321 0
M  V30 5290 H 484.839 1.46921 -2.60873 0
M  V30 5291 H 482.385 0.705379 -1.2554 0
M  V30 5292 H 484.338 3.78549 -1.85145 0
M  V30 5293 H 483.062 3.17403 -0.769619 0
M  V30 5294 H 481.721 2.41155 -2.76116 0
M  V30 5295 H 481.369 4.69525 -1.8043 0
M  V30 5296 H 481.069 4.67465 -3.5602 0
M  V30 5297 H 482.593 5.35886 -2.92675 0
M  V30 5298 H 484.007 3.64888 -4.42187 0
M  V30 5299 H 482.404 3.20245 -5.07507 0
M  V30 5300 H 483.474 1.93692 -4.44535 0
M  V30 5301 N 484.817 1.37938 0.762283 0
M  V30 5302 C 486.065 1.33404 1.51815 0
M  V30 5303 C 486.386 -0.0780975 1.94844 0
M  V30 5304 O 485.656 -1.02405 1.67003 0
M  V30 5305 H 484.236 0.490839 0.563104 0
M  V30 5306 H 486.898 1.72527 0.906669 0
M  V30 5307 H 485.994 1.97926 2.41313 0
M  V30 5308 N 486.295 -0.989507 1.22664 0
M  V30 5309 C 487.523 -1.76496 1.07967 0
M  V30 5310 C 487.938 -1.85148 -0.369543 0
M  V30 5311 O 487.295 -1.32408 -1.25596 0
M  V30 5312 C 487.346 -3.19642 1.68853 0
M  V30 5313 O 487.067 -3.11453 3.08105 0
M  V30 5314 C 488.568 -4.13621 1.59475 0
M  V30 5315 H 485.788 -0.55418 0.378319 0
M  V30 5316 H 488.332 -1.24378 1.62328 0
M  V30 5317 H 486.487 -3.68816 1.18547 0
M  V30 5318 H 486.901 -4.01499 3.37489 0
M  V30 5319 H 488.375 -5.11801 2.06795 0
M  V30 5320 H 488.852 -4.35718 0.55191 0
M  V30 5321 H 489.458 -3.70346 2.09103 0
M  V30 5322 N 487.773 -1.03688 -1.18687 0
M  V30 5323 C 489.189 -0.755413 -1.4059 0
M  V30 5324 C 489.389 0.656659 -1.905 0
M  V30 5325 O 488.445 1.42144 -2.08689 0
M  V30 5326 C 489.758 -1.7983 -2.41001 0
M  V30 5327 C 491.306 -1.81877 -2.54735 0
M  V30 5328 C 491.781 -2.85148 -3.58406 0
M  V30 5329 N 493.272 -2.84015 -3.6591 0
M  V30 5330 C 494.007 -3.60573 -4.45841 0
M  V30 5331 N 493.503 -4.46871 -5.29413 0
M  V30 5332 N 495.296 -3.49079 -4.40568 0
M  V30 5333 H 487.447 -1.94818 -0.846148 0
M  V30 5334 H 489.71 -0.842727 -0.434184 0
M  V30 5335 H 489.416 -2.81097 -2.1137 0
M  V30 5336 H 489.29 -1.62727 -3.40294 0
M  V30 5337 H 491.677 -0.812836 -2.83685 0
M  V30 5338 H 491.758 -2.03057 -1.55568 0
M  V30 5339 H 491.402 -3.85918 -3.30197 0
M  V30 5340 H 491.332 -2.61224 -4.57241 0
M  V30 5341 H 493.823 -2.21431 -3.0623 0
M  V30 5342 H 494.136 -5.02007 -5.87545 0
M  V30 5343 H 492.481 -4.5094 -5.28846 0
M  V30 5344 H 495.672 -2.81066 -3.74325 0
M  V30 5345 H 495.845 -4.08994 -5.02621 0
M  V30 5346 N 489.251 1.34841 -0.815825 0
M  V30 5347 C 490.667 1.51543 -0.500697 0
M  V30 5348 C 490.867 1.76261 0.976444 0
M  V30 5349 O 489.923 1.8094 1.76117 0
M  V30 5350 C 491.236 2.68487 -1.35407 0
M  V30 5351 C 492.784 2.82368 -1.35046 0
M  V30 5352 C 493.259 4.02347 -2.18816 0
M  V30 5353 N 494.75 4.09542 -2.16402 0
M  V30 5354 C 495.485 5.01517 -2.77971 0
M  V30 5355 N 494.981 5.98763 -3.48503 0
M  V30 5356 N 496.774 4.94334 -2.67563 0
M  V30 5357 H 488.925 1.17055 -1.77234 0
M  V30 5358 H 491.188 0.573481 -0.754866 0
M  V30 5359 H 490.894 2.56829 -2.40274 0
M  V30 5360 H 490.768 3.63321 -1.01377 0
M  V30 5361 H 493.155 2.93471 -0.309604 0
M  V30 5362 H 493.236 1.88363 -1.73069 0
M  V30 5363 H 492.88 3.92004 -3.22948 0
M  V30 5364 H 492.81 4.95551 -1.78148 0
M  V30 5365 H 495.301 3.39932 -1.65091 0
M  V30 5366 H 495.614 6.6556 -3.92747 0
M  V30 5367 H 493.959 5.98909 -3.52609 0
M  V30 5368 H 497.15 4.1732 -2.12041 0
M  V30 5369 H 497.323 5.6582 -3.15834 0
M  V30 5370 N 490.729 0.570148 1.46925 0
M  V30 5371 C 491.662 -0.218362 2.27153 0
M  V30 5372 C 492.64 -0.90847 1.34854 0
M  V30 5373 O 493.824 -0.924875 1.64251 0
M  V30 5374 C 490.951 -1.3122 3.12248 0
M  V30 5375 C 489.997 -0.729277 4.20219 0
M  V30 5376 S 490.83 0.434159 5.33737 0
M  V30 5377 C 491.986 -0.661188 6.22398 0
M  V30 5378 H 492.219 0.462393 2.93682 0
M  V30 5379 H 489.752 0.356753 1.50222 0
M  V30 5380 H 491.71 -1.93856 3.61842 0
M  V30 5381 H 490.371 -1.96485 2.45056 0
M  V30 5382 H 489.564 -1.5511 4.79538 0
M  V30 5383 H 489.166 -0.178836 3.73572 0
M  V30 5384 H 491.458 -1.55006 6.5953 0
M  V30 5385 H 492.401 -0.105046 7.08022 0
M  V30 5386 H 492.809 -0.959682 5.56283 0
M  V30 5387 N 492.207 -1.54576 0.307264 0
M  V30 5388 C 493.453 -2.0056 -0.300612 0
M  V30 5389 C 493.786 -1.1953 -1.53057 0
M  V30 5390 O 493.061 -0.27337 -1.92569 0
M  V30 5391 C 493.344 -3.54167 -0.650987 0
M  V30 5392 C 493.197 -4.45933 0.588539 0
M  V30 5393 C 494.516 -4.14645 -1.47506 0
M  V30 5394 H 491.635 -0.729075 -0.107788 0
M  V30 5395 H 494.277 -1.85286 0.420606 0
M  V30 5396 H 492.427 -3.67313 -1.26544 0
M  V30 5397 H 494.099 -4.44683 1.22697 0
M  V30 5398 H 492.342 -4.16274 1.22058 0
M  V30 5399 H 493.013 -5.51189 0.299153 0
M  V30 5400 H 495.489 -4.04973 -0.955821 0
M  V30 5401 H 494.365 -5.22269 -1.68899 0
M  V30 5402 H 494.626 -3.66921 -2.4662 0
M  V30 5403 N 493.685 -0.035106 -1.57561 0
M  V30 5404 C 494.632 0.94474 -2.10578 0
M  V30 5405 C 495.602 1.3192 -1.00927 0
M  V30 5406 O 496.787 1.41147 -1.28382 0
M  V30 5407 C 493.927 2.21982 -2.64231 0
M  V30 5408 C 493.04 1.90128 -3.87911 0
M  V30 5409 C 492.175 3.11975 -4.29936 0
M  V30 5410 C 491.214 2.75968 -5.46359 0
M  V30 5411 N 490.351 3.90459 -5.83512 0
M  V30 5412 H 495.191 0.485717 -2.94015 0
M  V30 5413 H 492.728 0.228143 -1.4532 0
M  V30 5414 H 494.686 2.96572 -2.9343 0
M  V30 5415 H 493.316 2.6549 -1.83616 0
M  V30 5416 H 492.368 1.05755 -3.65404 0
M  V30 5417 H 493.68 1.59613 -4.72573 0
M  V30 5418 H 492.834 3.9488 -4.60603 0
M  V30 5419 H 491.573 3.45657 -3.44053 0
M  V30 5420 H 490.578 1.91478 -5.1538 0
M  V30 5421 H 491.803 2.43497 -6.33945 0
M  V30 5422 H 489.749 4.23971 -5.00584 0
M  V30 5423 H 489.666 3.63588 -6.62827 0
M  V30 5424 H 490.934 4.7405 -6.18787 0
M  V30 5425 N 495.163 1.55791 0.238111 0
M  V30 5426 C 496.11 1.9105 1.29493 0
M  V30 5427 C 497.08 0.765733 1.47397 0
M  V30 5428 O 498.265 1.02017 1.61236 0
M  V30 5429 C 495.405 2.21826 2.64362 0
M  V30 5430 C 494.518 3.49153 2.54394 0
M  V30 5431 C 493.653 3.69455 3.81676 0
M  V30 5432 C 492.692 4.90353 3.66361 0
M  V30 5433 N 491.829 5.07131 4.85554 0
M  V30 5434 H 496.669 2.81172 0.987233 0
M  V30 5435 H 494.206 1.39179 0.476203 0
M  V30 5436 H 496.164 2.37675 3.4288 0
M  V30 5437 H 494.794 1.34897 2.93262 0
M  V30 5438 H 493.846 3.41587 1.67399 0
M  V30 5439 H 495.158 4.37818 2.38991 0
M  V30 5440 H 494.312 3.85311 4.68636 0
M  V30 5441 H 493.051 2.7904 3.99985 0
M  V30 5442 H 492.056 4.74464 2.77784 0
M  V30 5443 H 493.281 5.82237 3.49538 0
M  V30 5444 H 491.227 4.19654 5.04209 0
M  V30 5445 H 491.144 5.89899 4.72816 0
M  V30 5446 H 492.412 5.27407 5.73988 0
M  V30 5447 N 496.642 -0.504142 1.49319 0
M  V30 5448 C 497.59 -1.62689 1.66238 0
M  V30 5449 C 498.584 -1.6095 0.528349 0
M  V30 5450 O 499.79 -1.65496 0.707887 0
M  V30 5451 H 496.165 -0.539247 0.524134 0
M  V30 5452 H 498.136 -1.45571 2.60484 0
M  V30 5453 C 496.885 -3.00841 1.74328 0
M  V30 5454 H 496.208 -3.02884 2.60963 0
M  V30 5455 H 497.648 -3.78945 1.90202 0
M  V30 5456 C 496.107 -3.33355 0.487416 0
M  V30 5457 O 496.637 -3.99819 -0.388294 0
M  V30 5458 N 494.843 -2.88469 0.351306 0
M  V30 5459 H 494.39 -2.34557 1.06492 0
M  V30 5460 H 494.348 -3.10591 -0.487899 0
M  V30 5461 N 498.12 -1.38341 -0.754957 0
M  V30 5462 C 499.083 -1.35262 -1.85032 0
M  V30 5463 C 500.083 -0.253393 -1.58791 0
M  V30 5464 O 501.273 -0.510205 -1.66561 0
M  V30 5465 C 498.405 -1.10544 -3.22479 0
M  V30 5466 H 499.598 -2.32712 -1.8917 0
M  V30 5467 H 497.151 -1.23614 -0.956515 0
M  V30 5468 H 497.886 -0.136952 -3.24011 0
M  V30 5469 H 497.671 -1.90127 -3.4292 0
M  V30 5470 H 499.161 -1.11082 -4.02555 0
M  V30 5471 N 499.598 0.982988 -1.23187 0
M  V30 5472 C 500.847 1.71817 -1.05649 0
M  V30 5473 C 501.16 1.91315 0.407176 0
M  V30 5474 O 502.366 2.62256 0.702436 0
M  V30 5475 C 500.822 3.09188 -1.84203 0
M  V30 5476 C 500.43 2.97586 -3.34882 0
M  V30 5477 C 502.174 3.86684 -1.75146 0
M  V30 5478 C 500.081 4.30173 -4.05839 0
M  V30 5479 H 499.011 0.644258 -0.391724 0
M  V30 5480 H 501.662 1.09659 -1.4713 0
M  V30 5481 H 500.044 3.72087 -1.35527 0
M  V30 5482 H 501.218 2.43793 -3.91026 0
M  V30 5483 H 499.533 2.33567 -3.44725 0
M  V30 5484 H 502.13 4.84836 -2.25473 0
M  V30 5485 H 502.473 4.10136 -0.713737 0
M  V30 5486 H 503.006 3.30482 -2.21419 0
M  V30 5487 H 499.745 4.11918 -5.09906 0
M  V30 5488 H 499.265 4.83841 -3.54482 0
M  V30 5489 H 500.944 4.98873 -4.11989 0
M  V30 5490 N 501.076 1.04316 1.18135 0
M  V30 5491 C 502.322 0.749128 1.88457 0
M  V30 5492 C 502.655 -0.72149 1.803 0
M  V30 5493 O 501.93 -1.52676 1.205 0
M  V30 5494 C 502.213 1.21905 3.38838 0
M  V30 5495 C 502.066 2.75195 3.55792 0
M  V30 5496 C 503.385 0.811085 4.32561 0
M  V30 5497 H 500.504 0.273611 0.684329 0
M  V30 5498 H 503.146 1.29561 1.38975 0
M  V30 5499 H 501.296 0.754137 3.8111 0
M  V30 5500 H 502.968 3.29743 3.22595 0
M  V30 5501 H 501.211 3.14899 2.98364 0
M  V30 5502 H 501.882 3.03135 4.61317 0
M  V30 5503 H 504.358 1.21118 3.98082 0
M  V30 5504 H 503.234 1.16761 5.36338 0
M  V30 5505 H 503.495 -0.285596 4.41177 0
M  V30 5506 N 502.554 -1.34406 0.822964 0
M  V30 5507 C 503.97 -1.51275 0.508727 0
M  V30 5508 C 504.17 -1.76776 -0.967083 0
M  V30 5509 O 503.226 -1.81871 -1.75155 0
M  V30 5510 C 504.539 -2.67765 1.36829 0
M  V30 5511 C 506.087 -2.81647 1.36542 0
M  V30 5512 C 506.562 -4.01181 2.20947 0
M  V30 5513 N 508.053 -4.08388 2.18571 0
M  V30 5514 C 508.788 -5.00036 2.80627 0
M  V30 5515 N 508.284 -5.96906 3.51674 0
M  V30 5516 N 510.077 -4.92908 2.70181 0
M  V30 5517 H 502.228 -1.16113 1.77852 0
M  V30 5518 H 504.491 -0.56947 0.757897 0
M  V30 5519 H 504.197 -2.55551 2.41633 0
M  V30 5520 H 504.071 -3.62779 1.03303 0
M  V30 5521 H 506.458 -2.93303 0.325163 0
M  V30 5522 H 506.539 -1.87443 1.74066 0
M  V30 5523 H 506.183 -3.90286 3.25022 0
M  V30 5524 H 506.113 -4.94599 1.80774 0
M  V30 5525 H 508.604 -3.39051 1.66891 0
M  V30 5526 H 508.917 -6.63468 3.96271 0
M  V30 5527 H 507.262 -5.9703 3.5578 0
M  V30 5528 H 510.453 -4.1619 2.14251 0
M  V30 5529 H 510.626 -5.64137 3.18831 0
M  V30 5530 N 504.032 -0.577932 -1.46621 0
M  V30 5531 C 504.979 0.158048 -2.30258 0
M  V30 5532 C 505.949 0.888669 -1.40328 0
M  V30 5533 O 507.134 0.880283 -1.6928 0
M  V30 5534 C 504.274 1.16884 -3.24703 0
M  V30 5535 C 503.387 0.442163 -4.29731 0
M  V30 5536 C 502.522 1.44007 -5.11308 0
M  V30 5537 C 501.561 0.69952 -6.0809 0
M  V30 5538 N 500.698 1.64525 -6.82551 0
M  V30 5539 H 505.538 -0.561242 -2.92667 0
M  V30 5540 H 503.075 -0.288591 -1.44241 0
M  V30 5541 H 505.033 1.7677 -3.779 0
M  V30 5542 H 503.663 1.85591 -2.64113 0
M  V30 5543 H 502.715 -0.271632 -3.79429 0
M  V30 5544 H 504.027 -0.136992 -4.98612 0
M  V30 5545 H 503.181 2.11186 -5.68758 0
M  V30 5546 H 501.92 2.05315 -4.42377 0
M  V30 5547 H 500.925 0.0139217 -5.49798 0
M  V30 5548 H 502.15 0.091894 -6.79038 0
M  V30 5549 H 500.096 2.24653 -6.16334 0
M  V30 5550 H 500.013 1.11878 -7.47676 0
M  V30 5551 H 501.281 2.30754 -7.44562 0
M  V30 5552 N 505.51 1.54411 -0.315457 0
M  V30 5553 C 506.44 2.27002 0.547039 0
M  V30 5554 C 507.421 1.27492 1.12605 0
M  V30 5555 O 508.606 1.5629 1.15269 0
M  V30 5556 C 505.736 3.02171 1.71201 0
M  V30 5557 C 504.69 4.0895 1.26268 0
M  V30 5558 C 504.016 4.71915 2.51396 0
M  V30 5559 C 505.316 5.20891 0.383419 0
M  V30 5560 H 507.01 2.99343 -0.0584517 0
M  V30 5561 H 504.556 1.4397 -0.0295527 0
M  V30 5562 H 506.509 3.51681 2.32161 0
M  V30 5563 H 505.233 2.27433 2.34397 0
M  V30 5564 H 503.892 3.60312 0.676062 0
M  V30 5565 H 503.54 3.93801 3.12937 0
M  V30 5566 H 503.24 5.44039 2.22026 0
M  V30 5567 H 504.764 5.24195 3.13133 0
M  V30 5568 H 506.178 5.66206 0.899082 0
M  V30 5569 H 504.575 5.99821 0.182857 0
M  V30 5570 H 505.645 4.81324 -0.587821 0
M  V30 5571 N 506.988 0.0434614 1.5754 0
M  V30 5572 C 507.92 -0.962586 2.08007 0
M  V30 5573 C 508.933 -1.27972 1.00634 0
M  V30 5574 O 510.122 -1.24186 1.28219 0
M  V30 5575 C 507.222 -2.28621 2.50171 0
M  V30 5576 C 506.395 -2.15214 3.80791 0
M  V30 5577 C 505.454 -3.30633 4.09351 0
M  V30 5578 O 504.48 -3.0688 4.79388 0
M  V30 5579 N 505.682 -4.54873 3.60654 0
M  V30 5580 H 508.447 -0.531891 2.94942 0
M  V30 5581 H 506.008 -0.142965 1.61268 0
M  V30 5582 H 508 -3.04689 2.66359 0
M  V30 5583 H 506.57 -2.63283 1.68525 0
M  V30 5584 H 505.79 -1.23785 3.74261 0
M  V30 5585 H 507.078 -2.03475 4.66343 0
M  V30 5586 H 506.476 -4.77063 3.04019 0
M  V30 5587 H 505.033 -5.2806 3.82094 0
M  V30 5588 N 508.466 -1.55915 -0.229846 0
M  V30 5589 C 509.691 -1.8296 -0.976743 0
M  V30 5590 C 510.116 -0.622735 -1.77493 0
M  V30 5591 O 509.474 0.428431 -1.76165 0
M  V30 5592 C 509.522 -3.07916 -1.8767 0
M  V30 5593 O 508.626 -2.86028 -2.97088 0
M  V30 5594 H 507.967 -0.603453 -0.277021 0
M  V30 5595 H 510.497 -2.0312 -0.245669 0
M  V30 5596 H 510.507 -3.37802 -2.2881 0
M  V30 5597 H 509.182 -3.95389 -1.28996 0
M  V30 5598 H 507.759 -2.67355 -2.59954 0
M  V30 5599 N 509.944 0.496216 -1.49584 0
M  V30 5600 C 511.19 1.25189 -1.59548 0
M  V30 5601 C 511.523 1.9212 -0.283466 0
M  V30 5602 O 510.798 1.80947 0.713324 0
M  V30 5603 C 511.081 2.31516 -2.75812 0
M  V30 5604 C 510.934 1.69054 -4.16822 0
M  V30 5605 C 512.253 3.3304 -2.87702 0
M  V30 5606 H 509.372 0.45379 -0.580727 0
M  V30 5607 H 512.014 0.549327 -1.81886 0
M  V30 5608 H 510.164 2.91438 -2.56897 0
M  V30 5609 H 511.836 1.12923 -4.47265 0
M  V30 5610 H 510.079 0.994485 -4.22247 0
M  V30 5611 H 510.75 2.462 -4.94054 0
M  V30 5612 H 513.226 2.83114 -3.04936 0
M  V30 5613 H 512.102 4.04794 -3.7072 0
M  V30 5614 H 512.363 3.95655 -1.97255 0
M  V30 5615 N 511.423 1.38739 0.74761 0
M  V30 5616 C 512.333 1.38696 1.89211 0
M  V30 5617 C 513.349 0.283303 1.71678 0
M  V30 5618 O 514.525 0.522713 1.94498 0
M  V30 5619 C 511.59 1.21662 3.24653 0
M  V30 5620 C 510.651 2.41886 3.54669 0
M  V30 5621 C 509.884 2.25655 4.83648 0
M  V30 5622 O 510.107 1.25339 5.56459 0
M  V30 5623 O 509.041 3.14372 5.13277 0
M  V30 5624 H 512.867 2.35143 1.92202 0
M  V30 5625 H 510.452 1.19721 0.893708 0
M  V30 5626 H 512.334 1.14246 4.05618 0
M  V30 5627 H 511.009 0.283024 3.2246 0
M  V30 5628 H 509.916 2.54877 2.73841 0
M  V30 5629 H 511.249 3.33895 3.61628 0
M  V30 5630 N 512.901 -0.976442 1.23707 0
M  V30 5631 C 514.129 -1.75341 1.09833 0
M  V30 5632 C 514.544 -1.8553 -0.349885 0
M  V30 5633 O 513.901 -1.33732 -1.24185 0
M  V30 5634 C 513.952 -3.17833 1.72233 0
M  V30 5635 O 513.673 -3.08167 3.11391 0
M  V30 5636 C 515.174 -4.11906 1.63853 0
M  V30 5637 H 512.394 -0.550137 0.384175 0
M  V30 5638 H 514.938 -1.2265 1.63638 0
M  V30 5639 H 513.093 -3.67538 1.22452 0
M  V30 5640 H 513.507 -3.97897 3.41729 0
M  V30 5641 H 514.981 -5.09579 2.12211 0
M  V30 5642 H 515.458 -4.35109 0.598092 0
M  V30 5643 H 516.064 -3.68107 2.13019 0
M  V30 5644 N 514.379 -1.04941 -1.1758 0
M  V30 5645 C 515.309 -0.669172 -2.23706 0
M  V30 5646 C 516.29 0.331835 -1.66832 0
M  V30 5647 O 517.475 0.209988 -1.93061 0
M  V30 5648 C 514.605 -0.0404889 -3.47276 0
M  V30 5649 C 513.559 -0.965983 -4.16957 0
M  V30 5650 C 512.885 -0.201312 -5.34321 0
M  V30 5651 C 514.185 -2.28902 -4.69469 0
M  V30 5652 H 515.879 -1.55639 -2.55767 0
M  V30 5653 H 513.425 -0.749793 -1.22939 0
M  V30 5654 H 515.378 0.237298 -4.20731 0
M  V30 5655 H 514.102 0.881658 -3.14475 0
M  V30 5656 H 512.761 -1.22829 -3.45411 0
M  V30 5657 H 512.409 0.723519 -4.97769 0
M  V30 5658 H 512.109 -0.817968 -5.81879 0
M  V30 5659 H 513.633 0.0692499 -6.10561 0
M  V30 5660 H 515.047 -2.07132 -5.34574 0
M  V30 5661 H 513.444 -2.85942 -5.27596 0
M  V30 5662 H 514.514 -2.92937 -3.86414 0
M  V30 5663 N 515.857 1.33968 -0.830081 0
M  V30 5664 C 517.105 1.97672 -0.420734 0
M  V30 5665 C 517.426 1.66111 1.02138 0
M  V30 5666 O 516.696 0.955503 1.71017 0
M  V30 5667 H 515.276 0.73125 -0.152587 0
M  V30 5668 H 517.938 1.63483 -1.0611 0
M  V30 5669 H 517.034 3.07294 -0.545588 0
M  V30 5670 N 517.335 0.585699 1.46312 0
M  V30 5671 C 518.575 0.0751432 2.04262 0
M  V30 5672 C 518.939 -1.26201 1.44697 0
M  V30 5673 O 520.14 -1.86198 1.93865 0
M  V30 5674 C 518.411 0.013478 3.57397 0
M  V30 5675 S 519.97 -0.439068 4.36598 0
M  V30 5676 H 516.788 0.0389228 0.709934 0
M  V30 5677 H 519.39 0.778871 1.79315 0
M  V30 5678 H 518.094 0.990558 3.98266 0
M  V30 5679 H 517.625 -0.712927 3.86886 0
M  V30 5680 H 519.64 -1.6932 4.66417 0
M  V30 5681 N 518.813 -1.54241 0.323641 0
M  V30 5682 C 520.041 -2.04985 -0.280871 0
M  V30 5683 C 520.456 -1.19978 -1.45777 0
M  V30 5684 O 519.813 -0.230471 -1.81039 0
M  V30 5685 C 519.864 -3.54353 -0.715258 0
M  V30 5686 O 519.585 -4.36132 0.414817 0
M  V30 5687 C 521.086 -4.21189 -1.38257 0
M  V30 5688 H 518.306 -0.66851 -0.0577502 0
M  V30 5689 H 520.85 -1.99029 0.469852 0
M  V30 5690 H 519.005 -3.60596 -1.41596 0
M  V30 5691 H 519.419 -5.2445 0.0725227 0
M  V30 5692 H 520.893 -5.27154 -1.63745 0
M  V30 5693 H 521.37 -3.72307 -2.32989 0
M  V30 5694 H 521.976 -4.19085 -0.724447 0
M  V30 5695 N 520.291 -0.0518155 -1.57515 0
M  V30 5696 C 521.519 0.631395 -1.9703 0
M  V30 5697 C 521.934 1.64341 -0.92938 0
M  V30 5698 O 521.291 1.82296 0.0863266 0
M  V30 5699 C 521.342 1.31774 -3.36627 0
M  V30 5700 O 521.063 0.346247 -4.3673 0
M  V30 5701 C 522.564 2.09065 -3.90905 0
M  V30 5702 H 519.784 0.172576 -0.648428 0
M  V30 5703 H 522.328 -0.118306 -2.04158 0
M  V30 5704 H 520.483 2.01867 -3.30649 0
M  V30 5705 H 520.897 0.836226 -5.17791 0
M  V30 5706 H 522.371 2.52508 -4.9086 0
M  V30 5707 H 522.848 2.93908 -3.26366 0
M  V30 5708 H 523.454 1.43882 -4.00223 0
M  V30 5709 N 521.769 1.56035 0.221574 0
M  V30 5710 C 523.015 1.79312 0.947372 0
M  V30 5711 C 523.348 0.621453 1.83988 0
M  V30 5712 O 522.623 -0.379287 1.90766 0
M  V30 5713 C 522.906 3.1267 1.78633 0
M  V30 5714 C 522.759 4.40284 0.920312 0
M  V30 5715 C 524.078 3.4247 2.7641 0
M  V30 5716 H 521.197 0.652328 0.342982 0
M  V30 5717 H 523.839 1.88765 0.216244 0
M  V30 5718 H 521.989 3.04741 2.40967 0
M  V30 5719 H 523.661 4.60232 0.313718 0
M  V30 5720 H 521.904 4.33212 0.225734 0
M  V30 5721 H 522.575 5.30033 1.54171 0
M  V30 5722 H 525.051 3.50526 2.24211 0
M  V30 5723 H 523.927 4.3695 3.32213 0
M  V30 5724 H 524.188 2.64635 3.54148 0
M  V30 5725 N 523.247 -0.488276 1.49845 0
M  V30 5726 C 524.496 -1.23826 1.59217 0
M  V30 5727 C 524.809 -1.93439 0.289966 0
M  V30 5728 O 526.015 -2.70229 0.262382 0
M  V30 5729 C 524.471 -2.24902 2.80976 0
M  V30 5730 C 524.079 -1.6117 4.18005 0
M  V30 5731 C 525.823 -3.00648 2.99685 0
M  V30 5732 C 523.73 -2.60431 5.3097 0
M  V30 5733 H 522.66 -0.465858 0.592868 0
M  V30 5734 H 525.311 -0.510645 1.76252 0
M  V30 5735 H 523.693 -3.0088 2.57463 0
M  V30 5736 H 524.867 -0.910968 4.51706 0
M  V30 5737 H 523.182 -0.97767 4.0476 0
M  V30 5738 H 525.779 -3.74903 3.81251 0
M  V30 5739 H 526.122 -3.5902 2.10738 0
M  V30 5740 H 526.655 -2.31784 3.23297 0
M  V30 5741 H 523.394 -2.06823 6.22017 0
M  V30 5742 H 522.914 -3.28707 5.01709 0
M  V30 5743 H 524.593 -3.22606 5.60834 0
M  V30 5744 N 524.725 -1.39134 -0.740242 0
M  V30 5745 C 525.965 -1.37499 -1.51239 0
M  V30 5746 C 526.329 0.0310084 -1.91975 0
M  V30 5747 O 527.53 0.172319 -2.68247 0
M  V30 5748 C 525.801 -2.31566 -2.72235 0
M  V30 5749 S 527.36 -2.48073 -3.61947 0
M  V30 5750 H 524.178 -0.48768 -0.517387 0
M  V30 5751 H 526.78 -1.75183 -0.867826 0
M  V30 5752 H 525.484 -3.32592 -2.40439 0
M  V30 5753 H 525.015 -1.9508 -3.41625 0
M  V30 5754 H 527.03 -1.71473 -4.6563 0
M  V30 5755 N 526.204 0.969867 -1.24223 0
M  V30 5756 C 527.429 1.75289 -1.10853 0
M  V30 5757 C 527.854 1.85091 0.335079 0
M  V30 5758 O 527.212 1.32024 1.24255 0
M  V30 5759 C 527.26 3.15255 -1.75062 0
M  V30 5760 O 526.364 3.99589 -1.01992 0
M  V30 5761 H 525.705 0.538904 -0.387915 0
M  V30 5762 H 528.235 1.21675 -1.64488 0
M  V30 5763 H 528.245 3.65787 -1.80731 0
M  V30 5764 H 526.92 3.07436 -2.801 0
M  V30 5765 H 525.497 3.58077 -1.04094 0
M  V30 5766 N 527.682 1.05563 1.17022 0
M  V30 5767 C 528.959 0.68165 1.83338 0
M  V30 5768 C 529.339 -0.837665 1.93769 0
M  V30 5769 O 528.687 -1.74507 1.47511 0
M  V30 5770 C 528.897 1.375 3.20772 0
M  V30 5771 C 530.245 1.51545 3.96635 0
M  V30 5772 O 531.269 1.33431 3.30264 0
M  V30 5773 O 530.128 1.812 5.15586 0
M  V30 5774 H 527.222 0.240412 0.791285 0
M  V30 5775 H 529.768 1.15545 1.24288 0
M  V30 5776 H 528.54 2.41135 3.08171 0
M  V30 5777 H 528.163 0.890798 3.87493 0
M  V30 5778 N 529.16 -1.33526 0.837174 0
M  V30 5779 C 530.107 -2.29248 0.267169 0
M  V30 5780 C 531.077 -1.54252 -0.616071 0
M  V30 5781 O 532.262 -1.82559 -0.554699 0
M  V30 5782 C 529.402 -3.40638 -0.553152 0
M  V30 5783 C 528.515 -4.30548 0.353921 0
M  V30 5784 C 527.65 -5.29051 -0.477339 0
M  V30 5785 C 526.689 -6.106 0.42823 0
M  V30 5786 N 525.826 -7.01152 -0.364801 0
M  V30 5787 H 530.666 -2.77398 1.08877 0
M  V30 5788 H 528.203 -1.36496 0.54838 0
M  V30 5789 H 530.161 -4.03921 -1.04422 0
M  V30 5790 H 528.791 -2.93685 -1.33973 0
M  V30 5791 H 527.843 -3.68001 0.963289 0
M  V30 5792 H 529.155 -4.87631 1.04964 0
M  V30 5793 H 528.309 -5.97853 -1.0323 0
M  V30 5794 H 527.048 -4.72541 -1.2065 0
M  V30 5795 H 526.053 -5.40718 0.995219 0
M  V30 5796 H 527.278 -6.69193 1.15573 0
M  V30 5797 H 525.224 -6.47092 -1.07738 0
M  V30 5798 H 525.141 -7.5551 0.272238 0
M  V30 5799 H 526.409 -7.74263 -0.902054 0
M  V30 5800 N 530.638 -0.59345 -1.46 0
M  V30 5801 C 531.866 -0.0890934 -2.06708 0
M  V30 5802 C 532.281 1.2205 -1.44046 0
M  V30 5803 O 531.638 1.74029 -0.549551 0
M  V30 5804 C 531.689 0.0720263 -3.61428 0
M  V30 5805 O 531.41 -1.18574 -4.21748 0
M  V30 5806 C 532.911 0.609487 -4.3909 0
M  V30 5807 H 530.131 -0.0623628 -0.668096 0
M  V30 5808 H 532.675 -0.817171 -1.87464 0
M  V30 5809 H 530.83 0.750369 -3.80063 0
M  V30 5810 H 531.244 -1.0064 -5.14754 0
M  V30 5811 H 532.718 0.671363 -5.47902 0
M  V30 5812 H 533.195 1.62878 -4.07882 0
M  V30 5813 H 533.801 -0.03434 -4.25286 0
M  V30 5814 N 532.116 1.54067 -0.331816 0
M  V30 5815 C 533.364 2.00319 0.267739 0
M  V30 5816 C 533.685 1.22148 1.52003 0
M  V30 5817 O 532.955 0.325494 1.93177 0
M  V30 5818 H 531.535 0.740014 0.101922 0
M  V30 5819 H 534.197 1.89628 -0.450267 0
M  V30 5820 H 533.293 3.07765 0.518385 0
M  V30 5821 N 533.594 0.0601682 1.57485 0
M  V30 5822 C 534.822 -0.620937 1.97363 0
M  V30 5823 C 535.237 -1.63846 0.938082 0
M  V30 5824 O 534.594 -1.82339 -0.0766578 0
M  V30 5825 C 534.645 -1.29987 3.37321 0
M  V30 5826 O 534.366 -0.323081 4.36907 0
M  V30 5827 C 535.867 -2.06989 3.92008 0
M  V30 5828 H 533.087 -0.169135 0.649334 0
M  V30 5829 H 535.631 0.129132 2.04092 0
M  V30 5830 H 533.786 -2.0011 3.31715 0
M  V30 5831 H 534.2 -0.808754 5.18227 0
M  V30 5832 H 535.674 -2.49901 4.92192 0
M  V30 5833 H 536.151 -2.92173 3.2792 0
M  V30 5834 H 536.757 -1.41757 4.0098 0
M  V30 5835 N 535.072 -1.5615 -0.213296 0
M  V30 5836 C 536.002 -1.96109 -1.26742 0
M  V30 5837 C 536.983 -0.830448 -1.48451 0
M  V30 5838 O 538.168 -1.09339 -1.60495 0
M  V30 5839 C 535.298 -2.28492 -2.61551 0
M  V30 5840 C 534.252 -3.44124 -2.54485 0
M  V30 5841 C 533.578 -3.62134 -3.93399 0
M  V30 5842 C 534.878 -4.78855 -2.08556 0
M  V30 5843 H 536.572 -2.84412 -0.935434 0
M  V30 5844 H 534.118 -1.36836 -0.44854 0
M  V30 5845 H 536.071 -2.55039 -3.3546 0
M  V30 5846 H 534.795 -1.37052 -2.96453 0
M  V30 5847 H 533.454 -3.17639 -1.83033 0
M  V30 5848 H 533.102 -2.68055 -4.25623 0
M  V30 5849 H 532.802 -4.39913 -3.89551 0
M  V30 5850 H 534.326 -3.91038 -4.68958 0
M  V30 5851 H 535.74 -5.04552 -2.72213 0
M  V30 5852 H 534.137 -5.59975 -2.1575 0
M  V30 5853 H 535.207 -4.73657 -1.03811 0
M  V30 5854 N 536.55 0.480323 -1.50102 0
M  V30 5855 C 537.778 1.25657 -1.64371 0
M  V30 5856 C 538.193 1.86011 -0.323316 0
M  V30 5857 O 537.55 1.68803 0.693682 0
M  V30 5858 C 537.601 2.37197 -2.728 0
M  V30 5859 O 537.322 1.7932 -3.9972 0
M  V30 5860 C 538.823 3.2823 -2.9796 0
M  V30 5861 H 536.043 0.380369 -0.552775 0
M  V30 5862 H 538.587 0.574379 -1.96268 0
M  V30 5863 H 536.742 3.01208 -2.43623 0
M  V30 5864 H 537.156 2.52701 -4.59611 0
M  V30 5865 H 538.63 4.02725 -3.77513 0
M  V30 5866 H 539.107 3.86462 -2.08671 0
M  V30 5867 H 539.713 2.69964 -3.28633 0
M  V30 5868 N 538.028 1.39524 0.732853 0
M  V30 5869 C 539.256 1.40143 1.52209 0
M  V30 5870 C 539.671 -0.00348836 1.888 0
M  V30 5871 O 539.028 -0.975357 1.5425 0
M  V30 5872 C 539.079 2.27632 2.8083 0
M  V30 5873 O 538.8 3.62654 2.45792 0
M  V30 5874 C 540.301 2.36658 3.74844 0
M  V30 5875 H 537.521 0.478604 0.470297 0
M  V30 5876 H 540.065 1.83366 0.905388 0
M  V30 5877 H 538.22 1.87818 3.38826 0
M  V30 5878 H 538.634 4.08941 3.28431 0
M  V30 5879 H 540.108 3.02118 4.61984 0
M  V30 5880 H 540.585 1.38638 4.16745 0
M  V30 5881 H 541.191 2.76951 3.22766 0
M  V30 5882 N 539.506 -0.963266 1.24736 0
M  V30 5883 C 540.454 -2.07985 1.04139 0
M  V30 5884 C 541.448 -1.69381 -0.0250556 0
M  V30 5885 O 542.654 -1.79531 0.129863 0
M  V30 5886 H 539.029 -0.680627 0.319768 0
M  V30 5887 H 541 -2.22517 1.98818 0
M  V30 5888 C 539.749 -3.4123 0.667615 0
M  V30 5889 H 539.072 -3.71397 1.48 0
M  V30 5890 H 540.512 -4.20244 0.563136 0
M  V30 5891 C 538.971 -3.3104 -0.625647 0
M  V30 5892 O 539.501 -3.65334 -1.67016 0
M  V30 5893 N 537.707 -2.84168 -0.608033 0
M  V30 5894 H 537.254 -2.56458 0.242323 0
M  V30 5895 H 537.212 -2.77732 -1.47352 0
M  V30 5896 N 540.985 -1.06182 -1.16461 0
M  V30 5897 C 541.917 -0.629584 -2.20383 0
M  V30 5898 C 542.93 0.311834 -1.59786 0
M  V30 5899 O 544.119 0.103 -1.78203 0
M  V30 5900 C 541.219 0.0973695 -3.3876 0
M  V30 5901 C 540.392 -0.857252 -4.28917 0
M  V30 5902 C 539.451 -0.169749 -5.25926 0
M  V30 5903 O 538.477 -0.807044 -5.6345 0
M  V30 5904 N 539.679 1.08911 -5.70192 0
M  V30 5905 H 542.444 -1.52352 -2.58087 0
M  V30 5906 H 540.005 -0.944993 -1.31459 0
M  V30 5907 H 541.997 0.567676 -4.00699 0
M  V30 5908 H 540.567 0.893093 -2.99571 0
M  V30 5909 H 539.787 -1.50696 -3.64259 0
M  V30 5910 H 541.075 -1.50489 -4.86035 0
M  V30 5911 H 540.473 1.62703 -5.41797 0
M  V30 5912 H 539.03 1.50331 -6.34227 0
M  V30 5913 N 542.463 1.3308 -0.844243 0
M  V30 5914 C 543.396 2.27075 -0.226279 0
M  V30 5915 C 544.374 1.49911 0.629716 0
M  V30 5916 O 545.558 1.79068 0.588803 0
M  V30 5917 C 542.685 3.31767 0.681782 0
M  V30 5918 C 541.731 4.26384 -0.0994565 0
M  V30 5919 S 542.564 5.15186 -1.46094 0
M  V30 5920 C 543.72 6.23405 -0.558319 0
M  V30 5921 H 543.953 2.79141 -1.02312 0
M  V30 5922 H 541.486 1.40452 -0.641292 0
M  V30 5923 H 543.444 3.92566 1.20008 0
M  V30 5924 H 542.105 2.78507 1.45234 0
M  V30 5925 H 541.298 5.00514 0.591733 0
M  V30 5926 H 540.9 3.69949 -0.548991 0
M  V30 5927 H 543.192 6.77069 0.241672 0
M  V30 5928 H 544.135 6.96619 -1.26995 0
M  V30 5929 H 544.543 5.64333 -0.13728 0
M  V30 5930 N 543.941 0.601185 1.45683 0
M  V30 5931 C 545.169 0.100054 2.06658 0
M  V30 5932 C 545.584 -1.21285 1.44691 0
M  V30 5933 O 544.941 -1.73735 0.558772 0
M  V30 5934 C 544.992 -0.0528579 3.61461 0
M  V30 5935 O 544.713 1.20809 4.21114 0
M  V30 5936 C 546.214 -0.586193 4.39407 0
M  V30 5937 H 543.434 0.065905 0.667756 0
M  V30 5938 H 545.978 0.827101 1.87028 0
M  V30 5939 H 544.133 -0.730203 3.80456 0
M  V30 5940 H 544.547 1.03368 5.14213 0
M  V30 5941 H 546.021 -0.642297 5.4825 0
M  V30 5942 H 546.498 -1.60713 4.0874 0
M  V30 5943 H 547.104 0.0568935 4.25262 0
M  V30 5944 N 545.419 -1.53889 0.339982 0
M  V30 5945 C 546.647 -2.05271 -0.259114 0
M  V30 5946 C 547.062 -1.21517 -1.44496 0
M  V30 5947 O 546.419 -0.24966 -1.80784 0
M  V30 5948 C 546.47 -3.55092 -0.677634 0
M  V30 5949 O 546.191 -4.35667 0.461051 0
M  V30 5950 C 547.692 -4.22631 -1.33782 0
M  V30 5951 H 544.912 -0.669085 -0.0506566 0
M  V30 5952 H 547.456 -1.9852 0.490935 0
M  V30 5953 H 545.611 -3.62077 -1.37763 0
M  V30 5954 H 546.025 -5.24343 0.128144 0
M  V30 5955 H 547.499 -5.28861 -1.58145 0
M  V30 5956 H 547.976 -3.74758 -2.29027 0
M  V30 5957 H 548.582 -4.19829 -0.679957 0
M  V30 5958 N 546.897 -0.0685191 -1.57451 0
M  V30 5959 C 548.125 0.610462 -1.97689 0
M  V30 5960 C 548.54 1.63346 -0.946758 0
M  V30 5961 O 547.897 1.82377 0.0669868 0
M  V30 5962 C 547.948 1.28196 -3.38006 0
M  V30 5963 O 547.669 0.299906 -4.37072 0
M  V30 5964 C 549.17 2.04907 -3.931 0
M  V30 5965 H 546.39 0.165689 -0.650222 0
M  V30 5966 H 548.934 -0.139953 -2.04021 0
M  V30 5967 H 547.089 1.98348 -3.32771 0
M  V30 5968 H 547.503 0.78126 -5.18649 0
M  V30 5969 H 548.977 2.47287 -4.93511 0
M  V30 5970 H 549.454 2.9043 -3.29465 0
M  V30 5971 H 550.06 1.39629 -4.01726 0
M  V30 5972 N 548.375 1.56261 0.205012 0
M  V30 5973 C 549.621 1.80306 0.9283 0
M  V30 5974 C 549.954 0.640932 1.83319 0
M  V30 5975 O 549.229 -0.359032 1.91158 0
M  V30 5976 C 549.512 3.14547 1.75306 0
M  V30 5977 C 549.365 4.41236 0.873562 0
M  V30 5978 C 550.684 3.45382 2.72762 0
M  V30 5979 H 547.803 0.655929 0.336044 0
M  V30 5980 H 550.445 1.88984 0.196211 0
M  V30 5981 H 548.595 3.0728 2.37721 0
M  V30 5982 H 550.267 4.60539 0.264887 0
M  V30 5983 H 548.51 4.33427 0.179773 0
M  V30 5984 H 549.181 5.31639 1.48541 0
M  V30 5985 H 551.657 3.52884 2.20481 0
M  V30 5986 H 550.533 4.40449 3.2756 0
M  V30 5987 H 550.794 2.68377 3.51321 0
M  V30 5988 N 549.853 -0.472356 1.50355 0
M  V30 5989 C 551.1 -1.22453 1.61281 0
M  V30 5990 C 551.428 -1.91972 0.31256 0
M  V30 5991 O 550.683 -1.82696 -0.701475 0
M  V30 5992 C 550.982 -2.29257 2.74182 0
M  V30 5993 C 550.648 -1.76999 4.14708 0
M  V30 5994 C 549.31 -1.62467 4.52944 0
M  V30 5995 C 551.662 -1.38215 5.0254 0
M  V30 5996 C 548.99 -1.07574 5.76754 0
M  V30 5997 C 551.342 -0.847638 6.26895 0
M  V30 5998 C 550.006 -0.688946 6.63935 0
M  V30 5999 H 549.276 -0.448087 0.590168 0
M  V30 6000 H 551.923 -0.520744 1.84284 0
M  V30 6001 H 550.228 -3.05538 2.45263 0
M  V30 6002 H 551.925 -2.87212 2.7984 0
M  V30 6003 H 548.515 -1.89276 3.84542 0
M  V30 6004 H 552.699 -1.48276 4.73633 0
M  V30 6005 H 547.955 -0.940237 6.04127 0
M  V30 6006 H 552.129 -0.538455 6.94315 0
M  V30 6007 H 549.756 -0.261435 7.5975 0
M  V30 6008 N 551.331 -1.39911 -0.725443 0
M  V30 6009 C 552.281 -1.35878 -1.83088 0
M  V30 6010 C 553.265 -0.237989 -1.5913 0
M  V30 6011 O 554.457 -0.476302 -1.70471 0
M  V30 6012 C 551.586 -1.21403 -3.21117 0
M  V30 6013 C 550.672 -2.38223 -3.50871 0
M  V30 6014 N 551.063 -3.63703 -3.51502 0
M  V30 6015 C 549.361 -2.31388 -3.81281 0
M  V30 6016 C 550.062 -4.4101 -3.79322 0
M  V30 6017 N 549.038 -3.7072 -3.97577 0
M  V30 6018 H 552.84 -2.3085 -1.81895 0
M  V30 6019 H 550.354 -1.33543 -0.924125 0
M  V30 6020 H 552.351 -1.16597 -4.00263 0
M  V30 6021 H 551.011 -0.273902 -3.23543 0
M  V30 6022 H 552.022 -3.96998 -3.32586 0
M  V30 6023 H 548.699 -1.45689 -3.91256 0
M  V30 6024 H 550.089 -5.49819 -3.86198 0
M  V30 6025 N 552.809 0.956637 -1.25245 0
M  V30 6026 C 553.739 2.07058 -1.07931 0
M  V30 6027 C 554.72 1.70096 0.0110361 0
M  V30 6028 O 555.905 1.93555 -0.158121 0
M  V30 6029 C 553.035 3.40272 -0.695124 0
M  V30 6030 C 551.989 3.91235 -1.73549 0
M  V30 6031 C 551.315 5.20921 -1.20604 0
M  V30 6032 C 552.615 4.17837 -3.13385 0
M  V30 6033 H 554.309 2.218 -2.01109 0
M  V30 6034 H 551.855 1.06581 -0.968326 0
M  V30 6035 H 553.808 4.1765 -0.560949 0
M  V30 6036 H 552.532 3.25462 0.272355 0
M  V30 6037 H 551.191 3.16025 -1.85807 0
M  V30 6038 H 550.839 5.02479 -0.228846 0
M  V30 6039 H 550.539 5.55987 -1.90136 0
M  V30 6040 H 552.063 6.00897 -1.08421 0
M  V30 6041 H 553.477 4.8588 -3.04292 0
M  V30 6042 H 551.874 4.64154 -3.80369 0
M  V30 6043 H 552.944 3.2419 -3.60595 0
M  V30 6044 N 554.287 1.06798 1.15896 0
M  V30 6045 C 555.534 0.787767 1.86549 0
M  V30 6046 C 555.862 -0.685959 1.82002 0
M  V30 6047 O 555.117 -1.5188 1.23414 0
M  V30 6048 C 555.416 1.23414 3.35416 0
M  V30 6049 C 555.082 2.71285 3.6016 0
M  V30 6050 C 553.744 3.11676 3.66622 0
M  V30 6051 C 556.096 3.6676 3.7032 0
M  V30 6052 C 553.424 4.4637 3.8075 0
M  V30 6053 C 555.776 5.01209 3.8597 0
M  V30 6054 C 554.44 5.41229 3.90676 0
M  V30 6055 H 553.71 0.288264 0.682631 0
M  V30 6056 H 556.357 1.338 1.37003 0
M  V30 6057 H 554.662 0.60319 3.87129 0
M  V30 6058 H 556.359 0.994298 3.88477 0
M  V30 6059 H 552.949 2.39015 3.55767 0
M  V30 6060 H 557.133 3.36685 3.64633 0
M  V30 6061 H 552.389 4.76855 3.82648 0
M  V30 6062 H 556.563 5.75067 3.92773 0
M  V30 6063 H 554.19 6.45602 4.01375 0
M  V30 6064 N 555.766 -1.3263 0.851289 0
M  V30 6065 C 557.182 -1.50162 0.5407 0
M  V30 6066 C 557.382 -1.78788 -0.929369 0
M  V30 6067 O 556.438 -1.85545 -1.71258 0
M  V30 6068 C 557.751 -2.64803 1.42478 0
M  V30 6069 C 559.299 -2.78688 1.42485 0
M  V30 6070 C 559.774 -3.96405 2.29407 0
M  V30 6071 N 561.265 -4.0366 2.27184 0
M  V30 6072 C 562 -4.93971 2.9117 0
M  V30 6073 N 561.496 -5.89313 3.64256 0
M  V30 6074 N 563.289 -4.87066 2.80576 0
M  V30 6075 H 555.44 -1.12315 1.80275 0
M  V30 6076 H 557.703 -0.553266 0.769806 0
M  V30 6077 H 557.409 -2.50368 2.46999 0
M  V30 6078 H 557.283 -3.60506 1.10974 0
M  V30 6079 H 559.67 -2.92547 0.387304 0
M  V30 6080 H 559.751 -1.83708 1.78002 0
M  V30 6081 H 559.395 -3.83304 3.33228 0
M  V30 6082 H 559.325 -4.90654 1.91224 0
M  V30 6083 H 561.816 -3.35435 1.74045 0
M  V30 6084 H 562.129 -6.54913 4.10255 0
M  V30 6085 H 560.474 -5.8935 3.68364 0
M  V30 6086 H 563.665 -4.11552 2.23031 0
M  V30 6087 H 563.838 -5.57248 3.30725 0
M  V30 6088 N 557.244 -0.608902 -1.45362 0
M  V30 6089 C 558.154 0.110969 -2.34337 0
M  V30 6090 C 559.17 0.859007 -1.51318 0
M  V30 6091 O 560.346 0.816296 -1.84116 0
M  V30 6092 C 557.411 1.09494 -3.28956 0
M  V30 6093 C 556.472 0.348718 -4.27881 0
M  V30 6094 C 555.705 1.28582 -5.17979 0
M  V30 6095 O 555.928 2.52369 -5.11533 0
M  V30 6096 O 554.862 0.782172 -5.96796 0
M  V30 6097 H 558.688 -0.620258 -2.97299 0
M  V30 6098 H 556.273 -0.36916 -1.44767 0
M  V30 6099 H 558.155 1.66163 -3.87257 0
M  V30 6100 H 556.83 1.80717 -2.68557 0
M  V30 6101 H 555.737 -0.260465 -3.73192 0
M  V30 6102 H 557.07 -0.323049 -4.91139 0
M  V30 6103 N 558.722 1.53707 -0.348139 0
M  V30 6104 C 559.947 2.05877 0.250883 0
M  V30 6105 C 560.372 1.22115 1.43072 0
M  V30 6106 O 559.73 0.235986 1.79758 0
M  V30 6107 C 559.778 3.54886 0.639416 0
M  V30 6108 O 558.882 3.73948 1.73888 0
M  V30 6109 H 558.223 0.662754 0.040653 0
M  V30 6110 H 560.753 1.98303 -0.503685 0
M  V30 6111 H 560.763 3.97601 0.915295 0
M  V30 6112 H 559.438 4.153 -0.223386 0
M  V30 6113 H 558.015 3.43134 1.45991 0
M  V30 6114 N 560.2 0.0768682 1.57412 0
M  V30 6115 C 561.477 -0.632359 1.85096 0
M  V30 6116 C 561.857 -1.87479 0.9703 0
M  V30 6117 O 561.205 -2.28469 0.0379062 0
M  V30 6118 C 561.415 -0.965174 3.35388 0
M  V30 6119 C 562.763 -1.33648 4.03018 0
M  V30 6120 O 563.787 -1.05675 3.40164 0
M  V30 6121 O 562.646 -1.85959 5.13889 0
M  V30 6122 H 559.74 -0.314574 0.764835 0
M  V30 6123 H 562.286 0.108184 1.69355 0
M  V30 6124 H 561.058 -0.0829745 3.91212 0
M  V30 6125 H 560.681 -1.76231 3.5641 0
M  V30 6126 N 561.678 -1.56367 -0.196722 0
M  V30 6127 C 562.903 -1.84991 -0.937714 0
M  V30 6128 C 563.328 -0.660244 -1.76132 0
M  V30 6129 O 562.686 0.390967 -1.77034 0
M  V30 6130 C 562.734 -3.11828 -1.81096 0
M  V30 6131 O 561.838 -2.92266 -2.90955 0
M  V30 6132 H 561.179 -0.609193 -0.264159 0
M  V30 6133 H 563.709 -2.03595 -0.202529 0
M  V30 6134 H 563.719 -3.42579 -2.21594 0
M  V30 6135 H 562.394 -3.98037 -1.2058 0
M  V30 6136 H 560.971 -2.72809 -2.54224 0
M  V30 6137 N 563.156 0.464375 -1.50603 0
M  V30 6138 C 564.086 1.56944 -1.72889 0
M  V30 6139 C 565.067 1.59979 -0.577997 0
M  V30 6140 O 566.252 1.76138 -0.817855 0
M  V30 6141 C 563.382 2.95225 -1.8292 0
M  V30 6142 C 562.336 3.07056 -2.98162 0
M  V30 6143 C 561.662 4.47051 -2.93343 0
M  V30 6144 C 562.962 2.83648 -4.38567 0
M  V30 6145 H 564.656 1.38547 -2.65415 0
M  V30 6146 H 562.202 0.665082 -1.27721 0
M  V30 6147 H 564.155 3.72467 -1.97095 0
M  V30 6148 H 562.879 3.14793 -0.870209 0
M  V30 6149 H 561.538 2.32248 -2.83648 0
M  V30 6150 H 561.186 4.63547 -1.95276 0
M  V30 6151 H 560.886 4.55902 -3.70712 0
M  V30 6152 H 562.41 5.26304 -3.09575 0
M  V30 6153 H 563.824 3.50636 -4.53572 0
M  V30 6154 H 562.221 3.03937 -5.17438 0
M  V30 6155 H 563.291 1.79451 -4.50472 0
M  V30 6156 N 564.634 1.40294 0.718013 0
M  V30 6157 C 565.862 1.4175 1.50714 0
M  V30 6158 C 566.277 0.0165366 1.88793 0
M  V30 6159 O 565.634 -0.958942 1.55276 0
M  V30 6160 C 565.685 2.30598 2.784 0
M  V30 6161 O 565.406 3.6524 2.41932 0
M  V30 6162 C 566.907 2.4062 3.72313 0
M  V30 6163 H 564.127 0.483565 0.465194 0
M  V30 6164 H 566.671 1.84316 0.885889 0
M  V30 6165 H 564.826 1.91401 3.36815 0
M  V30 6166 H 565.24 4.12402 3.24076 0
M  V30 6167 H 566.714 3.07001 4.58753 0
M  V30 6168 H 567.191 1.4305 4.15251 0
M  V30 6169 H 567.797 2.80359 3.19811 0
M  V30 6170 N 566.112 -0.949982 1.2575 0
M  V30 6171 C 567.022 -2.08109 1.08295 0
M  V30 6172 C 568.038 -1.7399 0.0188181 0
M  V30 6173 O 569.214 -2.00187 0.220724 0
M  V30 6174 C 566.279 -3.39383 0.708534 0
M  V30 6175 C 565.34 -3.8734 1.85111 0
M  V30 6176 C 564.573 -5.12349 1.49447 0
M  V30 6177 O 564.796 -5.6905 0.392212 0
M  V30 6178 O 563.73 -5.5513 2.32624 0
M  V30 6179 H 567.556 -2.25738 2.03165 0
M  V30 6180 H 565.141 -1.06545 1.04731 0
M  V30 6181 H 567.023 -4.18277 0.512061 0
M  V30 6182 H 565.698 -3.23013 -0.210854 0
M  V30 6183 H 564.605 -3.09429 2.10248 0
M  V30 6184 H 565.938 -4.08216 2.74991 0
M  V30 6185 N 567.59 -1.07411 -1.15328 0
M  V30 6186 C 568.82 -0.817595 -1.89734 0
M  V30 6187 C 569.228 0.63297 -1.78298 0
M  V30 6188 O 568.571 1.44594 -1.13306 0
M  V30 6189 C 568.633 -1.14748 -3.40695 0
M  V30 6190 C 568.297 -2.59876 -3.75917 0
M  V30 6191 C 569.294 -3.58122 -3.76888 0
M  V30 6192 C 566.979 -2.95469 -4.06206 0
M  V30 6193 C 568.973 -4.89996 -4.07655 0
M  V30 6194 C 566.66 -4.2754 -4.36638 0
M  V30 6195 C 567.658 -5.24614 -4.37344 0
M  V30 6196 O 567.346 -6.54312 -4.67045 0
M  V30 6197 H 567.078 -0.295175 -0.608151 0
M  V30 6198 H 569.632 -1.43409 -1.47048 0
M  V30 6199 H 567.862 -0.47395 -3.83785 0
M  V30 6200 H 569.551 -0.873397 -3.96392 0
M  V30 6201 H 570.317 -3.31966 -3.53587 0
M  V30 6202 H 566.196 -2.20558 -4.04815 0
M  V30 6203 H 569.74 -5.65759 -4.08121 0
M  V30 6204 H 565.637 -4.53449 -4.59407 0
M  V30 6205 H 566.405 -6.59473 -4.84807 0
M  V30 6206 N 569.068 1.32177 -0.85831 0
M  V30 6207 C 570 2.27688 -0.262835 0
M  V30 6208 C 571.013 1.52588 0.567513 0
M  V30 6209 O 572.202 1.74156 0.391407 0
M  V30 6210 C 569.302 3.32668 0.646937 0
M  V30 6211 C 568.475 4.37148 -0.148372 0
M  V30 6212 C 567.534 5.21686 0.687728 0
M  V30 6213 O 566.56 5.69074 0.119934 0
M  V30 6214 N 567.762 5.44892 2.00182 0
M  V30 6215 H 570.527 2.79426 -1.08356 0
M  V30 6216 H 568.088 1.45076 -0.718647 0
M  V30 6217 H 570.08 3.86134 1.2117 0
M  V30 6218 H 568.65 2.81061 1.36834 0
M  V30 6219 H 567.87 3.83915 -0.894572 0
M  V30 6220 H 569.158 5.04038 -0.694514 0
M  V30 6221 H 568.556 5.08128 2.4864 0
M  V30 6222 H 567.113 6.0134 2.51463 0
M  V30 6223 N 570.547 0.616602 1.45037 0
M  V30 6224 C 571.477 -0.0840787 2.33349 0
M  V30 6225 C 572.458 -0.849641 1.4736 0
M  V30 6226 O 573.643 -0.818407 1.76113 0
M  V30 6227 C 570.773 -1.07604 3.3021 0
M  V30 6228 C 569.727 -0.423096 4.25904 0
M  V30 6229 C 569.053 -1.52394 5.12523 0
M  V30 6230 C 570.353 0.661457 5.18095 0
M  V30 6231 H 572.047 0.653333 2.92185 0
M  V30 6232 H 569.593 0.315634 1.40498 0
M  V30 6233 H 571.546 -1.57485 3.90866 0
M  V30 6234 H 570.27 -1.84416 2.69552 0
M  V30 6235 H 568.929 0.05493 3.66559 0
M  V30 6236 H 568.577 -2.28257 4.48227 0
M  V30 6237 H 568.277 -1.09251 5.77354 0
M  V30 6238 H 569.801 -2.02485 5.76049 0
M  V30 6239 H 571.215 0.246353 5.7277 0
M  V30 6240 H 569.612 1.01517 5.91451 0
M  V30 6241 H 570.682 1.53446 4.59981 0
M  V30 6242 N 572.025 -1.5352 0.356285 0
M  V30 6243 C 573.265 -2.03027 -0.23649 0
M  V30 6244 C 573.629 -1.23813 -1.46746 0
M  V30 6245 O 574.83 -1.63281 -2.13525 0
M  V30 6246 C 573.101 -3.53442 -0.530415 0
M  V30 6247 S 574.66 -4.24836 -1.09819 0
M  V30 6248 H 571.478 -0.707591 -0.0695378 0
M  V30 6249 H 574.08 -1.89077 0.496999 0
M  V30 6250 H 572.784 -4.087 0.373114 0
M  V30 6251 H 572.315 -3.71536 -1.29323 0
M  V30 6252 H 574.33 -4.35228 -2.38309 0
M  V30 6253 N 573.503 -0.0852151 -1.57369 0
M  V30 6254 C 574.435 0.907099 -2.10486 0
M  V30 6255 C 575.448 1.25259 -1.03991 0
M  V30 6256 O 576.637 1.20743 -1.31467 0
M  V30 6257 C 573.737 2.21908 -2.56145 0
M  V30 6258 C 572.91 2.05042 -3.86363 0
M  V30 6259 C 571.969 3.19664 -4.17973 0
M  V30 6260 O 570.995 2.94062 -4.87356 0
M  V30 6261 N 572.197 4.45151 -3.72587 0
M  V30 6262 H 574.962 0.453505 -2.96249 0
M  V30 6263 H 572.523 0.100157 -1.6159 0
M  V30 6264 H 574.515 2.97519 -2.74343 0
M  V30 6265 H 573.085 2.58723 -1.75446 0
M  V30 6266 H 572.305 1.13819 -3.77411 0
M  V30 6267 H 573.593 1.91039 -4.71574 0
M  V30 6268 H 572.991 4.68834 -3.16561 0
M  V30 6269 H 571.548 5.17744 -3.9596 0
M  V30 6270 N 574.981 1.5647 0.188427 0
M  V30 6271 C 575.928 1.95073 1.23349 0
M  V30 6272 C 576.898 0.812238 1.44886 0
M  V30 6273 O 578.083 1.07095 1.57909 0
M  V30 6274 C 575.223 2.30124 2.57171 0
M  V30 6275 C 574.336 3.57069 2.43157 0
M  V30 6276 C 573.471 3.81411 3.69729 0
M  V30 6277 C 572.51 5.0176 3.50575 0
M  V30 6278 N 571.647 5.22321 4.69175 0
M  V30 6279 H 576.487 2.84171 0.89728 0
M  V30 6280 H 574.024 1.40623 0.431683 0
M  V30 6281 H 575.982 2.48463 3.35145 0
M  V30 6282 H 574.612 1.44159 2.88822 0
M  V30 6283 H 573.664 3.4674 1.56447 0
M  V30 6284 H 574.976 4.452 2.24942 0
M  V30 6285 H 574.13 4.00026 4.56141 0
M  V30 6286 H 572.869 2.91624 3.90905 0
M  V30 6287 H 571.874 4.83061 2.62549 0
M  V30 6288 H 573.099 5.93063 3.30837 0
M  V30 6289 H 571.045 4.35483 4.90602 0
M  V30 6290 H 570.962 6.04643 4.53809 0
M  V30 6291 H 572.23 5.45401 5.56919 0
M  V30 6292 N 576.459 -0.456382 1.50847 0
M  V30 6293 C 577.707 -1.20497 1.62249 0
M  V30 6294 C 578.028 -1.92156 0.331839 0
M  V30 6295 O 577.298 -1.84751 -0.651443 0
M  V30 6296 H 575.878 -0.447775 0.597918 0
M  V30 6297 H 578.54 -0.525099 1.87693 0
M  V30 6298 H 577.636 -1.94492 2.44089 0
M  V30 6299 N 577.937 -1.40673 -0.710563 0
M  V30 6300 C 579.214 -1.29718 -1.46398 0
M  V30 6301 C 579.594 0.082177 -2.1094 0
M  V30 6302 O 578.942 1.09536 -2.00534 0
M  V30 6303 C 579.152 -2.43967 -2.49562 0
M  V30 6304 C 580.5 -2.84436 -3.15248 0
M  V30 6305 O 581.524 -2.43597 -2.59883 0
M  V30 6306 O 580.383 -3.55008 -4.1549 0
M  V30 6307 H 577.477 -0.509697 -0.651258 0
M  V30 6308 H 580.023 -1.52603 -0.742312 0
M  V30 6309 H 578.795 -3.36076 -2.0042 0
M  V30 6310 H 578.418 -2.22879 -3.29258 0
M  V30 6311 N 579.415 0.9433 -1.26252 0
M  V30 6312 C 580.643 1.72367 -1.14443 0
M  V30 6313 C 581.058 1.86392 0.300572 0
M  V30 6314 O 580.415 1.36978 1.20596 0
M  V30 6315 C 580.466 3.13155 -1.806 0
M  V30 6316 O 580.187 2.99803 -3.19452 0
M  V30 6317 C 581.688 4.07417 -1.74717 0
M  V30 6318 H 578.908 0.539758 -0.398626 0
M  V30 6319 H 581.452 1.18268 -1.66832 0
M  V30 6320 H 579.607 3.64162 -1.32154 0
M  V30 6321 H 580.021 3.88697 -3.52158 0
M  V30 6322 H 581.495 5.03773 -2.25647 0
M  V30 6323 H 581.972 4.3337 -0.713244 0
M  V30 6324 H 582.578 3.6233 -2.22704 0
M  V30 6325 N 580.893 1.08022 1.14757 0
M  V30 6326 C 582.123 0.827646 1.89298 0
M  V30 6327 C 582.531 -0.623506 1.78631 0
M  V30 6328 O 581.874 -1.43991 1.14071 0
M  V30 6329 C 581.936 1.16553 3.40082 0
M  V30 6330 C 581.6 2.61866 3.74533 0
M  V30 6331 C 582.597 3.60116 3.74984 0
M  V30 6332 C 580.282 2.97619 4.04633 0
M  V30 6333 C 582.276 4.92151 4.05051 0
M  V30 6334 C 579.963 4.2985 4.34364 0
M  V30 6335 C 580.961 5.26926 4.34555 0
M  V30 6336 O 580.649 6.5678 4.63568 0
M  V30 6337 H 580.381 0.298396 0.606577 0
M  V30 6338 H 582.935 1.44187 1.46285 0
M  V30 6339 H 581.165 0.494296 3.83528 0
M  V30 6340 H 582.854 0.894407 3.95923 0
M  V30 6341 H 583.62 3.33837 3.51821 0
M  V30 6342 H 579.499 2.22702 4.03639 0
M  V30 6343 H 583.043 5.67915 4.05115 0
M  V30 6344 H 578.94 4.55879 4.56995 0
M  V30 6345 H 579.708 6.62035 4.81303 0
M  V30 6346 N 582.371 -1.3172 0.865308 0
M  V30 6347 C 583.601 -2.00765 0.487543 0
M  V30 6348 C 584.009 -1.65145 -0.92325 0
M  V30 6349 O 583.352 -0.874294 -1.61561 0
M  V30 6350 C 583.414 -3.55122 0.559369 0
M  V30 6351 C 583.078 -4.14202 1.93095 0
M  V30 6352 C 584.075 -4.3165 2.89784 0
M  V30 6353 C 581.76 -4.50036 2.23099 0
M  V30 6354 C 583.754 -4.84114 4.14623 0
M  V30 6355 C 581.441 -5.02203 3.48189 0
M  V30 6356 C 582.439 -5.19192 4.43767 0
M  V30 6357 O 582.127 -5.70241 5.6664 0
M  V30 6358 H 581.859 -0.649066 0.188915 0
M  V30 6359 H 584.413 -1.69032 1.16694 0
M  V30 6360 H 582.643 -3.86295 -0.176926 0
M  V30 6361 H 584.332 -4.05428 0.195694 0
M  V30 6362 H 585.098 -4.04288 2.6791 0
M  V30 6363 H 580.977 -4.36091 1.49485 0
M  V30 6364 H 584.521 -4.9729 4.89233 0
M  V30 6365 H 580.418 -5.28997 3.69908 0
M  V30 6366 H 581.186 -5.88617 5.68746 0
M  V30 6367 N 583.85 -0.624285 -1.44708 0
M  V30 6368 C 585.096 -0.126051 -2.02107 0
M  V30 6369 C 585.425 1.2496 -1.49048 0
M  V30 6370 O 584.68 1.84163 -0.662005 0
M  V30 6371 C 584.979 -0.0546353 -3.57358 0
M  V30 6372 C 584.644 -1.36815 -4.29642 0
M  V30 6373 C 583.307 -1.72792 -4.49106 0
M  V30 6374 C 585.659 -2.23549 -4.70824 0
M  V30 6375 C 582.986 -2.95222 -5.07012 0
M  V30 6376 C 585.339 -3.45243 -5.30085 0
M  V30 6377 C 584.003 -3.81452 -5.47769 0
M  V30 6378 H 583.273 -0.0461252 -0.739563 0
M  V30 6379 H 585.92 -0.809236 -1.73562 0
M  V30 6380 H 584.225 0.711891 -3.85278 0
M  V30 6381 H 585.922 0.347282 -3.99493 0
M  V30 6382 H 582.512 -1.07817 -4.14817 0
M  V30 6383 H 586.696 -1.9705 -4.55505 0
M  V30 6384 H 581.952 -3.23361 -5.18891 0
M  V30 6385 H 586.125 -4.12689 -5.60946 0
M  V30 6386 H 583.753 -4.76403 -5.92405 0
M  V30 6387 N 585.328 1.53329 -0.364422 0
M  V30 6388 C 586.558 2.05359 0.226096 0
M  V30 6389 C 586.966 1.23777 1.43094 0
M  V30 6390 O 586.309 0.271139 1.81688 0
M  V30 6391 C 586.371 3.52918 0.684794 0
M  V30 6392 C 586.035 4.55218 -0.403206 0
M  V30 6393 C 587.032 5.04583 -1.2527 0
M  V30 6394 C 584.717 4.99134 -0.563117 0
M  V30 6395 C 586.711 5.96463 -2.24745 0
M  V30 6396 C 584.398 5.9082 -1.56124 0
M  V30 6397 C 585.396 6.39375 -2.40184 0
M  V30 6398 O 585.084 7.29255 -3.38293 0
M  V30 6399 H 584.816 0.674588 0.0436772 0
M  V30 6400 H 587.37 1.98688 -0.520782 0
M  V30 6401 H 585.6 3.57122 1.48326 0
M  V30 6402 H 587.289 3.87812 1.19818 0
M  V30 6403 H 588.055 4.71403 -1.14034 0
M  V30 6404 H 583.934 4.60928 0.0813909 0
M  V30 6405 H 587.478 6.34285 -2.90393 0
M  V30 6406 H 583.375 6.23414 -1.67407 0
M  V30 6407 H 584.143 7.47249 -3.34009 0
M  V30 6408 N 586.806 0.0935595 1.57322 0
M  V30 6409 C 587.716 -0.880192 2.17462 0
M  V30 6410 C 588.732 -1.31135 1.14366 0
M  V30 6411 O 589.908 -1.37958 1.46729 0
M  V30 6412 C 586.973 -2.12184 2.74188 0
M  V30 6413 C 586.034 -1.74503 3.92234 0
M  V30 6414 C 585.267 -2.92748 4.46245 0
M  V30 6415 O 585.49 -4.07427 3.99198 0
M  V30 6416 O 584.424 -2.71303 5.37288 0
M  V30 6417 H 588.25 -0.398516 3.01074 0
M  V30 6418 H 585.835 -0.130707 1.48827 0
M  V30 6419 H 587.717 -2.84953 3.10451 0
M  V30 6420 H 586.392 -2.59407 1.93623 0
M  V30 6421 H 585.299 -0.989186 3.60785 0
M  V30 6422 H 586.632 -1.32044 4.74157 0
M  V30 6423 N 588.284 -1.56567 -0.180126 0
M  V30 6424 C 589.509 -1.85975 -0.918041 0
M  V30 6425 C 589.934 -0.678888 -1.75422 0
M  V30 6426 O 589.292 0.372168 -1.77439 0
M  V30 6427 C 589.34 -3.13731 -1.77779 0
M  V30 6428 O 588.444 -2.95335 -2.87838 0
M  V30 6429 H 587.785 -0.61196 -0.257683 0
M  V30 6430 H 590.315 -2.03798 -0.180923 0
M  V30 6431 H 590.325 -3.4491 -2.17948 0
M  V30 6432 H 589 -3.99293 -1.16352 0
M  V30 6433 H 587.577 -2.7549 -2.51316 0
M  V30 6434 N 589.762 0.448376 -1.51087 0
M  V30 6435 C 590.987 1.22605 -1.6728 0
M  V30 6436 C 591.412 1.84524 -0.365045 0
M  V30 6437 O 590.77 1.6832 0.673642 0
M  V30 6438 C 590.818 2.29393 -2.78229 0
M  V30 6439 O 589.922 3.34608 -2.41063 0
M  V30 6440 H 589.263 0.359705 -0.558129 0
M  V30 6441 H 591.793 0.530903 -1.97592 0
M  V30 6442 H 591.803 2.74352 -3.01986 0
M  V30 6443 H 590.478 1.83701 -3.73131 0
M  V30 6444 H 589.055 2.95202 -2.27838 0
M  V30 6445 N 591.24 1.41047 0.703093 0
M  V30 6446 C 592.188 1.42494 1.83843 0
M  V30 6447 C 593.182 0.303885 1.66652 0
M  V30 6448 O 594.388 0.475544 1.73605 0
M  V30 6449 H 590.763 0.445685 0.605697 0
M  V30 6450 H 592.734 2.38194 1.79739 0
M  V30 6451 C 591.483 1.31666 3.21807 0
M  V30 6452 H 590.806 2.17212 3.35647 0
M  V30 6453 H 592.246 1.36738 4.01346 0
M  V30 6454 C 590.705 0.0281828 3.36888 0
M  V30 6455 O 591.235 -0.929995 3.90786 0
M  V30 6456 N 589.441 -0.0454322 2.90564 0
M  V30 6457 H 588.988 0.735046 2.4689 0
M  V30 6458 H 588.946 -0.906968 3.01034 0
M  V30 6459 N 592.718 -0.936591 1.26751 0
M  V30 6460 C 593.648 -2.05315 1.11212 0
M  V30 6461 C 594.629 -1.70092 0.0160262 0
M  V30 6462 O 595.814 -1.93279 0.188894 0
M  V30 6463 C 592.944 -3.39123 0.749171 0
M  V30 6464 C 591.898 -3.88425 1.79751 0
M  V30 6465 C 591.224 -5.18936 1.28876 0
M  V30 6466 C 592.524 -4.12798 3.19992 0
M  V30 6467 H 594.218 -2.18573 2.04613 0
M  V30 6468 H 591.764 -1.05027 0.985159 0
M  V30 6469 H 593.717 -4.16704 0.627323 0
M  V30 6470 H 592.441 -3.25855 -0.220543 0
M  V30 6471 H 591.1 -3.13028 1.90811 0
M  V30 6472 H 590.748 -5.02051 0.308757 0
M  V30 6473 H 590.448 -5.52892 1.98958 0
M  V30 6474 H 591.972 -5.99096 1.17967 0
M  V30 6475 H 593.386 -4.80977 3.11983 0
M  V30 6476 H 591.783 -4.58044 3.87705 0
M  V30 6477 H 592.853 -3.18412 3.65707 0
M  V30 6478 N 594.196 -1.08629 -1.14182 0
M  V30 6479 C 595.424 -0.838889 -1.8913 0
M  V30 6480 C 595.839 0.609153 -1.78703 0
M  V30 6481 O 595.196 1.41876 -1.14794 0
M  V30 6482 C 595.247 -1.25477 -3.39025 0
M  V30 6483 O 594.968 -2.64601 -3.49167 0
M  V30 6484 C 596.469 -1.03856 -4.30963 0
M  V30 6485 H 593.689 -0.302377 -0.599007 0
M  V30 6486 H 596.233 -1.44615 -1.44592 0
M  V30 6487 H 594.388 -0.691571 -3.81177 0
M  V30 6488 H 594.802 -2.81922 -4.42289 0
M  V30 6489 H 596.276 -1.37892 -5.345 0
M  V30 6490 H 596.753 0.0242522 -4.39193 0
M  V30 6491 H 597.359 -1.58731 -3.94569 0
M  V30 6492 N 595.674 1.31259 -0.872281 0
M  V30 6493 C 596.622 2.30404 -0.318897 0
M  V30 6494 C 597.616 1.5962 0.567267 0
M  V30 6495 O 598.822 1.74204 0.453111 0
M  V30 6496 H 595.197 0.747243 -0.0844474 0
M  V30 6497 H 597.168 2.74549 -1.16899 0
M  V30 6498 C 595.917 3.44608 0.462683 0
M  V30 6499 H 595.24 3.99248 -0.209936 0
M  V30 6500 H 596.68 4.1609 0.815187 0
M  V30 6501 C 595.139 2.93456 1.65485 0
M  V30 6502 O 595.669 2.92418 2.75417 0
M  V30 6503 N 593.875 2.49628 1.48776 0
M  V30 6504 H 593.422 2.50671 0.593452 0
M  V30 6505 H 593.38 2.15759 2.28682 0
M  V30 6506 N 597.152 0.631951 1.44375 0
M  V30 6507 C 598.429 0.067646 1.95483 0
M  V30 6508 C 598.809 -1.40683 1.57389 0
M  V30 6509 O 598.157 -2.12167 0.848375 0
M  V30 6510 C 598.367 0.291392 3.47781 0
M  V30 6511 C 599.715 0.185028 4.24197 0
M  V30 6512 O 600.739 0.222803 3.55503 0
M  V30 6513 O 599.598 0.0906642 5.46425 0
M  V30 6514 H 596.692 -0.0218379 0.826712 0
M  V30 6515 H 599.238 0.703711 1.54421 0
M  V30 6516 H 598.01 1.31449 3.68561 0
M  V30 6517 H 597.633 -0.378772 3.95792 0
M  V30 6518 N 598.631 -1.53133 0.372548 0
M  V30 6519 C 599.88 -2.00539 -0.216115 0
M  V30 6520 C 600.193 -1.26374 -1.49295 0
M  V30 6521 O 601.399 -1.64404 -2.16064 0
M  V30 6522 C 599.855 -3.57253 -0.435678 0
M  V30 6523 C 599.463 -4.40302 0.82693 0
M  V30 6524 C 601.207 -4.12995 -0.981618 0
M  V30 6525 C 599.114 -5.88583 0.576567 0
M  V30 6526 H 598.044 -0.749246 -0.084536 0
M  V30 6527 H 600.695 -1.76771 0.492364 0
M  V30 6528 H 599.077 -3.77202 -1.20559 0
M  V30 6529 H 600.251 -4.32124 1.60017 0
M  V30 6530 H 598.566 -3.95699 1.29659 0
M  V30 6531 H 601.163 -5.21418 -1.18436 0
M  V30 6532 H 601.506 -3.68027 -1.94581 0
M  V30 6533 H 602.039 -3.96871 -0.271696 0
M  V30 6534 H 598.778 -6.37841 1.51128 0
M  V30 6535 H 598.298 -5.99592 -0.158047 0
M  V30 6536 H 599.977 -6.46676 0.204722 0
M  V30 6537 N 600.109 -0.101901 -1.5727 0
M  V30 6538 C 601.339 0.567568 -1.98651 0
M  V30 6539 C 601.747 1.61839 -0.980037 0
M  V30 6540 O 601.09 1.83661 0.0376564 0
M  V30 6541 C 601.152 1.26742 -3.36417 0
M  V30 6542 C 600.816 0.366561 -4.55528 0
M  V30 6543 C 601.813 -0.388022 -5.1845 0
M  V30 6544 C 599.498 0.282629 -5.01504 0
M  V30 6545 C 601.492 -1.21445 -6.25724 0
M  V30 6546 C 599.179 -0.547443 -6.08643 0
M  V30 6547 C 600.177 -1.29462 -6.70618 0
M  V30 6548 O 599.865 -2.11095 -7.7569 0
M  V30 6549 H 599.597 0.156282 -0.657687 0
M  V30 6550 H 602.151 -0.179912 -2.04611 0
M  V30 6551 H 600.381 2.06162 -3.27161 0
M  V30 6552 H 602.07 1.8321 -3.622 0
M  V30 6553 H 602.836 -0.332949 -4.83856 0
M  V30 6554 H 598.715 0.853868 -4.53023 0
M  V30 6555 H 602.259 -1.79814 -6.74027 0
M  V30 6556 H 598.156 -0.603971 -6.42668 0
M  V30 6557 H 598.924 -2.03851 -7.92709 0
M  V30 6558 N 601.587 1.56661 0.17182 0
M  V30 6559 C 602.55 1.9549 1.19651 0
M  V30 6560 C 603.55 0.838501 1.37207 0
M  V30 6561 O 604.74 1.10556 1.34622 0
M  V30 6562 C 601.872 2.24927 2.56166 0
M  V30 6563 H 603.065 2.87184 0.864007 0
M  V30 6564 H 600.618 1.50711 0.41425 0
M  V30 6565 H 601.353 1.35944 2.94431 0
M  V30 6566 H 601.138 3.06301 2.4479 0
M  V30 6567 H 602.628 2.55891 3.30014 0
M  V30 6568 N 603.065 -0.440357 1.51323 0
M  V30 6569 C 604.313 -1.18769 1.63518 0
M  V30 6570 C 604.634 -1.91793 0.352201 0
M  V30 6571 O 603.904 -1.85432 -0.631811 0
M  V30 6572 H 602.484 -0.441408 0.602634 0
M  V30 6573 H 605.146 -0.505162 1.8824 0
M  V30 6574 H 604.242 -1.91892 2.46138 0
M  V30 6575 N 604.543 -1.41418 -0.695603 0
M  V30 6576 C 605.453 -1.45622 -1.83933 0
M  V30 6577 C 606.469 -0.346825 -1.70508 0
M  V30 6578 O 607.645 -0.59454 -1.92424 0
M  V30 6579 C 604.71 -1.33627 -3.19914 0
M  V30 6580 C 603.771 -2.54882 -3.45447 0
M  V30 6581 C 603.004 -2.43449 -4.7494 0
M  V30 6582 O 603.227 -1.45905 -5.51424 0
M  V30 6583 O 602.161 -3.33206 -5.01256 0
M  V30 6584 H 605.987 -2.42114 -1.83342 0
M  V30 6585 H 603.572 -1.22956 -0.848658 0
M  V30 6586 H 605.454 -1.29221 -4.01098 0
M  V30 6587 H 604.129 -0.402508 -3.21188 0
M  V30 6588 H 603.036 -2.64865 -2.64192 0
M  V30 6589 H 604.369 -3.47087 -3.48987 0
M  V30 6590 N 606.021 0.929856 -1.27246 0
M  V30 6591 C 607.246 1.71674 -1.16374 0
M  V30 6592 C 607.671 1.86064 0.276024 0
M  V30 6593 O 607.029 1.3591 1.19992 0
M  V30 6594 C 607.077 3.09526 -1.85003 0
M  V30 6595 O 606.181 3.96142 -1.14653 0
M  V30 6596 H 605.522 0.52629 -0.404863 0
M  V30 6597 H 608.052 1.16381 -1.68276 0
M  V30 6598 H 608.062 3.59852 -1.92276 0
M  V30 6599 H 606.737 2.98369 -2.89739 0
M  V30 6600 H 605.314 3.54584 -1.15433 0
M  V30 6601 N 607.499 1.09233 1.13605 0
M  V30 6602 C 608.724 0.849067 1.89224 0
M  V30 6603 C 609.149 -0.593875 1.78479 0
M  V30 6604 O 608.507 -1.41703 1.13092 0
M  V30 6605 C 608.555 1.28642 3.36873 0
M  V30 6606 O 607.659 0.44363 4.10007 0
M  V30 6607 H 607 0.30767 0.588417 0
M  V30 6608 H 609.53 1.45595 1.43748 0
M  V30 6609 H 609.54 1.27096 3.87699 0
M  V30 6610 H 608.215 2.33729 3.44011 0
M  V30 6611 H 606.792 0.523241 3.69211 0
M  V30 6612 N 608.977 -1.30795 0.87923 0
M  V30 6613 C 610.224 -1.96362 0.494786 0
M  V30 6614 C 610.552 -1.69448 -0.954868 0
M  V30 6615 O 609.807 -0.988711 -1.68888 0
M  V30 6616 C 610.106 -3.50287 0.709476 0
M  V30 6617 C 609.772 -3.9724 2.13333 0
M  V30 6618 C 608.434 -4.09772 2.52271 0
M  V30 6619 C 610.786 -4.21807 3.06151 0
M  V30 6620 C 608.114 -4.44227 3.83248 0
M  V30 6621 C 610.466 -4.5773 4.36654 0
M  V30 6622 C 609.13 -4.68469 4.75492 0
M  V30 6623 H 608.4 -0.71854 0.181055 0
M  V30 6624 H 611.047 -1.55764 1.11399 0
M  V30 6625 H 609.352 -3.91799 0.0072 0
M  V30 6626 H 611.049 -3.99082 0.391703 0
M  V30 6627 H 607.639 -3.87988 1.82107 0
M  V30 6628 H 611.823 -4.11611 2.77291 0
M  V30 6629 H 607.079 -4.50741 4.13089 0
M  V30 6630 H 611.253 -4.7569 5.08617 0
M  V30 6631 H 608.88 -4.94923 5.77022 0
M  V30 6632 N 610.455 -0.639598 -1.44038 0
M  V30 6633 C 611.702 -0.14748 -2.01962 0
M  V30 6634 C 612.03 1.23372 -1.50365 0
M  V30 6635 O 611.285 1.8345 -0.681501 0
M  V30 6636 C 611.584 -0.0925348 -3.5728 0
M  V30 6637 C 611.25 -1.41365 -4.28167 0
M  V30 6638 C 609.912 -1.77545 -4.47248 0
M  V30 6639 C 612.264 -2.2853 -4.68427 0
M  V30 6640 C 609.592 -3.00583 -5.03852 0
M  V30 6641 C 611.944 -3.50846 -5.26393 0
M  V30 6642 C 610.608 -3.8724 -5.43692 0
M  V30 6643 H 609.878 -0.0539666 -0.739032 0
M  V30 6644 H 612.525 -0.827599 -1.72694 0
M  V30 6645 H 610.83 0.670987 -3.86012 0
M  V30 6646 H 612.527 0.304891 -3.99839 0
M  V30 6647 H 609.117 -1.1221 -4.13651 0
M  V30 6648 H 613.301 -2.0187 -4.5339 0
M  V30 6649 H 608.557 -3.28846 -5.15432 0
M  V30 6650 H 612.731 -4.18616 -5.56537 0
M  V30 6651 H 610.358 -4.8266 -5.87319 0
M  V30 6652 N 611.933 1.52934 -0.380664 0
M  V30 6653 C 612.881 2.27727 0.47361 0
M  V30 6654 C 613.875 1.31288 1.0705 0
M  V30 6655 O 615.081 1.4886 1.01197 0
M  V30 6656 H 611.456 0.732189 0.171475 0
M  V30 6657 H 613.427 2.97864 -0.178785 0
M  V30 6658 C 612.176 3.0904 1.59341 0
M  V30 6659 H 611.499 3.831 1.14343 0
M  V30 6660 H 612.939 3.64527 2.16555 0
M  V30 6661 C 611.398 2.20813 2.54447 0
M  V30 6662 O 611.928 1.82907 3.57642 0
M  V30 6663 N 610.134 1.85145 2.23986 0
M  V30 6664 H 609.681 2.16169 1.40103 0
M  V30 6665 H 609.639 1.26402 2.87871 0
M  V30 6666 N 613.412 0.11024 1.57214 0
M  V30 6667 C 614.359 -0.843195 2.14846 0
M  V30 6668 C 615.329 -1.26954 1.07107 0
M  V30 6669 O 616.514 -1.34861 1.34971 0
M  V30 6670 C 613.654 -2.09123 2.74521 0
M  V30 6671 C 612.767 -1.71404 3.96541 0
M  V30 6672 C 611.902 -2.91107 4.44331 0
M  V30 6673 C 610.941 -2.49586 5.58903 0
M  V30 6674 N 610.078 -3.62175 6.01477 0
M  V30 6675 H 614.918 -0.344886 2.95998 0
M  V30 6676 H 612.455 -0.15855 1.46243 0
M  V30 6677 H 614.413 -2.82234 3.07246 0
M  V30 6678 H 613.043 -2.56427 1.96074 0
M  V30 6679 H 612.095 -0.88201 3.70033 0
M  V30 6680 H 613.407 -1.36884 4.7965 0
M  V30 6681 H 612.561 -3.72454 4.78919 0
M  V30 6682 H 611.3 -3.28848 3.60153 0
M  V30 6683 H 610.305 -1.6667 5.23929 0
M  V30 6684 H 611.53 -2.12973 6.4484 0
M  V30 6685 H 609.476 -3.99605 5.20242 0
M  V30 6686 H 609.393 -3.3155 6.79419 0
M  V30 6687 H 610.661 -4.43987 6.407 0
M  V30 6688 N 614.89 -1.56749 -0.16351 0
M  V30 6689 C 615.82 -2.00042 -1.20438 0
M  V30 6690 C 616.801 -0.877256 -1.45733 0
M  V30 6691 O 617.986 -1.1439 -1.56935 0
M  V30 6692 C 615.116 -2.36697 -2.54149 0
M  V30 6693 C 614.07 -3.52046 -2.43408 0
M  V30 6694 C 613.396 -3.74466 -3.81679 0
M  V30 6695 C 614.696 -4.85247 -1.93216 0
M  V30 6696 H 616.39 -2.87244 -0.844477 0
M  V30 6697 H 613.936 -1.38194 -0.40478 0
M  V30 6698 H 615.889 -2.65582 -3.27176 0
M  V30 6699 H 614.613 -1.46414 -2.91943 0
M  V30 6700 H 613.272 -3.23301 -1.72834 0
M  V30 6701 H 612.92 -2.81461 -4.1688 0
M  V30 6702 H 612.62 -4.52084 -3.75359 0
M  V30 6703 H 614.144 -4.0576 -4.5628 0
M  V30 6704 H 615.558 -5.12957 -2.56023 0
M  V30 6705 H 613.955 -5.66556 -1.97825 0
M  V30 6706 H 615.025 -4.7672 -0.88689 0
M  V30 6707 N 616.368 0.432326 -1.51554 0
M  V30 6708 C 617.315 1.52512 -1.7323 0
M  V30 6709 C 618.285 1.55863 -0.5741 0
M  V30 6710 O 619.47 1.72796 -0.809093 0
M  V30 6711 C 616.61 2.90183 -1.86783 0
M  V30 6712 C 615.723 2.96322 -3.14352 0
M  V30 6713 C 614.858 4.25147 -3.18471 0
M  V30 6714 C 613.897 4.25172 -4.40335 0
M  V30 6715 N 613.034 5.45529 -4.41975 0
M  V30 6716 H 617.874 1.33332 -2.66508 0
M  V30 6717 H 615.411 0.647613 -1.32077 0
M  V30 6718 H 617.369 3.70071 -1.92623 0
M  V30 6719 H 615.999 3.0791 -0.969087 0
M  V30 6720 H 615.051 2.09066 -3.17798 0
M  V30 6721 H 616.363 2.92203 -4.04251 0
M  V30 6722 H 615.517 5.13411 -3.23255 0
M  V30 6723 H 614.256 4.31929 -2.2647 0
M  V30 6724 H 613.261 3.353 -4.35723 0
M  V30 6725 H 614.486 4.20049 -5.33606 0
M  V30 6726 H 612.432 5.53024 -3.52847 0
M  V30 6727 H 612.349 5.43311 -5.25689 0
M  V30 6728 H 613.617 6.35812 -4.50958 0
M  V30 6729 N 617.846 1.41785 0.688094 0
M  V30 6730 C 619.123 1.32031 1.44316 0
M  V30 6731 C 619.503 -0.0486079 2.11044 0
M  V30 6732 O 618.851 -1.06332 2.02252 0
M  V30 6733 C 619.061 2.47906 2.45649 0
M  V30 6734 C 620.409 2.89415 3.10683 0
M  V30 6735 O 621.433 2.477 2.55975 0
M  V30 6736 O 620.292 3.61573 4.09789 0
M  V30 6737 H 617.386 0.519994 0.643067 0
M  V30 6738 H 619.932 1.53765 0.71794 0
M  V30 6739 H 618.704 3.39222 1.95048 0
M  V30 6740 H 618.327 2.28089 3.25671 0
M  V30 6741 N 619.324 -0.923095 1.27737 0
M  V30 6742 C 620.234 -2.05765 1.12685 0
M  V30 6743 C 621.25 -1.73911 0.0557197 0
M  V30 6744 O 622.426 -1.99674 0.263137 0
M  V30 6745 C 619.491 -3.37804 0.780363 0
M  V30 6746 C 618.552 -3.83326 1.93286 0
M  V30 6747 C 617.785 -5.09064 1.60281 0
M  V30 6748 O 618.008 -5.6809 0.512828 0
M  V30 6749 O 616.942 -5.50071 2.44347 0
M  V30 6750 H 620.768 -2.21378 2.07907 0
M  V30 6751 H 618.353 -1.04299 1.06968 0
M  V30 6752 H 620.235 -4.17097 0.600668 0
M  V30 6753 H 618.91 -3.23387 -0.142291 0
M  V30 6754 H 617.817 -3.049 2.16764 0
M  V30 6755 H 619.15 -4.02292 2.83588 0
M  V30 6756 N 620.802 -1.09834 -1.13024 0
M  V30 6757 C 622.05 -0.835297 -1.8403 0
M  V30 6758 C 622.371 0.640944 -1.84165 0
M  V30 6759 O 621.641 1.46517 -1.30037 0
M  V30 6760 H 620.221 -0.306018 -0.681441 0
M  V30 6761 H 622.883 -1.38734 -1.36891 0
M  V30 6762 H 621.979 -1.19258 -2.88416 0
M  V30 6763 N 622.28 1.30327 -0.886154 0
M  V30 6764 C 623.228 2.30052 -0.343317 0
M  V30 6765 C 624.222 1.60212 0.550305 0
M  V30 6766 O 625.428 1.74674 0.434609 0
M  V30 6767 H 621.803 0.746306 -0.0923681 0
M  V30 6768 H 623.774 2.73294 -1.19804 0
M  V30 6769 C 622.523 3.45079 0.426107 0
M  V30 6770 H 621.846 3.99003 -0.25227 0
M  V30 6771 H 623.286 4.16931 0.771009 0
M  V30 6772 C 621.745 2.95195 1.62363 0
M  V30 6773 O 622.275 2.95323 2.723 0
M  V30 6774 N 620.481 2.51192 1.4612 0
M  V30 6775 H 620.028 2.51286 0.566832 0
M  V30 6776 H 619.986 2.18173 2.2638 0
M  V30 6777 N 623.758 0.647228 1.43697 0
M  V30 6778 C 625.004 0.158422 2.0218 0
M  V30 6779 C 625.337 -1.22233 1.50907 0
M  V30 6780 O 624.612 -1.81478 0.699702 0
M  V30 6781 C 624.895 0.1627 3.59732 0
M  V30 6782 C 624.748 1.57694 4.21251 0
M  V30 6783 C 626.067 -0.504138 4.37203 0
M  V30 6784 H 623.186 0.059042 0.734631 0
M  V30 6785 H 625.828 0.826772 1.71069 0
M  V30 6786 H 623.978 -0.406414 3.86368 0
M  V30 6787 H 625.65 2.19618 4.05667 0
M  V30 6788 H 623.893 2.12603 3.7813 0
M  V30 6789 H 624.564 1.53183 5.3032 0
M  V30 6790 H 627.04 -0.0199841 4.16095 0
M  V30 6791 H 625.916 -0.470394 5.46881 0
M  V30 6792 H 626.177 -1.57726 4.13007 0
M  V30 6793 N 625.236 -1.5273 0.388769 0
M  V30 6794 C 626.146 -2.30165 -0.453993 0
M  V30 6795 C 627.162 -1.37058 -1.07197 0
M  V30 6796 O 628.338 -1.70127 -1.0779 0
M  V30 6797 C 625.403 -3.09303 -1.56628 0
M  V30 6798 C 624.464 -4.18117 -0.973467 0
M  V30 6799 C 623.697 -4.93472 -2.03275 0
M  V30 6800 O 623.92 -4.68913 -3.24772 0
M  V30 6801 O 622.854 -5.78833 -1.65034 0
M  V30 6802 H 626.68 -3.03185 0.176816 0
M  V30 6803 H 624.265 -1.4862 0.152501 0
M  V30 6804 H 626.147 -3.58648 -2.21246 0
M  V30 6805 H 624.822 -2.39098 -2.18206 0
M  V30 6806 H 623.729 -3.7297 -0.290556 0
M  V30 6807 H 625.062 -4.90556 -0.401908 0
M  V30 6808 N 626.714 -0.118576 -1.57153 0
M  V30 6809 C 627.677 0.817464 -2.14127 0
M  V30 6810 C 628.677 1.1949 -1.07604 0
M  V30 6811 O 629.867 1.12048 -1.33382 0
M  V30 6812 C 626.999 2.10541 -2.68115 0
M  V30 6813 H 628.192 0.322339 -2.98163 0
M  V30 6814 H 625.745 0.130655 -1.55753 0
M  V30 6815 H 626.48 2.64485 -1.87665 0
M  V30 6816 H 626.265 1.84425 -3.4602 0
M  V30 6817 H 627.755 2.77453 -3.12105 0
M  V30 6818 N 628.193 1.56834 0.155195 0
M  V30 6819 C 629.123 2.00678 1.19376 0
M  V30 6820 C 630.104 0.884973 1.45266 0
M  V30 6821 O 631.289 1.1522 1.56326 0
M  V30 6822 C 628.419 2.38042 2.5289 0
M  V30 6823 C 627.373 3.53332 2.41538 0
M  V30 6824 C 626.699 3.76485 3.79688 0
M  V30 6825 C 627.999 4.86265 1.9064 0
M  V30 6826 H 629.693 2.87688 0.829232 0
M  V30 6827 H 627.239 1.38407 0.397445 0
M  V30 6828 H 629.192 2.67314 3.25763 0
M  V30 6829 H 627.916 1.4796 2.91162 0
M  V30 6830 H 626.575 3.24213 1.71117 0
M  V30 6831 H 626.223 2.83667 4.15382 0
M  V30 6832 H 625.923 4.54068 3.72956 0
M  V30 6833 H 627.447 4.08174 4.54122 0
M  V30 6834 H 628.861 5.14308 2.53299 0
M  V30 6835 H 627.258 5.67597 1.94818 0
M  V30 6836 H 628.328 4.77184 0.861596 0
M  V30 6837 N 629.671 -0.424282 1.51781 0
M  V30 6838 C 630.899 -1.1947 1.68921 0
M  V30 6839 C 631.314 -1.84683 0.39213 0
M  V30 6840 O 630.671 -1.71261 -0.630554 0
M  V30 6841 C 630.722 -2.26909 2.81416 0
M  V30 6842 O 630.443 -1.64361 4.061 0
M  V30 6843 C 631.944 -3.16945 3.09937 0
M  V30 6844 H 629.164 -0.359591 0.566511 0
M  V30 6845 H 631.708 -0.501139 1.98265 0
M  V30 6846 H 629.863 -2.91959 2.54635 0
M  V30 6847 H 630.277 -2.35468 4.68674 0
M  V30 6848 H 631.751 -3.88437 3.922 0
M  V30 6849 H 632.228 -3.78451 2.22871 0
M  V30 6850 H 632.834 -2.57581 3.38426 0
M  V30 6851 N 631.149 -1.42148 -0.680565 0
M  V30 6852 C 632.426 -1.32795 -1.43614 0
M  V30 6853 C 632.806 0.037415 -2.11067 0
M  V30 6854 O 632.154 1.05258 -2.02813 0
M  V30 6855 C 632.364 -2.49206 -2.44331 0
M  V30 6856 C 633.712 -2.91059 -3.09144 0
M  V30 6857 O 634.736 -2.49054 -2.54657 0
M  V30 6858 O 633.595 -3.63741 -4.07866 0
M  V30 6859 H 630.689 -0.523397 -0.640301 0
M  V30 6860 H 633.235 -1.54144 -0.709775 0
M  V30 6861 H 632.007 -3.40252 -1.93247 0
M  V30 6862 H 631.63 -2.29813 -3.24456 0
M  V30 6863 N 632.627 0.916307 -1.28225 0
M  V30 6864 C 633.904 1.64429 -1.05936 0
M  V30 6865 C 634.284 2.07234 0.402139 0
M  V30 6866 O 633.632 1.81535 1.3877 0
M  V30 6867 C 633.842 2.83773 -2.03159 0
M  V30 6868 C 635.19 3.54852 -2.33164 0
M  V30 6869 O 636.214 2.93918 -2.01223 0
M  V30 6870 O 635.073 4.64663 -2.87664 0
M  V30 6871 H 632.167 0.721221 -0.404683 0
M  V30 6872 H 634.713 0.965838 -1.39534 0
M  V30 6873 H 633.485 2.49217 -3.01673 0
M  V30 6874 H 633.108 3.59333 -1.70192 0
M  V30 6875 N 634.105 1.10431 1.1244 0
M  V30 6876 C 635.353 0.845045 1.83585 0
M  V30 6877 C 635.674 -0.631168 1.84503 0
M  V30 6878 O 634.944 -1.45825 1.30813 0
M  V30 6879 H 633.524 0.309628 0.679809 0
M  V30 6880 H 636.186 1.39458 1.36153 0
M  V30 6881 H 635.282 1.20786 2.8778 0
M  V30 6882 N 635.583 -1.29855 0.893053 0
M  V30 6883 C 636.493 -2.31661 0.370157 0
M  V30 6884 C 637.509 -1.65677 -0.531723 0
M  V30 6885 O 638.685 -1.9691 -0.422902 0
M  V30 6886 C 635.75 -3.44388 -0.399741 0
M  V30 6887 C 634.811 -4.2598 0.532861 0
M  V30 6888 C 634.044 -5.33324 -0.200388 0
M  V30 6889 O 634.267 -5.52305 -1.42531 0
M  V30 6890 O 633.201 -6.00188 0.453668 0
M  V30 6891 H 637.027 -2.78354 1.2146 0
M  V30 6892 H 634.612 -1.34171 0.657153 0
M  V30 6893 H 636.494 -4.13037 -0.835358 0
M  V30 6894 H 635.169 -2.99815 -1.22035 0
M  V30 6895 H 634.076 -3.59998 1.01746 0
M  V30 6896 H 635.409 -4.74178 1.3197 0
M  V30 6897 N 637.061 -0.65484 -1.43351 0
M  V30 6898 C 637.971 0.0363603 -2.34572 0
M  V30 6899 C 638.987 0.810432 -1.53974 0
M  V30 6900 O 640.163 0.757308 -1.86619 0
M  V30 6901 C 637.228 0.989733 -3.32273 0
M  V30 6902 C 636.289 0.212414 -4.28774 0
M  V30 6903 C 635.522 1.12038 -5.21808 0
M  V30 6904 O 635.745 2.35967 -5.19303 0
M  V30 6905 O 634.679 0.59191 -5.98982 0
M  V30 6906 H 638.505 -0.714527 -2.95175 0
M  V30 6907 H 636.09 -0.415029 -1.4352 0
M  V30 6908 H 637.972 1.53759 -3.92347 0
M  V30 6909 H 636.647 1.72082 -2.74171 0
M  V30 6910 H 635.554 -0.379062 -3.72175 0
M  V30 6911 H 636.887 -0.479138 -4.89862 0
M  V30 6912 N 638.539 1.52521 -0.396863 0
M  V30 6913 C 639.787 2.01274 0.182536 0
M  V30 6914 C 640.108 1.28485 1.46685 0
M  V30 6915 O 639.378 0.407134 1.91623 0
M  V30 6916 H 637.958 0.743671 0.0704442 0
M  V30 6917 H 640.62 1.87547 -0.530289 0
M  V30 6918 H 639.716 3.09687 0.387385 0
M  V30 6919 N 640.017 0.126909 1.57088 0
M  V30 6920 C 641.242 -0.53997 2.00248 0
M  V30 6921 C 641.667 -1.58927 1.00618 0
M  V30 6922 O 641.025 -1.81288 -0.0210131 0
M  V30 6923 C 641.073 -1.13565 3.4225 0
M  V30 6924 O 640.177 -2.25103 3.45547 0
M  V30 6925 H 639.518 -0.13412 0.650314 0
M  V30 6926 H 642.048 0.217718 2.03438 0
M  V30 6927 H 642.058 -1.46925 3.80627 0
M  V30 6928 H 640.733 -0.367122 4.14277 0
M  V30 6929 H 639.31 -1.93123 3.18995 0
M  V30 6930 N 641.495 -1.56914 -0.146875 0
M  V30 6931 C 642.744 -1.82546 -0.857898 0
M  V30 6932 C 643.057 -0.708169 -1.8233 0
M  V30 6933 O 644.263 -0.850093 -2.57848 0
M  V30 6934 C 642.719 -3.23548 -1.57623 0
M  V30 6935 C 642.327 -4.43212 -0.653224 0
M  V30 6936 C 644.071 -3.58453 -2.27402 0
M  V30 6937 C 641.978 -5.75237 -1.37318 0
M  V30 6938 H 640.908 -0.680786 -0.32411 0
M  V30 6939 H 643.559 -1.83166 -0.110639 0
M  V30 6940 H 641.941 -3.17315 -2.36912 0
M  V30 6941 H 643.115 -4.60682 0.104452 0
M  V30 6942 H 641.43 -4.16351 -0.0638336 0
M  V30 6943 H 644.027 -4.54349 -2.81907 0
M  V30 6944 H 644.37 -2.84516 -3.03901 0
M  V30 6945 H 644.903 -3.66347 -1.55032 0
M  V30 6946 H 641.642 -6.52269 -0.650041 0
M  V30 6947 H 641.162 -5.61703 -2.10357 0
M  V30 6948 H 642.841 -6.18039 -1.91406 0
M  V30 6949 N 642.974 0.416227 -1.52004 0
M  V30 6950 C 644.251 1.17637 -1.56272 0
M  V30 6951 C 644.631 2.08352 -0.339493 0
M  V30 6952 O 643.979 2.1833 0.674124 0
M  V30 6953 C 644.189 1.95986 -2.88774 0
M  V30 6954 C 645.537 2.52299 -3.41512 0
M  V30 6955 O 646.561 2.06174 -2.90467 0
M  V30 6956 O 645.42 3.3648 -4.30631 0
M  V30 6957 H 642.514 0.536726 -0.629169 0
M  V30 6958 H 645.06 0.423583 -1.64329 0
M  V30 6959 H 643.832 1.29487 -3.69254 0
M  V30 6960 H 643.455 2.78285 -2.83978 0
M  V30 6961 N 644.452 1.42507 0.673017 0
M  V30 6962 C 645.362 1.4853 1.81593 0
M  V30 6963 C 646.378 0.373907 1.69935 0
M  V30 6964 O 647.554 0.625078 1.91454 0
M  V30 6965 C 644.619 1.387 3.17747 0
M  V30 6966 C 643.68 2.60346 3.41348 0
M  V30 6967 C 642.913 2.50975 4.71007 0
M  V30 6968 O 643.136 1.54659 5.49033 0
M  V30 6969 O 642.07 3.41138 4.95892 0
M  V30 6970 H 645.896 2.45001 1.79467 0
M  V30 6971 H 643.481 1.2429 0.82899 0
M  V30 6972 H 645.363 1.35586 3.98992 0
M  V30 6973 H 644.038 0.453555 3.20507 0
M  V30 6974 H 642.945 2.69034 2.59945 0
M  V30 6975 H 644.278 3.52595 3.43421 0
M  V30 6976 N 645.93 -0.909495 1.28709 0
M  V30 6977 C 646.893 -1.99399 1.13016 0
M  V30 6978 C 647.893 -1.60654 0.068536 0
M  V30 6979 O 649.083 -1.71334 0.314671 0
M  V30 6980 C 646.215 -3.33078 0.726085 0
M  V30 6981 H 647.408 -2.14751 2.09338 0
M  V30 6982 H 644.961 -1.09272 1.11756 0
M  V30 6983 H 645.696 -3.23428 -0.23771 0
M  V30 6984 H 645.481 -3.62562 1.49302 0
M  V30 6985 H 646.971 -4.12681 0.639058 0
M  V30 6986 N 647.408 -1.11026 -1.11852 0
M  V30 6987 C 648.685 -0.768347 -1.79877 0
M  V30 6988 C 649.065 0.744261 -1.97545 0
M  V30 6989 O 648.413 1.67271 -1.55669 0
M  V30 6990 C 648.623 -1.52648 -3.13846 0
M  V30 6991 C 649.971 -1.70297 -3.88953 0
M  V30 6992 O 650.995 -1.49037 -3.23522 0
M  V30 6993 O 649.854 -2.05593 -5.06353 0
M  V30 6994 H 646.948 -0.277891 -0.778913 0
M  V30 6995 H 649.494 -1.21343 -1.18633 0
M  V30 6996 H 648.266 -2.55564 -2.96315 0
M  V30 6997 H 647.889 -1.07466 -3.82801 0
M  V30 6998 N 648.886 1.2938 -0.899927 0
M  V30 6999 C 650.297 1.77644 -0.574427 0
M  V30 7000 C 650.648 1.73824 0.909928 0
M  V30 7001 O 649.773 1.32429 1.71147 0
M  V30 7002 C 650.368 3.22573 -1.03595 0
M  V30 7003 C 648.927 3.68614 -0.76161 0
M  V30 7004 C 648.074 2.49483 -1.21052 0
M  V30 7005 H 651.025 1.16038 -1.08263 0
M  V30 7006 H 651.046 3.78684 -0.371337 0
M  V30 7007 H 650.558 3.25321 -2.11631 0
M  V30 7008 H 648.659 3.7134 0.306127 0
M  V30 7009 H 648.772 4.59402 -1.35965 0
M  V30 7010 H 647.136 2.46798 -0.629515 0
M  V30 7011 H 647.919 2.54959 -2.29893 0
M  V30 7012 N 650.364 0.662433 1.43002 0
M  V30 7013 C 651.594 0.187343 2.05749 0
M  V30 7014 C 652.002 -1.15582 1.49791 0
M  V30 7015 O 651.345 -1.72651 0.627487 0
M  V30 7016 C 651.407 0.0316493 3.59486 0
M  V30 7017 C 651.071 1.30156 4.38073 0
M  V30 7018 C 652.068 2.23234 4.69535 0
M  V30 7019 C 649.753 1.54572 4.77926 0
M  V30 7020 C 651.747 3.39012 5.39768 0
M  V30 7021 C 649.434 2.70641 5.47902 0
M  V30 7022 C 650.432 3.62687 5.78746 0
M  V30 7023 O 650.12 4.76728 6.47291 0
M  V30 7024 H 649.852 0.0915214 0.669776 0
M  V30 7025 H 652.406 0.905982 1.8434 0
M  V30 7026 H 650.636 -0.742451 3.79506 0
M  V30 7027 H 652.325 -0.401977 4.03905 0
M  V30 7028 H 653.091 2.05616 4.39257 0
M  V30 7029 H 648.97 0.83804 4.53319 0
M  V30 7030 H 652.514 4.10877 5.63761 0
M  V30 7031 H 648.411 2.88189 5.77596 0
M  V30 7032 H 649.179 4.76113 6.65777 0
M  V30 7033 N 651.842 -1.52309 0.404946 0
M  V30 7034 C 653.067 -2.06666 -0.1743 0
M  V30 7035 C 653.492 -1.27341 -1.38441 0
M  V30 7036 O 652.85 -0.302539 -1.78758 0
M  V30 7037 C 652.898 -3.57014 -0.507262 0
M  V30 7038 O 652.002 -3.80144 -1.59889 0
M  V30 7039 H 651.343 -0.663807 -0.0160273 0
M  V30 7040 H 653.873 -1.96297 0.576937 0
M  V30 7041 H 653.883 -4.00724 -0.767098 0
M  V30 7042 H 652.558 -4.14184 0.377368 0
M  V30 7043 H 651.135 -3.48316 -1.33155 0
M  V30 7044 N 653.32 -0.135238 -1.57019 0
M  V30 7045 C 654.597 0.563227 -1.87316 0
M  V30 7046 C 654.977 1.83749 -1.03921 0
M  V30 7047 O 654.325 2.2817 -0.122675 0
M  V30 7048 C 654.535 0.840031 -3.3874 0
M  V30 7049 C 655.883 1.18598 -4.077 0
M  V30 7050 O 656.907 0.92977 -3.43851 0
M  V30 7051 O 655.766 1.66758 -5.20436 0
M  V30 7052 H 652.86 0.285971 -0.775983 0
M  V30 7053 H 655.406 -0.170965 -1.68837 0
M  V30 7054 H 654.178 -0.0622785 -3.9125 0
M  V30 7055 H 653.801 1.62882 -3.62706 0
M  V30 7056 N 654.798 1.5699 0.138552 0
M  V30 7057 C 656.028 1.87704 0.863184 0
M  V30 7058 C 656.436 0.722411 1.74865 0
M  V30 7059 O 655.779 -0.316636 1.80951 0
M  V30 7060 C 655.841 3.13219 1.76449 0
M  V30 7061 C 655.505 4.44648 1.05532 0
M  V30 7062 C 656.502 5.18318 0.405252 0
M  V30 7063 C 654.187 4.91367 1.04231 0
M  V30 7064 C 656.181 6.36916 -0.24835 0
M  V30 7065 C 653.868 6.09887 0.384904 0
M  V30 7066 C 654.866 6.82508 -0.259292 0
M  V30 7067 O 654.554 7.98775 -0.906258 0
M  V30 7068 H 654.286 0.626255 0.254521 0
M  V30 7069 H 656.84 2.04966 0.133472 0
M  V30 7070 H 655.07 2.91988 2.53535 0
M  V30 7071 H 656.759 3.30111 2.36181 0
M  V30 7072 H 657.525 4.83289 0.407053 0
M  V30 7073 H 653.404 4.34759 1.53315 0
M  V30 7074 H 656.948 6.93538 -0.751755 0
M  V30 7075 H 652.845 6.44376 0.380799 0
M  V30 7076 H 653.613 8.14494 -0.80877 0
M  V30 7077 N 656.276 -0.40816 1.52223 0
M  V30 7078 C 657.523 -1.15502 1.66329 0
M  V30 7079 C 657.851 -1.90474 0.393701 0
M  V30 7080 O 657.106 -1.85507 -0.623356 0
M  V30 7081 C 657.405 -2.17422 2.83659 0
M  V30 7082 C 657.071 -1.5925 4.21841 0
M  V30 7083 C 655.733 -1.4311 4.59427 0
M  V30 7084 C 658.085 -1.16776 5.0795 0
M  V30 7085 C 655.413 -0.830148 5.80797 0
M  V30 7086 C 657.765 -0.580988 6.29926 0
M  V30 7087 C 656.429 -0.406729 6.6626 0
M  V30 7088 H 655.699 -0.422653 0.608642 0
M  V30 7089 H 658.346 -0.442114 1.86327 0
M  V30 7090 H 656.651 -2.94861 2.58001 0
M  V30 7091 H 658.348 -2.75084 2.9177 0
M  V30 7092 H 654.938 -1.72796 3.92224 0
M  V30 7093 H 659.122 -1.28055 4.79495 0
M  V30 7094 H 654.378 -0.68316 6.07571 0
M  V30 7095 H 658.552 -0.243488 6.95974 0
M  V30 7096 H 656.179 0.0610366 7.60175 0
M  V30 7097 N 657.755 -1.42862 -0.66545 0
M  V30 7098 C 658.98 -1.47456 -1.45848 0
M  V30 7099 C 659.405 -0.0900312 -1.87884 0
M  V30 7100 O 658.763 0.913587 -1.56599 0
M  V30 7101 C 658.811 -2.41514 -2.67774 0
M  V30 7102 O 657.915 -1.89296 -3.66389 0
M  V30 7103 H 657.256 -0.499236 -0.437789 0
M  V30 7104 H 659.786 -1.8765 -0.815394 0
M  V30 7105 H 659.796 -2.58409 -3.15735 0
M  V30 7106 H 658.471 -3.42099 -2.36519 0
M  V30 7107 H 657.048 -1.82003 -3.25468 0
M  V30 7108 N 659.233 0.902656 -1.29189 0
M  V30 7109 C 660.458 1.69167 -1.19989 0
M  V30 7110 C 660.883 1.86607 0.236495 0
M  V30 7111 O 660.241 1.38425 1.17082 0
M  V30 7112 C 660.289 3.05532 -1.91527 0
M  V30 7113 O 659.393 3.93621 -1.2303 0
M  V30 7114 H 658.734 0.517584 -0.415936 0
M  V30 7115 H 661.264 1.12785 -1.70706 0
M  V30 7116 H 661.274 3.55693 -1.99866 0
M  V30 7117 H 659.949 2.92156 -2.96003 0
M  V30 7118 H 658.526 3.52055 -1.22928 0
M  V30 7119 N 660.711 1.11618 1.11262 0
M  V30 7120 C 661.988 0.777876 1.79467 0
M  V30 7121 C 662.368 -0.733774 1.97937 0
M  V30 7122 O 661.716 -1.66443 1.56554 0
M  V30 7123 C 661.926 1.5431 3.13032 0
M  V30 7124 C 663.274 1.72357 3.88044 0
M  V30 7125 O 664.298 1.5075 3.22727 0
M  V30 7126 O 663.157 2.08276 5.05256 0
M  V30 7127 H 660.251 0.282018 0.777428 0
M  V30 7128 H 662.797 1.21971 1.17988 0
M  V30 7129 H 661.569 2.57132 2.94956 0
M  V30 7130 H 661.192 1.09495 3.82226 0
M  V30 7131 N 662.189 -1.289 0.906776 0
M  V30 7132 C 663.414 -1.99939 0.551303 0
M  V30 7133 C 663.839 -1.67366 -0.858496 0
M  V30 7134 O 663.197 -0.902176 -1.57259 0
M  V30 7135 C 663.245 -3.52523 0.758937 0
M  V30 7136 O 662.349 -4.11983 -0.185308 0
M  V30 7137 H 661.69 -0.628376 0.214568 0
M  V30 7138 H 664.22 -1.64225 1.2203 0
M  V30 7139 H 664.23 -4.02522 0.666329 0
M  V30 7140 H 662.905 -3.75566 1.78671 0
M  V30 7141 H 661.482 -3.72873 -0.0445577 0
M  V30 7142 N 663.667 -0.670007 -1.42649 0
M  V30 7143 C 664.614 0.0112928 -2.30797 0
M  V30 7144 C 665.584 0.797627 -1.45695 0
M  V30 7145 O 666.769 0.770845 -1.74535 0
M  V30 7146 C 663.909 0.95998 -3.31479 0
M  V30 7147 C 663.022 0.167975 -4.31673 0
M  V30 7148 C 662.157 1.11198 -5.19431 0
M  V30 7149 C 661.196 0.311381 -6.11307 0
M  V30 7150 N 660.333 1.20784 -6.91633 0
M  V30 7151 H 665.173 -0.746231 -2.88505 0
M  V30 7152 H 662.71 -0.379739 -1.42114 0
M  V30 7153 H 664.668 1.52379 -3.88377 0
M  V30 7154 H 663.298 1.68419 -2.75382 0
M  V30 7155 H 662.35 -0.512385 -3.76933 0
M  V30 7156 H 663.662 -0.453814 -4.96731 0
M  V30 7157 H 662.816 1.74587 -5.81037 0
M  V30 7158 H 661.555 1.76766 -4.54538 0
M  V30 7159 H 660.56 -0.335758 -5.48774 0
M  V30 7160 H 661.785 -0.340135 -6.78248 0
M  V30 7161 H 659.731 1.85001 -6.29373 0
M  V30 7162 H 659.648 0.64102 -7.53277 0
M  V30 7163 H 660.916 1.82936 -7.5773 0
M  V30 7164 N 665.145 1.52092 -0.413018 0
M  V30 7165 C 666.092 2.27119 0.410558 0
M  V30 7166 C 667.062 1.29692 1.03774 0
M  V30 7167 O 668.247 1.58561 1.06128 0
M  V30 7168 C 665.387 3.09863 1.51918 0
M  V30 7169 C 664.5 4.22252 0.912528 0
M  V30 7170 C 663.635 4.92348 1.99417 0
M  V30 7171 C 662.674 5.96694 1.36466 0
M  V30 7172 N 661.811 6.60292 2.38661 0
M  V30 7173 H 666.651 2.97067 -0.235661 0
M  V30 7174 H 664.188 1.46542 -0.128055 0
M  V30 7175 H 666.146 3.56144 2.17295 0
M  V30 7176 H 664.776 2.42078 2.13537 0
M  V30 7177 H 663.828 3.80113 0.147697 0
M  V30 7178 H 665.14 4.9709 0.412717 0
M  V30 7179 H 664.294 5.42054 2.72512 0
M  V30 7180 H 663.033 4.17087 2.52764 0
M  V30 7181 H 662.038 5.46304 0.61906 0
M  V30 7182 H 663.263 6.73899 0.838827 0
M  V30 7183 H 661.209 5.87858 2.91134 0
M  V30 7184 H 661.126 7.30816 1.93503 0
M  V30 7185 H 662.394 7.14635 3.11314 0
M  V30 7186 N 666.623 0.143563 1.56945 0
M  V30 7187 C 667.556 -0.835367 2.1236 0
M  V30 7188 C 668.534 -1.24466 1.04627 0
M  V30 7189 O 669.718 -1.34138 1.32436 0
M  V30 7190 C 666.845 -2.12123 2.64048 0
M  V30 7191 C 665.891 -1.85812 3.83896 0
M  V30 7192 S 666.724 -1.05222 5.25061 0
M  V30 7193 C 667.88 -2.34935 5.80135 0
M  V30 7194 H 668.113 -0.364109 2.95062 0
M  V30 7195 H 665.646 -0.0706601 1.54238 0
M  V30 7196 H 667.604 -2.85993 2.94479 0
M  V30 7197 H 666.265 -2.56364 1.81483 0
M  V30 7198 H 665.458 -2.81151 4.18294 0
M  V30 7199 H 665.06 -1.20052 3.54208 0
M  V30 7200 H 667.352 -3.3061 5.91357 0
M  V30 7201 H 668.295 -2.05046 6.77762 0
M  V30 7202 H 668.703 -2.45426 5.08356 0
M  V30 7203 N 668.101 -1.57061 -0.130224 0
M  V30 7204 C 669.048 -1.99517 -1.16024 0
M  V30 7205 C 670.018 -0.865452 -1.41771 0
M  V30 7206 O 671.203 -1.12882 -1.53826 0
M  V30 7207 C 668.343 -2.3951 -2.48453 0
M  V30 7208 C 667.456 -3.65848 -2.29737 0
M  V30 7209 C 666.591 -3.9487 -3.55318 0
M  V30 7210 C 665.63 -5.14426 -3.31711 0
M  V30 7211 N 664.767 -5.39375 -4.49466 0
M  V30 7212 H 669.607 -2.87305 -0.791194 0
M  V30 7213 H 667.144 -1.42129 -0.379195 0
M  V30 7214 H 669.102 -2.60731 -3.25692 0
M  V30 7215 H 667.732 -1.54779 -2.83272 0
M  V30 7216 H 666.784 -3.52307 -1.4347 0
M  V30 7217 H 668.096 -4.53241 -2.08263 0
M  V30 7218 H 667.25 -4.16679 -4.4098 0
M  V30 7219 H 665.989 -3.05931 -3.79813 0
M  V30 7220 H 664.994 -4.92473 -2.44439 0
M  V30 7221 H 666.219 -6.04933 -3.08598 0
M  V30 7222 H 664.165 -4.53391 -4.74102 0
M  V30 7223 H 664.082 -6.21069 -4.31055 0
M  V30 7224 H 665.35 -5.65694 -5.36293 0
M  V30 7225 N 669.579 0.400081 -1.52437 0
M  V30 7226 C 670.527 1.50851 -1.7705 0
M  V30 7227 C 671.521 1.56928 -0.637969 0
M  V30 7228 O 672.727 1.60226 -0.820212 0
M  V30 7229 H 669.102 0.50186 -0.560036 0
M  V30 7230 H 671.073 1.27281 -2.69893 0
M  V30 7231 C 669.822 2.88117 -1.94638 0
M  V30 7232 H 669.145 2.84187 -2.81208 0
M  V30 7233 H 670.585 3.64942 -2.15855 0
M  V30 7234 C 669.044 3.29206 -0.715899 0
M  V30 7235 O 669.574 4.01544 0.111944 0
M  V30 7236 N 667.78 2.85363 -0.549191 0
M  V30 7237 H 667.327 2.26664 -1.22397 0
M  V30 7238 H 667.285 3.13214 0.27278 0
M  V30 7239 N 671.057 1.43213 0.657864 0
M  V30 7240 C 672.334 1.35063 1.41483 0
M  V30 7241 C 672.714 -0.0038314 2.111 0
M  V30 7242 O 672.062 -1.02018 2.04462 0
M  V30 7243 C 672.272 2.53061 2.40335 0
M  V30 7244 C 673.62 2.9594 3.04474 0
M  V30 7245 O 674.644 2.53074 2.50663 0
M  V30 7246 O 673.503 3.70184 4.02027 0
M  V30 7247 H 670.597 0.533517 0.631893 0
M  V30 7248 H 673.143 1.55253 0.685162 0
M  V30 7249 H 671.915 3.43283 1.87809 0
M  V30 7250 H 671.538 2.34945 3.20759 0
M  V30 7251 N 672.536 -0.895792 1.29666 0
M  V30 7252 C 673.466 -2.01673 1.17688 0
M  V30 7253 C 674.447 -1.69955 0.0701317 0
M  V30 7254 O 675.632 -1.9258 0.250289 0
M  V30 7255 C 672.762 -3.36568 0.856681 0
M  V30 7256 C 671.716 -3.82509 1.92017 0
M  V30 7257 C 671.042 -5.14574 1.4532 0
M  V30 7258 C 672.342 -4.02409 3.32963 0
M  V30 7259 H 674.036 -2.11953 2.11463 0
M  V30 7260 H 671.582 -1.01839 1.01807 0
M  V30 7261 H 673.535 -4.14498 0.759577 0
M  V30 7262 H 672.259 -3.26391 -0.116763 0
M  V30 7263 H 670.918 -3.068 2.00673 0
M  V30 7264 H 670.566 -5.00815 0.468325 0
M  V30 7265 H 670.266 -5.46283 2.16447 0
M  V30 7266 H 671.79 -5.9504 1.36968 0
M  V30 7267 H 673.204 -4.70808 3.27127 0
M  V30 7268 H 671.601 -4.45478 4.02082 0
M  V30 7269 H 672.671 -3.06616 3.75652 0
M  V30 7270 N 674.014 -1.12206 -1.10668 0
M  V30 7271 C 674.962 -0.782918 -2.19028 0
M  V30 7272 C 675.956 0.229175 -1.67843 0
M  V30 7273 O 677.162 0.0876295 -1.79787 0
M  V30 7274 H 673.537 -0.235339 -0.714227 0
M  V30 7275 H 675.508 -1.70527 -2.44874 0
M  V30 7276 C 674.257 -0.25116 -3.46792 0
M  V30 7277 H 673.58 -1.02123 -3.86537 0
M  V30 7278 H 675.02 -0.0521409 -4.23968 0
M  V30 7279 C 673.479 1.02037 -3.21076 0
M  V30 7280 O 674.009 2.09862 -3.42522 0
M  V30 7281 N 672.215 0.946348 -2.74759 0
M  V30 7282 H 671.762 0.068777 -2.57508 0
M  V30 7283 H 671.72 1.79775 -2.57931 0
M  V30 7284 N 675.492 1.28418 -0.913599 0
M  V30 7285 C 676.44 2.29272 -0.392037 0
M  V30 7286 C 677.434 1.61344 0.516198 0
M  V30 7287 O 678.64 1.75557 0.39746 0
M  V30 7288 H 675.015 0.744178 -0.108178 0
M  V30 7289 H 676.986 2.70691 -1.25574 0
M  V30 7290 C 675.735 3.45905 0.352815 0
M  V30 7291 H 675.058 3.98378 -0.336848 0
M  V30 7292 H 676.498 4.18473 0.682398 0
M  V30 7293 C 674.957 2.98572 1.56065 0
M  V30 7294 O 675.487 3.01033 2.65974 0
M  V30 7295 N 673.693 2.54235 1.40759 0
M  V30 7296 H 673.24 2.52432 0.513403 0
M  V30 7297 H 673.198 2.22925 2.21702 0
M  V30 7298 N 676.97 0.677563 1.42291 0
M  V30 7299 C 677.918 -0.0106755 2.32598 0
M  V30 7300 C 678.912 -0.787643 1.49975 0
M  V30 7301 O 680.118 -0.695295 1.66029 0
M  V30 7302 H 676.493 -0.0222482 0.751671 0
M  V30 7303 H 678.464 0.768312 2.88339 0
M  V30 7304 C 677.213 -0.946142 3.3458 0
M  V30 7305 H 676.536 -0.357701 3.98197 0
M  V30 7306 H 677.976 -1.39634 4.00348 0
M  V30 7307 C 676.435 -2.05383 2.67057 0
M  V30 7308 O 676.965 -3.1406 2.50458 0
M  V30 7309 N 675.171 -1.82635 2.26038 0
M  V30 7310 H 674.718 -0.942534 2.39737 0
M  V30 7311 H 674.676 -2.56937 1.81192 0
M  V30 7312 N 678.448 -1.51871 0.421078 0
M  V30 7313 C 679.396 -2.28903 -0.413066 0
M  V30 7314 C 680.39 -1.3408 -1.03532 0
M  V30 7315 O 681.596 -1.5149 -0.972146 0
M  V30 7316 H 677.971 -0.736478 -0.152003 0
M  V30 7317 H 679.942 -2.97285 0.257695 0
M  V30 7318 C 678.691 -3.13156 -1.51091 0
M  V30 7319 H 678.014 -3.85997 -1.04145 0
M  V30 7320 H 679.454 -3.7014 -2.06814 0
M  V30 7321 C 677.913 -2.27482 -2.48503 0
M  V30 7322 O 678.443 -1.92325 -3.52667 0
M  V30 7323 N 676.649 -1.91019 -2.18998 0
M  V30 7324 H 676.196 -2.19808 -1.34322 0
M  V30 7325 H 676.154 -1.3399 -2.84419 0
M  V30 7326 N 679.926 -0.151884 -1.56866 0
M  V30 7327 C 680.874 0.80299 -2.183 0
M  V30 7328 C 681.868 1.25174 -1.14139 0
M  V30 7329 O 683.074 1.21966 -1.3238 0
M  V30 7330 H 679.449 0.277169 -0.699057 0
M  V30 7331 H 681.42 0.260699 -2.97259 0
M  V30 7332 C 680.169 2.03009 -2.82281 0
M  V30 7333 H 679.492 1.69377 -3.62148 0
M  V30 7334 H 680.932 2.67753 -3.28762 0
M  V30 7335 C 679.391 2.84123 -1.81041 0
M  V30 7336 O 679.921 3.8063 -1.28388 0
M  V30 7337 N 678.127 2.48753 -1.50234 0
M  V30 7338 H 677.674 1.70337 -1.93244 0
M  V30 7339 H 677.632 3.03316 -0.827445 0
M  V30 7340 N 681.404 1.57128 0.121893 0
M  V30 7341 C 682.352 2.01109 1.16868 0
M  V30 7342 C 683.346 0.907532 1.43039 0
M  V30 7343 O 684.552 1.09274 1.43036 0
M  V30 7344 H 680.927 0.640539 0.393971 0
M  V30 7345 H 682.898 2.88261 0.771224 0
M  V30 7346 C 681.647 2.42887 2.48799 0
M  V30 7347 H 680.97 3.2737 2.29498 0
M  V30 7348 H 682.41 2.77461 3.20611 0
M  V30 7349 C 680.869 1.29137 3.11168 0
M  V30 7350 O 681.399 0.605756 3.97106 0
M  V30 7351 N 679.605 1.04916 2.71 0
M  V30 7352 H 679.152 1.60848 2.01211 0
M  V30 7353 H 679.11 0.290016 3.1306 0
M  V30 7354 N 682.882 -0.391992 1.52647 0
M  V30 7355 C 683.83 -1.4991 1.77848 0
M  V30 7356 C 684.824 -1.56587 0.646282 0
M  V30 7357 O 686.03 -1.59789 0.828698 0
M  V30 7358 H 682.405 -0.498883 0.56269 0
M  V30 7359 H 684.376 -1.25847 2.70564 0
M  V30 7360 C 683.125 -2.87081 1.96163 0
M  V30 7361 H 682.448 -2.82692 2.82711 0
M  V30 7362 H 683.888 -3.63792 2.17787 0
M  V30 7363 C 682.347 -3.28822 0.733348 0
M  V30 7364 O 682.877 -4.01598 -0.0906481 0
M  V30 7365 N 681.083 -2.85068 0.564317 0
M  V30 7366 H 680.63 -2.26012 1.23598 0
M  V30 7367 H 680.588 -3.13355 -0.256166 0
M  V30 7368 N 684.36 -1.4356 -0.65026 0
M  V30 7369 C 685.308 -1.49219 -1.78427 0
M  V30 7370 C 686.302 -0.365528 -1.65409 0
M  V30 7371 O 687.508 -0.539649 -1.7172 0
M  V30 7372 H 683.883 -0.467858 -0.588738 0
M  V30 7373 H 685.854 -2.44701 -1.70774 0
M  V30 7374 C 684.603 -1.43519 -3.16698 0
M  V30 7375 H 683.926 -2.2952 -3.27354 0
M  V30 7376 H 685.366 -1.5154 -3.95995 0
M  V30 7377 C 683.825 -0.153197 -3.36552 0
M  V30 7378 O 684.355 0.784317 -3.93969 0
M  V30 7379 N 682.561 -0.0624402 -2.90533 0
M  V30 7380 H 682.108 -0.826172 -2.43992 0
M  V30 7381 H 682.066 0.794616 -3.04193 0
M  V30 7382 N 685.838 0.888903 -1.30139 0
M  V30 7383 C 686.786 2.0156 -1.16088 0
M  V30 7384 C 687.78 1.69239 -0.0737413 0
M  V30 7385 O 688.986 1.78468 -0.234313 0
M  V30 7386 H 685.361 0.660825 -0.358907 0
M  V30 7387 H 687.332 2.10547 -2.11453 0
M  V30 7388 C 686.081 3.36758 -0.865426 0
M  V30 7389 H 685.404 3.62137 -1.69402 0
M  V30 7390 H 686.844 4.16246 -0.807192 0
M  V30 7391 C 685.303 3.34124 0.431577 0
M  V30 7392 O 685.833 3.7445 1.45431 0
M  V30 7393 N 684.039 2.87229 0.441321 0
M  V30 7394 H 683.586 2.54609 -0.391433 0
M  V30 7395 H 683.544 2.8585 1.30909 0
M  V30 7396 N 687.317 1.12792 1.10072 0
M  V30 7397 C 688.542 0.908838 1.86427 0
M  V30 7398 C 688.967 -0.536793 1.80278 0
M  V30 7399 O 688.325 -1.38033 1.17543 0
M  V30 7400 C 688.373 1.39295 3.3261 0
M  V30 7401 O 687.477 0.573846 4.08388 0
M  V30 7402 H 686.818 0.326234 0.578331 0
M  V30 7403 H 689.348 1.50094 1.39043 0
M  V30 7404 H 689.358 1.39366 3.83459 0
M  V30 7405 H 688.033 2.44555 3.36401 0
M  V30 7406 H 686.61 0.640438 3.67359 0
M  V30 7407 N 688.795 -1.27931 0.920396 0
M  V30 7408 C 690.02 -1.99343 0.572478 0
M  V30 7409 C 690.445 -1.68267 -0.840696 0
M  V30 7410 O 689.803 -0.918805 -1.56294 0
M  V30 7411 C 689.851 -3.51698 0.796284 0
M  V30 7412 O 688.955 -4.12157 -0.141602 0
M  V30 7413 H 688.296 -0.626065 0.221221 0
M  V30 7414 H 690.826 -1.62921 1.23765 0
M  V30 7415 H 690.836 -4.01793 0.708984 0
M  V30 7416 H 689.511 -3.73649 1.82644 0
M  V30 7417 H 688.088 -3.729 -0.005007 0
M  V30 7418 N 690.273 -0.685099 -1.4193 0
M  V30 7419 C 691.689 -0.355632 -1.55587 0
M  V30 7420 C 691.889 1.13823 -1.66273 0
M  V30 7421 O 690.945 1.92387 -1.63534 0
M  V30 7422 C 692.258 -1.09498 -2.80055 0
M  V30 7423 C 693.806 -1.07831 -2.93839 0
M  V30 7424 C 694.281 -1.79919 -4.21181 0
M  V30 7425 N 695.772 -1.76837 -4.28115 0
M  V30 7426 C 696.507 -2.29463 -5.25485 0
M  V30 7427 N 696.003 -2.90516 -6.28945 0
M  V30 7428 N 697.796 -2.19779 -5.17353 0
M  V30 7429 H 689.947 -1.65412 -1.33239 0
M  V30 7430 H 692.21 -0.697453 -0.642078 0
M  V30 7431 H 691.916 -2.14997 -2.78333 0
M  V30 7432 H 691.79 -0.666813 -3.71259 0
M  V30 7433 H 694.177 -0.0316152 -2.95083 0
M  V30 7434 H 694.258 -1.54545 -2.03837 0
M  V30 7435 H 693.902 -2.84562 -4.20698 0
M  V30 7436 H 693.832 -1.30647 -5.10136 0
M  V30 7437 H 696.323 -1.32315 -3.53979 0
M  V30 7438 H 696.636 -3.28266 -6.99615 0
M  V30 7439 H 694.981 -2.94589 -6.29478 0
M  V30 7440 H 698.172 -1.71763 -4.35448 0
M  V30 7441 H 698.345 -2.61097 -5.9307 0
M  V30 7442 N 691.751 1.51645 -0.429126 0
M  V30 7443 C 692.976 2.06917 0.141399 0
M  V30 7444 C 693.401 1.29527 1.36398 0
M  V30 7445 O 692.759 0.33094 1.78254 0
M  V30 7446 C 692.807 3.57776 0.4504 0
M  V30 7447 O 691.911 3.82639 1.53821 0
M  V30 7448 H 691.252 0.663978 0.0054647 0
M  V30 7449 H 693.782 1.95355 -0.608093 0
M  V30 7450 H 693.792 4.01894 0.703249 0
M  V30 7451 H 692.467 4.13532 -0.443213 0
M  V30 7452 H 691.044 3.5039 1.27597 0
M  V30 7453 N 693.229 0.160201 1.56784 0
M  V30 7454 C 694.477 -0.486625 1.96154 0
M  V30 7455 C 694.798 -1.64525 1.04673 0
M  V30 7456 O 694.068 -1.95586 0.110864 0
M  V30 7457 H 692.648 -0.182764 0.724297 0
M  V30 7458 H 695.31 0.238787 1.93432 0
M  V30 7459 H 694.406 -0.854025 3.00188 0
M  V30 7460 N 694.707 -1.5719 -0.113559 0
M  V30 7461 C 695.67 -1.99796 -1.12314 0
M  V30 7462 C 696.67 -0.888847 -1.34001 0
M  V30 7463 O 697.86 -1.15476 -1.30426 0
M  V30 7464 C 694.992 -2.34279 -2.47641 0
M  V30 7465 H 696.185 -2.90193 -0.756825 0
M  V30 7466 H 693.738 -1.52144 -0.358029 0
M  V30 7467 H 694.473 -1.46778 -2.89183 0
M  V30 7468 H 694.258 -3.15175 -2.33253 0
M  V30 7469 H 695.748 -2.67963 -3.2029 0
M  V30 7470 N 696.185 0.383891 -1.52853 0
M  V30 7471 C 697.132 1.46924 -1.77995 0
M  V30 7472 C 698.102 1.53958 -0.623396 0
M  V30 7473 O 699.287 1.70134 -0.863657 0
M  V30 7474 C 696.427 2.84093 -1.95921 0
M  V30 7475 C 695.54 2.86171 -3.23621 0
M  V30 7476 C 694.675 4.14799 -3.31836 0
M  V30 7477 C 693.714 4.10948 -4.53639 0
M  V30 7478 N 692.851 5.31192 -4.59107 0
M  V30 7479 H 697.691 1.24786 -2.70615 0
M  V30 7480 H 695.228 0.605265 -1.34071 0
M  V30 7481 H 697.186 3.63755 -2.04299 0
M  V30 7482 H 695.816 3.04671 -1.06656 0
M  V30 7483 H 694.868 1.9885 -3.24288 0
M  V30 7484 H 696.18 2.79194 -4.13343 0
M  V30 7485 H 695.334 5.02867 -3.39425 0
M  V30 7486 H 694.073 4.24505 -2.40097 0
M  V30 7487 H 693.078 3.21268 -4.46169 0
M  V30 7488 H 694.303 4.0286 -5.467 0
M  V30 7489 H 692.249 5.41518 -3.70262 0
M  V30 7490 H 692.166 5.26311 -5.42708 0
M  V30 7491 H 693.434 6.21143 -4.70958 0
M  V30 7492 N 697.663 1.43903 0.642637 0
M  V30 7493 C 699.079 1.27536 0.959519 0
M  V30 7494 C 699.279 0.202751 2.00477 0
M  V30 7495 O 698.335 -0.415256 2.49062 0
M  V30 7496 C 699.648 2.6432 1.43372 0
M  V30 7497 C 701.196 2.71937 1.54981 0
M  V30 7498 C 701.671 4.09164 2.05789 0
M  V30 7499 N 703.162 4.11282 2.13076 0
M  V30 7500 C 703.897 5.14303 2.53534 0
M  V30 7501 N 703.393 6.27693 2.93212 0
M  V30 7502 N 705.186 5.01657 2.53567 0
M  V30 7503 H 697.337 2.12344 -0.0488376 0
M  V30 7504 H 699.6 0.947124 0.0407559 0
M  V30 7505 H 699.306 3.43826 0.740048 0
M  V30 7506 H 699.18 2.90432 2.40685 0
M  V30 7507 H 701.567 1.92757 2.23448 0
M  V30 7508 H 701.648 2.49578 0.560739 0
M  V30 7509 H 701.292 4.88815 1.37921 0
M  V30 7510 H 701.222 4.28893 3.05546 0
M  V30 7511 H 703.713 3.2944 1.85143 0
M  V30 7512 H 704.026 7.02125 3.22863 0
M  V30 7513 H 702.371 6.31149 2.90991 0
M  V30 7514 H 705.562 4.12134 2.21952 0
M  V30 7515 H 705.735 5.82072 2.84774 0
M  V30 7516 N 699.141 -0.881989 1.30609 0
M  V30 7517 C 700.089 -2.00942 1.17155 0
M  V30 7518 C 701.083 -1.69198 0.0827154 0
M  V30 7519 O 702.289 -1.78342 0.243775 0
M  V30 7520 H 698.664 -0.658913 0.362406 0
M  V30 7521 H 700.635 -2.09423 2.12567 0
M  V30 7522 C 699.384 -3.36294 0.883273 0
M  V30 7523 H 698.707 -3.61233 1.7132 0
M  V30 7524 H 700.147 -4.15812 0.829255 0
M  V30 7525 C 698.606 -3.34348 -0.413851 0
M  V30 7526 O 699.136 -3.75216 -1.43444 0
M  V30 7527 N 697.342 -2.87459 -0.426082 0
M  V30 7528 H 696.889 -2.54397 0.40493 0
M  V30 7529 H 696.847 -2.8654 -1.29391 0
M  V30 7530 N 700.619 -1.13374 -1.09472 0
M  V30 7531 C 701.868 -0.889844 -1.8101 0
M  V30 7532 C 702.181 0.585686 -1.86625 0
M  V30 7533 O 703.387 0.946497 -2.54467 0
M  V30 7534 C 701.843 -1.54241 -3.25174 0
M  V30 7535 C 701.451 -3.05343 -3.27826 0
M  V30 7536 C 703.195 -1.37919 -4.0147 0
M  V30 7537 C 701.102 -3.63486 -4.6651 0
M  V30 7538 H 700.032 -0.329256 -0.678311 0
M  V30 7539 H 702.683 -1.36139 -1.23038 0
M  V30 7540 H 701.065 -0.998525 -3.83204 0
M  V30 7541 H 702.239 -3.66307 -2.79563 0
M  V30 7542 H 700.554 -3.21175 -2.65019 0
M  V30 7543 H 703.151 -1.78771 -5.03929 0
M  V30 7544 H 703.494 -0.323987 -4.15037 0
M  V30 7545 H 704.027 -1.89284 -3.49881 0
M  V30 7546 H 700.766 -4.68811 -4.58145 0
M  V30 7547 H 700.286 -3.073 -5.15099 0
M  V30 7548 H 701.965 -3.63134 -5.35484 0
M  V30 7549 N 702.098 1.27442 -0.927168 0
M  V30 7550 C 703.509 1.76385 -0.611979 0
M  V30 7551 C 703.86 1.75715 0.872853 0
M  V30 7552 O 702.985 1.3603 1.683 0
M  V30 7553 C 703.58 3.20303 -1.10414 0
M  V30 7554 C 702.139 3.66916 -0.839628 0
M  V30 7555 C 701.286 2.46859 -1.26317 0
M  V30 7556 H 704.237 1.13716 -1.107 0
M  V30 7557 H 704.258 3.77811 -0.451578 0
M  V30 7558 H 703.77 3.20759 -2.18484 0
M  V30 7559 H 701.871 3.71906 0.227292 0
M  V30 7560 H 701.984 4.56415 -1.45679 0
M  V30 7561 H 700.348 2.45407 -0.681723 0
M  V30 7562 H 701.131 2.50025 -2.3525 0
M  V30 7563 N 703.576 0.692616 1.41565 0
M  V30 7564 C 704.506 0.0397325 2.33466 0
M  V30 7565 C 705.487 -0.770334 1.51657 0
M  V30 7566 O 706.672 -0.723903 1.80203 0
M  V30 7567 C 703.802 -0.899495 3.3545 0
M  V30 7568 C 702.756 -0.196738 4.27548 0
M  V30 7569 C 702.082 -1.25012 5.19881 0
M  V30 7570 C 703.382 0.935158 5.1386 0
M  V30 7571 H 705.076 0.807296 2.88311 0
M  V30 7572 H 702.622 0.389665 1.38628 0
M  V30 7573 H 704.575 -1.36545 3.98665 0
M  V30 7574 H 703.299 -1.69869 2.78948 0
M  V30 7575 H 701.958 0.249158 3.65752 0
M  V30 7576 H 701.606 -2.04177 4.59696 0
M  V30 7577 H 701.306 -0.784931 5.82334 0
M  V30 7578 H 702.83 -1.71665 5.85972 0
M  V30 7579 H 704.244 0.549619 5.70659 0
M  V30 7580 H 702.641 1.32726 5.85238 0
M  V30 7581 H 703.711 1.77613 4.512 0
M  V30 7582 N 705.054 -1.51416 0.437162 0
M  V30 7583 C 706.001 -2.27743 -0.374374 0
M  V30 7584 C 706.971 -1.31327 -1.01698 0
M  V30 7585 O 708.156 -1.60229 -1.03592 0
M  V30 7586 C 705.296 -3.12241 -1.46969 0
M  V30 7587 C 704.409 -4.23651 -0.845236 0
M  V30 7588 C 703.544 -4.95458 -1.91559 0
M  V30 7589 C 702.583 -5.98789 -1.26956 0
M  V30 7590 N 701.72 -6.64005 -2.28126 0
M  V30 7591 H 706.56 -2.96654 0.282892 0
M  V30 7592 H 704.097 -1.46319 0.151352 0
M  V30 7593 H 706.055 -3.59556 -2.11602 0
M  V30 7594 H 704.685 -2.45445 -2.09659 0
M  V30 7595 H 703.737 -3.803 -0.0872059 0
M  V30 7596 H 705.049 -4.97683 -0.333582 0
M  V30 7597 H 704.203 -5.46321 -2.63854 0
M  V30 7598 H 702.942 -4.21055 -2.46097 0
M  V30 7599 H 701.947 -5.47219 -0.53207 0
M  V30 7600 H 703.172 -6.75149 -0.731509 0
M  V30 7601 H 701.118 -5.92415 -2.81745 0
M  V30 7602 H 701.035 -7.33802 -1.81852 0
M  V30 7603 H 702.303 -7.19498 -2.99905 0
M  V30 7604 N 706.532 -0.168513 -1.56696 0
M  V30 7605 C 707.442 0.775435 -2.21414 0
M  V30 7606 C 708.458 1.25529 -1.20492 0
M  V30 7607 O 709.634 1.30801 -1.53144 0
M  V30 7608 C 706.699 1.9886 -2.83999 0
M  V30 7609 C 705.76 1.5559 -4.00113 0
M  V30 7610 C 704.993 2.71124 -4.59704 0
M  V30 7611 O 705.216 3.87917 -4.18182 0
M  V30 7612 O 704.15 2.4536 -5.4962 0
M  V30 7613 H 707.976 0.254416 -3.02632 0
M  V30 7614 H 705.561 0.0595507 -1.49281 0
M  V30 7615 H 707.443 2.69816 -3.23693 0
M  V30 7616 H 706.118 2.49874 -2.05779 0
M  V30 7617 H 705.025 0.815924 -3.65094 0
M  V30 7618 H 706.358 1.09271 -4.79917 0
M  V30 7619 N 708.01 1.57248 0.105221 0
M  V30 7620 C 708.943 1.96567 1.15916 0
M  V30 7621 C 709.921 0.837355 1.39381 0
M  V30 7622 O 711.105 1.09676 1.53308 0
M  V30 7623 C 708.232 2.27375 2.51035 0
M  V30 7624 C 707.278 3.49869 2.43913 0
M  V30 7625 S 708.111 5.01958 1.86543 0
M  V30 7626 C 709.267 5.35932 3.23307 0
M  V30 7627 H 709.5 2.85655 0.823931 0
M  V30 7628 H 707.033 1.51204 0.312515 0
M  V30 7629 H 708.991 2.45801 3.28774 0
M  V30 7630 H 707.652 1.38876 2.81731 0
M  V30 7631 H 706.845 3.68835 3.43477 0
M  V30 7632 H 706.447 3.30901 1.743 0
M  V30 7633 H 708.739 5.31958 4.19556 0
M  V30 7634 H 709.682 6.37047 3.09155 0
M  V30 7635 H 710.09 4.63397 3.22372 0
M  V30 7636 N 709.488 -0.375779 1.53054 0
M  V30 7637 C 710.435 -1.45978 1.78771 0
M  V30 7638 C 711.405 -1.53625 0.631552 0
M  V30 7639 O 712.59 -1.69674 0.872667 0
M  V30 7640 C 709.73 -2.8305 1.97425 0
M  V30 7641 C 708.843 -2.84451 3.25134 0
M  V30 7642 C 707.978 -4.13034 3.34031 0
M  V30 7643 C 707.017 -4.08536 4.55812 0
M  V30 7644 N 706.154 -5.2875 4.61918 0
M  V30 7645 H 710.994 -1.23349 2.71273 0
M  V30 7646 H 708.531 -0.598147 1.3439 0
M  V30 7647 H 710.489 -3.62666 2.06225 0
M  V30 7648 H 709.119 -3.04101 1.0827 0
M  V30 7649 H 708.171 -1.97127 3.25338 0
M  V30 7650 H 709.483 -2.76998 4.14818 0
M  V30 7651 H 708.637 -5.0106 3.42087 0
M  V30 7652 H 707.376 -4.23226 2.42345 0
M  V30 7653 H 706.381 -3.18897 4.47867 0
M  V30 7654 H 707.606 -3.99955 5.48828 0
M  V30 7655 H 705.552 -5.39547 3.73129 0
M  V30 7656 H 705.469 -5.23426 5.45492 0
M  V30 7657 H 706.737 -6.18637 4.74245 0
M  V30 7658 N 710.966 -1.44241 -0.634997 0
M  V30 7659 C 712.191 -1.50516 -1.42687 0
M  V30 7660 C 712.616 -0.129864 -1.87651 0
M  V30 7661 O 711.974 0.880164 -1.58502 0
M  V30 7662 C 712.022 -2.4714 -2.62591 0
M  V30 7663 O 711.126 -1.97025 -3.62291 0
M  V30 7664 H 710.467 -0.50841 -0.427101 0
M  V30 7665 H 712.997 -1.89337 -0.775408 0
M  V30 7666 H 713.007 -2.65048 -3.10183 0
M  V30 7667 H 711.682 -3.47039 -2.29209 0
M  V30 7668 H 710.259 -1.88866 -3.21534 0
M  V30 7669 N 712.444 0.87505 -1.31075 0
M  V30 7670 C 713.392 2.00317 -1.18219 0
M  V30 7671 C 714.386 1.69152 -0.0916872 0
M  V30 7672 O 715.592 1.7821 -0.253229 0
M  V30 7673 H 711.967 0.656981 -0.365895 0
M  V30 7674 H 713.938 2.08293 -2.13674 0
M  V30 7675 C 712.687 3.35821 -0.901095 0
M  V30 7676 H 712.01 3.6032 -1.73233 0
M  V30 7677 H 713.45 4.15366 -0.851295 0
M  V30 7678 C 711.909 3.34563 0.396114 0
M  V30 7679 O 712.439 3.75971 1.41452 0
M  V30 7680 N 710.645 2.87681 0.410832 0
M  V30 7681 H 710.192 2.54179 -0.418415 0
M  V30 7682 H 710.15 2.87223 1.27869 0
M  V30 7683 N 713.922 1.13953 1.08869 0
M  V30 7684 C 714.832 0.835666 2.19212 0
M  V30 7685 C 715.848 -0.182005 1.73045 0
M  V30 7686 O 717.024 -0.0116661 2.01397 0
M  V30 7687 C 714.089 0.312325 3.4529 0
M  V30 7688 C 713.15 1.39196 4.06107 0
M  V30 7689 C 712.383 0.893496 5.26168 0
M  V30 7690 O 712.606 -0.266807 5.69776 0
M  V30 7691 O 711.54 1.67037 5.78258 0
M  V30 7692 H 715.366 1.75769 2.47667 0
M  V30 7693 H 712.951 0.917421 1.17914 0
M  V30 7694 H 714.833 0.0261582 4.21392 0
M  V30 7695 H 713.508 -0.582042 3.18424 0
M  V30 7696 H 712.415 1.73152 3.31616 0
M  V30 7697 H 713.748 2.26068 4.37212 0
M  V30 7698 N 715.4 -1.26948 0.933913 0
M  V30 7699 C 716.348 -2.2862 0.428463 0
M  V30 7700 C 717.342 -1.62144 -0.490464 0
M  V30 7701 O 718.548 -1.76167 -0.36948 0
M  V30 7702 H 714.923 -0.742363 0.120003 0
M  V30 7703 H 716.894 -2.68659 1.29865 0
M  V30 7704 C 715.643 -3.46423 -0.29774 0
M  V30 7705 H 714.966 -3.97792 0.400183 0
M  V30 7706 H 716.406 -4.19505 -0.615736 0
M  V30 7707 C 714.865 -3.01017 -1.51295 0
M  V30 7708 O 715.395 -3.05226 -2.61151 0
M  V30 7709 N 713.601 -2.56442 -1.36696 0
M  V30 7710 H 713.148 -2.53217 -0.473178 0
M  V30 7711 H 713.106 -2.26424 -2.18127 0
M  V30 7712 N 716.879 -0.700114 -1.41195 0
M  V30 7713 C 718.107 -0.242179 -2.05478 0
M  V30 7714 C 718.522 1.11029 -1.52702 0
M  V30 7715 O 717.879 1.69473 -0.677127 0
M  V30 7716 C 717.93 -0.196271 -3.60967 0
M  V30 7717 O 717.651 -1.49532 -4.11791 0
M  V30 7718 C 719.152 0.282102 -4.42401 0
M  V30 7719 H 716.372 -0.111749 -0.661629 0
M  V30 7720 H 718.916 -0.953975 -1.80885 0
M  V30 7721 H 717.071 0.46638 -3.84582 0
M  V30 7722 H 717.485 -1.38545 -5.05871 0
M  V30 7723 H 718.959 0.263093 -5.51373 0
M  V30 7724 H 719.436 1.32174 -4.1884 0
M  V30 7725 H 720.042 -0.349712 -4.2386 0
M  V30 7726 N 718.357 1.51182 -0.445186 0
M  V30 7727 C 719.606 2.01342 0.120189 0
M  V30 7728 C 719.919 1.33353 1.43095 0
M  V30 7729 O 721.125 1.74525 2.07974 0
M  V30 7730 C 719.581 3.58925 0.264732 0
M  V30 7731 C 719.189 4.35855 -1.03606 0
M  V30 7732 C 720.933 4.17208 0.783455 0
M  V30 7733 C 718.84 5.85162 -0.856731 0
M  V30 7734 H 717.77 0.752426 0.0486922 0
M  V30 7735 H 720.421 1.74221 -0.576143 0
M  V30 7736 H 718.803 3.82525 1.02425 0
M  V30 7737 H 719.977 4.23997 -1.80452 0
M  V30 7738 H 718.292 3.89062 -1.48391 0
M  V30 7739 H 720.889 5.26475 0.934239 0
M  V30 7740 H 721.232 3.76892 1.768 0
M  V30 7741 H 721.765 3.97715 0.0820346 0
M  V30 7742 H 718.504 6.29904 -1.81388 0
M  V30 7743 H 718.024 5.99663 -0.128206 0
M  V30 7744 H 719.703 6.44963 -0.513027 0
M  V30 7745 N 719.835 0.176821 1.56605 0
M  V30 7746 C 721.084 -0.466833 1.96223 0
M  V30 7747 C 721.397 -1.64015 1.06576 0
M  V30 7748 O 722.603 -2.3504 1.35898 0
M  V30 7749 C 721.059 -0.881921 3.48927 0
M  V30 7750 C 720.667 0.266102 4.47209 0
M  V30 7751 C 722.411 -1.49368 3.97353 0
M  V30 7752 C 720.318 -0.168923 5.91159 0
M  V30 7753 H 719.248 -0.178178 0.732645 0
M  V30 7754 H 721.899 0.265929 1.81563 0
M  V30 7755 H 720.281 -1.67082 3.59026 0
M  V30 7756 H 721.455 1.04349 4.4883 0
M  V30 7757 H 719.77 0.788178 4.08872 0
M  V30 7758 H 722.367 -1.8313 5.02362 0
M  V30 7759 H 722.71 -2.3936 3.40606 0
M  V30 7760 H 723.243 -0.769114 3.90294 0
M  V30 7761 H 719.982 0.696351 6.51791 0
M  V30 7762 H 719.502 -0.911552 5.92833 0
M  V30 7763 H 721.181 -0.610938 6.44109 0
M  V30 7764 N 721.313 -1.57302 -0.09688 0
M  V30 7765 C 722.538 -1.9058 -0.818169 0
M  V30 7766 C 722.963 -0.770921 -1.71576 0
M  V30 7767 O 722.321 0.277588 -1.79162 0
M  V30 7768 C 722.369 -3.22714 -1.60898 0
M  V30 7769 O 721.473 -3.10178 -2.71779 0
M  V30 7770 H 720.814 -0.624759 -0.224882 0
M  V30 7771 H 723.344 -2.04471 -0.07264 0
M  V30 7772 H 723.354 -3.55978 -1.99358 0
M  V30 7773 H 722.029 -4.04899 -0.950227 0
M  V30 7774 H 720.606 -2.88424 -2.3636 0
M  V30 7775 N 722.791 0.367657 -1.53252 0
M  V30 7776 C 724.207 0.709191 -1.42978 0
M  V30 7777 C 724.407 1.93352 -0.567193 0
M  V30 7778 O 723.463 2.52453 -0.0488349 0
M  V30 7779 C 724.776 0.924338 -2.86141 0
M  V30 7780 C 726.324 1.02448 -2.95759 0
M  V30 7781 C 726.799 1.27211 -4.39979 0
M  V30 7782 N 728.29 1.33986 -4.43398 0
M  V30 7783 C 729.025 1.54852 -5.52095 0
M  V30 7784 N 728.521 1.73049 -6.7084 0
M  V30 7785 N 730.314 1.57205 -5.39669 0
M  V30 7786 H 722.465 -0.437669 -2.07842 0
M  V30 7787 H 724.728 -0.133737 -0.938519 0
M  V30 7788 H 724.434 0.0965455 -3.51567 0
M  V30 7789 H 724.308 1.83302 -3.29667 0
M  V30 7790 H 726.695 1.84282 -2.30487 0
M  V30 7791 H 726.776 0.0932301 -2.5563 0
M  V30 7792 H 726.42 0.458792 -5.05824 0
M  V30 7793 H 726.35 2.21654 -4.77679 0
M  V30 7794 H 728.841 1.21545 -3.5782 0
M  V30 7795 H 729.154 1.88538 -7.49449 0
M  V30 7796 H 727.499 1.70231 -6.7383 0
M  V30 7797 H 730.69 1.42555 -4.45865 0
M  V30 7798 H 730.863 1.73126 -6.24445 0
M  V30 7799 N 724.269 1.44576 0.627338 0
M  V30 7800 C 725.517 1.47267 1.38408 0
M  V30 7801 C 725.838 0.107971 1.94701 0
M  V30 7802 O 725.108 -0.860206 1.76004 0
M  V30 7803 H 723.688 0.542276 0.513756 0
M  V30 7804 H 726.35 1.80383 0.738099 0
M  V30 7805 H 725.446 2.20025 2.21349 0
M  V30 7806 N 725.747 -0.868086 1.31537 0
M  V30 7807 C 726.972 -1.65926 1.24432 0
M  V30 7808 C 727.397 -1.87169 -0.186936 0
M  V30 7809 O 726.755 -1.4148 -1.13371 0
M  V30 7810 C 726.803 -3.00347 1.9956 0
M  V30 7811 O 725.907 -3.90221 1.33422 0
M  V30 7812 H 725.248 -0.506375 0.429512 0
M  V30 7813 H 727.778 -1.0822 1.73637 0
M  V30 7814 H 727.788 -3.50269 2.09226 0
M  V30 7815 H 726.463 -2.84205 3.03645 0
M  V30 7816 H 725.04 -3.48672 1.32219 0
M  V30 7817 N 727.225 -1.14528 -1.08264 0
M  V30 7818 C 728.172 -0.833556 -2.15222 0
M  V30 7819 C 729.142 0.209539 -1.64773 0
M  V30 7820 O 730.327 0.0791388 -1.90636 0
M  V30 7821 C 727.467 -0.318799 -3.43624 0
M  V30 7822 C 726.58 -1.42237 -4.07913 0
M  V30 7823 C 725.715 -0.864704 -5.24115 0
M  V30 7824 C 724.754 -1.94585 -5.80347 0
M  V30 7825 N 723.891 -1.40525 -6.87893 0
M  V30 7826 H 728.731 -1.74965 -2.41228 0
M  V30 7827 H 726.268 -0.873169 -1.18381 0
M  V30 7828 H 728.226 -0.00213088 -4.172 0
M  V30 7829 H 726.856 0.560397 -3.17898 0
M  V30 7830 H 725.908 -1.8554 -3.32083 0
M  V30 7831 H 727.22 -2.23901 -4.45724 0
M  V30 7832 H 726.374 -0.500025 -6.04636 0
M  V30 7833 H 725.113 -0.0171219 -4.87697 0
M  V30 7834 H 724.118 -2.31946 -4.98479 0
M  V30 7835 H 725.343 -2.79704 -6.18823 0
M  V30 7836 H 723.289 -0.579873 -6.53432 0
M  V30 7837 H 723.206 -2.15825 -7.24538 0
M  V30 7838 H 724.474 -1.06852 -7.72142 0
M  V30 7839 N 728.703 1.26451 -0.940633 0
M  V30 7840 C 729.952 1.93071 -0.583656 0
M  V30 7841 C 730.265 1.74618 0.881366 0
M  V30 7842 O 731.471 2.35689 1.34769 0
M  V30 7843 C 729.927 3.45927 -0.993106 0
M  V30 7844 C 729.535 3.73115 -2.4797 0
M  V30 7845 C 731.279 4.18554 -0.707998 0
M  V30 7846 C 729.186 5.19408 -2.82788 0
M  V30 7847 H 728.116 0.722824 -0.214572 0
M  V30 7848 H 730.767 1.43538 -1.1432 0
M  V30 7849 H 729.149 3.94341 -0.362099 0
M  V30 7850 H 730.323 3.35408 -3.15971 0
M  V30 7851 H 728.638 3.13719 -2.73805 0
M  V30 7852 H 731.235 5.26293 -0.94447 0
M  V30 7853 H 731.578 4.14782 0.355225 0
M  V30 7854 H 732.111 3.76003 -1.2987 0
M  V30 7855 H 728.85 5.28281 -3.88071 0
M  V30 7856 H 728.37 5.58214 -2.19449 0
M  V30 7857 H 730.049 5.87407 -2.71224 0
M  V30 7858 N 730.181 0.707592 1.40822 0
M  V30 7859 C 731.111 0.0644925 2.33411 0
M  V30 7860 C 732.092 -0.754205 1.52466 0
M  V30 7861 O 733.277 -0.704749 1.80961 0
M  V30 7862 C 730.407 -0.863865 3.36385 0
M  V30 7863 C 729.361 -0.15138 4.27732 0
M  V30 7864 C 728.687 -1.19491 5.21177 0
M  V30 7865 C 729.987 0.989607 5.12839 0
M  V30 7866 H 731.681 0.837829 2.87438 0
M  V30 7867 H 729.227 0.404346 1.38207 0
M  V30 7868 H 731.18 -1.32309 4.0009 0
M  V30 7869 H 729.904 -1.66901 2.80734 0
M  V30 7870 H 728.563 0.287937 3.65467 0
M  V30 7871 H 728.211 -1.9929 4.61836 0
M  V30 7872 H 727.911 -0.723123 5.83134 0
M  V30 7873 H 729.435 -1.6544 5.8776 0
M  V30 7874 H 730.849 0.610114 5.70044 0
M  V30 7875 H 729.246 1.38926 5.83798 0
M  V30 7876 H 730.316 1.82389 4.49291 0
M  V30 7877 N 731.66 -1.50943 0.453197 0
M  V30 7878 C 732.57 -2.31884 -0.355963 0
M  V30 7879 C 733.586 -1.41481 -1.01287 0
M  V30 7880 O 734.762 -1.74546 -1.00477 0
M  V30 7881 C 731.827 -3.15668 -1.43369 0
M  V30 7882 C 730.888 -4.2187 -0.795253 0
M  V30 7883 C 730.121 -5.0165 -1.82162 0
M  V30 7884 O 730.344 -4.82266 -3.04592 0
M  V30 7885 O 729.278 -5.85311 -1.40336 0
M  V30 7886 H 733.104 -3.02162 0.305248 0
M  V30 7887 H 730.689 -1.47839 0.215398 0
M  V30 7888 H 732.571 -3.67709 -2.05836 0
M  V30 7889 H 731.246 -2.48137 -2.07869 0
M  V30 7890 H 730.153 -3.73867 -0.132106 0
M  V30 7891 H 731.486 -4.9182 -0.193484 0
M  V30 7892 N 733.138 -0.185124 -1.56509 0
M  V30 7893 C 734.415 0.503348 -1.89013 0
M  V30 7894 C 734.795 1.80349 -1.09715 0
M  V30 7895 O 734.143 2.27665 -0.195203 0
M  V30 7896 C 734.353 0.731839 -3.41241 0
M  V30 7897 C 735.701 1.05568 -4.11267 0
M  V30 7898 O 736.725 0.819906 -3.46635 0
M  V30 7899 O 735.584 1.50116 -5.25478 0
M  V30 7900 H 732.678 0.261139 -0.784688 0
M  V30 7901 H 735.224 -0.224592 -1.68207 0
M  V30 7902 H 733.996 -0.18672 -3.90854 0
M  V30 7903 H 733.619 1.5126 -3.67704 0
M  V30 7904 N 734.616 1.57351 0.0885366 0
M  V30 7905 C 735.563 2.02523 1.10693 0
M  V30 7906 C 736.533 0.902736 1.39427 0
M  V30 7907 O 737.718 1.16921 1.50779 0
M  V30 7908 C 734.858 2.46013 2.42016 0
M  V30 7909 C 733.971 3.7181 2.19957 0
M  V30 7910 C 733.106 4.04152 3.44724 0
M  V30 7911 C 732.145 5.2304 3.17956 0
M  V30 7912 N 731.282 5.51102 4.35007 0
M  V30 7913 H 736.122 2.89302 0.714742 0
M  V30 7914 H 733.659 1.43084 0.341378 0
M  V30 7915 H 735.617 2.69274 3.18665 0
M  V30 7916 H 734.247 1.62235 2.79069 0
M  V30 7917 H 733.299 3.55987 1.34079 0
M  V30 7918 H 734.611 4.58604 1.96173 0
M  V30 7919 H 733.765 4.28225 4.29777 0
M  V30 7920 H 732.504 3.15893 3.71568 0
M  V30 7921 H 731.509 4.98781 2.31296 0
M  V30 7922 H 732.734 6.12902 2.92451 0
M  V30 7923 H 730.68 4.65802 4.61914 0
M  V30 7924 H 730.597 6.3228 4.14437 0
M  V30 7925 H 731.865 5.79714 5.21106 0
M  V30 7926 N 736.094 -0.359525 1.53444 0
M  V30 7927 C 737.343 -1.09886 1.69139 0
M  V30 7928 C 737.656 -1.90285 0.452863 0
M  V30 7929 O 738.862 -2.67033 0.490459 0
M  V30 7930 C 737.318 -2.0028 2.99025 0
M  V30 7931 C 736.926 -1.25164 4.30161 0
M  V30 7932 C 738.67 -2.74168 3.24086 0
M  V30 7933 C 736.577 -2.14494 5.51132 0
M  V30 7934 H 735.507 -0.413936 0.630217 0
M  V30 7935 H 738.158 -0.359434 1.79945 0
M  V30 7936 H 736.54 -2.77978 2.82036 0
M  V30 7937 H 737.714 -0.524867 4.57801 0
M  V30 7938 H 736.029 -0.631116 4.11589 0
M  V30 7939 H 738.626 -3.41243 4.11652 0
M  V30 7940 H 738.969 -3.39868 2.40407 0
M  V30 7941 H 739.502 -2.0355 3.41778 0
M  V30 7942 H 736.241 -1.53362 6.37307 0
M  V30 7943 H 735.761 -2.85004 5.27762 0
M  V30 7944 H 737.44 -2.73914 5.86157 0
M  V30 7945 N 737.572 -1.44907 -0.619662 0
M  V30 7946 C 738.52 -1.52971 -1.75222 0
M  V30 7947 C 739.514 -0.400531 -1.64597 0
M  V30 7948 O 740.72 -0.575952 -1.70537 0
M  V30 7949 H 737.095 -0.480241 -0.578682 0
M  V30 7950 H 739.066 -2.48269 -1.65545 0
M  V30 7951 C 737.815 -1.50204 -3.13583 0
M  V30 7952 H 737.138 -2.36412 -3.22412 0
M  V30 7953 H 738.578 -1.59905 -3.92691 0
M  V30 7954 C 737.037 -0.22455 -3.36151 0
M  V30 7955 O 737.567 0.700574 -3.95544 0
M  V30 7956 N 735.773 -0.124052 -2.90335 0
M  V30 7957 H 735.32 -0.87774 -2.42185 0
M  V30 7958 H 735.278 0.729914 -3.0581 0
M  V30 7959 N 739.05 0.861098 -1.31996 0
M  V30 7960 C 739.997 1.96912 -1.20392 0
M  V30 7961 C 740.967 1.65869 -0.0875899 0
M  V30 7962 O 742.152 1.88992 -0.262011 0
M  V30 7963 C 739.292 3.32435 -0.926335 0
M  V30 7964 C 738.405 3.76018 -2.12684 0
M  V30 7965 C 737.54 5.00301 -1.78529 0
M  V30 7966 C 736.579 5.36357 -2.94937 0
M  V30 7967 N 735.716 6.51818 -2.60917 0
M  V30 7968 H 740.556 2.06169 -2.1517 0
M  V30 7969 H 738.093 1.00917 -1.07024 0
M  V30 7970 H 740.051 4.10478 -0.745917 0
M  V30 7971 H 738.681 3.22796 -0.0153578 0
M  V30 7972 H 737.733 2.93683 -2.41774 0
M  V30 7973 H 739.045 3.98664 -2.99781 0
M  V30 7974 H 738.199 5.86034 -1.57001 0
M  V30 7975 H 736.938 4.79578 -0.886356 0
M  V30 7976 H 735.943 4.49139 -3.17103 0
M  V30 7977 H 737.168 5.59041 -3.85552 0
M  V30 7978 H 735.114 6.32624 -1.73558 0
M  V30 7979 H 735.031 6.7445 -3.41544 0
M  V30 7980 H 736.299 7.4072 -2.42804 0
M  V30 7981 N 740.528 1.15101 1.07655 0
M  V30 7982 C 741.758 0.946357 1.83651 0
M  V30 7983 C 742.166 -0.508641 1.82235 0
M  V30 7984 O 741.509 -1.36445 1.22997 0
M  V30 7985 C 741.571 1.37945 3.31981 0
M  V30 7986 C 741.235 2.85155 3.57122 0
M  V30 7987 C 742.232 3.83234 3.51323 0
M  V30 7988 C 739.917 3.2275 3.84887 0
M  V30 7989 C 741.911 5.16914 3.72932 0
M  V30 7990 C 739.598 4.56604 4.06148 0
M  V30 7991 C 740.596 5.53495 4.00165 0
M  V30 7992 O 740.284 6.84931 4.20861 0
M  V30 7993 H 740.016 0.336368 0.586372 0
M  V30 7994 H 742.57 1.53198 1.36819 0
M  V30 7995 H 740.8 0.737205 3.79608 0
M  V30 7996 H 742.489 1.14439 3.89434 0
M  V30 7997 H 743.255 3.55535 3.29878 0
M  V30 7998 H 739.134 2.47921 3.88659 0
M  V30 7999 H 742.678 5.92529 3.68178 0
M  V30 8000 H 738.575 4.84019 4.27078 0
M  V30 8001 H 739.343 6.91304 4.38226 0
M  V30 8002 N 742.006 -1.2595 0.947325 0
M  V30 8003 C 743.246 -1.95218 0.605743 0
M  V30 8004 C 743.61 -1.72624 -0.84054 0
M  V30 8005 O 744.811 -2.35748 -1.29136 0
M  V30 8006 C 743.082 -3.44654 0.94596 0
M  V30 8007 S 744.641 -4.32922 0.715849 0
M  V30 8008 H 741.459 -0.675159 0.222894 0
M  V30 8009 H 744.061 -1.52766 1.21995 0
M  V30 8010 H 742.765 -3.586 1.99585 0
M  V30 8011 H 742.296 -3.92082 0.321718 0
M  V30 8012 H 744.311 -4.94445 -0.416959 0
M  V30 8013 N 743.484 -0.715051 -1.40445 0
M  V30 8014 C 744.714 -0.263576 -2.04912 0
M  V30 8015 C 745.122 1.09943 -1.53978 0
M  V30 8016 O 744.465 1.70203 -0.691133 0
M  V30 8017 C 744.527 -0.165048 -3.59121 0
M  V30 8018 C 744.191 -1.46325 -4.32941 0
M  V30 8019 C 745.188 -2.40506 -4.60926 0
M  V30 8020 C 742.873 -1.72203 -4.7186 0
M  V30 8021 C 744.867 -3.58812 -5.26814 0
M  V30 8022 C 742.554 -2.9079 -5.3748 0
M  V30 8023 C 743.552 -3.83917 -5.64887 0
M  V30 8024 O 743.24 -5.00424 -6.29151 0
M  V30 8025 H 742.972 -0.116317 -0.665918 0
M  V30 8026 H 745.526 -0.973774 -1.8085 0
M  V30 8027 H 743.756 0.601088 -3.82 0
M  V30 8028 H 745.445 0.251794 -4.05118 0
M  V30 8029 H 746.211 -2.21778 -4.31323 0
M  V30 8030 H 742.09 -1.00571 -4.49896 0
M  V30 8031 H 745.634 -4.31517 -5.48123 0
M  V30 8032 H 741.531 -3.09428 -5.66502 0
M  V30 8033 H 742.299 -5.00494 -6.47648 0
M  V30 8034 N 744.962 1.50701 -0.461195 0
M  V30 8035 C 746.187 2.07171 0.0974773 0
M  V30 8036 C 746.612 1.32391 1.3362 0
M  V30 8037 O 745.97 0.368676 1.77512 0
M  V30 8038 C 746.018 3.58651 0.374409 0
M  V30 8039 O 745.122 3.85816 1.4567 0
M  V30 8040 H 744.463 0.663944 -0.00862047 0
M  V30 8041 H 746.993 1.94021 -0.649394 0
M  V30 8042 H 747.003 4.03295 0.617843 0
M  V30 8043 H 745.678 4.12498 -0.530829 0
M  V30 8044 H 744.255 3.53018 1.20136 0
M  V30 8045 N 746.441 0.193421 1.56409 0
M  V30 8046 C 747.351 -0.740112 2.2262 0
M  V30 8047 C 748.367 -1.23597 1.22474 0
M  V30 8048 O 749.543 -1.28348 1.55206 0
M  V30 8049 C 746.608 -1.94317 2.87127 0
M  V30 8050 C 745.669 -1.49205 4.02538 0
M  V30 8051 C 744.902 -2.63776 4.63959 0
M  V30 8052 O 745.125 -3.81215 4.24301 0
M  V30 8053 O 744.059 -2.36585 5.53454 0
M  V30 8054 H 747.885 -0.206238 3.02999 0
M  V30 8055 H 745.47 -0.0357938 1.49357 0
M  V30 8056 H 747.352 -2.64633 3.27944 0
M  V30 8057 H 746.027 -2.46568 2.09728 0
M  V30 8058 H 744.934 -0.757738 3.66346 0
M  V30 8059 H 746.267 -1.01622 4.81595 0
M  V30 8060 N 747.919 -1.57396 -0.0801906 0
M  V30 8061 C 749.149 -1.90778 -0.792924 0
M  V30 8062 C 749.557 -0.786814 -1.72064 0
M  V30 8063 O 748.9 0.249259 -1.82001 0
M  V30 8064 C 748.962 -3.19552 -1.64702 0
M  V30 8065 C 748.626 -4.48259 -0.889567 0
M  V30 8066 C 749.623 -5.19465 -0.212602 0
M  V30 8067 C 747.308 -4.94896 -0.859229 0
M  V30 8068 C 749.302 -6.35555 0.484566 0
M  V30 8069 C 746.989 -6.10895 -0.158284 0
M  V30 8070 C 747.987 -6.81075 0.512421 0
M  V30 8071 O 747.675 -7.94862 1.20209 0
M  V30 8072 H 747.407 -0.63527 -0.231103 0
M  V30 8073 H 749.961 -2.0532 -0.0573081 0
M  V30 8074 H 748.191 -3.01196 -2.42524 0
M  V30 8075 H 749.88 -3.38649 -2.23767 0
M  V30 8076 H 750.646 -4.84467 -0.227403 0
M  V30 8077 H 746.525 -4.4015 -1.37073 0
M  V30 8078 H 750.069 -6.9027 1.00864 0
M  V30 8079 H 745.966 -6.45345 -0.141381 0
M  V30 8080 H 746.734 -8.10932 1.11051 0
M  V30 8081 N 749.397 0.351382 -1.53633 0
M  V30 8082 C 750.674 1.10903 -1.6112 0
M  V30 8083 C 751.054 2.06725 -0.427556 0
M  V30 8084 O 750.402 2.20992 0.580916 0
M  V30 8085 C 750.612 1.83561 -2.96827 0
M  V30 8086 C 751.96 2.37587 -3.51906 0
M  V30 8087 O 752.984 1.93669 -2.9895 0
M  V30 8088 O 751.843 3.17913 -4.44515 0
M  V30 8089 H 748.937 0.509558 -0.651368 0
M  V30 8090 H 751.483 0.353504 -1.65977 0
M  V30 8091 H 750.255 1.1371 -3.74414 0
M  V30 8092 H 749.878 2.6599 -2.95525 0
M  V30 8093 N 750.875 1.45233 0.611969 0
M  V30 8094 C 752.105 1.52318 1.39581 0
M  V30 8095 C 752.513 0.153093 1.8858 0
M  V30 8096 O 751.856 -0.854792 1.62601 0
M  V30 8097 C 751.918 2.4426 2.63775 0
M  V30 8098 C 751.582 3.91079 2.36445 0
M  V30 8099 C 752.579 4.81099 1.97079 0
M  V30 8100 C 750.264 4.35958 2.49492 0
M  V30 8101 C 752.258 6.14002 1.71115 0
M  V30 8102 C 749.945 5.68903 2.23142 0
M  V30 8103 C 750.943 6.57744 1.84015 0
M  V30 8104 O 750.631 7.88226 1.5797 0
M  V30 8105 H 750.363 0.518428 0.43383 0
M  V30 8106 H 752.917 1.91067 0.753837 0
M  V30 8107 H 751.147 2.00474 3.30677 0
M  V30 8108 H 752.836 2.42077 3.25812 0
M  V30 8109 H 753.602 4.47692 1.86539 0
M  V30 8110 H 749.481 3.67053 2.78914 0
M  V30 8111 H 753.025 6.83305 1.405 0
M  V30 8112 H 748.922 6.01866 2.33297 0
M  V30 8113 H 749.69 8.00211 1.72058 0
M  V30 8114 N 752.353 -0.854086 1.3245 0
M  V30 8115 C 753.301 -1.98411 1.21391 0
M  V30 8116 C 754.295 -1.68984 0.118586 0
M  V30 8117 O 755.501 -1.77784 0.281549 0
M  V30 8118 H 751.876 -0.651077 0.376301 0
M  V30 8119 H 753.847 -2.04867 2.16961 0
M  V30 8120 C 752.596 -3.34345 0.954407 0
M  V30 8121 H 751.919 -3.57518 1.78944 0
M  V30 8122 H 753.359 -4.13959 0.917269 0
M  V30 8123 C 751.818 -3.35151 -0.342838 0
M  V30 8124 O 752.348 -3.78174 -1.35452 0
M  V30 8125 N 750.554 -2.88298 -0.365012 0
M  V30 8126 H 750.101 -2.53481 0.4588 0
M  V30 8127 H 750.059 -2.8922 -1.23284 0
M  V30 8128 N 753.831 -1.1567 -1.07043 0
M  V30 8129 C 755.078 -0.933517 -1.79699 0
M  V30 8130 C 755.406 0.539162 -1.86878 0
M  V30 8131 O 754.661 1.41592 -1.35093 0
M  V30 8132 C 754.96 -1.49677 -3.24548 0
M  V30 8133 C 754.626 -2.99047 -3.37463 0
M  V30 8134 C 753.288 -3.39824 -3.40695 0
M  V30 8135 C 755.64 -3.95027 -3.40004 0
M  V30 8136 C 752.968 -4.75215 -3.44075 0
M  V30 8137 C 755.32 -5.30295 -3.44921 0
M  V30 8138 C 753.984 -5.70562 -3.46432 0
M  V30 8139 H 753.254 -0.341598 -0.657565 0
M  V30 8140 H 755.901 -1.44263 -1.25938 0
M  V30 8141 H 754.206 -0.908915 -3.81111 0
M  V30 8142 H 755.903 -1.29986 -3.79348 0
M  V30 8143 H 752.493 -2.6653 -3.35648 0
M  V30 8144 H 756.677 -3.64596 -3.36725 0
M  V30 8145 H 751.933 -5.05754 -3.43545 0
M  V30 8146 H 756.107 -6.0446 -3.45833 0
M  V30 8147 H 753.734 -6.75456 -3.48803 0
M  V30 8148 N 755.309 1.25446 -0.953992 0
M  V30 8149 C 756.539 1.96929 -0.624688 0
M  V30 8150 C 756.947 1.71112 0.807292 0
M  V30 8151 O 756.29 0.983512 1.55154 0
M  V30 8152 C 756.352 3.50425 -0.802676 0
M  V30 8153 C 756.016 3.99916 -2.21169 0
M  V30 8154 C 757.013 4.10662 -3.18831 0
M  V30 8155 C 754.698 4.33598 -2.53571 0
M  V30 8156 C 756.692 4.54401 -4.46988 0
M  V30 8157 C 754.379 4.77024 -3.81958 0
M  V30 8158 C 755.377 4.87388 -4.78478 0
M  V30 8159 O 755.065 5.29851 -6.04577 0
M  V30 8160 H 754.797 0.634511 -0.233179 0
M  V30 8161 H 757.351 1.60591 -1.28061 0
M  V30 8162 H 755.581 3.86596 -0.0896044 0
M  V30 8163 H 757.27 4.03117 -0.47452 0
M  V30 8164 H 758.036 3.84872 -2.95124 0
M  V30 8165 H 753.915 4.24757 -1.79171 0
M  V30 8166 H 757.459 4.62406 -5.22328 0
M  V30 8167 H 753.356 5.02258 -4.05471 0
M  V30 8168 H 754.124 5.48039 -6.07944 0
M  V30 8169 N 756.787 0.722489 1.40064 0
M  V30 8170 C 757.72 0.0233443 2.28188 0
M  V30 8171 C 758.698 -0.7606 1.43714 0
M  V30 8172 O 759.882 -0.745791 1.73119 0
M  V30 8173 C 757.009 -0.974264 3.24385 0
M  V30 8174 C 756.055 -0.280307 4.25578 0
M  V30 8175 S 756.888 0.996769 5.26141 0
M  V30 8176 C 758.044 0.00143923 6.259 0
M  V30 8177 H 758.277 0.770705 2.87137 0
M  V30 8178 H 755.81 0.513783 1.45601 0
M  V30 8179 H 757.768 -1.5446 3.80332 0
M  V30 8180 H 756.429 -1.69438 2.6448 0
M  V30 8181 H 755.622 -1.03471 4.93264 0
M  V30 8182 H 755.224 0.217657 3.73366 0
M  V30 8183 H 757.516 -0.843126 6.72233 0
M  V30 8184 H 758.459 0.645104 7.05155 0
M  V30 8185 H 758.867 -0.365371 5.63316 0
M  V30 8186 N 758.265 -1.50454 0.469181 0
M  V30 8187 C 759.505 -2.04222 -0.0852381 0
M  V30 8188 C 759.869 -1.34357 -1.37158 0
M  V30 8189 O 761.07 -1.78669 -2.00825 0
M  V30 8190 C 759.341 -3.56403 -0.266778 0
M  V30 8191 S 760.9 -4.31811 -0.780028 0
M  V30 8192 H 757.718 -0.7108 -0.0168589 0
M  V30 8193 H 760.32 -1.8487 0.635883 0
M  V30 8194 H 759.024 -4.04807 0.67525 0
M  V30 8195 H 758.555 -3.80106 -1.01407 0
M  V30 8196 H 760.57 -4.51706 -2.05368 0
M  V30 8197 N 759.743 -0.201713 -1.56304 0
M  V30 8198 C 760.673 0.71155 -2.22394 0
M  V30 8199 C 761.654 1.21625 -1.18917 0
M  V30 8200 O 762.839 1.26388 -1.47444 0
M  V30 8201 C 759.969 1.92837 -2.88845 0
M  V30 8202 C 758.923 1.55831 -3.98623 0
M  V30 8203 C 758.249 2.85228 -4.52271 0
M  V30 8204 C 759.549 0.763249 -5.16693 0
M  V30 8205 H 761.243 0.160573 -2.98969 0
M  V30 8206 H 758.789 0.0757916 -1.438 0
M  V30 8207 H 760.742 2.57253 -3.33764 0
M  V30 8208 H 759.466 2.50398 -2.09686 0
M  V30 8209 H 758.125 0.9377 -3.54405 0
M  V30 8210 H 757.773 3.40893 -3.69866 0
M  V30 8211 H 757.473 2.6121 -5.26349 0
M  V30 8212 H 758.997 3.50622 -4.99897 0
M  V30 8213 H 760.411 1.31066 -5.58117 0
M  V30 8214 H 758.808 0.620935 -5.96879 0
M  V30 8215 H 759.878 -0.234322 -4.84334 0
M  V30 8216 N 761.222 1.57436 0.0718424 0
M  V30 8217 C 762.468 1.87525 0.772149 0
M  V30 8218 C 762.801 0.79399 1.77227 0
M  V30 8219 O 762.076 -0.195733 1.93513 0
M  V30 8220 C 762.359 3.28272 1.48018 0
M  V30 8221 C 762.212 4.47052 0.49647 0
M  V30 8222 C 763.531 3.67256 2.42509 0
M  V30 8223 H 760.65 0.682049 0.279245 0
M  V30 8224 H 763.292 1.89967 0.03534 0
M  V30 8225 H 761.442 3.26321 2.10824 0
M  V30 8226 H 763.114 4.61127 -0.126375 0
M  V30 8227 H 761.357 4.33392 -0.188205 0
M  V30 8228 H 762.028 5.42315 1.02949 0
M  V30 8229 H 764.504 3.70301 1.89781 0
M  V30 8230 H 763.38 4.66626 2.89053 0
M  V30 8231 H 763.641 2.97186 3.27312 0
M  V30 8232 N 762.7 -0.34323 1.53817 0
M  V30 8233 C 763.648 -1.44176 1.82527 0
M  V30 8234 C 764.642 -1.54452 0.695772 0
M  V30 8235 O 765.848 -1.57072 0.879114 0
M  V30 8236 H 762.223 -0.480729 0.578277 0
M  V30 8237 H 764.194 -1.17176 2.74431 0
M  V30 8238 C 762.943 -2.80695 2.05197 0
M  V30 8239 H 762.266 -2.73554 2.91561 0
M  V30 8240 H 763.706 -3.56679 2.29251 0
M  V30 8241 C 762.165 -3.26322 0.837589 0
M  V30 8242 O 762.695 -4.01683 0.0371631 0
M  V30 8243 N 760.901 -2.83128 0.654724 0
M  V30 8244 H 760.448 -2.21965 1.30725 0
M  V30 8245 H 760.406 -3.14011 -0.156345 0
M  V30 8246 N 764.178 -1.45556 -0.604258 0
M  V30 8247 C 765.418 -1.51289 -1.37445 0
M  V30 8248 C 765.782 -0.152112 -1.91397 0
M  V30 8249 O 766.983 -0.0841419 -2.68668 0
M  V30 8250 C 765.254 -2.5646 -2.48924 0
M  V30 8251 S 766.813 -2.81442 -3.36654 0
M  V30 8252 H 763.631 -0.534774 -0.468549 0
M  V30 8253 H 766.233 -1.82657 -0.696902 0
M  V30 8254 H 764.937 -3.53995 -2.07644 0
M  V30 8255 H 764.468 -2.26753 -3.21476 0
M  V30 8256 H 766.483 -2.15074 -4.47166 0
M  V30 8257 N 765.656 0.84705 -1.32902 0
M  V30 8258 C 766.604 1.97765 -1.22441 0
M  V30 8259 C 767.598 1.68919 -0.127546 0
M  V30 8260 O 768.804 1.77633 -0.290973 0
M  V30 8261 H 765.179 0.649072 -0.379748 0
M  V30 8262 H 767.15 2.03713 -2.18044 0
M  V30 8263 C 765.899 3.33834 -0.972125 0
M  V30 8264 H 765.222 3.56564 -1.80837 0
M  V30 8265 H 766.662 4.13467 -0.939209 0
M  V30 8266 C 765.121 3.35328 0.325059 0
M  V30 8267 O 765.651 3.78887 1.33445 0
M  V30 8268 N 763.857 2.88488 0.349718 0
M  V30 8269 H 763.404 2.53234 -0.472236 0
M  V30 8270 H 763.362 2.8987 1.21748 0
M  V30 8271 N 767.134 1.16236 1.06428 0
M  V30 8272 C 768.044 0.881976 2.1739 0
M  V30 8273 C 769.06 -0.145259 1.73393 0
M  V30 8274 O 770.236 0.0310558 2.01376 0
M  V30 8275 C 767.301 0.385496 3.4455 0
M  V30 8276 C 766.362 1.47779 4.03063 0
M  V30 8277 C 765.595 1.0049 5.24154 0
M  V30 8278 O 765.818 -0.145889 5.70213 0
M  V30 8279 O 764.752 1.79265 5.74585 0
M  V30 8280 H 768.578 1.80983 2.43883 0
M  V30 8281 H 766.163 0.942226 1.15942 0
M  V30 8282 H 768.045 0.115536 4.21242 0
M  V30 8283 H 766.72 -0.514369 3.19587 0
M  V30 8284 H 765.627 1.80147 3.27869 0
M  V30 8285 H 766.96 2.35291 4.32318 0
M  V30 8286 N 768.612 -1.24939 0.960631 0
M  V30 8287 C 769.575 -2.239 0.49006 0
M  V30 8288 C 770.575 -1.55497 -0.409535 0
M  V30 8289 O 771.765 -1.72978 -0.205984 0
M  V30 8290 C 768.897 -3.39654 -0.291193 0
M  V30 8291 H 770.09 -2.67044 1.36482 0
M  V30 8292 H 767.643 -1.37429 0.744505 0
M  V30 8293 H 768.378 -3.01939 -1.18336 0
M  V30 8294 H 768.163 -3.90496 0.354276 0
M  V30 8295 H 769.653 -4.13125 -0.609693 0
M  V30 8296 N 770.09 -0.729906 -1.39679 0
M  V30 8297 C 771.038 -0.0756589 -2.32477 0
M  V30 8298 C 772.032 0.731438 -1.52795 0
M  V30 8299 O 773.238 0.633195 -1.68495 0
M  V30 8300 H 769.613 -0.00566492 -0.751979 0
M  V30 8301 H 771.584 -0.874797 -2.85289 0
M  V30 8302 C 770.333 0.821313 -3.37861 0
M  V30 8303 H 769.656 0.209666 -3.9925 0
M  V30 8304 H 771.096 1.24679 -4.05254 0
M  V30 8305 C 769.555 1.9533 -2.74495 0
M  V30 8306 O 770.085 3.04548 -2.61942 0
M  V30 8307 N 768.291 1.74119 -2.3266 0
M  V30 8308 H 767.838 0.852908 -2.4307 0
M  V30 8309 H 767.796 2.50036 -1.90603 0
M  V30 8310 N 771.568 1.50203 -0.477153 0
M  V30 8311 C 772.817 2.01551 0.0774548 0
M  V30 8312 C 773.13 1.36359 1.40234 0
M  V30 8313 O 774.336 1.78898 2.04225 0
M  V30 8314 C 772.792 3.59406 0.188539 0
M  V30 8315 C 772.4 4.3356 -1.12828 0
M  V30 8316 C 774.144 4.18776 0.694782 0
M  V30 8317 C 772.051 5.83213 -0.98066 0
M  V30 8318 H 770.981 0.75329 0.0327212 0
M  V30 8319 H 773.632 1.72959 -0.612969 0
M  V30 8320 H 772.014 3.84611 0.942881 0
M  V30 8321 H 773.188 4.20074 -1.89405 0
M  V30 8322 H 771.503 3.85827 -1.5661 0
M  V30 8323 H 774.1 5.28338 0.822356 0
M  V30 8324 H 774.443 3.80557 1.68766 0
M  V30 8325 H 774.976 3.978 -0.00234519 0
M  V30 8326 H 771.715 6.25914 -1.94709 0
M  V30 8327 H 771.235 5.99256 -0.255375 0
M  V30 8328 H 772.914 6.4373 -0.649717 0
M  V30 8329 N 773.046 0.209999 1.56195 0
M  V30 8330 C 774.293 -0.424813 1.97994 0
M  V30 8331 C 774.621 -1.60589 1.09733 0
M  V30 8332 O 773.876 -1.95201 0.139693 0
M  V30 8333 C 774.175 -0.91312 3.45539 0
M  V30 8334 C 773.841 0.156187 4.50629 0
M  V30 8335 C 772.503 0.449966 4.79092 0
M  V30 8336 C 774.855 0.879959 5.13718 0
M  V30 8337 C 772.183 1.47223 5.67928 0
M  V30 8338 C 774.535 1.89148 6.0366 0
M  V30 8339 C 773.199 2.1923 6.30472 0
M  V30 8340 H 772.469 -0.15545 0.724511 0
M  V30 8341 H 775.116 0.310095 1.88973 0
M  V30 8342 H 773.421 -1.72658 3.51705 0
M  V30 8343 H 775.118 -1.41395 3.75245 0
M  V30 8344 H 771.708 -0.0829466 4.2852 0
M  V30 8345 H 775.892 0.66623 4.91808 0
M  V30 8346 H 771.148 1.71105 5.86969 0
M  V30 8347 H 775.322 2.45745 6.516 0
M  V30 8348 H 772.949 2.98587 6.99107 0
M  V30 8349 N 774.524 -1.57472 -0.0634922 0
M  V30 8350 C 775.764 -1.89491 -0.766312 0
M  V30 8351 C 776.128 -0.80475 -1.74321 0
M  V30 8352 O 777.329 -1.00825 -2.49174 0
M  V30 8353 C 775.6 -3.26731 -1.44851 0
M  V30 8354 S 777.159 -3.80516 -2.18525 0
M  V30 8355 H 773.977 -0.663832 -0.254653 0
M  V30 8356 H 776.579 -1.95488 -0.0220867 0
M  V30 8357 H 775.283 -4.03967 -0.723824 0
M  V30 8358 H 774.814 -3.23953 -2.232 0
M  V30 8359 H 776.829 -3.5647 -3.45172 0
M  V30 8360 N 776.003 0.335068 -1.53997 0
M  V30 8361 C 776.951 1.43206 -1.83289 0
M  V30 8362 C 777.945 1.54081 -0.703953 0
M  V30 8363 O 779.151 1.56603 -0.887432 0
M  V30 8364 H 775.526 0.477655 -0.580818 0
M  V30 8365 H 777.497 1.15719 -2.75049 0
M  V30 8366 C 776.246 2.79602 -2.06683 0
M  V30 8367 H 775.569 2.72004 -2.93008 0
M  V30 8368 H 777.009 3.55459 -2.31139 0
M  V30 8369 C 775.468 3.25873 -0.854883 0
M  V30 8370 O 775.998 4.01657 -0.0584648 0
M  V30 8371 N 774.204 2.82777 -0.669729 0
M  V30 8372 H 773.751 2.21269 -1.31901 0
M  V30 8373 H 773.709 3.1409 0.13969 0
M  V30 8374 N 777.481 1.45874 0.596531 0
M  V30 8375 C 778.758 1.40942 1.35627 0
M  V30 8376 C 779.138 0.0857066 2.10926 0
M  V30 8377 O 778.486 -0.932544 2.08605 0
M  V30 8378 C 778.696 2.63027 2.29386 0
M  V30 8379 C 780.044 3.08588 2.91649 0
M  V30 8380 O 781.068 2.63478 2.39704 0
M  V30 8381 O 779.927 3.86902 3.85965 0
M  V30 8382 H 777.021 0.559838 0.608696 0
M  V30 8383 H 779.567 1.5802 0.618698 0
M  V30 8384 H 778.339 3.5094 1.7308 0
M  V30 8385 H 777.962 2.48338 3.10506 0
M  V30 8386 N 778.959 -0.83999 1.33349 0
M  V30 8387 C 779.907 -1.97113 1.23488 0
M  V30 8388 C 780.901 -1.68849 0.136503 0
M  V30 8389 O 782.107 -1.77476 0.300389 0
M  V30 8390 H 778.482 -0.647049 0.383185 0
M  V30 8391 H 780.453 -2.02554 2.19122 0
M  V30 8392 C 779.202 -3.33314 0.989815 0
M  V30 8393 H 778.525 -3.556 1.82726 0
M  V30 8394 H 779.965 -4.12963 0.961123 0
M  V30 8395 C 778.424 -3.35496 -0.307272 0
M  V30 8396 O 778.954 -3.79589 -1.31434 0
M  V30 8397 N 777.16 -2.88669 -0.334414 0
M  V30 8398 H 776.707 -2.5298 0.485659 0
M  V30 8399 H 776.665 -2.90512 -1.20209 0
M  V30 8400 N 780.437 -1.16799 -1.0581 0
M  V30 8401 C 781.662 -0.977402 -1.82925 0
M  V30 8402 C 782.087 0.469514 -1.82146 0
M  V30 8403 O 781.445 1.33576 -1.22585 0
M  V30 8404 C 781.493 -1.51543 -3.27211 0
M  V30 8405 O 780.597 -0.725021 -4.05977 0
M  V30 8406 H 779.938 -0.347474 -0.565825 0
M  V30 8407 H 782.468 -1.55151 -1.33376 0
M  V30 8408 H 782.478 -1.53502 -3.78023 0
M  V30 8409 H 781.153 -2.56872 -3.27093 0
M  V30 8410 H 779.73 -0.77634 -3.64729 0
M  V30 8411 N 781.915 1.24427 -0.967243 0
M  V30 8412 C 782.847 2.24641 -0.454856 0
M  V30 8413 C 783.86 1.56849 0.436152 0
M  V30 8414 O 785.049 1.76846 0.242401 0
M  V30 8415 C 782.149 3.36954 0.362672 0
M  V30 8416 C 781.322 4.34318 -0.518324 0
M  V30 8417 C 780.381 5.25638 0.243122 0
M  V30 8418 O 779.407 5.68043 -0.362791 0
M  V30 8419 N 780.609 5.59897 1.53282 0
M  V30 8420 H 783.374 2.69238 -1.31648 0
M  V30 8421 H 780.935 1.38464 -0.839015 0
M  V30 8422 H 782.927 3.95014 0.880094 0
M  V30 8423 H 781.497 2.91646 1.12522 0
M  V30 8424 H 780.717 3.74953 -1.21672 0
M  V30 8425 H 782.005 4.96338 -1.11919 0
M  V30 8426 H 781.403 5.27373 2.04682 0
M  V30 8427 H 779.96 6.20488 1.99594 0
M  V30 8428 N 783.393 0.737304 1.3929 0
M  V30 8429 C 784.642 0.283129 1.99703 0
M  V30 8430 C 784.955 -1.13677 1.59176 0
M  V30 8431 O 786.161 -1.69058 2.12442 0
M  V30 8432 C 784.617 0.455262 3.57009 0
M  V30 8433 C 784.225 1.88319 4.06497 0
M  V30 8434 C 785.969 0.0629786 4.24453 0
M  V30 8435 C 783.876 2.00475 5.56385 0
M  V30 8436 H 782.806 0.102106 0.747054 0
M  V30 8437 H 785.457 0.911515 1.5926 0
M  V30 8438 H 783.839 -0.242057 3.9526 0
M  V30 8439 H 785.013 2.61265 3.79575 0
M  V30 8440 H 783.328 2.2289 3.51723 0
M  V30 8441 H 785.925 0.132787 5.34535 0
M  V30 8442 H 786.268 -0.982128 4.04549 0
M  V30 8443 H 786.801 0.71154 3.91385 0
M  V30 8444 H 783.54 3.03182 5.81172 0
M  V30 8445 H 783.06 1.31969 5.85102 0
M  V30 8446 H 784.739 1.787 6.21832 0
M  V30 8447 N 784.871 -1.49948 0.485112 0
M  V30 8448 C 786.117 -2.02695 -0.0651022 0
M  V30 8449 C 786.45 -1.36534 -1.38102 0
M  V30 8450 O 785.725 -0.495677 -1.88078 0
M  V30 8451 C 786.008 -3.59337 -0.234285 0
M  V30 8452 C 785.861 -4.3605 1.10364 0
M  V30 8453 C 787.18 -4.28996 -0.982351 0
M  V30 8454 H 784.299 -0.736666 -0.0221856 0
M  V30 8455 H 786.941 -1.7913 0.633433 0
M  V30 8456 H 785.091 -3.79546 -0.829262 0
M  V30 8457 H 786.763 -4.27377 1.73627 0
M  V30 8458 H 785.006 -3.99236 1.69686 0
M  V30 8459 H 785.677 -5.43959 0.938743 0
M  V30 8460 H 788.153 -4.13346 -0.477904 0
M  V30 8461 H 787.029 -5.38379 -1.06955 0
M  V30 8462 H 787.29 -3.93135 -2.02231 0
M  V30 8463 N 786.349 -0.21828 -1.56081 0
M  V30 8464 C 787.296 0.693189 -2.20144 0
M  V30 8465 C 788.266 1.19274 -1.15598 0
M  V30 8466 O 789.451 1.25243 -1.4394 0
M  V30 8467 C 786.591 1.89715 -2.88275 0
M  V30 8468 C 785.704 1.4368 -4.07407 0
M  V30 8469 C 784.839 2.59807 -4.63329 0
M  V30 8470 C 783.878 2.10492 -5.74769 0
M  V30 8471 N 783.015 3.1988 -6.24997 0
M  V30 8472 H 787.855 0.14016 -2.9767 0
M  V30 8473 H 785.392 0.0574292 -1.46988 0
M  V30 8474 H 787.35 2.60398 -3.25958 0
M  V30 8475 H 785.98 2.42311 -2.13273 0
M  V30 8476 H 785.032 0.625007 -3.7523 0
M  V30 8477 H 786.344 1.03517 -4.8794 0
M  V30 8478 H 785.498 3.38577 -5.03438 0
M  V30 8479 H 784.237 3.03256 -3.81951 0
M  V30 8480 H 783.242 1.30182 -5.34165 0
M  V30 8481 H 784.467 1.68045 -6.5798 0
M  V30 8482 H 782.413 3.62817 -5.46534 0
M  V30 8483 H 782.33 2.83958 -7.00645 0
M  V30 8484 H 783.598 3.98796 -6.69763 0
M  V30 8485 N 787.827 1.57504 0.0551401 0
M  V30 8486 C 788.774 2.04825 1.06373 0
M  V30 8487 C 789.744 0.932108 1.37481 0
M  V30 8488 O 790.929 1.20093 1.48265 0
M  V30 8489 C 788.069 2.51091 2.36743 0
M  V30 8490 C 787.182 3.76392 2.12021 0
M  V30 8491 C 786.317 4.11373 3.36074 0
M  V30 8492 C 785.356 5.29666 3.0679 0
M  V30 8493 N 784.493 5.60205 4.2322 0
M  V30 8494 H 789.333 2.90753 0.653216 0
M  V30 8495 H 786.87 1.43776 0.310951 0
M  V30 8496 H 788.828 2.75973 3.12881 0
M  V30 8497 H 787.458 1.68118 2.75565 0
M  V30 8498 H 786.51 3.58751 1.26498 0
M  V30 8499 H 787.822 4.62662 1.86401 0
M  V30 8500 H 786.976 4.37245 4.20597 0
M  V30 8501 H 785.715 3.23704 3.64784 0
M  V30 8502 H 784.72 5.03574 2.20664 0
M  V30 8503 H 785.945 6.18968 2.79385 0
M  V30 8504 H 783.891 4.75495 4.5193 0
M  V30 8505 H 783.808 6.40928 4.00933 0
M  V30 8506 H 785.076 5.90637 5.08692 0
M  V30 8507 N 789.305 -0.326896 1.54172 0
M  V30 8508 C 790.552 -1.06523 1.72218 0
M  V30 8509 C 790.88 -1.88119 0.494114 0
M  V30 8510 O 790.135 -1.8855 -0.524147 0
M  V30 8511 C 790.434 -2.0208 2.94785 0
M  V30 8512 C 790.1 -1.36665 4.2969 0
M  V30 8513 C 788.762 -1.18556 4.66367 0
M  V30 8514 C 791.114 -0.896868 5.13425 0
M  V30 8515 C 788.442 -0.521113 5.84381 0
M  V30 8516 C 790.794 -0.246261 6.3212 0
M  V30 8517 C 789.458 -0.052987 6.67479 0
M  V30 8518 H 788.728 -0.389796 0.63019 0
M  V30 8519 H 791.375 -0.342725 1.88408 0
M  V30 8520 H 789.68 -2.8077 2.73268 0
M  V30 8521 H 791.377 -2.59231 3.05941 0
M  V30 8522 H 787.967 -1.51762 4.00832 0
M  V30 8523 H 792.151 -1.02458 4.85609 0
M  V30 8524 H 787.407 -0.36014 6.10338 0
M  V30 8525 H 791.581 0.125775 6.96286 0
M  V30 8526 H 789.208 0.463903 7.58783 0
M  V30 8527 N 790.784 -1.46188 -0.588786 0
M  V30 8528 C 792.032 -1.50885 -1.34455 0
M  V30 8529 C 792.353 -0.159555 -1.94346 0
M  V30 8530 O 791.623 0.813239 -1.78222 0
M  V30 8531 H 790.203 -0.555707 -0.499198 0
M  V30 8532 H 792.865 -1.82277 -0.690014 0
M  V30 8533 H 791.961 -2.25816 -2.15438 0
M  V30 8534 N 792.262 0.832906 -1.33792 0
M  V30 8535 C 793.539 1.57359 -1.16178 0
M  V30 8536 C 793.919 2.09372 0.269532 0
M  V30 8537 O 793.267 1.89993 1.26944 0
M  V30 8538 C 793.477 2.70279 -2.20795 0
M  V30 8539 C 794.825 3.39305 -2.55259 0
M  V30 8540 O 795.849 2.80526 -2.19508 0
M  V30 8541 O 794.708 4.45428 -3.16632 0
M  V30 8542 H 791.802 0.694025 -0.449731 0
M  V30 8543 H 794.348 0.875144 -1.45394 0
M  V30 8544 H 793.12 2.29527 -3.16911 0
M  V30 8545 H 792.743 3.47782 -1.927 0
M  V30 8546 N 793.74 1.17359 1.05189 0
M  V30 8547 C 794.965 0.98709 1.82404 0
M  V30 8548 C 795.39 -0.459848 1.82392 0
M  V30 8549 O 794.748 -1.32924 1.23292 0
M  V30 8550 C 794.796 1.53276 3.26403 0
M  V30 8551 O 793.9 0.746541 4.05587 0
M  V30 8552 H 793.241 0.35047 0.563974 0
M  V30 8553 H 795.771 1.55856 1.32552 0
M  V30 8554 H 795.781 1.55504 3.77203 0
M  V30 8555 H 794.456 2.58603 3.25726 0
M  V30 8556 H 793.033 0.795671 3.64312 0
M  V30 8557 N 795.218 -1.23913 0.973828 0
M  V30 8558 C 796.446 -1.96195 0.656891 0
M  V30 8559 C 796.861 -1.72166 -0.774876 0
M  V30 8560 O 796.218 -1.0091 -1.52064 0
M  V30 8561 C 796.269 -3.49342 0.929638 0
M  V30 8562 O 795.99 -3.72553 2.30512 0
M  V30 8563 C 797.491 -4.38833 0.627739 0
M  V30 8564 H 794.711 -0.624841 0.244572 0
M  V30 8565 H 797.255 -1.57579 1.30343 0
M  V30 8566 H 795.41 -3.85999 0.329216 0
M  V30 8567 H 795.824 -4.66893 2.3898 0
M  V30 8568 H 797.298 -5.45117 0.868991 0
M  V30 8569 H 797.775 -4.37009 -0.438104 0
M  V30 8570 H 798.381 -4.07773 1.20834 0
M  V30 8571 N 796.696 -0.74468 -1.38897 0
M  V30 8572 C 797.606 -0.112892 -2.34328 0
M  V30 8573 C 798.622 0.71087 -1.58816 0
M  V30 8574 O 799.798 0.637092 -1.91058 0
M  V30 8575 C 796.863 0.776417 -3.37894 0
M  V30 8576 C 795.924 -0.0606999 -4.29257 0
M  V30 8577 C 795.157 0.786258 -5.27877 0
M  V30 8578 O 795.38 2.02463 -5.33259 0
M  V30 8579 O 794.314 0.209781 -6.01534 0
M  V30 8580 H 798.14 -0.900801 -2.90033 0
M  V30 8581 H 795.725 -0.505462 -1.4059 0
M  V30 8582 H 797.607 1.28496 -4.01331 0
M  V30 8583 H 796.282 1.54297 -2.84559 0
M  V30 8584 H 795.189 -0.614984 -3.69011 0
M  V30 8585 H 796.522 -0.789702 -4.85824 0
M  V30 8586 N 798.174 1.49689 -0.493057 0
M  V30 8587 C 799.104 2.31826 0.279073 0
M  V30 8588 C 800.085 1.39733 0.969987 0
M  V30 8589 O 801.27 1.68646 0.962925 0
M  V30 8590 C 798.4 3.20046 1.34862 0
M  V30 8591 C 797.354 4.20869 0.77805 0
M  V30 8592 C 796.68 4.97971 1.94753 0
M  V30 8593 C 797.98 5.21813 -0.225543 0
M  V30 8594 H 799.674 2.96627 -0.406512 0
M  V30 8595 H 797.22 1.42647 -0.196943 0
M  V30 8596 H 799.173 3.76315 1.89645 0
M  V30 8597 H 797.897 2.53172 2.06328 0
M  V30 8598 H 796.556 3.65733 0.252036 0
M  V30 8599 H 796.204 4.27552 2.64969 0
M  V30 8600 H 795.904 5.66186 1.57187 0
M  V30 8601 H 797.428 5.57082 2.49984 0
M  V30 8602 H 798.842 5.72823 0.233864 0
M  V30 8603 H 797.239 5.97872 -0.516622 0
M  V30 8604 H 798.309 4.71209 -1.14412 0
M  V30 8605 N 799.652 0.226554 1.55963 0
M  V30 8606 C 800.615 -0.668015 2.19249 0
M  V30 8607 C 801.615 -1.11794 1.1558 0
M  V30 8608 O 802.805 -1.02593 1.40784 0
M  V30 8609 C 799.937 -1.91571 2.81981 0
M  V30 8610 H 801.13 -0.116175 2.99675 0
M  V30 8611 H 798.683 -0.0230497 1.56283 0
M  V30 8612 H 799.418 -2.50929 2.05439 0
M  V30 8613 H 799.203 -1.6015 3.57903 0
M  V30 8614 H 800.693 -2.55294 3.30477 0
M  V30 8615 N 801.13 -1.57531 -0.0467866 0
M  V30 8616 C 802.06 -2.08425 -1.05268 0
M  V30 8617 C 803.041 -0.982941 -1.38825 0
M  V30 8618 O 804.226 -1.25716 -1.48018 0
M  V30 8619 C 801.356 -2.54897 -2.35891 0
M  V30 8620 C 800.31 -3.69132 -2.16623 0
M  V30 8621 C 799.636 -4.01747 -3.52851 0
M  V30 8622 C 800.936 -4.98243 -1.56689 0
M  V30 8623 H 802.63 -2.92716 -0.62908 0
M  V30 8624 H 800.176 -1.40816 -0.301156 0
M  V30 8625 H 802.129 -2.8912 -3.06574 0
M  V30 8626 H 800.853 -1.67666 -2.80278 0
M  V30 8627 H 799.512 -3.35231 -1.48377 0
M  V30 8628 H 799.16 -3.11608 -3.94853 0
M  V30 8629 H 798.86 -4.78681 -3.4079 0
M  V30 8630 H 800.384 -4.38487 -4.24925 0
M  V30 8631 H 801.798 -5.30535 -2.17268 0
M  V30 8632 H 800.195 -5.79669 -1.55255 0
M  V30 8633 H 801.265 -4.81986 -0.530827 0
M  V30 8634 N 802.608 0.318715 -1.54344 0
M  V30 8635 C 803.538 1.39751 -1.87061 0
M  V30 8636 C 804.519 1.53741 -0.727848 0
M  V30 8637 O 805.704 1.67541 -0.982016 0
M  V30 8638 C 802.834 2.76446 -2.10226 0
M  V30 8639 C 801.788 2.77239 -3.26071 0
M  V30 8640 C 801.114 4.17056 -3.34617 0
M  V30 8641 C 802.414 2.40555 -4.63606 0
M  V30 8642 H 804.108 1.12619 -2.77412 0
M  V30 8643 H 801.654 0.540318 -1.33479 0
M  V30 8644 H 803.607 3.51985 -2.31699 0
M  V30 8645 H 802.331 3.05066 -1.16629 0
M  V30 8646 H 800.99 2.04155 -3.04493 0
M  V30 8647 H 800.638 4.42824 -2.3857 0
M  V30 8648 H 800.338 4.18492 -4.12478 0
M  V30 8649 H 801.862 4.94401 -3.5833 0
M  V30 8650 H 803.276 3.05808 -4.84927 0
M  V30 8651 H 801.673 2.53234 -5.44052 0
M  V30 8652 H 802.743 1.35698 -4.65526 0
M  V30 8653 N 804.086 1.46499 0.581025 0
M  V30 8654 C 805.036 1.53606 1.68491 0
M  V30 8655 C 806.02 0.396853 1.55929 0
M  V30 8656 O 807.212 0.645366 1.64815 0
M  V30 8657 C 804.341 1.53089 3.07276 0
M  V30 8658 C 803.427 2.72309 3.25128 0
M  V30 8659 N 803.818 3.97216 3.13134 0
M  V30 8660 C 802.116 2.68568 3.56072 0
M  V30 8661 C 802.817 4.7693 3.33036 0
M  V30 8662 N 801.793 4.08833 3.58269 0
M  V30 8663 H 805.595 2.47976 1.5775 0
M  V30 8664 H 803.109 1.42161 0.785104 0
M  V30 8665 H 805.106 1.56268 3.86505 0
M  V30 8666 H 803.766 0.597969 3.19146 0
M  V30 8667 H 804.777 4.28439 2.90964 0
M  V30 8668 H 801.454 1.84307 3.74616 0
M  V30 8669 H 802.844 5.85879 3.28932 0
M  V30 8670 N 805.565 -0.825799 1.34232 0
M  V30 8671 C 806.812 -1.58185 1.26427 0
M  V30 8672 C 807.14 -1.93786 -0.166533 0
M  V30 8673 O 806.395 -1.59986 -1.12707 0
M  V30 8674 C 806.694 -2.89362 2.09772 0
M  V30 8675 C 806.36 -2.73066 3.58812 0
M  V30 8676 C 805.022 -2.68329 3.99441 0
M  V30 8677 C 807.374 -2.56946 4.53462 0
M  V30 8678 C 804.702 -2.4539 5.32917 0
M  V30 8679 C 807.054 -2.35538 5.87115 0
M  V30 8680 C 805.718 -2.29212 6.26912 0
M  V30 8681 H 804.988 -0.57884 0.462629 0
M  V30 8682 H 807.635 -0.955714 1.65947 0
M  V30 8683 H 805.94 -3.56251 1.63071 0
M  V30 8684 H 807.637 -3.4694 2.01081 0
M  V30 8685 H 804.227 -2.77591 3.26559 0
M  V30 8686 H 808.411 -2.59631 4.22972 0
M  V30 8687 H 803.667 -2.38947 5.62774 0
M  V30 8688 H 807.841 -2.22051 6.6005 0
M  V30 8689 H 805.468 -2.11197 7.30274 0
M  V30 8690 N 807.043 -1.17915 -1.04565 0
M  V30 8691 C 808.289 -0.972863 -1.77942 0
M  V30 8692 C 808.622 0.496753 -1.87739 0
M  V30 8693 O 807.897 1.3688 -1.38181 0
M  V30 8694 C 808.18 -1.62227 -3.21488 0
M  V30 8695 C 808.033 -3.16441 -3.19664 0
M  V30 8696 C 809.352 -1.33137 -4.19479 0
M  V30 8697 H 806.471 -0.354843 -0.645953 0
M  V30 8698 H 809.113 -1.45508 -1.22178 0
M  V30 8699 H 807.263 -1.21224 -3.69103 0
M  V30 8700 H 808.935 -3.66544 -2.80077 0
M  V30 8701 H 807.178 -3.48863 -2.57832 0
M  V30 8702 H 807.849 -3.57012 -4.21006 0
M  V30 8703 H 810.325 -1.68654 -3.80388 0
M  V30 8704 H 809.201 -1.81151 -5.18146 0
M  V30 8705 H 809.462 -0.253319 -4.41374 0
M  V30 8706 N 808.521 1.23394 -0.980386 0
M  V30 8707 C 809.471 2.22634 -0.491747 0
M  V30 8708 C 810.455 1.54958 0.433222 0
M  V30 8709 O 811.647 1.75049 0.262078 0
M  V30 8710 C 808.776 3.4269 0.204531 0
M  V30 8711 C 807.862 4.17594 -0.740007 0
M  V30 8712 N 808.253 4.69458 -1.88263 0
M  V30 8713 C 806.551 4.42554 -0.553335 0
M  V30 8714 C 807.252 5.26446 -2.47446 0
M  V30 8715 N 806.228 5.14377 -1.75834 0
M  V30 8716 H 810.03 2.60363 -1.36339 0
M  V30 8717 H 807.544 1.38924 -0.841059 0
M  V30 8718 H 809.541 4.12959 0.571901 0
M  V30 8719 H 808.201 3.06477 1.07246 0
M  V30 8720 H 809.212 4.65803 -2.26381 0
M  V30 8721 H 805.889 4.16629 0.269573 0
M  V30 8722 H 807.279 5.77195 -3.43941 0
M  V30 8723 N 809.999 0.752036 1.385 0
M  V30 8724 C 810.947 0.112634 2.32327 0
M  V30 8725 C 811.941 -0.707037 1.53939 0
M  V30 8726 O 813.147 -0.606309 1.69481 0
M  V30 8727 H 809.522 0.0176275 0.751793 0
M  V30 8728 H 811.493 0.920074 2.83861 0
M  V30 8729 C 810.242 -0.767458 3.39124 0
M  V30 8730 H 809.565 -0.146122 3.99533 0
M  V30 8731 H 811.005 -1.18216 4.07187 0
M  V30 8732 C 809.464 -1.90938 2.77568 0
M  V30 8733 O 809.994 -3.00342 2.66754 0
M  V30 8734 N 808.2 -1.70396 2.35401 0
M  V30 8735 H 807.747 -0.81413 2.44397 0
M  V30 8736 H 807.705 -2.46972 1.94557 0
M  V30 8737 N 811.477 -1.49425 0.500989 0
M  V30 8738 C 812.724 -2.02453 -0.0435355 0
M  V30 8739 C 813.052 -1.38067 -1.36995 0
M  V30 8740 O 812.307 -0.505557 -1.89057 0
M  V30 8741 C 812.606 -3.56562 -0.24463 0
M  V30 8742 C 812.272 -4.39585 1.00379 0
M  V30 8743 C 810.934 -4.61992 1.346 0
M  V30 8744 C 813.286 -4.87881 1.83361 0
M  V30 8745 C 810.614 -5.2994 2.51755 0
M  V30 8746 C 812.966 -5.57119 2.99669 0
M  V30 8747 C 811.63 -5.77771 3.3427 0
M  V30 8748 H 810.9 -0.740829 -0.0159308 0
M  V30 8749 H 813.547 -1.79725 0.661143 0
M  V30 8750 H 811.852 -3.77969 -1.03183 0
M  V30 8751 H 813.549 -3.95185 -0.6804 0
M  V30 8752 H 810.139 -4.22385 0.727225 0
M  V30 8753 H 814.323 -4.70398 1.58237 0
M  V30 8754 H 809.579 -5.44133 2.788 0
M  V30 8755 H 813.753 -5.93516 3.64296 0
M  V30 8756 H 811.38 -6.30197 4.25154 0
M  V30 8757 N 812.955 -0.234822 -1.55841 0
M  V30 8758 C 814.232 0.442961 -1.90518 0
M  V30 8759 C 814.612 1.76768 -1.15397 0
M  V30 8760 O 813.96 2.26928 -0.267534 0
M  V30 8761 C 814.17 0.622905 -3.43396 0
M  V30 8762 C 815.518 0.9243 -4.14417 0
M  V30 8763 O 816.542 0.709211 -3.49068 0
M  V30 8764 O 815.401 1.33323 -5.29988 0
M  V30 8765 H 812.495 0.236042 -0.792599 0
M  V30 8766 H 815.041 -0.277992 -1.67408 0
M  V30 8767 H 813.813 -0.310973 -3.90062 0
M  V30 8768 H 813.436 1.39485 -3.7233 0
M  V30 8769 N 814.433 1.57553 0.0384317 0
M  V30 8770 C 815.682 1.88022 0.730108 0
M  V30 8771 C 815.995 0.83209 1.77019 0
M  V30 8772 O 817.201 1.0257 2.51379 0
M  V30 8773 C 815.657 3.33637 1.3496 0
M  V30 8774 C 815.265 4.46659 0.346352 0
M  V30 8775 C 817.009 3.73266 2.02169 0
M  V30 8776 C 814.916 5.8333 0.973652 0
M  V30 8777 H 813.846 0.701496 0.276442 0
M  V30 8778 H 816.497 1.83493 -0.0158028 0
M  V30 8779 H 814.879 3.32882 2.1449 0
M  V30 8780 H 816.053 4.58868 -0.421558 0
M  V30 8781 H 814.368 4.15802 -0.223133 0
M  V30 8782 H 816.965 4.72689 2.49938 0
M  V30 8783 H 817.308 3.04776 2.8358 0
M  V30 8784 H 817.841 3.76156 1.29427 0
M  V30 8785 H 814.58 6.55197 0.199163 0
M  V30 8786 H 814.1 5.7486 1.71162 0
M  V30 8787 H 815.779 6.29757 1.48376 0
M  V30 8788 N 815.911 -0.310526 1.54511 0
M  V30 8789 C 816.841 -1.38757 1.878 0
M  V30 8790 C 817.822 -1.53353 0.735991 0
M  V30 8791 O 819.007 -1.67018 0.990887 0
M  V30 8792 C 816.137 -2.75327 2.11689 0
M  V30 8793 C 815.091 -2.75506 3.27537 0
M  V30 8794 C 814.417 -4.15275 3.36824 0
M  V30 8795 C 815.717 -2.38093 4.64875 0
M  V30 8796 H 817.411 -1.11146 2.78005 0
M  V30 8797 H 814.957 -0.533232 1.33763 0
M  V30 8798 H 816.91 -3.50752 2.33562 0
M  V30 8799 H 815.634 -3.04443 1.18245 0
M  V30 8800 H 814.293 -2.02538 3.05572 0
M  V30 8801 H 813.941 -4.41553 2.40915 0
M  V30 8802 H 813.641 -4.16299 4.14692 0
M  V30 8803 H 815.165 -4.92493 3.60947 0
M  V30 8804 H 816.579 -3.03232 4.86542 0
M  V30 8805 H 814.976 -2.50345 5.45387 0
M  V30 8806 H 816.046 -1.33227 4.66239 0
M  V30 8807 N 817.389 -1.46805 -0.573248 0
M  V30 8808 C 818.8 -1.46655 -1.15539 0
M  V30 8809 C 819.151 -0.2125 -1.95046 0
M  V30 8810 O 818.276 0.683759 -2.05314 0
M  V30 8811 C 818.871 -2.65711 -2.10198 0
M  V30 8812 C 817.43 -2.68572 -2.63716 0
M  V30 8813 C 816.577 -2.39498 -1.39772 0
M  V30 8814 H 819.528 -1.54547 -0.36068 0
M  V30 8815 H 819.549 -2.41768 -2.93817 0
M  V30 8816 H 819.061 -3.56967 -1.52303 0
M  V30 8817 H 817.162 -1.81414 -3.25453 0
M  V30 8818 H 817.275 -3.68809 -3.05805 0
M  V30 8819 H 815.639 -1.89749 -1.69904 0
M  V30 8820 H 816.422 -3.32942 -0.836943 0
M  V30 8821 N 818.867 0.818669 -1.34668 0
M  V30 8822 C 820.095 1.60674 -1.30351 0
M  V30 8823 C 820.51 1.88408 0.121546 0
M  V30 8824 O 819.867 1.47849 1.06991 0
M  V30 8825 C 819.918 2.94516 -2.09625 0
M  V30 8826 O 819.639 2.6799 -3.46573 0
M  V30 8827 C 821.14 3.8891 -2.12754 0
M  V30 8828 H 818.36 0.499306 -0.448258 0
M  V30 8829 H 820.904 1.01828 -1.77345 0
M  V30 8830 H 819.059 3.49908 -1.66262 0
M  V30 8831 H 819.473 3.53361 -3.87603 0
M  V30 8832 H 820.947 4.79972 -2.72637 0
M  V30 8833 H 821.424 4.24599 -1.12306 0
M  V30 8834 H 822.03 3.39453 -2.56225 0
M  V30 8835 N 820.346 1.18468 1.03938 0
M  V30 8836 C 821.593 0.980833 1.77161 0
M  V30 8837 C 821.921 -0.489425 1.88242 0
M  V30 8838 O 821.176 -1.37961 1.388 0
M  V30 8839 C 821.475 1.58229 3.20466 0
M  V30 8840 C 821.141 3.07889 3.29416 0
M  V30 8841 C 819.803 3.48737 3.31566 0
M  V30 8842 C 822.155 4.03903 3.29411 0
M  V30 8843 C 819.483 4.84171 3.31355 0
M  V30 8844 C 821.835 5.39253 3.3074 0
M  V30 8845 C 820.499 5.79547 3.31182 0
M  V30 8846 H 819.769 0.358912 0.648277 0
M  V30 8847 H 822.416 1.47552 1.22069 0
M  V30 8848 H 820.721 1.00964 3.78568 0
M  V30 8849 H 822.418 1.39998 3.75768 0
M  V30 8850 H 819.008 2.75335 3.28464 0
M  V30 8851 H 823.192 3.73395 3.2694 0
M  V30 8852 H 818.448 5.14685 3.30015 0
M  V30 8853 H 822.622 6.13417 3.29686 0
M  V30 8854 H 820.249 6.84466 3.30772 0
M  V30 8855 N 821.824 -1.22873 0.986916 0
M  V30 8856 C 823.049 -1.96028 0.677341 0
M  V30 8857 C 823.474 -1.72487 -0.750319 0
M  V30 8858 O 822.832 -1.00036 -1.51203 0
M  V30 8859 C 822.88 -3.46983 0.981593 0
M  V30 8860 O 821.984 -4.12328 0.0770729 0
M  V30 8861 H 821.325 -0.613458 0.254096 0
M  V30 8862 H 823.855 -1.56132 1.32227 0
M  V30 8863 H 823.865 -3.9747 0.920969 0
M  V30 8864 H 822.54 -3.63442 2.02194 0
M  V30 8865 H 821.117 -3.72402 0.192666 0
M  V30 8866 N 823.302 -0.75937 -1.38099 0
M  V30 8867 C 824.249 -0.135508 -2.30402 0
M  V30 8868 C 825.219 0.703356 -1.50473 0
M  V30 8869 O 826.404 0.658287 -1.79084 0
M  V30 8870 C 823.544 0.747228 -3.36913 0
M  V30 8871 C 822.657 -0.106893 -4.31868 0
M  V30 8872 C 821.792 0.779388 -5.25451 0
M  V30 8873 C 820.831 -0.0780179 -6.1205 0
M  V30 8874 N 819.968 0.765545 -6.97914 0
M  V30 8875 H 824.808 -0.9282 -2.83176 0
M  V30 8876 H 822.345 -0.46935 -1.39411 0
M  V30 8877 H 824.303 1.27371 -3.97281 0
M  V30 8878 H 822.933 1.50565 -2.85535 0
M  V30 8879 H 821.985 -0.751063 -3.72912 0
M  V30 8880 H 823.297 -0.768798 -4.9284 0
M  V30 8881 H 822.451 1.37282 -5.90964 0
M  V30 8882 H 821.19 1.47501 -4.6486 0
M  V30 8883 H 820.195 -0.684078 -5.45528 0
M  V30 8884 H 821.42 -0.770786 -6.74712 0
M  V30 8885 H 819.366 1.44601 -6.39864 0
M  V30 8886 H 819.283 0.160666 -7.55829 0
M  V30 8887 H 820.551 1.34377 -7.6783 0
M  V30 8888 N 824.78 1.49157 -0.508906 0
M  V30 8889 C 825.728 2.30922 0.278906 0
M  V30 8890 C 826.722 1.39889 0.955382 0
M  V30 8891 O 827.928 1.56901 0.882169 0
M  V30 8892 H 824.303 0.744087 0.108805 0
M  V30 8893 H 826.274 2.95277 -0.430583 0
M  V30 8894 C 825.023 3.21432 1.32576 0
M  V30 8895 H 824.346 3.91413 0.814634 0
M  V30 8896 H 825.786 3.81568 1.84882 0
M  V30 8897 C 824.245 2.41583 2.34817 0
M  V30 8898 O 824.775 2.1256 3.40854 0
M  V30 8899 N 822.981 2.03462 2.07489 0
M  V30 8900 H 822.528 2.27265 1.21278 0
M  V30 8901 H 822.486 1.50345 2.76123 0
M  V30 8902 N 826.258 0.243083 1.55714 0
M  V30 8903 C 827.206 -0.674349 2.2261 0
M  V30 8904 C 828.2 -1.18307 1.21243 0
M  V30 8905 O 829.406 -1.1404 1.39265 0
M  V30 8906 H 825.781 -0.235941 0.714028 0
M  V30 8907 H 827.752 -0.0869446 2.98273 0
M  V30 8908 C 826.501 -1.86206 2.93637 0
M  V30 8909 H 825.824 -1.47975 3.71407 0
M  V30 8910 H 827.264 -2.4813 3.43813 0
M  V30 8911 C 825.723 -2.73084 1.97298 0
M  V30 8912 O 826.253 -3.72497 1.50361 0
M  V30 8913 N 824.459 -2.39571 1.64482 0
M  V30 8914 H 824.006 -1.5878 2.02846 0
M  V30 8915 H 823.964 -2.97976 1.00288 0
M  V30 8916 N 827.736 -1.57571 -0.0300757 0
M  V30 8917 C 828.683 -2.06492 -1.03101 0
M  V30 8918 C 829.653 -0.953862 -1.3598 0
M  V30 8919 O 830.838 -1.22436 -1.46335 0
M  V30 8920 C 827.978 -2.54826 -2.32718 0
M  V30 8921 C 827.091 -3.79718 -2.06006 0
M  V30 8922 C 826.226 -4.16668 -3.29487 0
M  V30 8923 C 825.265 -5.3448 -2.98324 0
M  V30 8924 N 824.402 -5.66867 -4.14254 0
M  V30 8925 H 829.242 -2.91755 -0.606877 0
M  V30 8926 H 826.779 -1.44252 -0.288038 0
M  V30 8927 H 828.737 -2.80916 -3.08451 0
M  V30 8928 H 827.367 -1.72481 -2.72856 0
M  V30 8929 H 826.419 -3.60718 -1.20774 0
M  V30 8930 H 827.731 -4.65569 -1.79017 0
M  V30 8931 H 826.885 -4.43881 -4.13588 0
M  V30 8932 H 825.624 -3.29466 -3.59588 0
M  V30 8933 H 824.629 -5.07021 -2.12625 0
M  V30 8934 H 825.854 -6.23334 -2.69502 0
M  V30 8935 H 823.8 -4.82625 -4.44308 0
M  V30 8936 H 823.717 -6.47226 -3.90685 0
M  V30 8937 H 824.985 -5.98656 -4.99231 0
M  V30 8938 N 829.214 0.302327 -1.54673 0
M  V30 8939 C 830.147 1.39738 -1.80412 0
M  V30 8940 C 831.125 1.48813 -0.655241 0
M  V30 8941 O 832.309 1.65895 -0.89505 0
M  V30 8942 C 829.436 2.7766 -1.93966 0
M  V30 8943 C 828.482 2.86014 -3.16383 0
M  V30 8944 S 829.315 2.48246 -4.74483 0
M  V30 8945 C 830.471 3.88198 -4.90971 0
M  V30 8946 H 830.704 1.17696 -2.73011 0
M  V30 8947 H 828.237 0.500364 -1.46068 0
M  V30 8948 H 830.195 3.571 -2.0246 0
M  V30 8949 H 828.856 2.96971 -1.02307 0
M  V30 8950 H 828.049 3.87174 -3.22664 0
M  V30 8951 H 827.651 2.14568 -3.06328 0
M  V30 8952 H 829.943 4.83181 -4.74913 0
M  V30 8953 H 830.886 3.86887 -5.93063 0
M  V30 8954 H 831.294 3.78139 -4.19131 0
M  V30 8955 N 830.692 1.47107 0.565454 0
M  V30 8956 C 832.103 1.47266 1.1476 0
M  V30 8957 C 832.454 0.222841 1.9493 0
M  V30 8958 O 831.579 -0.672862 2.05673 0
M  V30 8959 C 832.174 2.66822 2.08785 0
M  V30 8960 C 830.733 2.69967 2.62288 0
M  V30 8961 C 829.88 2.40236 1.38499 0
M  V30 8962 H 832.831 1.54736 0.352479 0
M  V30 8963 H 832.852 2.43323 2.92531 0
M  V30 8964 H 832.364 3.5777 1.50408 0
M  V30 8965 H 830.465 1.83137 3.24487 0
M  V30 8966 H 830.578 3.70426 3.03845 0
M  V30 8967 H 828.942 1.90648 1.68895 0
M  V30 8968 H 829.725 3.33381 0.819274 0
M  V30 8969 N 832.17 -0.811516 1.35101 0
M  V30 8970 C 833.133 -1.90467 1.27495 0
M  V30 8971 C 834.133 -1.59703 0.187516 0
M  V30 8972 O 835.323 -1.68528 0.440896 0
M  V30 8973 C 832.455 -3.26774 0.971154 0
M  V30 8974 H 833.648 -1.98631 2.2469 0
M  V30 8975 H 831.201 -1.00681 1.19553 0
M  V30 8976 H 831.936 -3.243 0.0028557 0
M  V30 8977 H 831.721 -3.50488 1.75785 0
M  V30 8978 H 833.211 -4.06804 0.943414 0
M  V30 8979 N 833.648 -1.19017 -1.03309 0
M  V30 8980 C 834.558 -0.939303 -2.14975 0
M  V30 8981 C 835.574 0.0992359 -1.73717 0
M  V30 8982 O 836.75 -0.0844362 -2.01223 0
M  V30 8983 C 833.815 -0.476712 -3.43407 0
M  V30 8984 C 832.876 -1.58413 -3.99003 0
M  V30 8985 C 832.109 -1.14352 -5.21305 0
M  V30 8986 O 832.332 -0.00534408 -5.704 0
M  V30 8987 O 831.266 -1.94436 -5.6963 0
M  V30 8988 H 835.092 -1.87386 -2.38998 0
M  V30 8989 H 832.677 -0.972635 -1.13403 0
M  V30 8990 H 834.559 -0.22718 -4.20787 0
M  V30 8991 H 833.234 0.429455 -3.20839 0
M  V30 8992 H 832.141 -1.88777 -3.22977 0
M  V30 8993 H 833.474 -2.4667 -4.25928 0
M  V30 8994 N 835.127 1.22348 -0.993418 0
M  V30 8995 C 836.357 1.94842 -0.687023 0
M  V30 8996 C 836.765 1.73594 0.752445 0
M  V30 8997 O 836.108 1.03238 1.51946 0
M  V30 8998 C 836.17 3.47694 -0.913754 0
M  V30 8999 C 835.834 3.92678 -2.33781 0
M  V30 9000 C 836.831 4.0031 -3.31734 0
M  V30 9001 C 834.516 4.25311 -2.67237 0
M  V30 9002 C 836.51 4.39951 -4.61218 0
M  V30 9003 C 834.197 4.64631 -3.9694 0
M  V30 9004 C 835.195 4.71919 -4.93742 0
M  V30 9005 O 834.883 5.10349 -6.21127 0
M  V30 9006 H 834.615 0.626771 -0.253247 0
M  V30 9007 H 837.169 1.56436 -1.33105 0
M  V30 9008 H 835.399 3.86115 -0.212552 0
M  V30 9009 H 837.088 4.01403 -0.602528 0
M  V30 9010 H 837.854 3.75288 -3.07219 0
M  V30 9011 H 833.733 4.18842 -1.92594 0
M  V30 9012 H 837.277 4.45555 -5.36774 0
M  V30 9013 H 833.174 4.89104 -4.21245 0
M  V30 9014 H 833.942 5.2842 -6.25072 0
M  V30 9015 N 836.605 0.766683 1.37694 0
M  V30 9016 C 837.515 0.150158 2.34119 0
M  V30 9017 C 838.531 -0.685513 1.59927 0
M  V30 9018 O 839.707 -0.606616 1.92047 0
M  V30 9019 C 836.772 -0.722562 3.39087 0
M  V30 9020 C 835.833 0.128983 4.29106 0
M  V30 9021 C 835.066 -0.702178 5.29061 0
M  V30 9022 O 835.289 -1.93954 5.36412 0
M  V30 9023 O 834.223 -0.114056 6.01792 0
M  V30 9024 H 838.049 0.946829 2.88563 0
M  V30 9025 H 835.634 0.527765 1.39768 0
M  V30 9026 H 837.516 -1.22095 4.03325 0
M  V30 9027 H 836.191 -1.49751 2.86978 0
M  V30 9028 H 835.098 0.673612 3.67985 0
M  V30 9029 H 836.431 0.866892 4.84506 0
M  V30 9030 N 838.083 -1.48885 0.516809 0
M  V30 9031 C 839.03 -2.29408 -0.253125 0
M  V30 9032 C 840 -1.36533 -0.945935 0
M  V30 9033 O 841.185 -1.65495 -0.949527 0
M  V30 9034 C 838.325 -3.19592 -1.30211 0
M  V30 9035 C 837.438 -4.27535 -0.61948 0
M  V30 9036 C 836.573 -5.04916 -1.65026 0
M  V30 9037 C 835.612 -6.04677 -0.950368 0
M  V30 9038 N 834.749 -6.75164 -1.92608 0
M  V30 9039 H 839.589 -2.94738 0.439744 0
M  V30 9040 H 837.126 -1.45311 0.2287 0
M  V30 9041 H 839.084 -3.70267 -1.92245 0
M  V30 9042 H 837.714 -2.56213 -1.96353 0
M  V30 9043 H 836.766 -3.80228 0.114505 0
M  V30 9044 H 838.078 -4.98752 -0.0693016 0
M  V30 9045 H 837.232 -5.59539 -2.34523 0
M  V30 9046 H 835.971 -4.33508 -2.23432 0
M  V30 9047 H 834.976 -5.4927 -0.241252 0
M  V30 9048 H 836.201 -6.78077 -0.372599 0
M  V30 9049 H 834.147 -6.06517 -2.49946 0
M  V30 9050 H 834.064 -7.4241 -1.42699 0
M  V30 9051 H 835.332 -7.34384 -2.61345 0
M  V30 9052 N 839.561 -0.251338 -1.55583 0
M  V30 9053 C 840.509 0.662534 -2.22965 0
M  V30 9054 C 841.503 1.17662 -1.21869 0
M  V30 9055 O 842.709 1.133 -1.39868 0
M  V30 9056 H 839.084 0.232151 -0.715269 0
M  V30 9057 H 841.055 0.0711252 -2.98315 0
M  V30 9058 C 839.804 1.84646 -2.94621 0
M  V30 9059 H 839.127 1.46003 -3.72187 0
M  V30 9060 H 840.567 2.46303 -3.45124 0
M  V30 9061 C 839.026 2.72034 -1.98744 0
M  V30 9062 O 839.556 3.71695 -1.52335 0
M  V30 9063 N 837.762 2.38695 -1.6575 0
M  V30 9064 H 837.309 1.57702 -2.03685 0
M  V30 9065 H 837.267 2.9744 -1.01867 0
M  V30 9066 N 841.039 1.57585 0.0217189 0
M  V30 9067 C 842.267 1.93871 0.722619 0
M  V30 9068 C 842.682 0.851706 1.68498 0
M  V30 9069 O 842.039 -0.17127 1.81695 0
M  V30 9070 C 842.09 3.30114 1.47333 0
M  V30 9071 O 841.811 4.34639 0.549597 0
M  V30 9072 C 843.312 3.80727 2.27072 0
M  V30 9073 H 840.532 0.639671 0.202637 0
M  V30 9074 H 843.076 2.04487 -0.0229414 0
M  V30 9075 H 841.231 3.20872 2.17071 0
M  V30 9076 H 841.645 5.13326 1.07686 0
M  V30 9077 H 843.119 4.78547 2.75131 0
M  V30 9078 H 843.596 3.12301 3.08812 0
M  V30 9079 H 844.202 3.93075 1.62395 0
M  V30 9080 N 842.517 -0.29412 1.54831 0
M  V30 9081 C 843.745 -1.04724 1.78439 0
M  V30 9082 C 844.16 -1.80695 0.547239 0
M  V30 9083 O 843.517 -1.75989 -0.483141 0
M  V30 9084 C 843.568 -2.02242 2.99634 0
M  V30 9085 O 843.289 -1.29352 4.18568 0
M  V30 9086 C 844.79 -2.89537 3.35683 0
M  V30 9087 H 842.01 -0.310285 0.594949 0
M  V30 9088 H 844.554 -0.331306 2.01798 0
M  V30 9089 H 842.709 -2.69328 2.78462 0
M  V30 9090 H 843.123 -1.94901 4.86943 0
M  V30 9091 H 844.597 -3.538 4.23709 0
M  V30 9092 H 845.074 -3.58201 2.54143 0
M  V30 9093 H 845.68 -2.27973 3.59038 0
M  V30 9094 N 843.995 -1.47404 -0.557645 0
M  V30 9095 C 845.406 -1.47872 -1.13977 0
M  V30 9096 C 845.757 -0.233176 -1.94809 0
M  V30 9097 O 844.882 0.661945 -2.06027 0
M  V30 9098 C 845.477 -2.67926 -2.07368 0
M  V30 9099 C 844.036 -2.71354 -2.60852 0
M  V30 9100 C 843.183 -2.40967 -1.37223 0
M  V30 9101 H 846.134 -1.54921 -0.344268 0
M  V30 9102 H 846.155 -2.44871 -2.91236 0
M  V30 9103 H 845.667 -3.58562 -1.48509 0
M  V30 9104 H 843.768 -1.84855 -3.23511 0
M  V30 9105 H 843.881 -3.72032 -3.01876 0
M  V30 9106 H 842.245 -1.91541 -1.67882 0
M  V30 9107 H 843.028 -3.33811 -0.801583 0
M  V30 9108 N 845.473 0.80434 -1.35529 0
M  V30 9109 C 846.719 1.56385 -1.29118 0
M  V30 9110 C 847.052 1.9374 0.133536 0
M  V30 9111 O 846.327 1.6153 1.08344 0
M  V30 9112 C 846.61 2.85097 -2.19981 0
M  V30 9113 C 846.463 2.54204 -3.7108 0
M  V30 9114 C 847.782 3.86817 -2.09907 0
M  V30 9115 H 844.901 0.567382 -0.470368 0
M  V30 9116 H 847.543 0.925235 -1.6595 0
M  V30 9117 H 845.693 3.39594 -1.88701 0
M  V30 9118 H 847.365 2.05872 -4.12813 0
M  V30 9119 H 845.608 1.87364 -3.91251 0
M  V30 9120 H 846.279 3.46068 -4.30048 0
M  V30 9121 H 848.755 3.41725 -2.37409 0
M  V30 9122 H 847.631 4.7465 -2.75678 0
M  V30 9123 H 847.892 4.28663 -1.08171 0
M  V30 9124 N 846.951 1.19563 1.02676 0
M  V30 9125 C 847.883 0.893054 2.11086 0
M  V30 9126 C 848.896 -0.115101 1.62393 0
M  V30 9127 O 850.085 0.11459 1.78132 0
M  V30 9128 C 847.185 0.315533 3.37428 0
M  V30 9129 C 846.358 1.37276 4.153 0
M  V30 9130 C 845.417 0.808398 5.19953 0
M  V30 9131 O 844.443 1.48661 5.49444 0
M  V30 9132 N 845.645 -0.387253 5.79207 0
M  V30 9133 H 848.41 1.82622 2.37633 0
M  V30 9134 H 845.971 1.09792 1.18984 0
M  V30 9135 H 847.963 -0.0759166 4.04629 0
M  V30 9136 H 846.533 -0.521961 3.08211 0
M  V30 9137 H 845.753 1.93897 3.43217 0
M  V30 9138 H 847.041 2.08509 4.64114 0
M  V30 9139 H 846.439 -0.955725 5.57568 0
M  V30 9140 H 844.996 -0.720457 6.47806 0
M  V30 9141 N 848.429 -1.21819 0.999893 0
M  V30 9142 C 849.654 -1.95298 0.698094 0
M  V30 9143 C 850.079 -1.73273 -0.731982 0
M  V30 9144 O 849.437 -1.01634 -1.50134 0
M  V30 9145 C 849.485 -3.45922 1.01834 0
M  V30 9146 O 848.589 -4.12223 0.120801 0
M  V30 9147 H 847.93 -0.610729 0.260588 0
M  V30 9148 H 850.46 -1.5472 1.33876 0
M  V30 9149 H 850.47 -3.96471 0.963074 0
M  V30 9150 H 849.145 -3.61278 2.06037 0
M  V30 9151 H 847.722 -3.72177 0.232153 0
M  V30 9152 N 849.908 -0.773975 -1.37286 0
M  V30 9153 C 851.133 -0.349561 -2.04433 0
M  V30 9154 C 851.558 1.02082 -1.5799 0
M  V30 9155 O 850.916 1.65458 -0.741172 0
M  V30 9156 C 850.964 -0.404292 -3.58326 0
M  V30 9157 O 850.068 0.594447 -4.08093 0
M  V30 9158 H 849.409 -0.150959 -0.646612 0
M  V30 9159 H 851.939 -1.05079 -1.75555 0
M  V30 9160 H 851.949 -0.262378 -4.07155 0
M  V30 9161 H 850.624 -1.40403 -3.91484 0
M  V30 9162 H 849.201 0.415468 -3.70578 0
M  V30 9163 N 851.386 1.48609 -0.524698 0
M  V30 9164 C 852.334 2.31205 0.254398 0
M  V30 9165 C 853.328 1.40894 0.940491 0
M  V30 9166 O 854.534 1.57827 0.865478 0
M  V30 9167 H 850.909 0.745199 0.100907 0
M  V30 9168 H 852.88 2.94804 -0.461876 0
M  V30 9169 C 851.629 3.2282 1.2916 0
M  V30 9170 H 850.952 3.92255 0.773074 0
M  V30 9171 H 852.392 3.83508 1.80825 0
M  V30 9172 C 850.851 2.4406 2.32242 0
M  V30 9173 O 851.381 2.16163 3.3858 0
M  V30 9174 N 849.587 2.05651 2.05319 0
M  V30 9175 H 849.134 2.28539 1.18861 0
M  V30 9176 H 849.092 1.53265 2.74513 0
M  V30 9177 N 852.864 0.259585 1.55447 0
M  V30 9178 C 853.811 -0.634578 2.21905 0
M  V30 9179 C 854.781 -1.16168 1.18719 0
M  V30 9180 O 855.966 -1.21383 1.4721 0
M  V30 9181 C 853.106 -1.82005 2.93203 0
M  V30 9182 C 852.219 -1.32828 4.11073 0
M  V30 9183 C 851.354 -2.47431 4.70055 0
M  V30 9184 C 850.393 -1.95179 5.80148 0
M  V30 9185 N 849.53 -3.03197 6.33258 0
M  V30 9186 H 854.37 -0.0611886 2.97937 0
M  V30 9187 H 851.907 -0.0184378 1.47088 0
M  V30 9188 H 853.865 -2.51664 3.32748 0
M  V30 9189 H 852.495 -2.36571 2.19622 0
M  V30 9190 H 851.547 -0.525301 3.76756 0
M  V30 9191 H 852.859 -0.905435 4.90513 0
M  V30 9192 H 852.013 -3.25111 5.12238 0
M  V30 9193 H 850.752 -2.93023 3.89857 0
M  V30 9194 H 849.757 -1.15974 5.37429 0
M  V30 9195 H 850.982 -1.50541 6.62204 0
M  V30 9196 H 848.928 -3.48199 5.55961 0
M  V30 9197 H 848.845 -2.65282 7.07928 0
M  V30 9198 H 850.113 -3.80898 6.80101 0
M  V30 9199 N 854.342 -1.57594 -0.0133615 0
M  V30 9200 C 855.289 -2.07574 -1.00905 0
M  V30 9201 C 856.259 -0.968231 -1.34961 0
M  V30 9202 O 857.444 -1.23981 -1.45028 0
M  V30 9203 C 854.584 -2.5728 -2.30002 0
M  V30 9204 C 853.697 -3.81881 -2.01967 0
M  V30 9205 C 852.832 -4.20139 -3.25049 0
M  V30 9206 C 851.871 -5.37614 -2.92639 0
M  V30 9207 N 851.008 -5.71229 -4.08218 0
M  V30 9208 H 855.848 -2.92382 -0.575899 0
M  V30 9209 H 853.385 -1.4455 -0.272722 0
M  V30 9210 H 855.343 -2.84171 -3.05454 0
M  V30 9211 H 853.973 -1.75365 -2.71011 0
M  V30 9212 H 853.025 -3.61979 -1.16942 0
M  V30 9213 H 854.337 -4.67441 -1.74069 0
M  V30 9214 H 853.491 -4.48242 -4.08857 0
M  V30 9215 H 852.23 -3.33262 -3.56073 0
M  V30 9216 H 851.235 -5.09248 -2.07235 0
M  V30 9217 H 852.46 -6.26157 -2.62876 0
M  V30 9218 H 850.406 -4.8731 -4.39164 0
M  V30 9219 H 850.323 -6.51333 -3.83799 0
M  V30 9220 H 851.591 -6.03917 -4.92854 0
M  V30 9221 N 855.82 0.285905 -1.54985 0
M  V30 9222 C 857.097 1.0397 -1.65679 0
M  V30 9223 C 857.477 2.04725 -0.514851 0
M  V30 9224 O 856.825 2.23257 0.486663 0
M  V30 9225 C 857.035 1.70807 -3.04345 0
M  V30 9226 C 858.383 2.22447 -3.61666 0
M  V30 9227 O 859.407 1.80815 -3.06895 0
M  V30 9228 O 858.266 2.98773 -4.57599 0
M  V30 9229 H 855.36 0.481473 -0.672394 0
M  V30 9230 H 857.906 0.282789 -1.67327 0
M  V30 9231 H 856.678 0.977271 -3.789 0
M  V30 9232 H 856.301 2.53217 -3.06541 0
M  V30 9233 N 857.298 1.47698 0.54982 0
M  V30 9234 C 858.245 1.60739 1.65625 0
M  V30 9235 C 859.215 0.450129 1.59884 0
M  V30 9236 O 860.4 0.671123 1.78607 0
M  V30 9237 C 857.54 1.63457 3.03934 0
M  V30 9238 C 856.653 2.90152 3.20056 0
M  V30 9239 C 855.788 2.84157 4.48807 0
M  V30 9240 C 854.827 4.05644 4.58387 0
M  V30 9241 N 853.964 3.97843 5.78503 0
M  V30 9242 H 858.804 2.55234 1.53817 0
M  V30 9243 H 856.341 1.26593 0.749173 0
M  V30 9244 H 858.299 1.63015 3.84034 0
M  V30 9245 H 856.929 0.724689 3.1456 0
M  V30 9246 H 855.981 3.00428 2.33339 0
M  V30 9247 H 857.293 3.80097 3.22998 0
M  V30 9248 H 856.447 2.82006 5.37175 0
M  V30 9249 H 855.186 1.91908 4.48356 0
M  V30 9250 H 854.191 4.08092 3.6843 0
M  V30 9251 H 855.416 4.9903 4.60593 0
M  V30 9252 H 853.362 3.08401 5.78986 0
M  V30 9253 H 853.279 4.81473 5.82855 0
M  V30 9254 H 854.547 3.99719 6.69212 0
M  V30 9255 N 858.776 -0.797141 1.35954 0
M  V30 9256 C 860.001 -1.59097 1.33053 0
M  V30 9257 C 860.426 -1.87897 -0.0874592 0
M  V30 9258 O 859.784 -1.47291 -1.05712 0
M  V30 9259 C 859.832 -2.89346 2.152 0
M  V30 9260 O 858.936 -3.826 1.5392 0
M  V30 9261 H 858.277 -0.482895 0.45575 0
M  V30 9262 H 860.807 -0.988633 1.79129 0
M  V30 9263 H 860.817 -3.38686 2.27499 0
M  V30 9264 H 859.492 -2.6771 3.18283 0
M  V30 9265 H 858.069 -3.41174 1.50516 0
M  V30 9266 N 860.254 -1.20106 -1.0204 0
M  V30 9267 C 861.665 -1.00992 -1.57027 0
M  V30 9268 C 862.016 0.434782 -1.91322 0
M  V30 9269 O 861.141 1.31557 -1.71819 0
M  V30 9270 C 861.736 -1.82697 -2.85319 0
M  V30 9271 C 860.295 -1.67959 -3.36848 0
M  V30 9272 C 859.442 -1.80868 -2.10195 0
M  V30 9273 H 862.393 -1.34354 -0.844676 0
M  V30 9274 H 862.414 -1.32809 -3.5657 0
M  V30 9275 H 861.926 -2.87839 -2.60328 0
M  V30 9276 H 860.027 -0.654389 -3.66809 0
M  V30 9277 H 860.14 -2.49006 -4.09308 0
M  V30 9278 H 858.504 -1.24015 -2.22469 0
M  V30 9279 H 859.287 -2.87486 -1.87635 0
M  V30 9280 N 861.732 1.21287 -1.00634 0
M  V30 9281 C 863.148 1.42467 -0.719389 0
M  V30 9282 C 863.348 1.88767 0.704927 0
M  V30 9283 O 862.404 2.05004 1.47409 0
M  V30 9284 C 863.717 2.455 -1.73639 0
M  V30 9285 C 865.265 2.59281 -1.75335 0
M  V30 9286 C 865.74 3.65547 -2.75934 0
M  V30 9287 N 867.231 3.73019 -2.74611 0
M  V30 9288 C 867.966 4.54873 -3.4911 0
M  V30 9289 N 867.462 5.40614 -4.33253 0
M  V30 9290 N 869.255 4.49309 -3.37754 0
M  V30 9291 H 861.406 0.895454 -1.92602 0
M  V30 9292 H 863.669 0.455491 -0.831404 0
M  V30 9293 H 863.375 2.18455 -2.75627 0
M  V30 9294 H 863.249 3.44325 -1.54014 0
M  V30 9295 H 865.636 2.85661 -0.740377 0
M  V30 9296 H 865.717 1.60685 -1.99032 0
M  V30 9297 H 865.361 3.39911 -3.77389 0
M  V30 9298 H 865.291 4.63741 -2.49503 0
M  V30 9299 H 867.782 3.11766 -2.13565 0
M  V30 9300 H 868.095 6.0013 -4.86892 0
M  V30 9301 H 866.44 5.40151 -4.37335 0
M  V30 9302 H 869.631 3.81357 -2.71449 0
M  V30 9303 H 869.804 5.12867 -3.9607 0
M  V30 9304 N 863.21 0.781244 1.36873 0
M  V30 9305 C 864.458 0.349198 1.9906 0
M  V30 9306 C 864.779 -1.0806 1.62321 0
M  V30 9307 O 864.049 -1.74351 0.893229 0
M  V30 9308 H 862.629 0.126126 0.736275 0
M  V30 9309 H 865.291 1.00148 1.67202 0
M  V30 9310 H 864.387 0.434451 3.09061 0
M  V30 9311 N 864.689 -1.48329 0.532571 0
M  V30 9312 C 865.938 -2.017 -0.00259705 0
M  V30 9313 C 866.251 -1.41469 -1.35077 0
M  V30 9314 O 867.457 -1.86354 -1.97445 0
M  V30 9315 C 865.913 -3.59858 -0.0550179 0
M  V30 9316 C 865.521 -4.29073 1.28842 0
M  V30 9317 C 867.265 -4.21066 -0.538878 0
M  V30 9318 C 865.172 -5.79171 1.19644 0
M  V30 9319 H 864.102 -0.753985 -0.00474081 0
M  V30 9320 H 866.753 -1.70565 0.676739 0
M  V30 9321 H 865.135 -3.87846 -0.799486 0
M  V30 9322 H 866.309 -4.12755 2.04865 0
M  V30 9323 H 864.624 -3.79748 1.70822 0
M  V30 9324 H 867.221 -5.31026 -0.6257 0
M  V30 9325 H 867.564 -3.86559 -1.54525 0
M  V30 9326 H 868.097 -3.97517 0.149984 0
M  V30 9327 H 864.836 -6.18257 2.17805 0
M  V30 9328 H 864.356 -5.97895 0.477609 0
M  V30 9329 H 866.035 -6.40875 0.888186 0
M  V30 9330 N 866.167 -0.267825 -1.55308 0
M  V30 9331 C 867.115 0.638848 -2.23655 0
M  V30 9332 C 868.109 1.16363 -1.2311 0
M  V30 9333 O 869.315 1.1181 -1.41062 0
M  V30 9334 H 865.69 0.224551 -0.717691 0
M  V30 9335 H 867.661 0.0394809 -2.98374 0
M  V30 9336 C 866.41 1.8151 -2.96562 0
M  V30 9337 H 865.733 1.42048 -3.73715 0
M  V30 9338 H 867.173 2.42629 -3.47717 0
M  V30 9339 C 865.632 2.69911 -2.01618 0
M  V30 9340 O 866.162 3.70058 -1.56268 0
M  V30 9341 N 864.368 2.36924 -1.68272 0
M  V30 9342 H 863.915 1.55533 -2.05347 0
M  V30 9343 H 863.873 2.96343 -1.05016 0
M  V30 9344 N 867.645 1.57599 0.00500368 0
M  V30 9345 C 868.592 2.08106 0.998025 0
M  V30 9346 C 869.562 0.975374 1.34446 0
M  V30 9347 O 870.747 1.24749 1.44369 0
M  V30 9348 C 867.887 2.58496 2.28635 0
M  V30 9349 C 867 3.82947 1.99939 0
M  V30 9350 C 866.135 4.21857 3.22816 0
M  V30 9351 C 865.174 5.39159 2.89783 0
M  V30 9352 N 864.311 5.73386 4.05183 0
M  V30 9353 H 869.151 2.92684 0.560385 0
M  V30 9354 H 866.688 1.44692 0.265053 0
M  V30 9355 H 868.646 2.85787 3.03943 0
M  V30 9356 H 867.276 1.768 2.70077 0
M  V30 9357 H 866.328 3.62594 1.1502 0
M  V30 9358 H 867.64 4.68358 1.71588 0
M  V30 9359 H 866.794 4.50404 4.06474 0
M  V30 9360 H 865.533 3.35145 3.54301 0
M  V30 9361 H 864.538 5.1034 2.04532 0
M  V30 9362 H 865.763 6.27543 2.59551 0
M  V30 9363 H 863.709 4.89632 4.36574 0
M  V30 9364 H 863.626 6.53359 3.80339 0
M  V30 9365 H 864.894 6.06522 4.89644 0
M  V30 9366 N 869.123 -0.277682 1.55134 0
M  V30 9367 C 870.37 -1.0099 1.7552 0
M  V30 9368 C 870.698 -1.86452 0.553712 0
M  V30 9369 O 869.953 -1.90122 -0.463896 0
M  V30 9370 C 870.252 -1.92599 3.01065 0
M  V30 9371 C 869.918 -1.22926 4.3382 0
M  V30 9372 C 868.58 -1.03659 4.69902 0
M  V30 9373 C 870.932 -0.733071 5.16019 0
M  V30 9374 C 868.26 -0.334933 5.85743 0
M  V30 9375 C 870.612 -0.0450319 6.32584 0
M  V30 9376 C 869.276 0.159393 6.6731 0
M  V30 9377 H 868.546 -0.36955 0.642273 0
M  V30 9378 H 871.193 -0.282611 1.89403 0
M  V30 9379 H 869.498 -2.71934 2.82062 0
M  V30 9380 H 871.195 -2.49367 3.14034 0
M  V30 9381 H 867.785 -1.38933 4.05457 0
M  V30 9382 H 871.969 -0.869565 4.88623 0
M  V30 9383 H 867.225 -0.165783 6.11175 0
M  V30 9384 H 871.399 0.34723 6.95534 0
M  V30 9385 H 869.026 0.70507 7.56923 0
M  V30 9386 N 870.601 -1.47988 -0.541979 0
M  V30 9387 C 871.848 -1.55393 -1.29843 0
M  V30 9388 C 872.176 -0.222668 -1.93221 0
M  V30 9389 O 871.431 0.785936 -1.79225 0
M  V30 9390 C 871.73 -2.63189 -2.41798 0
M  V30 9391 C 871.396 -4.05999 -1.96151 0
M  V30 9392 C 870.058 -4.44872 -1.83419 0
M  V30 9393 C 872.41 -4.95545 -1.61507 0
M  V30 9394 C 869.738 -5.71108 -1.34361 0
M  V30 9395 C 872.09 -6.22259 -1.13915 0
M  V30 9396 C 870.754 -6.59998 -0.997911 0
M  V30 9397 H 870.024 -0.568623 -0.47513 0
M  V30 9398 H 872.671 -1.81654 -0.606142 0
M  V30 9399 H 870.976 -2.30743 -3.16647 0
M  V30 9400 H 872.673 -2.66138 -2.99953 0
M  V30 9401 H 869.263 -3.75294 -2.07008 0
M  V30 9402 H 873.447 -4.662 -1.70209 0
M  V30 9403 H 868.703 -5.99083 -1.22103 0
M  V30 9404 H 872.877 -6.91048 -0.861755 0
M  V30 9405 H 870.504 -7.57704 -0.615561 0
M  V30 9406 N 872.079 0.78992 -1.36375 0
M  V30 9407 C 873.304 1.58389 -1.33895 0
M  V30 9408 C 873.729 1.8794 0.0774934 0
M  V30 9409 O 873.087 1.4785 1.0493 0
M  V30 9410 C 873.135 2.88201 -2.16732 0
M  V30 9411 O 872.239 3.81778 -1.55946 0
M  V30 9412 H 871.58 0.480471 -0.458305 0
M  V30 9413 H 874.11 0.979119 -1.79651 0
M  V30 9414 H 874.12 3.37475 -2.29292 0
M  V30 9415 H 872.795 2.66019 -3.19698 0
M  V30 9416 H 871.372 3.40371 -1.52323 0
M  V30 9417 N 873.557 1.20646 1.01402 0
M  V30 9418 C 874.782 1.04462 1.79172 0
M  V30 9419 C 875.207 -0.401588 1.83763 0
M  V30 9420 O 874.565 -1.28934 1.27459 0
M  V30 9421 C 874.613 1.63583 3.21361 0
M  V30 9422 O 873.717 0.875198 4.03006 0
M  V30 9423 H 873.058 0.368235 0.552539 0
M  V30 9424 H 875.588 1.59994 1.27526 0
M  V30 9425 H 875.598 1.67426 3.72065 0
M  V30 9426 H 874.273 2.68835 3.17334 0
M  V30 9427 H 872.85 0.911172 3.61597 0
M  V30 9428 N 875.035 -1.20752 1.01276 0
M  V30 9429 C 875.982 -2.234 0.579732 0
M  V30 9430 C 876.952 -1.61256 -0.398206 0
M  V30 9431 O 878.137 -1.8845 -0.29851 0
M  V30 9432 C 875.277 -3.45008 -0.0797006 0
M  V30 9433 C 874.39 -4.21597 0.942343 0
M  V30 9434 C 873.525 -5.30591 0.254364 0
M  V30 9435 C 872.564 -5.98919 1.26343 0
M  V30 9436 N 871.701 -6.99511 0.602384 0
M  V30 9437 H 876.541 -2.59801 1.45971 0
M  V30 9438 H 874.078 -1.27663 0.730787 0
M  V30 9439 H 876.036 -4.1444 -0.479125 0
M  V30 9440 H 874.666 -3.09312 -0.923354 0
M  V30 9441 H 873.718 -3.51268 1.45996 0
M  V30 9442 H 875.03 -4.68576 1.70992 0
M  V30 9443 H 874.184 -6.06368 -0.200763 0
M  V30 9444 H 872.923 -4.84639 -0.545553 0
M  V30 9445 H 871.928 -5.21906 1.72898 0
M  V30 9446 H 873.153 -6.46957 2.06456 0
M  V30 9447 H 871.099 -6.55759 -0.177734 0
M  V30 9448 H 871.016 -7.44597 1.30809 0
M  V30 9449 H 872.284 -7.79313 0.17072 0
M  V30 9450 N 876.513 -0.788492 -1.36457 0
M  V30 9451 C 877.461 -0.174192 -2.31947 0
M  V30 9452 C 878.455 0.665974 -1.5576 0
M  V30 9453 O 879.661 0.561161 -1.71029 0
M  V30 9454 H 876.036 -0.0375538 -0.751062 0
M  V30 9455 H 878.007 -0.995011 -2.81322 0
M  V30 9456 C 876.756 0.677276 -3.4104 0
M  V30 9457 H 876.079 0.0401418 -3.9978 0
M  V30 9458 H 877.519 1.07379 -4.10178 0
M  V30 9459 C 875.978 1.83512 -2.82533 0
M  V30 9460 O 876.508 2.93164 -2.74623 0
M  V30 9461 N 874.714 1.64095 -2.39836 0
M  V30 9462 H 874.261 0.749046 -2.46469 0
M  V30 9463 H 874.219 2.41726 -2.01037 0
M  V30 9464 N 877.991 1.48044 -0.54043 0
M  V30 9465 C 879.268 1.95523 0.0547302 0
M  V30 9466 C 879.648 1.48284 1.5025 0
M  V30 9467 O 878.996 0.714037 2.17057 0
M  V30 9468 C 879.206 3.48923 -0.0733393 0
M  V30 9469 C 880.554 4.24523 0.0806026 0
M  V30 9470 O 881.578 3.562 -5.58687e-05 0
M  V30 9471 O 880.437 5.45922 0.251216 0
M  V30 9472 H 877.531 0.823728 0.073493 0
M  V30 9473 H 880.077 1.5852 -0.605768 0
M  V30 9474 H 878.849 3.76059 -1.08144 0
M  V30 9475 H 878.472 3.92648 0.625536 0
M  V30 9476 N 879.47 0.276058 1.55163 0
M  V30 9477 C 880.418 -0.626978 2.2399 0
M  V30 9478 C 881.412 -1.15708 1.23725 0
M  V30 9479 O 882.618 -1.1106 1.41653 0
M  V30 9480 H 878.993 -0.220742 0.718872 0
M  V30 9481 H 880.964 -0.0236569 2.98391 0
M  V30 9482 C 879.713 -1.79935 2.97521 0
M  V30 9483 H 879.036 -1.40064 3.74463 0
M  V30 9484 H 880.476 -2.40781 3.48999 0
M  V30 9485 C 878.935 -2.68838 2.03046 0
M  V30 9486 O 879.465 -3.69224 1.58229 0
M  V30 9487 N 877.671 -2.36028 1.69527 0
M  V30 9488 H 877.218 -1.54442 2.06169 0
M  V30 9489 H 877.176 -2.95782 1.06586 0
M  V30 9490 N 880.948 -1.576 0.00335426 0
M  V30 9491 C 882.173 -1.95398 -0.695311 0
M  V30 9492 C 882.598 -0.878476 -1.66326 0
M  V30 9493 O 881.956 0.163086 -1.80565 0
M  V30 9494 C 882.004 -3.32293 -1.40049 0
M  V30 9495 O 881.108 -3.26834 -2.51502 0
M  V30 9496 H 880.449 -0.637796 -0.184694 0
M  V30 9497 H 882.979 -2.04519 0.057543 0
M  V30 9498 H 882.989 -3.67936 -1.76316 0
M  V30 9499 H 881.664 -4.10123 -0.690803 0
M  V30 9500 H 880.241 -3.02872 -2.17539 0
M  V30 9501 N 882.426 0.269451 -1.5528 0
M  V30 9502 C 883.376 1.33553 -1.84791 0
M  V30 9503 C 884.36 1.44532 -0.707067 0
M  V30 9504 O 885.552 1.48153 -0.968493 0
M  V30 9505 C 882.681 2.69516 -2.12641 0
M  V30 9506 C 881.767 2.62633 -3.32993 0
M  V30 9507 N 882.158 2.25371 -4.52815 0
M  V30 9508 C 880.456 2.93688 -3.35654 0
M  V30 9509 C 881.157 2.28567 -5.34913 0
M  V30 9510 N 880.133 2.67181 -4.73408 0
M  V30 9511 H 883.935 1.03758 -2.74976 0
M  V30 9512 H 881.449 0.478087 -1.55203 0
M  V30 9513 H 883.446 3.46424 -2.3194 0
M  V30 9514 H 882.106 3.00197 -1.23742 0
M  V30 9515 H 883.117 1.9729 -4.7885 0
M  V30 9516 H 879.794 3.29057 -2.56958 0
M  V30 9517 H 881.184 2.02289 -6.40725 0
M  V30 9518 N 883.904 1.48273 0.534124 0
M  V30 9519 C 885.153 1.55334 1.28663 0
M  V30 9520 C 885.466 0.230345 1.94239 0
M  V30 9521 O 886.672 0.179161 2.70908 0
M  V30 9522 C 885.128 2.73927 2.33435 0
M  V30 9523 C 884.736 4.12852 1.73947 0
M  V30 9524 C 886.48 2.90298 3.09722 0
M  V30 9525 C 884.387 5.22711 2.76636 0
M  V30 9526 H 883.317 0.578262 0.483869 0
M  V30 9527 H 885.968 1.74598 0.564602 0
M  V30 9528 H 884.35 2.48089 3.08655 0
M  V30 9529 H 885.524 4.48691 1.04944 0
M  V30 9530 H 883.839 4.01562 1.10167 0
M  V30 9531 H 886.436 3.69542 3.86449 0
M  V30 9532 H 886.779 1.99598 3.6533 0
M  V30 9533 H 887.312 3.16017 2.41616 0
M  V30 9534 H 884.051 6.15362 2.25852 0
M  V30 9535 H 883.571 4.91364 3.43979 0
M  V30 9536 H 885.25 5.50648 3.39699 0
M  V30 9537 N 885.382 -0.782676 1.36792 0
M  V30 9538 C 886.61 -1.57162 1.34565 0
M  V30 9539 C 887.025 -1.88664 -0.0715501 0
M  V30 9540 O 886.382 -1.50633 -1.03033 0
M  V30 9541 C 886.433 -2.88854 2.1736 0
M  V30 9542 O 886.154 -2.58707 3.53557 0
M  V30 9543 C 887.655 -3.83132 2.2299 0
M  V30 9544 H 884.875 -0.487245 0.461338 0
M  V30 9545 H 887.419 -0.970905 1.79982 0
M  V30 9546 H 885.574 -3.45377 1.7548 0
M  V30 9547 H 885.988 -3.42961 3.96835 0
M  V30 9548 H 887.462 -4.72575 2.85266 0
M  V30 9549 H 887.939 -4.21472 1.23524 0
M  V30 9550 H 888.545 -3.32541 2.65135 0
M  V30 9551 N 886.86 -1.21182 -1.00761 0
M  V30 9552 C 888.085 -1.05411 -1.78615 0
M  V30 9553 C 888.51 0.391837 -1.83973 0
M  V30 9554 O 887.868 1.28256 -1.28141 0
M  V30 9555 C 887.916 -1.65285 -3.20489 0
M  V30 9556 O 887.02 -0.896558 -4.02536 0
M  V30 9557 H 886.361 -0.37116 -0.550578 0
M  V30 9558 H 888.891 -1.60669 -1.26676 0
M  V30 9559 H 888.901 -1.69397 -3.71172 0
M  V30 9560 H 887.576 -2.70514 -3.15904 0
M  V30 9561 H 886.153 -0.930335 -3.61108 0
M  V30 9562 N 888.338 1.20213 -1.01915 0
M  V30 9563 C 889.566 1.93622 -0.729255 0
M  V30 9564 C 889.981 1.74923 0.710444 0
M  V30 9565 O 889.338 1.06484 1.48214 0
M  V30 9566 C 889.389 3.45651 -1.05865 0
M  V30 9567 O 889.11 3.63741 -2.44181 0
M  V30 9568 C 890.611 4.36201 -0.790176 0
M  V30 9569 H 887.831 0.615333 -0.267594 0
M  V30 9570 H 890.375 1.52633 -1.36101 0
M  V30 9571 H 888.53 3.84511 -0.47225 0
M  V30 9572 H 888.944 4.57702 -2.56143 0
M  V30 9573 H 890.418 5.41516 -1.07071 0
M  V30 9574 H 890.895 4.38334 0.275609 0
M  V30 9575 H 891.501 4.03008 -1.35885 0
M  V30 9576 N 889.816 0.795718 1.36037 0
M  V30 9577 C 890.746 0.212803 2.32528 0
M  V30 9578 C 891.727 -0.655716 1.56953 0
M  V30 9579 O 892.912 -0.588238 1.85077 0
M  V30 9580 C 890.042 -0.648189 3.41198 0
M  V30 9581 C 888.996 0.120948 4.27829 0
M  V30 9582 C 888.322 -0.861044 5.27722 0
M  V30 9583 C 889.622 1.31375 5.05508 0
M  V30 9584 H 891.316 1.01893 2.81528 0
M  V30 9585 H 888.862 0.491422 1.35355 0
M  V30 9586 H 890.815 -1.06597 4.07695 0
M  V30 9587 H 889.539 -1.48709 2.9078 0
M  V30 9588 H 888.198 0.519777 3.62897 0
M  V30 9589 H 887.846 -1.69515 4.73575 0
M  V30 9590 H 887.546 -0.350808 5.86552 0
M  V30 9591 H 889.07 -1.27726 5.97092 0
M  V30 9592 H 890.484 0.971406 5.6501 0
M  V30 9593 H 888.881 1.75772 5.73781 0
M  V30 9594 H 889.951 2.10593 4.36782 0
M  V30 9595 N 891.294 -1.47756 0.548274 0
M  V30 9596 C 892.242 -2.3158 -0.217584 0
M  V30 9597 C 893.236 -1.42372 -0.917957 0
M  V30 9598 O 894.442 -1.59184 -0.840259 0
M  V30 9599 H 890.817 -0.74671 -0.0890388 0
M  V30 9600 H 892.788 -2.94032 0.508719 0
M  V30 9601 C 891.537 -3.24834 -1.24008 0
M  V30 9602 H 890.86 -3.93435 -0.710572 0
M  V30 9603 H 892.3 -3.86336 -1.74701 0
M  V30 9604 C 890.759 -2.47724 -2.2833 0
M  V30 9605 O 891.289 -2.21522 -3.35098 0
M  V30 9606 N 889.495 -2.08891 -2.02022 0
M  V30 9607 H 889.042 -2.30401 -1.1521 0
M  V30 9608 H 889 -1.57613 -2.7204 0
M  V30 9609 N 892.772 -0.284283 -1.55015 0
M  V30 9610 C 893.682 0.60906 -2.26556 0
M  V30 9611 C 894.698 1.16246 -1.29472 0
M  V30 9612 O 895.874 1.1908 -1.62425 0
M  V30 9613 C 892.939 1.77246 -2.97968 0
M  V30 9614 C 892 1.25482 -4.10552 0
M  V30 9615 C 891.233 2.36277 -4.78549 0
M  V30 9616 O 891.456 3.55829 -4.45805 0
M  V30 9617 O 890.39 2.03914 -5.66306 0
M  V30 9618 H 894.216 0.0292298 -3.03686 0
M  V30 9619 H 891.801 -0.0513466 -1.49312 0
M  V30 9620 H 893.683 2.45062 -3.42815 0
M  V30 9621 H 892.358 2.33921 -2.23747 0
M  V30 9622 H 891.265 0.542859 -3.7014 0
M  V30 9623 H 892.598 0.733708 -4.86701 0
M  V30 9624 N 894.251 1.57596 -0.0117121 0
M  V30 9625 C 895.199 2.1029 0.994035 0
M  V30 9626 C 896.193 1.02549 1.34833 0
M  V30 9627 O 897.399 1.21003 1.3326 0
M  V30 9628 H 893.774 0.671624 0.338268 0
M  V30 9629 H 895.745 2.93761 0.524147 0
M  V30 9630 C 894.494 2.63099 2.27319 0
M  V30 9631 H 893.817 3.45642 2.00927 0
M  V30 9632 H 895.257 3.03635 2.95942 0
M  V30 9633 C 893.716 1.55044 2.99104 0
M  V30 9634 O 894.246 0.940127 3.90544 0
M  V30 9635 N 892.452 1.27506 2.61133 0
M  V30 9636 H 891.999 1.77322 1.86855 0
M  V30 9637 H 891.957 0.554292 3.09475 0
M  V30 9638 N 895.729 -0.261212 1.5542 0
M  V30 9639 C 897.006 -1.01321 1.67312 0
M  V30 9640 C 897.386 -2.0388 0.547356 0
M  V30 9641 O 896.734 -2.24003 -0.451083 0
M  V30 9642 C 896.944 -1.65943 3.07024 0
M  V30 9643 C 898.292 -2.16666 3.65159 0
M  V30 9644 O 899.316 -1.75909 3.09733 0
M  V30 9645 O 898.175 -2.91455 4.62294 0
M  V30 9646 H 895.269 -0.470714 0.679968 0
M  V30 9647 H 897.815 -0.256133 1.67756 0
M  V30 9648 H 896.587 -0.916868 3.80407 0
M  V30 9649 H 896.21 -2.48308 3.1053 0
M  V30 9650 N 897.207 -1.48554 -0.526253 0
M  V30 9651 C 898.154 -1.63354 -1.63046 0
M  V30 9652 C 899.124 -0.475509 -1.59148 0
M  V30 9653 O 900.309 -0.699453 -1.77517 0
M  V30 9654 C 897.449 -1.68271 -3.01295 0
M  V30 9655 C 896.562 -2.95207 -3.15399 0
M  V30 9656 C 895.697 -2.91262 -4.4423 0
M  V30 9657 C 894.736 -4.12886 -4.51876 0
M  V30 9658 N 893.873 -4.06996 -5.721 0
M  V30 9659 H 898.713 -2.57649 -1.49737 0
M  V30 9660 H 896.25 -1.27769 -0.728938 0
M  V30 9661 H 898.208 -1.69104 -3.81392 0
M  V30 9662 H 896.838 -0.774641 -3.13367 0
M  V30 9663 H 895.89 -3.04102 -2.2853 0
M  V30 9664 H 897.202 -3.85187 -3.1691 0
M  V30 9665 H 896.356 -2.90516 -5.32621 0
M  V30 9666 H 895.095 -1.99016 -4.45246 0
M  V30 9667 H 894.1 -4.13902 -3.61891 0
M  V30 9668 H 895.325 -5.06294 -4.52596 0
M  V30 9669 H 893.271 -3.17573 -5.74006 0
M  V30 9670 H 893.188 -4.90685 -5.75121 0
M  V30 9671 H 894.456 -4.10315 -6.62768 0
M  V30 9672 N 898.685 0.775411 -1.37205 0
M  V30 9673 C 899.633 1.90996 -1.32752 0
M  V30 9674 C 900.627 1.68006 -0.216907 0
M  V30 9675 O 901.833 1.7584 -0.384723 0
M  V30 9676 H 898.208 0.62803 -0.413621 0
M  V30 9677 H 900.179 1.91869 -2.28536 0
M  V30 9678 C 898.928 3.28211 -1.14772 0
M  V30 9679 H 898.251 3.46477 -1.99484 0
M  V30 9680 H 899.691 4.07907 -1.15706 0
M  V30 9681 C 898.15 3.3658 0.146852 0
M  V30 9682 O 898.68 3.85428 1.13173 0
M  V30 9683 N 896.886 2.89936 0.196305 0
M  V30 9684 H 896.433 2.50375 -0.605807 0
M  V30 9685 H 896.391 2.95916 1.06212 0
M  V30 9686 N 900.163 1.21714 1.00117 0
M  V30 9687 C 901.093 1.00397 2.10815 0
M  V30 9688 C 902.074 -0.0723502 1.69946 0
M  V30 9689 O 903.259 0.0882398 1.93999 0
M  V30 9690 C 900.389 0.572001 3.42557 0
M  V30 9691 C 899.343 1.59331 3.97237 0
M  V30 9692 C 898.669 1.01746 5.2493 0
M  V30 9693 C 899.969 2.98117 4.28863 0
M  V30 9694 H 901.663 1.92983 2.28906 0
M  V30 9695 H 899.209 0.929273 1.10002 0
M  V30 9696 H 901.162 0.410018 4.19401 0
M  V30 9697 H 899.886 -0.38951 3.24269 0
M  V30 9698 H 898.545 1.74293 3.22518 0
M  V30 9699 H 898.193 0.0475491 5.02978 0
M  V30 9700 H 897.893 1.69969 5.62481 0
M  V30 9701 H 899.417 0.866881 6.04415 0
M  V30 9702 H 900.831 2.86578 4.96534 0
M  V30 9703 H 899.228 3.63389 4.77565 0
M  V30 9704 H 900.298 3.48674 3.36979 0
M  V30 9705 N 901.641 -1.19671 1.02551 0
M  V30 9706 C 902.588 -2.22773 0.603394 0
M  V30 9707 C 903.558 -1.61669 -0.381081 0
M  V30 9708 O 904.743 -1.88756 -0.278505 0
M  V30 9709 C 901.883 -3.45073 -0.0431034 0
M  V30 9710 C 900.996 -4.20574 0.987006 0
M  V30 9711 C 900.131 -5.30291 0.310626 0
M  V30 9712 C 899.17 -5.97545 1.32688 0
M  V30 9713 N 898.307 -6.98833 0.676542 0
M  V30 9714 H 903.147 -2.58238 1.48719 0
M  V30 9715 H 900.684 -1.26881 0.744286 0
M  V30 9716 H 902.642 -4.14925 -0.435141 0
M  V30 9717 H 901.272 -3.10274 -0.890495 0
M  V30 9718 H 900.324 -3.497 1.49713 0
M  V30 9719 H 901.636 -4.66736 1.75952 0
M  V30 9720 H 900.79 -6.06547 -0.136438 0
M  V30 9721 H 899.529 -4.8519 -0.49412 0
M  V30 9722 H 898.534 -5.20043 1.78424 0
M  V30 9723 H 899.759 -6.4473 2.13306 0
M  V30 9724 H 897.705 -6.55911 -0.108172 0
M  V30 9725 H 897.622 -7.43168 1.38699 0
M  V30 9726 H 898.89 -7.79088 0.253367 0
M  V30 9727 N 903.119 -0.802921 -1.35613 0
M  V30 9728 C 904.067 -0.198783 -2.31749 0
M  V30 9729 C 905.061 0.649416 -1.56458 0
M  V30 9730 O 906.267 0.542989 -1.71615 0
M  V30 9731 H 902.642 -0.0455177 -0.750621 0
M  V30 9732 H 904.613 -1.02479 -2.80251 0
M  V30 9733 C 903.362 0.641066 -3.41739 0
M  V30 9734 H 902.685 -0.00226244 -3.998 0
M  V30 9735 H 904.125 1.03022 -4.11294 0
M  V30 9736 C 902.584 1.80505 -2.84464 0
M  V30 9737 O 903.114 2.90235 -2.77717 0
M  V30 9738 N 901.32 1.61542 -2.41563 0
M  V30 9739 H 900.867 0.722863 -2.4725 0
M  V30 9740 H 900.825 2.39581 -2.03589 0
M  V30 9741 N 904.597 1.47463 -0.556102 0
M  V30 9742 C 905.56 2.28478 0.181743 0
M  V30 9743 C 906.56 1.36886 0.843738 0
M  V30 9744 O 907.75 1.59527 0.69977 0
M  V30 9745 C 904.882 3.16534 1.26566 0
M  V30 9746 H 906.075 2.95182 -0.529892 0
M  V30 9747 H 903.628 1.53134 -0.313005 0
M  V30 9748 H 904.363 2.5452 2.00973 0
M  V30 9749 H 904.148 3.83939 0.795798 0
M  V30 9750 H 905.638 3.77579 1.78393 0
M  V30 9751 N 906.075 0.2925 1.54862 0
M  V30 9752 C 907.023 -0.603186 2.24643 0
M  V30 9753 C 908.017 -1.1439 1.24946 0
M  V30 9754 O 909.223 -1.09552 1.42823 0
M  V30 9755 H 905.598 -0.213105 0.721173 0
M  V30 9756 H 907.569 0.00799278 2.98399 0
M  V30 9757 C 906.318 -1.76769 2.99413 0
M  V30 9758 H 905.641 -1.36084 3.75927 0
M  V30 9759 H 907.081 -2.37066 3.51533 0
M  V30 9760 C 905.54 -2.66669 2.05886 0
M  V30 9761 O 906.07 -3.67525 1.62136 0
M  V30 9762 N 904.276 -2.34216 1.7202 0
M  V30 9763 H 903.823 -1.52246 2.07795 0
M  V30 9764 H 903.781 -2.94635 1.09717 0
M  V30 9765 N 907.553 -1.57587 0.0200696 0
M  V30 9766 C 908.503 -2.0616 -0.973751 0
M  V30 9767 C 909.487 -0.960282 -1.29102 0
M  V30 9768 O 910.679 -1.22391 -1.27865 0
M  V30 9769 C 907.808 -2.58487 -2.25919 0
M  V30 9770 C 906.894 -3.75533 -1.97068 0
M  V30 9771 N 907.285 -4.86482 -1.38451 0
M  V30 9772 C 905.583 -3.83847 -2.27107 0
M  V30 9773 C 906.284 -5.67773 -1.26527 0
M  V30 9774 N 905.26 -5.14398 -1.75772 0
M  V30 9775 H 909.062 -2.89346 -0.515365 0
M  V30 9776 H 906.576 -1.61341 -0.185163 0
M  V30 9777 H 908.573 -2.91572 -2.97979 0
M  V30 9778 H 907.233 -1.76728 -2.72392 0
M  V30 9779 H 908.244 -5.06922 -1.06069 0
M  V30 9780 H 904.921 -3.12978 -2.76316 0
M  V30 9781 H 906.311 -6.66966 -0.812785 0
M  V30 9782 N 909.032 0.252966 -1.55557 0
M  V30 9783 C 910.257 1.0038 -1.8149 0
M  V30 9784 C 910.682 1.78397 -0.596318 0
M  V30 9785 O 910.04 1.7551 0.454535 0
M  V30 9786 C 910.088 1.9222 -3.05096 0
M  V30 9787 O 909.192 3.01302 -2.81587 0
M  V30 9788 H 908.533 0.285949 -0.599274 0
M  V30 9789 H 911.063 0.275795 -2.02733 0
M  V30 9790 H 911.073 2.338 -3.34368 0
M  V30 9791 H 909.748 1.34852 -3.93431 0
M  V30 9792 H 908.325 2.63894 -2.63466 0
M  V30 9793 N 910.51 1.48831 0.518367 0
M  V30 9794 C 911.458 1.64678 1.64268 0
M  V30 9795 C 912.452 0.512967 1.61447 0
M  V30 9796 O 913.658 0.692063 1.66164 0
M  V30 9797 H 910.033 0.518964 0.544224 0
M  V30 9798 H 912.004 2.59083 1.4805 0
M  V30 9799 C 910.753 1.71449 3.0249 0
M  V30 9800 H 910.076 2.58061 3.0536 0
M  V30 9801 H 911.516 1.86577 3.80743 0
M  V30 9802 C 909.975 0.455584 3.33805 0
M  V30 9803 O 910.505 -0.426428 3.9943 0
M  V30 9804 N 908.711 0.323763 2.88791 0
M  V30 9805 H 908.258 1.04249 2.35563 0
M  V30 9806 H 908.216 -0.517514 3.10112 0
M  V30 9807 N 911.988 -0.768124 1.37614 0
M  V30 9808 C 913.218 -1.555 1.36027 0
M  V30 9809 C 913.626 -1.89119 -0.0554273 0
M  V30 9810 O 912.969 -1.52203 -1.02859 0
M  V30 9811 C 913.031 -2.8906 2.13739 0
M  V30 9812 C 912.695 -2.78058 3.62674 0
M  V30 9813 C 913.692 -2.48841 4.5648 0
M  V30 9814 C 911.377 -2.95966 4.05844 0
M  V30 9815 C 913.371 -2.37665 5.91434 0
M  V30 9816 C 911.058 -2.84411 5.40882 0
M  V30 9817 C 912.056 -2.55301 6.33491 0
M  V30 9818 O 911.744 -2.43779 7.66046 0
M  V30 9819 H 911.476 -0.488263 0.467521 0
M  V30 9820 H 914.03 -0.959583 1.81607 0
M  V30 9821 H 912.26 -3.50735 1.62854 0
M  V30 9822 H 913.949 -3.5048 2.04741 0
M  V30 9823 H 914.715 -2.34687 4.24437 0
M  V30 9824 H 910.594 -3.17625 3.34119 0
M  V30 9825 H 914.138 -2.14865 6.63686 0
M  V30 9826 H 910.035 -2.98134 5.72527 0
M  V30 9827 H 910.803 -2.59101 7.76408 0
M  V30 9828 N 913.466 -1.22244 -0.994698 0
M  V30 9829 C 914.694 -1.07218 -1.76952 0
M  V30 9830 C 915.109 0.377388 -1.8499 0
M  V30 9831 O 914.466 1.26157 -1.31874 0
M  V30 9832 C 914.517 -1.67496 -3.20355 0
M  V30 9833 O 914.238 -3.06782 -3.12756 0
M  V30 9834 C 915.739 -1.57721 -4.14294 0
M  V30 9835 H 912.959 -0.375966 -0.555779 0
M  V30 9836 H 915.503 -1.61799 -1.25065 0
M  V30 9837 H 913.658 -1.16982 -3.69315 0
M  V30 9838 H 914.072 -3.35784 -4.02926 0
M  V30 9839 H 915.546 -2.04623 -5.12673 0
M  V30 9840 H 916.023 -0.533434 -4.35949 0
M  V30 9841 H 916.629 -2.07531 -3.71229 0
M  V30 9842 N 914.944 1.19125 -1.03184 0
M  V30 9843 C 916.172 1.92838 -0.74975 0
M  V30 9844 C 916.587 1.75667 0.691851 0
M  V30 9845 O 915.944 1.0805 1.47076 0
M  V30 9846 C 915.995 3.44509 -1.09525 0
M  V30 9847 O 915.716 3.6113 -2.48025 0
M  V30 9848 C 917.217 4.35338 -0.836397 0
M  V30 9849 H 914.437 0.61246 -0.274105 0
M  V30 9850 H 916.981 1.5118 -1.37712 0
M  V30 9851 H 915.136 3.83988 -0.513006 0
M  V30 9852 H 915.55 4.54959 -2.60984 0
M  V30 9853 H 917.024 5.4035 -1.12808 0
M  V30 9854 H 917.501 4.38602 0.229102 0
M  V30 9855 H 918.107 4.01544 -1.40152 0
M  V30 9856 N 916.422 0.810101 1.35185 0
M  V30 9857 C 917.385 0.22852 2.28058 0
M  V30 9858 C 918.385 -0.586168 1.49735 0
M  V30 9859 O 919.575 -0.40414 1.69447 0
M  V30 9860 C 916.707 -0.681041 3.34028 0
M  V30 9861 H 917.9 1.04768 2.81005 0
M  V30 9862 H 915.453 0.58101 1.451 0
M  V30 9863 H 916.188 -1.52375 2.86273 0
M  V30 9864 H 915.973 -0.0985276 3.91976 0
M  V30 9865 H 917.463 -1.08217 4.03335 0
M  V30 9866 N 917.9 -1.47166 0.563914 0
M  V30 9867 C 918.832 -2.28165 -0.217583 0
M  V30 9868 C 919.845 -1.37405 -0.873134 0
M  V30 9869 O 921.034 -1.6217 -0.745857 0
M  V30 9870 C 918.134 -3.11873 -1.32621 0
M  V30 9871 C 917.307 -4.30637 -0.766177 0
M  V30 9872 C 916.366 -4.95889 -1.76014 0
M  V30 9873 O 915.392 -5.54071 -1.3036 0
M  V30 9874 N 916.594 -4.91191 -3.09373 0
M  V30 9875 H 919.359 -2.95876 0.477256 0
M  V30 9876 H 916.92 -1.5687 0.40043 0
M  V30 9877 H 918.912 -3.52392 -1.99003 0
M  V30 9878 H 917.482 -2.46361 -1.92419 0
M  V30 9879 H 916.702 -3.94129 0.0745998 0
M  V30 9880 H 917.99 -5.07442 -0.371472 0
M  V30 9881 H 917.388 -4.45133 -3.49104 0
M  V30 9882 H 915.945 -5.35708 -3.71295 0
M  V30 9883 N 919.378 -0.300708 -1.54705 0
M  V30 9884 C 920.341 0.562648 -2.22187 0
M  V30 9885 C 921.341 1.06152 -1.20782 0
M  V30 9886 O 922.531 0.957596 -1.45519 0
M  V30 9887 C 919.663 1.77899 -2.908 0
M  V30 9888 H 920.856 -0.0269361 -2.99888 0
M  V30 9889 H 918.409 -0.0515412 -1.56215 0
M  V30 9890 H 919.144 2.40841 -2.17177 0
M  V30 9891 H 918.929 1.42892 -3.65136 0
M  V30 9892 H 920.419 2.39236 -3.42281 0
M  V30 9893 N 920.856 1.57574 -0.0284266 0
M  V30 9894 C 922.084 1.96071 0.660575 0
M  V30 9895 C 922.499 0.904881 1.65703 0
M  V30 9896 O 921.856 -0.113379 1.82147 0
M  V30 9897 C 921.907 3.34634 1.36756 0
M  V30 9898 O 921.628 4.36167 0.411041 0
M  V30 9899 C 923.129 3.87758 2.14845 0
M  V30 9900 H 920.349 0.645794 0.182183 0
M  V30 9901 H 922.893 2.04311 -0.0879858 0
M  V30 9902 H 921.048 3.27616 2.06753 0
M  V30 9903 H 921.462 5.16493 0.913 0
M  V30 9904 H 922.936 4.87058 2.59767 0
M  V30 9905 H 923.413 3.21967 2.9872 0
M  V30 9906 H 924.019 3.98043 1.49807 0
M  V30 9907 N 922.334 -0.244713 1.55689 0
M  V30 9908 C 923.562 -0.989944 1.8168 0
M  V30 9909 C 923.977 -1.78863 0.604449 0
M  V30 9910 O 923.334 -1.77437 -0.426907 0
M  V30 9911 C 923.385 -1.92607 3.05916 0
M  V30 9912 O 923.106 -1.1597 4.22472 0
M  V30 9913 C 924.607 -2.78711 3.44724 0
M  V30 9914 H 921.827 -0.2912 0.604519 0
M  V30 9915 H 924.371 -0.266938 2.0275 0
M  V30 9916 H 922.526 -2.60333 2.8689 0
M  V30 9917 H 922.94 -1.79311 4.92898 0
M  V30 9918 H 924.414 -3.40141 4.34751 0
M  V30 9919 H 924.891 -3.49935 2.6541 0
M  V30 9920 H 925.497 -2.16435 3.66109 0
M  V30 9921 N 923.813 -1.49104 -0.510467 0
M  V30 9922 C 924.761 -1.65547 -1.63392 0
M  V30 9923 C 925.755 -0.521522 -1.61172 0
M  V30 9924 O 926.961 -0.700865 -1.65795 0
M  V30 9925 H 923.336 -0.521843 -0.541464 0
M  V30 9926 H 925.307 -2.59864 -1.46673 0
M  V30 9927 C 924.056 -1.73051 -3.01577 0
M  V30 9928 H 923.379 -2.59676 -3.03987 0
M  V30 9929 H 924.819 -1.88594 -3.79748 0
M  V30 9930 C 923.278 -0.47328 -3.33559 0
M  V30 9931 O 923.808 0.405239 -3.99651 0
M  V30 9932 N 922.014 -0.339074 -2.88615 0
M  V30 9933 H 921.561 -1.05497 -2.35007 0
M  V30 9934 H 921.519 0.501061 -3.10382 0
M  V30 9935 N 925.291 0.760815 -1.38019 0
M  V30 9936 C 926.539 1.51673 -1.33566 0
M  V30 9937 C 926.86 1.94852 0.076024 0
M  V30 9938 O 926.13 1.67112 1.02227 0
M  V30 9939 H 924.71 0.562581 -0.491438 0
M  V30 9940 H 927.372 0.904832 -1.72623 0
M  V30 9941 H 926.468 2.41102 -1.98182 0
M  V30 9942 N 926.769 1.22769 0.988202 0
M  V30 9943 C 927.999 1.07998 1.76125 0
M  V30 9944 C 928.407 -0.372062 1.85506 0
M  V30 9945 O 927.75 -1.26946 1.3278 0
M  V30 9946 C 927.812 1.6219 3.20834 0
M  V30 9947 C 927.476 3.1086 3.34986 0
M  V30 9948 C 928.473 4.08239 3.21927 0
M  V30 9949 C 926.158 3.50411 3.59886 0
M  V30 9950 C 928.152 5.43154 3.33561 0
M  V30 9951 C 925.839 4.85473 3.71159 0
M  V30 9952 C 926.837 5.81653 3.58006 0
M  V30 9953 O 926.525 7.14263 3.68895 0
M  V30 9954 H 926.257 0.378937 0.559806 0
M  V30 9955 H 928.811 1.62925 1.25078 0
M  V30 9956 H 927.041 1.01676 3.73094 0
M  V30 9957 H 928.73 1.43011 3.79872 0
M  V30 9958 H 929.496 3.79025 3.02597 0
M  V30 9959 H 925.375 2.76068 3.69198 0
M  V30 9960 H 928.919 6.18207 3.23211 0
M  V30 9961 H 924.816 5.14365 3.89998 0
M  V30 9962 H 925.584 7.21906 3.85739 0
M  V30 9963 N 928.247 -1.18576 1.03814 0
M  V30 9964 C 929.157 -2.25778 0.637311 0
M  V30 9965 C 930.173 -1.7074 -0.335248 0
M  V30 9966 O 931.349 -2.00494 -0.19081 0
M  V30 9967 C 928.414 -3.467 0.00386953 0
M  V30 9968 C 927.475 -4.16881 1.02511 0
M  V30 9969 C 926.708 -5.32031 0.421802 0
M  V30 9970 O 926.931 -5.65142 -0.772699 0
M  V30 9971 O 925.865 -5.90826 1.14925 0
M  V30 9972 H 929.691 -2.62323 1.53037 0
M  V30 9973 H 927.276 -1.25609 0.80887 0
M  V30 9974 H 929.158 -4.19953 -0.348873 0
M  V30 9975 H 927.833 -3.11983 -0.863047 0
M  V30 9976 H 926.74 -3.45707 1.4296 0
M  V30 9977 H 928.073 -4.55592 1.86271 0
M  V30 9978 N 929.725 -0.817259 -1.34754 0
M  V30 9979 C 930.688 -0.240611 -2.27934 0
M  V30 9980 C 931.688 0.578219 -1.50044 0
M  V30 9981 O 932.878 0.395148 -1.69659 0
M  V30 9982 C 930.01 0.663318 -3.34384 0
M  V30 9983 H 931.203 -1.06257 -2.80445 0
M  V30 9984 H 928.756 -0.588697 -1.4479 0
M  V30 9985 H 929.491 1.50855 -2.87077 0
M  V30 9986 H 929.276 0.0777388 -3.92023 0
M  V30 9987 H 930.766 1.06076 -4.03903 0
M  V30 9988 N 931.203 1.46865 -0.571711 0
M  V30 9989 C 932.452 2.01636 -0.050881 0
M  V30 9990 C 932.765 1.45001 1.31279 0
M  V30 9991 O 933.971 1.91523 1.92435 0
M  V30 9992 C 932.427 3.59877 -0.0404114 0
M  V30 9993 C 932.035 4.25506 -1.40172 0
M  V30 9994 C 933.779 4.22346 0.42705 0
M  V30 9995 C 931.686 5.75795 -1.34958 0
M  V30 9996 H 930.616 0.753846 -0.0152514 0
M  V30 9997 H 933.267 1.68711 -0.721723 0
M  V30 9998 H 931.649 3.89829 0.696374 0
M  V30 9999 H 932.823 4.07178 -2.15737 0
M  V30 10000 H 931.138 3.75086 -1.8083 0
M  V30 10001 H 933.735 5.32499 0.484688 0
M  V30 10002 H 934.078 3.9052 1.44222 0
M  V30 10003 H 934.611 3.9698 -0.255326 0
M  V30 10004 H 931.35 6.12265 -2.3412 0
M  V30 10005 H 930.87 5.96419 -0.635962 0
M  V30 10006 H 932.549 6.38294 -1.05779 0
M  V30 10007 N 932.681 0.308908 1.54543 0
M  V30 10008 C 933.929 -0.297447 1.99899 0
M  V30 10009 C 934.25 -1.53799 1.19878 0
M  V30 10010 O 933.52 -1.93639 0.29678 0
M  V30 10011 H 932.1 -0.112897 0.738419 0
M  V30 10012 H 934.762 0.422067 1.90275 0
M  V30 10013 H 933.858 -0.564016 3.06961 0
M  V30 10014 N 934.159 -1.57557 0.0367827 0
M  V30 10015 C 935.069 -2.14148 -0.958017 0
M  V30 10016 C 936.085 -1.09564 -1.35173 0
M  V30 10017 O 937.261 -1.4166 -1.43158 0
M  V30 10018 C 934.326 -2.6636 -2.21931 0
M  V30 10019 C 933.387 -3.85688 -1.8853 0
M  V30 10020 C 932.62 -4.35401 -3.08645 0
M  V30 10021 O 932.843 -3.8425 -4.21554 0
M  V30 10022 O 931.777 -5.27158 -2.90497 0
M  V30 10023 H 935.603 -2.99442 -0.506797 0
M  V30 10024 H 933.188 -1.48259 -0.184275 0
M  V30 10025 H 935.07 -2.99976 -2.9596 0
M  V30 10026 H 933.745 -1.84145 -2.66219 0
M  V30 10027 H 932.652 -3.56985 -1.11861 0
M  V30 10028 H 933.985 -4.69089 -1.49052 0
M  V30 10029 N 935.637 0.236453 -1.55816 0
M  V30 10030 C 936.585 1.31259 -1.92025 0
M  V30 10031 C 937.579 1.49292 -0.800518 0
M  V30 10032 O 938.785 1.50643 -0.985229 0
M  V30 10033 H 935.16 0.439751 -0.610019 0
M  V30 10034 H 937.131 0.979926 -2.81851 0
M  V30 10035 C 935.88 2.65892 -2.24046 0
M  V30 10036 H 935.203 2.5282 -3.09713 0
M  V30 10037 H 936.643 3.40039 -2.53277 0
M  V30 10038 C 935.102 3.19777 -1.0604 0
M  V30 10039 O 935.632 4.00473 -0.313786 0
M  V30 10040 N 933.838 2.77946 -0.848209 0
M  V30 10041 H 933.385 2.12433 -1.45706 0
M  V30 10042 H 933.343 3.14342 -0.0603424 0
M  V30 10043 N 937.115 1.49373 0.502552 0
M  V30 10044 C 938.343 1.62488 1.28084 0
M  V30 10045 C 938.758 0.295667 1.86471 0
M  V30 10046 O 938.115 -0.718664 1.67754 0
M  V30 10047 C 938.166 2.69249 2.4122 0
M  V30 10048 O 937.887 3.97014 1.85234 0
M  V30 10049 C 939.388 2.93054 3.32617 0
M  V30 10050 H 936.608 0.547068 0.388533 0
M  V30 10051 H 939.152 1.95394 0.603452 0
M  V30 10052 H 937.307 2.39125 3.04792 0
M  V30 10053 H 937.721 4.55809 2.59496 0
M  V30 10054 H 939.195 3.71493 4.08285 0
M  V30 10055 H 939.672 2.02911 3.89517 0
M  V30 10056 H 940.278 3.24589 2.74813 0
M  V30 10057 N 938.594 -0.753485 1.38421 0
M  V30 10058 C 939.841 -1.51261 1.34634 0
M  V30 10059 C 940.169 -1.94396 -0.0635771 0
M  V30 10060 O 939.424 -1.65736 -1.04068 0
M  V30 10061 C 939.723 -2.77836 2.24816 0
M  V30 10062 C 939.389 -2.53662 3.72782 0
M  V30 10063 C 938.051 -2.46779 4.13103 0
M  V30 10064 C 940.403 -2.32548 4.66445 0
M  V30 10065 C 937.731 -2.16796 5.45176 0
M  V30 10066 C 940.083 -2.04085 5.98775 0
M  V30 10067 C 938.747 -1.95658 6.3818 0
M  V30 10068 H 938.017 -0.553503 0.492661 0
M  V30 10069 H 940.664 -0.866406 1.7078 0
M  V30 10070 H 938.969 -3.47106 1.81726 0
M  V30 10071 H 940.666 -3.35793 2.19189 0
M  V30 10072 H 937.256 -2.59891 3.40815 0
M  V30 10073 H 941.44 -2.36845 4.3614 0
M  V30 10074 H 936.696 -2.0878 5.74648 0
M  V30 10075 H 940.87 -1.86751 6.70893 0
M  V30 10076 H 938.497 -1.7219 7.40442 0
M  V30 10077 N 940.072 -1.23292 -0.981677 0
M  V30 10078 C 940.982 -1.02964 -2.10798 0
M  V30 10079 C 941.998 0.0254674 -1.73981 0
M  V30 10080 O 943.174 -0.169706 -2.00684 0
M  V30 10081 C 940.239 -0.621934 -3.41076 0
M  V30 10082 C 939.3 -1.75194 -3.91926 0
M  V30 10083 C 938.533 -1.36359 -5.15986 0
M  V30 10084 O 938.756 -0.247265 -5.69864 0
M  V30 10085 O 937.69 -2.18421 -5.60871 0
M  V30 10086 H 941.516 -1.97354 -2.30836 0
M  V30 10087 H 939.101 -1.01986 -1.09175 0
M  V30 10088 H 940.983 -0.405446 -4.19445 0
M  V30 10089 H 939.658 0.29299 -3.22371 0
M  V30 10090 H 938.565 -2.02305 -3.1468 0
M  V30 10091 H 939.898 -2.64513 -4.15083 0
M  V30 10092 N 941.55 1.18024 -1.04442 0
M  V30 10093 C 942.5 2.19714 -0.609069 0
M  V30 10094 C 943.484 1.57037 0.350473 0
M  V30 10095 O 944.676 1.76192 0.16892 0
M  V30 10096 C 941.805 3.43293 0.0225911 0
M  V30 10097 C 940.891 4.13084 -0.960325 0
M  V30 10098 N 941.282 4.58819 -2.12883 0
M  V30 10099 C 939.58 4.38999 -0.787146 0
M  V30 10100 C 940.281 5.12589 -2.75004 0
M  V30 10101 N 939.257 5.04333 -2.02853 0
M  V30 10102 H 943.059 2.5277 -1.49948 0
M  V30 10103 H 940.573 1.34271 -0.913517 0
M  V30 10104 H 942.57 4.1541 0.352196 0
M  V30 10105 H 941.23 3.11731 0.908495 0
M  V30 10106 H 942.241 4.53148 -2.50754 0
M  V30 10107 H 938.918 4.17472 0.048348 0
M  V30 10108 H 940.308 5.58152 -3.74053 0
M  V30 10109 N 943.028 0.824394 1.34319 0
M  V30 10110 C 944.276 0.41235 1.97849 0
M  V30 10111 C 944.597 -1.02841 1.65677 0
M  V30 10112 O 943.867 -1.71421 0.948245 0
M  V30 10113 H 942.447 0.149486 0.73189 0
M  V30 10114 H 945.109 1.05416 1.63931 0
M  V30 10115 H 944.205 0.532557 3.07523 0
M  V30 10116 N 944.506 -1.46559 0.579492 0
M  V30 10117 C 945.734 -2.06784 0.0693648 0
M  V30 10118 C 946.149 -1.42875 -1.23419 0
M  V30 10119 O 945.506 -0.532919 -1.74546 0
M  V30 10120 C 945.557 -3.61343 -0.106511 0
M  V30 10121 O 945.278 -4.22861 1.14545 0
M  V30 10122 C 946.779 -4.38489 -0.651359 0
M  V30 10123 H 943.999 -0.66866 0.0559848 0
M  V30 10124 H 946.543 -1.88235 0.799245 0
M  V30 10125 H 944.698 -3.7933 -0.786601 0
M  V30 10126 H 945.112 -5.15691 0.95723 0
M  V30 10127 H 946.586 -5.47237 -0.723615 0
M  V30 10128 H 947.063 -4.06309 -1.66763 0
M  V30 10129 H 947.669 -4.253 -0.0062433 0
M  V30 10130 N 945.984 -0.3171 -1.54377 0
M  V30 10131 C 947.209 0.292311 -2.0533 0
M  V30 10132 C 947.634 1.45503 -1.19207 0
M  V30 10133 O 946.992 1.80197 -0.199721 0
M  V30 10134 C 947.04 0.710787 -3.53525 0
M  V30 10135 O 946.144 1.81387 -3.70368 0
M  V30 10136 H 945.485 0.0539976 -0.661801 0
M  V30 10137 H 948.015 -0.463629 -1.99278 0
M  V30 10138 H 948.025 0.995216 -3.95676 0
M  V30 10139 H 946.7 -0.139668 -4.15665 0
M  V30 10140 H 945.277 1.52875 -3.40123 0
M  V30 10141 N 947.462 1.57535 -0.0451378 0
M  V30 10142 C 948.709 1.92451 0.629987 0
M  V30 10143 C 949.037 0.92298 1.71206 0
M  V30 10144 O 948.292 -0.0656626 1.9559 0
M  V30 10145 C 948.591 3.34065 1.27024 0
M  V30 10146 C 948.257 4.49785 0.316971 0
M  V30 10147 C 946.919 4.81169 0.0546406 0
M  V30 10148 C 949.271 5.20111 -0.336693 0
M  V30 10149 C 946.599 5.8023 -0.86889 0
M  V30 10150 C 948.951 6.2016 -1.24838 0
M  V30 10151 C 947.615 6.49976 -1.51944 0
M  V30 10152 H 946.885 0.704228 0.230529 0
M  V30 10153 H 949.532 1.91182 -0.110328 0
M  V30 10154 H 947.837 3.31672 2.08568 0
M  V30 10155 H 949.534 3.58359 1.79945 0
M  V30 10156 H 946.124 4.2529 0.531614 0
M  V30 10157 H 950.308 4.96082 -0.147105 0
M  V30 10158 H 945.564 6.0167 -1.08643 0
M  V30 10159 H 949.738 6.73767 -1.76098 0
M  V30 10160 H 947.365 7.26551 -2.2367 0
M  V30 10161 N 948.94 -0.228186 1.55939 0
M  V30 10162 C 949.85 -1.30386 1.9503 0
M  V30 10163 C 950.866 -1.51645 0.853218 0
M  V30 10164 O 952.042 -1.64904 1.15623 0
M  V30 10165 C 949.107 -2.63489 2.25332 0
M  V30 10166 C 948.168 -2.5059 3.48573 0
M  V30 10167 C 947.401 -3.77345 3.7742 0
M  V30 10168 O 947.624 -4.80067 3.08045 0
M  V30 10169 O 946.558 -3.74855 4.70922 0
M  V30 10170 H 950.384 -1.0022 2.86687 0
M  V30 10171 H 947.969 -0.430503 1.43063 0
M  V30 10172 H 949.851 -3.4211 2.46046 0
M  V30 10173 H 948.526 -2.93349 1.3685 0
M  V30 10174 H 947.433 -1.70191 3.33145 0
M  V30 10175 H 948.766 -2.2567 4.37417 0
M  V30 10176 N 950.418 -1.49637 -0.494624 0
M  V30 10177 C 951.366 -1.6727 -1.61627 0
M  V30 10178 C 952.36 -0.538587 -1.6061 0
M  V30 10179 O 953.566 -0.718411 -1.65042 0
M  V30 10180 H 949.941 -0.527557 -0.535899 0
M  V30 10181 H 951.912 -2.61405 -1.43909 0
M  V30 10182 C 950.661 -1.7624 -2.99725 0
M  V30 10183 H 949.984 -2.62886 -3.01216 0
M  V30 10184 H 951.424 -1.92611 -3.77726 0
M  V30 10185 C 949.883 -0.508632 -3.33038 0
M  V30 10186 O 950.413 0.362828 -4.00058 0
M  V30 10187 N 948.619 -0.369667 -2.88239 0
M  V30 10188 H 948.166 -1.07984 -2.33875 0
M  V30 10189 H 948.124 0.468112 -3.10896 0
M  V30 10190 N 951.896 0.746133 -1.38819 0
M  V30 10191 C 953.136 1.51821 -1.36857 0
M  V30 10192 C 953.5 1.9196 0.0391461 0
M  V30 10193 O 954.701 2.68172 0.183689 0
M  V30 10194 C 952.972 2.73214 -2.3041 0
M  V30 10195 S 954.531 3.62995 -2.46536 0
M  V30 10196 H 951.349 0.51945 -0.485482 0
M  V30 10197 H 953.951 0.875244 -1.74813 0
M  V30 10198 H 952.655 2.41847 -3.31569 0
M  V30 10199 H 952.186 3.42449 -1.9363 0
M  V30 10200 H 954.201 4.66353 -1.69498 0
M  V30 10201 N 953.375 1.23811 0.975125 0
M  V30 10202 C 954.622 1.07336 1.71712 0
M  V30 10203 C 954.95 -0.388954 1.90571 0
M  V30 10204 O 954.205 -1.30409 1.45918 0
M  V30 10205 C 954.504 1.74994 3.11628 0
M  V30 10206 C 954.17 3.24918 3.12632 0
M  V30 10207 C 952.832 3.65822 3.12614 0
M  V30 10208 C 955.184 4.20797 3.07538 0
M  V30 10209 C 952.512 5.01054 3.05224 0
M  V30 10210 C 954.864 5.56027 3.0169 0
M  V30 10211 C 953.528 5.96287 2.99996 0
M  V30 10212 H 952.798 0.392771 0.62834 0
M  V30 10213 H 955.445 1.53815 1.14075 0
M  V30 10214 H 953.75 1.20889 3.72684 0
M  V30 10215 H 955.447 1.5972 3.67819 0
M  V30 10216 H 952.037 2.92359 3.13407 0
M  V30 10217 H 956.221 3.902 3.06688 0
M  V30 10218 H 951.477 5.31454 3.02268 0
M  V30 10219 H 955.651 6.3003 2.96706 0
M  V30 10220 H 953.278 7.01037 2.94025 0
M  V30 10221 N 954.853 -1.17469 1.05066 0
M  V30 10222 C 955.803 -2.19388 0.620713 0
M  V30 10223 C 956.787 -1.5722 -0.34214 0
M  V30 10224 O 957.979 -1.76279 -0.159574 0
M  V30 10225 C 955.108 -3.433 -0.00438518 0
M  V30 10226 C 954.194 -4.12569 0.982218 0
M  V30 10227 N 954.585 -4.57683 2.15313 0
M  V30 10228 C 952.883 -4.38575 0.810416 0
M  V30 10229 C 953.584 -5.11124 2.77719 0
M  V30 10230 N 952.56 -5.0325 2.05525 0
M  V30 10231 H 956.362 -2.51971 1.51287 0
M  V30 10232 H 953.876 -1.33784 0.920625 0
M  V30 10233 H 955.873 -4.15591 -0.330161 0
M  V30 10234 H 954.533 -3.12209 -0.89195 0
M  V30 10235 H 955.544 -4.51812 2.53154 0
M  V30 10236 H 952.221 -4.17492 -0.0262078 0
M  V30 10237 H 953.611 -5.56161 3.77008 0
M  V30 10238 N 956.331 -0.831506 -1.3388 0
M  V30 10239 C 957.556 -0.435954 -2.02766 0
M  V30 10240 C 957.981 0.952889 -1.62178 0
M  V30 10241 O 957.339 1.62166 -0.810681 0
M  V30 10242 C 957.387 -0.555907 -3.56289 0
M  V30 10243 O 956.491 0.420826 -4.10247 0
M  V30 10244 H 955.832 -0.178248 -0.639628 0
M  V30 10245 H 958.362 -1.1243 -1.70941 0
M  V30 10246 H 958.372 -0.434831 -4.05676 0
M  V30 10247 H 957.047 -1.56881 -3.85177 0
M  V30 10248 H 955.624 0.257919 -3.72007 0
M  V30 10249 N 957.809 1.4625 -0.587256 0
M  V30 10250 C 958.756 2.30354 0.143384 0
M  V30 10251 C 959.726 1.40891 0.879716 0
M  V30 10252 O 960.911 1.69837 0.869486 0
M  V30 10253 C 958.051 3.25441 1.14815 0
M  V30 10254 C 957.164 4.30004 0.414792 0
M  V30 10255 C 956.299 5.12214 1.40748 0
M  V30 10256 C 955.338 6.08523 0.660786 0
M  V30 10257 N 954.475 6.83585 1.60176 0
M  V30 10258 H 959.315 2.92304 -0.579866 0
M  V30 10259 H 956.852 1.44055 -0.29777 0
M  V30 10260 H 958.81 3.79018 1.7436 0
M  V30 10261 H 957.44 2.6529 1.83906 0
M  V30 10262 H 956.492 3.79248 -0.295787 0
M  V30 10263 H 957.804 4.98515 -0.168738 0
M  V30 10264 H 956.958 5.70091 2.0756 0
M  V30 10265 H 955.697 4.43675 2.02494 0
M  V30 10266 H 954.702 5.49796 -0.0210864 0
M  V30 10267 H 955.927 6.79083 0.0486551 0
M  V30 10268 H 953.873 6.17752 2.20724 0
M  V30 10269 H 953.79 7.48373 1.07115 0
M  V30 10270 H 955.058 7.46016 2.26009 0
M  V30 10271 N 959.287 0.325282 1.54207 0
M  V30 10272 C 960.217 -0.532574 2.27345 0
M  V30 10273 C 961.198 -1.11791 1.28206 0
M  V30 10274 O 962.383 -1.14272 1.57021 0
M  V30 10275 C 959.513 -1.69274 3.03255 0
M  V30 10276 C 958.467 -1.23662 4.09746 0
M  V30 10277 C 957.793 -2.48386 4.73506 0
M  V30 10278 C 959.093 -0.350244 5.21124 0
M  V30 10279 H 960.787 0.0775108 2.993 0
M  V30 10280 H 958.333 0.0387193 1.43948 0
M  V30 10281 H 960.286 -2.29917 3.53152 0
M  V30 10282 H 959.01 -2.32944 2.28921 0
M  V30 10283 H 957.669 -0.653106 3.60735 0
M  V30 10284 H 957.317 -3.10424 3.95786 0
M  V30 10285 H 957.017 -2.18558 5.45441 0
M  V30 10286 H 958.541 -3.09789 5.26178 0
M  V30 10287 H 959.955 -0.863011 5.66767 0
M  V30 10288 H 958.352 -0.14466 5.99926 0
M  V30 10289 H 959.422 0.618457 4.8094 0
M  V30 10290 N 960.765 -1.57509 0.0534917 0
M  V30 10291 C 962.013 -1.92402 -0.618548 0
M  V30 10292 C 962.334 -0.93273 -1.71246 0
M  V30 10293 O 961.604 0.0220495 -1.95888 0
M  V30 10294 H 960.184 -0.710233 -0.23147 0
M  V30 10295 H 962.846 -1.94606 0.10704 0
M  V30 10296 H 961.942 -2.93704 -1.05566 0
M  V30 10297 N 962.243 0.219913 -1.56058 0
M  V30 10298 C 963.191 1.29215 -1.93407 0
M  V30 10299 C 964.185 1.48434 -0.816307 0
M  V30 10300 O 965.391 1.49589 -1.00115 0
M  V30 10301 H 961.766 0.433256 -0.614649 0
M  V30 10302 H 963.737 0.949977 -2.82875 0
M  V30 10303 C 962.486 2.63501 -2.26854 0
M  V30 10304 H 961.809 2.4952 -3.12377 0
M  V30 10305 H 963.249 3.37334 -2.56869 0
M  V30 10306 C 961.708 3.18634 -1.09425 0
M  V30 10307 O 962.238 4.00117 -0.356243 0
M  V30 10308 N 960.444 2.7703 -0.877642 0
M  V30 10309 H 959.991 2.10875 -1.47951 0
M  V30 10310 H 959.949 3.1426 -0.0936792 0
M  V30 10311 N 963.721 1.49897 0.486681 0
M  V30 10312 C 964.668 1.67619 1.58658 0
M  V30 10313 C 965.638 0.517537 1.57831 0
M  V30 10314 O 966.823 0.746272 1.756 0
M  V30 10315 C 963.963 1.762 2.96728 0
M  V30 10316 C 963.076 3.03465 3.07462 0
M  V30 10317 C 962.211 3.02937 4.36351 0
M  V30 10318 C 961.25 4.24721 4.4077 0
M  V30 10319 N 960.387 4.22021 5.61108 0
M  V30 10320 H 965.227 2.61528 1.42853 0
M  V30 10321 H 962.764 1.29657 0.694807 0
M  V30 10322 H 964.722 1.79156 3.76774 0
M  V30 10323 H 963.352 0.857452 3.11203 0
M  V30 10324 H 962.404 3.10054 2.20387 0
M  V30 10325 H 963.716 3.93454 3.06586 0
M  V30 10326 H 962.87 3.04536 5.24731 0
M  V30 10327 H 961.609 2.10751 4.39813 0
M  V30 10328 H 960.614 4.23352 3.5079 0
M  V30 10329 H 961.839 5.18116 4.39013 0
M  V30 10330 H 959.785 3.3268 5.65385 0
M  V30 10331 H 959.702 5.05761 5.61909 0
M  V30 10332 H 960.97 4.27743 6.51656 0
M  V30 10333 N 965.199 -0.738761 1.39212 0
M  V30 10334 C 966.448 -1.49368 1.35543 0
M  V30 10335 C 966.761 -1.95543 -0.0471091 0
M  V30 10336 O 967.967 -2.70714 -0.206376 0
M  V30 10337 C 966.423 -2.69882 2.381 0
M  V30 10338 C 966.031 -2.30672 3.8405 0
M  V30 10339 C 967.775 -3.47718 2.435 0
M  V30 10340 C 965.682 -3.47886 4.78256 0
M  V30 10341 H 964.612 -0.560898 0.503894 0
M  V30 10342 H 967.263 -0.806221 1.6484 0
M  V30 10343 H 965.645 -3.40684 2.01867 0
M  V30 10344 H 966.819 -1.67441 4.29302 0
M  V30 10345 H 965.134 -1.65936 3.81909 0
M  V30 10346 H 967.731 -4.34897 3.11077 0
M  V30 10347 H 968.074 -3.89919 1.45838 0
M  V30 10348 H 968.607 -2.83942 2.78606 0
M  V30 10349 H 965.346 -3.10739 5.77167 0
M  V30 10350 H 964.866 -4.10111 4.37686 0
M  V30 10351 H 966.545 -4.14271 4.96979 0
M  V30 10352 N 966.677 -1.24326 -0.968545 0
M  V30 10353 C 967.625 -1.03256 -2.08425 0
M  V30 10354 C 968.619 0.0322356 -1.69369 0
M  V30 10355 O 969.825 -0.122251 -1.79584 0
M  V30 10356 H 966.2 -0.31688 -0.681976 0
M  V30 10357 H 968.171 -1.97873 -2.23358 0
M  V30 10358 C 966.92 -0.653144 -3.4151 0
M  V30 10359 H 966.243 -1.46424 -3.72021 0
M  V30 10360 H 967.683 -0.545316 -4.20479 0
M  V30 10361 C 966.142 0.639674 -3.30771 0
M  V30 10362 O 966.672 1.68563 -3.64622 0
M  V30 10363 N 964.878 0.620074 -2.83907 0
M  V30 10364 H 964.425 -0.231449 -2.56558 0
M  V30 10365 H 964.383 1.48528 -2.77104 0
M  V30 10366 N 968.156 1.1691 -1.05688 0
M  V30 10367 C 969.384 1.91204 -0.790485 0
M  V30 10368 C 969.799 1.77095 0.654434 0
M  V30 10369 O 969.156 1.11146 1.44751 0
M  V30 10370 C 969.207 3.42108 -1.16808 0
M  V30 10371 O 968.928 3.55788 -2.55629 0
M  V30 10372 C 970.429 4.33466 -0.92855 0
M  V30 10373 H 967.649 0.606508 -0.287035 0
M  V30 10374 H 970.193 1.48225 -1.40888 0
M  V30 10375 H 968.348 3.82814 -0.59434 0
M  V30 10376 H 968.762 4.49321 -2.70575 0
M  V30 10377 H 970.236 5.37836 -1.24245 0
M  V30 10378 H 970.713 4.38989 0.136016 0
M  V30 10379 H 971.319 3.98481 -1.48638 0
M  V30 10380 N 969.634 0.838594 1.33437 0
M  V30 10381 C 970.862 0.447644 2.01999 0
M  V30 10382 C 971.277 -0.951053 1.63096 0
M  V30 10383 O 970.634 -1.61802 0.844169 0
M  V30 10384 C 970.685 0.558378 3.57162 0
M  V30 10385 O 970.406 1.90196 3.94661 0
M  V30 10386 C 971.907 0.164348 4.42995 0
M  V30 10387 H 969.127 0.177736 0.647032 0
M  V30 10388 H 971.671 1.13109 1.70372 0
M  V30 10389 H 969.826 -0.0771563 3.87323 0
M  V30 10390 H 970.24 1.88729 4.89369 0
M  V30 10391 H 971.714 0.292876 5.51222 0
M  V30 10392 H 972.191 -0.893713 4.30011 0
M  V30 10393 H 972.797 0.774306 4.18192 0
M  V30 10394 N 971.112 -1.45937 0.595003 0
M  V30 10395 C 972.337 -2.07207 0.0894416 0
M  V30 10396 C 972.762 -1.43884 -1.21157 0
M  V30 10397 O 972.12 -0.526998 -1.73472 0
M  V30 10398 C 972.168 -3.60565 -0.0499828 0
M  V30 10399 O 971.272 -3.97364 -1.10342 0
M  V30 10400 H 970.613 -0.660471 0.0683627 0
M  V30 10401 H 973.143 -1.87386 0.82144 0
M  V30 10402 H 973.153 -4.0722 -0.252234 0
M  V30 10403 H 971.828 -4.06044 0.90006 0
M  V30 10404 H 970.405 -3.62401 -0.878645 0
M  V30 10405 N 972.59 -0.333456 -1.54032 0
M  V30 10406 C 973.818 0.267813 -2.05159 0
M  V30 10407 C 974.233 1.4501 -1.20903 0
M  V30 10408 O 973.59 1.80888 -0.241994 0
M  V30 10409 C 973.641 0.69268 -3.54802 0
M  V30 10410 O 973.362 -0.442579 -4.35859 0
M  V30 10411 C 974.863 1.35572 -4.2206 0
M  V30 10412 H 972.083 0.0534924 -0.668864 0
M  V30 10413 H 974.627 -0.482515 -1.98726 0
M  V30 10414 H 972.782 1.39297 -3.6149 0
M  V30 10415 H 973.196 -0.105915 -5.24393 0
M  V30 10416 H 974.67 1.60385 -5.28186 0
M  V30 10417 H 975.147 2.30614 -3.73783 0
M  V30 10418 H 975.753 0.697748 -4.19537 0
M  V30 10419 N 974.068 1.57479 -0.061844 0
M  V30 10420 C 975.018 2.0867 0.918749 0
M  V30 10421 C 976.002 0.994174 1.26511 0
M  V30 10422 O 977.194 1.25738 1.24575 0
M  V30 10423 C 974.323 2.64386 2.18986 0
M  V30 10424 C 973.409 3.80626 1.87042 0
M  V30 10425 N 973.8 4.89982 1.25504 0
M  V30 10426 C 972.098 3.89733 2.1685 0
M  V30 10427 C 972.799 5.70928 1.11429 0
M  V30 10428 N 971.775 5.18877 1.62072 0
M  V30 10429 H 975.577 2.90611 0.438469 0
M  V30 10430 H 973.091 1.61775 0.142321 0
M  V30 10431 H 975.088 2.9937 2.90144 0
M  V30 10432 H 973.748 1.83888 2.67611 0
M  V30 10433 H 974.759 5.09556 0.925914 0
M  V30 10434 H 971.436 3.20194 2.67921 0
M  V30 10435 H 972.826 6.68886 0.635665 0
M  V30 10436 N 975.546 -0.211634 1.56173 0
M  V30 10437 C 976.494 -1.28188 1.94089 0
M  V30 10438 C 977.488 -1.47999 0.824167 0
M  V30 10439 O 978.694 -1.49056 1.00907 0
M  V30 10440 H 975.069 -0.42999 0.616938 0
M  V30 10441 H 977.04 -0.934962 2.83374 0
M  V30 10442 C 975.789 -2.62294 2.28248 0
M  V30 10443 H 975.112 -2.4786 3.13696 0
M  V30 10444 H 976.552 -3.35967 2.58655 0
M  V30 10445 C 975.011 -3.18049 1.11113 0
M  V30 10446 O 975.541 -3.99923 0.377458 0
M  V30 10447 N 973.747 -2.76561 0.892321 0
M  V30 10448 H 973.294 -2.10088 1.49067 0
M  V30 10449 H 973.252 -3.14206 0.110344 0
M  V30 10450 N 977.024 -1.50153 -0.478725 0
M  V30 10451 C 977.972 -1.68975 -1.59844 0
M  V30 10452 C 978.966 -0.555591 -1.6003 0
M  V30 10453 O 980.172 -0.735875 -1.64271 0
M  V30 10454 H 976.547 -0.533211 -0.530274 0
M  V30 10455 H 978.518 -2.62917 -1.41128 0
M  V30 10456 C 977.267 -1.79409 -2.97838 0
M  V30 10457 H 976.59 -2.66066 -2.98411 0
M  V30 10458 H 978.03 -1.96606 -3.75662 0
M  V30 10459 C 976.489 -0.543927 -3.3248 0
M  V30 10460 O 977.019 0.320376 -4.0042 0
M  V30 10461 N 975.225 -0.400217 -2.87831 0
M  V30 10462 H 974.772 -1.10458 -2.32716 0
M  V30 10463 H 974.73 0.435111 -3.11375 0
M  V30 10464 N 978.502 0.731368 -1.39602 0
M  V30 10465 C 979.45 1.86676 -1.38761 0
M  V30 10466 C 980.444 1.6723 -0.270247 0
M  V30 10467 O 981.65 1.74528 -0.440471 0
M  V30 10468 H 978.025 0.614553 -0.433391 0
M  V30 10469 H 979.996 1.84501 -2.34525 0
M  V30 10470 C 978.745 3.24394 -1.25155 0
M  V30 10471 H 978.068 3.39955 -2.10406 0
M  V30 10472 H 979.508 4.04019 -1.28625 0
M  V30 10473 C 977.967 3.36877 0.0396976 0
M  V30 10474 O 978.497 3.88833 1.00854 0
M  V30 10475 N 976.703 2.90414 0.103965 0
M  V30 10476 H 976.25 2.48321 -0.685155 0
M  V30 10477 H 976.208 2.99146 0.967435 0
M  V30 10478 N 979.98 1.24838 0.961938 0
M  V30 10479 C 980.928 1.0436 2.07874 0
M  V30 10480 C 981.922 -0.0232531 1.69384 0
M  V30 10481 O 983.128 0.131773 1.79517 0
M  V30 10482 H 979.503 0.320492 0.680286 0
M  V30 10483 H 981.474 1.99055 2.22306 0
M  V30 10484 C 980.223 0.671246 3.41159 0
M  V30 10485 H 979.546 1.48395 3.7124 0
M  V30 10486 H 980.986 0.567608 4.20184 0
M  V30 10487 C 979.445 -0.622124 3.31106 0
M  V30 10488 O 979.975 -1.66627 3.65511 0
M  V30 10489 N 978.181 -0.605009 2.84232 0
M  V30 10490 H 977.728 0.245052 2.56432 0
M  V30 10491 H 977.686 -1.47056 2.77888 0
M  V30 10492 N 981.458 -1.16348 1.06306 0
M  V30 10493 C 982.406 -2.22799 0.668087 0
M  V30 10494 C 983.4 -1.66426 -0.316051 0
M  V30 10495 O 984.606 -1.79089 -0.180902 0
M  V30 10496 H 980.981 -0.725487 0.19792 0
M  V30 10497 H 982.952 -2.53401 1.57577 0
M  V30 10498 C 981.701 -3.47628 0.0706797 0
M  V30 10499 H 981.024 -3.9132 0.819064 0
M  V30 10500 H 982.464 -4.23666 -0.16816 0
M  V30 10501 C 980.923 -3.15343 -1.18577 0
M  V30 10502 O 981.453 -3.31158 -2.27371 0
M  V30 10503 N 979.659 -2.69472 -1.08779 0
M  V30 10504 H 979.206 -2.56803 -0.202447 0
M  V30 10505 H 979.164 -2.48244 -1.92931 0
M  V30 10506 N 982.937 -0.845659 -1.3299 0
M  V30 10507 C 983.885 -0.272412 -2.30999 0
M  V30 10508 C 984.879 0.599311 -1.58444 0
M  V30 10509 O 986.085 0.488117 -1.73255 0
M  V30 10510 H 982.46 -0.0693751 -0.748793 0
M  V30 10511 H 984.431 -1.11343 -2.76849 0
M  V30 10512 C 983.18 0.532019 -3.43606 0
M  V30 10513 H 982.503 -0.129455 -3.9959 0
M  V30 10514 H 983.943 0.898853 -4.14363 0
M  V30 10515 C 982.402 1.71364 -2.90062 0
M  V30 10516 O 982.932 2.81252 -2.8681 0
M  V30 10517 N 981.138 1.53775 -2.4658 0
M  V30 10518 H 980.685 0.643836 -2.49424 0
M  V30 10519 H 980.643 2.32982 -2.11108 0
M  V30 10520 N 984.415 1.45619 -0.602734 0
M  V30 10521 C 985.363 2.32228 0.131484 0
M  V30 10522 C 986.357 1.45681 0.864484 0
M  V30 10523 O 987.563 1.62193 0.7806 0
M  V30 10524 H 983.938 0.7495 0.0612638 0
M  V30 10525 H 985.909 2.91941 -0.617496 0
M  V30 10526 C 984.658 3.29213 1.11866 0
M  V30 10527 H 983.981 3.95801 0.564061 0
M  V30 10528 H 985.421 3.92554 1.60242 0
M  V30 10529 C 983.88 2.56028 2.18978 0
M  V30 10530 O 984.41 2.33806 3.26646 0
M  V30 10531 N 982.616 2.16245 1.94129 0
M  V30 10532 H 982.163 2.34518 1.06579 0
M  V30 10533 H 982.121 1.67601 2.66003 0
M  V30 10534 N 985.893 0.34162 1.53853 0
M  V30 10535 C 986.841 -0.531412 2.26448 0
M  V30 10536 C 987.835 -1.10357 1.28521 0
M  V30 10537 O 989.041 -1.04953 1.46236 0
M  V30 10538 H 985.416 -0.190054 0.727588 0
M  V30 10539 H 987.387 0.102922 2.98222 0
M  V30 10540 C 986.136 -1.67154 3.04885 0
M  V30 10541 H 985.459 -1.24055 3.80066 0
M  V30 10542 H 986.899 -2.25762 3.58898 0
M  V30 10543 C 985.358 -2.59984 2.14266 0
M  V30 10544 O 985.888 -3.62181 1.73746 0
M  V30 10545 N 984.094 -2.28625 1.79385 0
M  V30 10546 H 983.641 -1.45559 2.12533 0
M  V30 10547 H 983.599 -2.90995 1.19035 0
M  V30 10548 N 987.371 -1.57444 0.0701946 0
M  V30 10549 C 988.319 -2.13834 -0.915302 0
M  V30 10550 C 989.313 -1.07483 -1.30934 0
M  V30 10551 O 990.519 -1.25865 -1.28678 0
M  V30 10552 H 986.894 -0.683716 -0.313108 0
M  V30 10553 H 988.865 -2.95503 -0.414758 0
M  V30 10554 C 987.614 -2.71355 -2.17398 0
M  V30 10555 H 986.937 -3.52861 -1.87961 0
M  V30 10556 H 988.377 -3.1441 -2.84469 0
M  V30 10557 C 986.836 -1.66038 -2.93143 0
M  V30 10558 O 987.366 -1.08443 -3.86786 0
M  V30 10559 N 985.572 -1.3711 -2.56221 0
M  V30 10560 H 985.119 -1.84135 -1.80145 0
M  V30 10561 H 985.077 -0.66877 -3.07205 0
M  V30 10562 N 988.849 0.203349 -1.56283 0
M  V30 10563 C 990.074 0.945548 -1.84592 0
M  V30 10564 C 990.499 1.7641 -0.652772 0
M  V30 10565 O 989.857 1.76867 0.398468 0
M  V30 10566 C 989.905 1.82416 -3.11057 0
M  V30 10567 O 989.009 2.92191 -2.9103 0
M  V30 10568 H 988.35 0.266739 -0.608068 0
M  V30 10569 H 990.88 0.211158 -2.03507 0
M  V30 10570 H 990.89 2.23044 -3.41636 0
M  V30 10571 H 989.565 1.22267 -3.97522 0
M  V30 10572 H 988.142 2.55378 -2.71728 0
M  V30 10573 N 990.327 1.50405 0.470755 0
M  V30 10574 C 991.275 1.6982 1.58946 0
M  V30 10575 C 992.269 0.56407 1.59733 0
M  V30 10576 O 993.475 0.744576 1.63878 0
M  V30 10577 H 989.85 0.536016 0.527438 0
M  V30 10578 H 991.821 2.63662 1.39732 0
M  V30 10579 C 990.57 1.80986 2.96883 0
M  V30 10580 H 989.893 2.67645 2.96996 0
M  V30 10581 H 991.333 1.98596 3.74614 0
M  V30 10582 C 989.792 0.561551 3.32187 0
M  V30 10583 O 990.322 -0.299136 4.00585 0
M  V30 10584 N 988.528 0.415476 2.87615 0
M  V30 10585 H 988.075 1.11691 2.32127 0
M  V30 10586 H 988.033 -0.418592 3.11601 0
M  V30 10587 N 991.805 -0.723954 1.39988 0
M  V30 10588 C 993.03 -1.5182 1.41299 0
M  V30 10589 C 993.455 -1.88096 0.0122636 0
M  V30 10590 O 992.813 -1.52687 -0.977559 0
M  V30 10591 C 992.861 -2.77532 2.30235 0
M  V30 10592 O 991.965 -3.73903 1.73984 0
M  V30 10593 H 991.306 -0.458058 0.480707 0
M  V30 10594 H 993.836 -0.892291 1.84118 0
M  V30 10595 H 993.846 -3.2615 2.45132 0
M  V30 10596 H 992.521 -2.50462 3.32026 0
M  V30 10597 H 991.098 -3.32715 1.68389 0
M  V30 10598 N 993.283 -1.25346 -0.955304 0
M  V30 10599 C 994.529 -1.10218 -1.70235 0
M  V30 10600 C 994.862 0.356124 -1.90907 0
M  V30 10601 O 994.137 1.26253 -1.47954 0
M  V30 10602 C 994.42 -1.85627 -3.08569 0
M  V30 10603 C 994.273 -3.39281 -2.95311 0
M  V30 10604 C 995.592 -1.63886 -4.08448 0
M  V30 10605 H 992.711 -0.401781 -0.617852 0
M  V30 10606 H 995.353 -1.5417 -1.11048 0
M  V30 10607 H 993.503 -1.48269 -3.59094 0
M  V30 10608 H 995.175 -3.8631 -2.52116 0
M  V30 10609 H 993.418 -3.67027 -2.31244 0
M  V30 10610 H 994.089 -3.87258 -3.93364 0
M  V30 10611 H 996.565 -1.96406 -3.6683 0
M  V30 10612 H 995.441 -2.19087 -5.03281 0
M  V30 10613 H 995.702 -0.580021 -4.38279 0
M  V30 10614 N 994.761 1.15782 -1.06922 0
M  V30 10615 C 996.172 1.68062 -0.813144 0
M  V30 10616 C 996.523 1.84681 0.662374 0
M  V30 10617 O 995.648 1.54696 1.51321 0
M  V30 10618 C 996.243 3.05273 -1.46949 0
M  V30 10619 C 994.802 3.54647 -1.26104 0
M  V30 10620 C 993.949 2.30477 -1.54194 0
M  V30 10621 H 996.9 1.00056 -1.23185 0
M  V30 10622 H 996.921 3.69986 -0.888308 0
M  V30 10623 H 996.433 2.93145 -2.54337 0
M  V30 10624 H 994.534 3.72024 -0.20718 0
M  V30 10625 H 994.647 4.36354 -1.97819 0
M  V30 10626 H 993.011 2.35803 -0.96276 0
M  V30 10627 H 993.794 2.2094 -2.62755 0
M  V30 10628 N 996.239 0.8527 1.3254 0
M  V30 10629 C 997.464 0.468157 2.02047 0
M  V30 10630 C 997.889 -0.926967 1.63673 0
M  V30 10631 O 997.247 -1.60855 0.836378 0
M  V30 10632 C 997.295 0.612519 3.5536 0
M  V30 10633 O 996.399 -0.355506 4.10865 0
M  V30 10634 H 995.74 0.188401 0.636711 0
M  V30 10635 H 998.27 1.15135 1.6913 0
M  V30 10636 H 998.28 0.499315 4.04933 0
M  V30 10637 H 996.955 1.62988 3.82632 0
M  V30 10638 H 995.532 -0.198703 3.7237 0
M  V30 10639 N 997.718 -1.45297 0.610449 0
M  V30 10640 C 998.628 -2.34349 -0.108475 0
M  V30 10641 C 999.644 -1.51409 -0.857397 0
M  V30 10642 O 1000.82 -1.84202 -0.814337 0
M  V30 10643 C 997.885 -3.29072 -1.09144 0
M  V30 10644 C 996.946 -4.27918 -0.344165 0
M  V30 10645 C 996.179 -5.18116 -1.28031 0
M  V30 10646 O 996.402 -5.11802 -2.51824 0
M  V30 10647 O 995.336 -5.96879 -0.775821 0
M  V30 10648 H 999.162 -2.97232 0.623421 0
M  V30 10649 H 996.747 -1.44728 0.3707 0
M  V30 10650 H 998.629 -3.87433 -1.65751 0
M  V30 10651 H 997.304 -2.68749 -1.80431 0
M  V30 10652 H 996.211 -3.73164 0.264437 0
M  V30 10653 H 997.544 -4.91104 0.328275 0
M  V30 10654 N 999.196 -0.349774 -1.5367 0
M  V30 10655 C 1000.44 0.245095 -2.02925 0
M  V30 10656 C 1000.8 1.4727 -1.23189 0
M  V30 10657 O 1002 2.14215 -1.62374 0
M  V30 10658 C 1000.27 0.545392 -3.53214 0
M  V30 10659 S 1001.83 1.11619 -4.24366 0
M  V30 10660 H 998.649 0.0725368 -0.70729 0
M  V30 10661 H 1001.25 -0.488979 -1.89286 0
M  V30 10662 H 999.955 -0.355786 -4.08855 0
M  V30 10663 H 999.486 1.30897 -3.70985 0
M  V30 10664 H 1001.5 2.40151 -4.34214 0
M  V30 10665 N 1000.67 1.57404 -0.0785433 0
M  V30 10666 C 1001.92 1.9292 0.588626 0
M  V30 10667 C 1002.24 0.961106 1.70359 0
M  V30 10668 O 1003.44 1.20934 2.43079 0
M  V30 10669 C 1001.9 3.42729 1.09839 0
M  V30 10670 C 1001.51 4.47998 0.0140773 0
M  V30 10671 C 1003.25 3.87235 1.73924 0
M  V30 10672 C 1001.16 5.88945 0.538269 0
M  V30 10673 H 1000.09 0.720069 0.223645 0
M  V30 10674 H 1002.74 1.8287 -0.15187 0
M  V30 10675 H 1001.12 3.47875 1.89207 0
M  V30 10676 H 1002.29 4.54476 -0.760773 0
M  V30 10677 H 1000.61 4.13001 -0.53095 0
M  V30 10678 H 1003.21 4.89927 2.14186 0
M  V30 10679 H 1003.55 3.24971 2.60191 0
M  V30 10680 H 1004.08 3.84721 1.01168 0
M  V30 10681 H 1000.82 6.5487 -0.287395 0
M  V30 10682 H 1000.34 5.85972 1.28049 0
M  V30 10683 H 1002.02 6.39028 1.01253 0
M  V30 10684 N 1002.15 -0.195058 1.56388 0
M  V30 10685 C 1003.38 -0.935745 1.85091 0
M  V30 10686 C 1003.8 -1.76061 0.662118 0
M  V30 10687 O 1003.16 -1.77076 -0.389083 0
M  V30 10688 C 1003.21 -1.80764 3.1202 0
M  V30 10689 O 1002.31 -2.90643 2.92575 0
M  V30 10690 H 1001.65 -0.26351 0.609474 0
M  V30 10691 H 1004.18 -0.200362 2.03617 0
M  V30 10692 H 1004.19 -2.21229 3.42815 0
M  V30 10693 H 1002.87 -1.20157 3.98165 0
M  V30 10694 H 1001.44 -2.53934 2.73079 0
M  V30 10695 N 1003.63 -1.50653 -0.462772 0
M  V30 10696 C 1004.85 -1.66103 -1.24196 0
M  V30 10697 C 1005.28 -0.347421 -1.84864 0
M  V30 10698 O 1004.64 0.689673 -1.6767 0
M  V30 10699 C 1004.69 -2.76027 -2.32037 0
M  V30 10700 O 1003.79 -2.37859 -3.36893 0
M  V30 10701 H 1003.13 -0.554672 -0.365014 0
M  V30 10702 H 1005.66 -1.97076 -0.549734 0
M  V30 10703 H 1005.67 -2.99354 -2.77221 0
M  V30 10704 H 1004.35 -3.71361 -1.87253 0
M  V30 10705 H 1002.92 -2.2501 -2.97363 0
M  V30 10706 N 1005.11 0.71652 -1.4037 0
M  V30 10707 C 1006.35 1.47736 -1.39805 0
M  V30 10708 C 1006.71 1.924 0.000340438 0
M  V30 10709 O 1006 1.652 0.970547 0
M  V30 10710 C 1006.2 2.71777 -2.32103 0
M  V30 10711 C 1006.03 2.39245 -3.80778 0
M  V30 10712 C 1004.8 2.30632 -4.49597 0
M  V30 10713 C 1006.99 2.03576 -4.72294 0
M  V30 10714 N 1004.98 1.90764 -5.83509 0
M  V30 10715 C 1006.35 1.74302 -5.94995 0
M  V30 10716 C 1008.4 1.90204 -4.60138 0
M  V30 10717 C 1007.1 1.33001 -7.06897 0
M  V30 10718 C 1009.13 1.50307 -5.71981 0
M  V30 10719 C 1008.49 1.2193 -6.93767 0
M  V30 10720 H 1004.59 0.538721 -0.566836 0
M  V30 10721 H 1007.18 0.831018 -1.76074 0
M  V30 10722 H 1005.35 3.34163 -1.97963 0
M  V30 10723 H 1007.08 3.38112 -2.22402 0
M  V30 10724 H 1003.83 2.48341 -4.03266 0
M  V30 10725 H 1004.26 1.73372 -6.54424 0
M  V30 10726 H 1008.9 2.10805 -3.66499 0
M  V30 10727 H 1006.62 1.11143 -8.0042 0
M  V30 10728 H 1010.2 1.4054 -5.6457 0
M  V30 10729 H 1009.08 0.915214 -7.78841 0
M  V30 10730 N 1006.59 1.25851 0.948643 0
M  V30 10731 C 1008 1.02802 1.22081 0
M  V30 10732 C 1008.2 -0.251461 1.99925 0
M  V30 10733 O 1007.26 -0.962592 2.33432 0
M  V30 10734 C 1008.57 2.25489 1.98936 0
M  V30 10735 C 1010.12 2.30312 2.11956 0
M  V30 10736 C 1010.59 3.52671 2.92211 0
M  V30 10737 N 1012.09 3.53103 2.99787 0
M  V30 10738 C 1012.82 4.44445 3.62294 0
M  V30 10739 N 1012.32 5.46065 4.26362 0
M  V30 10740 N 1014.11 4.32113 3.59493 0
M  V30 10741 H 1006.26 2.08042 0.428044 0
M  V30 10742 H 1008.52 0.913928 0.251872 0
M  V30 10743 H 1008.23 3.18513 1.4914 0
M  V30 10744 H 1008.1 2.2914 2.99624 0
M  V30 10745 H 1010.49 1.37808 2.60946 0
M  V30 10746 H 1010.57 2.30676 1.10554 0
M  V30 10747 H 1010.22 4.45501 2.43909 0
M  V30 10748 H 1010.15 3.49554 3.93853 0
M  V30 10749 H 1012.64 2.79597 2.54232 0
M  V30 10750 H 1012.95 6.11964 4.71932 0
M  V30 10751 H 1011.29 5.49931 4.24972 0
M  V30 10752 H 1014.49 3.51946 3.08629 0
M  V30 10753 H 1014.66 5.03493 4.0792 0
M  V30 10754 N 1008.06 -1.15214 1.07534 0
M  V30 10755 C 1009.01 -2.22078 0.69168 0
M  V30 10756 C 1010.01 -1.66751 -0.298382 0
M  V30 10757 O 1011.21 -1.7927 -0.161897 0
M  V30 10758 H 1007.59 -0.723347 0.205604 0
M  V30 10759 H 1009.56 -2.51716 1.60256 0
M  V30 10760 C 1008.31 -3.47534 0.107546 0
M  V30 10761 H 1007.63 -3.90429 0.860522 0
M  V30 10762 H 1009.07 -4.23821 -0.123215 0
M  V30 10763 C 1007.53 -3.16583 -1.15226 0
M  V30 10764 O 1008.06 -3.33551 -2.23845 0
M  V30 10765 N 1006.27 -2.70611 -1.05915 0
M  V30 10766 H 1005.81 -2.57004 -0.175198 0
M  V30 10767 H 1005.77 -2.50277 -1.90287 0
M  V30 10768 N 1009.54 -0.859717 -1.32086 0
M  V30 10769 C 1010.45 -0.31108 -2.32528 0
M  V30 10770 C 1011.47 0.573714 -1.6427 0
M  V30 10771 O 1012.64 0.472878 -1.9577 0
M  V30 10772 C 1009.71 0.487256 -3.43259 0
M  V30 10773 C 1008.77 -0.424279 -4.27198 0
M  V30 10774 C 1008 0.336051 -5.32641 0
M  V30 10775 O 1008.23 1.56541 -5.48499 0
M  V30 10776 O 1007.16 -0.300777 -6.01148 0
M  V30 10777 H 1010.99 -1.14336 -2.81355 0
M  V30 10778 H 1008.57 -0.622794 -1.358 0
M  V30 10779 H 1010.45 0.940203 -4.10777 0
M  V30 10780 H 1009.13 1.29626 -2.96612 0
M  V30 10781 H 1008.04 -0.925509 -3.62471 0
M  V30 10782 H 1009.37 -1.1986 -4.77383 0
M  V30 10783 N 1011.02 1.44971 -0.618145 0
M  V30 10784 C 1012.26 2.04044 -0.120625 0
M  V30 10785 C 1012.62 1.47472 1.22947 0
M  V30 10786 O 1013.83 1.97965 1.81834 0
M  V30 10787 C 1012.1 3.57279 -0.0930863 0
M  V30 10788 S 1013.66 4.37468 0.341705 0
M  V30 10789 H 1010.47 0.708891 -0.0547272 0
M  V30 10790 H 1013.08 1.77535 -0.818621 0
M  V30 10791 H 1011.78 3.95961 -1.07903 0
M  V30 10792 H 1011.31 3.88378 0.62657 0
M  V30 10793 H 1013.33 4.70073 1.58888 0
M  V30 10794 N 1012.5 0.357919 1.53482 0
M  V30 10795 C 1013.45 -0.49217 2.25491 0
M  V30 10796 C 1014.42 -1.08382 1.25867 0
M  V30 10797 O 1015.6 -1.11775 1.54632 0
M  V30 10798 C 1012.74 -1.6299 3.04185 0
M  V30 10799 C 1011.85 -1.06416 4.18688 0
M  V30 10800 C 1010.99 -2.17037 4.84839 0
M  V30 10801 C 1010.03 -1.57889 5.91386 0
M  V30 10802 N 1009.16 -2.6231 6.51259 0
M  V30 10803 H 1014 0.128412 2.97723 0
M  V30 10804 H 1011.54 0.0751423 1.46908 0
M  V30 10805 H 1013.5 -2.29993 3.48079 0
M  V30 10806 H 1012.13 -2.22125 2.34223 0
M  V30 10807 H 1011.18 -0.284635 3.79334 0
M  V30 10808 H 1012.49 -0.591654 4.95279 0
M  V30 10809 H 1011.65 -2.91876 5.31877 0
M  V30 10810 H 1010.39 -2.67636 4.07703 0
M  V30 10811 H 1009.39 -0.815605 5.43717 0
M  V30 10812 H 1010.62 -1.08123 6.70437 0
M  V30 10813 H 1008.56 -3.12137 5.7698 0
M  V30 10814 H 1008.48 -2.19724 7.23365 0
M  V30 10815 H 1009.75 -3.36875 7.02948 0
M  V30 10816 N 1013.98 -1.5736 0.0868897 0
M  V30 10817 C 1014.91 -2.10582 -0.904858 0
M  V30 10818 C 1015.92 -1.04124 -1.25148 0
M  V30 10819 O 1017.11 -1.31595 -1.20603 0
M  V30 10820 C 1014.21 -2.56381 -2.21635 0
M  V30 10821 C 1013.38 -3.86581 -2.04631 0
M  V30 10822 C 1012.44 -4.18313 -3.19219 0
M  V30 10823 O 1011.47 -4.87669 -2.93544 0
M  V30 10824 N 1012.67 -3.73061 -4.44754 0
M  V30 10825 H 1015.44 -2.96297 -0.450352 0
M  V30 10826 H 1013 -1.616 -0.0984376 0
M  V30 10827 H 1014.99 -2.7466 -2.97227 0
M  V30 10828 H 1013.56 -1.75721 -2.58536 0
M  V30 10829 H 1012.78 -3.77532 -1.13417 0
M  V30 10830 H 1014.07 -4.71777 -1.90537 0
M  V30 10831 H 1013.46 -3.1706 -4.68497 0
M  V30 10832 H 1012.02 -3.96511 -5.17322 0
M  V30 10833 N 1015.45 0.186762 -1.56489 0
M  V30 10834 C 1016.7 0.904077 -1.80303 0
M  V30 10835 C 1017.02 1.84073 -0.661538 0
M  V30 10836 O 1018.22 2.59928 -0.784197 0
M  V30 10837 C 1016.68 1.65806 -3.19432 0
M  V30 10838 C 1016.29 0.765807 -4.41406 0
M  V30 10839 C 1018.03 2.36451 -3.52549 0
M  V30 10840 C 1015.94 1.51913 -5.71556 0
M  V30 10841 H 1014.87 0.34133 -0.672317 0
M  V30 10842 H 1017.52 0.157218 -1.82825 0
M  V30 10843 H 1015.9 2.44911 -3.11183 0
M  V30 10844 H 1017.07 0.0128225 -4.60798 0
M  V30 10845 H 1015.39 0.169772 -4.16054 0
M  V30 10846 H 1017.99 2.93378 -4.47027 0
M  V30 10847 H 1018.33 3.11044 -2.7669 0
M  V30 10848 H 1018.86 1.64305 -3.62283 0
M  V30 10849 H 1015.6 0.815829 -6.50403 0
M  V30 10850 H 1015.12 2.24583 -5.56168 0
M  V30 10851 H 1016.8 2.07073 -6.12968 0
M  V30 10852 N 1016.93 1.50896 0.454776 0
M  V30 10853 C 1017.88 1.70947 1.55067 0
M  V30 10854 C 1018.85 0.550899 1.56698 0
M  V30 10855 O 1020.03 0.783352 1.73978 0
M  V30 10856 C 1017.17 1.82455 2.92924 0
M  V30 10857 C 1016.29 3.09919 3.00956 0
M  V30 10858 C 1015.42 3.12125 4.29827 0
M  V30 10859 C 1014.46 4.33975 4.31662 0
M  V30 10860 N 1013.6 4.33828 5.5203 0
M  V30 10861 H 1018.44 2.645 1.37273 0
M  V30 10862 H 1015.98 1.31101 0.667148 0
M  V30 10863 H 1017.93 1.87108 3.72889 0
M  V30 10864 H 1016.56 0.92327 3.09315 0
M  V30 10865 H 1015.62 3.14659 2.13761 0
M  V30 10866 H 1016.93 3.99869 2.98172 0
M  V30 10867 H 1016.08 3.15598 5.18154 0
M  V30 10868 H 1014.82 2.20033 4.35243 0
M  V30 10869 H 1013.83 4.30697 3.41731 0
M  V30 10870 H 1015.05 5.27312 4.27924 0
M  V30 10871 H 1013 3.44598 5.58201 0
M  V30 10872 H 1012.91 5.17566 5.51055 0
M  V30 10873 H 1014.18 4.4147 6.42437 0
M  V30 10874 N 1018.41 -0.709066 1.40748 0
M  V30 10875 C 1019.66 -1.4646 1.38681 0
M  V30 10876 C 1019.97 -1.95599 -0.0056209 0
M  V30 10877 O 1021.18 -2.71091 -0.148907 0
M  V30 10878 C 1019.63 -2.64771 2.43771 0
M  V30 10879 C 1019.24 -2.22474 3.88856 0
M  V30 10880 C 1020.99 -3.42475 2.50821 0
M  V30 10881 C 1018.89 -3.37663 4.85528 0
M  V30 10882 H 1017.82 -0.550084 0.515678 0
M  V30 10883 H 1020.47 -0.771074 1.66513 0
M  V30 10884 H 1018.86 -3.36325 2.09048 0
M  V30 10885 H 1020.03 -1.58297 4.32757 0
M  V30 10886 H 1018.35 -1.57798 3.85342 0
M  V30 10887 H 1020.94 -4.28201 3.20232 0
M  V30 10888 H 1021.29 -3.86738 1.54076 0
M  V30 10889 H 1021.82 -2.77969 2.84567 0
M  V30 10890 H 1018.56 -2.98426 5.83628 0
M  V30 10891 H 1018.08 -4.00734 4.46287 0
M  V30 10892 H 1019.76 -4.03636 5.05655 0
M  V30 10893 N 1019.89 -1.26353 -0.941956 0
M  V30 10894 C 1021.14 -1.11241 -1.68251 0
M  V30 10895 C 1021.45 0.344055 -1.9255 0
M  V30 10896 O 1022.66 0.615832 -2.64423 0
M  V30 10897 C 1021.11 -1.94269 -3.02965 0
M  V30 10898 C 1020.72 -3.44485 -2.86415 0
M  V30 10899 C 1022.47 -1.87764 -3.80716 0
M  V30 10900 C 1020.37 -4.19763 -4.16597 0
M  V30 10901 H 1019.3 -0.412694 -0.63103 0
M  V30 10902 H 1021.95 -1.50656 -1.04762 0
M  V30 10903 H 1020.34 -1.47687 -3.6743 0
M  V30 10904 H 1021.51 -3.9883 -2.30805 0
M  V30 10905 H 1019.82 -3.52218 -2.22107 0
M  V30 10906 H 1022.42 -2.41292 -4.77161 0
M  V30 10907 H 1022.76 -0.848195 -4.07568 0
M  V30 10908 H 1023.3 -2.32165 -3.23024 0
M  V30 10909 H 1020.04 -5.23173 -3.9493 0
M  V30 10910 H 1019.56 -3.70198 -4.71925 0
M  V30 10911 H 1021.24 -4.28168 -4.85058 0
M  V30 10912 N 1021.37 1.14642 -1.08144 0
M  V30 10913 C 1022.28 2.23257 -0.720668 0
M  V30 10914 C 1023.29 1.71866 0.271648 0
M  V30 10915 O 1024.47 2.01064 0.116266 0
M  V30 10916 C 1021.53 3.46447 -0.132542 0
M  V30 10917 C 1020.6 4.12789 -1.17913 0
M  V30 10918 C 1019.83 5.30099 -0.618971 0
M  V30 10919 O 1020.05 5.6762 0.562418 0
M  V30 10920 O 1018.99 5.86154 -1.36774 0
M  V30 10921 H 1022.81 2.56463 -1.62667 0
M  V30 10922 H 1020.4 1.22521 -0.854932 0
M  V30 10923 H 1022.28 4.20959 0.19277 0
M  V30 10924 H 1020.95 3.14971 0.746662 0
M  V30 10925 H 1019.86 3.40163 -1.55693 0
M  V30 10926 H 1021.19 4.48365 -2.03051 0
M  V30 10927 N 1022.85 0.866709 1.31628 0
M  V30 10928 C 1024.09 0.476026 1.96825 0
M  V30 10929 C 1024.42 -0.970994 1.68529 0
M  V30 10930 O 1023.68 -1.69823 0.97255 0
M  V30 10931 C 1023.97 0.676018 3.50948 0
M  V30 10932 C 1023.64 2.09533 3.99258 0
M  V30 10933 C 1022.3 2.48349 4.1216 0
M  V30 10934 C 1024.65 3.02112 4.24709 0
M  V30 10935 C 1021.98 3.78991 4.47864 0
M  V30 10936 C 1024.33 4.32266 4.61875 0
M  V30 10937 C 1023 4.71 4.72985 0
M  V30 10938 H 1022.27 0.17419 0.720235 0
M  V30 10939 H 1024.92 1.09907 1.5682 0
M  V30 10940 H 1023.22 -0.0301867 3.91788 0
M  V30 10941 H 1024.92 0.353604 3.99438 0
M  V30 10942 H 1021.51 1.78396 3.89709 0
M  V30 10943 H 1025.69 2.73351 4.14238 0
M  V30 10944 H 1020.95 4.08769 4.54663 0
M  V30 10945 H 1025.12 5.04055 4.80522 0
M  V30 10946 H 1022.75 5.72273 5.00407 0
M  V30 10947 N 1024.32 -1.44642 0.625825 0
M  V30 10948 C 1025.55 -2.06458 0.135116 0
M  V30 10949 C 1025.97 -1.46729 -1.18811 0
M  V30 10950 O 1025.32 -0.58818 -1.72762 0
M  V30 10951 C 1025.37 -3.61499 0.00850114 0
M  V30 10952 O 1025.1 -4.19002 1.2794 0
M  V30 10953 C 1026.6 -4.40339 -0.511527 0
M  V30 10954 H 1023.82 -0.666541 0.0772294 0
M  V30 10955 H 1026.36 -1.85597 0.858726 0
M  V30 10956 H 1024.52 -3.81641 -0.665522 0
M  V30 10957 H 1024.93 -5.12385 1.12081 0
M  V30 10958 H 1026.4 -5.49262 -0.549149 0
M  V30 10959 H 1026.88 -4.11409 -1.53752 0
M  V30 10960 H 1027.49 -4.25104 0.129066 0
M  V30 10961 N 1025.8 -0.366053 -1.5329 0
M  V30 10962 C 1027.22 -0.0150149 -1.59593 0
M  V30 10963 C 1027.42 1.46719 -1.38116 0
M  V30 10964 O 1026.47 2.22884 -1.18656 0
M  V30 10965 C 1027.79 -0.471374 -2.96982 0
M  V30 10966 C 1029.33 -0.425634 -3.10092 0
M  V30 10967 C 1029.81 -0.857812 -4.49895 0
M  V30 10968 N 1031.3 -0.81289 -4.56011 0
M  V30 10969 C 1032.04 -1.11898 -5.62376 0
M  V30 10970 N 1031.53 -1.49436 -6.76491 0
M  V30 10971 N 1033.32 -1.04174 -5.52362 0
M  V30 10972 H 1025.48 -1.33127 -1.65502 0
M  V30 10973 H 1027.74 -0.544172 -0.776261 0
M  V30 10974 H 1027.44 -1.50569 -3.1784 0
M  V30 10975 H 1027.32 0.141764 -3.76934 0
M  V30 10976 H 1029.71 0.599548 -2.88945 0
M  V30 10977 H 1029.79 -1.07427 -2.32149 0
M  V30 10978 H 1029.43 -1.88111 -4.7178 0
M  V30 10979 H 1029.36 -0.186419 -5.2627 0
M  V30 10980 H 1031.85 -0.536343 -3.74075 0
M  V30 10981 H 1032.16 -1.71217 -7.53594 0
M  V30 10982 H 1030.51 -1.53302 -6.77882 0
M  V30 10983 H 1033.7 -0.747654 -4.62091 0
M  V30 10984 H 1033.87 -1.28362 -6.35159 0
M  V30 10985 N 1027.28 1.57312 -0.0952337 0
M  V30 10986 C 1028.19 2.17556 0.877877 0
M  V30 10987 C 1029.21 1.14505 1.31014 0
M  V30 10988 O 1030.38 1.46876 1.37802 0
M  V30 10989 C 1027.45 2.74413 2.11892 0
M  V30 10990 C 1026.51 3.92419 1.74085 0
M  V30 10991 C 1025.74 4.46556 2.92273 0
M  V30 10992 O 1025.96 3.99631 4.07002 0
M  V30 10993 O 1024.9 5.37576 2.70732 0
M  V30 10994 H 1028.72 3.01116 0.395312 0
M  V30 10995 H 1026.31 1.48841 0.129123 0
M  V30 10996 H 1028.19 3.10754 2.84622 0
M  V30 10997 H 1026.87 1.93899 2.59201 0
M  V30 10998 H 1025.77 3.6089 0.985346 0
M  V30 10999 H 1027.11 4.74298 1.31539 0
M  V30 11000 N 1028.76 -0.17846 1.56586 0
M  V30 11001 C 1030.17 -0.529957 1.50544 0
M  V30 11002 C 1030.37 -1.85015 0.798237 0
M  V30 11003 O 1029.43 -2.49983 0.355639 0
M  V30 11004 C 1030.74 -0.569314 2.95261 0
M  V30 11005 C 1032.29 -0.657008 3.06027 0
M  V30 11006 C 1032.77 -0.727323 4.52188 0
M  V30 11007 N 1034.26 -0.790406 4.56406 0
M  V30 11008 C 1034.99 -0.865265 5.66834 0
M  V30 11009 N 1034.49 -0.901398 6.86911 0
M  V30 11010 N 1036.28 -0.903736 5.54787 0
M  V30 11011 H 1028.43 0.687304 2.00972 0
M  V30 11012 H 1030.69 0.246936 0.915274 0
M  V30 11013 H 1030.4 0.331934 3.5013 0
M  V30 11014 H 1030.27 -1.41828 3.4952 0
M  V30 11015 H 1032.66 -1.54868 2.51197 0
M  V30 11016 H 1032.74 0.218495 2.54865 0
M  V30 11017 H 1032.39 0.160067 5.07648 0
M  V30 11018 H 1032.32 -1.61887 5.01099 0
M  V30 11019 H 1034.81 -0.771054 3.6995 0
M  V30 11020 H 1035.12 -0.959494 7.6682 0
M  V30 11021 H 1033.47 -0.869795 6.89536 0
M  V30 11022 H 1036.66 -0.872459 4.59898 0
M  V30 11023 H 1036.83 -0.958615 6.4087 0
M  V30 11024 N 1030.24 -1.51135 -0.446768 0
M  V30 11025 C 1031.18 -1.71767 -1.54158 0
M  V30 11026 C 1032.15 -0.559201 -1.56404 0
M  V30 11027 O 1033.34 -0.792567 -1.7356 0
M  V30 11028 C 1030.48 -1.84006 -2.91952 0
M  V30 11029 C 1029.59 -3.11511 -2.99308 0
M  V30 11030 C 1028.73 -3.144 -4.28166 0
M  V30 11031 C 1027.76 -4.36258 -4.29355 0
M  V30 11032 N 1026.9 -4.3675 -5.49722 0
M  V30 11033 H 1031.74 -2.65224 -1.35869 0
M  V30 11034 H 1029.28 -1.31453 -0.660186 0
M  V30 11035 H 1031.24 -1.89083 -3.71892 0
M  V30 11036 H 1029.87 -0.939661 -3.08821 0
M  V30 11037 H 1028.92 -3.15788 -2.12089 0
M  V30 11038 H 1030.23 -4.01445 -2.96047 0
M  V30 11039 H 1029.38 -3.18341 -5.16473 0
M  V30 11040 H 1028.12 -2.22338 -4.3407 0
M  V30 11041 H 1027.13 -4.32503 -3.39442 0
M  V30 11042 H 1028.35 -5.29574 -4.25122 0
M  V30 11043 H 1026.3 -3.47554 -5.56365 0
M  V30 11044 H 1026.22 -5.20481 -5.48302 0
M  V30 11045 H 1027.48 -4.4487 -6.40086 0
M  V30 11046 N 1031.71 0.701592 -1.41122 0
M  V30 11047 C 1032.64 1.82815 -1.45262 0
M  V30 11048 C 1033.62 1.67215 -0.311939 0
M  V30 11049 O 1034.81 1.87038 -0.522538 0
M  V30 11050 C 1031.94 3.20899 -1.32819 0
M  V30 11051 C 1030.89 3.51194 -2.44636 0
M  V30 11052 C 1030.22 4.8857 -2.17263 0
M  V30 11053 C 1031.52 3.50777 -3.86979 0
M  V30 11054 H 1033.21 1.79608 -2.39544 0
M  V30 11055 H 1030.76 0.862693 -1.15298 0
M  V30 11056 H 1032.71 3.99417 -1.34329 0
M  V30 11057 H 1031.44 3.24717 -0.350191 0
M  V30 11058 H 1030.1 2.75024 -2.42399 0
M  V30 11059 H 1029.74 4.89007 -1.17819 0
M  V30 11060 H 1029.44 5.09805 -2.92186 0
M  V30 11061 H 1030.97 5.69405 -2.20478 0
M  V30 11062 H 1032.38 4.19309 -3.90964 0
M  V30 11063 H 1030.78 3.83542 -4.61536 0
M  V30 11064 H 1031.85 2.49873 -4.15562 0
M  V30 11065 N 1033.19 1.2685 0.935242 0
M  V30 11066 C 1034.12 1.03244 2.03509 0
M  V30 11067 C 1035.1 -0.0447323 1.62538 0
M  V30 11068 O 1036.29 0.0988905 1.8824 0
M  V30 11069 C 1033.41 0.564626 3.33961 0
M  V30 11070 C 1032.46 1.63524 3.93906 0
M  V30 11071 S 1033.29 3.22577 4.27439 0
M  V30 11072 C 1034.45 2.77579 5.60982 0
M  V30 11073 H 1034.68 1.96367 2.2322 0
M  V30 11074 H 1032.21 1.10597 1.07739 0
M  V30 11075 H 1034.17 0.301388 4.09392 0
M  V30 11076 H 1032.83 -0.346419 3.12184 0
M  V30 11077 H 1032.03 1.25905 4.8802 0
M  V30 11078 H 1031.63 1.85017 3.25031 0
M  V30 11079 H 1033.92 2.22412 6.39952 0
M  V30 11080 H 1034.86 3.70408 6.03493 0
M  V30 11081 H 1035.27 2.16956 5.21143 0
M  V30 11082 N 1034.67 -1.14067 1.0875 0
M  V30 11083 C 1035.9 -1.89582 0.841038 0
M  V30 11084 C 1036.32 -1.78226 -0.601436 0
M  V30 11085 O 1035.68 -1.12491 -1.42181 0
M  V30 11086 C 1035.73 -3.37415 1.27213 0
M  V30 11087 O 1034.83 -4.10191 0.426246 0
M  V30 11088 H 1034.17 -0.589716 0.305173 0
M  V30 11089 H 1036.7 -1.44364 1.44984 0
M  V30 11090 H 1036.71 -3.88234 1.25451 0
M  V30 11091 H 1035.39 -3.44999 2.32268 0
M  V30 11092 H 1033.96 -3.69429 0.507585 0
M  V30 11093 N 1036.15 -0.873678 -1.31166 0
M  V30 11094 C 1037.39 -0.487178 -1.96861 0
M  V30 11095 C 1037.73 0.95887 -1.68877 0
M  V30 11096 O 1037 1.6758 -0.987279 0
M  V30 11097 C 1037.29 -0.74925 -3.52219 0
M  V30 11098 C 1037.14 -2.2451 -3.89763 0
M  V30 11099 C 1038.46 -0.218194 -4.39559 0
M  V30 11100 H 1035.58 -0.178477 -0.715063 0
M  V30 11101 H 1038.22 -1.0956 -1.55231 0
M  V30 11102 H 1036.37 -0.231403 -3.8781 0
M  V30 11103 H 1038.04 -2.83049 -3.64254 0
M  V30 11104 H 1036.28 -2.71621 -3.38237 0
M  V30 11105 H 1036.95 -2.37911 -4.98099 0
M  V30 11106 H 1039.43 -0.661274 -4.10812 0
M  V30 11107 H 1038.31 -0.430983 -5.47205 0
M  V30 11108 H 1038.57 0.880056 -4.33252 0
M  V30 11109 N 1037.63 1.44308 -0.633487 0
M  V30 11110 C 1038.88 2.01239 -0.136356 0
M  V30 11111 C 1039.19 1.50438 1.25011 0
M  V30 11112 O 1040.39 1.99513 1.84138 0
M  V30 11113 C 1038.85 3.59382 -0.193011 0
M  V30 11114 C 1038.46 4.19178 -1.58093 0
M  V30 11115 C 1040.2 4.23778 0.247534 0
M  V30 11116 C 1038.11 5.69553 -1.59258 0
M  V30 11117 H 1037.04 0.752521 -0.0472109 0
M  V30 11118 H 1039.69 1.65498 -0.79263 0
M  V30 11119 H 1038.07 3.92432 0.530408 0
M  V30 11120 H 1039.25 3.97662 -2.32813 0
M  V30 11121 H 1037.56 3.67079 -1.96576 0
M  V30 11122 H 1040.16 5.34075 0.258401 0
M  V30 11123 H 1040.5 3.96285 1.27529 0
M  V30 11124 H 1041.03 3.9554 -0.423469 0
M  V30 11125 H 1037.77 6.01784 -2.59878 0
M  V30 11126 H 1037.29 5.93185 -0.888352 0
M  V30 11127 H 1038.97 6.33234 -1.32756 0
M  V30 11128 N 1039.1 0.374177 1.53094 0
M  V30 11129 C 1040.35 -0.213131 2.01677 0
M  V30 11130 C 1040.68 -1.47715 1.26071 0
M  V30 11131 O 1039.96 -1.91199 0.356834 0
M  V30 11132 C 1040.24 -0.496392 3.56662 0
M  V30 11133 C 1040.09 0.781859 4.42953 0
M  V30 11134 C 1041.41 -1.29339 4.20666 0
M  V30 11135 H 1038.53 -0.0759885 0.733072 0
M  V30 11136 H 1041.17 0.500765 1.83282 0
M  V30 11137 H 1039.32 -1.10455 3.72467 0
M  V30 11138 H 1041 1.41914 4.38928 0
M  V30 11139 H 1039.24 1.40041 4.10574 0
M  V30 11140 H 1039.91 0.538508 5.49367 0
M  V30 11141 H 1042.39 -0.778848 4.08746 0
M  V30 11142 H 1041.26 -1.46033 5.29118 0
M  V30 11143 H 1041.52 -2.30435 3.77296 0
M  V30 11144 N 1040.58 -1.57259 0.103575 0
M  V30 11145 C 1041.49 -2.18018 -0.866327 0
M  V30 11146 C 1042.51 -1.15198 -1.30404 0
M  V30 11147 O 1043.68 -1.47605 -1.37021 0
M  V30 11148 C 1040.75 -2.75533 -2.10434 0
M  V30 11149 C 1039.81 -3.93337 -1.72002 0
M  V30 11150 C 1039.04 -4.481 -2.89901 0
M  V30 11151 O 1039.27 -4.01784 -4.04877 0
M  V30 11152 O 1038.2 -5.39004 -2.67877 0
M  V30 11153 H 1042.03 -3.01322 -0.379338 0
M  V30 11154 H 1039.61 -1.48907 -0.121228 0
M  V30 11155 H 1041.49 -3.12259 -2.8297 0
M  V30 11156 H 1040.17 -1.9527 -2.58169 0
M  V30 11157 H 1039.08 -3.61408 -0.966193 0
M  V30 11158 H 1040.41 -4.74989 -1.29022 0
M  V30 11159 N 1042.06 0.170153 -1.56679 0
M  V30 11160 C 1043.01 1.22997 -1.9742 0
M  V30 11161 C 1044 1.45762 -0.863117 0
M  V30 11162 O 1045.21 1.46328 -1.04824 0
M  V30 11163 H 1041.58 0.413482 -0.628122 0
M  V30 11164 H 1043.55 0.859502 -2.85754 0
M  V30 11165 C 1042.3 2.5615 -2.35122 0
M  V30 11166 H 1041.63 2.39456 -3.20158 0
M  V30 11167 H 1043.07 3.28991 -2.67471 0
M  V30 11168 C 1041.53 3.14992 -1.19507 0
M  V30 11169 O 1042.06 3.98781 -0.483357 0
M  V30 11170 N 1040.26 2.74098 -0.965332 0
M  V30 11171 H 1039.81 2.06062 -1.54585 0
M  V30 11172 H 1039.77 3.13803 -0.193611 0
M  V30 11173 N 1043.54 1.5137 0.438746 0
M  V30 11174 C 1044.49 1.72582 1.53245 0
M  V30 11175 C 1045.46 0.567488 1.56105 0
M  V30 11176 O 1046.64 0.80176 1.73137 0
M  V30 11177 C 1043.78 1.85551 2.90972 0
M  V30 11178 C 1042.89 3.13094 2.97652 0
M  V30 11179 C 1042.03 3.16666 4.26493 0
M  V30 11180 C 1041.07 4.38529 4.27035 0
M  V30 11181 N 1040.2 4.39659 5.47398 0
M  V30 11182 H 1045.04 2.65941 1.3446 0
M  V30 11183 H 1042.58 1.31801 0.653206 0
M  V30 11184 H 1044.54 1.91053 3.70884 0
M  V30 11185 H 1043.17 0.956025 3.08318 0
M  V30 11186 H 1042.22 3.16909 2.10412 0
M  V30 11187 H 1043.53 4.03009 2.93914 0
M  V30 11188 H 1042.69 3.21075 5.14777 0
M  V30 11189 H 1041.43 2.24637 4.32885 0
M  V30 11190 H 1040.43 4.34297 3.37144 0
M  V30 11191 H 1041.66 5.31821 4.22307 0
M  V30 11192 H 1039.6 3.50499 5.54514 0
M  V30 11193 H 1039.52 5.23382 5.45534 0
M  V30 11194 H 1040.79 4.48259 6.37718 0
M  V30 11195 N 1045.02 -0.694098 1.41492 0
M  V30 11196 C 1045.96 -1.80801 1.43456 0
M  V30 11197 C 1046.93 -1.63571 0.288757 0
M  V30 11198 O 1048.12 -1.844 0.490017 0
M  V30 11199 C 1045.26 -3.18694 1.32394 0
M  V30 11200 C 1044.37 -3.47346 2.56855 0
M  V30 11201 C 1043.51 -4.74862 2.38075 0
M  V30 11202 C 1042.55 -4.96486 3.58005 0
M  V30 11203 N 1041.68 -6.15229 3.38287 0
M  V30 11204 H 1046.52 -1.78457 2.38657 0
M  V30 11205 H 1044.06 -0.871455 1.18508 0
M  V30 11206 H 1046.02 -3.98352 1.23982 0
M  V30 11207 H 1044.65 -3.20211 0.407999 0
M  V30 11208 H 1043.7 -2.62083 2.75711 0
M  V30 11209 H 1045.01 -3.59226 3.4606 0
M  V30 11210 H 1044.17 -5.62577 2.27139 0
M  V30 11211 H 1042.9 -4.6523 1.46329 0
M  V30 11212 H 1041.91 -4.07219 3.69395 0
M  V30 11213 H 1043.13 -5.07976 4.50708 0
M  V30 11214 H 1041.08 -6.06807 2.49242 0
M  V30 11215 H 1041 -6.27883 4.21069 0
M  V30 11216 H 1042.27 -7.05674 3.31126 0
M  V30 11217 N 1046.49 -1.27344 -0.928501 0
M  V30 11218 C 1047.44 -1.10001 -2.029 0
M  V30 11219 C 1048.41 -0.00131084 -1.661 0
M  V30 11220 O 1049.6 -0.163485 -1.90098 0
M  V30 11221 C 1046.74 -0.7524 -3.36798 0
M  V30 11222 C 1045.85 -1.92865 -3.86558 0
M  V30 11223 C 1044.98 -1.52299 -5.08899 0
M  V30 11224 C 1044.02 -2.66677 -5.50953 0
M  V30 11225 N 1043.16 -2.26706 -6.64491 0
M  V30 11226 H 1048 -2.0417 -2.17068 0
M  V30 11227 H 1045.54 -1.01637 -1.0634 0
M  V30 11228 H 1047.5 -0.531687 -4.13798 0
M  V30 11229 H 1046.13 0.15234 -3.2244 0
M  V30 11230 H 1045.18 -2.26192 -3.05845 0
M  V30 11231 H 1046.49 -2.78668 -4.13698 0
M  V30 11232 H 1045.64 -1.26348 -5.93398 0
M  V30 11233 H 1044.38 -0.636042 -4.83535 0
M  V30 11234 H 1043.39 -2.93344 -4.65004 0
M  V30 11235 H 1044.61 -3.55992 -5.78313 0
M  V30 11236 H 1042.56 -1.40462 -6.40786 0
M  V30 11237 H 1042.48 -3.06049 -6.91281 0
M  V30 11238 H 1043.74 -2.04 -7.52333 0
M  V30 11239 N 1047.97 1.13488 -1.09353 0
M  V30 11240 C 1048.88 2.2248 -0.744307 0
M  V30 11241 C 1049.9 1.72145 0.253404 0
M  V30 11242 O 1051.07 2.01176 0.0949339 0
M  V30 11243 C 1048.14 3.46286 -0.16928 0
M  V30 11244 C 1047.2 4.11516 -1.22284 0
M  V30 11245 C 1046.43 5.29412 -0.675161 0
M  V30 11246 O 1046.66 5.68185 0.502182 0
M  V30 11247 O 1045.59 5.8467 -1.42983 0
M  V30 11248 H 1049.42 2.54723 -1.65378 0
M  V30 11249 H 1047 1.21607 -0.867879 0
M  V30 11250 H 1048.88 4.2114 0.14811 0
M  V30 11251 H 1047.56 3.15745 0.713214 0
M  V30 11252 H 1046.47 3.38492 -1.59292 0
M  V30 11253 H 1047.8 4.46186 -2.07796 0
M  V30 11254 N 1049.45 0.880621 1.30701 0
M  V30 11255 C 1050.7 0.492957 1.95583 0
M  V30 11256 C 1051.01 -0.961863 1.70316 0
M  V30 11257 O 1052.22 -1.45617 2.29146 0
M  V30 11258 C 1050.68 0.830656 3.50183 0
M  V30 11259 C 1050.28 2.30295 3.84276 0
M  V30 11260 C 1052.03 0.511979 4.21401 0
M  V30 11261 C 1049.93 2.58251 5.32034 0
M  V30 11262 H 1048.86 0.18062 0.732047 0
M  V30 11263 H 1051.52 1.075 1.48715 0
M  V30 11264 H 1049.9 0.177752 3.95601 0
M  V30 11265 H 1051.07 2.99981 3.49783 0
M  V30 11266 H 1049.39 2.58873 3.2615 0
M  V30 11267 H 1051.98 0.697935 5.30125 0
M  V30 11268 H 1052.33 -0.548327 4.12673 0
M  V30 11269 H 1052.86 1.12189 3.81652 0
M  V30 11270 H 1049.6 3.63005 5.45809 0
M  V30 11271 H 1049.12 1.9317 5.67843 0
M  V30 11272 H 1050.8 2.43527 5.99419 0
M  V30 11273 N 1050.93 -1.4397 0.641131 0
M  V30 11274 C 1052.18 -2.01163 0.147026 0
M  V30 11275 C 1052.49 -1.51099 -1.24211 0
M  V30 11276 O 1053.7 -2.00487 -1.83078 0
M  V30 11277 C 1052.15 -3.59275 0.212068 0
M  V30 11278 C 1051.76 -4.18334 1.60314 0
M  V30 11279 C 1053.51 -4.23903 -0.225057 0
M  V30 11280 C 1051.41 -5.68701 1.62276 0
M  V30 11281 H 1050.34 -0.75226 0.051201 0
M  V30 11282 H 1052.99 -1.65075 0.801396 0
M  V30 11283 H 1051.38 -3.92708 -0.509589 0
M  V30 11284 H 1052.55 -3.96422 2.34918 0
M  V30 11285 H 1050.86 -3.66031 1.9852 0
M  V30 11286 H 1053.46 -5.34205 -0.230074 0
M  V30 11287 H 1053.8 -3.96956 -1.25426 0
M  V30 11288 H 1054.34 -3.95309 0.44444 0
M  V30 11289 H 1051.08 -6.00397 2.63066 0
M  V30 11290 H 1050.6 -5.92705 0.919797 0
M  V30 11291 H 1052.28 -6.32521 1.36112 0
M  V30 11292 N 1052.41 -0.382291 -1.52893 0
M  V30 11293 C 1053.34 0.447829 -2.29165 0
M  V30 11294 C 1054.32 1.06956 -1.32267 0
M  V30 11295 O 1055.5 1.08365 -1.61154 0
M  V30 11296 C 1052.63 1.57902 -3.09329 0
M  V30 11297 C 1051.59 1.08369 -4.14053 0
M  V30 11298 C 1050.91 2.30641 -4.82399 0
M  V30 11299 C 1052.21 0.156591 -5.22065 0
M  V30 11300 H 1053.91 -0.188541 -2.98806 0
M  V30 11301 H 1051.45 -0.0921179 -1.43705 0
M  V30 11302 H 1053.41 2.16652 -3.61442 0
M  V30 11303 H 1052.13 2.24287 -2.37409 0
M  V30 11304 H 1050.79 0.518772 -3.62911 0
M  V30 11305 H 1050.44 2.9552 -4.07034 0
M  V30 11306 H 1050.14 1.98163 -5.53177 0
M  V30 11307 H 1051.66 2.90047 -5.37313 0
M  V30 11308 H 1053.08 0.652065 -5.6958 0
M  V30 11309 H 1051.47 -0.0780978 -6.00049 0
M  V30 11310 H 1052.54 -0.796529 -4.78313 0
M  V30 11311 N 1053.89 1.57202 -0.111913 0
M  V30 11312 C 1055.12 1.99008 0.554907 0
M  V30 11313 C 1055.52 0.990323 1.61212 0
M  V30 11314 O 1054.87 -0.0259612 1.83682 0
M  V30 11315 C 1054.93 3.37218 1.24598 0
M  V30 11316 C 1054.59 4.55752 0.337549 0
M  V30 11317 C 1055.59 5.18192 -0.421026 0
M  V30 11318 C 1053.27 5.01674 0.25069 0
M  V30 11319 C 1055.27 6.24938 -1.25426 0
M  V30 11320 C 1052.96 6.08282 -0.586186 0
M  V30 11321 C 1053.95 6.6978 -1.3373 0
M  V30 11322 O 1053.64 7.7433 -2.16029 0
M  V30 11323 H 1053.37 0.658669 0.152091 0
M  V30 11324 H 1055.93 2.04492 -0.192937 0
M  V30 11325 H 1054.16 3.28467 2.04074 0
M  V30 11326 H 1055.85 3.63359 1.809 0
M  V30 11327 H 1056.61 4.83634 -0.363752 0
M  V30 11328 H 1052.49 4.53558 0.825005 0
M  V30 11329 H 1056.04 6.72869 -1.84102 0
M  V30 11330 H 1051.93 6.42271 -0.64488 0
M  V30 11331 H 1052.7 7.91395 -2.08894 0
M  V30 11332 N 1055.36 -0.161842 1.56767 0
M  V30 11333 C 1056.6 -0.88331 1.84329 0
M  V30 11334 C 1056.97 -1.79012 0.694165 0
M  V30 11335 O 1058.17 -2.54991 0.850461 0
M  V30 11336 C 1056.44 -1.65 3.17033 0
M  V30 11337 S 1058 -2.41893 3.66106 0
M  V30 11338 H 1054.82 -0.295667 0.646608 0
M  V30 11339 H 1057.42 -0.14429 1.94967 0
M  V30 11340 H 1056.12 -0.975025 3.9865 0
M  V30 11341 H 1055.65 -2.43021 3.09361 0
M  V30 11342 H 1057.67 -3.66788 3.34187 0
M  V30 11343 N 1056.84 -1.516 -0.430713 0
M  V30 11344 C 1057.79 -1.73392 -1.52328 0
M  V30 11345 C 1058.76 -0.575758 -1.55802 0
M  V30 11346 O 1059.94 -0.810931 -1.72709 0
M  V30 11347 C 1057.08 -1.87092 -2.89984 0
M  V30 11348 C 1056.2 -3.14668 -2.95987 0
M  V30 11349 C 1055.33 -3.18923 -4.24807 0
M  V30 11350 C 1054.37 -4.40787 -4.24703 0
M  V30 11351 N 1053.51 -4.42556 -5.45059 0
M  V30 11352 H 1058.35 -2.6665 -1.33048 0
M  V30 11353 H 1055.88 -1.32146 -0.646207 0
M  V30 11354 H 1057.84 -1.93017 -3.69865 0
M  V30 11355 H 1056.47 -0.972363 -3.07807 0
M  V30 11356 H 1055.52 -3.1802 -2.08728 0
M  V30 11357 H 1056.84 -4.04562 -2.91772 0
M  V30 11358 H 1055.99 -3.23801 -5.13067 0
M  V30 11359 H 1054.73 -2.2693 -4.31688 0
M  V30 11360 H 1053.73 -4.36079 -3.34836 0
M  V30 11361 H 1054.96 -5.34053 -4.19481 0
M  V30 11362 H 1052.91 -3.53435 -5.52648 0
M  V30 11363 H 1052.82 -5.26267 -5.42751 0
M  V30 11364 H 1054.09 -4.51634 -6.35332 0
M  V30 11365 N 1058.32 0.686584 -1.41858 0
M  V30 11366 C 1059.57 1.44379 -1.41418 0
M  V30 11367 C 1059.89 1.94981 -0.0273696 0
M  V30 11368 O 1059.16 1.72296 0.932248 0
M  V30 11369 H 1057.74 0.53574 -0.520568 0
M  V30 11370 H 1060.4 0.812056 -1.77177 0
M  V30 11371 H 1059.5 2.30258 -2.10684 0
M  V30 11372 N 1059.8 1.27835 0.921735 0
M  V30 11373 C 1060.76 1.11108 2.00469 0
M  V30 11374 C 1061.76 0.053203 1.60712 0
M  V30 11375 O 1062.95 0.298308 1.71627 0
M  V30 11376 C 1060.08 0.694269 3.33755 0
M  V30 11377 H 1061.28 2.07279 2.16738 0
M  V30 11378 H 1058.83 1.10708 1.10333 0
M  V30 11379 H 1059.56 -0.268561 3.23186 0
M  V30 11380 H 1059.35 1.45836 3.6397 0
M  V30 11381 H 1060.84 0.59965 4.13272 0
M  V30 11382 N 1061.28 -1.12907 1.09954 0
M  V30 11383 C 1062.69 -1.65847 0.857417 0
M  V30 11384 C 1063.04 -1.86372 -0.613176 0
M  V30 11385 O 1062.16 -1.58654 -1.47166 0
M  V30 11386 C 1062.76 -3.01269 1.54991 0
M  V30 11387 C 1061.32 -3.51179 1.35462 0
M  V30 11388 C 1060.46 -2.26307 1.60251 0
M  V30 11389 H 1063.41 -0.96755 1.25794 0
M  V30 11390 H 1063.44 -3.675 0.986091 0
M  V30 11391 H 1062.95 -2.86299 2.6202 0
M  V30 11392 H 1061.05 -3.71343 0.305742 0
M  V30 11393 H 1061.16 -4.30955 2.09318 0
M  V30 11394 H 1059.53 -2.33167 1.02494 0
M  V30 11395 H 1060.31 -2.13896 2.68521 0
M  V30 11396 N 1062.75 -0.88754 -1.30232 0
M  V30 11397 C 1063.66 -0.360333 -2.31816 0
M  V30 11398 C 1064.68 0.538741 -1.6545 0
M  V30 11399 O 1065.86 0.431246 -1.96729 0
M  V30 11400 C 1062.92 0.414336 -3.44215 0
M  V30 11401 C 1061.98 -0.514799 -4.26202 0
M  V30 11402 C 1061.21 0.222994 -5.33234 0
M  V30 11403 O 1061.44 1.44871 -5.51696 0
M  V30 11404 O 1060.37 -0.428221 -6.00375 0
M  V30 11405 H 1064.2 -1.20279 -2.78867 0
M  V30 11406 H 1061.78 -0.651459 -1.34448 0
M  V30 11407 H 1063.66 0.852859 -4.12679 0
M  V30 11408 H 1062.34 1.23305 -2.99295 0
M  V30 11409 H 1061.25 -1.00219 -3.60426 0
M  V30 11410 H 1062.58 -1.29959 -4.74733 0
M  V30 11411 N 1064.23 1.43628 -0.648757 0
M  V30 11412 C 1065.18 2.32529 0.057536 0
M  V30 11413 C 1066.17 1.48358 0.817699 0
M  V30 11414 O 1067.38 1.64595 0.728605 0
M  V30 11415 H 1063.76 0.75107 0.037388 0
M  V30 11416 H 1065.73 2.89829 -0.710062 0
M  V30 11417 C 1064.48 3.32605 1.01336 0
M  V30 11418 H 1063.8 3.97395 0.437855 0
M  V30 11419 H 1065.24 3.97453 1.47672 0
M  V30 11420 C 1063.7 2.62865 2.10722 0
M  V30 11421 O 1064.23 2.4408 3.19042 0
M  V30 11422 N 1062.43 2.22312 1.87152 0
M  V30 11423 H 1061.98 2.3779 0.990644 0
M  V30 11424 H 1061.94 1.75979 2.60536 0
M  V30 11425 N 1065.71 0.390394 1.52688 0
M  V30 11426 C 1066.96 -0.192697 2.00777 0
M  V30 11427 C 1067.27 -1.4781 1.28108 0
M  V30 11428 O 1068.48 -2.1413 1.66914 0
M  V30 11429 C 1066.93 -0.393955 3.57737 0
M  V30 11430 C 1066.54 0.878259 4.39307 0
M  V30 11431 C 1068.29 -0.933352 4.14112 0
M  V30 11432 C 1066.19 0.645218 5.8787 0
M  V30 11433 H 1065.12 -0.0757862 0.750182 0
M  V30 11434 H 1067.77 0.512961 1.76184 0
M  V30 11435 H 1066.16 -1.16149 3.78583 0
M  V30 11436 H 1067.33 1.65049 4.30227 0
M  V30 11437 H 1065.65 1.34269 3.94158 0
M  V30 11438 H 1068.24 -1.12343 5.22765 0
M  V30 11439 H 1068.59 -1.90272 3.70273 0
M  V30 11440 H 1069.12 -0.225361 3.97161 0
M  V30 11441 H 1065.86 1.58562 6.36033 0
M  V30 11442 H 1065.38 -0.0880609 5.99735 0
M  V30 11443 H 1067.06 0.280178 6.46393 0
M  V30 11444 N 1067.19 -1.57141 0.120249 0
M  V30 11445 C 1068.44 -1.94413 -0.53727 0
M  V30 11446 C 1068.75 -1.00594 -1.67751 0
M  V30 11447 O 1069.96 -1.27336 -2.39787 0
M  V30 11448 C 1068.41 -3.45521 -1.00714 0
M  V30 11449 C 1068.02 -4.47878 0.104706 0
M  V30 11450 C 1069.76 -3.9171 -1.63596 0
M  V30 11451 C 1067.67 -5.90165 -0.381932 0
M  V30 11452 H 1066.6 -0.725745 -0.204475 0
M  V30 11453 H 1069.25 -1.82404 0.200302 0
M  V30 11454 H 1067.63 -3.52769 -1.79917 0
M  V30 11455 H 1068.81 -4.523 0.881002 0
M  V30 11456 H 1067.12 -4.11448 0.640264 0
M  V30 11457 H 1069.72 -4.95433 -2.01122 0
M  V30 11458 H 1070.06 -3.31756 -2.51483 0
M  V30 11459 H 1070.6 -3.87268 -0.909319 0
M  V30 11460 H 1067.34 -6.53877 0.460921 0
M  V30 11461 H 1066.86 -5.89161 -1.12468 0
M  V30 11462 H 1068.53 -6.41488 -0.842748 0
M  V30 11463 N 1068.67 0.153526 -1.5685 0
M  V30 11464 C 1069.61 1.18973 -1.97773 0
M  V30 11465 C 1070.58 1.43041 -0.844311 0
M  V30 11466 O 1071.77 1.55484 -1.10586 0
M  V30 11467 C 1068.91 2.51981 -2.35795 0
M  V30 11468 C 1068.02 2.35143 -3.62397 0
M  V30 11469 C 1067.16 3.61141 -3.89552 0
M  V30 11470 C 1066.2 3.39311 -5.09445 0
M  V30 11471 N 1065.33 4.57423 -5.32643 0
M  V30 11472 H 1070.17 0.833758 -2.86099 0
M  V30 11473 H 1067.71 0.400252 -1.4155 0
M  V30 11474 H 1069.67 3.29527 -2.55867 0
M  V30 11475 H 1068.3 2.85539 -1.50557 0
M  V30 11476 H 1067.35 1.48684 -3.50139 0
M  V30 11477 H 1068.66 2.14969 -4.501 0
M  V30 11478 H 1067.82 4.47117 -4.10087 0
M  V30 11479 H 1066.55 3.84312 -3.00259 0
M  V30 11480 H 1065.56 2.51723 -4.8879 0
M  V30 11481 H 1066.78 3.17545 -6.00285 0
M  V30 11482 H 1064.73 4.8078 -4.46303 0
M  V30 11483 H 1064.65 4.40228 -6.14602 0
M  V30 11484 H 1065.92 5.44632 -5.57671 0
M  V30 11485 N 1070.14 1.51827 0.422667 0
M  V30 11486 C 1071.09 1.74791 1.53463 0
M  V30 11487 C 1072.09 0.614602 1.57858 0
M  V30 11488 O 1073.29 0.796336 1.61426 0
M  V30 11489 H 1069.67 0.552524 0.510118 0
M  V30 11490 H 1071.64 2.67974 1.31273 0
M  V30 11491 C 1070.39 1.90339 2.90975 0
M  V30 11492 H 1069.71 2.76958 2.8833 0
M  V30 11493 H 1071.15 2.10413 3.68106 0
M  V30 11494 C 1069.61 0.66695 3.30232 0
M  V30 11495 O 1070.14 -0.171542 4.01334 0
M  V30 11496 N 1068.35 0.506768 2.86147 0
M  V30 11497 H 1067.89 1.19019 2.28456 0
M  V30 11498 H 1067.85 -0.319247 3.12775 0
M  V30 11499 N 1071.62 -0.679052 1.4222 0
M  V30 11500 C 1072.86 -1.45118 1.43945 0
M  V30 11501 C 1073.23 -1.91928 0.0524851 0
M  V30 11502 O 1074.43 -2.68743 -0.0555318 0
M  V30 11503 C 1072.7 -2.6191 2.43183 0
M  V30 11504 S 1074.26 -3.50819 2.63574 0
M  V30 11505 H 1071.08 -0.495695 0.509713 0
M  V30 11506 H 1073.68 -0.790842 1.7879 0
M  V30 11507 H 1072.38 -2.25752 3.42731 0
M  V30 11508 H 1071.91 -3.3282 2.09748 0
M  V30 11509 H 1073.93 -4.57735 1.91555 0
M  V30 11510 N 1073.1 -1.28322 -0.914942 0
M  V30 11511 C 1074.05 -1.12146 -2.01722 0
M  V30 11512 C 1075.02 -0.0189279 -1.66089 0
M  V30 11513 O 1076.2 -0.183638 -1.89914 0
M  V30 11514 C 1073.34 -0.78808 -3.35981 0
M  V30 11515 C 1072.46 -1.96954 -3.84491 0
M  V30 11516 C 1071.59 -1.57688 -5.07255 0
M  V30 11517 C 1070.63 -2.72506 -5.48094 0
M  V30 11518 N 1069.77 -2.33741 -6.62049 0
M  V30 11519 H 1074.61 -2.06461 -2.1489 0
M  V30 11520 H 1072.14 -1.0276 -1.05256 0
M  V30 11521 H 1074.1 -0.575546 -4.13211 0
M  V30 11522 H 1072.73 0.118132 -3.22584 0
M  V30 11523 H 1071.78 -2.29423 -3.03429 0
M  V30 11524 H 1073.1 -2.8304 -4.10719 0
M  V30 11525 H 1072.25 -1.32634 -5.92025 0
M  V30 11526 H 1070.99 -0.687291 -4.82833 0
M  V30 11527 H 1069.99 -2.9826 -4.61867 0
M  V30 11528 H 1071.22 -3.62106 -5.74505 0
M  V30 11529 H 1069.16 -1.4725 -6.3926 0
M  V30 11530 H 1069.08 -3.13364 -6.87997 0
M  V30 11531 H 1070.35 -2.11968 -7.50127 0
M  V30 11532 N 1074.58 1.12322 -1.10551 0
M  V30 11533 C 1075.81 1.87407 -0.869607 0
M  V30 11534 C 1076.22 1.79976 0.58356 0
M  V30 11535 O 1075.56 1.1725 1.41415 0
M  V30 11536 C 1075.62 3.37401 -1.24099 0
M  V30 11537 C 1075.29 3.68607 -2.70144 0
M  V30 11538 C 1076.28 3.66869 -3.68379 0
M  V30 11539 C 1073.97 3.97903 -3.06559 0
M  V30 11540 C 1075.96 3.93987 -5.01052 0
M  V30 11541 C 1073.65 4.24681 -4.39419 0
M  V30 11542 C 1074.65 4.2271 -5.36475 0
M  V30 11543 O 1074.33 4.48823 -6.66943 0
M  V30 11544 H 1074.07 0.59978 -0.311834 0
M  V30 11545 H 1076.62 1.43037 -1.4741 0
M  V30 11546 H 1074.85 3.82332 -0.579606 0
M  V30 11547 H 1076.54 3.93833 -0.982378 0
M  V30 11548 H 1077.31 3.44297 -3.41591 0
M  V30 11549 H 1073.18 3.98578 -2.31638 0
M  V30 11550 H 1076.73 3.92364 -5.76798 0
M  V30 11551 H 1072.63 4.46727 -4.65945 0
M  V30 11552 H 1073.39 4.66436 -6.72592 0
M  V30 11553 N 1076.06 0.894434 1.2976 0
M  V30 11554 C 1077.29 0.532143 1.99629 0
M  V30 11555 C 1077.69 -0.886234 1.6716 0
M  V30 11556 O 1077.04 -1.59573 0.910065 0
M  V30 11557 C 1077.1 0.638335 3.53787 0
M  V30 11558 C 1076.76 2.02273 4.09798 0
M  V30 11559 C 1077.76 2.99327 4.25087 0
M  V30 11560 C 1075.45 2.33069 4.44954 0
M  V30 11561 C 1077.44 4.25304 4.74758 0
M  V30 11562 C 1075.13 3.59289 4.94322 0
M  V30 11563 C 1076.12 4.55222 5.09178 0
M  V30 11564 O 1075.81 5.79202 5.57477 0
M  V30 11565 H 1075.54 0.203326 0.644697 0
M  V30 11566 H 1078.1 1.2043 1.6639 0
M  V30 11567 H 1076.33 -0.0908338 3.86593 0
M  V30 11568 H 1078.02 0.285956 4.04891 0
M  V30 11569 H 1078.78 2.76849 3.9822 0
M  V30 11570 H 1074.66 1.59162 4.32653 0
M  V30 11571 H 1078.21 5.00189 4.86269 0
M  V30 11572 H 1074.1 3.816 5.20626 0
M  V30 11573 H 1074.87 5.81717 5.75802 0
M  V30 11574 N 1077.53 -1.43282 0.656365 0
M  V30 11575 C 1078.46 -2.33492 -0.0196962 0
M  V30 11576 C 1079.45 -1.49647 -0.80868 0
M  V30 11577 O 1080.63 -1.78303 -0.769529 0
M  V30 11578 C 1077.76 -3.33052 -0.984574 0
M  V30 11579 C 1076.71 -4.26908 -0.305483 0
M  V30 11580 C 1076.04 -5.16531 -1.38202 0
M  V30 11581 C 1077.34 -5.16073 0.804081 0
M  V30 11582 H 1079.03 -2.90272 0.733661 0
M  V30 11583 H 1076.58 -1.39574 0.354259 0
M  V30 11584 H 1078.53 -3.9506 -1.46647 0
M  V30 11585 H 1077.26 -2.74535 -1.76913 0
M  V30 11586 H 1075.92 -3.66268 0.155995 0
M  V30 11587 H 1075.56 -4.54351 -2.1581 0
M  V30 11588 H 1075.26 -5.80148 -0.932878 0
M  V30 11589 H 1076.79 -5.81414 -1.86522 0
M  V30 11590 H 1078.2 -5.71873 0.404212 0
M  V30 11591 H 1076.6 -5.88427 1.17789 0
M  V30 11592 H 1077.67 -4.55574 1.66073 0
M  V30 11593 N 1079.01 -0.398486 -1.52479 0
M  V30 11594 C 1080.24 0.180557 -2.06111 0
M  V30 11595 C 1080.66 1.39751 -1.26945 0
M  V30 11596 O 1080.01 1.79699 -0.318497 0
M  V30 11597 C 1080.06 0.541573 -3.5742 0
M  V30 11598 O 1079.79 -0.627043 -4.33589 0
M  V30 11599 C 1081.29 1.17549 -4.27431 0
M  V30 11600 H 1078.51 0.0250754 -0.670531 0
M  V30 11601 H 1081.05 -0.566368 -1.96501 0
M  V30 11602 H 1079.21 1.23839 -3.67073 0
M  V30 11603 H 1079.62 -0.328233 -5.23472 0
M  V30 11604 H 1081.09 1.37839 -5.34513 0
M  V30 11605 H 1081.57 2.14553 -3.83228 0
M  V30 11606 H 1082.18 0.51918 -4.22119 0
M  V30 11607 N 1080.49 1.57075 -0.12858 0
M  V30 11608 C 1081.44 2.15816 0.818064 0
M  V30 11609 C 1082.41 1.08581 1.25696 0
M  V30 11610 O 1083.59 1.36535 1.33277 0
M  V30 11611 C 1080.73 2.76943 2.05905 0
M  V30 11612 C 1079.85 3.98514 1.66764 0
M  V30 11613 C 1078.98 4.47698 2.85902 0
M  V30 11614 C 1078.02 5.61778 2.43047 0
M  V30 11615 N 1077.16 6.05662 3.5513 0
M  V30 11616 H 1082 2.9638 0.310318 0
M  V30 11617 H 1079.53 1.46418 0.141472 0
M  V30 11618 H 1081.49 3.10519 2.78629 0
M  V30 11619 H 1080.12 1.99053 2.54122 0
M  V30 11620 H 1079.17 3.71038 0.838766 0
M  V30 11621 H 1080.49 4.81215 1.31277 0
M  V30 11622 H 1079.64 4.83233 3.66839 0
M  V30 11623 H 1078.38 3.63967 3.24622 0
M  V30 11624 H 1077.38 5.25838 1.60544 0
M  V30 11625 H 1078.61 6.47282 2.05433 0
M  V30 11626 H 1076.56 5.2487 3.93506 0
M  V30 11627 H 1076.47 6.83242 3.23598 0
M  V30 11628 H 1077.74 6.45838 4.36479 0
M  V30 11629 N 1081.97 -0.145205 1.5693 0
M  V30 11630 C 1082.92 -1.19841 1.99351 0
M  V30 11631 C 1083.91 -1.44371 0.886197 0
M  V30 11632 O 1085.12 -1.44642 1.07138 0
M  V30 11633 H 1081.49 -0.403437 0.63462 0
M  V30 11634 H 1083.46 -0.813932 2.87085 0
M  V30 11635 C 1082.21 -2.52377 2.39167 0
M  V30 11636 H 1081.54 -2.34332 3.23927 0
M  V30 11637 H 1082.98 -3.24694 2.72671 0
M  V30 11638 C 1081.43 -3.1305 1.24503 0
M  V30 11639 O 1081.96 -3.97962 0.546739 0
M  V30 11640 N 1080.17 -2.72528 1.00882 0
M  V30 11641 H 1079.72 -2.03576 1.57843 0
M  V30 11642 H 1079.68 -3.13456 0.24351 0
M  V30 11643 N 1083.45 -1.52049 -0.414609 0
M  V30 11644 C 1084.72 -1.56397 -1.17471 0
M  V30 11645 C 1085.1 -0.34171 -2.08316 0
M  V30 11646 O 1084.45 0.6718 -2.18401 0
M  V30 11647 C 1084.66 -2.88983 -1.95678 0
M  V30 11648 C 1086.01 -3.41781 -2.51935 0
M  V30 11649 O 1087.03 -2.90686 -2.05865 0
M  V30 11650 O 1085.89 -4.30989 -3.36022 0
M  V30 11651 H 1082.99 -0.62974 -0.536056 0
M  V30 11652 H 1085.53 -1.64374 -0.421834 0
M  V30 11653 H 1084.31 -3.69392 -1.29094 0
M  V30 11654 H 1083.93 -2.84274 -2.77983 0
M  V30 11655 N 1084.93 0.6715 -1.42579 0
M  V30 11656 C 1086.17 1.42731 -1.42516 0
M  V30 11657 C 1086.49 1.95545 -0.0462407 0
M  V30 11658 O 1087.69 2.71391 0.0769798 0
M  V30 11659 C 1086.15 2.58215 -2.50705 0
M  V30 11660 C 1085.76 2.12086 -3.94618 0
M  V30 11661 C 1087.5 3.35705 -2.59813 0
M  V30 11662 C 1085.41 3.24672 -4.9431 0
M  V30 11663 H 1084.34 0.536218 -0.530081 0
M  V30 11664 H 1086.99 0.726655 -1.68499 0
M  V30 11665 H 1085.37 3.30665 -2.17892 0
M  V30 11666 H 1086.55 1.46768 -4.36802 0
M  V30 11667 H 1084.86 1.47526 -3.89391 0
M  V30 11668 H 1087.46 4.1956 -3.31472 0
M  V30 11669 H 1087.8 3.82517 -1.64276 0
M  V30 11670 H 1088.33 2.70326 -2.91836 0
M  V30 11671 H 1085.07 2.82848 -5.91335 0
M  V30 11672 H 1084.59 3.88761 -4.56755 0
M  V30 11673 H 1086.27 3.90088 -5.16179 0
M  V30 11674 N 1086.4 1.28806 0.908124 0
M  V30 11675 C 1087.82 1.06634 1.18749 0
M  V30 11676 C 1088.02 -0.187729 2.00624 0
M  V30 11677 O 1087.08 -0.88784 2.36376 0
M  V30 11678 C 1088.39 2.31703 1.91661 0
M  V30 11679 C 1089.94 2.36939 2.04521 0
M  V30 11680 C 1090.41 3.61789 2.80843 0
M  V30 11681 N 1091.9 3.62462 2.88402 0
M  V30 11682 C 1092.64 4.55746 3.47971 0
M  V30 11683 N 1092.13 5.59353 4.08774 0
M  V30 11684 N 1093.93 4.43331 3.45564 0
M  V30 11685 H 1086.08 2.09299 0.36164 0
M  V30 11686 H 1088.34 0.921479 0.222668 0
M  V30 11687 H 1088.05 3.23096 1.38931 0
M  V30 11688 H 1087.92 2.38556 2.92183 0
M  V30 11689 H 1090.31 1.4604 2.5643 0
M  V30 11690 H 1090.39 2.34077 1.03159 0
M  V30 11691 H 1090.03 4.53035 2.29612 0
M  V30 11692 H 1089.96 3.61907 3.82532 0
M  V30 11693 H 1092.45 2.87544 2.45208 0
M  V30 11694 H 1092.77 6.26668 4.52224 0
M  V30 11695 H 1091.11 5.63173 4.07261 0
M  V30 11696 H 1094.3 3.61587 2.97276 0
M  V30 11697 H 1094.48 5.16216 3.91695 0
M  V30 11698 N 1087.88 -1.11734 1.11145 0
M  V30 11699 C 1089.29 -1.64928 0.874959 0
M  V30 11700 C 1089.64 -1.87012 -0.593375 0
M  V30 11701 O 1088.77 -1.60206 -1.45475 0
M  V30 11702 C 1089.36 -2.99608 1.58178 0
M  V30 11703 C 1087.92 -3.49723 1.39179 0
M  V30 11704 C 1087.07 -2.24595 1.62642 0
M  V30 11705 H 1090.02 -0.954154 1.26813 0
M  V30 11706 H 1090.04 -3.66434 1.02501 0
M  V30 11707 H 1089.55 -2.83504 2.65042 0
M  V30 11708 H 1087.65 -3.70998 0.345111 0
M  V30 11709 H 1087.77 -4.28711 2.13878 0
M  V30 11710 H 1086.13 -2.32067 1.04961 0
M  V30 11711 H 1086.91 -2.11036 2.70774 0
M  V30 11712 N 1089.36 -0.901303 -1.29284 0
M  V30 11713 C 1090.29 -0.396909 -2.30102 0
M  V30 11714 C 1091.27 0.528919 -1.61668 0
M  V30 11715 O 1092.46 0.439306 -1.89166 0
M  V30 11716 C 1089.59 0.375006 -3.45269 0
M  V30 11717 C 1088.54 -0.46054 -4.25515 0
M  V30 11718 C 1087.87 0.438967 -5.32895 0
M  V30 11719 C 1089.17 -1.7113 -4.93469 0
M  V30 11720 H 1090.86 -1.23943 -2.72541 0
M  V30 11721 H 1088.41 -0.597428 -1.31022 0
M  V30 11722 H 1090.36 0.738622 -4.14876 0
M  V30 11723 H 1089.08 1.25132 -3.01678 0
M  V30 11724 H 1087.74 -0.80651 -3.57618 0
M  V30 11725 H 1087.39 1.31346 -4.85548 0
M  V30 11726 H 1087.09 -0.116406 -5.87485 0
M  V30 11727 H 1088.61 0.79874 -6.05353 0
M  V30 11728 H 1090.03 -1.41732 -5.55504 0
M  V30 11729 H 1088.42 -2.20811 -5.57999 0
M  V30 11730 H 1089.49 -2.44636 -4.18666 0
M  V30 11731 N 1090.84 1.42931 -0.663954 0
M  V30 11732 C 1091.79 2.32577 0.03287 0
M  V30 11733 C 1092.78 1.49217 0.801918 0
M  V30 11734 O 1093.99 1.65358 0.711106 0
M  V30 11735 H 1090.36 0.751424 0.0294198 0
M  V30 11736 H 1092.33 2.89059 -0.740763 0
M  V30 11737 C 1091.08 3.33661 0.978025 0
M  V30 11738 H 1090.4 3.97837 0.395681 0
M  V30 11739 H 1091.84 3.98997 1.43448 0
M  V30 11740 C 1090.3 2.65085 2.07922 0
M  V30 11741 O 1090.83 2.4745 3.16435 0
M  V30 11742 N 1089.04 2.24285 1.84783 0
M  V30 11743 H 1088.59 2.38827 0.965368 0
M  V30 11744 H 1088.54 1.78732 2.58655 0
M  V30 11745 N 1092.32 0.406567 1.52266 0
M  V30 11746 C 1093.23 -0.4271 2.30679 0
M  V30 11747 C 1094.24 -1.0559 1.383 0
M  V30 11748 O 1095.42 -1.05797 1.71374 0
M  V30 11749 C 1092.48 -1.53008 3.1111 0
M  V30 11750 C 1091.54 -0.924604 4.19225 0
M  V30 11751 C 1090.78 -1.97502 4.95811 0
M  V30 11752 O 1091 -3.19277 4.72671 0
M  V30 11753 O 1089.93 -1.58268 5.80719 0
M  V30 11754 H 1093.76 0.212187 3.02958 0
M  V30 11755 H 1091.34 0.169835 1.48432 0
M  V30 11756 H 1093.23 -2.17046 3.61205 0
M  V30 11757 H 1091.9 -2.15401 2.41628 0
M  V30 11758 H 1090.81 -0.247009 3.73284 0
M  V30 11759 H 1092.14 -0.34463 4.90992 0
M  V30 11760 N 1093.79 -1.57004 0.136909 0
M  V30 11761 C 1095.02 -2.00156 -0.523936 0
M  V30 11762 C 1095.44 -1.01688 -1.59075 0
M  V30 11763 O 1094.79 -0.0123678 -1.82496 0
M  V30 11764 C 1094.85 -3.4326 -1.13379 0
M  V30 11765 O 1094.57 -4.37963 -0.109598 0
M  V30 11766 C 1096.07 -4.01637 -1.87623 0
M  V30 11767 H 1093.29 -0.65681 -0.137263 0
M  V30 11768 H 1095.83 -2.03219 0.228522 0
M  V30 11769 H 1093.99 -3.4108 -1.83693 0
M  V30 11770 H 1094.4 -5.21555 -0.55503 0
M  V30 11771 H 1095.87 -5.03795 -2.25597 0
M  V30 11772 H 1096.35 -3.41781 -2.75831 0
M  V30 11773 H 1096.96 -4.07417 -1.22031 0
M  V30 11774 N 1095.27 0.136881 -1.57004 0
M  V30 11775 C 1096.2 1.17026 -2.02057 0
M  V30 11776 C 1097.18 1.44223 -0.901866 0
M  V30 11777 O 1098.37 1.54971 -1.17037 0
M  V30 11778 C 1095.5 2.50095 -2.40977 0
M  V30 11779 C 1094.45 2.37398 -3.56127 0
M  V30 11780 C 1093.78 3.75268 -3.80891 0
M  V30 11781 C 1095.08 1.84952 -4.88457 0
M  V30 11782 H 1096.77 0.795601 -2.88636 0
M  V30 11783 H 1094.32 0.381266 -1.38861 0
M  V30 11784 H 1096.27 3.22621 -2.71097 0
M  V30 11785 H 1095 2.89416 -1.51348 0
M  V30 11786 H 1093.65 1.67322 -3.26188 0
M  V30 11787 H 1093.3 4.12043 -2.88496 0
M  V30 11788 H 1093 3.67631 -4.5839 0
M  V30 11789 H 1094.53 4.49327 -4.13446 0
M  V30 11790 H 1095.94 2.4728 -5.17229 0
M  V30 11791 H 1094.34 1.88181 -5.69832 0
M  V30 11792 H 1095.41 0.805848 -4.78157 0
M  V30 11793 N 1096.75 1.52266 0.40654 0
M  V30 11794 C 1097.7 1.75794 1.4955 0
M  V30 11795 C 1098.67 0.600472 1.54866 0
M  V30 11796 O 1099.85 0.838305 1.71397 0
M  V30 11797 C 1096.99 1.91682 2.86971 0
M  V30 11798 C 1096.11 3.19337 2.90943 0
M  V30 11799 C 1095.24 3.25641 4.1968 0
M  V30 11800 C 1094.28 4.47488 4.17637 0
M  V30 11801 N 1093.42 4.51171 5.37949 0
M  V30 11802 H 1098.26 2.68733 1.28789 0
M  V30 11803 H 1095.79 1.33157 0.625102 0
M  V30 11804 H 1097.75 1.98877 3.66748 0
M  V30 11805 H 1096.38 1.02121 3.06221 0
M  V30 11806 H 1095.43 3.21301 2.03642 0
M  V30 11807 H 1096.75 4.09153 2.85299 0
M  V30 11808 H 1095.9 3.31922 5.07851 0
M  V30 11809 H 1094.64 2.33769 4.28023 0
M  V30 11810 H 1093.64 4.41351 3.27856 0
M  V30 11811 H 1094.87 5.40659 4.10932 0
M  V30 11812 H 1092.81 3.62182 5.46955 0
M  V30 11813 H 1092.73 5.34835 5.3431 0
M  V30 11814 H 1094 4.61685 6.28066 0
M  V30 11815 N 1098.23 -0.663929 1.42933 0
M  V30 11816 C 1099.18 -1.79843 1.4751 0
M  V30 11817 C 1100.17 -1.65751 0.349727 0
M  V30 11818 O 1101.38 -1.72227 0.523239 0
M  V30 11819 H 1097.75 -0.593176 0.462219 0
M  V30 11820 H 1099.72 -1.73102 2.4306 0
M  V30 11821 C 1098.47 -3.18053 1.4049 0
M  V30 11822 H 1097.79 -3.29529 2.26386 0
M  V30 11823 H 1099.23 -3.97423 1.47754 0
M  V30 11824 C 1097.69 -3.36682 0.121076 0
M  V30 11825 O 1098.22 -3.93202 -0.821874 0
M  V30 11826 N 1096.43 -2.90579 0.0347141 0
M  V30 11827 H 1095.98 -2.44769 0.802852 0
M  V30 11828 H 1095.93 -3.03421 -0.823607 0
M  V30 11829 N 1099.71 -1.29285 -0.901281 0
M  V30 11830 C 1100.62 -1.16161 -2.03823 0
M  V30 11831 C 1101.63 -0.0852298 -1.73791 0
M  V30 11832 O 1102.81 -0.29699 -1.99198 0
M  V30 11833 C 1099.87 -0.837586 -3.3643 0
M  V30 11834 C 1098.93 -1.99764 -3.7999 0
M  V30 11835 C 1098.17 -1.68898 -5.0627 0
M  V30 11836 O 1098.39 -0.609177 -5.67138 0
M  V30 11837 O 1097.32 -2.53648 -5.45845 0
M  V30 11838 H 1101.15 -2.11635 -2.17817 0
M  V30 11839 H 1098.74 -1.08722 -1.02468 0
M  V30 11840 H 1100.62 -0.671376 -4.16017 0
M  V30 11841 H 1099.29 0.0873811 -3.23582 0
M  V30 11842 H 1098.2 -2.21908 -3.01177 0
M  V30 11843 H 1099.53 -2.90376 -3.9742 0
M  V30 11844 N 1101.18 1.11143 -1.11736 0
M  V30 11845 C 1102.43 1.82311 -0.862875 0
M  V30 11846 C 1102.75 1.85735 0.613326 0
M  V30 11847 O 1103.95 2.53034 0.984168 0
M  V30 11848 C 1102.41 3.27427 -1.49396 0
M  V30 11849 C 1102.02 3.32323 -3.00443 0
M  V30 11850 C 1103.76 4.03474 -1.31944 0
M  V30 11851 C 1101.67 4.71855 -3.56521 0
M  V30 11852 H 1100.6 0.683124 -0.31915 0
M  V30 11853 H 1103.25 1.25045 -1.34298 0
M  V30 11854 H 1101.63 3.84644 -0.941528 0
M  V30 11855 H 1102.8 2.84971 -3.62117 0
M  V30 11856 H 1101.12 2.69758 -3.17206 0
M  V30 11857 H 1103.72 5.06528 -1.71271 0
M  V30 11858 H 1104.06 4.15473 -0.262339 0
M  V30 11859 H 1104.59 3.52652 -1.84069 0
M  V30 11860 H 1101.33 4.65054 -4.61958 0
M  V30 11861 H 1100.85 5.19604 -2.99619 0
M  V30 11862 H 1102.53 5.40816 -3.55144 0
M  V30 11863 N 1102.66 0.908147 1.28804 0
M  V30 11864 C 1103.61 0.363504 2.25084 0
M  V30 11865 C 1104.6 -0.52121 1.52224 0
M  V30 11866 O 1105.79 -0.361848 1.73262 0
M  V30 11867 C 1102.92 -0.400353 3.40958 0
M  V30 11868 C 1102 0.499761 4.21145 0
M  V30 11869 N 1102.39 1.61082 4.79464 0
M  V30 11870 C 1100.69 0.299108 4.44996 0
M  V30 11871 C 1101.39 2.16906 5.39747 0
M  V30 11872 N 1100.37 1.46103 5.23598 0
M  V30 11873 H 1104.17 1.21212 2.6774 0
M  V30 11874 H 1101.69 0.760159 1.43511 0
M  V30 11875 H 1103.68 -0.807343 4.09008 0
M  V30 11876 H 1102.34 -1.24613 2.99836 0
M  V30 11877 H 1103.35 1.99347 4.77997 0
M  V30 11878 H 1100.03 -0.507611 4.14403 0
M  V30 11879 H 1101.42 3.10338 5.95936 0
M  V30 11880 N 1104.14 -1.42577 0.671525 0
M  V30 11881 C 1105.09 -2.32591 -0.0205354 0
M  V30 11882 C 1106.08 -1.4964 -0.793993 0
M  V30 11883 O 1107.29 -1.65733 -0.702327 0
M  V30 11884 H 1103.66 -0.75157 -0.0254344 0
M  V30 11885 H 1105.63 -2.88662 0.756082 0
M  V30 11886 C 1104.38 -3.34175 -0.960316 0
M  V30 11887 H 1103.71 -3.98041 -0.374577 0
M  V30 11888 H 1105.15 -3.99752 -1.4133 0
M  V30 11889 C 1103.61 -2.66184 -2.06513 0
M  V30 11890 O 1104.14 -2.49125 -3.15119 0
M  V30 11891 N 1102.34 -2.25261 -1.83591 0
M  V30 11892 H 1101.89 -2.39336 -0.952689 0
M  V30 11893 H 1101.85 -1.80101 -2.57703 0
M  V30 11894 N 1105.62 -0.414636 -1.52048 0
M  V30 11895 C 1106.57 0.408141 -2.27163 0
M  V30 11896 C 1107.54 1.03636 -1.29803 0
M  V30 11897 O 1108.72 1.05959 -1.58674 0
M  V30 11898 C 1105.86 1.51588 -3.10024 0
M  V30 11899 C 1104.97 0.908034 -4.22349 0
M  V30 11900 C 1104.11 1.98893 -4.9256 0
M  V30 11901 C 1103.15 1.35831 -5.96839 0
M  V30 11902 N 1102.28 2.37958 -6.60545 0
M  V30 11903 H 1107.12 -0.238822 -2.97041 0
M  V30 11904 H 1104.66 -0.129614 -1.46528 0
M  V30 11905 H 1106.62 2.16916 -3.56375 0
M  V30 11906 H 1105.25 2.13279 -2.42305 0
M  V30 11907 H 1104.3 0.143652 -3.80129 0
M  V30 11908 H 1105.61 0.407426 -4.97133 0
M  V30 11909 H 1104.77 2.71935 -5.42343 0
M  V30 11910 H 1103.51 2.5232 -4.17356 0
M  V30 11911 H 1102.51 0.613246 -5.46369 0
M  V30 11912 H 1103.74 0.831655 -6.73988 0
M  V30 11913 H 1101.68 2.90508 -5.88167 0
M  V30 11914 H 1101.6 1.92725 -7.31022 0
M  V30 11915 H 1102.87 3.10553 -7.14966 0
M  V30 11916 N 1107.1 1.56929 -0.145233 0
M  V30 11917 C 1108.35 1.95243 0.506273 0
M  V30 11918 C 1108.66 1.0325 1.66129 0
M  V30 11919 O 1109.86 1.31135 2.37731 0
M  V30 11920 C 1108.32 3.47079 0.952042 0
M  V30 11921 C 1107.93 4.47654 -0.175947 0
M  V30 11922 C 1109.67 3.94263 1.57344 0
M  V30 11923 C 1107.58 5.90698 0.287993 0
M  V30 11924 H 1106.51 0.728906 0.192903 0
M  V30 11925 H 1109.16 1.82062 -0.229295 0
M  V30 11926 H 1107.54 3.55587 1.74282 0
M  V30 11927 H 1108.72 4.50841 -0.952848 0
M  V30 11928 H 1107.03 4.10377 -0.70564 0
M  V30 11929 H 1109.63 4.9857 1.93214 0
M  V30 11930 H 1109.97 3.35714 2.46174 0
M  V30 11931 H 1110.5 3.88665 0.847593 0
M  V30 11932 H 1107.24 6.53061 -0.564889 0
M  V30 11933 H 1106.76 5.90876 1.03081 0
M  V30 11934 H 1108.44 6.42747 0.740586 0
M  V30 11935 N 1108.58 -0.128553 1.57075 0
M  V30 11936 C 1109.51 -1.18362 1.96273 0
M  V30 11937 C 1110.52 -1.3818 0.860818 0
M  V30 11938 O 1111.71 -1.37424 1.13916 0
M  V30 11939 C 1108.81 -2.54533 2.23755 0
M  V30 11940 C 1107.98 -2.55446 3.55058 0
M  V30 11941 C 1107.04 -3.73291 3.70864 0
M  V30 11942 O 1106.07 -3.57315 4.43074 0
M  V30 11943 N 1107.27 -4.91481 3.08912 0
M  V30 11944 H 1110.03 -0.850276 2.87385 0
M  V30 11945 H 1107.6 -0.317931 1.58748 0
M  V30 11946 H 1109.59 -3.31912 2.31553 0
M  V30 11947 H 1108.16 -2.80087 1.38816 0
M  V30 11948 H 1107.38 -1.6385 3.58534 0
M  V30 11949 H 1108.67 -2.53104 4.4138 0
M  V30 11950 H 1108.06 -5.07364 2.50196 0
M  V30 11951 H 1106.62 -5.6657 3.22245 0
M  V30 11952 N 1110.05 -1.5248 -0.398459 0
M  V30 11953 C 1111 -1.77211 -1.50662 0
M  V30 11954 C 1112 -0.639638 -1.5686 0
M  V30 11955 O 1113.2 -0.821917 -1.60139 0
M  V30 11956 H 1109.58 -0.56057 -0.501264 0
M  V30 11957 H 1111.55 -2.70028 -1.26993 0
M  V30 11958 C 1110.3 -1.94944 -2.8791 0
M  V30 11959 H 1109.62 -2.8151 -2.83888 0
M  V30 11960 H 1111.06 -2.16243 -3.64712 0
M  V30 11961 C 1109.52 -0.719402 -3.29129 0
M  V30 11962 O 1110.05 0.107671 -4.01556 0
M  V30 11963 N 1108.25 -0.552228 -2.85305 0
M  V30 11964 H 1107.8 -1.22638 -2.26534 0
M  V30 11965 H 1107.76 0.269447 -3.13243 0
M  V30 11966 N 1111.53 0.65634 -1.43283 0
M  V30 11967 C 1112.46 1.78122 -1.42646 0
M  V30 11968 C 1113.44 1.60024 -0.288301 0
M  V30 11969 O 1114.63 1.82249 -0.481407 0
M  V30 11970 C 1111.75 3.1538 -1.23505 0
M  V30 11971 C 1110.8 3.52186 -2.40556 0
M  V30 11972 S 1111.63 3.52515 -4.03105 0
M  V30 11973 C 1112.79 4.92435 -3.8634 0
M  V30 11974 H 1113.02 1.78391 -2.37832 0
M  V30 11975 H 1110.55 0.828699 -1.30276 0
M  V30 11976 H 1112.51 3.94598 -1.13148 0
M  V30 11977 H 1111.17 3.12676 -0.298726 0
M  V30 11978 H 1110.37 4.52002 -2.22959 0
M  V30 11979 H 1109.97 2.80373 -2.47522 0
M  V30 11980 H 1112.26 5.81011 -3.48472 0
M  V30 11981 H 1113.2 5.15082 -4.85897 0
M  V30 11982 H 1113.61 4.65823 -3.18857 0
M  V30 11983 N 1113.01 1.29761 0.894412 0
M  V30 11984 C 1114.26 1.17806 1.64214 0
M  V30 11985 C 1114.58 -0.269588 1.93127 0
M  V30 11986 O 1113.85 -1.18352 1.56107 0
M  V30 11987 H 1112.43 0.433002 0.608702 0
M  V30 11988 H 1115.09 1.6276 1.07216 0
M  V30 11989 H 1114.19 1.73201 2.5963 0
M  V30 11990 N 1114.49 -1.10549 1.12324 0
M  V30 11991 C 1115.43 -2.16858 0.790024 0
M  V30 11992 C 1116.4 -1.64317 -0.242694 0
M  V30 11993 O 1117.59 -1.90438 -0.117531 0
M  V30 11994 C 1114.73 -3.44197 0.249503 0
M  V30 11995 C 1113.84 -4.10696 1.33989 0
M  V30 11996 C 1112.98 -5.25751 0.758932 0
M  V30 11997 C 1112.02 -5.8415 1.82853 0
M  V30 11998 N 1111.15 -6.90585 1.26637 0
M  V30 11999 H 1115.99 -2.44705 1.7007 0
M  V30 12000 H 1113.53 -1.20117 0.849141 0
M  V30 12001 H 1115.49 -4.1712 -0.0819251 0
M  V30 12002 H 1114.12 -3.16705 -0.624332 0
M  V30 12003 H 1113.17 -3.35754 1.78812 0
M  V30 12004 H 1114.48 -4.50144 2.14875 0
M  V30 12005 H 1113.64 -6.05521 0.378104 0
M  V30 12006 H 1112.38 -4.87632 -0.0811405 0
M  V30 12007 H 1111.38 -5.03051 2.21856 0
M  V30 12008 H 1112.61 -6.24333 2.6718 0
M  V30 12009 H 1110.55 -6.54468 0.448105 0
M  V30 12010 H 1110.47 -7.28739 2.01184 0
M  V30 12011 H 1111.74 -7.74138 0.912737 0
M  V30 12012 N 1115.97 -0.914965 -1.28321 0
M  V30 12013 C 1117.38 -0.613297 -1.47346 0
M  V30 12014 C 1117.58 0.84106 -1.83108 0
M  V30 12015 O 1116.64 1.62004 -1.93678 0
M  V30 12016 C 1117.95 -1.55224 -2.57538 0
M  V30 12017 C 1119.5 -1.55909 -2.71407 0
M  V30 12018 C 1119.97 -2.48468 -3.84744 0
M  V30 12019 N 1121.46 -2.46602 -3.92099 0
M  V30 12020 C 1122.2 -3.14917 -4.79182 0
M  V30 12021 N 1121.7 -3.92566 -5.70845 0
M  V30 12022 N 1123.49 -3.03998 -4.72802 0
M  V30 12023 H 1115.64 -1.85539 -1.03388 0
M  V30 12024 H 1117.9 -0.795875 -0.515061 0
M  V30 12025 H 1117.61 -2.58917 -2.38023 0
M  V30 12026 H 1117.48 -1.28426 -3.54664 0
M  V30 12027 H 1119.87 -0.52953 -2.9031 0
M  V30 12028 H 1119.95 -1.86751 -1.74808 0
M  V30 12029 H 1119.59 -3.51526 -3.66595 0
M  V30 12030 H 1119.52 -2.14928 -4.80743 0
M  V30 12031 H 1122.02 -1.90199 -3.26547 0
M  V30 12032 H 1122.33 -4.41709 -6.34123 0
M  V30 12033 H 1120.67 -3.96671 -5.70681 0
M  V30 12034 H 1123.86 -2.42839 -4.00184 0
M  V30 12035 H 1124.04 -3.57511 -5.40454 0
M  V30 12036 N 1117.44 1.42219 -0.679077 0
M  V30 12037 C 1118.41 2.29197 -0.0125475 0
M  V30 12038 C 1119.41 1.43544 0.724691 0
M  V30 12039 O 1120.6 1.64884 0.562052 0
M  V30 12040 C 1117.73 3.26122 0.992846 0
M  V30 12041 H 1118.92 2.89629 -0.778154 0
M  V30 12042 H 1116.47 1.4993 -0.44166 0
M  V30 12043 H 1117.21 2.70637 1.78679 0
M  V30 12044 H 1116.99 3.89302 0.467544 0
M  V30 12045 H 1118.48 3.91339 1.45751 0
M  V30 12046 N 1118.92 0.422693 1.51826 0
M  V30 12047 C 1119.85 -0.386913 2.30272 0
M  V30 12048 C 1120.83 -1.03411 1.35056 0
M  V30 12049 O 1122.02 -1.04055 1.6397 0
M  V30 12050 C 1119.15 -1.49645 3.13407 0
M  V30 12051 C 1118.1 -0.973532 4.16781 0
M  V30 12052 C 1117.43 -2.1777 4.88344 0
M  V30 12053 C 1118.73 -0.0181194 5.22297 0
M  V30 12054 H 1120.42 0.267697 2.98201 0
M  V30 12055 H 1117.97 0.130186 1.4341 0
M  V30 12056 H 1119.92 -2.06993 3.67059 0
M  V30 12057 H 1118.64 -2.17914 2.43272 0
M  V30 12058 H 1117.3 -0.42237 3.64159 0
M  V30 12059 H 1116.95 -2.84625 4.14726 0
M  V30 12060 H 1116.65 -1.83427 5.58237 0
M  V30 12061 H 1118.18 -2.75699 5.44814 0
M  V30 12062 H 1119.59 -0.500822 5.71108 0
M  V30 12063 H 1117.99 0.237163 5.99631 0
M  V30 12064 H 1119.06 0.923065 4.76033 0
M  V30 12065 N 1120.4 -1.5685 0.153553 0
M  V30 12066 C 1121.82 -1.58306 -0.202801 0
M  V30 12067 C 1122.02 -1.16813 -1.64186 0
M  V30 12068 O 1121.07 -0.871468 -2.36985 0
M  V30 12069 C 1122.38 -3.00636 0.0619012 0
M  V30 12070 C 1123.93 -3.13 -0.00129219 0
M  V30 12071 C 1124.41 -4.57391 0.236164 0
M  V30 12072 N 1125.9 -4.62837 0.18332 0
M  V30 12073 C 1126.63 -5.72382 0.341471 0
M  V30 12074 N 1126.13 -6.90552 0.557704 0
M  V30 12075 N 1127.92 -5.61409 0.278615 0
M  V30 12076 H 1120.07 -1.82113 1.09309 0
M  V30 12077 H 1122.34 -0.843228 0.433209 0
M  V30 12078 H 1122.04 -3.35406 1.0581 0
M  V30 12079 H 1121.92 -3.71477 -0.654555 0
M  V30 12080 H 1124.3 -2.78068 -0.98805 0
M  V30 12081 H 1124.38 -2.44632 0.747596 0
M  V30 12082 H 1124.03 -4.93029 1.22005 0
M  V30 12083 H 1123.96 -5.23894 -0.533125 0
M  V30 12084 H 1126.45 -3.77894 0.0211138 0
M  V30 12085 H 1126.76 -7.69905 0.66831 0
M  V30 12086 H 1125.11 -6.92456 0.594105 0
M  V30 12087 H 1128.3 -4.6797 0.110401 0
M  V30 12088 H 1128.47 -6.46731 0.4053 0
M  V30 12089 N 1121.88 0.120221 -1.57141 0
M  V30 12090 C 1123.11 0.842441 -1.88972 0
M  V30 12091 C 1123.52 1.73494 -0.744671 0
M  V30 12092 O 1122.88 1.80268 0.284557 0
M  V30 12093 C 1122.93 1.67688 -3.20254 0
M  V30 12094 O 1122.65 0.820319 -4.30351 0
M  V30 12095 C 1124.15 2.50436 -3.65782 0
M  V30 12096 H 1121.37 0.242241 -0.625748 0
M  V30 12097 H 1123.91 0.104978 -2.0423 0
M  V30 12098 H 1122.07 2.36712 -3.0667 0
M  V30 12099 H 1122.48 1.39575 -5.05588 0
M  V30 12100 H 1123.96 3.04518 -4.60405 0
M  V30 12101 H 1124.43 3.27737 -2.92378 0
M  V30 12102 H 1125.04 1.86657 -3.82151 0
M  V30 12103 N 1123.36 1.52689 0.390367 0
M  V30 12104 C 1124.29 1.80338 1.48325 0
M  V30 12105 C 1125.27 0.655338 1.56969 0
M  V30 12106 O 1126.45 0.902792 1.7194 0
M  V30 12107 C 1123.58 1.97101 2.85952 0
M  V30 12108 C 1122.54 3.12783 2.92148 0
M  V30 12109 C 1121.86 3.14798 4.32211 0
M  V30 12110 C 1123.16 4.5188 2.61919 0
M  V30 12111 H 1124.86 2.71857 1.25437 0
M  V30 12112 H 1122.4 1.30813 0.601995 0
M  V30 12113 H 1124.36 2.15027 3.62411 0
M  V30 12114 H 1123.08 1.02271 3.10174 0
M  V30 12115 H 1121.74 2.94638 2.18137 0
M  V30 12116 H 1121.39 2.17653 4.53471 0
M  V30 12117 H 1121.09 3.92507 4.37278 0
M  V30 12118 H 1122.61 3.34877 5.10578 0
M  V30 12119 H 1124.02 4.70134 3.28096 0
M  V30 12120 H 1122.42 5.31647 2.78337 0
M  V30 12121 H 1123.49 4.58689 1.57266 0
M  V30 12122 N 1124.83 -0.648732 1.43629 0
M  V30 12123 C 1126.06 -1.44117 1.49148 0
M  V30 12124 C 1126.48 -1.87767 0.111952 0
M  V30 12125 O 1125.84 -1.57655 -0.895249 0
M  V30 12126 C 1125.89 -2.64938 2.44623 0
M  V30 12127 O 1124.99 -3.64155 1.93559 0
M  V30 12128 H 1124.34 -0.431933 0.504312 0
M  V30 12129 H 1126.87 -0.793439 1.88589 0
M  V30 12130 H 1126.88 -3.12698 2.62076 0
M  V30 12131 H 1125.55 -2.3251 3.44836 0
M  V30 12132 H 1124.13 -3.23322 1.85789 0
M  V30 12133 N 1126.31 -1.30234 -0.887518 0
M  V30 12134 C 1127.56 -1.1891 -1.6391 0
M  V30 12135 C 1127.89 0.256749 -1.92798 0
M  V30 12136 O 1127.14 1.20047 -1.54555 0
M  V30 12137 C 1127.44 -1.96046 -2.98832 0
M  V30 12138 C 1127.11 -3.45683 -2.89507 0
M  V30 12139 C 1125.77 -3.86489 -2.8667 0
M  V30 12140 C 1128.12 -4.40983 -2.7782 0
M  V30 12141 C 1125.45 -5.2089 -2.69982 0
M  V30 12142 C 1127.8 -5.75489 -2.6267 0
M  V30 12143 C 1126.47 -6.15537 -2.58207 0
M  V30 12144 H 1125.74 -0.435123 -0.599791 0
M  V30 12145 H 1128.38 -1.61308 -1.03209 0
M  V30 12146 H 1126.69 -1.46275 -3.6347 0
M  V30 12147 H 1128.38 -1.84678 -3.55942 0
M  V30 12148 H 1124.97 -3.13255 -2.92523 0
M  V30 12149 H 1129.16 -4.10401 -2.79079 0
M  V30 12150 H 1124.41 -5.51014 -2.6494 0
M  V30 12151 H 1128.59 -6.48973 -2.526 0
M  V30 12152 H 1126.22 -7.19627 -2.45034 0
M  V30 12153 N 1127.79 1.09952 -1.12909 0
M  V30 12154 C 1128.75 2.14615 -0.804548 0
M  V30 12155 C 1129.75 1.5975 0.18345 0
M  V30 12156 O 1130.94 1.74147 -0.0429623 0
M  V30 12157 C 1128.08 3.40333 -0.196471 0
M  V30 12158 H 1129.27 2.44835 -1.73193 0
M  V30 12159 H 1126.82 1.25399 -0.932997 0
M  V30 12160 H 1127.56 3.15735 0.740388 0
M  V30 12161 H 1127.34 3.81444 -0.907886 0
M  V30 12162 H 1128.83 4.17598 0.0139264 0
M  V30 12163 N 1129.27 0.921757 1.27833 0
M  V30 12164 C 1130.5 0.574368 1.98455 0
M  V30 12165 C 1130.91 -0.850577 1.69002 0
M  V30 12166 O 1130.25 -1.57607 0.943708 0
M  V30 12167 C 1130.31 0.713235 3.52354 0
M  V30 12168 C 1129.98 2.1092 4.05415 0
M  V30 12169 C 1130.97 3.08276 4.18643 0
M  V30 12170 C 1128.66 2.42454 4.3991 0
M  V30 12171 C 1130.65 4.35279 4.6563 0
M  V30 12172 C 1128.34 3.69694 4.8659 0
M  V30 12173 C 1129.34 4.6592 4.99407 0
M  V30 12174 O 1129.02 5.90896 5.45066 0
M  V30 12175 H 1128.76 0.216955 0.640239 0
M  V30 12176 H 1131.31 1.23932 1.63798 0
M  V30 12177 H 1129.54 -0.00881115 3.86699 0
M  V30 12178 H 1131.23 0.371776 4.04194 0
M  V30 12179 H 1132 2.85234 3.92258 0
M  V30 12180 H 1127.87 1.68303 4.2918 0
M  V30 12181 H 1131.42 5.10391 4.75549 0
M  V30 12182 H 1127.32 3.92557 5.12415 0
M  V30 12183 H 1128.08 5.938 5.63333 0
M  V30 12184 N 1130.75 -1.41857 0.686609 0
M  V30 12185 C 1131.69 -2.30795 0.015643 0
M  V30 12186 C 1132.66 -1.46616 -0.780569 0
M  V30 12187 O 1133.85 -1.75423 -0.750424 0
M  V30 12188 C 1130.99 -3.32577 -0.921229 0
M  V30 12189 C 1130.1 -4.3184 -0.117585 0
M  V30 12190 C 1129.24 -5.20693 -1.05128 0
M  V30 12191 C 1128.28 -6.11629 -0.240018 0
M  V30 12192 N 1127.41 -6.92995 -1.12704 0
M  V30 12193 H 1132.25 -2.87615 0.77985 0
M  V30 12194 H 1129.79 -1.41661 0.396298 0
M  V30 12195 H 1131.75 -3.90129 -1.47836 0
M  V30 12196 H 1130.38 -2.77328 -1.65193 0
M  V30 12197 H 1129.43 -3.7631 0.55634 0
M  V30 12198 H 1130.74 -4.96168 0.511753 0
M  V30 12199 H 1129.9 -5.83035 -1.67795 0
M  V30 12200 H 1128.63 -4.5657 -1.71449 0
M  V30 12201 H 1127.64 -5.48345 0.399779 0
M  V30 12202 H 1128.86 -6.77805 0.419266 0
M  V30 12203 H 1126.81 -6.31489 -1.77644 0
M  V30 12204 H 1126.73 -7.53974 -0.553065 0
M  V30 12205 H 1128 -7.59813 -1.7408 0
M  V30 12206 N 1132.22 -0.430739 -1.51599 0
M  V30 12207 C 1133.17 0.384024 -2.27583 0
M  V30 12208 C 1134.14 1.02254 -1.30895 0
M  V30 12209 O 1135.33 1.0427 -1.59789 0
M  V30 12210 C 1132.47 1.48291 -3.11615 0
M  V30 12211 C 1131.58 0.863187 -4.23288 0
M  V30 12212 C 1130.71 1.93657 -4.94642 0
M  V30 12213 C 1129.75 1.29493 -5.98246 0
M  V30 12214 N 1128.89 2.30939 -6.63032 0
M  V30 12215 H 1133.73 -0.270314 -2.96771 0
M  V30 12216 H 1131.27 -0.145148 -1.46382 0
M  V30 12217 H 1133.23 2.13124 -3.58656 0
M  V30 12218 H 1131.86 2.10697 -2.44554 0
M  V30 12219 H 1130.91 0.103326 -3.8026 0
M  V30 12220 H 1132.22 0.354676 -4.97537 0
M  V30 12221 H 1131.37 2.66167 -5.45197 0
M  V30 12222 H 1130.11 2.4788 -4.20008 0
M  V30 12223 H 1129.12 0.555262 -5.46989 0
M  V30 12224 H 1130.34 0.760122 -6.74833 0
M  V30 12225 H 1128.29 2.84254 -5.91216 0
M  V30 12226 H 1128.21 1.84961 -7.33025 0
M  V30 12227 H 1129.47 3.02953 -7.1822 0
M  V30 12228 N 1133.7 1.56767 -0.161869 0
M  V30 12229 C 1134.63 2.20511 0.767918 0
M  V30 12230 C 1135.61 1.15783 1.24612 0
M  V30 12231 O 1136.8 1.44179 1.301 0
M  V30 12232 C 1133.93 2.83844 2.00125 0
M  V30 12233 C 1132.88 3.94528 1.65926 0
M  V30 12234 C 1132.21 4.44866 2.96646 0
M  V30 12235 C 1133.51 5.14583 0.894497 0
M  V30 12236 H 1135.2 2.98464 0.236607 0
M  V30 12237 H 1132.75 1.43561 0.112363 0
M  V30 12238 H 1134.7 3.27109 2.65664 0
M  V30 12239 H 1133.43 2.03246 2.55654 0
M  V30 12240 H 1132.08 3.51904 1.02759 0
M  V30 12241 H 1131.73 3.61071 3.50196 0
M  V30 12242 H 1131.43 5.19531 2.74521 0
M  V30 12243 H 1132.96 4.90812 3.6323 0
M  V30 12244 H 1134.37 5.54601 1.45228 0
M  V30 12245 H 1132.77 5.95105 0.772636 0
M  V30 12246 H 1133.84 4.84773 -0.110986 0
M  V30 12247 N 1135.18 -0.111886 1.57202 0
M  V30 12248 C 1136.41 -0.836317 1.89791 0
M  V30 12249 C 1136.83 -1.72304 0.754513 0
M  V30 12250 O 1136.19 -1.78889 -0.294672 0
M  V30 12251 C 1136.24 -1.63971 3.21164 0
M  V30 12252 O 1135.34 -2.74726 3.0757 0
M  V30 12253 H 1134.68 -0.230833 0.622585 0
M  V30 12254 H 1137.21 -0.0921478 2.04392 0
M  V30 12255 H 1137.22 -2.02746 3.54059 0
M  V30 12256 H 1135.9 -0.98882 4.03974 0
M  V30 12257 H 1134.47 -2.39101 2.86156 0
M  V30 12258 N 1136.66 -1.52894 -0.382264 0
M  V30 12259 C 1137.88 -1.72453 -1.15216 0
M  V30 12260 C 1138.31 -0.444925 -1.82762 0
M  V30 12261 O 1137.67 0.599825 -1.7109 0
M  V30 12262 C 1137.71 -2.87939 -2.17079 0
M  V30 12263 O 1136.82 -2.55383 -3.23811 0
M  V30 12264 H 1136.16 -0.57324 -0.335099 0
M  V30 12265 H 1138.69 -1.99713 -0.444495 0
M  V30 12266 H 1138.7 -3.13628 -2.60963 0
M  V30 12267 H 1137.37 -3.80765 -1.67305 0
M  V30 12268 H 1135.95 -2.40457 -2.85018 0
M  V30 12269 N 1138.14 0.641106 -1.43971 0
M  V30 12270 C 1139.08 1.75352 -1.50068 0
M  V30 12271 C 1140.05 1.62386 -0.349266 0
M  V30 12272 O 1141.24 1.82455 -0.558118 0
M  V30 12273 C 1138.38 3.13561 -1.4413 0
M  V30 12274 C 1137.49 3.37574 -2.6957 0
M  V30 12275 C 1136.63 4.65698 -2.55535 0
M  V30 12276 C 1135.67 4.82857 -3.76186 0
M  V30 12277 N 1134.8 6.02249 -3.60888 0
M  V30 12278 H 1139.64 1.69477 -2.45116 0
M  V30 12279 H 1137.18 0.826871 -1.2166 0
M  V30 12280 H 1139.14 3.93476 -1.38681 0
M  V30 12281 H 1137.77 3.18476 -0.526563 0
M  V30 12282 H 1136.82 2.5167 -2.85248 0
M  V30 12283 H 1138.13 3.46135 -3.59154 0
M  V30 12284 H 1137.29 5.53759 -2.47862 0
M  V30 12285 H 1136.03 4.59479 -1.63495 0
M  V30 12286 H 1135.03 3.93229 -3.84254 0
M  V30 12287 H 1136.26 4.90898 -4.6925 0
M  V30 12288 H 1134.2 5.97138 -2.71591 0
M  V30 12289 H 1134.12 6.11822 -4.44083 0
M  V30 12290 H 1135.39 6.92898 -3.57088 0
M  V30 12291 N 1139.62 1.30703 0.880598 0
M  V30 12292 C 1140.89 1.1043 1.61445 0
M  V30 12293 C 1141.27 -0.344837 2.08264 0
M  V30 12294 O 1140.62 -1.33711 1.85293 0
M  V30 12295 C 1140.83 2.10908 2.78063 0
M  V30 12296 C 1142.18 2.42861 3.48287 0
M  V30 12297 O 1143.2 2.09252 2.88257 0
M  V30 12298 O 1142.06 3.00369 4.56553 0
M  V30 12299 H 1139.16 0.424419 0.709787 0
M  V30 12300 H 1141.7 1.42144 0.926991 0
M  V30 12301 H 1140.47 3.08431 2.40803 0
M  V30 12302 H 1140.1 1.80036 3.54503 0
M  V30 12303 N 1141.09 -1.09351 1.1349 0
M  V30 12304 C 1142.02 -2.18037 0.835588 0
M  V30 12305 C 1143 -1.68856 -0.205373 0
M  V30 12306 O 1144.19 -1.94094 -0.0641357 0
M  V30 12307 C 1141.32 -3.45987 0.301661 0
M  V30 12308 C 1140.27 -4.08507 1.27696 0
M  V30 12309 C 1139.6 -5.31292 0.602758 0
M  V30 12310 C 1140.9 -4.50916 2.63575 0
M  V30 12311 H 1142.59 -2.43332 1.74441 0
M  V30 12312 H 1140.14 -1.1695 0.840166 0
M  V30 12313 H 1142.09 -4.21324 0.079928 0
M  V30 12314 H 1140.82 -3.20217 -0.642552 0
M  V30 12315 H 1139.48 -3.3519 1.4847 0
M  V30 12316 H 1139.12 -5.01802 -0.346953 0
M  V30 12317 H 1138.82 -5.74075 1.25345 0
M  V30 12318 H 1140.35 -6.09351 0.390325 0
M  V30 12319 H 1141.76 -5.17474 2.46765 0
M  V30 12320 H 1140.16 -5.04586 3.24827 0
M  V30 12321 H 1141.23 -3.63279 3.2118 0
M  V30 12322 N 1142.57 -0.928524 -1.27343 0
M  V30 12323 C 1143.52 -0.418768 -2.28799 0
M  V30 12324 C 1144.51 0.497334 -1.61935 0
M  V30 12325 O 1145.72 0.376945 -1.76009 0
M  V30 12326 H 1142.09 -0.116855 -0.742865 0
M  V30 12327 H 1144.07 -1.28725 -2.69207 0
M  V30 12328 C 1142.81 0.312422 -3.46294 0
M  V30 12329 H 1142.14 -0.383317 -3.97958 0
M  V30 12330 H 1143.58 0.633514 -4.19241 0
M  V30 12331 C 1142.04 1.5257 -3.00373 0
M  V30 12332 O 1142.57 2.62443 -3.04116 0
M  V30 12333 N 1140.77 1.37782 -2.5586 0
M  V30 12334 H 1140.32 0.483908 -2.53014 0
M  V30 12335 H 1140.28 2.19085 -2.25498 0
M  V30 12336 N 1144.05 1.41491 -0.694123 0
M  V30 12337 C 1145.3 2.00479 -0.221585 0
M  V30 12338 C 1145.61 1.55605 1.18518 0
M  V30 12339 O 1146.82 2.07143 1.7551 0
M  V30 12340 C 1145.27 3.5824 -0.345264 0
M  V30 12341 C 1144.88 4.12096 -1.7573 0
M  V30 12342 C 1146.63 4.24446 0.0675731 0
M  V30 12343 C 1144.53 5.62286 -1.83271 0
M  V30 12344 H 1143.46 0.749841 -0.0790854 0
M  V30 12345 H 1146.11 1.61987 -0.86211 0
M  V30 12346 H 1144.5 3.94328 0.363487 0
M  V30 12347 H 1145.67 3.8743 -2.49469 0
M  V30 12348 H 1143.98 3.58411 -2.11969 0
M  V30 12349 H 1146.58 5.34691 0.0316485 0
M  V30 12350 H 1146.92 4.01338 1.10606 0
M  V30 12351 H 1147.46 3.93388 -0.59085 0
M  V30 12352 H 1144.2 5.9022 -2.85168 0
M  V30 12353 H 1143.72 5.88883 -1.13914 0
M  V30 12354 H 1145.4 6.27033 -1.59494 0
M  V30 12355 N 1145.53 0.438773 1.51369 0
M  V30 12356 C 1146.47 -0.37195 2.27783 0
M  V30 12357 C 1147.44 -1.01558 1.31435 0
M  V30 12358 O 1148.63 -1.03421 1.60339 0
M  V30 12359 C 1145.77 -1.46636 3.12397 0
M  V30 12360 C 1144.88 -0.840727 4.2374 0
M  V30 12361 C 1144.02 -1.91031 4.95662 0
M  V30 12362 C 1143.06 -1.26318 5.98924 0
M  V30 12363 N 1142.19 -2.27419 6.64248 0
M  V30 12364 H 1147.03 0.286048 2.96624 0
M  V30 12365 H 1144.57 0.152909 1.46303 0
M  V30 12366 H 1146.53 -2.11219 3.59781 0
M  V30 12367 H 1145.16 -2.09397 2.45668 0
M  V30 12368 H 1144.21 -0.0831588 3.80309 0
M  V30 12369 H 1145.52 -0.328285 4.97719 0
M  V30 12370 H 1144.68 -2.63272 5.46601 0
M  V30 12371 H 1143.42 -2.45649 4.21317 0
M  V30 12372 H 1142.42 -0.526246 5.47276 0
M  V30 12373 H 1143.65 -0.724324 6.75226 0
M  V30 12374 H 1141.59 -2.81114 5.92715 0
M  V30 12375 H 1141.51 -1.81071 7.33996 0
M  V30 12376 H 1142.78 -2.99139 7.19817 0
M  V30 12377 N 1147.01 -1.56678 0.170181 0
M  V30 12378 C 1147.95 -2.19222 -0.777459 0
M  V30 12379 C 1148.95 -1.15592 -1.23834 0
M  V30 12380 O 1150.15 -1.33794 -1.20412 0
M  V30 12381 H 1146.53 -0.702244 -0.268992 0
M  V30 12382 H 1148.5 -2.97543 -0.225989 0
M  V30 12383 C 1147.25 -2.84631 -1.997 0
M  V30 12384 H 1146.57 -3.641 -1.65139 0
M  V30 12385 H 1148.01 -3.31864 -2.63898 0
M  V30 12386 C 1146.47 -1.84345 -2.81991 0
M  V30 12387 O 1147 -1.32821 -3.79106 0
M  V30 12388 N 1145.21 -1.53127 -2.46983 0
M  V30 12389 H 1144.75 -1.95219 -1.6807 0
M  V30 12390 H 1144.71 -0.862787 -3.0233 0
M  V30 12391 N 1148.48 0.103547 -1.57259 0
M  V30 12392 C 1149.71 0.82235 -1.89855 0
M  V30 12393 C 1150.13 1.72694 -0.76303 0
M  V30 12394 O 1149.48 1.8056 0.265421 0
M  V30 12395 C 1149.53 1.64282 -3.22015 0
M  V30 12396 O 1149.26 0.774628 -4.31197 0
M  V30 12397 C 1150.76 2.46543 -3.68418 0
M  V30 12398 H 1147.98 0.235591 -0.628282 0
M  V30 12399 H 1150.52 0.0833106 -2.0433 0
M  V30 12400 H 1148.68 2.33446 -3.09163 0
M  V30 12401 H 1149.09 1.34205 -5.0704 0
M  V30 12402 H 1150.56 2.99618 -4.63609 0
M  V30 12403 H 1151.04 3.24618 -2.95838 0
M  V30 12404 H 1151.65 1.82594 -3.84109 0
M  V30 12405 N 1149.96 1.53094 0.37415 0
M  V30 12406 C 1151.24 1.59456 1.13283 0
M  V30 12407 C 1151.62 0.396821 2.07337 0
M  V30 12408 O 1150.97 -0.613659 2.20106 0
M  V30 12409 C 1151.18 2.94069 1.87948 0
M  V30 12410 C 1152.52 3.4834 2.42785 0
M  V30 12411 O 1153.55 2.96042 1.98085 0
M  V30 12412 O 1152.41 4.39747 3.24477 0
M  V30 12413 H 1149.5 0.643731 0.519171 0
M  V30 12414 H 1152.05 1.65434 0.378105 0
M  V30 12415 H 1150.82 3.72685 1.19255 0
M  V30 12416 H 1150.44 2.91544 2.70348 0
M  V30 12417 N 1151.44 -0.633461 1.44309 0
M  V30 12418 C 1152.72 -1.3917 1.37444 0
M  V30 12419 C 1153.1 -2.11076 0.0319994 0
M  V30 12420 O 1152.44 -2.06164 -0.98533 0
M  V30 12421 C 1152.65 -2.36005 2.57104 0
M  V30 12422 C 1154 -2.99407 3.01065 0
M  V30 12423 O 1155.03 -2.46331 2.57292 0
M  V30 12424 O 1153.89 -3.95686 3.76954 0
M  V30 12425 H 1150.98 -0.622746 0.544166 0
M  V30 12426 H 1153.53 -0.658712 1.56394 0
M  V30 12427 H 1152.3 -1.81955 3.46422 0
M  V30 12428 H 1151.92 -3.16725 2.40356 0
M  V30 12429 N 1152.92 -1.31168 -0.873655 0
M  V30 12430 C 1154.15 -1.23416 -1.65686 0
M  V30 12431 C 1154.56 0.203534 -1.88102 0
M  V30 12432 O 1153.9 1.14476 -1.4367 0
M  V30 12433 C 1153.96 -1.90418 -3.04929 0
M  V30 12434 C 1153.63 -3.39757 -3.05637 0
M  V30 12435 C 1154.62 -4.35565 -2.83865 0
M  V30 12436 C 1152.31 -3.81389 -3.26875 0
M  V30 12437 C 1154.3 -5.70979 -2.83304 0
M  V30 12438 C 1151.99 -5.16918 -3.25943 0
M  V30 12439 C 1152.99 -6.11524 -3.04184 0
M  V30 12440 O 1152.67 -7.44575 -3.0309 0
M  V30 12441 H 1152.41 -0.4278 -0.523415 0
M  V30 12442 H 1154.96 -1.73525 -1.09902 0
M  V30 12443 H 1153.19 -1.34854 -3.62424 0
M  V30 12444 H 1154.88 -1.76631 -3.65453 0
M  V30 12445 H 1155.65 -4.0473 -2.67243 0
M  V30 12446 H 1151.52 -3.08187 -3.42844 0
M  V30 12447 H 1155.07 -6.44796 -2.66239 0
M  V30 12448 H 1150.97 -5.47389 -3.42104 0
M  V30 12449 H 1151.73 -7.53703 -3.19177 0
M  V30 12450 N 1154.4 1.08748 -1.14068 0
M  V30 12451 C 1155.63 1.84546 -0.928789 0
M  V30 12452 C 1156.03 1.81741 0.526007 0
M  V30 12453 O 1155.38 1.2169 1.37613 0
M  V30 12454 C 1155.44 3.33282 -1.34771 0
M  V30 12455 C 1155.1 3.59826 -2.81734 0
M  V30 12456 C 1156.1 3.54964 -3.79864 0
M  V30 12457 C 1153.79 3.87949 -3.19063 0
M  V30 12458 C 1155.78 3.77847 -5.13332 0
M  V30 12459 C 1153.47 4.10487 -4.52707 0
M  V30 12460 C 1154.46 4.05429 -5.49651 0
M  V30 12461 O 1154.15 4.27378 -6.80884 0
M  V30 12462 H 1153.88 0.589555 -0.330758 0
M  V30 12463 H 1156.44 1.38275 -1.51886 0
M  V30 12464 H 1154.67 3.80294 -0.700948 0
M  V30 12465 H 1156.36 3.90508 -1.10718 0
M  V30 12466 H 1157.12 3.33256 -3.52371 0
M  V30 12467 H 1153 3.91007 -2.44201 0
M  V30 12468 H 1156.55 3.73815 -5.88989 0
M  V30 12469 H 1152.44 4.31677 -4.79922 0
M  V30 12470 H 1153.21 4.44802 -6.8709 0
M  V30 12471 N 1155.87 0.935264 1.26849 0
M  V30 12472 C 1156.82 0.438896 2.26588 0
M  V30 12473 C 1157.79 -0.498267 1.5845 0
M  V30 12474 O 1158.98 -0.415771 1.86215 0
M  V30 12475 C 1156.12 -0.295293 3.43834 0
M  V30 12476 C 1155.23 0.676857 4.26665 0
M  V30 12477 C 1154.36 -0.0779349 5.31143 0
M  V30 12478 C 1153.4 0.886425 6.05648 0
M  V30 12479 N 1152.54 0.163771 7.01909 0
M  V30 12480 H 1157.38 1.29439 2.6842 0
M  V30 12481 H 1154.92 0.649523 1.31983 0
M  V30 12482 H 1156.88 -0.737354 4.10632 0
M  V30 12483 H 1155.51 -1.11497 3.02933 0
M  V30 12484 H 1154.56 1.23744 3.5971 0
M  V30 12485 H 1155.87 1.41355 4.78351 0
M  V30 12486 H 1155.02 -0.579557 6.03926 0
M  V30 12487 H 1153.76 -0.84755 4.80279 0
M  V30 12488 H 1152.77 1.39923 5.31697 0
M  V30 12489 H 1153.99 1.65595 6.58601 0
M  V30 12490 H 1151.94 -0.58746 6.53364 0
M  V30 12491 H 1151.86 0.839902 7.5132 0
M  V30 12492 H 1153.12 -0.316951 7.78855 0
M  V30 12493 N 1157.35 -1.41121 0.701616 0
M  V30 12494 C 1158.28 -2.33436 0.0545974 0
M  V30 12495 C 1159.26 -1.52144 -0.760662 0
M  V30 12496 O 1160.45 -1.80661 -0.712414 0
M  V30 12497 C 1157.58 -3.36015 -0.878117 0
M  V30 12498 C 1156.53 -4.27664 -0.169511 0
M  V30 12499 C 1155.86 -5.20666 -1.21699 0
M  V30 12500 C 1157.16 -5.13254 0.967859 0
M  V30 12501 H 1158.85 -2.87791 0.825637 0
M  V30 12502 H 1156.4 -1.38377 0.398484 0
M  V30 12503 H 1158.35 -3.99526 -1.34004 0
M  V30 12504 H 1157.08 -2.80024 -1.68089 0
M  V30 12505 H 1155.73 -3.65586 0.272441 0
M  V30 12506 H 1155.38 -4.60987 -2.01246 0
M  V30 12507 H 1155.08 -5.82822 -0.747836 0
M  V30 12508 H 1156.61 -5.87053 -1.6793 0
M  V30 12509 H 1158.02 -5.70298 0.585944 0
M  V30 12510 H 1156.42 -5.84381 1.3645 0
M  V30 12511 H 1157.49 -4.5006 1.80483 0
M  V30 12512 N 1158.83 -0.446794 -1.51134 0
M  V30 12513 C 1159.74 0.36579 -2.31731 0
M  V30 12514 C 1160.76 1.01886 -1.41051 0
M  V30 12515 O 1161.93 1.01216 -1.74119 0
M  V30 12516 C 1159 1.44705 -3.15058 0
M  V30 12517 C 1158.06 0.813129 -4.21529 0
M  V30 12518 C 1157.29 1.84287 -5.00873 0
M  V30 12519 O 1157.51 3.06633 -4.8097 0
M  V30 12520 O 1156.45 1.42816 -5.84711 0
M  V30 12521 H 1160.27 -0.292436 -3.02289 0
M  V30 12522 H 1157.86 -0.209129 -1.47929 0
M  V30 12523 H 1159.74 2.07393 -3.66833 0
M  V30 12524 H 1158.42 2.08919 -2.47254 0
M  V30 12525 H 1157.32 0.147953 -3.73807 0
M  V30 12526 H 1158.66 0.214331 -4.91733 0
M  V30 12527 N 1160.31 1.56586 -0.178487 0
M  V30 12528 C 1161.24 2.155 0.780543 0
M  V30 12529 C 1162.25 1.11244 1.18864 0
M  V30 12530 O 1163.44 1.38403 1.12725 0
M  V30 12531 C 1160.54 2.68867 2.0631 0
M  V30 12532 C 1159.72 3.97854 1.81744 0
M  V30 12533 C 1158.77 4.36213 2.94287 0
M  V30 12534 O 1157.8 5.03954 2.64612 0
M  V30 12535 N 1159 3.98356 4.22247 0
M  V30 12536 H 1161.77 2.98419 0.276836 0
M  V30 12537 H 1159.33 1.61899 0.00405241 0
M  V30 12538 H 1161.32 2.91522 2.80708 0
M  V30 12539 H 1159.89 1.90496 2.47851 0
M  V30 12540 H 1159.11 3.83502 0.912127 0
M  V30 12541 H 1160.4 4.82083 1.62707 0
M  V30 12542 H 1159.8 3.43835 4.49215 0
M  V30 12543 H 1158.35 4.25998 4.93325 0
M  V30 12544 N 1161.79 -0.095206 1.57312 0
M  V30 12545 C 1163.06 -0.830388 1.77099 0
M  V30 12546 C 1163.44 -1.9694 0.760121 0
M  V30 12547 O 1162.79 -2.2752 -0.211403 0
M  V30 12548 C 1163 -1.32507 3.22867 0
M  V30 12549 C 1164.35 -1.7679 3.86045 0
M  V30 12550 O 1165.37 -1.42131 3.26615 0
M  V30 12551 O 1164.23 -2.40876 4.90552 0
M  V30 12552 H 1161.33 -0.396083 0.72598 0
M  V30 12553 H 1163.87 -0.0770965 1.69525 0
M  V30 12554 H 1162.64 -0.508992 3.87975 0
M  V30 12555 H 1162.27 -2.14037 3.35073 0
M  V30 12556 N 1163.26 -1.53291 -0.366026 0
M  V30 12557 C 1164.19 -1.82675 -1.45437 0
M  V30 12558 C 1165.18 -0.680227 -1.55907 0
M  V30 12559 O 1166.36 -0.930032 -1.70482 0
M  V30 12560 C 1163.49 -2.01626 -2.8278 0
M  V30 12561 C 1162.44 -3.17391 -2.87135 0
M  V30 12562 C 1161.77 -3.21634 -4.27148 0
M  V30 12563 C 1163.07 -4.5599 -2.54697 0
M  V30 12564 H 1164.76 -2.73818 -1.21096 0
M  V30 12565 H 1162.31 -1.31754 -0.581108 0
M  V30 12566 H 1164.26 -2.20765 -3.58944 0
M  V30 12567 H 1162.99 -1.07193 -3.08508 0
M  V30 12568 H 1161.65 -2.98071 -2.13422 0
M  V30 12569 H 1161.29 -2.2484 -4.49951 0
M  V30 12570 H 1160.99 -3.99414 -4.30978 0
M  V30 12571 H 1162.52 -3.42957 -5.05186 0
M  V30 12572 H 1163.93 -4.75294 -3.20575 0
M  V30 12573 H 1162.33 -5.36008 -2.69844 0
M  V30 12574 H 1163.4 -4.61133 -1.49949 0
M  V30 12575 N 1164.74 0.6258 -1.44643 0
M  V30 12576 C 1165.99 1.38125 -1.46984 0
M  V30 12577 C 1166.3 1.95299 -0.108429 0
M  V30 12578 O 1167.51 2.71498 -0.00940005 0
M  V30 12579 C 1165.97 2.50108 -2.58793 0
M  V30 12580 C 1165.57 1.99424 -4.01166 0
M  V30 12581 C 1167.32 3.27269 -2.70361 0
M  V30 12582 C 1165.23 3.08781 -5.04389 0
M  V30 12583 H 1164.16 0.519083 -0.546872 0
M  V30 12584 H 1166.81 0.67268 -1.70726 0
M  V30 12585 H 1165.19 3.23565 -2.28302 0
M  V30 12586 H 1166.36 1.32797 -4.4125 0
M  V30 12587 H 1164.68 1.35063 -3.93887 0
M  V30 12588 H 1167.27 4.08802 -3.44652 0
M  V30 12589 H 1167.62 3.77097 -1.76362 0
M  V30 12590 H 1168.15 2.60905 -3.00289 0
M  V30 12591 H 1164.89 2.63891 -6.00035 0
M  V30 12592 H 1164.41 3.74033 -4.68892 0
M  V30 12593 H 1166.09 3.73469 -5.28328 0
M  V30 12594 N 1166.22 1.31629 0.866686 0
M  V30 12595 C 1167.45 1.24293 1.6503 0
M  V30 12596 C 1167.86 -0.193556 1.88207 0
M  V30 12597 O 1167.2 -1.13712 1.44275 0
M  V30 12598 C 1167.26 1.92032 3.03914 0
M  V30 12599 C 1166.93 3.41373 3.03831 0
M  V30 12600 C 1167.92 4.37064 2.81551 0
M  V30 12601 C 1165.61 3.83118 3.24848 0
M  V30 12602 C 1167.6 5.72474 2.80272 0
M  V30 12603 C 1165.29 5.18639 3.23197 0
M  V30 12604 C 1166.29 6.13128 3.00936 0
M  V30 12605 O 1165.98 7.46172 2.99137 0
M  V30 12606 H 1165.71 0.430569 0.521139 0
M  V30 12607 H 1168.26 1.74105 1.0898 0
M  V30 12608 H 1166.49 1.36774 3.61704 0
M  V30 12609 H 1168.18 1.78567 3.64512 0
M  V30 12610 H 1168.95 4.06142 2.65093 0
M  V30 12611 H 1164.83 3.10001 3.41204 0
M  V30 12612 H 1168.37 6.46199 2.62816 0
M  V30 12613 H 1164.27 5.49196 3.39197 0
M  V30 12614 H 1165.04 7.55385 3.15175 0
M  V30 12615 N 1167.7 -1.08142 1.14644 0
M  V30 12616 C 1168.63 -2.17139 0.858667 0
M  V30 12617 C 1169.61 -1.69064 -0.187452 0
M  V30 12618 O 1170.8 -1.94151 -0.0435458 0
M  V30 12619 C 1167.93 -3.45648 0.33834 0
M  V30 12620 C 1166.88 -4.07129 1.32021 0
M  V30 12621 C 1166.21 -5.30623 0.659075 0
M  V30 12622 C 1167.51 -4.48095 2.68343 0
M  V30 12623 H 1169.2 -2.41468 1.77012 0
M  V30 12624 H 1166.75 -1.16052 0.852523 0
M  V30 12625 H 1168.7 -4.21216 0.124611 0
M  V30 12626 H 1167.42 -3.2088 -0.608553 0
M  V30 12627 H 1166.08 -3.33596 1.52016 0
M  V30 12628 H 1165.73 -5.02142 -0.293711 0
M  V30 12629 H 1165.43 -5.72714 1.31427 0
M  V30 12630 H 1166.95 -6.08903 0.454933 0
M  V30 12631 H 1168.37 -5.14828 2.5224 0
M  V30 12632 H 1166.76 -5.01113 3.30161 0
M  V30 12633 H 1167.83 -3.59852 3.25015 0
M  V30 12634 N 1169.18 -0.941978 -1.26351 0
M  V30 12635 C 1170.43 -0.588806 -1.93333 0
M  V30 12636 C 1170.75 0.875067 -1.74263 0
M  V30 12637 O 1170.02 1.62187 -1.09873 0
M  V30 12638 H 1168.6 -0.214774 -0.715459 0
M  V30 12639 H 1171.26 -1.19747 -1.53774 0
M  V30 12640 H 1170.35 -0.807267 -3.01479 0
M  V30 12641 N 1170.66 1.40747 -0.709091 0
M  V30 12642 C 1171.9 2.00606 -0.245324 0
M  V30 12643 C 1172.22 1.56489 1.16346 0
M  V30 12644 O 1171.49 0.801456 1.78755 0
M  V30 12645 H 1170.07 0.741833 -0.0877098 0
M  V30 12646 H 1172.74 1.72178 -0.913271 0
M  V30 12647 H 1171.83 3.10901 -0.273322 0
M  V30 12648 N 1172.13 0.454803 1.50895 0
M  V30 12649 C 1173.06 -0.337982 2.31041 0
M  V30 12650 C 1174.04 -1.00523 1.37219 0
M  V30 12651 O 1175.23 -1.00553 1.66141 0
M  V30 12652 C 1172.36 -1.42964 3.1651 0
M  V30 12653 C 1171.31 -0.884907 4.18752 0
M  V30 12654 C 1170.64 -2.07363 4.92854 0
M  V30 12655 C 1171.94 0.0926716 5.22218 0
M  V30 12656 H 1173.63 0.33089 2.97566 0
M  V30 12657 H 1171.18 0.160577 1.43102 0
M  V30 12658 H 1173.13 -1.9916 3.71367 0
M  V30 12659 H 1171.86 -2.12705 2.47839 0
M  V30 12660 H 1170.52 -0.345031 3.64973 0
M  V30 12661 H 1170.16 -2.75764 4.2067 0
M  V30 12662 H 1169.86 -1.71545 5.62002 0
M  V30 12663 H 1171.39 -2.6408 5.5054 0
M  V30 12664 H 1172.8 -0.379568 5.72042 0
M  V30 12665 H 1171.2 0.3643 5.98993 0
M  V30 12666 H 1172.27 1.02383 4.73968 0
M  V30 12667 N 1173.61 -1.56489 0.186789 0
M  V30 12668 C 1174.86 -1.96952 -0.453261 0
M  V30 12669 C 1175.18 -1.07451 -1.62725 0
M  V30 12670 O 1174.45 -0.144046 -1.9537 0
M  V30 12671 H 1173.03 -0.727295 -0.170445 0
M  V30 12672 H 1175.69 -1.92999 0.271584 0
M  V30 12673 H 1174.79 -3.01594 -0.802951 0
M  V30 12674 N 1175.09 0.086862 -1.5736 0
M  V30 12675 C 1176.34 0.787581 -1.85688 0
M  V30 12676 C 1176.65 1.79494 -0.777263 0
M  V30 12677 O 1177.86 2.54415 -0.947914 0
M  V30 12678 C 1176.31 1.45155 -3.2933 0
M  V30 12679 C 1175.92 0.483539 -4.45383 0
M  V30 12680 C 1177.67 2.13552 -3.66873 0
M  V30 12681 C 1175.57 1.15257 -5.8006 0
M  V30 12682 H 1174.5 0.297882 -0.692663 0
M  V30 12683 H 1177.15 0.0406299 -1.83455 0
M  V30 12684 H 1175.54 2.24625 -3.26128 0
M  V30 12685 H 1176.71 -0.280254 -4.59947 0
M  V30 12686 H 1175.02 -0.0951664 -4.16291 0
M  V30 12687 H 1177.62 2.64355 -4.6478 0
M  V30 12688 H 1177.96 2.92818 -2.95911 0
M  V30 12689 H 1178.5 1.40932 -3.71999 0
M  V30 12690 H 1175.24 0.400546 -6.54275 0
M  V30 12691 H 1174.76 1.88759 -5.69324 0
M  V30 12692 H 1176.44 1.67671 -6.24896 0
M  V30 12693 N 1176.57 1.53483 0.357892 0
M  V30 12694 C 1177.82 1.69256 1.09706 0
M  V30 12695 C 1178.13 0.454888 1.90237 0
M  V30 12696 O 1179.34 0.4933 2.66981 0
M  V30 12697 C 1177.79 2.99238 1.99961 0
M  V30 12698 C 1177.4 4.30293 1.24706 0
M  V30 12699 C 1179.14 3.24378 2.73823 0
M  V30 12700 C 1177.05 5.5136 2.13907 0
M  V30 12701 H 1175.98 0.630657 0.413265 0
M  V30 12702 H 1178.63 1.79983 0.357518 0
M  V30 12703 H 1177.01 2.82332 2.77677 0
M  V30 12704 H 1178.19 4.57857 0.519995 0
M  V30 12705 H 1176.5 4.11656 0.626736 0
M  V30 12706 H 1179.1 4.12015 3.40805 0
M  V30 12707 H 1179.44 2.40769 3.39612 0
M  V30 12708 H 1179.98 3.41994 2.03187 0
M  V30 12709 H 1176.71 6.3747 1.52684 0
M  V30 12710 H 1176.23 5.28065 2.84442 0
M  V30 12711 H 1177.91 5.86448 2.7329 0
M  V30 12712 N 1178.05 -0.61812 1.44973 0
M  V30 12713 C 1179.32 -1.37705 1.38913 0
M  V30 12714 C 1179.7 -2.1103 0.054385 0
M  V30 12715 O 1179.05 -2.07197 -0.963409 0
M  V30 12716 C 1179.26 -2.33265 2.59593 0
M  V30 12717 C 1180.61 -2.96197 3.04224 0
M  V30 12718 O 1181.63 -2.43589 2.59891 0
M  V30 12719 O 1180.49 -3.91666 3.8113 0
M  V30 12720 H 1177.59 -0.61694 0.55074 0
M  V30 12721 H 1180.13 -0.642088 1.57084 0
M  V30 12722 H 1178.9 -1.78271 3.48332 0
M  V30 12723 H 1178.53 -3.14158 2.43702 0
M  V30 12724 N 1179.52 -1.32087 -0.859693 0
M  V30 12725 C 1180.93 -1.20107 -1.42938 0
M  V30 12726 C 1181.29 0.188411 -1.95293 0
M  V30 12727 O 1180.41 1.08683 -1.87128 0
M  V30 12728 C 1181.01 -2.17436 -2.59821 0
M  V30 12729 C 1179.56 -2.09359 -3.12803 0
M  V30 12730 C 1178.71 -2.06086 -1.85537 0
M  V30 12731 H 1181.66 -1.43989 -0.667302 0
M  V30 12732 H 1181.68 -1.76996 -3.36828 0
M  V30 12733 H 1181.2 -3.18555 -2.21685 0
M  V30 12734 H 1179.3 -1.1147 -3.55535 0
M  V30 12735 H 1179.41 -2.98947 -3.74389 0
M  V30 12736 H 1177.77 -1.51251 -2.04928 0
M  V30 12737 H 1178.56 -3.08978 -1.49625 0
M  V30 12738 N 1181 1.07532 -1.15215 0
M  V30 12739 C 1182.41 1.61567 -0.935568 0
M  V30 12740 C 1182.76 1.89085 0.523557 0
M  V30 12741 O 1181.89 1.65495 1.39429 0
M  V30 12742 C 1182.48 2.93531 -1.69189 0
M  V30 12743 C 1181.04 3.44316 -1.52063 0
M  V30 12744 C 1180.19 2.18404 -1.70866 0
M  V30 12745 H 1183.14 0.906431 -1.30267 0
M  V30 12746 H 1183.16 3.62377 -1.16031 0
M  V30 12747 H 1182.67 2.73471 -2.75381 0
M  V30 12748 H 1180.77 3.69462 -0.482567 0
M  V30 12749 H 1180.89 4.20478 -2.29642 0
M  V30 12750 H 1179.25 2.28012 -1.13502 0
M  V30 12751 H 1180.03 2.00841 -2.7842 0
M  V30 12752 N 1182.48 0.948665 1.2585 0
M  V30 12753 C 1183.9 0.652147 1.45668 0
M  V30 12754 C 1184.1 -0.792217 1.85273 0
M  V30 12755 O 1183.15 -1.56812 1.97905 0
M  V30 12756 C 1184.47 1.61998 2.53332 0
M  V30 12757 C 1186.01 1.6305 2.67178 0
M  V30 12758 C 1186.49 2.58582 3.78021 0
M  V30 12759 N 1187.98 2.56911 3.85423 0
M  V30 12760 C 1188.71 3.27511 4.70664 0
M  V30 12761 N 1188.21 4.07563 5.60236 0
M  V30 12762 N 1190 3.16427 4.64576 0
M  V30 12763 H 1182.15 1.88215 0.984325 0
M  V30 12764 H 1184.42 0.809251 0.493778 0
M  V30 12765 H 1184.12 2.65137 2.31075 0
M  V30 12766 H 1184 1.37784 3.51134 0
M  V30 12767 H 1186.38 0.606315 2.88804 0
M  V30 12768 H 1186.47 1.9132 1.69795 0
M  V30 12769 H 1186.11 3.61122 3.57146 0
M  V30 12770 H 1186.04 2.27598 4.74875 0
M  V30 12771 H 1188.53 1.9879 3.21389 0
M  V30 12772 H 1188.84 4.58367 6.22189 0
M  V30 12773 H 1187.19 4.11662 5.59964 0
M  V30 12774 H 1190.38 2.53364 3.93604 0
M  V30 12775 H 1190.55 3.71714 5.30785 0
M  V30 12776 N 1183.96 -1.40369 0.716545 0
M  V30 12777 C 1184.91 -2.3071 0.0645944 0
M  V30 12778 C 1185.88 -1.48239 -0.749294 0
M  V30 12779 O 1187.06 -1.76975 -0.713045 0
M  V30 12780 C 1184.2 -3.34456 -0.850478 0
M  V30 12781 C 1183.31 -4.31992 -0.0259594 0
M  V30 12782 C 1182.45 -5.22806 -0.940599 0
M  V30 12783 C 1181.49 -6.12001 -0.110228 0
M  V30 12784 N 1180.62 -6.9523 -0.979796 0
M  V30 12785 H 1185.46 -2.85896 0.840682 0
M  V30 12786 H 1183 -1.40789 0.426258 0
M  V30 12787 H 1184.96 -3.93177 -1.39528 0
M  V30 12788 H 1183.59 -2.8077 -1.59274 0
M  V30 12789 H 1182.64 -3.75045 0.636036 0
M  V30 12790 H 1183.95 -4.94971 0.616883 0
M  V30 12791 H 1183.11 -5.86463 -1.5539 0
M  V30 12792 H 1181.85 -4.60104 -1.61726 0
M  V30 12793 H 1180.85 -5.47373 0.516001 0
M  V30 12794 H 1182.08 -6.76763 0.562944 0
M  V30 12795 H 1180.02 -6.35115 -1.64209 0
M  V30 12796 H 1179.94 -7.54978 -0.393012 0
M  V30 12797 H 1181.21 -7.63335 -1.57924 0
M  V30 12798 N 1185.44 -0.462799 -1.50652 0
M  V30 12799 C 1186.67 0.0928413 -2.06391 0
M  V30 12800 C 1187.07 1.34791 -1.3277 0
M  V30 12801 O 1186.42 1.79555 -0.388048 0
M  V30 12802 C 1186.48 0.45517 -3.56607 0
M  V30 12803 C 1186.14 -0.696698 -4.51658 0
M  V30 12804 C 1187.14 -1.57633 -4.95427 0
M  V30 12805 C 1184.83 -0.884669 -4.94448 0
M  V30 12806 C 1186.82 -2.62841 -5.80684 0
M  V30 12807 C 1184.51 -1.93998 -5.79489 0
M  V30 12808 C 1185.5 -2.81022 -6.22508 0
M  V30 12809 O 1185.19 -3.84738 -7.05856 0
M  V30 12810 H 1184.92 -3.18898e-05 -0.676 0
M  V30 12811 H 1187.48 -0.648161 -1.94905 0
M  V30 12812 H 1185.71 1.24924 -3.65966 0
M  V30 12813 H 1187.4 0.944923 -3.94748 0
M  V30 12814 H 1188.16 -1.44276 -4.63044 0
M  V30 12815 H 1184.04 -0.216807 -4.6049 0
M  V30 12816 H 1187.59 -3.30797 -6.14182 0
M  V30 12817 H 1183.48 -2.07366 -6.11285 0
M  V30 12818 H 1184.25 -3.81626 -7.24088 0
M  V30 12819 N 1186.91 1.56388 -0.195085 0
M  V30 12820 C 1188.16 1.97872 0.444344 0
M  V30 12821 C 1188.49 1.0819 1.61271 0
M  V30 12822 O 1187.77 0.133904 1.94039 0
M  V30 12823 C 1188.05 3.48556 0.90449 0
M  V30 12824 C 1187.9 4.49015 -0.265693 0
M  V30 12825 C 1189.22 4.02938 1.76999 0
M  V30 12826 H 1186.34 0.719413 0.160041 0
M  V30 12827 H 1188.98 1.87835 -0.286005 0
M  V30 12828 H 1187.13 3.5724 1.52682 0
M  V30 12829 H 1188.81 4.52368 -0.903363 0
M  V30 12830 H 1187.05 4.23987 -0.917462 0
M  V30 12831 H 1187.72 5.51912 0.0987834 0
M  V30 12832 H 1190.2 3.97033 1.24514 0
M  V30 12833 H 1189.07 5.08741 2.06092 0
M  V30 12834 H 1189.33 3.48197 2.72418 0
M  V30 12835 N 1188.39 -0.0785156 1.57404 0
M  V30 12836 C 1189.64 -0.777399 1.8655 0
M  V30 12837 C 1189.96 -1.78451 0.786142 0
M  V30 12838 O 1189.23 -1.95016 -0.185911 0
M  V30 12839 H 1187.81 -0.290097 0.688369 0
M  V30 12840 H 1190.47 -0.0562017 1.94819 0
M  V30 12841 H 1189.57 -1.29776 2.83839 0
M  V30 12842 N 1189.87 -1.5367 -0.349747 0
M  V30 12843 C 1191.29 -1.43796 -0.692457 0
M  V30 12844 C 1191.49 -0.58972 -1.92677 0
M  V30 12845 O 1190.54 -0.078294 -2.52379 0
M  V30 12846 C 1191.86 -2.872 -0.890881 0
M  V30 12847 C 1193.4 -2.96935 -0.989892 0
M  V30 12848 C 1193.88 -4.41433 -1.22068 0
M  V30 12849 N 1195.37 -4.44932 -1.28802 0
M  V30 12850 C 1196.1 -5.53864 -1.48398 0
M  V30 12851 N 1195.6 -6.72814 -1.65208 0
M  V30 12852 N 1197.39 -5.41467 -1.50896 0
M  V30 12853 H 1189.54 -2.07317 0.461895 0
M  V30 12854 H 1191.81 -0.936895 0.144681 0
M  V30 12855 H 1191.51 -3.51656 -0.0555095 0
M  V30 12856 H 1191.39 -3.31784 -1.79442 0
M  V30 12857 H 1193.77 -2.32622 -1.81579 0
M  V30 12858 H 1193.86 -2.55721 -0.0633906 0
M  V30 12859 H 1193.5 -5.06325 -0.399729 0
M  V30 12860 H 1193.43 -4.80233 -2.16064 0
M  V30 12861 H 1195.92 -3.59214 -1.17361 0
M  V30 12862 H 1196.23 -7.51598 -1.79779 0
M  V30 12863 H 1194.58 -6.7577 -1.62356 0
M  V30 12864 H 1197.77 -4.47498 -1.37342 0
M  V30 12865 H 1197.94 -6.26423 -1.65826 0
M  V30 12866 N 1191.35 0.610423 -1.45298 0
M  V30 12867 C 1192.31 1.70324 -1.5337 0
M  V30 12868 C 1193.31 1.55393 -0.413492 0
M  V30 12869 O 1194.5 1.60512 -0.676872 0
M  V30 12870 C 1191.63 3.09572 -1.42752 0
M  V30 12871 H 1192.83 1.64535 -2.50736 0
M  V30 12872 H 1190.38 0.825906 -1.32697 0
M  V30 12873 H 1191.11 3.2094 -0.465601 0
M  V30 12874 H 1190.9 3.21817 -2.24 0
M  V30 12875 H 1192.39 3.89178 -1.51427 0
M  V30 12876 N 1192.83 1.32541 0.852676 0
M  V30 12877 C 1194.08 1.22567 1.60188 0
M  V30 12878 C 1194.39 -0.210594 1.94463 0
M  V30 12879 O 1195.59 -0.432214 2.68038 0
M  V30 12880 C 1194.05 2.14678 2.88862 0
M  V30 12881 C 1193.66 3.63398 2.62004 0
M  V30 12882 C 1195.4 2.13545 3.66877 0
M  V30 12883 C 1193.31 4.47464 3.86691 0
M  V30 12884 H 1192.24 0.455184 0.601102 0
M  V30 12885 H 1194.89 1.57515 0.941347 0
M  V30 12886 H 1193.27 1.72647 3.56383 0
M  V30 12887 H 1194.45 4.13783 2.02782 0
M  V30 12888 H 1192.76 3.66681 1.97316 0
M  V30 12889 H 1195.36 2.73589 4.59405 0
M  V30 12890 H 1195.7 1.12694 4.00756 0
M  V30 12891 H 1196.23 2.53866 3.06263 0
M  V30 12892 H 1192.97 5.49136 3.57952 0
M  V30 12893 H 1192.49 4.01829 4.45302 0
M  V30 12894 H 1194.17 4.60565 4.5441 0
M  V30 12895 N 1194.3 -1.0692 1.15784 0
M  V30 12896 C 1195.72 -1.31707 0.901408 0
M  V30 12897 C 1195.92 -1.96429 -0.449203 0
M  V30 12898 O 1194.98 -2.22692 -1.19015 0
M  V30 12899 C 1196.29 -2.20391 2.04568 0
M  V30 12900 C 1197.84 -2.33827 2.08072 0
M  V30 12901 C 1198.31 -3.25862 3.21835 0
M  V30 12902 N 1199.8 -3.33444 3.21511 0
M  V30 12903 C 1200.54 -4.04731 4.06177 0
M  V30 12904 N 1200.03 -4.78596 5.00917 0
M  V30 12905 N 1201.83 -4.00717 3.94185 0
M  V30 12906 H 1193.98 -0.632989 2.02749 0
M  V30 12907 H 1196.24 -0.341587 0.88432 0
M  V30 12908 H 1195.95 -1.80102 3.02087 0
M  V30 12909 H 1195.82 -3.20943 1.9818 0
M  V30 12910 H 1198.21 -2.73367 1.11151 0
M  V30 12911 H 1198.29 -1.32964 2.18527 0
M  V30 12912 H 1197.93 -2.8704 4.19012 0
M  V30 12913 H 1197.86 -4.26689 3.08617 0
M  V30 12914 H 1200.35 -2.80798 2.52905 0
M  V30 12915 H 1200.67 -5.30499 5.61952 0
M  V30 12916 H 1199.01 -4.77598 5.04902 0
M  V30 12917 H 1202.2 -3.42126 3.1948 0
M  V30 12918 H 1202.38 -4.56008 4.60392 0
M  V30 12919 N 1195.78 -0.955326 -1.25345 0
M  V30 12920 C 1196.71 -0.494145 -2.28211 0
M  V30 12921 C 1197.69 0.459875 -1.63766 0
M  V30 12922 O 1198.88 0.358679 -1.90859 0
M  V30 12923 C 1196.01 0.228228 -3.46549 0
M  V30 12924 C 1194.96 -0.640601 -4.23179 0
M  V30 12925 C 1194.29 0.212553 -5.34277 0
M  V30 12926 C 1195.59 -1.91906 -4.85767 0
M  V30 12927 H 1197.28 -1.35391 -2.67039 0
M  V30 12928 H 1194.83 -0.652462 -1.2837 0
M  V30 12929 H 1196.78 0.561995 -4.17636 0
M  V30 12930 H 1195.51 1.12224 -3.06714 0
M  V30 12931 H 1194.16 -0.957462 -3.53876 0
M  V30 12932 H 1193.81 1.10634 -4.90682 0
M  V30 12933 H 1193.51 -0.365473 -5.86462 0
M  V30 12934 H 1195.04 0.541271 -6.08196 0
M  V30 12935 H 1196.45 -1.65165 -5.48993 0
M  V30 12936 H 1194.85 -2.44279 -5.48131 0
M  V30 12937 H 1195.92 -2.62173 -4.07914 0
M  V30 12938 N 1197.26 1.39987 -0.723979 0
M  V30 12939 C 1198.5 2.02587 -0.271647 0
M  V30 12940 C 1198.87 1.56186 1.11669 0
M  V30 12941 O 1200.07 2.10907 1.66648 0
M  V30 12942 C 1198.34 3.55604 -0.357851 0
M  V30 12943 S 1199.9 4.38797 0.0162614 0
M  V30 12944 H 1196.71 0.702878 -0.10716 0
M  V30 12945 H 1199.32 1.70974 -0.948057 0
M  V30 12946 H 1198.02 3.86866 -1.36977 0
M  V30 12947 H 1197.55 3.91956 0.336754 0
M  V30 12948 H 1199.57 4.80564 1.23582 0
M  V30 12949 N 1198.74 0.470782 1.50404 0
M  V30 12950 C 1199.69 -0.342183 2.25418 0
M  V30 12951 C 1200.67 -0.961726 1.28995 0
M  V30 12952 O 1201.87 -0.874327 1.53898 0
M  V30 12953 C 1198.99 -1.42378 3.12383 0
M  V30 12954 C 1198.08 -0.811982 4.16254 0
M  V30 12955 N 1198.47 0.0675245 5.05755 0
M  V30 12956 C 1196.77 -1.07596 4.32827 0
M  V30 12957 C 1197.47 0.414693 5.8022 0
M  V30 12958 N 1196.45 -0.210047 5.43194 0
M  V30 12959 H 1200.25 0.335344 2.91981 0
M  V30 12960 H 1197.76 0.284911 1.59881 0
M  V30 12961 H 1199.76 -2.01936 3.64729 0
M  V30 12962 H 1198.42 -2.1033 2.47369 0
M  V30 12963 H 1199.43 0.436333 5.16059 0
M  V30 12964 H 1196.11 -1.75048 3.79031 0
M  V30 12965 H 1197.5 1.13243 6.62288 0
M  V30 12966 N 1200.22 -1.56282 0.203376 0
M  V30 12967 C 1201.15 -2.15395 -0.753684 0
M  V30 12968 C 1202.13 -1.09303 -1.20381 0
M  V30 12969 O 1203.31 -1.37461 -1.28984 0
M  V30 12970 C 1200.44 -2.71954 -2.01888 0
M  V30 12971 C 1199.49 -3.9071 -1.71021 0
M  V30 12972 S 1200.32 -5.28695 -0.850999 0
M  V30 12973 C 1201.47 -5.88681 -2.12615 0
M  V30 12974 H 1201.71 -2.96237 -0.251196 0
M  V30 12975 H 1199.24 -1.54396 -0.0117238 0
M  V30 12976 H 1201.2 -3.05183 -2.74542 0
M  V30 12977 H 1199.86 -1.91138 -2.49249 0
M  V30 12978 H 1199.05 -4.28723 -2.64977 0
M  V30 12979 H 1198.65 -3.58533 -1.06442 0
M  V30 12980 H 1200.95 -6.03548 -3.07792 0
M  V30 12981 H 1201.89 -6.85096 -1.79021 0
M  V30 12982 H 1202.3 -5.17356 -2.2584 0
M  V30 12983 N 1201.7 0.070167 -1.57444 0
M  V30 12984 C 1202.66 1.06761 -2.02817 0
M  V30 12985 C 1203.66 1.31498 -0.925462 0
M  V30 12986 O 1204.85 1.27192 -1.19029 0
M  V30 12987 C 1201.98 2.41086 -2.41019 0
M  V30 12988 H 1203.17 0.67651 -2.9217 0
M  V30 12989 H 1200.73 0.315936 -1.53074 0
M  V30 12990 H 1201.46 2.85025 -1.54697 0
M  V30 12991 H 1201.25 2.24472 -3.21488 0
M  V30 12992 H 1202.74 3.12778 -2.76694 0
M  V30 12993 N 1203.17 1.53854 0.341593 0
M  V30 12994 C 1204.42 1.70856 1.07948 0
M  V30 12995 C 1204.74 0.475474 1.89114 0
M  V30 12996 O 1204.01 -0.510592 1.89129 0
M  V30 12997 H 1202.59 0.629914 0.401519 0
M  V30 12998 H 1205.25 1.91112 0.382393 0
M  V30 12999 H 1204.35 2.5803 1.75575 0
M  V30 13000 N 1204.65 -0.602709 1.4562 0
M  V30 13001 C 1205.9 -1.35769 1.49163 0
M  V30 13002 C 1206.21 -1.95102 0.139485 0
M  V30 13003 O 1207.42 -2.71449 0.0525919 0
M  V30 13004 C 1205.88 -2.45959 2.62739 0
M  V30 13005 C 1205.48 -1.93017 4.04288 0
M  V30 13006 C 1207.23 -3.22926 2.75534 0
M  V30 13007 C 1205.13 -3.00718 5.09237 0
M  V30 13008 H 1204.06 -0.510317 0.555061 0
M  V30 13009 H 1206.72 -0.645434 1.71774 0
M  V30 13010 H 1205.1 -3.19892 2.3342 0
M  V30 13011 H 1206.27 -1.2576 4.43307 0
M  V30 13012 H 1204.59 -1.2878 3.95986 0
M  V30 13013 H 1207.18 -4.03267 3.51112 0
M  V30 13014 H 1207.53 -3.74243 1.82339 0
M  V30 13015 H 1208.06 -2.56095 3.04402 0
M  V30 13016 H 1204.8 -2.54312 6.04157 0
M  V30 13017 H 1204.32 -3.66526 4.74783 0
M  V30 13018 H 1206 -3.65016 5.34202 0
M  V30 13019 N 1206.13 -1.32992 -0.845635 0
M  V30 13020 C 1207.55 -1.12179 -1.13526 0
M  V30 13021 C 1207.75 0.091795 -2.01291 0
M  V30 13022 O 1206.8 0.774051 -2.40343 0
M  V30 13023 C 1208.11 -2.40584 -1.80388 0
M  V30 13024 C 1209.66 -2.46427 -1.92984 0
M  V30 13025 C 1210.14 -3.74776 -2.63261 0
M  V30 13026 N 1211.63 -3.75809 -2.7078 0
M  V30 13027 C 1212.36 -4.71829 -3.2583 0
M  V30 13028 N 1211.86 -5.78219 -3.81621 0
M  V30 13029 N 1213.65 -4.59313 -3.24018 0
M  V30 13030 H 1205.8 -2.10786 -0.261369 0
M  V30 13031 H 1208.07 -0.931053 -0.17845 0
M  V30 13032 H 1207.77 -3.29357 -1.23357 0
M  V30 13033 H 1207.65 -2.52225 -2.80468 0
M  V30 13034 H 1210.03 -1.58108 -2.4917 0
M  V30 13035 H 1210.11 -2.38732 -0.918732 0
M  V30 13036 H 1209.76 -4.63474 -2.07736 0
M  V30 13037 H 1209.69 -3.79746 -3.6483 0
M  V30 13038 H 1212.18 -2.98916 -2.31209 0
M  V30 13039 H 1212.49 -6.47531 -4.2181 0
M  V30 13040 H 1210.84 -5.81962 -3.79927 0
M  V30 13041 H 1214.03 -3.75358 -2.79685 0
M  V30 13042 H 1214.2 -5.34316 -3.6662 0
M  V30 13043 N 1207.61 1.06304 -1.1635 0
M  V30 13044 C 1208.85 1.79366 -0.94634 0
M  V30 13045 C 1209.19 1.86981 0.524569 0
M  V30 13046 O 1208.46 1.36134 1.38917 0
M  V30 13047 C 1208.74 3.23861 -1.57436 0
M  V30 13048 C 1208.6 3.24327 -3.1166 0
M  V30 13049 C 1209.92 4.21409 -1.26895 0
M  V30 13050 H 1207.04 0.65115 -0.345215 0
M  V30 13051 H 1209.68 1.24325 -1.43678 0
M  V30 13052 H 1207.83 3.70862 -1.15731 0
M  V30 13053 H 1209.5 2.85488 -3.62346 0
M  V30 13054 H 1207.74 2.62983 -3.44997 0
M  V30 13055 H 1208.41 4.2626 -3.50723 0
M  V30 13056 H 1210.89 3.8285 -1.62989 0
M  V30 13057 H 1209.77 5.20778 -1.73439 0
M  V30 13058 H 1210.03 4.41701 -0.187768 0
M  V30 13059 N 1209.09 0.96196 1.24836 0
M  V30 13060 C 1210.33 0.620715 1.92752 0
M  V30 13061 C 1210.66 -0.843308 1.75267 0
M  V30 13062 O 1209.92 -1.62141 1.09584 0
M  V30 13063 C 1210.21 0.934481 3.44967 0
M  V30 13064 C 1209.88 2.38572 3.82615 0
M  V30 13065 C 1208.54 2.78238 3.92603 0
M  V30 13066 C 1210.89 3.32784 4.01129 0
M  V30 13067 C 1208.22 4.11169 4.18518 0
M  V30 13068 C 1210.57 4.65336 4.28539 0
M  V30 13069 C 1209.24 5.04788 4.36745 0
M  V30 13070 H 1208.51 0.227136 0.70533 0
M  V30 13071 H 1211.16 1.21237 1.48236 0
M  V30 13072 H 1209.46 0.260516 3.90933 0
M  V30 13073 H 1211.16 0.648923 3.95715 0
M  V30 13074 H 1207.75 2.06812 3.75402 0
M  V30 13075 H 1211.93 3.03325 3.9282 0
M  V30 13076 H 1207.19 4.41368 4.23089 0
M  V30 13077 H 1211.36 5.3831 4.41809 0
M  V30 13078 H 1208.99 6.07816 4.56579 0
M  V30 13079 N 1210.56 -1.39601 0.731392 0
M  V30 13080 C 1211.5 -2.28169 0.0378735 0
M  V30 13081 C 1212.47 -1.44195 -0.751434 0
M  V30 13082 O 1213.66 -1.7359 -0.734753 0
M  V30 13083 C 1210.79 -3.24999 -0.953589 0
M  V30 13084 C 1209.83 -4.25748 -0.253203 0
M  V30 13085 S 1210.66 -5.25496 1.03025 0
M  V30 13086 C 1211.82 -6.25886 0.0412927 0
M  V30 13087 H 1212.05 -2.8664 0.788973 0
M  V30 13088 H 1209.59 -1.45271 0.523044 0
M  V30 13089 H 1211.54 -3.81308 -1.52035 0
M  V30 13090 H 1210.21 -2.65554 -1.6775 0
M  V30 13091 H 1209.4 -4.93913 -1.00328 0
M  V30 13092 H 1209 -3.7322 0.241426 0
M  V30 13093 H 1211.29 -6.72757 -0.800305 0
M  V30 13094 H 1212.24 -7.0473 0.68999 0
M  V30 13095 H 1212.64 -5.63538 -0.329495 0
M  V30 13096 N 1212.04 -0.478751 -1.50152 0
M  V30 13097 C 1213.29 0.07531 -2.01559 0
M  V30 13098 C 1213.6 1.40089 -1.36508 0
M  V30 13099 O 1214.81 2.04035 -1.79115 0
M  V30 13100 C 1213.27 0.184714 -3.59426 0
M  V30 13101 C 1212.87 -1.13289 -4.33439 0
M  V30 13102 C 1214.62 0.690326 -4.18849 0
M  V30 13103 C 1212.53 -0.986866 -5.83108 0
M  V30 13104 H 1211.46 0.0319196 -0.753324 0
M  V30 13105 H 1214.11 -0.614809 -1.72894 0
M  V30 13106 H 1212.49 0.938788 -3.84711 0
M  V30 13107 H 1213.66 -1.89852 -4.19872 0
M  V30 13108 H 1211.98 -1.57021 -3.8566 0
M  V30 13109 H 1214.57 0.816733 -5.28426 0
M  V30 13110 H 1214.92 1.68361 -3.80737 0
M  V30 13111 H 1215.45 -0.00657846 -3.97799 0
M  V30 13112 H 1212.19 -1.95375 -6.25707 0
M  V30 13113 H 1211.71 -0.261752 -5.99229 0
M  V30 13114 H 1213.39 -0.656567 -6.4366 0
M  V30 13115 N 1213.52 1.56172 -0.211661 0
M  V30 13116 C 1214.75 2.02428 0.427843 0
M  V30 13117 C 1215.16 1.09162 1.54043 0
M  V30 13118 O 1214.52 0.0994249 1.82229 0
M  V30 13119 C 1214.57 3.48279 0.968728 0
M  V30 13120 O 1214.29 4.37987 -0.0994841 0
M  V30 13121 C 1215.79 4.10132 1.68246 0
M  V30 13122 H 1213.01 0.662611 0.10577 0
M  V30 13123 H 1215.56 2.01897 -0.32522 0
M  V30 13124 H 1213.71 3.49456 1.6721 0
M  V30 13125 H 1214.13 5.23609 0.305558 0
M  V30 13126 H 1215.6 5.13985 2.01304 0
M  V30 13127 H 1216.08 3.54552 2.5921 0
M  V30 13128 H 1216.68 4.12775 1.02453 0
M  V30 13129 N 1215 -0.0618163 1.57479 0
M  V30 13130 C 1216.25 -0.757569 1.87364 0
M  V30 13131 C 1216.57 -1.77607 0.805025 0
M  V30 13132 O 1215.84 -1.95202 -0.165216 0
M  V30 13133 H 1214.42 -0.28278 0.691408 0
M  V30 13134 H 1217.08 -0.0355354 1.94868 0
M  V30 13135 H 1216.18 -1.26758 2.85199 0
M  V30 13136 N 1216.48 -1.54033 -0.333429 0
M  V30 13137 C 1217.75 -1.62404 -1.09015 0
M  V30 13138 C 1218.13 -0.451653 -2.06212 0
M  V30 13139 O 1217.48 0.555086 -2.21655 0
M  V30 13140 C 1217.69 -2.98949 -1.80085 0
M  V30 13141 C 1219.04 -3.54655 -2.33464 0
M  V30 13142 O 1220.06 -3.0119 -1.90166 0
M  V30 13143 O 1218.92 -4.48195 -3.12703 0
M  V30 13144 H 1216.02 -0.65727 -0.501921 0
M  V30 13145 H 1218.56 -1.66378 -0.33411 0
M  V30 13146 H 1217.33 -3.75716 -1.09332 0
M  V30 13147 H 1216.96 -2.98609 -2.62523 0
M  V30 13148 N 1217.95 0.594978 -1.45938 0
M  V30 13149 C 1218.9 1.726 -1.55923 0
M  V30 13150 C 1219.9 1.63893 -0.428411 0
M  V30 13151 O 1221.1 1.69535 -0.604815 0
M  V30 13152 H 1217.48 0.570447 -0.489994 0
M  V30 13153 H 1219.45 1.61308 -2.51043 0
M  V30 13154 C 1218.2 3.10988 -1.55505 0
M  V30 13155 H 1217.52 3.18353 -2.4185 0
M  V30 13156 H 1218.96 3.8992 -1.66548 0
M  V30 13157 C 1217.42 3.35721 -0.281573 0
M  V30 13158 O 1217.95 3.96676 0.633336 0
M  V30 13159 N 1216.16 2.90083 -0.173314 0
M  V30 13160 H 1215.7 2.4066 -0.91872 0
M  V30 13161 H 1215.66 3.07005 0.677903 0
M  V30 13162 N 1219.43 1.33438 0.838571 0
M  V30 13163 C 1220.68 1.24259 1.58879 0
M  V30 13164 C 1220.99 -0.189957 1.94675 0
M  V30 13165 O 1222.2 -0.40376 2.68481 0
M  V30 13166 C 1220.66 2.1773 2.86569 0
M  V30 13167 C 1220.26 3.66156 2.58135 0
M  V30 13168 C 1222.01 2.17424 3.64591 0
M  V30 13169 C 1219.92 4.5154 3.81923 0
M  V30 13170 H 1218.85 0.461534 0.59624 0
M  V30 13171 H 1221.5 1.58504 0.924588 0
M  V30 13172 H 1219.88 1.76418 3.54532 0
M  V30 13173 H 1221.05 4.1591 1.98382 0
M  V30 13174 H 1219.37 3.68754 1.93416 0
M  V30 13175 H 1221.96 2.78446 4.56478 0
M  V30 13176 H 1222.31 1.16939 3.99539 0
M  V30 13177 H 1222.84 2.571 3.03553 0
M  V30 13178 H 1219.58 5.52902 3.52107 0
M  V30 13179 H 1219.1 4.06529 4.41015 0
M  V30 13180 H 1220.78 4.65359 4.495 0
M  V30 13181 N 1220.91 -1.05686 1.16912 0
M  V30 13182 C 1221.86 -2.15417 0.877404 0
M  V30 13183 C 1222.85 -1.6868 -0.155986 0
M  V30 13184 O 1224.06 -1.79998 -0.00938156 0
M  V30 13185 H 1220.43 -0.70332 0.266168 0
M  V30 13186 H 1222.4 -2.37228 1.81012 0
M  V30 13187 C 1221.15 -3.45372 0.401696 0
M  V30 13188 H 1220.48 -3.81732 1.18832 0
M  V30 13189 H 1221.92 -4.2334 0.236418 0
M  V30 13190 C 1220.38 -3.25209 -0.87981 0
M  V30 13191 O 1220.91 -3.51322 -1.94771 0
M  V30 13192 N 1219.11 -2.78614 -0.825997 0
M  V30 13193 H 1218.66 -2.57564 0.0432439 0
M  V30 13194 H 1218.62 -2.65503 -1.68391 0
M  V30 13195 N 1222.39 -0.968567 -1.24324 0
M  V30 13196 C 1223.62 -0.648568 -1.96472 0
M  V30 13197 C 1224.03 0.782168 -1.71836 0
M  V30 13198 O 1223.39 1.5249 -1.00265 0
M  V30 13199 C 1223.44 -0.91482 -3.49733 0
M  V30 13200 O 1223.16 -2.28931 -3.73527 0
M  V30 13201 C 1224.66 -0.609131 -4.39095 0
M  V30 13202 H 1221.88 -0.241921 -0.625872 0
M  V30 13203 H 1224.43 -1.29673 -1.5813 0
M  V30 13204 H 1222.58 -0.31285 -3.86135 0
M  V30 13205 H 1222.99 -2.36998 -4.67902 0
M  V30 13206 H 1224.47 -0.845875 -5.4548 0
M  V30 13207 H 1224.95 0.456625 -4.3682 0
M  V30 13208 H 1225.55 -1.19105 -4.08282 0
M  V30 13209 N 1223.87 1.39211 -0.738786 0
M  V30 13210 C 1224.83 2.28937 -0.109746 0
M  V30 13211 C 1225.83 1.46488 0.663157 0
M  V30 13212 O 1227.02 1.67119 0.491614 0
M  V30 13213 C 1224.15 3.30039 0.853633 0
M  V30 13214 H 1225.34 2.86068 -0.900295 0
M  V30 13215 H 1222.9 1.47922 -0.504853 0
M  V30 13216 H 1223.63 2.77971 1.6704 0
M  V30 13217 H 1223.42 3.90935 0.302007 0
M  V30 13218 H 1224.91 3.97169 1.29022 0
M  V30 13219 N 1225.34 0.486708 1.49896 0
M  V30 13220 C 1226.76 0.141788 1.58969 0
M  V30 13221 C 1226.96 -1.35279 1.49338 0
M  V30 13222 O 1226.02 -2.1275 1.35992 0
M  V30 13223 C 1227.33 0.70588 2.92297 0
M  V30 13224 C 1228.88 0.670704 3.0573 0
M  V30 13225 C 1229.35 1.21261 4.41656 0
M  V30 13226 N 1230.84 1.17269 4.4811 0
M  V30 13227 C 1231.58 1.56233 5.51705 0
M  V30 13228 N 1231.07 2.02721 6.62477 0
M  V30 13229 N 1232.87 1.47738 5.42337 0
M  V30 13230 H 1225.02 1.45858 1.544 0
M  V30 13231 H 1227.28 0.604137 0.730563 0
M  V30 13232 H 1226.99 1.7535 3.04869 0
M  V30 13233 H 1226.86 0.158215 3.76868 0
M  V30 13234 H 1229.25 -0.368041 2.92796 0
M  V30 13235 H 1229.33 1.25535 2.22878 0
M  V30 13236 H 1228.97 2.25006 4.5534 0
M  V30 13237 H 1228.9 0.604031 5.23124 0
M  V30 13238 H 1231.39 0.831905 3.6863 0
M  V30 13239 H 1231.71 2.3056 7.37606 0
M  V30 13240 H 1230.05 2.06686 6.63556 0
M  V30 13241 H 1233.24 1.11249 4.54688 0
M  V30 13242 H 1233.42 1.78429 6.2295 0
M  V30 13243 N 1226.82 -1.56058 0.219941 0
M  V30 13244 C 1227.79 -2.18964 -0.677303 0
M  V30 13245 C 1228.79 -1.15105 -1.12283 0
M  V30 13246 O 1229.98 -1.40348 -1.03189 0
M  V30 13247 C 1227.11 -2.81167 -1.92764 0
M  V30 13248 H 1228.3 -2.99623 -0.128877 0
M  V30 13249 H 1225.85 -1.56272 -0.0296744 0
M  V30 13250 H 1226.59 -2.04374 -2.51797 0
M  V30 13251 H 1226.37 -3.5722 -1.61666 0
M  V30 13252 H 1227.86 -3.29391 -2.56693 0
M  V30 13253 N 1228.3 0.053464 -1.57509 0
M  V30 13254 C 1229.55 0.748016 -1.87317 0
M  V30 13255 C 1229.86 1.77805 -0.815161 0
M  V30 13256 O 1231.07 2.52347 -1.00167 0
M  V30 13257 C 1229.53 1.38137 -3.32334 0
M  V30 13258 C 1229.13 0.388958 -4.46308 0
M  V30 13259 C 1230.88 2.05722 -3.7132 0
M  V30 13260 C 1228.78 1.02927 -5.82374 0
M  V30 13261 H 1227.71 0.283123 -0.698826 0
M  V30 13262 H 1230.37 0.00170723 -1.835 0
M  V30 13263 H 1228.75 2.17656 -3.3082 0
M  V30 13264 H 1229.92 -0.377752 -4.59249 0
M  V30 13265 H 1228.24 -0.183447 -4.15996 0
M  V30 13266 H 1230.83 2.54437 -4.70283 0
M  V30 13267 H 1231.18 2.86475 -3.02056 0
M  V30 13268 H 1231.71 1.3301 -3.74904 0
M  V30 13269 H 1228.45 0.261674 -6.54977 0
M  V30 13270 H 1227.97 1.7664 -5.732 0
M  V30 13271 H 1229.65 1.54378 -6.28312 0
M  V30 13272 N 1229.78 1.54207 0.325255 0
M  V30 13273 C 1230.74 1.82757 1.38321 0
M  V30 13274 C 1231.74 0.699312 1.44797 0
M  V30 13275 O 1232.93 0.96762 1.44854 0
M  V30 13276 C 1230.06 1.98608 2.7707 0
M  V30 13277 H 1231.26 2.7728 1.14261 0
M  V30 13278 H 1228.81 1.45899 0.560647 0
M  V30 13279 H 1229.55 1.0629 3.06387 0
M  V30 13280 H 1229.33 2.80707 2.73763 0
M  V30 13281 H 1230.82 2.2215 3.53609 0
M  V30 13282 N 1231.26 -0.58723 1.46251 0
M  V30 13283 C 1232.2 -1.69662 1.56472 0
M  V30 13284 C 1233.17 -1.60978 0.409294 0
M  V30 13285 O 1234.36 -1.80257 0.625451 0
M  V30 13286 C 1231.5 -3.07996 1.55669 0
M  V30 13287 C 1230.61 -3.27337 2.81913 0
M  V30 13288 C 1229.75 -4.55894 2.72644 0
M  V30 13289 C 1228.79 -4.68562 3.93847 0
M  V30 13290 N 1227.92 -5.8844 3.82991 0
M  V30 13291 H 1232.76 -1.60262 2.51237 0
M  V30 13292 H 1230.3 -0.781148 1.24645 0
M  V30 13293 H 1232.26 -3.88058 1.53189 0
M  V30 13294 H 1230.89 -3.16303 0.6444 0
M  V30 13295 H 1229.94 -2.4091 2.94392 0
M  V30 13296 H 1231.25 -3.32567 3.71754 0
M  V30 13297 H 1230.41 -5.44178 2.68244 0
M  V30 13298 H 1229.15 -4.53094 1.80435 0
M  V30 13299 H 1228.15 -3.78696 3.98584 0
M  V30 13300 H 1229.38 -4.73144 4.87146 0
M  V30 13301 H 1227.32 -5.86647 2.93566 0
M  V30 13302 H 1227.24 -5.94919 4.66484 0
M  V30 13303 H 1228.51 -6.79168 3.82559 0
M  V30 13304 N 1232.74 -1.33881 -0.831482 0
M  V30 13305 C 1233.65 -1.26802 -1.97379 0
M  V30 13306 C 1234.66 -0.177233 -1.73095 0
M  V30 13307 O 1235.84 -0.402163 -1.97344 0
M  V30 13308 C 1232.9 -1.01474 -3.31517 0
M  V30 13309 C 1231.96 -2.19626 -3.68867 0
M  V30 13310 C 1231.2 -1.95497 -4.96605 0
M  V30 13311 O 1231.42 -0.908948 -5.63111 0
M  V30 13312 O 1230.35 -2.82226 -5.31632 0
M  V30 13313 H 1234.18 -2.22883 -2.06293 0
M  V30 13314 H 1231.76 -1.14001 -0.965613 0
M  V30 13315 H 1233.65 -0.890954 -4.11874 0
M  V30 13316 H 1232.32 -0.0842656 -3.2359 0
M  V30 13317 H 1231.23 -2.37561 -2.88991 0
M  V30 13318 H 1232.56 -3.11034 -3.81469 0
M  V30 13319 N 1234.21 1.05064 -1.1747 0
M  V30 13320 C 1235.46 1.77481 -0.958301 0
M  V30 13321 C 1235.78 1.88725 0.51401 0
M  V30 13322 O 1236.98 2.57895 0.848657 0
M  V30 13323 C 1235.44 3.19048 -1.66543 0
M  V30 13324 C 1235.05 3.1593 -3.17636 0
M  V30 13325 C 1236.79 3.95912 -1.53146 0
M  V30 13326 C 1234.7 4.52293 -3.81032 0
M  V30 13327 H 1233.63 0.665247 -0.354913 0
M  V30 13328 H 1236.28 1.17751 -1.40737 0
M  V30 13329 H 1234.66 3.79113 -1.1441 0
M  V30 13330 H 1235.83 2.65375 -3.76713 0
M  V30 13331 H 1234.15 2.52564 -3.31059 0
M  V30 13332 H 1236.75 4.96737 -1.9788 0
M  V30 13333 H 1237.09 4.13498 -0.482203 0
M  V30 13334 H 1237.62 3.42399 -2.02504 0
M  V30 13335 H 1234.36 4.39913 -4.8596 0
M  V30 13336 H 1233.88 5.02991 -3.26741 0
M  V30 13337 H 1235.56 5.2123 -3.83312 0
M  V30 13338 N 1235.69 0.975146 1.23809 0
M  V30 13339 C 1236.64 0.503396 2.27087 0
M  V30 13340 C 1237.63 -0.43689 1.63669 0
M  V30 13341 O 1238.84 -0.31136 1.77287 0
M  V30 13342 H 1235.21 0.144346 0.738017 0
M  V30 13343 H 1237.19 1.38627 2.64244 0
M  V30 13344 C 1235.93 -0.183682 3.47214 0
M  V30 13345 H 1235.26 0.530753 3.96261 0
M  V30 13346 H 1236.7 -0.477479 4.21303 0
M  V30 13347 C 1235.16 -1.41317 3.05829 0
M  V30 13348 O 1235.69 -2.50975 3.13647 0
M  V30 13349 N 1233.89 -1.28191 2.60798 0
M  V30 13350 H 1233.44 -0.38967 2.54636 0
M  V30 13351 H 1233.4 -2.10565 2.33473 0
M  V30 13352 N 1237.17 -1.38817 0.746158 0
M  V30 13353 C 1238.42 -1.99519 0.295839 0
M  V30 13354 C 1238.73 -1.59897 -1.12661 0
M  V30 13355 O 1239.94 -2.13514 -1.67702 0
M  V30 13356 C 1238.39 -3.56712 0.477984 0
M  V30 13357 C 1238 -4.0529 1.90904 0
M  V30 13358 C 1239.75 -4.24405 0.0900039 0
M  V30 13359 C 1237.65 -5.55097 2.04014 0
M  V30 13360 H 1236.58 -0.746389 0.106861 0
M  V30 13361 H 1239.23 -1.58676 0.921637 0
M  V30 13362 H 1237.62 -3.95406 -0.216884 0
M  V30 13363 H 1238.79 -3.77904 2.63677 0
M  V30 13364 H 1237.1 -3.50297 2.25125 0
M  V30 13365 H 1239.7 -5.3444 0.16682 0
M  V30 13366 H 1240.04 -4.05166 -0.956349 0
M  V30 13367 H 1240.58 -3.90924 0.736446 0
M  V30 13368 H 1237.32 -5.7923 3.06877 0
M  V30 13369 H 1236.84 -5.8425 1.35692 0
M  V30 13370 H 1238.52 -6.20682 1.82656 0
M  V30 13371 N 1238.65 -0.49465 -1.49636 0
M  V30 13372 C 1239.58 0.276606 -2.31856 0
M  V30 13373 C 1240.56 0.968499 -1.39836 0
M  V30 13374 O 1241.74 0.96113 -1.68748 0
M  V30 13375 C 1238.87 1.34522 -3.20189 0
M  V30 13376 C 1237.83 0.773571 -4.20951 0
M  V30 13377 C 1237.15 1.94223 -4.98178 0
M  V30 13378 C 1238.45 -0.231096 -5.21788 0
M  V30 13379 H 1240.15 -0.409668 -2.96584 0
M  V30 13380 H 1237.69 -0.198461 -1.42626 0
M  V30 13381 H 1239.65 1.89244 -3.76517 0
M  V30 13382 H 1238.37 2.06059 -2.53392 0
M  V30 13383 H 1237.03 0.248144 -3.65759 0
M  V30 13384 H 1236.68 2.64514 -4.27834 0
M  V30 13385 H 1236.38 1.56584 -5.66353 0
M  V30 13386 H 1237.9 2.49391 -5.57348 0
M  V30 13387 H 1239.32 0.227768 -5.72847 0
M  V30 13388 H 1237.71 -0.522984 -5.97817 0
M  V30 13389 H 1238.78 -1.14914 -4.71087 0
M  V30 13390 N 1240.13 1.55939 -0.228214 0
M  V30 13391 C 1241.07 2.21957 0.69556 0
M  V30 13392 C 1242.07 1.20109 1.19458 0
M  V30 13393 O 1243.27 1.38171 1.15364 0
M  V30 13394 H 1239.65 0.711744 0.242744 0
M  V30 13395 H 1241.62 2.98177 0.115403 0
M  V30 13396 C 1240.37 2.91847 1.88999 0
M  V30 13397 H 1239.69 3.69978 1.51512 0
M  V30 13398 H 1241.13 3.4143 2.51399 0
M  V30 13399 C 1239.59 1.94683 2.74954 0
M  V30 13400 O 1240.12 1.468 3.73915 0
M  V30 13401 N 1238.33 1.62188 2.41129 0
M  V30 13402 H 1237.87 2.01322 1.60709 0
M  V30 13403 H 1237.83 0.9744 2.98919 0
M  V30 13404 N 1241.6 -0.0451101 1.57535 0
M  V30 13405 C 1242.55 -1.05066 2.05499 0
M  V30 13406 C 1243.52 -1.36884 0.940843 0
M  V30 13407 O 1244.71 -1.47497 1.21034 0
M  V30 13408 C 1241.85 -2.35139 2.52594 0
M  V30 13409 C 1240.96 -2.0962 3.77735 0
M  V30 13410 C 1240.09 -3.33447 4.13505 0
M  V30 13411 C 1239.13 -3.03411 5.31609 0
M  V30 13412 N 1238.27 -4.19644 5.62888 0
M  V30 13413 H 1243.11 -0.63469 2.91163 0
M  V30 13414 H 1240.65 -0.30179 1.43971 0
M  V30 13415 H 1242.61 -3.11118 2.7796 0
M  V30 13416 H 1241.24 -2.74489 1.69869 0
M  V30 13417 H 1240.29 -1.24211 3.59549 0
M  V30 13418 H 1241.6 -1.83452 4.63839 0
M  V30 13419 H 1240.75 -4.17805 4.39914 0
M  V30 13420 H 1239.49 -3.62715 3.2602 0
M  V30 13421 H 1238.5 -2.17453 5.04969 0
M  V30 13422 H 1239.72 -2.75438 6.20734 0
M  V30 13423 H 1237.67 -4.48893 4.78363 0
M  V30 13424 H 1237.59 -3.96843 6.43468 0
M  V30 13425 H 1238.85 -5.04921 5.93865 0
M  V30 13426 N 1243.08 -1.54377 -0.317073 0
M  V30 13427 C 1244.03 -1.84948 -1.41057 0
M  V30 13428 C 1245.02 -0.721887 -1.53249 0
M  V30 13429 O 1246.23 -0.905648 -1.55557 0
M  V30 13430 H 1242.61 -0.586353 -0.470844 0
M  V30 13431 H 1244.58 -2.7638 -1.12501 0
M  V30 13432 C 1243.33 -2.09932 -2.77171 0
M  V30 13433 H 1242.65 -2.96162 -2.68566 0
M  V30 13434 H 1244.09 -2.35272 -3.52737 0
M  V30 13435 C 1242.55 -0.892855 -3.24853 0
M  V30 13436 O 1243.08 -0.105336 -4.01562 0
M  V30 13437 N 1241.28 -0.702685 -2.81976 0
M  V30 13438 H 1240.83 -1.34474 -2.19715 0
M  V30 13439 H 1240.79 0.103024 -3.14231 0
M  V30 13440 N 1244.56 0.579466 -1.4656 0
M  V30 13441 C 1245.47 1.71609 -1.59961 0
M  V30 13442 C 1246.49 1.67162 -0.483002 0
M  V30 13443 O 1247.66 1.87012 -0.747561 0
M  V30 13444 C 1244.73 3.08114 -1.58954 0
M  V30 13445 C 1243.79 3.238 -2.81872 0
M  V30 13446 C 1243.02 4.53794 -2.80904 0
M  V30 13447 O 1243.24 5.37884 -1.89835 0
M  V30 13448 O 1242.18 4.72796 -3.72488 0
M  V30 13449 H 1246 1.6325 -2.56092 0
M  V30 13450 H 1243.59 0.746891 -1.2939 0
M  V30 13451 H 1245.47 3.8939 -1.611 0
M  V30 13452 H 1244.15 3.16903 -0.65984 0
M  V30 13453 H 1243.05 2.42006 -2.85279 0
M  V30 13454 H 1244.39 3.19904 -3.74062 0
M  V30 13455 N 1246.04 1.3432 0.824371 0
M  V30 13456 C 1247.29 1.26345 1.57738 0
M  V30 13457 C 1247.61 -0.166836 1.94285 0
M  V30 13458 O 1246.88 -1.09911 1.62162 0
M  V30 13459 H 1245.46 0.46466 0.584893 0
M  V30 13460 H 1248.12 1.68214 0.984373 0
M  V30 13461 H 1247.22 1.8672 2.50084 0
M  V30 13462 N 1247.52 -1.0444 1.18026 0
M  V30 13463 C 1248.79 -1.74533 0.883045 0
M  V30 13464 C 1249.17 -2.01944 -0.614975 0
M  V30 13465 O 1248.52 -1.66158 -1.56855 0
M  V30 13466 C 1248.73 -3.0332 1.72621 0
M  V30 13467 C 1250.08 -3.77128 1.9509 0
M  V30 13468 O 1251.1 -3.13209 1.69643 0
M  V30 13469 O 1249.96 -4.92001 2.37903 0
M  V30 13470 H 1247.06 -0.759315 0.327673 0
M  V30 13471 H 1249.6 -1.10539 1.2876 0
M  V30 13472 H 1248.37 -2.79171 2.74188 0
M  V30 13473 H 1248 -3.75052 1.31993 0
M  V30 13474 N 1248.99 -0.981699 -1.2329 0
M  V30 13475 C 1250.27 -0.567659 -1.87182 0
M  V30 13476 C 1250.65 0.955194 -1.88253 0
M  V30 13477 O 1250 1.83245 -1.36504 0
M  V30 13478 C 1250.21 -1.17522 -3.28618 0
M  V30 13479 C 1251.56 -1.26877 -4.052 0
M  V30 13480 O 1252.58 -1.12877 -3.37842 0
M  V30 13481 O 1251.44 -1.49163 -5.2575 0
M  V30 13482 H 1248.53 -0.191315 -0.804567 0
M  V30 13483 H 1251.08 -1.07686 -1.31155 0
M  V30 13484 H 1249.85 -2.21735 -3.22411 0
M  V30 13485 H 1249.48 -0.650913 -3.92236 0
M  V30 13486 N 1250.47 1.3842 -0.753509 0
M  V30 13487 C 1251.38 2.34252 -0.127811 0
M  V30 13488 C 1252.4 1.59266 0.700743 0
M  V30 13489 O 1253.57 1.9146 0.624914 0
M  V30 13490 C 1250.64 3.38382 0.754886 0
M  V30 13491 C 1249.7 4.2921 -0.0880312 0
M  V30 13492 C 1248.93 5.28367 0.75263 0
M  V30 13493 O 1249.16 5.34537 1.99064 0
M  V30 13494 O 1248.09 6.01656 0.171475 0
M  V30 13495 H 1251.92 2.89454 -0.91925 0
M  V30 13496 H 1249.5 1.40265 -0.514404 0
M  V30 13497 H 1251.38 4.02141 1.25938 0
M  V30 13498 H 1250.06 2.85536 1.52482 0
M  V30 13499 H 1248.97 3.68611 -0.638468 0
M  V30 13500 H 1250.3 4.85311 -0.82062 0
M  V30 13501 N 1251.95 0.502579 1.49372 0
M  V30 13502 C 1252.9 -0.275004 2.29156 0
M  V30 13503 C 1253.87 -0.95892 1.35624 0
M  V30 13504 O 1255.05 -0.965276 1.64581 0
M  V30 13505 C 1252.19 -1.33255 3.18335 0
M  V30 13506 C 1251.31 -0.660248 4.26925 0
M  V30 13507 C 1250.44 -1.69837 5.03318 0
M  V30 13508 C 1249.48 -1.00802 6.03743 0
M  V30 13509 N 1248.62 -1.99042 6.73295 0
M  V30 13510 H 1253.46 0.411599 2.95144 0
M  V30 13511 H 1250.99 0.214824 1.45523 0
M  V30 13512 H 1252.95 -1.95769 3.68416 0
M  V30 13513 H 1251.58 -1.98789 2.54328 0
M  V30 13514 H 1250.63 0.0782181 3.8032 0
M  V30 13515 H 1251.95 -0.11689 4.98663 0
M  V30 13516 H 1251.1 -2.39852 5.57275 0
M  V30 13517 H 1249.84 -2.27558 4.31357 0
M  V30 13518 H 1248.84 -0.293654 5.49015 0
M  V30 13519 H 1250.07 -0.437285 6.77691 0
M  V30 13520 H 1248.01 -2.55722 6.04104 0
M  V30 13521 H 1247.93 -1.49776 7.41015 0
M  V30 13522 H 1249.2 -2.6834 7.31856 0
M  V30 13523 N 1253.43 -1.55816 0.23648 0
M  V30 13524 C 1254.71 -1.90565 -0.440933 0
M  V30 13525 C 1255.09 -1.15585 -1.76645 0
M  V30 13526 O 1254.43 -0.269949 -2.269 0
M  V30 13527 C 1254.64 -3.43462 -0.61925 0
M  V30 13528 C 1255.99 -4.14516 -0.91989 0
M  V30 13529 O 1257.02 -3.49144 -0.705496 0
M  V30 13530 O 1255.87 -5.3013 -1.32759 0
M  V30 13531 H 1252.97 -0.79285 -0.235199 0
M  V30 13532 H 1255.51 -1.67378 0.279774 0
M  V30 13533 H 1254.29 -3.90029 0.315124 0
M  V30 13534 H 1253.91 -3.72478 -1.39089 0
M  V30 13535 N 1254.91 0.036755 -1.57557 0
M  V30 13536 C 1255.85 1.05823 -2.07133 0
M  V30 13537 C 1256.85 1.37923 -0.983546 0
M  V30 13538 O 1258.05 1.36918 -1.16848 0
M  V30 13539 H 1254.43 0.358761 -0.660905 0
M  V30 13540 H 1256.4 0.614232 -2.9201 0
M  V30 13541 C 1255.15 2.35302 -2.55985 0
M  V30 13542 H 1254.47 2.11461 -3.393 0
M  V30 13543 H 1255.91 3.05139 -2.94391 0
M  V30 13544 C 1254.37 3.0373 -1.45773 0
M  V30 13545 O 1254.9 3.9325 -0.819587 0
M  V30 13546 N 1253.11 2.64931 -1.19416 0
M  V30 13547 H 1252.65 1.92219 -1.71492 0
M  V30 13548 H 1252.61 3.11033 -0.458865 0
M  V30 13549 N 1256.39 1.54543 0.308881 0
M  V30 13550 C 1257.62 1.77174 1.06268 0
M  V30 13551 C 1258.02 0.527461 1.81699 0
M  V30 13552 O 1257.37 -0.512027 1.7642 0
M  V30 13553 C 1257.43 2.92115 2.09545 0
M  V30 13554 C 1257.09 4.30492 1.5338 0
M  V30 13555 C 1258.09 5.1081 0.967923 0
M  V30 13556 C 1255.77 4.77074 1.5718 0
M  V30 13557 C 1257.77 6.35827 0.447517 0
M  V30 13558 C 1255.46 6.02055 1.04753 0
M  V30 13559 C 1256.45 6.81266 0.486345 0
M  V30 13560 O 1256.14 8.03894 -0.0300055 0
M  V30 13561 H 1255.87 0.594773 0.321281 0
M  V30 13562 H 1258.43 2.02289 0.356136 0
M  V30 13563 H 1256.66 2.62606 2.83857 0
M  V30 13564 H 1258.35 3.02394 2.70763 0
M  V30 13565 H 1259.11 4.7597 0.931523 0
M  V30 13566 H 1254.99 4.15453 1.998 0
M  V30 13567 H 1258.54 6.97599 0.00884212 0
M  V30 13568 H 1254.43 6.36383 1.08105 0
M  V30 13569 H 1255.2 8.18457 0.0840381 0
M  V30 13570 N 1257.86 -0.571685 1.46866 0
M  V30 13571 C 1259.09 -1.35524 1.56336 0
M  V30 13572 C 1259.51 -1.87647 0.208359 0
M  V30 13573 O 1258.86 -1.64219 -0.796136 0
M  V30 13574 C 1258.91 -2.53518 2.57703 0
M  V30 13575 O 1258.64 -2.03552 3.87941 0
M  V30 13576 C 1260.14 -3.45925 2.77219 0
M  V30 13577 H 1257.36 -0.41363 0.528348 0
M  V30 13578 H 1259.9 -0.693943 1.92366 0
M  V30 13579 H 1258.06 -3.15615 2.24647 0
M  V30 13580 H 1258.47 -2.80476 4.43208 0
M  V30 13581 H 1259.94 -4.2517 3.52043 0
M  V30 13582 H 1260.42 -3.98559 1.8452 0
M  V30 13583 H 1261.03 -2.89655 3.11416 0
M  V30 13584 N 1259.34 -1.34755 -0.817236 0
M  V30 13585 C 1260.29 -1.26816 -1.94988 0
M  V30 13586 C 1261.28 -0.165142 -1.68593 0
M  V30 13587 O 1262.49 -0.330469 -1.7694 0
M  V30 13588 H 1258.86 -0.394113 -0.640452 0
M  V30 13589 H 1260.84 -2.22528 -1.98806 0
M  V30 13590 C 1259.58 -1.04625 -3.31586 0
M  V30 13591 H 1258.91 -1.88735 -3.52447 0
M  V30 13592 H 1260.35 -1.03108 -4.11272 0
M  V30 13593 C 1258.81 0.250283 -3.35969 0
M  V30 13594 O 1259.34 1.24972 -3.81765 0
M  V30 13595 N 1257.54 0.285369 -2.89195 0
M  V30 13596 H 1257.09 -0.528528 -2.5212 0
M  V30 13597 H 1257.05 1.15261 -2.9251 0
M  V30 13598 N 1260.82 1.03812 -1.18578 0
M  V30 13599 C 1261.77 2.13994 -0.911563 0
M  V30 13600 C 1262.76 1.68907 0.129131 0
M  V30 13601 O 1263.97 1.7999 -0.0192557 0
M  V30 13602 H 1260.34 0.698996 -0.277324 0
M  V30 13603 H 1262.31 2.34318 -1.84763 0
M  V30 13604 C 1261.06 3.44689 -0.456591 0
M  V30 13605 H 1260.39 3.79793 -1.2489 0
M  V30 13606 H 1261.83 4.22911 -0.303738 0
M  V30 13607 C 1260.28 3.26568 0.827961 0
M  V30 13608 O 1260.81 3.54376 1.89158 0
M  V30 13609 N 1259.02 2.79893 0.781567 0
M  V30 13610 H 1258.57 2.57462 -0.0842145 0
M  V30 13611 H 1258.53 2.68148 1.64146 0
M  V30 13612 N 1262.3 0.988223 1.22768 0
M  V30 13613 C 1263.24 0.534605 2.24523 0
M  V30 13614 C 1264.21 -0.430615 1.60421 0
M  V30 13615 O 1265.4 -0.336417 1.87811 0
M  V30 13616 C 1262.54 -0.149195 3.44777 0
M  V30 13617 C 1261.65 0.85721 4.2341 0
M  V30 13618 C 1260.79 0.147411 5.30995 0
M  V30 13619 C 1259.83 1.1425 6.01343 0
M  V30 13620 N 1258.96 0.461327 7.00583 0
M  V30 13621 H 1263.8 1.40708 2.62689 0
M  V30 13622 H 1261.34 0.704918 1.2911 0
M  V30 13623 H 1263.3 -0.562527 4.1339 0
M  V30 13624 H 1261.93 -0.985485 3.07389 0
M  V30 13625 H 1260.98 1.38889 3.54138 0
M  V30 13626 H 1262.29 1.61517 4.71926 0
M  V30 13627 H 1261.45 -0.32289 6.0584 0
M  V30 13628 H 1260.19 -0.643085 4.83442 0
M  V30 13629 H 1259.19 1.62348 5.25284 0
M  V30 13630 H 1260.42 1.93379 6.50985 0
M  V30 13631 H 1258.36 -0.309818 6.55268 0
M  V30 13632 H 1258.28 1.15781 7.47082 0
M  V30 13633 H 1259.55 0.0136734 7.79499 0
M  V30 13634 N 1263.78 -1.38018 0.760839 0
M  V30 13635 C 1264.72 -2.32251 0.127425 0
M  V30 13636 C 1265.72 -1.54387 -0.69722 0
M  V30 13637 O 1266.92 -1.69864 -0.595505 0
M  V30 13638 H 1263.3 -0.751666 0.0224141 0
M  V30 13639 H 1265.27 -2.8327 0.93813 0
M  V30 13640 C 1264.02 -3.39606 -0.745849 0
M  V30 13641 H 1263.34 -3.99618 -0.120679 0
M  V30 13642 H 1264.78 -4.07931 -1.15621 0
M  V30 13643 C 1263.24 -2.78778 -1.89167 0
M  V30 13644 O 1263.77 -2.68661 -2.98637 0
M  V30 13645 N 1261.98 -2.36481 -1.68894 0
M  V30 13646 H 1261.52 -2.4491 -0.798551 0
M  V30 13647 H 1261.48 -1.96126 -2.45728 0
M  V30 13648 N 1265.25 -0.510493 -1.49103 0
M  V30 13649 C 1266.48 0.0271718 -2.06882 0
M  V30 13650 C 1266.9 1.2995 -1.36962 0
M  V30 13651 O 1266.25 1.76842 -0.450916 0
M  V30 13652 C 1266.3 0.274956 -3.60453 0
M  V30 13653 O 1266.03 -0.946941 -4.27744 0
M  V30 13654 C 1267.53 0.855197 -4.34973 0
M  V30 13655 H 1264.75 -0.024732 -0.670544 0
M  V30 13656 H 1267.29 -0.710567 -1.91758 0
M  V30 13657 H 1265.45 0.962696 -3.75248 0
M  V30 13658 H 1265.86 -0.715627 -5.19595 0
M  V30 13659 H 1267.33 0.978103 -5.43265 0
M  V30 13660 H 1267.81 1.85535 -3.98087 0
M  V30 13661 H 1268.42 0.204632 -4.24807 0
M  V30 13662 N 1266.73 1.55688 -0.24474 0
M  V30 13663 C 1267.66 2.18616 0.68844 0
M  V30 13664 C 1268.68 1.16185 1.14039 0
M  V30 13665 O 1269.87 1.43059 1.06754 0
M  V30 13666 C 1266.97 2.77375 1.94721 0
M  V30 13667 C 1266.14 4.05204 1.64706 0
M  V30 13668 C 1265.2 4.48302 2.75521 0
M  V30 13669 O 1264.22 5.14723 2.42999 0
M  V30 13670 N 1265.43 4.15907 4.04971 0
M  V30 13671 H 1268.19 2.99324 0.150018 0
M  V30 13672 H 1265.75 1.61771 -0.0646183 0
M  V30 13673 H 1267.74 3.03165 2.68091 0
M  V30 13674 H 1266.31 2.00837 2.39548 0
M  V30 13675 H 1265.53 3.87026 0.74865 0
M  V30 13676 H 1266.82 4.8855 1.42114 0
M  V30 13677 H 1266.22 3.62579 4.34227 0
M  V30 13678 H 1264.78 4.46538 4.74813 0
M  V30 13679 N 1268.21 -0.0283989 1.57574 0
M  V30 13680 C 1269.46 -0.718121 1.88483 0
M  V30 13681 C 1269.77 -1.76485 0.843345 0
M  V30 13682 O 1270.98 -2.50721 1.04169 0
M  V30 13683 C 1269.43 -1.32832 3.3449 0
M  V30 13684 C 1269.04 -0.317905 4.46871 0
M  V30 13685 C 1270.79 -1.99788 3.74546 0
M  V30 13686 C 1268.69 -0.936489 5.83938 0
M  V30 13687 H 1267.62 -0.271969 0.703242 0
M  V30 13688 H 1270.27 0.0274862 1.83479 0
M  V30 13689 H 1268.66 -2.12366 3.34241 0
M  V30 13690 H 1269.83 0.450767 4.5859 0
M  V30 13691 H 1268.14 0.249605 4.15651 0
M  V30 13692 H 1270.74 -2.46923 4.74271 0
M  V30 13693 H 1271.08 -2.81633 3.06575 0
M  V30 13694 H 1271.62 -1.27029 3.76973 0
M  V30 13695 H 1268.36 -0.15744 6.55311 0
M  V30 13696 H 1267.88 -1.67499 5.75938 0
M  V30 13697 H 1269.56 -1.44363 6.30689 0
M  V30 13698 N 1269.69 -1.54705 -0.300681 0
M  V30 13699 C 1270.93 -1.75738 -1.04381 0
M  V30 13700 C 1271.29 -0.532138 -1.84478 0
M  V30 13701 O 1272.49 -0.620213 -2.61547 0
M  V30 13702 C 1270.76 -3.01095 -1.92553 0
M  V30 13703 S 1272.32 -3.43132 -2.73507 0
M  V30 13704 H 1269.14 -0.617737 -0.352025 0
M  V30 13705 H 1271.74 -1.9291 -0.317187 0
M  V30 13706 H 1270.45 -3.88393 -1.32585 0
M  V30 13707 H 1269.98 -2.86512 -2.69582 0
M  V30 13708 H 1271.99 -3.00227 -3.95067 0
M  V30 13709 N 1271.17 0.563888 -1.47167 0
M  V30 13710 C 1272.41 1.33221 -1.55021 0
M  V30 13711 C 1272.77 1.90904 -0.204835 0
M  V30 13712 O 1273.97 2.68334 -0.158201 0
M  V30 13713 C 1272.24 2.41757 -2.63227 0
M  V30 13714 S 1273.8 3.28765 -2.90619 0
M  V30 13715 H 1270.62 0.453623 -0.547491 0
M  V30 13716 H 1273.22 0.646265 -1.84509 0
M  V30 13717 H 1271.93 1.97803 -3.59586 0
M  V30 13718 H 1271.46 3.151 -2.35532 0
M  V30 13719 H 1273.47 4.41065 -2.27323 0
M  V30 13720 N 1272.64 1.35187 0.810078 0
M  V30 13721 C 1273.87 1.31181 1.59609 0
M  V30 13722 C 1274.28 -0.113556 1.88859 0
M  V30 13723 O 1273.63 -1.07491 1.48968 0
M  V30 13724 C 1273.69 2.04749 2.95496 0
M  V30 13725 C 1273.35 3.53952 2.89079 0
M  V30 13726 C 1274.35 4.48612 2.6276 0
M  V30 13727 C 1272.03 3.96551 3.08306 0
M  V30 13728 C 1274.03 5.83846 2.5574 0
M  V30 13729 C 1271.71 5.31881 3.00909 0
M  V30 13730 C 1272.71 6.2534 2.74661 0
M  V30 13731 O 1272.4 7.58188 2.6722 0
M  V30 13732 H 1272.13 0.452285 0.502408 0
M  V30 13733 H 1274.69 1.78571 1.01497 0
M  V30 13734 H 1272.92 1.51992 3.55577 0
M  V30 13735 H 1274.61 1.93866 3.5661 0
M  V30 13736 H 1275.37 4.1702 2.47628 0
M  V30 13737 H 1271.25 3.24194 3.27749 0
M  V30 13738 H 1274.79 6.56765 2.35172 0
M  V30 13739 H 1270.69 5.63088 3.15598 0
M  V30 13740 H 1271.46 7.68073 2.82853 0
M  V30 13741 N 1274.12 -1.03182 1.19127 0
M  V30 13742 C 1275.07 -2.13507 0.922899 0
M  V30 13743 C 1276.06 -1.68973 -0.120171 0
M  V30 13744 O 1277.27 -1.79977 0.0288007 0
M  V30 13745 H 1273.65 -0.697516 0.281027 0
M  V30 13746 H 1275.62 -2.33335 1.86003 0
M  V30 13747 C 1274.37 -3.44442 0.474864 0
M  V30 13748 H 1273.69 -3.79125 1.26902 0
M  V30 13749 H 1275.13 -4.22744 0.326162 0
M  V30 13750 C 1273.59 -3.27002 -0.81063 0
M  V30 13751 O 1274.12 -3.55374 -1.87276 0
M  V30 13752 N 1272.32 -2.80303 -0.766713 0
M  V30 13753 H 1271.87 -2.57414 0.0978672 0
M  V30 13754 H 1271.83 -2.69015 -1.62721 0
M  V30 13755 N 1275.6 -0.99472 -1.22242 0
M  V30 13756 C 1276.85 -0.670275 -1.90661 0
M  V30 13757 C 1277.17 0.800369 -1.77818 0
M  V30 13758 O 1276.44 1.57381 -1.16653 0
M  V30 13759 H 1275.02 -0.244925 -0.705706 0
M  V30 13760 H 1277.68 -1.26162 -1.48557 0
M  V30 13761 H 1276.78 -0.934408 -2.97784 0
M  V30 13762 N 1277.08 1.37613 -0.768148 0
M  V30 13763 C 1278.49 1.53202 -0.44737 0
M  V30 13764 C 1278.69 1.72736 1.03752 0
M  V30 13765 O 1277.75 1.74667 1.8234 0
M  V30 13766 C 1279.06 2.7306 -1.25931 0
M  V30 13767 C 1280.61 2.8692 -1.25084 0
M  V30 13768 C 1281.09 4.09757 -2.04605 0
M  V30 13769 N 1282.58 4.16862 -2.0194 0
M  V30 13770 C 1283.31 5.10936 -2.60254 0
M  V30 13771 N 1282.81 6.1059 -3.27341 0
M  V30 13772 N 1284.6 5.03393 -2.50104 0
M  V30 13773 H 1276.75 1.23184 -1.7303 0
M  V30 13774 H 1279.02 0.599541 -0.73434 0
M  V30 13775 H 1278.72 2.65078 -2.31141 0
M  V30 13776 H 1278.6 3.66646 -0.886036 0
M  V30 13777 H 1280.98 2.94375 -0.206736 0
M  V30 13778 H 1281.06 1.94303 -1.66373 0
M  V30 13779 H 1280.71 4.03063 -3.09035 0
M  V30 13780 H 1280.64 5.01481 -1.60701 0
M  V30 13781 H 1283.13 3.455 -1.53096 0
M  V30 13782 H 1283.44 6.78893 -3.6922 0
M  V30 13783 H 1281.79 6.10879 -3.31439 0
M  V30 13784 H 1284.98 4.24483 -1.9731 0
M  V30 13785 H 1285.15 5.76524 -2.95844 0
M  V30 13786 N 1278.56 0.518393 1.4883 0
M  V30 13787 C 1279.47 -0.254811 2.33212 0
M  V30 13788 C 1280.48 -0.950401 1.45751 0
M  V30 13789 O 1281.66 -0.927932 1.78749 0
M  V30 13790 C 1278.72 -1.29509 3.21603 0
M  V30 13791 C 1277.78 -0.611086 4.24928 0
M  V30 13792 C 1277.02 -1.6018 5.09095 0
M  V30 13793 O 1277.24 -2.83336 4.95052 0
M  V30 13794 O 1276.17 -1.14756 5.90859 0
M  V30 13795 H 1280 0.436329 3.00549 0
M  V30 13796 H 1277.59 0.27947 1.46763 0
M  V30 13797 H 1279.47 -1.89654 3.7631 0
M  V30 13798 H 1278.14 -1.96884 2.5694 0
M  V30 13799 H 1277.05 0.0305638 3.74088 0
M  V30 13800 H 1278.38 0.0205249 4.92196 0
M  V30 13801 N 1280.03 -1.55556 0.252993 0
M  V30 13802 C 1281.28 -1.9909 -0.37005 0
M  V30 13803 C 1281.61 -1.1412 -1.57502 0
M  V30 13804 O 1280.86 -0.193471 -1.94741 0
M  V30 13805 C 1281.16 -3.47925 -0.817484 0
M  V30 13806 C 1280.83 -4.50027 0.280398 0
M  V30 13807 C 1279.49 -4.77669 0.581914 0
M  V30 13808 C 1281.84 -5.11096 1.02129 0
M  V30 13809 C 1279.17 -5.63652 1.62829 0
M  V30 13810 C 1281.52 -5.98215 2.05723 0
M  V30 13811 C 1280.19 -6.24186 2.36533 0
M  V30 13812 H 1279.46 -0.728522 -0.135411 0
M  V30 13813 H 1282.1 -1.88046 0.36209 0
M  V30 13814 H 1280.41 -3.56333 -1.62893 0
M  V30 13815 H 1282.11 -3.79001 -1.30993 0
M  V30 13816 H 1278.7 -4.28585 0.0352579 0
M  V30 13817 H 1282.88 -4.89784 0.801603 0
M  V30 13818 H 1278.14 -5.82028 1.87227 0
M  V30 13819 H 1282.31 -6.44575 2.6362 0
M  V30 13820 H 1279.94 -6.90607 3.17752 0
M  V30 13821 N 1281.51 0.0200419 -1.57587 0
M  V30 13822 C 1282.42 1.0346 -2.10555 0
M  V30 13823 C 1283.44 1.39035 -1.0462 0
M  V30 13824 O 1284.61 1.48172 -1.36407 0
M  V30 13825 C 1281.68 2.31389 -2.58186 0
M  V30 13826 C 1280.74 2.02311 -3.7864 0
M  V30 13827 C 1279.97 3.24141 -4.23991 0
M  V30 13828 O 1280.2 4.35132 -3.68803 0
M  V30 13829 O 1279.13 3.09312 -5.16342 0
M  V30 13830 H 1282.96 0.614419 -2.9742 0
M  V30 13831 H 1280.54 0.237604 -1.47498 0
M  V30 13832 H 1282.42 3.06582 -2.89112 0
M  V30 13833 H 1281.1 2.72684 -1.74428 0
M  V30 13834 H 1280.01 1.24658 -3.5272 0
M  V30 13835 H 1281.34 1.65866 -4.6341 0
M  V30 13836 N 1282.99 1.54862 0.292472 0
M  V30 13837 C 1284.27 1.65237 1.04671 0
M  V30 13838 C 1284.65 0.506168 2.04942 0
M  V30 13839 O 1284 -0.496123 2.23049 0
M  V30 13840 C 1284.21 3.03618 1.72095 0
M  V30 13841 C 1285.55 3.6072 2.23979 0
M  V30 13842 O 1286.58 3.06126 1.82114 0
M  V30 13843 O 1285.44 4.56328 3.0071 0
M  V30 13844 H 1282.53 0.670347 0.484319 0
M  V30 13845 H 1285.08 1.67206 0.28988 0
M  V30 13846 H 1283.85 3.78482 0.993324 0
M  V30 13847 H 1283.47 3.05464 2.54514 0
M  V30 13848 N 1284.47 -0.556076 1.47464 0
M  V30 13849 C 1285.72 -1.3132 1.54147 0
M  V30 13850 C 1286.04 -1.93425 0.204221 0
M  V30 13851 O 1285.3 -1.78467 -0.803002 0
M  V30 13852 C 1285.6 -2.44298 2.6087 0
M  V30 13853 C 1285.26 -2.00016 4.04109 0
M  V30 13854 C 1283.93 -1.87656 4.43101 0
M  V30 13855 C 1286.28 -1.66228 4.93981 0
M  V30 13856 C 1283.61 -1.39805 5.698 0
M  V30 13857 C 1285.96 -1.19848 6.21144 0
M  V30 13858 C 1284.62 -1.06084 6.59016 0
M  V30 13859 H 1283.89 -0.480534 0.564064 0
M  V30 13860 H 1286.54 -0.623449 1.81067 0
M  V30 13861 H 1284.84 -3.18834 2.27711 0
M  V30 13862 H 1286.54 -3.02479 2.63263 0
M  V30 13863 H 1283.13 -2.1058 3.73302 0
M  V30 13864 H 1287.31 -1.7465 4.64555 0
M  V30 13865 H 1282.57 -1.27814 5.97891 0
M  V30 13866 H 1286.74 -0.927657 6.90194 0
M  V30 13867 H 1284.37 -0.687834 7.57082 0
M  V30 13868 N 1285.95 -1.35615 -0.802897 0
M  V30 13869 C 1287.17 -1.32377 -1.59659 0
M  V30 13870 C 1287.6 0.0954235 -1.87858 0
M  V30 13871 O 1286.96 1.06336 -1.46842 0
M  V30 13872 C 1287 -2.13972 -2.90256 0
M  V30 13873 O 1286.11 -1.52296 -3.83249 0
M  V30 13874 H 1285.45 -0.453699 -0.484823 0
M  V30 13875 H 1287.98 -1.78708 -0.996217 0
M  V30 13876 H 1287.99 -2.26061 -3.39647 0
M  V30 13877 H 1286.66 -3.17145 -2.69057 0
M  V30 13878 H 1285.24 -1.49068 -3.41809 0
M  V30 13879 N 1287.43 1.02549 -1.19673 0
M  V30 13880 C 1288.36 2.12794 -0.961289 0
M  V30 13881 C 1289.34 1.69766 0.106575 0
M  V30 13882 O 1290.52 1.94138 -0.0491358 0
M  V30 13883 C 1287.65 3.4364 -0.502868 0
M  V30 13884 C 1286.61 4.00367 -1.51296 0
M  V30 13885 C 1285.93 5.26874 -0.911491 0
M  V30 13886 C 1287.23 4.34782 -2.89416 0
M  V30 13887 H 1288.93 2.32748 -1.88331 0
M  V30 13888 H 1286.47 1.11852 -0.906922 0
M  V30 13889 H 1288.42 4.20141 -0.325436 0
M  V30 13890 H 1287.15 3.23418 0.454764 0
M  V30 13891 H 1285.81 3.25964 -1.67759 0
M  V30 13892 H 1285.46 5.02971 0.0537982 0
M  V30 13893 H 1285.16 5.65791 -1.58602 0
M  V30 13894 H 1286.68 6.06039 -0.74493 0
M  V30 13895 H 1288.09 5.02207 -2.76516 0
M  V30 13896 H 1286.49 4.8479 -3.53693 0
M  V30 13897 H 1287.56 3.43935 -3.41814 0
M  V30 13898 N 1288.9 1.00119 1.21713 0
M  V30 13899 C 1289.81 0.567582 2.27631 0
M  V30 13900 C 1290.83 -0.387593 1.69628 0
M  V30 13901 O 1292.01 -0.252372 1.99813 0
M  V30 13902 C 1289.07 -0.102745 3.46548 0
M  V30 13903 C 1288.13 0.896433 4.19836 0
M  V30 13904 C 1287.36 0.258 5.33076 0
M  V30 13905 O 1287.59 -0.946118 5.62499 0
M  V30 13906 O 1286.52 0.967021 5.94081 0
M  V30 13907 H 1290.35 1.44898 2.66905 0
M  V30 13908 H 1287.93 0.769862 1.28037 0
M  V30 13909 H 1289.81 -0.477846 4.18682 0
M  V30 13910 H 1288.49 -0.958576 3.09181 0
M  V30 13911 H 1287.4 1.32262 3.49939 0
M  V30 13912 H 1288.73 1.72173 4.61104 0
M  V30 13913 N 1290.38 -1.37203 0.775435 0
M  V30 13914 C 1291.33 -2.30228 0.162388 0
M  V30 13915 C 1292.3 -1.51284 -0.685747 0
M  V30 13916 O 1293.48 -1.7984 -0.637342 0
M  V30 13917 C 1290.62 -3.37762 -0.707858 0
M  V30 13918 C 1289.74 -4.31714 0.157287 0
M  V30 13919 C 1288.87 -5.26325 -0.718012 0
M  V30 13920 C 1287.91 -6.11918 0.149442 0
M  V30 13921 N 1287.05 -6.9876 -0.684043 0
M  V30 13922 H 1291.89 -2.82073 0.961184 0
M  V30 13923 H 1289.42 -1.38854 0.485587 0
M  V30 13924 H 1291.38 -3.98741 -1.22726 0
M  V30 13925 H 1290.01 -2.87273 -1.47222 0
M  V30 13926 H 1289.06 -3.7201 0.794533 0
M  V30 13927 H 1290.38 -4.91909 0.826262 0
M  V30 13928 H 1289.53 -5.92526 -1.30376 0
M  V30 13929 H 1288.27 -4.6655 -1.42066 0
M  V30 13930 H 1287.27 -5.44692 0.747697 0
M  V30 13931 H 1288.5 -6.73766 0.849476 0
M  V30 13932 H 1286.45 -6.41508 -1.37124 0
M  V30 13933 H 1286.36 -7.55965 -0.0724464 0
M  V30 13934 H 1287.63 -7.69346 -1.25407 0
M  V30 13935 N 1291.86 -0.526279 -1.48553 0
M  V30 13936 C 1292.79 0.275579 -2.27537 0
M  V30 13937 C 1293.8 0.90782 -1.35139 0
M  V30 13938 O 1294.99 0.786887 -1.6022 0
M  V30 13939 C 1292.09 1.40515 -3.08397 0
M  V30 13940 C 1291.27 0.875523 -4.28548 0
M  V30 13941 C 1290.33 1.88577 -4.91249 0
M  V30 13942 O 1289.35 1.44419 -5.50574 0
M  V30 13943 N 1290.55 3.21774 -4.83158 0
M  V30 13944 H 1293.32 -0.401803 -2.96994 0
M  V30 13945 H 1290.88 -0.360378 -1.57838 0
M  V30 13946 H 1292.87 2.07907 -3.47213 0
M  V30 13947 H 1291.44 1.98626 -2.41384 0
M  V30 13948 H 1290.66 0.025728 -3.94192 0
M  V30 13949 H 1291.95 0.500493 -5.06332 0
M  V30 13950 H 1291.35 3.60319 -4.36104 0
M  V30 13951 H 1289.9 3.84808 -5.26085 0
M  V30 13952 N 1293.34 1.5542 -0.261239 0
M  V30 13953 C 1294.28 2.21972 0.632216 0
M  V30 13954 C 1295.25 1.18843 1.16041 0
M  V30 13955 O 1296.44 1.47339 1.21226 0
M  V30 13956 C 1293.58 2.93397 1.81693 0
M  V30 13957 C 1292.69 4.11214 1.3239 0
M  V30 13958 C 1291.83 4.70318 2.46931 0
M  V30 13959 C 1290.87 5.80355 1.94561 0
M  V30 13960 N 1290 6.33581 3.02523 0
M  V30 13961 H 1294.84 2.97944 0.058018 0
M  V30 13962 H 1292.38 1.4709 0.0168725 0
M  V30 13963 H 1294.34 3.33015 2.5131 0
M  V30 13964 H 1292.97 2.19874 2.36337 0
M  V30 13965 H 1292.02 3.76811 0.521292 0
M  V30 13966 H 1293.33 4.90609 0.900214 0
M  V30 13967 H 1292.49 5.12584 3.24565 0
M  V30 13968 H 1291.23 3.90169 2.92608 0
M  V30 13969 H 1290.23 5.37552 1.15402 0
M  V30 13970 H 1291.46 6.62364 1.49836 0
M  V30 13971 H 1289.4 5.56332 3.47608 0
M  V30 13972 H 1289.32 7.08209 2.64529 0
M  V30 13973 H 1290.59 6.80506 3.80174 0
M  V30 13974 N 1294.82 -0.0116844 1.57596 0
M  V30 13975 C 1295.77 -1.01509 2.04157 0
M  V30 13976 C 1296.75 -1.31011 0.934076 0
M  V30 13977 O 1297.94 -1.30305 1.1979 0
M  V30 13978 C 1295.07 -2.31081 2.53883 0
M  V30 13979 C 1294.16 -2.04594 3.71486 0
M  V30 13980 N 1294.55 -1.48224 4.83594 0
M  V30 13981 C 1292.85 -2.34795 3.79193 0
M  V30 13982 C 1293.55 -1.37941 5.65108 0
M  V30 13983 N 1292.52 -1.861 5.10752 0
M  V30 13984 H 1296.32 -0.573556 2.88249 0
M  V30 13985 H 1293.84 -0.217632 1.60935 0
M  V30 13986 H 1295.84 -3.03793 2.85509 0
M  V30 13987 H 1294.5 -2.75897 1.71204 0
M  V30 13988 H 1295.51 -1.16261 5.04682 0
M  V30 13989 H 1292.18 -2.82566 3.07348 0
M  V30 13990 H 1293.57 -0.946997 6.65193 0
M  V30 13991 N 1296.29 -1.55015 -0.284256 0
M  V30 13992 C 1297.54 -1.74297 -1.01506 0
M  V30 13993 C 1297.86 -0.545134 -1.8785 0
M  V30 13994 O 1299.06 -0.620118 -2.64323 0
M  V30 13995 C 1297.52 -3.08438 -1.85456 0
M  V30 13996 C 1297.13 -4.35753 -1.04034 0
M  V30 13997 C 1298.87 -3.37073 -2.58035 0
M  V30 13998 C 1296.78 -5.60938 -1.87358 0
M  V30 13999 H 1295.71 -0.649656 -0.382705 0
M  V30 14000 H 1298.36 -1.81484 -0.271239 0
M  V30 14001 H 1296.74 -2.95259 -2.63891 0
M  V30 14002 H 1297.91 -4.59816 -0.300954 0
M  V30 14003 H 1296.23 -4.14178 -0.429616 0
M  V30 14004 H 1298.83 -4.27806 -3.20759 0
M  V30 14005 H 1299.17 -2.56698 -3.27738 0
M  V30 14006 H 1299.7 -3.51299 -1.86638 0
M  V30 14007 H 1296.44 -6.44029 -1.22096 0
M  V30 14008 H 1295.96 -5.41035 -2.58923 0
M  V30 14009 H 1297.64 -5.98819 -2.44999 0
M  V30 14010 N 1297.77 0.548248 -1.47757 0
M  V30 14011 C 1298.7 1.66409 -1.63799 0
M  V30 14012 C 1299.68 1.62973 -0.487211 0
M  V30 14013 O 1300.87 1.80455 -0.717612 0
M  V30 14014 C 1298 3.05035 -1.66046 0
M  V30 14015 C 1296.95 3.23322 -2.80441 0
M  V30 14016 C 1296.28 4.62824 -2.67765 0
M  V30 14017 C 1297.58 3.07837 -4.2194 0
M  V30 14018 H 1299.27 1.53239 -2.57212 0
M  V30 14019 H 1296.82 0.735783 -1.23783 0
M  V30 14020 H 1298.77 3.82951 -1.75859 0
M  V30 14021 H 1297.49 3.19185 -0.69199 0
M  V30 14022 H 1296.15 2.47816 -2.70153 0
M  V30 14023 H 1295.8 4.73786 -1.68927 0
M  V30 14024 H 1295.5 4.76007 -3.44515 0
M  V30 14025 H 1297.03 5.42864 -2.7952 0
M  V30 14026 H 1298.44 3.75563 -4.33157 0
M  V30 14027 H 1296.84 3.32525 -4.99547 0
M  V30 14028 H 1297.91 2.04474 -4.3968 0
M  V30 14029 N 1299.25 1.36039 0.795694 0
M  V30 14030 C 1300.2 1.29853 1.90806 0
M  V30 14031 C 1301.17 0.168387 1.65244 0
M  V30 14032 O 1302.35 0.353879 1.8749 0
M  V30 14033 C 1299.49 1.08737 3.27521 0
M  V30 14034 C 1298.6 2.30771 3.65197 0
M  V30 14035 C 1297.74 2.02718 4.90998 0
M  V30 14036 C 1296.78 3.20746 5.21333 0
M  V30 14037 N 1295.92 2.92399 6.38316 0
M  V30 14038 H 1300.76 2.2497 1.95429 0
M  V30 14039 H 1298.29 1.11819 0.955771 0
M  V30 14040 H 1300.25 0.945236 4.06351 0
M  V30 14041 H 1298.88 0.172781 3.22337 0
M  V30 14042 H 1297.93 2.5581 2.81541 0
M  V30 14043 H 1299.24 3.18869 3.83568 0
M  V30 14044 H 1298.4 1.85398 5.77679 0
M  V30 14045 H 1297.14 1.11921 4.74684 0
M  V30 14046 H 1296.14 3.38632 4.33138 0
M  V30 14047 H 1297.37 4.1236 5.3957 0
M  V30 14048 H 1295.31 2.04207 6.23406 0
M  V30 14049 H 1295.23 3.74034 6.56989 0
M  V30 14050 H 1296.5 2.78643 7.27996 0
M  V30 14051 N 1300.73 -1.01913 1.20215 0
M  V30 14052 C 1301.68 -2.12516 0.945493 0
M  V30 14053 C 1302.67 -1.69091 -0.102243 0
M  V30 14054 O 1303.88 -1.79936 0.047888 0
M  V30 14055 H 1300.25 -0.694496 0.288409 0
M  V30 14056 H 1302.22 -2.31349 1.88468 0
M  V30 14057 C 1300.97 -3.43919 0.51137 0
M  V30 14058 H 1300.29 -3.77758 1.30916 0
M  V30 14059 H 1301.73 -4.22374 0.370981 0
M  V30 14060 C 1300.19 -3.27844 -0.775902 0
M  V30 14061 O 1300.72 -3.5734 -1.83496 0
M  V30 14062 N 1298.93 -2.81101 -0.73694 0
M  V30 14063 H 1298.48 -2.57296 0.125164 0
M  V30 14064 H 1298.43 -2.70726 -1.59859 0
M  V30 14065 N 1302.21 -1.00763 -1.2118 0
M  V30 14066 C 1303.43 -0.710746 -1.94309 0
M  V30 14067 C 1303.85 0.727103 -1.74237 0
M  V30 14068 O 1303.21 1.49223 -1.05065 0
M  V30 14069 C 1303.26 -1.02562 -3.46646 0
M  V30 14070 O 1302.98 -2.40699 -3.66054 0
M  V30 14071 C 1304.48 -0.748517 -4.36935 0
M  V30 14072 H 1301.7 -0.26171 -0.617858 0
M  V30 14073 H 1304.24 -1.34639 -1.53924 0
M  V30 14074 H 1302.4 -0.435537 -3.84944 0
M  V30 14075 H 1302.81 -2.51764 -4.60125 0
M  V30 14076 H 1304.29 -1.01899 -5.42513 0
M  V30 14077 H 1304.76 0.317423 -4.38051 0
M  V30 14078 H 1305.37 -1.32033 -4.04286 0
M  V30 14079 N 1303.68 1.3679 -0.7827 0
M  V30 14080 C 1305.1 1.82006 -0.41603 0
M  V30 14081 C 1305.45 1.65151 1.05922 0
M  V30 14082 O 1304.57 1.1687 1.82127 0
M  V30 14083 C 1305.17 3.30432 -0.748353 0
M  V30 14084 C 1303.73 3.73883 -0.4346 0
M  V30 14085 C 1302.87 2.59159 -0.986505 0
M  V30 14086 H 1305.82 1.25107 -0.976423 0
M  V30 14087 H 1305.84 3.80482 -0.036985 0
M  V30 14088 H 1305.36 3.42667 -1.82212 0
M  V30 14089 H 1303.46 3.67211 0.631401 0
M  V30 14090 H 1303.57 4.69577 -0.950511 0
M  V30 14091 H 1301.93 2.51377 -0.410108 0
M  V30 14092 H 1302.72 2.74182 -2.06589 0
M  V30 14093 N 1305.16 0.53415 1.48272 0
M  V30 14094 C 1306.58 0.192291 1.58437 0
M  V30 14095 C 1306.78 -1.3046 1.53566 0
M  V30 14096 O 1305.83 -2.08316 1.42692 0
M  V30 14097 C 1307.15 0.798515 2.89904 0
M  V30 14098 C 1308.7 0.76763 3.03441 0
M  V30 14099 C 1309.17 1.3525 4.37574 0
M  V30 14100 N 1310.66 1.31466 4.44152 0
M  V30 14101 C 1311.4 1.73706 5.46456 0
M  V30 14102 N 1310.89 2.23695 6.55692 0
M  V30 14103 N 1312.69 1.64918 5.37363 0
M  V30 14104 H 1304.84 1.50696 1.49681 0
M  V30 14105 H 1307.1 0.627073 0.710973 0
M  V30 14106 H 1306.81 1.8496 2.99136 0
M  V30 14107 H 1306.68 0.278033 3.76174 0
M  V30 14108 H 1309.07 -0.274704 2.93819 0
M  V30 14109 H 1309.15 1.32562 2.18771 0
M  V30 14110 H 1308.79 2.39379 4.47951 0
M  V30 14111 H 1308.72 0.770153 5.20938 0
M  V30 14112 H 1311.21 0.948761 3.65796 0
M  V30 14113 H 1311.53 2.5391 7.29897 0
M  V30 14114 H 1309.87 2.27691 6.56644 0
M  V30 14115 H 1313.06 1.25658 4.50919 0
M  V30 14116 H 1313.23 1.98157 6.16958 0
M  V30 14117 N 1306.64 -1.55279 0.269478 0
M  V30 14118 C 1307.89 -1.98649 -0.349522 0
M  V30 14119 C 1308.2 -1.16125 -1.57399 0
M  V30 14120 O 1309.41 -1.49612 -2.26558 0
M  V30 14121 C 1307.86 -3.53547 -0.673224 0
M  V30 14122 C 1307.47 -4.44841 0.531119 0
M  V30 14123 C 1309.22 -4.05519 -1.25516 0
M  V30 14124 C 1307.12 -5.91119 0.182317 0
M  V30 14125 H 1306.05 -0.74193 -0.13437 0
M  V30 14126 H 1308.7 -1.79664 0.373246 0
M  V30 14127 H 1307.09 -3.68311 -1.45474 0
M  V30 14128 H 1308.26 -4.41843 1.3081 0
M  V30 14129 H 1306.58 -4.03472 1.02952 0
M  V30 14130 H 1309.17 -5.12347 -1.52984 0
M  V30 14131 H 1309.52 -3.54215 -2.18718 0
M  V30 14132 H 1310.05 -3.94172 -0.536059 0
M  V30 14133 H 1306.79 -6.46507 1.08206 0
M  V30 14134 H 1306.31 -5.97199 -0.558008 0
M  V30 14135 H 1307.99 -6.466 -0.227484 0
M  V30 14136 N 1308.12 0.00332656 -1.576 0
M  V30 14137 C 1309.36 0.68989 -1.90705 0
M  V30 14138 C 1309.7 1.73608 -0.870291 0
M  V30 14139 O 1308.97 1.94181 0.111416 0
M  V30 14140 C 1309.26 1.33605 -3.34397 0
M  V30 14141 C 1309.11 0.301638 -4.48787 0
M  V30 14142 C 1310.43 2.26313 -3.77453 0
M  V30 14143 H 1307.55 0.249328 -0.693545 0
M  V30 14144 H 1310.19 -0.0472847 -1.89941 0
M  V30 14145 H 1308.34 1.96437 -3.35179 0
M  V30 14146 H 1310.01 -0.326738 -4.60141 0
M  V30 14147 H 1308.25 -0.376451 -4.32163 0
M  V30 14148 H 1308.92 0.792741 -5.46278 0
M  V30 14149 H 1311.4 1.73502 -3.78201 0
M  V30 14150 H 1310.28 2.68492 -4.78752 0
M  V30 14151 H 1310.54 3.14082 -3.11135 0
M  V30 14152 N 1309.6 1.55164 0.276031 0
M  V30 14153 C 1310.84 1.75627 1.00803 0
M  V30 14154 C 1311.17 0.555696 1.86393 0
M  V30 14155 O 1310.43 -0.461872 1.90172 0
M  V30 14156 C 1310.73 3.0127 1.92279 0
M  V30 14157 C 1310.39 4.33951 1.22464 0
M  V30 14158 C 1309.05 4.70013 1.03158 0
M  V30 14159 C 1311.41 5.16097 0.72758 0
M  V30 14160 C 1308.73 5.85779 0.328699 0
M  V30 14161 C 1311.09 6.32588 0.0383001 0
M  V30 14162 C 1309.75 6.67292 -0.166494 0
M  V30 14163 H 1309.02 0.642665 0.368866 0
M  V30 14164 H 1311.67 1.89433 0.280595 0
M  V30 14165 H 1309.97 2.82351 2.71634 0
M  V30 14166 H 1311.67 3.14299 2.49032 0
M  V30 14167 H 1308.26 4.05605 1.38501 0
M  V30 14168 H 1312.44 4.88715 0.864365 0
M  V30 14169 H 1307.7 6.11192 0.159279 0
M  V30 14170 H 1311.87 6.95496 -0.354631 0
M  V30 14171 H 1309.5 7.56848 -0.713124 0
M  V30 14172 N 1311.07 -0.540404 1.48045 0
M  V30 14173 C 1312.31 -1.30737 1.57121 0
M  V30 14174 C 1312.68 -1.90554 0.23518 0
M  V30 14175 O 1313.88 -2.68048 0.20087 0
M  V30 14176 C 1312.15 -2.37539 2.6704 0
M  V30 14177 S 1313.71 -3.241 2.95812 0
M  V30 14178 H 1310.53 -0.444856 0.554639 0
M  V30 14179 H 1313.13 -0.61683 1.85514 0
M  V30 14180 H 1311.83 -1.92057 3.62688 0
M  V30 14181 H 1311.36 -3.11313 2.40515 0
M  V30 14182 H 1313.38 -4.37393 2.34311 0
M  V30 14183 N 1312.55 -1.36459 -0.788468 0
M  V30 14184 C 1313.97 -1.16893 -1.08666 0
M  V30 14185 C 1314.17 0.00633808 -2.01499 0
M  V30 14186 O 1313.22 0.671417 -2.4341 0
M  V30 14187 C 1314.54 -2.48018 -1.70022 0
M  V30 14188 C 1316.09 -2.5439 -1.82358 0
M  V30 14189 C 1316.56 -3.85605 -2.47129 0
M  V30 14190 N 1318.05 -3.86956 -2.54597 0
M  V30 14191 C 1318.79 -4.85224 -3.05525 0
M  V30 14192 N 1318.28 -5.93885 -3.56753 0
M  V30 14193 N 1320.08 -4.72643 -3.04246 0
M  V30 14194 H 1312.23 -2.11705 -0.171733 0
M  V30 14195 H 1314.49 -0.937784 -0.1388 0
M  V30 14196 H 1314.2 -3.34292 -1.09277 0
M  V30 14197 H 1314.07 -2.63894 -2.69518 0
M  V30 14198 H 1316.46 -1.68534 -2.4224 0
M  V30 14199 H 1316.54 -2.42414 -0.816651 0
M  V30 14200 H 1316.18 -4.71868 -1.87891 0
M  V30 14201 H 1316.11 -3.94878 -3.48395 0
M  V30 14202 H 1318.6 -3.08453 -2.18323 0
M  V30 14203 H 1318.92 -6.64839 -3.93966 0
M  V30 14204 H 1317.26 -5.97553 -3.54902 0
M  V30 14205 H 1320.45 -3.86883 -2.63513 0
M  V30 14206 H 1320.62 -5.49385 -3.43627 0
M  V30 14207 N 1314.03 1.01274 -1.20754 0
M  V30 14208 C 1315.26 1.78524 -1.04579 0
M  V30 14209 C 1315.67 1.84409 0.404809 0
M  V30 14210 O 1315.03 1.29987 1.281 0
M  V30 14211 C 1315.08 3.22806 -1.62722 0
M  V30 14212 O 1314.8 3.17276 -3.02106 0
M  V30 14213 C 1316.3 4.16589 -1.51553 0
M  V30 14214 H 1313.52 0.561299 -0.367674 0
M  V30 14215 H 1316.07 1.27454 -1.59924 0
M  V30 14216 H 1314.22 3.71011 -1.11487 0
M  V30 14217 H 1314.64 4.07866 -3.29766 0
M  V30 14218 H 1316.11 5.15654 -1.9699 0
M  V30 14219 H 1316.59 4.36692 -0.468659 0
M  V30 14220 H 1317.19 3.74269 -2.01998 0
M  V30 14221 N 1315.51 1.01404 1.20644 0
M  V30 14222 C 1316.42 0.591693 2.27016 0
M  V30 14223 C 1317.44 -0.36958 1.7003 0
M  V30 14224 O 1318.61 -0.231165 2.00069 0
M  V30 14225 C 1315.68 -0.0659827 3.46637 0
M  V30 14226 C 1314.74 0.940911 4.18862 0
M  V30 14227 C 1313.97 0.314526 5.32772 0
M  V30 14228 O 1314.19 -0.886404 5.63471 0
M  V30 14229 O 1313.13 1.02998 5.93022 0
M  V30 14230 H 1316.95 1.4772 2.65353 0
M  V30 14231 H 1314.54 0.783399 1.27213 0
M  V30 14232 H 1316.42 -0.433412 4.19165 0
M  V30 14233 H 1315.1 -0.925729 3.10181 0
M  V30 14234 H 1314 1.35966 3.48517 0
M  V30 14235 H 1315.34 1.77054 4.59252 0
M  V30 14236 N 1316.99 -1.36373 0.789944 0
M  V30 14237 C 1318.4 -1.81783 0.425677 0
M  V30 14238 C 1318.75 -1.65711 -1.05045 0
M  V30 14239 O 1317.87 -1.17835 -1.81505 0
M  V30 14240 C 1318.47 -3.3003 0.765866 0
M  V30 14241 C 1317.03 -3.73647 0.454421 0
M  V30 14242 C 1316.18 -2.58632 1.00023 0
M  V30 14243 H 1319.13 -1.24587 0.983044 0
M  V30 14244 H 1319.15 -3.80457 0.0571624 0
M  V30 14245 H 1318.66 -3.41696 1.84026 0
M  V30 14246 H 1316.76 -3.67541 -0.611918 0
M  V30 14247 H 1316.87 -4.69066 0.975401 0
M  V30 14248 H 1315.24 -2.51156 0.423434 0
M  V30 14249 H 1316.02 -2.73083 2.0804 0
M  V30 14250 N 1318.47 -0.542005 -1.47987 0
M  V30 14251 C 1319.41 0.214151 -2.29804 0
M  V30 14252 C 1320.38 0.922625 -1.38119 0
M  V30 14253 O 1321.57 0.921301 -1.67083 0
M  V30 14254 C 1318.71 1.24768 -3.21756 0
M  V30 14255 C 1317.82 0.546824 -4.28525 0
M  V30 14256 C 1316.96 1.56432 -5.07644 0
M  V30 14257 C 1315.99 0.847598 -6.06203 0
M  V30 14258 N 1315.13 1.81121 -6.78336 0
M  V30 14259 H 1319.97 -0.489707 -2.93949 0
M  V30 14260 H 1317.51 -0.253331 -1.44902 0
M  V30 14261 H 1319.47 1.85933 -3.73477 0
M  V30 14262 H 1318.1 1.91976 -2.59509 0
M  V30 14263 H 1317.15 -0.179026 -3.79978 0
M  V30 14264 H 1318.46 -0.0153623 -4.98798 0
M  V30 14265 H 1317.61 2.24992 -5.63439 0
M  V30 14266 H 1316.35 2.16041 -4.37238 0
M  V30 14267 H 1315.36 0.147989 -5.49601 0
M  V30 14268 H 1316.58 0.257454 -6.78612 0
M  V30 14269 H 1314.53 2.39615 -6.10672 0
M  V30 14270 H 1314.45 1.30077 -7.44725 0
M  V30 14271 H 1315.71 2.48842 -7.38714 0
M  V30 14272 N 1319.94 1.55134 -0.277709 0
M  V30 14273 C 1320.89 2.19317 0.623216 0
M  V30 14274 C 1321.88 1.15863 1.11645 0
M  V30 14275 O 1323.07 1.41668 1.0611 0
M  V30 14276 C 1320.2 2.91976 1.80568 0
M  V30 14277 C 1319.28 4.02722 1.3295 0
M  V30 14278 N 1319.68 5.02582 0.569654 0
M  V30 14279 C 1317.97 4.1584 1.61224 0
M  V30 14280 C 1318.67 5.80825 0.318983 0
M  V30 14281 N 1317.65 5.36229 0.892145 0
M  V30 14282 H 1321.45 2.93879 0.0348669 0
M  V30 14283 H 1318.97 1.62196 -0.0813871 0
M  V30 14284 H 1320.96 3.36408 2.46242 0
M  V30 14285 H 1319.62 2.18925 2.39796 0
M  V30 14286 H 1320.63 5.17446 0.216749 0
M  V30 14287 H 1317.31 3.53981 2.21368 0
M  V30 14288 H 1318.7 6.71275 -0.289742 0
M  V30 14289 N 1321.42 0.00503138 1.57599 0
M  V30 14290 C 1322.37 -0.984754 2.08737 0
M  V30 14291 C 1323.34 -1.33822 0.983915 0
M  V30 14292 O 1324.52 -1.43572 1.25665 0
M  V30 14293 C 1321.66 -2.26984 2.59946 0
M  V30 14294 C 1320.78 -1.97496 3.84212 0
M  V30 14295 C 1319.91 -3.20123 4.23904 0
M  V30 14296 C 1318.95 -2.86344 5.40993 0
M  V30 14297 N 1318.09 -4.01524 5.75954 0
M  V30 14298 H 1322.93 -0.541737 2.93034 0
M  V30 14299 H 1320.46 -0.255834 1.44858 0
M  V30 14300 H 1322.42 -3.02117 2.87717 0
M  V30 14301 H 1321.05 -2.68946 1.78516 0
M  V30 14302 H 1320.1 -1.12709 3.63319 0
M  V30 14303 H 1321.42 -1.68602 4.69441 0
M  V30 14304 H 1320.57 -4.03598 4.52983 0
M  V30 14305 H 1319.31 -3.5216 3.37394 0
M  V30 14306 H 1318.31 -2.01278 5.11632 0
M  V30 14307 H 1319.54 -2.5555 6.29183 0
M  V30 14308 H 1317.49 -4.33447 4.92402 0
M  V30 14309 H 1317.4 -3.76171 6.55768 0
M  V30 14310 H 1318.67 -4.85772 6.09628 0
M  V30 14311 N 1322.9 -1.55308 -0.267798 0
M  V30 14312 C 1323.85 -1.88544 -1.33115 0
M  V30 14313 C 1324.82 -0.737465 -1.48831 0
M  V30 14314 O 1326 -0.989215 -1.63154 0
M  V30 14315 C 1323.14 -2.1674 -2.68547 0
M  V30 14316 C 1322.25 -3.44234 -2.61011 0
M  V30 14317 C 1321.39 -3.62104 -3.88657 0
M  V30 14318 C 1320.43 -4.83272 -3.75652 0
M  V30 14319 N 1319.57 -4.97772 -4.95144 0
M  V30 14320 H 1324.41 -2.79237 -1.04071 0
M  V30 14321 H 1321.94 -1.38245 -0.502677 0
M  V30 14322 H 1323.9 -2.31088 -3.47353 0
M  V30 14323 H 1322.53 -1.29276 -2.95783 0
M  V30 14324 H 1321.58 -3.3833 -1.73887 0
M  V30 14325 H 1322.89 -4.33177 -2.47303 0
M  V30 14326 H 1322.05 -3.76298 -4.75904 0
M  V30 14327 H 1320.79 -2.71356 -4.05238 0
M  V30 14328 H 1319.79 -4.69076 -2.86788 0
M  V30 14329 H 1321.02 -5.75461 -3.60585 0
M  V30 14330 H 1318.96 -4.09956 -5.12125 0
M  V30 14331 H 1318.88 -5.80769 -4.83987 0
M  V30 14332 H 1320.15 -5.16357 -5.83949 0
M  V30 14333 N 1324.38 0.532545 -1.4833 0
M  V30 14334 C 1325.31 1.65325 -1.58746 0
M  V30 14335 C 1326.32 1.5581 -0.471925 0
M  V30 14336 O 1327.51 1.62317 -0.742656 0
M  V30 14337 C 1324.61 3.03957 -1.49877 0
M  V30 14338 C 1323.78 3.38979 -2.76427 0
M  V30 14339 C 1322.84 4.56881 -2.61048 0
M  V30 14340 O 1321.87 4.6023 -3.34928 0
M  V30 14341 N 1323.07 5.54898 -1.70496 0
M  V30 14342 H 1325.84 1.56827 -2.55393 0
M  V30 14343 H 1323.4 0.71976 -1.45021 0
M  V30 14344 H 1325.39 3.80702 -1.37288 0
M  V30 14345 H 1323.96 3.06548 -0.612158 0
M  V30 14346 H 1323.18 2.51438 -3.03599 0
M  V30 14347 H 1324.47 3.59163 -3.60388 0
M  V30 14348 H 1323.87 5.54968 -1.0967 0
M  V30 14349 H 1322.42 6.3087 -1.63847 0
M  V30 14350 N 1325.86 1.36875 0.78122 0
M  V30 14351 C 1327.1 1.30886 1.53466 0
M  V30 14352 C 1327.42 -0.107218 1.95306 0
M  V30 14353 O 1328.62 -0.289525 2.69952 0
M  V30 14354 C 1327.08 2.29688 2.77076 0
M  V30 14355 C 1326.69 3.76775 2.42373 0
M  V30 14356 C 1328.43 2.32692 3.55042 0
M  V30 14357 C 1326.34 4.67332 3.62428 0
M  V30 14358 H 1325.27 0.486408 0.576128 0
M  V30 14359 H 1327.92 1.62283 0.856529 0
M  V30 14360 H 1326.3 1.91296 3.4673 0
M  V30 14361 H 1327.48 4.2395 1.80563 0
M  V30 14362 H 1325.79 3.76625 1.77602 0
M  V30 14363 H 1328.39 2.97556 4.44257 0
M  V30 14364 H 1328.73 1.33779 3.94219 0
M  V30 14365 H 1329.26 2.69743 2.92375 0
M  V30 14366 H 1326 5.67339 3.2834 0
M  V30 14367 H 1325.52 4.24868 4.23376 0
M  V30 14368 H 1327.2 4.84005 4.29358 0
M  V30 14369 N 1327.33 -1.00632 1.21289 0
M  V30 14370 C 1328.58 -1.74647 1.03084 0
M  V30 14371 C 1328.91 -1.89271 -0.43476 0
M  V30 14372 O 1328.19 -1.42607 -1.32263 0
M  V30 14373 C 1328.47 -3.15981 1.72709 0
M  V30 14374 C 1328.32 -3.09088 3.2678 0
M  V30 14375 C 1329.64 -4.14875 1.46857 0
M  V30 14376 H 1326.76 -0.633938 0.375889 0
M  V30 14377 H 1329.4 -1.17328 1.49446 0
M  V30 14378 H 1327.55 -3.64918 1.33294 0
M  V30 14379 H 1329.23 -2.67875 3.75554 0
M  V30 14380 H 1327.47 -2.46223 3.57151 0
M  V30 14381 H 1328.14 -4.09041 3.70661 0
M  V30 14382 H 1330.62 -3.74637 1.81069 0
M  V30 14383 H 1329.49 -5.1191 1.98088 0
M  V30 14384 H 1329.75 -4.40302 0.398296 0
M  V30 14385 N 1328.81 -1.02043 -1.20104 0
M  V30 14386 C 1329.76 -0.593945 -2.23027 0
M  V30 14387 C 1330.73 0.387931 -1.61506 0
M  V30 14388 O 1331.91 0.286504 -1.88637 0
M  V30 14389 C 1329.05 0.0577309 -3.45052 0
M  V30 14390 C 1328.17 -0.969169 -4.20988 0
M  V30 14391 C 1327.3 -0.288143 -5.30418 0
M  V30 14392 C 1326.34 -1.30154 -5.98102 0
M  V30 14393 N 1325.48 -0.646912 -6.99113 0
M  V30 14394 H 1330.32 -1.47623 -2.58866 0
M  V30 14395 H 1327.85 -0.738901 -1.27195 0
M  V30 14396 H 1329.81 0.452726 -4.14736 0
M  V30 14397 H 1328.44 0.90364 -3.09894 0
M  V30 14398 H 1327.49 -1.48229 -3.50332 0
M  V30 14399 H 1328.81 -1.73972 -4.67477 0
M  V30 14400 H 1327.96 0.162149 -6.06483 0
M  V30 14401 H 1326.7 0.514683 -4.84977 0
M  V30 14402 H 1325.7 -1.76218 -5.20795 0
M  V30 14403 H 1326.93 -2.10571 -6.45629 0
M  V30 14404 H 1324.88 0.135976 -6.55859 0
M  V30 14405 H 1324.79 -1.35548 -7.43749 0
M  V30 14406 H 1326.06 -0.220339 -7.79189 0
M  V30 14407 N 1330.29 1.35952 -0.797165 0
M  V30 14408 C 1331.54 1.99327 -0.373695 0
M  V30 14409 C 1331.87 1.63111 1.05396 0
M  V30 14410 O 1331.14 0.889736 1.72956 0
M  V30 14411 C 1331.43 3.5593 -0.54641 0
M  V30 14412 C 1331.28 4.01975 -2.01832 0
M  V30 14413 C 1332.6 4.40087 0.0337694 0
M  V30 14414 H 1329.72 0.724107 -0.137254 0
M  V30 14415 H 1332.36 1.61248 -1.00495 0
M  V30 14416 H 1330.51 3.88499 -0.00903959 0
M  V30 14417 H 1332.18 3.79859 -2.61735 0
M  V30 14418 H 1330.43 3.5323 -2.51815 0
M  V30 14419 H 1331.1 5.109 -2.09009 0
M  V30 14420 H 1333.57 4.13923 -0.425039 0
M  V30 14421 H 1332.45 5.48775 -0.117054 0
M  V30 14422 H 1332.71 4.27504 1.12661 0
M  V30 14423 N 1331.77 0.549846 1.47697 0
M  V30 14424 C 1332.7 -0.190364 2.32723 0
M  V30 14425 C 1333.68 -0.915933 1.43334 0
M  V30 14426 O 1334.86 -0.897838 1.72199 0
M  V30 14427 C 1331.99 -1.22545 3.24961 0
M  V30 14428 C 1330.95 -0.616805 4.23532 0
M  V30 14429 C 1330.27 -1.75599 5.05044 0
M  V30 14430 C 1331.57 0.424595 5.20571 0
M  V30 14431 H 1333.27 0.519461 2.94859 0
M  V30 14432 H 1330.81 0.251259 1.41791 0
M  V30 14433 H 1332.77 -1.75139 3.83281 0
M  V30 14434 H 1331.49 -1.96512 2.60865 0
M  V30 14435 H 1330.15 -0.112224 3.66428 0
M  V30 14436 H 1329.8 -2.48453 4.37356 0
M  V30 14437 H 1329.5 -1.35456 5.71774 0
M  V30 14438 H 1331.02 -2.28533 5.6622 0
M  V30 14439 H 1332.44 -0.0150025 5.73298 0
M  V30 14440 H 1330.83 0.7445 5.95464 0
M  V30 14441 H 1331.9 1.32318 4.66497 0
M  V30 14442 N 1333.25 -1.54984 0.285932 0
M  V30 14443 C 1334.19 -2.2295 -0.596822 0
M  V30 14444 C 1335.16 -1.20674 -1.14136 0
M  V30 14445 O 1336.35 -1.49249 -1.18867 0
M  V30 14446 C 1333.49 -2.9625 -1.77002 0
M  V30 14447 C 1332.6 -4.13268 -1.25831 0
M  V30 14448 C 1331.74 -4.74187 -2.39417 0
M  V30 14449 C 1330.78 -5.83377 -1.85304 0
M  V30 14450 N 1329.91 -6.38313 -2.92405 0
M  V30 14451 H 1334.75 -2.97998 -0.0106104 0
M  V30 14452 H 1332.29 -1.47099 0.00653041 0
M  V30 14453 H 1334.25 -3.36971 -2.4598 0
M  V30 14454 H 1332.88 -2.23606 -2.3281 0
M  V30 14455 H 1331.93 -3.77593 -0.461278 0
M  V30 14456 H 1333.24 -4.91979 -0.822049 0
M  V30 14457 H 1332.4 -5.17683 -3.16369 0
M  V30 14458 H 1331.13 -3.94775 -2.86364 0
M  V30 14459 H 1330.14 -5.3932 -1.06835 0
M  V30 14460 H 1331.36 -6.64664 -1.3928 0
M  V30 14461 H 1329.31 -5.61791 -3.38713 0
M  V30 14462 H 1329.23 -7.12328 -2.53228 0
M  V30 14463 H 1330.5 -6.86468 -3.69299 0
M  V30 14464 N 1334.72 -0.0133892 -1.57594 0
M  V30 14465 C 1336 0.706416 -1.82398 0
M  V30 14466 C 1336.38 1.91236 -0.893983 0
M  V30 14467 O 1335.73 2.28436 0.0541675 0
M  V30 14468 C 1335.94 1.09951 -3.31228 0
M  V30 14469 C 1337.29 1.49776 -3.97306 0
M  V30 14470 O 1338.31 1.19293 -3.3563 0
M  V30 14471 O 1337.17 2.06511 -5.0598 0
M  V30 14472 H 1334.26 0.345131 -0.751541 0
M  V30 14473 H 1336.81 -0.0398687 -1.69653 0
M  V30 14474 H 1335.58 0.240514 -3.9056 0
M  V30 14475 H 1335.21 1.90447 -3.49021 0
M  V30 14476 N 1336.2 1.55448 0.259558 0
M  V30 14477 C 1337.13 1.9226 1.32508 0
M  V30 14478 C 1338.11 0.786012 1.5085 0
M  V30 14479 O 1339.3 1.04526 1.6367 0
M  V30 14480 C 1336.43 2.20627 2.68218 0
M  V30 14481 C 1335.38 3.36418 2.64589 0
M  V30 14482 C 1334.71 3.50295 4.03977 0
M  V30 14483 C 1336.01 4.72452 2.2268 0
M  V30 14484 H 1337.7 2.81509 1.01945 0
M  V30 14485 H 1335.25 1.35444 0.488965 0
M  V30 14486 H 1337.2 2.44968 3.42883 0
M  V30 14487 H 1335.93 1.28191 3.00391 0
M  V30 14488 H 1334.58 3.12065 1.92382 0
M  V30 14489 H 1334.23 2.55302 4.33394 0
M  V30 14490 H 1333.93 4.28155 4.02439 0
M  V30 14491 H 1335.46 3.76944 4.8036 0
M  V30 14492 H 1336.87 4.96249 2.87071 0
M  V30 14493 H 1335.27 5.53323 2.32279 0
M  V30 14494 H 1336.34 4.70367 1.17826 0
M  V30 14495 N 1337.68 -0.524672 1.4861 0
M  V30 14496 C 1338.93 -1.27768 1.56588 0
M  V30 14497 C 1339.25 -1.93469 0.243899 0
M  V30 14498 O 1338.52 -1.8159 -0.734985 0
M  V30 14499 H 1337.1 -0.474566 0.576885 0
M  V30 14500 H 1339.76 -0.610114 1.85104 0
M  V30 14501 H 1338.86 -2.05416 2.34969 0
M  V30 14502 N 1339.16 -1.37287 -0.77395 0
M  V30 14503 C 1340.07 -1.35059 -1.91823 0
M  V30 14504 C 1341.08 -0.250489 -1.72188 0
M  V30 14505 O 1342.26 -0.485501 -1.95461 0
M  V30 14506 C 1339.33 -1.15444 -3.26915 0
M  V30 14507 C 1338.39 -2.35073 -3.5922 0
M  V30 14508 C 1337.62 -2.16384 -4.87867 0
M  V30 14509 O 1337.84 -1.14696 -5.58749 0
M  V30 14510 O 1336.78 -3.0452 -5.19183 0
M  V30 14511 H 1340.6 -2.31432 -1.96654 0
M  V30 14512 H 1338.19 -1.17994 -0.916392 0
M  V30 14513 H 1340.07 -1.06484 -4.07724 0
M  V30 14514 H 1338.74 -0.221435 -3.22942 0
M  V30 14515 H 1337.65 -2.49604 -2.78655 0
M  V30 14516 H 1338.98 -3.26933 -3.67934 0
M  V30 14517 N 1340.64 0.999871 -1.21821 0
M  V30 14518 C 1341.86 1.77405 -1.06467 0
M  V30 14519 C 1342.28 1.84828 0.385227 0
M  V30 14520 O 1341.64 1.31338 1.26714 0
M  V30 14521 C 1341.69 3.21062 -1.66137 0
M  V30 14522 O 1341.41 3.14054 -3.05454 0
M  V30 14523 C 1342.91 4.14958 -1.55963 0
M  V30 14524 H 1340.13 0.557368 -0.373607 0
M  V30 14525 H 1342.67 1.2575 -1.61267 0
M  V30 14526 H 1340.83 3.69808 -1.15416 0
M  V30 14527 H 1341.24 4.04346 -3.34073 0
M  V30 14528 H 1342.72 5.13536 -2.02448 0
M  V30 14529 H 1343.19 4.36171 -0.514949 0
M  V30 14530 H 1343.8 3.72105 -2.05956 0
M  V30 14531 N 1342.11 1.02678 1.19562 0
M  V30 14532 C 1343.36 0.723086 1.89471 0
M  V30 14533 C 1343.69 -0.746269 1.79289 0
M  V30 14534 O 1342.97 -1.54322 1.18384 0
M  V30 14535 C 1343.25 1.17224 3.40486 0
M  V30 14536 C 1343.1 2.70266 3.5955 0
M  V30 14537 C 1344.42 0.751397 4.33638 0
M  V30 14538 H 1341.54 0.264155 0.688034 0
M  V30 14539 H 1344.18 1.27633 1.40747 0
M  V30 14540 H 1342.33 0.701544 3.82113 0
M  V30 14541 H 1344.01 3.25266 3.27108 0
M  V30 14542 H 1342.25 3.10758 3.02675 0
M  V30 14543 H 1342.92 2.96748 4.65451 0
M  V30 14544 H 1345.4 1.15621 3.99714 0
M  V30 14545 H 1344.27 1.09358 5.37896 0
M  V30 14546 H 1344.53 -0.346367 4.40741 0
M  V30 14547 N 1343.59 -1.35528 0.804364 0
M  V30 14548 C 1344.56 -2.28153 0.21885 0
M  V30 14549 C 1345.56 -1.49486 -0.592511 0
M  V30 14550 O 1346.75 -1.69274 -0.411319 0
M  V30 14551 C 1343.88 -3.33736 -0.695195 0
M  V30 14552 H 1345.07 -2.81446 1.03576 0
M  V30 14553 H 1342.62 -1.45345 0.574854 0
M  V30 14554 H 1343.36 -2.85625 -1.53587 0
M  V30 14555 H 1343.14 -3.91931 -0.115143 0
M  V30 14556 H 1344.63 -4.02872 -1.09925 0
M  V30 14557 N 1345.07 -0.557671 -1.47404 0
M  V30 14558 C 1346 0.237612 -2.2696 0
M  V30 14559 C 1346.98 0.919871 -1.34079 0
M  V30 14560 O 1348.17 0.938767 -1.63461 0
M  V30 14561 C 1345.29 1.33863 -3.11124 0
M  V30 14562 C 1344.34 0.764877 -4.19585 0
M  V30 14563 S 1345.17 -0.388893 -5.34086 0
M  V30 14564 C 1346.33 0.713932 -6.21815 0
M  V30 14565 H 1346.56 -0.437477 -2.94064 0
M  V30 14566 H 1344.09 -0.344004 -1.50519 0
M  V30 14567 H 1346.05 1.96917 -3.60186 0
M  V30 14568 H 1344.71 1.98556 -2.43381 0
M  V30 14569 H 1343.91 1.5917 -4.78206 0
M  V30 14570 H 1343.51 0.210502 -3.73407 0
M  V30 14571 H 1345.8 1.60592 -6.58192 0
M  V30 14572 H 1346.74 0.165069 -7.07908 0
M  V30 14573 H 1347.15 1.00681 -5.55449 0
M  V30 14574 N 1346.55 1.54831 -0.294147 0
M  V30 14575 C 1347.78 2.04411 0.319938 0
M  V30 14576 C 1348.19 1.17174 1.4804 0
M  V30 14577 O 1347.55 0.195881 1.81446 0
M  V30 14578 C 1347.6 3.52924 0.782751 0
M  V30 14579 O 1347.32 4.36844 -0.331512 0
M  V30 14580 C 1348.82 4.18474 1.4627 0
M  V30 14581 H 1346.04 0.667286 0.0704973 0
M  V30 14582 H 1348.59 1.9989 -0.431785 0
M  V30 14583 H 1346.74 3.57828 1.48451 0
M  V30 14584 H 1347.16 5.24493 0.0275743 0
M  V30 14585 H 1348.63 5.23933 1.73776 0
M  V30 14586 H 1349.11 3.67793 2.40052 0
M  V30 14587 H 1349.71 4.17626 0.804291 0
M  V30 14588 N 1348.03 0.0217466 1.57585 0
M  V30 14589 C 1349.28 -0.657187 1.91116 0
M  V30 14590 C 1349.6 -1.7309 0.898039 0
M  V30 14591 O 1348.87 -1.95803 -0.0615116 0
M  V30 14592 H 1347.45 -0.245732 0.705425 0
M  V30 14593 H 1350.11 0.0678096 1.94782 0
M  V30 14594 H 1349.2 -1.11462 2.91518 0
M  V30 14595 N 1349.51 -1.55583 -0.251311 0
M  V30 14596 C 1350.78 -1.67954 -1.00254 0
M  V30 14597 C 1351.16 -0.560326 -2.03528 0
M  V30 14598 O 1350.51 0.436811 -2.24286 0
M  V30 14599 C 1350.72 -3.08075 -1.63985 0
M  V30 14600 C 1352.07 -3.66531 -2.14336 0
M  V30 14601 O 1353.09 -3.10846 -1.73934 0
M  V30 14602 O 1351.95 -4.64141 -2.88506 0
M  V30 14603 H 1349.05 -0.682952 -0.466375 0
M  V30 14604 H 1351.59 -1.67916 -0.245447 0
M  V30 14605 H 1350.36 -3.80983 -0.892627 0
M  V30 14606 H 1349.99 -3.12105 -2.46325 0
M  V30 14607 N 1350.98 0.516783 -1.48886 0
M  V30 14608 C 1352.23 1.26936 -1.57263 0
M  V30 14609 C 1352.55 1.93337 -0.254156 0
M  V30 14610 O 1351.82 1.81977 0.725345 0
M  V30 14611 H 1350.4 0.4715 -0.579393 0
M  V30 14612 H 1353.06 0.600289 -1.85425 0
M  V30 14613 H 1352.16 2.04167 -2.36055 0
M  V30 14614 N 1352.46 1.37696 0.766659 0
M  V30 14615 C 1353.71 1.33382 1.52765 0
M  V30 14616 C 1354.04 -0.0800569 1.94035 0
M  V30 14617 O 1353.32 -1.03848 1.64456 0
M  V30 14618 C 1353.6 2.2776 2.78922 0
M  V30 14619 C 1353.45 3.77949 2.43874 0
M  V30 14620 C 1354.77 2.20494 3.80881 0
M  V30 14621 H 1351.89 0.485836 0.554195 0
M  V30 14622 H 1354.53 1.68438 0.879119 0
M  V30 14623 H 1352.68 1.97994 3.34261 0
M  V30 14624 H 1354.35 4.18333 1.9441 0
M  V30 14625 H 1352.6 3.96269 1.76503 0
M  V30 14626 H 1353.27 4.39428 3.34077 0
M  V30 14627 H 1355.74 2.46742 3.35048 0
M  V30 14628 H 1354.62 2.88663 4.66867 0
M  V30 14629 H 1354.88 1.19951 4.25516 0
M  V30 14630 N 1353.94 -0.993397 1.22349 0
M  V30 14631 C 1354.89 -2.10463 0.990358 0
M  V30 14632 C 1355.88 -1.6927 -0.0663528 0
M  V30 14633 O 1357.09 -1.79794 0.0860444 0
M  V30 14634 H 1353.46 -0.688222 0.303075 0
M  V30 14635 H 1355.43 -2.273 1.93333 0
M  V30 14636 C 1354.18 -3.42757 0.584205 0
M  V30 14637 H 1353.51 -3.74896 1.38899 0
M  V30 14638 H 1354.95 -4.21492 0.46049 0
M  V30 14639 C 1353.4 -3.29416 -0.706187 0
M  V30 14640 O 1353.93 -3.61152 -1.75875 0
M  V30 14641 N 1352.14 -2.82601 -0.677148 0
M  V30 14642 H 1351.69 -2.56972 0.179712 0
M  V30 14643 H 1351.65 -2.74056 -1.54081 0
M  V30 14644 N 1355.42 -1.03311 -1.19015 0
M  V30 14645 C 1356.69 -0.646539 -1.84606 0
M  V30 14646 C 1357.07 0.87449 -1.92135 0
M  V30 14647 O 1356.42 1.77291 -1.44154 0
M  V30 14648 C 1356.63 -1.31354 -3.23338 0
M  V30 14649 C 1357.98 -1.43949 -3.99455 0
M  V30 14650 O 1359 -1.27104 -3.32751 0
M  V30 14651 O 1357.86 -1.71328 -5.1895 0
M  V30 14652 H 1354.96 -0.225267 -0.795728 0
M  V30 14653 H 1357.5 -1.13152 -1.2647 0
M  V30 14654 H 1356.28 -2.3521 -3.12717 0
M  V30 14655 H 1355.9 -0.816688 -3.89122 0
M  V30 14656 N 1356.9 1.35099 -0.81154 0
M  V30 14657 C 1357.86 2.28033 -0.230947 0
M  V30 14658 C 1358.86 1.49798 0.584575 0
M  V30 14659 O 1360.05 1.6949 0.402336 0
M  V30 14660 C 1357.18 3.341 0.677486 0
M  V30 14661 H 1358.37 2.80893 -1.05067 0
M  V30 14662 H 1355.93 1.45038 -0.582554 0
M  V30 14663 H 1356.66 2.86435 1.5207 0
M  V30 14664 H 1356.45 3.91986 0.0943563 0
M  V30 14665 H 1357.94 4.0345 1.07787 0
M  V30 14666 N 1358.37 0.56548 1.47106 0
M  V30 14667 C 1359.78 0.134289 1.86216 0
M  V30 14668 C 1360.14 -1.29815 1.47114 0
M  V30 14669 O 1359.26 -1.97787 0.878017 0
M  V30 14670 C 1359.86 0.236931 3.37971 0
M  V30 14671 C 1358.41 -0.139275 3.76142 0
M  V30 14672 C 1357.56 0.580743 2.71151 0
M  V30 14673 H 1360.51 0.774723 1.38505 0
M  V30 14674 H 1360.53 -0.542301 3.76616 0
M  V30 14675 H 1360.05 1.27958 3.66399 0
M  V30 14676 H 1358.15 -1.18272 3.53331 0
M  V30 14677 H 1358.26 0.225045 4.78571 0
M  V30 14678 H 1356.62 0.0228963 2.5469 0
M  V30 14679 H 1357.41 1.62471 3.0242 0
M  V30 14680 N 1359.85 -1.54672 0.302354 0
M  V30 14681 C 1360.82 -2.22246 -0.560283 0
M  V30 14682 C 1361.82 -1.20895 -1.06023 0
M  V30 14683 O 1363.01 -1.45621 -0.956047 0
M  V30 14684 C 1360.14 -2.9099 -1.77589 0
M  V30 14685 H 1361.33 -2.99885 0.0301274 0
M  V30 14686 H 1358.88 -1.56209 0.0532036 0
M  V30 14687 H 1359.62 -2.17433 -2.4061 0
M  V30 14688 H 1359.4 -3.65288 -1.42503 0
M  V30 14689 H 1360.89 -3.42535 -2.38871 0
M  V30 14690 N 1361.33 -0.0301034 -1.57571 0
M  V30 14691 C 1362.26 0.94977 -2.13311 0
M  V30 14692 C 1363.24 1.33865 -1.04948 0
M  V30 14693 O 1364.43 1.4171 -1.32786 0
M  V30 14694 C 1361.56 2.23178 -2.66099 0
M  V30 14695 C 1360.51 1.98362 -3.79258 0
M  V30 14696 C 1359.84 3.32836 -4.18479 0
M  V30 14697 C 1361.14 1.32201 -5.05292 0
M  V30 14698 H 1362.83 0.485562 -2.95436 0
M  V30 14699 H 1360.38 0.232116 -1.42117 0
M  V30 14700 H 1362.33 2.92108 -3.03728 0
M  V30 14701 H 1361.05 2.71766 -1.81137 0
M  V30 14702 H 1359.71 1.31849 -3.42069 0
M  V30 14703 H 1359.36 3.79185 -3.30496 0
M  V30 14704 H 1359.06 3.17037 -4.94733 0
M  V30 14705 H 1360.58 4.03032 -4.58691 0
M  V30 14706 H 1362 1.91133 -5.40501 0
M  V30 14707 H 1360.4 1.26797 -5.86551 0
M  V30 14708 H 1361.47 0.29511 -4.84001 0
M  V30 14709 N 1362.81 1.55714 0.243056 0
M  V30 14710 C 1363.76 1.90638 1.30099 0
M  V30 14711 C 1364.73 0.761049 1.47639 0
M  V30 14712 O 1365.91 1.01505 1.61559 0
M  V30 14713 C 1363.05 2.20985 2.65065 0
M  V30 14714 C 1362.16 3.48343 2.55501 0
M  V30 14715 C 1361.3 3.68241 3.82847 0
M  V30 14716 C 1360.34 4.89187 3.67916 0
M  V30 14717 N 1359.47 5.05586 4.87162 0
M  V30 14718 H 1364.31 2.80857 0.996155 0
M  V30 14719 H 1361.85 1.39027 0.480619 0
M  V30 14720 H 1363.81 2.36585 3.43632 0
M  V30 14721 H 1362.44 1.33966 2.93689 0
M  V30 14722 H 1361.49 3.41054 1.68483 0
M  V30 14723 H 1362.8 4.37057 2.4038 0
M  V30 14724 H 1361.96 3.83822 4.69857 0
M  V30 14725 H 1360.7 2.77768 4.00869 0
M  V30 14726 H 1359.7 4.7358 2.79289 0
M  V30 14727 H 1360.93 5.81124 3.51385 0
M  V30 14728 H 1358.87 4.18051 5.05538 0
M  V30 14729 H 1358.79 5.88395 4.74686 0
M  V30 14730 H 1360.06 5.25582 5.7566 0
M  V30 14731 N 1364.29 -0.50888 1.49158 0
M  V30 14732 C 1365.51 -1.29245 1.62205 0
M  V30 14733 C 1365.94 -1.85845 0.29041 0
M  V30 14734 O 1365.29 -1.6547 -0.740906 0
M  V30 14735 C 1365.34 -2.40415 2.68762 0
M  V30 14736 O 1364.45 -3.44048 2.27387 0
M  V30 14737 H 1363.79 -0.381898 0.543185 0
M  V30 14738 H 1366.32 -0.610076 1.95293 0
M  V30 14739 H 1366.33 -2.86295 2.90688 0
M  V30 14740 H 1365 -1.98584 3.65427 0
M  V30 14741 H 1363.58 -3.04141 2.1576 0
M  V30 14742 N 1365.76 -1.381 -0.759346 0
M  V30 14743 C 1366.73 -1.34674 -1.8546 0
M  V30 14744 C 1367.73 -0.248351 -1.58871 0
M  V30 14745 O 1368.92 -0.504915 -1.66722 0
M  V30 14746 C 1366.05 -1.0952 -3.22828 0
M  V30 14747 H 1367.24 -2.3211 -1.89908 0
M  V30 14748 H 1364.8 -1.2331 -0.960435 0
M  V30 14749 H 1365.53 -0.126664 -3.24053 0
M  V30 14750 H 1365.32 -1.89037 -3.43522 0
M  V30 14751 H 1366.81 -1.09804 -4.02906 0
M  V30 14752 N 1367.24 0.986894 -1.22875 0
M  V30 14753 C 1368.52 1.70121 -0.965311 0
M  V30 14754 C 1368.9 2.04648 0.517924 0
M  V30 14755 O 1368.25 1.73453 1.48749 0
M  V30 14756 C 1368.46 2.94738 -1.86897 0
M  V30 14757 C 1369.81 3.6739 -2.12861 0
M  V30 14758 O 1370.83 3.04758 -1.84394 0
M  V30 14759 O 1369.69 4.8009 -2.61106 0
M  V30 14760 H 1366.78 0.742817 -0.363527 0
M  V30 14761 H 1369.33 1.0427 -1.33887 0
M  V30 14762 H 1368.1 2.65771 -2.87196 0
M  V30 14763 H 1367.72 3.68327 -1.49736 0
M  V30 14764 N 1368.72 1.0394 1.18466 0
M  V30 14765 C 1369.97 0.737233 1.87744 0
M  V30 14766 C 1370.28 -0.737891 1.81148 0
M  V30 14767 O 1371.49 -1.15353 2.45776 0
M  V30 14768 C 1369.94 1.26844 3.36806 0
M  V30 14769 C 1369.55 2.7721 3.51935 0
M  V30 14770 C 1371.3 1.04274 4.11494 0
M  V30 14771 C 1369.2 3.23696 4.9495 0
M  V30 14772 H 1368.13 0.272082 0.703198 0
M  V30 14773 H 1370.78 1.25507 1.33866 0
M  V30 14774 H 1369.17 0.67847 3.90145 0
M  V30 14775 H 1370.34 3.41954 3.08875 0
M  V30 14776 H 1368.66 2.98179 2.90652 0
M  V30 14777 H 1371.25 1.3652 5.16978 0
M  V30 14778 H 1371.6 -0.0200645 4.16295 0
M  V30 14779 H 1372.13 1.59726 3.64325 0
M  V30 14780 H 1368.87 4.29351 4.95316 0
M  V30 14781 H 1368.39 2.63687 5.38729 0
M  V30 14782 H 1370.07 3.17645 5.63658 0
M  V30 14783 N 1370.2 -1.34667 0.818693 0
M  V30 14784 C 1371.45 -1.98022 0.40396 0
M  V30 14785 C 1371.77 -1.65239 -1.03542 0
M  V30 14786 O 1371.04 -0.94097 -1.71821 0
M  V30 14787 H 1369.62 -0.732517 0.146382 0
M  V30 14788 H 1372.28 -1.64377 1.0472 0
M  V30 14789 H 1371.38 -3.07746 0.519516 0
M  V30 14790 N 1371.68 -0.573274 -1.46804 0
M  V30 14791 C 1372.93 -0.0530267 -2.0163 0
M  V30 14792 C 1373.24 1.31124 -1.45141 0
M  V30 14793 O 1374.44 1.92231 -1.91728 0
M  V30 14794 C 1372.9 -0.0442411 -3.59873 0
M  V30 14795 C 1372.51 -1.40625 -4.25357 0
M  V30 14796 C 1374.25 0.422556 -4.22392 0
M  V30 14797 C 1372.16 -1.3557 -5.75652 0
M  V30 14798 H 1371.09 -0.0160537 -0.753829 0
M  V30 14799 H 1373.74 -0.723518 -1.68634 0
M  V30 14800 H 1372.12 0.692225 -3.89903 0
M  V30 14801 H 1373.3 -2.1617 -4.06949 0
M  V30 14802 H 1371.61 -1.81229 -3.74893 0
M  V30 14803 H 1374.21 0.479021 -5.3255 0
M  V30 14804 H 1374.55 1.43806 -3.90673 0
M  V30 14805 H 1375.08 -0.259551 -3.96952 0
M  V30 14806 H 1371.82 -2.34772 -6.12015 0
M  V30 14807 H 1371.34 -0.642309 -5.96351 0
M  V30 14808 H 1373.02 -1.06458 -6.38182 0
M  V30 14809 N 1373.15 1.5451 -0.310553 0
M  V30 14810 C 1374.12 2.2254 0.548489 0
M  V30 14811 C 1375.12 1.21456 1.05381 0
M  V30 14812 O 1376.31 1.46126 0.948311 0
M  V30 14813 C 1373.44 2.91927 1.76043 0
M  V30 14814 H 1374.63 2.99865 -0.0460306 0
M  V30 14815 H 1372.19 1.56179 -0.061487 0
M  V30 14816 H 1372.92 2.18706 2.39454 0
M  V30 14817 H 1372.71 3.66038 1.40564 0
M  V30 14818 H 1374.2 3.43797 2.37051 0
M  V30 14819 N 1374.63 0.0384594 1.57553 0
M  V30 14820 C 1375.57 -0.975285 2.06309 0
M  V30 14821 C 1376.54 -1.31174 0.96084 0
M  V30 14822 O 1377.73 -1.4268 1.23185 0
M  V30 14823 C 1374.86 -2.29279 2.49297 0
M  V30 14824 C 1373.9 -2.11028 3.70634 0
M  V30 14825 S 1374.73 -1.40043 5.16864 0
M  V30 14826 C 1375.89 -2.73143 5.63155 0
M  V30 14827 H 1376.12 -0.560293 2.91973 0
M  V30 14828 H 1373.66 -0.173479 1.53422 0
M  V30 14829 H 1375.61 -3.05016 2.74728 0
M  V30 14830 H 1374.28 -2.67909 1.63962 0
M  V30 14831 H 1373.47 -3.08451 3.9859 0
M  V30 14832 H 1373.07 -1.43433 3.45403 0
M  V30 14833 H 1375.36 -3.69354 5.67965 0
M  V30 14834 H 1376.31 -2.49839 6.6256 0
M  V30 14835 H 1376.71 -2.78819 4.90836 0
M  V30 14836 N 1376.11 -1.55841 -0.234795 0
M  V30 14837 C 1377.36 -1.77886 -0.959217 0
M  V30 14838 C 1377.68 -0.604621 -1.8539 0
M  V30 14839 O 1376.95 0.379092 -1.92197 0
M  V30 14840 H 1375.53 -0.656077 -0.357172 0
M  V30 14841 H 1378.19 -1.93292 -0.249831 0
M  V30 14842 H 1377.29 -2.69512 -1.57383 0
M  V30 14843 N 1377.59 0.500963 -1.49426 0
M  V30 14844 C 1378.84 1.25171 -1.58162 0
M  V30 14845 C 1379.15 1.93678 -0.273556 0
M  V30 14846 O 1380.36 2.70442 -0.239462 0
M  V30 14847 C 1378.81 2.27276 -2.79059 0
M  V30 14848 C 1378.42 1.64708 -4.16624 0
M  V30 14849 C 1380.17 3.03178 -2.97125 0
M  V30 14850 C 1378.07 2.64923 -5.28743 0
M  V30 14851 H 1377 0.470867 -0.588897 0
M  V30 14852 H 1379.65 0.525569 -1.75812 0
M  V30 14853 H 1378.04 3.03052 -2.54903 0
M  V30 14854 H 1379.21 0.949231 -4.50917 0
M  V30 14855 H 1377.52 1.01195 -4.03916 0
M  V30 14856 H 1380.12 3.78122 -3.78058 0
M  V30 14857 H 1380.46 3.60793 -2.07687 0
M  V30 14858 H 1381 2.34517 -3.2132 0
M  V30 14859 H 1377.74 2.12089 -6.20241 0
M  V30 14860 H 1377.26 3.32948 -4.98904 0
M  V30 14861 H 1378.94 3.27349 -5.58079 0
M  V30 14862 N 1379.07 1.38501 0.752011 0
M  V30 14863 C 1380.02 1.35975 1.88716 0
M  V30 14864 C 1381.01 0.245392 1.67613 0
M  V30 14865 O 1382.22 0.414514 1.75162 0
M  V30 14866 H 1378.59 0.424221 0.620919 0
M  V30 14867 H 1380.56 2.3176 1.87962 0
M  V30 14868 C 1379.31 1.20326 3.26216 0
M  V30 14869 H 1378.63 2.05336 3.43041 0
M  V30 14870 H 1380.07 1.22613 4.05884 0
M  V30 14871 C 1378.53 -0.0897029 3.36781 0
M  V30 14872 O 1379.06 -1.06615 3.87293 0
M  V30 14873 N 1377.27 -0.147065 2.90228 0
M  V30 14874 H 1376.82 0.648216 2.49311 0
M  V30 14875 H 1376.77 -1.01174 2.97676 0
M  V30 14876 N 1380.55 -0.980364 1.23396 0
M  V30 14877 C 1381.79 -1.71826 1.06397 0
M  V30 14878 C 1382.11 -1.90854 -0.399958 0
M  V30 14879 O 1381.38 -1.47721 -1.28668 0
M  V30 14880 H 1379.96 -0.636669 0.390719 0
M  V30 14881 H 1382.63 -1.18008 1.55113 0
M  V30 14882 H 1381.72 -2.7078 1.55192 0
M  V30 14883 N 1382.02 -1.04567 -1.17913 0
M  V30 14884 C 1383.25 -0.772204 -1.9195 0
M  V30 14885 C 1383.67 0.671303 -1.76462 0
M  V30 14886 O 1383.02 1.45805 -1.0976 0
M  V30 14887 C 1383.07 -1.13539 -3.43207 0
M  V30 14888 O 1382.8 -2.52223 -3.58211 0
M  V30 14889 C 1384.3 -0.887146 -4.34332 0
M  V30 14890 H 1381.52 -0.281234 -0.609219 0
M  V30 14891 H 1384.06 -1.39467 -1.49563 0
M  V30 14892 H 1382.22 -0.557784 -3.83363 0
M  V30 14893 H 1382.63 -2.66275 -4.51882 0
M  V30 14894 H 1384.1 -1.19107 -5.38997 0
M  V30 14895 H 1384.58 0.1779 -4.3884 0
M  V30 14896 H 1385.19 -1.44829 -3.99881 0
M  V30 14897 N 1383.5 1.34231 -0.825823 0
M  V30 14898 C 1384.41 2.33245 -0.251803 0
M  V30 14899 C 1385.43 1.62756 0.615334 0
M  V30 14900 O 1386.6 1.94503 0.522547 0
M  V30 14901 C 1383.67 3.41908 0.574456 0
M  V30 14902 C 1382.73 4.2814 -0.315422 0
M  V30 14903 C 1381.96 5.31613 0.471496 0
M  V30 14904 O 1382.19 5.44337 1.70449 0
M  V30 14905 O 1381.12 6.01719 -0.147691 0
M  V30 14906 H 1384.95 2.84174 -1.07139 0
M  V30 14907 H 1382.53 1.37341 -0.588032 0
M  V30 14908 H 1384.41 4.08252 1.04444 0
M  V30 14909 H 1383.09 2.93217 1.37132 0
M  V30 14910 H 1381.99 3.64709 -0.832963 0
M  V30 14911 H 1383.33 4.80279 -1.07672 0
M  V30 14912 N 1384.98 0.581051 1.46498 0
M  V30 14913 C 1386.23 0.0660934 2.02692 0
M  V30 14914 C 1386.56 -1.28985 1.45178 0
M  V30 14915 O 1385.83 -1.84479 0.616247 0
M  V30 14916 C 1386.12 -0.00145411 3.601 0
M  V30 14917 C 1385.97 1.38327 4.28002 0
M  V30 14918 C 1387.29 -0.702914 4.3445 0
M  V30 14919 H 1384.41 0.0254923 0.736559 0
M  V30 14920 H 1387.05 0.74793 1.7466 0
M  V30 14921 H 1385.2 -0.582118 3.84114 0
M  V30 14922 H 1386.87 2.00897 4.15257 0
M  V30 14923 H 1385.11 1.95144 3.87429 0
M  V30 14924 H 1385.79 1.28849 5.36751 0
M  V30 14925 H 1388.26 -0.209641 4.15572 0
M  V30 14926 H 1387.14 -0.719202 5.44168 0
M  V30 14927 H 1387.4 -1.76389 4.05388 0
M  V30 14928 N 1386.46 -1.54343 0.318742 0
M  V30 14929 C 1387.42 -2.22828 -0.536679 0
M  V30 14930 C 1388.42 -1.22013 -1.04735 0
M  V30 14931 O 1389.61 -1.46626 -0.940549 0
M  V30 14932 C 1386.74 -2.92857 -1.74493 0
M  V30 14933 H 1387.94 -2.99836 0.0619325 0
M  V30 14934 H 1385.49 -1.56144 0.0697687 0
M  V30 14935 H 1386.22 -2.19973 -2.3829 0
M  V30 14936 H 1386.01 -3.66779 -1.38621 0
M  V30 14937 H 1387.5 -3.45049 -2.35225 0
M  V30 14938 N 1387.94 -0.0468143 -1.5753 0
M  V30 14939 C 1388.88 0.929065 -2.11275 0
M  V30 14940 C 1389.85 1.31166 -1.01905 0
M  V30 14941 O 1391.04 1.40189 -1.29428 0
M  V30 14942 C 1388.18 2.20012 -2.65873 0
M  V30 14943 C 1387.29 1.8724 -3.89314 0
M  V30 14944 C 1386.43 3.08772 -4.32242 0
M  V30 14945 C 1385.46 2.719 -5.48395 0
M  V30 14946 N 1384.6 3.86112 -5.86397 0
M  V30 14947 H 1389.44 0.463854 -2.94368 0
M  V30 14948 H 1386.98 0.217338 -1.45486 0
M  V30 14949 H 1388.94 2.94383 -2.95626 0
M  V30 14950 H 1387.57 2.64118 -1.85584 0
M  V30 14951 H 1386.62 1.03037 -3.6618 0
M  V30 14952 H 1387.93 1.56096 -4.73746 0
M  V30 14953 H 1387.08 3.91446 -4.63525 0
M  V30 14954 H 1385.82 3.4309 -3.46613 0
M  V30 14955 H 1384.83 1.87642 -5.16789 0
M  V30 14956 H 1386.05 2.38779 -6.35737 0
M  V30 14957 H 1384 4.2024 -5.03721 0
M  V30 14958 H 1383.92 3.58652 -6.65511 0
M  V30 14959 H 1385.18 4.69438 -6.22293 0
M  V30 14960 N 1389.41 1.55964 0.226527 0
M  V30 14961 C 1390.32 1.95169 1.30178 0
M  V30 14962 C 1391.34 0.854831 1.51554 0
M  V30 14963 O 1392.52 1.15798 1.64781 0
M  V30 14964 C 1389.58 2.25612 2.63249 0
M  V30 14965 C 1388.64 3.4884 2.50219 0
M  V30 14966 C 1387.88 3.77822 3.76944 0
M  V30 14967 O 1388.1 3.08556 4.79739 0
M  V30 14968 O 1387.03 4.7132 3.74354 0
M  V30 14969 H 1390.86 2.86794 0.999145 0
M  V30 14970 H 1388.44 1.43109 0.42898 0
M  V30 14971 H 1390.33 2.4641 3.41848 0
M  V30 14972 H 1389 1.37162 2.93203 0
M  V30 14973 H 1387.91 3.33326 1.69836 0
M  V30 14974 H 1389.24 4.37657 2.25205 0
M  V30 14975 N 1390.89 -0.493031 1.4969 0
M  V30 14976 C 1391.86 -1.57598 1.6642 0
M  V30 14977 C 1392.86 -1.51615 0.535668 0
M  V30 14978 O 1394.05 -1.54626 0.802283 0
M  V30 14979 C 1391.18 -2.97249 1.66901 0
M  V30 14980 H 1392.37 -1.4409 2.63017 0
M  V30 14981 H 1389.92 -0.717846 1.3884 0
M  V30 14982 H 1390.66 -3.16225 0.719164 0
M  V30 14983 H 1390.44 -3.02999 2.48865 0
M  V30 14984 H 1391.93 -3.75914 1.81874 0
M  V30 14985 N 1392.37 -1.38898 -0.744656 0
M  V30 14986 C 1393.6 -1.3903 -1.53901 0
M  V30 14987 C 1394.02 0.0156607 -1.88093 0
M  V30 14988 O 1393.38 1.00012 -1.51219 0
M  V30 14989 C 1393.43 -2.2609 -2.80919 0
M  V30 14990 O 1392.53 -1.68414 -3.76444 0
M  V30 14991 H 1391.87 -0.473854 -0.465144 0
M  V30 14992 H 1394.4 -1.82773 -0.919525 0
M  V30 14993 H 1394.41 -2.40264 -3.29754 0
M  V30 14994 H 1393.09 -3.28271 -2.55364 0
M  V30 14995 H 1391.66 -1.63431 -3.35179 0
M  V30 14996 N 1393.85 0.973806 -1.23914 0
M  V30 14997 C 1395.13 1.69087 -0.9833 0
M  V30 14998 C 1395.51 2.05186 0.49619 0
M  V30 14999 O 1394.85 1.75021 1.46901 0
M  V30 15000 C 1395.06 2.92739 -1.90012 0
M  V30 15001 C 1396.41 3.65112 -2.16745 0
M  V30 15002 O 1397.44 3.02785 -1.87616 0
M  V30 15003 O 1396.29 4.77293 -2.66183 0
M  V30 15004 H 1393.39 0.738919 -0.371386 0
M  V30 15005 H 1395.93 1.02844 -1.34986 0
M  V30 15006 H 1394.71 2.6271 -2.89999 0
M  V30 15007 H 1394.33 3.66718 -1.53635 0
M  V30 15008 N 1395.33 1.05191 1.17357 0
M  V30 15009 C 1396.58 0.757104 1.86951 0
M  V30 15010 C 1396.89 -0.718637 1.8192 0
M  V30 15011 O 1398.09 -1.12739 2.46986 0
M  V30 15012 C 1396.55 1.30409 3.35442 0
M  V30 15013 C 1396.16 2.80928 3.48975 0
M  V30 15014 C 1397.9 1.08633 4.10365 0
M  V30 15015 C 1395.81 3.28927 4.91488 0
M  V30 15016 H 1394.74 0.279525 0.700273 0
M  V30 15017 H 1397.39 1.2692 1.32528 0
M  V30 15018 H 1395.77 0.719812 3.89403 0
M  V30 15019 H 1396.95 3.45211 3.05231 0
M  V30 15020 H 1395.26 3.01245 2.87473 0
M  V30 15021 H 1397.86 1.41996 5.15501 0
M  V30 15022 H 1398.2 0.0240903 4.16293 0
M  V30 15023 H 1398.73 1.63581 3.6261 0
M  V30 15024 H 1395.47 4.34581 4.90734 0
M  V30 15025 H 1394.99 2.69386 5.35902 0
M  V30 15026 H 1396.67 3.23605 5.60258 0
M  V30 15027 N 1396.8 -1.33791 0.83293 0
M  V30 15028 C 1398.05 -1.98266 0.426412 0
M  V30 15029 C 1398.38 -1.65848 -1.01035 0
M  V30 15030 O 1397.66 -0.93528 -1.70537 0
M  V30 15031 C 1397.94 -3.54356 0.640586 0
M  V30 15032 C 1397.79 -3.96482 2.12419 0
M  V30 15033 C 1399.11 -4.40022 0.0829237 0
M  V30 15034 H 1396.23 -0.720213 0.156404 0
M  V30 15035 H 1398.87 -1.58527 1.04735 0
M  V30 15036 H 1397.02 -3.88338 0.11204 0
M  V30 15037 H 1398.7 -3.72786 2.71714 0
M  V30 15038 H 1396.94 -3.46429 2.61092 0
M  V30 15039 H 1397.61 -5.05179 2.22482 0
M  V30 15040 H 1400.09 -4.12651 0.534634 0
M  V30 15041 H 1398.96 -5.48272 0.262511 0
M  V30 15042 H 1399.22 -4.30341 -1.01287 0
M  V30 15043 N 1398.28 -0.588812 -1.46187 0
M  V30 15044 C 1399.21 0.128595 -2.33146 0
M  V30 15045 C 1400.19 0.877608 -1.45712 0
M  V30 15046 O 1401.38 0.851866 -1.74519 0
M  V30 15047 C 1398.51 1.13886 -3.28096 0
M  V30 15048 C 1397.46 0.504296 -4.25019 0
M  V30 15049 C 1396.79 1.62147 -5.09522 0
M  V30 15050 C 1398.09 -0.562466 -5.19263 0
M  V30 15051 H 1399.78 -0.597455 -2.93378 0
M  V30 15052 H 1397.33 -0.288764 -1.41075 0
M  V30 15053 H 1399.28 1.64916 -3.8779 0
M  V30 15054 H 1398.01 1.89527 -2.65983 0
M  V30 15055 H 1396.66 0.0150325 -3.66597 0
M  V30 15056 H 1396.31 2.36769 -4.4379 0
M  V30 15057 H 1396.01 1.20249 -5.75164 0
M  V30 15058 H 1397.54 2.13441 -5.7208 0
M  V30 15059 H 1398.95 -0.137003 -5.73136 0
M  V30 15060 H 1397.35 -0.902115 -5.93281 0
M  V30 15061 H 1398.42 -1.4464 -4.62825 0
M  V30 15062 N 1399.76 1.54172 -0.326923 0
M  V30 15063 C 1400.72 2.2311 0.524855 0
M  V30 15064 C 1401.72 1.22567 1.04087 0
M  V30 15065 O 1402.91 1.47123 0.932759 0
M  V30 15066 C 1400.05 2.93778 1.72937 0
M  V30 15067 H 1401.24 2.99799 -0.0778327 0
M  V30 15068 H 1398.79 1.56105 -0.0780484 0
M  V30 15069 H 1399.53 2.21234 2.3712 0
M  V30 15070 H 1399.31 3.67509 1.36674 0
M  V30 15071 H 1400.8 3.46292 2.33392 0
M  V30 15072 N 1401.24 0.0551678 1.57503 0
M  V30 15073 C 1402.52 -0.657808 1.84207 0
M  V30 15074 C 1402.9 -1.88798 0.944372 0
M  V30 15075 O 1402.24 -2.28499 0.00641728 0
M  V30 15076 C 1402.45 -1.0113 3.34026 0
M  V30 15077 C 1403.8 -1.39189 4.01138 0
M  V30 15078 O 1404.83 -1.10353 3.38675 0
M  V30 15079 O 1403.68 -1.93023 5.11277 0
M  V30 15080 H 1400.78 -0.325084 0.760427 0
M  V30 15081 H 1403.32 0.0848352 1.69488 0
M  V30 15082 H 1402.1 -0.13688 3.91061 0
M  V30 15083 H 1401.72 -1.81126 3.53948 0
M  V30 15084 N 1402.72 -1.56081 -0.218252 0
M  V30 15085 C 1403.99 -1.70043 -0.966684 0
M  V30 15086 C 1404.37 -0.603372 -2.02293 0
M  V30 15087 O 1403.72 0.389138 -2.25162 0
M  V30 15088 C 1403.93 -3.11484 -1.57413 0
M  V30 15089 C 1405.28 -3.70995 -2.06513 0
M  V30 15090 O 1406.3 -3.14466 -1.67301 0
M  V30 15091 O 1405.16 -4.70156 -2.78596 0
M  V30 15092 H 1402.26 -0.692691 -0.451784 0
M  V30 15093 H 1404.8 -1.68398 -0.209774 0
M  V30 15094 H 1403.57 -3.8279 -0.811614 0
M  V30 15095 H 1403.2 -3.1726 -2.3965 0
M  V30 15096 N 1404.2 0.485086 -1.49949 0
M  V30 15097 C 1405.14 1.60559 -1.68296 0
M  V30 15098 C 1406.14 1.60264 -0.548802 0
M  V30 15099 O 1407.34 1.64581 -0.728905 0
M  V30 15100 H 1403.72 0.532529 -0.530958 0
M  V30 15101 H 1405.69 1.42242 -2.62316 0
M  V30 15102 C 1404.44 2.98596 -1.78145 0
M  V30 15103 H 1403.76 2.99536 -2.64799 0
M  V30 15104 H 1405.2 3.76492 -1.95012 0
M  V30 15105 C 1403.66 3.32708 -0.529828 0
M  V30 15106 O 1404.19 4.00281 0.337347 0
M  V30 15107 N 1402.4 2.87998 -0.388012 0
M  V30 15108 H 1401.94 2.33182 -1.0947 0
M  V30 15109 H 1401.9 3.11187 0.448307 0
M  V30 15110 N 1405.67 1.39291 0.737279 0
M  V30 15111 C 1406.92 1.3639 1.49679 0
M  V30 15112 C 1407.25 -0.0408859 1.94457 0
M  V30 15113 O 1406.5 -1.02127 1.66939 0
M  V30 15114 C 1406.8 2.28043 2.75193 0
M  V30 15115 C 1406.47 3.75717 2.49294 0
M  V30 15116 C 1405.13 4.15955 2.41941 0
M  V30 15117 C 1407.48 4.69127 2.27088 0
M  V30 15118 C 1404.81 5.47669 2.10419 0
M  V30 15119 C 1407.16 6.01116 1.97084 0
M  V30 15120 C 1405.83 6.4042 1.88197 0
M  V30 15121 H 1405.1 0.499088 0.547716 0
M  V30 15122 H 1407.74 1.71779 0.846416 0
M  V30 15123 H 1406.05 1.85765 3.44962 0
M  V30 15124 H 1407.75 2.23093 3.33212 0
M  V30 15125 H 1404.34 3.43825 2.55896 0
M  V30 15126 H 1408.52 4.38875 2.31739 0
M  V30 15127 H 1403.78 5.77046 2.02059 0
M  V30 15128 H 1407.95 6.73026 1.78909 0
M  V30 15129 H 1405.58 7.42401 1.63537 0
M  V30 15130 N 1407.15 -0.967221 1.24429 0
M  V30 15131 C 1408.1 -2.08315 1.03478 0
M  V30 15132 C 1409.09 -1.69373 -0.0304332 0
M  V30 15133 O 1410.3 -1.79571 0.124162 0
M  V30 15134 H 1406.67 -0.681638 0.317605 0
M  V30 15135 H 1408.65 -2.23148 1.9811 0
M  V30 15136 C 1407.39 -3.41441 0.656778 0
M  V30 15137 H 1406.72 -3.71865 1.4682 0
M  V30 15138 H 1408.16 -4.2042 0.549791 0
M  V30 15139 C 1406.62 -3.30839 -0.636154 0
M  V30 15140 O 1407.15 -3.64802 -1.68175 0
M  V30 15141 N 1405.35 -2.83973 -0.617052 0
M  V30 15142 H 1404.9 -2.56533 0.234179 0
M  V30 15143 H 1404.86 -2.77262 -1.48233 0
M  V30 15144 N 1408.63 -1.05812 -1.16797 0
M  V30 15145 C 1409.86 -0.792519 -1.9112 0
M  V30 15146 C 1410.27 0.652549 -1.77164 0
M  V30 15147 O 1409.63 1.44633 -1.113 0
M  V30 15148 C 1409.68 -1.17172 -3.41984 0
M  V30 15149 O 1409.4 -2.56008 -3.55516 0
M  V30 15150 C 1410.9 -0.933162 -4.33367 0
M  V30 15151 H 1408.12 -0.28768 -0.606202 0
M  V30 15152 H 1410.67 -1.41046 -1.48075 0
M  V30 15153 H 1408.82 -0.598413 -3.8275 0
M  V30 15154 H 1409.24 -2.71053 -4.49033 0
M  V30 15155 H 1410.71 -1.24817 -5.37703 0
M  V30 15156 H 1411.19 0.131345 -4.39004 0
M  V30 15157 H 1411.79 -1.49062 -3.98322 0
M  V30 15158 N 1410.11 1.33347 -0.840014 0
M  V30 15159 C 1411.36 1.97007 -0.432581 0
M  V30 15160 C 1411.67 1.67278 1.01378 0
M  V30 15161 O 1412.88 2.2456 1.52595 0
M  V30 15162 C 1411.33 3.52572 -0.72258 0
M  V30 15163 C 1410.94 3.91176 -2.1837 0
M  V30 15164 C 1412.68 4.22776 -0.382153 0
M  V30 15165 C 1410.59 5.39724 -2.41768 0
M  V30 15166 H 1409.52 0.737255 -0.158024 0
M  V30 15167 H 1412.17 1.5195 -1.02876 0
M  V30 15168 H 1410.55 3.9596 -0.0560179 0
M  V30 15169 H 1411.73 3.58842 -2.89083 0
M  V30 15170 H 1410.04 3.33956 -2.48721 0
M  V30 15171 H 1412.64 5.32021 -0.534588 0
M  V30 15172 H 1412.98 4.10792 0.674967 0
M  V30 15173 H 1413.52 3.84922 -1.004 0
M  V30 15174 H 1410.25 5.56713 -3.4605 0
M  V30 15175 H 1409.77 5.73514 -1.75617 0
M  V30 15176 H 1411.45 6.06624 -2.2498 0
M  V30 15177 N 1411.59 0.596556 1.45873 0
M  V30 15178 C 1412.83 0.0875879 2.02611 0
M  V30 15179 C 1413.16 -1.27438 1.46538 0
M  V30 15180 O 1412.44 -1.83815 0.635779 0
M  V30 15181 C 1412.72 0.0367394 3.60081 0
M  V30 15182 C 1412.58 1.42859 4.26511 0
M  V30 15183 C 1413.89 -0.656795 4.35171 0
M  V30 15184 H 1411.01 0.0333031 0.736247 0
M  V30 15185 H 1413.66 0.766413 1.73857 0
M  V30 15186 H 1411.81 -0.541345 3.8471 0
M  V30 15187 H 1413.48 2.0529 4.13102 0
M  V30 15188 H 1411.72 1.99243 3.85337 0
M  V30 15189 H 1412.39 1.34535 5.35354 0
M  V30 15190 H 1414.87 -0.165553 4.15771 0
M  V30 15191 H 1413.74 -0.661445 5.449 0
M  V30 15192 H 1414 -1.72079 4.07236 0
M  V30 15193 N 1413.06 -1.53996 0.335095 0
M  V30 15194 C 1413.97 -2.28436 -0.534244 0
M  V30 15195 C 1414.99 -1.33224 -1.11926 0
M  V30 15196 O 1416.17 -1.66252 -1.13676 0
M  V30 15197 C 1413.23 -3.03634 -1.67354 0
M  V30 15198 C 1412.29 -4.14455 -1.11916 0
M  V30 15199 C 1411.52 -4.86058 -2.20416 0
M  V30 15200 O 1411.75 -4.57263 -3.40979 0
M  V30 15201 O 1410.68 -5.72704 -1.85185 0
M  V30 15202 H 1414.51 -3.03618 0.0706314 0
M  V30 15203 H 1412.09 -1.49062 0.100409 0
M  V30 15204 H 1413.97 -3.50687 -2.33659 0
M  V30 15205 H 1412.65 -2.31317 -2.26438 0
M  V30 15206 H 1411.56 -3.71725 -0.420871 0
M  V30 15207 H 1412.89 -4.8885 -0.573295 0
M  V30 15208 N 1414.54 -0.0635198 -1.57472 0
M  V30 15209 C 1415.5 0.891881 -2.11135 0
M  V30 15210 C 1416.5 1.23182 -1.03358 0
M  V30 15211 O 1417.69 1.16646 -1.2938 0
M  V30 15212 C 1414.83 2.19792 -2.60584 0
M  V30 15213 H 1416.02 0.426461 -2.96852 0
M  V30 15214 H 1413.57 0.185069 -1.552 0
M  V30 15215 H 1414.31 2.70889 -1.78297 0
M  V30 15216 H 1414.09 1.96419 -3.39355 0
M  V30 15217 H 1415.58 2.88203 -3.02206 0
M  V30 15218 N 1416.02 1.56195 0.209972 0
M  V30 15219 C 1417.27 1.78941 0.930744 0
M  V30 15220 C 1417.58 0.634139 1.85035 0
M  V30 15221 O 1418.79 0.745524 2.61064 0
M  V30 15222 C 1417.24 3.16935 1.70529 0
M  V30 15223 C 1416.85 4.40221 0.83125 0
M  V30 15224 C 1418.6 3.49 2.41659 0
M  V30 15225 C 1416.5 5.69238 1.60381 0
M  V30 15226 H 1415.43 0.667176 0.351273 0
M  V30 15227 H 1418.08 1.82572 0.184341 0
M  V30 15228 H 1416.47 3.07513 2.49503 0
M  V30 15229 H 1417.64 4.60728 0.081227 0
M  V30 15230 H 1415.95 4.15756 0.231517 0
M  V30 15231 H 1418.55 4.42623 2.99982 0
M  V30 15232 H 1418.89 2.72042 3.15117 0
M  V30 15233 H 1419.43 3.59804 1.69665 0
M  V30 15234 H 1416.17 6.49121 0.912292 0
M  V30 15235 H 1415.69 5.52772 2.32815 0
M  V30 15236 H 1417.37 6.09827 2.16149 0
M  V30 15237 N 1417.5 -0.477127 1.50204 0
M  V30 15238 C 1418.44 -1.57587 1.68626 0
M  V30 15239 C 1419.41 -1.57499 0.527576 0
M  V30 15240 O 1420.6 -1.75121 0.757438 0
M  V30 15241 C 1417.74 -2.956 1.78086 0
M  V30 15242 C 1416.85 -3.05523 3.05417 0
M  V30 15243 C 1415.99 -4.34414 3.05709 0
M  V30 15244 C 1415.03 -4.38057 4.27519 0
M  V30 15245 N 1414.16 -5.5841 4.25585 0
M  V30 15246 H 1419 -1.41185 2.62433 0
M  V30 15247 H 1416.54 -0.686537 1.30096 0
M  V30 15248 H 1418.5 -3.75626 1.81552 0
M  V30 15249 H 1417.13 -3.10651 0.877251 0
M  V30 15250 H 1416.18 -2.18409 3.11451 0
M  V30 15251 H 1417.49 -3.04075 3.95398 0
M  V30 15252 H 1416.65 -5.22782 3.07871 0
M  V30 15253 H 1415.39 -4.38462 2.13548 0
M  V30 15254 H 1414.39 -3.48087 4.25577 0
M  V30 15255 H 1415.62 -4.35705 5.20901 0
M  V30 15256 H 1413.56 -5.63255 3.36274 0
M  V30 15257 H 1413.48 -5.58677 5.09328 0
M  V30 15258 H 1414.75 -6.4892 4.31884 0
M  V30 15259 N 1418.98 -1.3968 -0.729882 0
M  V30 15260 C 1419.89 -1.41094 -1.87429 0
M  V30 15261 C 1420.9 -0.305142 -1.71303 0
M  V30 15262 O 1422.08 -0.54744 -1.93817 0
M  V30 15263 C 1419.14 -1.25786 -3.23077 0
M  V30 15264 C 1418.2 -2.46382 -3.5156 0
M  V30 15265 C 1417.44 -2.31795 -4.80735 0
M  V30 15266 O 1417.66 -1.32415 -5.54818 0
M  V30 15267 O 1416.59 -3.20883 -5.09232 0
M  V30 15268 H 1420.42 -2.37571 -1.89192 0
M  V30 15269 H 1418.01 -1.2085 -0.878389 0
M  V30 15270 H 1419.89 -1.19402 -4.0413 0
M  V30 15271 H 1418.56 -0.324065 -3.22074 0
M  V30 15272 H 1417.47 -2.58343 -2.70573 0
M  V30 15273 H 1418.8 -3.38473 -3.57347 0
M  V30 15274 N 1420.45 0.960609 -1.2494 0
M  V30 15275 C 1421.7 1.70111 -1.09117 0
M  V30 15276 C 1422.02 1.91466 0.369544 0
M  V30 15277 O 1421.29 1.49749 1.26302 0
M  V30 15278 H 1419.87 0.630372 -0.400799 0
M  V30 15279 H 1422.54 1.15525 -1.56971 0
M  V30 15280 H 1421.63 2.68277 -1.5948 0
M  V30 15281 N 1421.93 1.0643 1.16234 0
M  V30 15282 C 1423.35 0.78802 1.38789 0
M  V30 15283 C 1423.55 -0.612019 1.91981 0
M  V30 15284 O 1422.6 -1.37235 2.1195 0
M  V30 15285 C 1423.92 1.85406 2.36738 0
M  V30 15286 C 1425.47 1.87773 2.5042 0
M  V30 15287 C 1425.94 2.93435 3.51653 0
M  V30 15288 N 1427.43 2.92477 3.59181 0
M  V30 15289 C 1428.17 3.7088 4.37305 0
M  V30 15290 N 1427.66 4.59106 5.18839 0
M  V30 15291 N 1429.46 3.59267 4.32301 0
M  V30 15292 H 1421.61 1.9674 0.800449 0
M  V30 15293 H 1423.87 0.852631 0.414397 0
M  V30 15294 H 1423.58 2.85954 2.04751 0
M  V30 15295 H 1423.45 1.70625 3.36403 0
M  V30 15296 H 1425.84 0.878825 2.8171 0
M  V30 15297 H 1425.92 2.06633 1.50787 0
M  V30 15298 H 1425.56 3.93519 3.211 0
M  V30 15299 H 1425.49 2.71824 4.5102 0
M  V30 15300 H 1427.98 2.28517 3.00979 0
M  V30 15301 H 1428.3 5.15583 5.75668 0
M  V30 15302 H 1426.64 4.6316 5.18177 0
M  V30 15303 H 1429.83 2.89726 3.67663 0
M  V30 15304 H 1430 4.20613 4.92939 0
M  V30 15305 N 1423.41 -1.329 0.847073 0
M  V30 15306 C 1424.65 -1.99318 0.45294 0
M  V30 15307 C 1425.01 -1.65606 -0.971536 0
M  V30 15308 O 1426.22 -2.25054 -1.46983 0
M  V30 15309 C 1424.49 -3.50938 0.67656 0
M  V30 15310 S 1426.05 -4.37161 0.378869 0
M  V30 15311 H 1422.86 -0.690376 0.170008 0
M  V30 15312 H 1425.47 -1.61744 1.09814 0
M  V30 15313 H 1424.17 -3.72963 1.71252 0
M  V30 15314 H 1423.7 -3.93396 0.0175049 0
M  V30 15315 H 1425.72 -4.89739 -0.79813 0
M  V30 15316 N 1424.89 -0.604284 -1.45555 0
M  V30 15317 C 1426.14 -0.0957836 -2.01472 0
M  V30 15318 C 1426.45 1.28016 -1.47889 0
M  V30 15319 O 1427.66 1.88121 -1.95762 0
M  V30 15320 C 1426.11 -0.120566 -3.59698 0
M  V30 15321 C 1425.72 -1.49616 -4.22278 0
M  V30 15322 C 1427.46 0.332865 -4.23193 0
M  V30 15323 C 1425.37 -1.4775 -5.72646 0
M  V30 15324 H 1424.3 -0.0320399 -0.753319 0
M  V30 15325 H 1426.95 -0.759125 -1.67061 0
M  V30 15326 H 1425.33 0.609365 -3.91283 0
M  V30 15327 H 1426.51 -2.24753 -4.02272 0
M  V30 15328 H 1424.82 -1.89141 -3.70965 0
M  V30 15329 H 1427.42 0.365951 -5.33446 0
M  V30 15330 H 1427.76 1.35487 -3.93635 0
M  V30 15331 H 1428.3 -0.343692 -3.96313 0
M  V30 15332 H 1425.04 -2.47701 -6.06898 0
M  V30 15333 H 1424.56 -0.768659 -5.94854 0
M  V30 15334 H 1426.23 -1.19971 -6.3578 0
M  V30 15335 N 1426.37 1.53816 -0.343257 0
M  V30 15336 C 1427.6 2.05028 0.254375 0
M  V30 15337 C 1428 1.21793 1.44786 0
M  V30 15338 O 1427.35 0.246075 1.82044 0
M  V30 15339 C 1427.41 3.5194 0.733364 0
M  V30 15340 C 1427.07 4.5573 -0.340434 0
M  V30 15341 C 1428.07 5.06261 -1.18304 0
M  V30 15342 C 1425.76 4.99862 -0.494277 0
M  V30 15343 C 1427.75 5.99504 -2.16503 0
M  V30 15344 C 1425.44 5.92916 -1.47967 0
M  V30 15345 C 1426.43 6.42625 -2.3135 0
M  V30 15346 O 1426.12 7.33848 -3.28211 0
M  V30 15347 H 1425.85 0.673922 0.0529695 0
M  V30 15348 H 1428.41 1.99387 -0.493352 0
M  V30 15349 H 1426.64 3.55044 1.53233 0
M  V30 15350 H 1428.33 3.86124 1.25151 0
M  V30 15351 H 1429.09 4.7293 -1.07527 0
M  V30 15352 H 1424.97 4.60772 0.144904 0
M  V30 15353 H 1428.52 6.38227 -2.81624 0
M  V30 15354 H 1424.41 6.25662 -1.588 0
M  V30 15355 H 1425.18 7.51781 -3.23679 0
M  V30 15356 N 1427.84 0.0718701 1.57436 0
M  V30 15357 C 1428.79 -0.913026 2.13931 0
M  V30 15358 C 1429.79 -1.3082 1.07622 0
M  V30 15359 O 1430.99 -1.28544 1.26002 0
M  V30 15360 H 1427.37 -0.31238 0.684049 0
M  V30 15361 H 1429.34 -0.411613 2.95547 0
M  V30 15362 C 1428.09 -2.17109 2.71586 0
M  V30 15363 H 1427.41 -1.87585 3.53061 0
M  V30 15364 H 1428.85 -2.84134 3.14712 0
M  V30 15365 C 1427.31 -2.92967 1.6635 0
M  V30 15366 O 1427.84 -3.8667 1.08854 0
M  V30 15367 N 1426.05 -2.56075 1.37383 0
M  V30 15368 H 1425.59 -1.79949 1.84326 0
M  V30 15369 H 1425.55 -3.07134 0.672039 0
M  V30 15370 N 1429.32 -1.56304 -0.201686 0
M  V30 15371 C 1430.27 -1.94901 -1.26949 0
M  V30 15372 C 1431.26 -0.833574 -1.47472 0
M  V30 15373 O 1432.47 -1.01854 -1.48411 0
M  V30 15374 H 1428.85 -0.619663 -0.426053 0
M  V30 15375 H 1430.82 -2.83964 -0.9169 0
M  V30 15376 C 1429.57 -2.29913 -2.60835 0
M  V30 15377 H 1428.89 -3.15268 -2.45858 0
M  V30 15378 H 1430.33 -2.60789 -3.34313 0
M  V30 15379 C 1428.79 -1.13136 -3.17335 0
M  V30 15380 O 1429.32 -0.402915 -3.99674 0
M  V30 15381 N 1427.52 -0.909912 -2.75987 0
M  V30 15382 H 1427.07 -1.50402 -2.09134 0
M  V30 15383 H 1427.03 -0.130348 -3.1413 0
M  V30 15384 N 1430.8 0.469154 -1.50455 0
M  V30 15385 C 1431.73 1.58574 -1.64102 0
M  V30 15386 C 1432.71 1.5507 -0.489095 0
M  V30 15387 O 1433.9 1.74664 -0.708851 0
M  V30 15388 C 1431.02 2.97151 -1.62538 0
M  V30 15389 C 1430.07 3.18803 -2.83315 0
M  V30 15390 S 1430.9 2.98496 -4.4459 0
M  V30 15391 C 1432.06 4.39412 -4.45722 0
M  V30 15392 H 1432.29 1.46759 -2.58552 0
M  V30 15393 H 1429.82 0.656629 -1.39742 0
M  V30 15394 H 1431.78 3.77044 -1.62321 0
M  V30 15395 H 1430.44 3.06355 -0.693205 0
M  V30 15396 H 1429.64 4.20044 -2.7853 0
M  V30 15397 H 1429.24 2.46685 -2.81109 0
M  V30 15398 H 1431.53 5.32078 -4.19404 0
M  V30 15399 H 1432.47 4.49239 -5.47348 0
M  V30 15400 H 1432.88 4.2158 -3.75407 0
M  V30 15401 N 1432.28 1.40065 0.722464 0
M  V30 15402 C 1433.23 1.39784 1.83655 0
M  V30 15403 C 1434.2 0.255743 1.64119 0
M  V30 15404 O 1435.38 0.452766 1.8535 0
M  V30 15405 C 1432.52 1.25946 3.21297 0
M  V30 15406 C 1431.63 2.49805 3.52451 0
M  V30 15407 C 1430.77 2.2846 4.79562 0
M  V30 15408 C 1429.81 3.4793 5.03598 0
M  V30 15409 N 1428.94 3.25823 6.21919 0
M  V30 15410 H 1433.78 2.35013 1.83229 0
M  V30 15411 H 1431.32 1.16728 0.895154 0
M  V30 15412 H 1433.28 1.15931 4.00769 0
M  V30 15413 H 1431.91 0.343402 3.20968 0
M  V30 15414 H 1430.96 2.70375 2.67585 0
M  V30 15415 H 1432.27 3.38753 3.66126 0
M  V30 15416 H 1431.43 2.15758 5.67039 0
M  V30 15417 H 1430.17 1.36926 4.68084 0
M  V30 15418 H 1429.17 3.61116 4.14579 0
M  V30 15419 H 1430.4 4.40382 5.16953 0
M  V30 15420 H 1428.34 2.36965 6.11705 0
M  V30 15421 H 1428.26 4.08333 6.36239 0
M  V30 15422 H 1429.53 3.16841 7.12202 0
M  V30 15423 N 1433.76 -0.95397 1.25448 0
M  V30 15424 C 1434.72 -2.03231 1.0597 0
M  V30 15425 C 1435.72 -1.60795 0.0122855 0
M  V30 15426 O 1436.91 -1.7233 0.254533 0
M  V30 15427 C 1434.04 -3.35414 0.609105 0
M  V30 15428 H 1435.24 -2.21943 2.01696 0
M  V30 15429 H 1432.79 -1.13115 1.07864 0
M  V30 15430 H 1433.52 -3.22398 -0.350723 0
M  V30 15431 H 1433.31 -3.67564 1.36526 0
M  V30 15432 H 1434.8 -4.14664 0.49428 0
M  V30 15433 N 1435.24 -1.07045 -1.15668 0
M  V30 15434 C 1436.48 -0.791735 -1.86381 0
M  V30 15435 C 1436.81 0.682084 -1.82148 0
M  V30 15436 O 1436.07 1.51617 -1.23737 0
M  V30 15437 C 1436.36 -1.24127 -3.35153 0
M  V30 15438 C 1436.03 -2.72051 -3.59582 0
M  V30 15439 C 1434.69 -3.12455 -3.65958 0
M  V30 15440 C 1437.04 -3.67547 -3.69538 0
M  V30 15441 C 1434.37 -4.4718 -3.79799 0
M  V30 15442 C 1436.72 -5.02029 -3.84902 0
M  V30 15443 C 1435.39 -5.42059 -3.89523 0
M  V30 15444 H 1434.66 -0.289717 -0.682016 0
M  V30 15445 H 1437.31 -1.34091 -1.36718 0
M  V30 15446 H 1435.61 -0.611428 -3.87 0
M  V30 15447 H 1437.31 -1.00256 -3.88265 0
M  V30 15448 H 1433.9 -2.39771 -3.55257 0
M  V30 15449 H 1438.08 -3.3746 -3.63915 0
M  V30 15450 H 1433.34 -4.77668 -3.81632 0
M  V30 15451 H 1437.51 -5.75902 -3.91548 0
M  V30 15452 H 1435.14 -6.46455 -4 0
M  V30 15453 N 1436.71 1.32449 -0.85411 0
M  V30 15454 C 1437.96 1.96537 -0.453451 0
M  V30 15455 C 1438.28 1.68344 0.995982 0
M  V30 15456 O 1439.48 2.26166 1.50204 0
M  V30 15457 C 1437.94 3.51785 -0.759934 0
M  V30 15458 C 1437.55 3.88838 -2.22506 0
M  V30 15459 C 1439.29 4.22347 -0.426973 0
M  V30 15460 C 1437.2 5.37129 -2.47479 0
M  V30 15461 H 1436.13 0.735537 -0.165835 0
M  V30 15462 H 1438.78 1.50851 -1.04481 0
M  V30 15463 H 1437.16 3.95879 -0.0980116 0
M  V30 15464 H 1438.33 3.55756 -2.92873 0
M  V30 15465 H 1436.65 3.31299 -2.52249 0
M  V30 15466 H 1439.25 5.31424 -0.590986 0
M  V30 15467 H 1439.59 4.11485 0.631359 0
M  V30 15468 H 1440.12 3.83835 -1.04477 0
M  V30 15469 H 1436.86 5.53012 -3.51935 0
M  V30 15470 H 1436.38 5.71619 -1.8169 0
M  V30 15471 H 1438.06 6.04204 -2.31401 0
M  V30 15472 N 1438.19 0.611994 1.45232 0
M  V30 15473 C 1439.61 0.276005 1.57195 0
M  V30 15474 C 1439.81 -1.22136 1.60266 0
M  V30 15475 O 1438.86 -2.00459 1.53533 0
M  V30 15476 C 1440.18 0.951064 2.85263 0
M  V30 15477 C 1441.72 0.927398 2.98945 0
M  V30 15478 C 1442.2 1.58255 4.2979 0
M  V30 15479 N 1443.69 1.54825 4.36559 0
M  V30 15480 C 1444.43 2.02428 5.3648 0
M  V30 15481 N 1443.92 2.58137 6.42913 0
M  V30 15482 N 1445.71 1.9317 5.27865 0
M  V30 15483 H 1437.87 1.58418 1.41483 0
M  V30 15484 H 1440.13 0.663879 0.676734 0
M  V30 15485 H 1439.83 2.00557 2.88912 0
M  V30 15486 H 1439.71 0.477044 3.74171 0
M  V30 15487 H 1442.1 -0.118571 2.94862 0
M  V30 15488 H 1442.18 1.43973 2.11437 0
M  V30 15489 H 1441.82 2.62787 4.34632 0
M  V30 15490 H 1441.75 1.04521 5.16123 0
M  V30 15491 H 1444.24 1.14133 3.60253 0
M  V30 15492 H 1444.55 2.92243 7.15412 0
M  V30 15493 H 1442.9 2.62179 6.43652 0
M  V30 15494 H 1446.09 1.49384 4.43624 0
M  V30 15495 H 1446.26 2.30582 6.05587 0
M  V30 15496 N 1439.67 -1.53632 0.351409 0
M  V30 15497 C 1440.9 -2.0516 -0.243498 0
M  V30 15498 C 1441.31 -1.22559 -1.44138 0
M  V30 15499 O 1440.65 -0.255726 -1.81911 0
M  V30 15500 C 1440.71 -3.52324 -0.71469 0
M  V30 15501 C 1440.38 -4.55543 0.364598 0
M  V30 15502 C 1441.37 -5.05626 1.20987 0
M  V30 15503 C 1439.06 -4.99593 0.520779 0
M  V30 15504 C 1441.05 -5.98347 2.1968 0
M  V30 15505 C 1438.74 -5.92123 1.51109 0
M  V30 15506 C 1439.74 -6.41389 2.34754 0
M  V30 15507 O 1439.43 -7.32097 3.32098 0
M  V30 15508 H 1439.16 -0.674193 -0.0493948 0
M  V30 15509 H 1441.71 -1.99123 0.503919 0
M  V30 15510 H 1439.94 -3.55852 -1.51348 0
M  V30 15511 H 1441.63 -3.86783 -1.23102 0
M  V30 15512 H 1442.4 -4.72353 1.10033 0
M  V30 15513 H 1438.28 -4.60843 -0.120466 0
M  V30 15514 H 1441.82 -6.36724 2.85005 0
M  V30 15515 H 1437.72 -6.24811 1.62116 0
M  V30 15516 H 1438.48 -7.50053 3.27662 0
M  V30 15517 N 1441.15 -0.0802183 -1.57396 0
M  V30 15518 C 1442.08 0.881426 -2.16225 0
M  V30 15519 C 1443.06 1.30459 -1.09154 0
M  V30 15520 O 1444.24 1.37413 -1.37227 0
M  V30 15521 C 1441.37 2.14599 -2.73065 0
M  V30 15522 C 1440.33 1.86195 -3.85377 0
M  V30 15523 C 1439.65 3.19354 -4.28856 0
M  V30 15524 C 1440.95 1.16059 -5.09242 0
M  V30 15525 H 1442.65 0.391325 -2.96832 0
M  V30 15526 H 1440.19 0.186785 -1.42783 0
M  V30 15527 H 1442.15 2.82297 -3.12868 0
M  V30 15528 H 1440.87 2.65866 -1.89691 0
M  V30 15529 H 1439.53 1.209 -3.46091 0
M  V30 15530 H 1439.18 3.68479 -3.42392 0
M  V30 15531 H 1438.88 3.01137 -5.04569 0
M  V30 15532 H 1440.4 3.88235 -4.71281 0
M  V30 15533 H 1441.82 1.7384 -5.46308 0
M  V30 15534 H 1440.21 1.08072 -5.90288 0
M  V30 15535 H 1441.28 0.14098 -4.84695 0
M  V30 15536 N 1442.63 1.56409 0.193394 0
M  V30 15537 C 1443.87 1.79919 0.911712 0
M  V30 15538 C 1444.19 0.653729 1.84352 0
M  V30 15539 O 1445.39 0.773172 2.60258 0
M  V30 15540 C 1443.85 3.18726 1.67158 0
M  V30 15541 C 1443.46 4.41078 0.784512 0
M  V30 15542 C 1445.2 3.51544 2.37944 0
M  V30 15543 C 1443.11 5.70907 1.54335 0
M  V30 15544 H 1442.04 0.670864 0.344177 0
M  V30 15545 H 1444.69 1.82757 0.164967 0
M  V30 15546 H 1443.07 3.10142 2.46227 0
M  V30 15547 H 1444.25 4.60789 0.032356 0
M  V30 15548 H 1442.56 4.15978 0.187407 0
M  V30 15549 H 1445.16 4.45779 2.95271 0
M  V30 15550 H 1445.5 2.75369 3.12214 0
M  V30 15551 H 1446.03 3.61583 1.65839 0
M  V30 15552 H 1442.77 6.50052 0.843393 0
M  V30 15553 H 1442.29 5.5521 2.26939 0
M  V30 15554 H 1443.97 6.12085 2.09669 0
M  V30 15555 N 1444.1 -0.461169 1.50702 0
M  V30 15556 C 1445.33 -1.24019 1.66235 0
M  V30 15557 C 1445.75 -1.84827 0.349388 0
M  V30 15558 O 1445.11 -1.67743 -0.687888 0
M  V30 15559 C 1445.16 -2.31743 2.76274 0
M  V30 15560 O 1444.26 -3.3664 2.38217 0
M  V30 15561 H 1443.6 -0.364424 0.55506 0
M  V30 15562 H 1446.13 -0.547636 1.97135 0
M  V30 15563 H 1446.14 -2.76902 2.99649 0
M  V30 15564 H 1444.82 -1.86858 3.7156 0
M  V30 15565 H 1443.4 -2.97123 2.25327 0
M  V30 15566 N 1445.58 -1.40446 -0.715026 0
M  V30 15567 C 1446.81 -1.42263 -1.50917 0
M  V30 15568 C 1447.23 -0.0242402 -1.88084 0
M  V30 15569 O 1446.59 0.967817 -1.53307 0
M  V30 15570 C 1446.64 -2.31998 -2.7606 0
M  V30 15571 O 1445.74 -1.76361 -3.72787 0
M  V30 15572 H 1445.08 -0.483614 -0.454988 0
M  V30 15573 H 1447.61 -1.84682 -0.880549 0
M  V30 15574 H 1447.62 -2.47204 -3.24583 0
M  V30 15575 H 1446.3 -3.33614 -2.48343 0
M  V30 15576 H 1444.87 -1.70504 -3.31636 0
M  V30 15577 N 1447.06 0.947303 -1.25952 0
M  V30 15578 C 1448.01 2.06642 -1.06779 0
M  V30 15579 C 1449 1.694 0.00348362 0
M  V30 15580 O 1450.21 1.79351 -0.152715 0
M  V30 15581 H 1446.58 0.676499 -0.32841 0
M  V30 15582 H 1448.55 2.19968 -2.01635 0
M  V30 15583 C 1447.3 3.40353 -0.711015 0
M  V30 15584 H 1446.63 3.69483 -1.52718 0
M  V30 15585 H 1448.07 4.19493 -0.616606 0
M  V30 15586 C 1446.52 3.3181 0.58344 0
M  V30 15587 O 1447.05 3.67431 1.6235 0
M  V30 15588 N 1445.26 2.84919 0.571797 0
M  V30 15589 H 1444.81 2.56128 -0.274962 0
M  V30 15590 H 1444.77 2.79586 1.43803 0
M  V30 15591 N 1448.54 1.07657 1.15099 0
M  V30 15592 C 1449.79 0.796589 1.85303 0
M  V30 15593 C 1450.1 -0.679887 1.83404 0
M  V30 15594 O 1451.31 -1.07475 2.49322 0
M  V30 15595 C 1449.76 1.37495 3.326 0
M  V30 15596 C 1449.37 2.88267 3.42938 0
M  V30 15597 C 1451.11 1.17313 4.07968 0
M  V30 15598 C 1449.02 3.39278 4.84401 0
M  V30 15599 H 1447.95 0.294316 0.694186 0
M  V30 15600 H 1450.6 1.29702 1.29806 0
M  V30 15601 H 1448.98 0.802248 3.87789 0
M  V30 15602 H 1450.16 3.51608 2.9784 0
M  V30 15603 H 1448.47 3.07275 2.81018 0
M  V30 15604 H 1451.07 1.52899 5.12373 0
M  V30 15605 H 1451.41 0.112387 4.16148 0
M  V30 15606 H 1451.95 1.71236 3.59059 0
M  V30 15607 H 1448.69 4.44892 4.81406 0
M  V30 15608 H 1448.21 2.80692 5.30068 0
M  V30 15609 H 1449.88 3.35416 5.53267 0
M  V30 15610 N 1450.02 -1.31994 0.861122 0
M  V30 15611 C 1451.26 -1.96636 0.466754 0
M  V30 15612 C 1451.59 -1.6845 -0.982328 0
M  V30 15613 O 1450.86 -0.995157 -1.68741 0
M  V30 15614 H 1449.44 -0.727489 0.169613 0
M  V30 15615 H 1452.1 -1.60962 1.09897 0
M  V30 15616 H 1451.19 -3.05937 0.61716 0
M  V30 15617 N 1451.49 -0.619688 -1.44906 0
M  V30 15618 C 1452.4 0.0935512 -2.34413 0
M  V30 15619 C 1453.42 0.847738 -1.51952 0
M  V30 15620 O 1454.6 0.802591 -1.84717 0
M  V30 15621 C 1451.66 1.07047 -3.2976 0
M  V30 15622 C 1450.72 0.31691 -4.28129 0
M  V30 15623 C 1449.96 1.24729 -5.1892 0
M  V30 15624 O 1450.18 2.4856 -5.13395 0
M  V30 15625 O 1449.11 0.737799 -5.97361 0
M  V30 15626 H 1452.94 -0.642335 -2.96829 0
M  V30 15627 H 1450.52 -0.379908 -1.44489 0
M  V30 15628 H 1452.41 1.63281 -3.88481 0
M  V30 15629 H 1451.08 1.78717 -2.69893 0
M  V30 15630 H 1449.99 -0.288192 -3.72988 0
M  V30 15631 H 1451.32 -0.359539 -4.90885 0
M  V30 15632 N 1452.97 1.53444 -0.359552 0
M  V30 15633 C 1454.22 2.01464 0.232366 0
M  V30 15634 C 1454.55 1.24656 1.48911 0
M  V30 15635 O 1453.83 0.338574 1.9153 0
M  V30 15636 C 1454.11 3.56172 0.530403 0
M  V30 15637 C 1453.96 4.43678 -0.739556 0
M  V30 15638 C 1455.28 4.19412 1.33347 0
M  V30 15639 H 1452.4 0.732314 0.0829802 0
M  V30 15640 H 1455.04 1.83752 -0.483253 0
M  V30 15641 H 1453.19 3.71396 1.14004 0
M  V30 15642 H 1454.86 4.40263 -1.37719 0
M  V30 15643 H 1453.11 4.11892 -1.36117 0
M  V30 15644 H 1453.78 5.49856 -0.486062 0
M  V30 15645 H 1456.25 4.07984 0.817816 0
M  V30 15646 H 1455.13 5.277 1.51075 0
M  V30 15647 H 1455.39 3.7508 2.34024 0
M  V30 15648 N 1454.45 0.0885642 1.57351 0
M  V30 15649 C 1455.41 -0.858178 2.12528 0
M  V30 15650 C 1456.41 -1.21522 1.05304 0
M  V30 15651 O 1457.6 -1.14573 1.3122 0
M  V30 15652 C 1454.74 -2.15619 2.64048 0
M  V30 15653 H 1455.93 -0.37918 2.97493 0
M  V30 15654 H 1453.48 -0.160354 1.55475 0
M  V30 15655 H 1454.22 -2.68018 1.82584 0
M  V30 15656 H 1454 -1.90995 3.42437 0
M  V30 15657 H 1455.49 -2.83359 3.06753 0
M  V30 15658 N 1455.93 -1.56509 -0.185096 0
M  V30 15659 C 1457.15 -1.85683 -0.923941 0
M  V30 15660 C 1457.58 -0.673315 -1.75636 0
M  V30 15661 O 1456.94 0.3778 -1.7732 0
M  V30 15662 C 1456.98 -3.13165 -1.78774 0
M  V30 15663 O 1456.09 -2.9442 -2.88775 0
M  V30 15664 H 1455.43 -0.611139 -0.259624 0
M  V30 15665 H 1457.96 -2.0374 -0.187393 0
M  V30 15666 H 1457.97 -3.44216 -2.19042 0
M  V30 15667 H 1456.64 -3.98922 -1.17619 0
M  V30 15668 H 1455.22 -2.7469 -2.5219 0
M  V30 15669 N 1457.41 0.45317 -1.50944 0
M  V30 15670 C 1458.66 1.20076 -1.62064 0
M  V30 15671 C 1458.97 1.92709 -0.335034 0
M  V30 15672 O 1460.17 2.69543 -0.32538 0
M  V30 15673 C 1458.63 2.18283 -2.86148 0
M  V30 15674 C 1458.24 1.5137 -4.21653 0
M  V30 15675 C 1459.98 2.93572 -3.0662 0
M  V30 15676 C 1457.89 2.47968 -5.36904 0
M  V30 15677 H 1456.82 0.451894 -0.603579 0
M  V30 15678 H 1459.47 0.46937 -1.77396 0
M  V30 15679 H 1457.85 2.94789 -2.64415 0
M  V30 15680 H 1459.03 0.805295 -4.53709 0
M  V30 15681 H 1457.34 0.882935 -4.06931 0
M  V30 15682 H 1459.94 3.65903 -3.89897 0
M  V30 15683 H 1460.28 3.54003 -2.1906 0
M  V30 15684 H 1460.81 2.24175 -3.28619 0
M  V30 15685 H 1457.55 1.92249 -6.26674 0
M  V30 15686 H 1457.07 3.16907 -5.09244 0
M  V30 15687 H 1458.75 3.09428 -5.6821 0
M  V30 15688 N 1458.88 1.40823 0.707568 0
M  V30 15689 C 1460.13 1.39535 1.46753 0
M  V30 15690 C 1460.46 0.000370511 1.945 0
M  V30 15691 O 1459.71 -0.985628 1.69068 0
M  V30 15692 C 1460.01 2.33829 2.70294 0
M  V30 15693 C 1459.68 3.8092 2.41269 0
M  V30 15694 C 1458.34 4.20993 2.33063 0
M  V30 15695 C 1460.69 4.73839 2.17086 0
M  V30 15696 C 1458.02 5.52009 1.98754 0
M  V30 15697 C 1460.37 6.05161 1.84289 0
M  V30 15698 C 1459.04 6.44268 1.74571 0
M  V30 15699 H 1458.31 0.510593 0.537006 0
M  V30 15700 H 1460.95 1.73536 0.809789 0
M  V30 15701 H 1459.26 1.9304 3.40944 0
M  V30 15702 H 1460.96 2.30111 3.28405 0
M  V30 15703 H 1457.55 3.49175 2.48545 0
M  V30 15704 H 1461.73 4.43691 2.22377 0
M  V30 15705 H 1456.99 5.81202 1.89774 0
M  V30 15706 H 1461.16 6.7667 1.64593 0
M  V30 15707 H 1458.79 7.45703 1.47753 0
M  V30 15708 N 1460.36 -0.94061 1.26453 0
M  V30 15709 C 1461.61 -1.68132 1.1142 0
M  V30 15710 C 1461.92 -1.92587 -0.342006 0
M  V30 15711 O 1463.13 -2.64489 -0.613018 0
M  V30 15712 C 1461.59 -3.02758 1.94591 0
M  V30 15713 C 1461.19 -2.86049 3.4479 0
M  V30 15714 C 1462.94 -3.80516 1.88169 0
M  V30 15715 C 1460.85 -4.1615 4.20206 0
M  V30 15716 H 1459.78 -0.630591 0.413366 0
M  V30 15717 H 1462.43 -1.04602 1.50767 0
M  V30 15718 H 1460.81 -3.67272 1.48078 0
M  V30 15719 H 1461.98 -2.3038 3.99076 0
M  V30 15720 H 1460.3 -2.21732 3.52454 0
M  V30 15721 H 1462.89 -4.76904 2.41799 0
M  V30 15722 H 1463.24 -4.07477 0.852531 0
M  V30 15723 H 1463.77 -3.22776 2.32509 0
M  V30 15724 H 1460.51 -3.94373 5.23593 0
M  V30 15725 H 1460.03 -4.71531 3.707 0
M  V30 15726 H 1461.71 -4.84602 4.28684 0
M  V30 15727 N 1461.84 -1.08266 -1.14527 0
M  V30 15728 C 1463.07 -0.83288 -1.89396 0
M  V30 15729 C 1463.48 0.614823 -1.78509 0
M  V30 15730 O 1462.84 1.42239 -1.14343 0
M  V30 15731 C 1462.89 -1.244 -3.39421 0
M  V30 15732 O 1462.61 -2.63491 -3.50006 0
M  V30 15733 C 1464.11 -1.02488 -4.3129 0
M  V30 15734 H 1461.33 -0.300474 -0.599964 0
M  V30 15735 H 1463.88 -1.44155 -1.4505 0
M  V30 15736 H 1462.03 -0.679466 -3.81395 0
M  V30 15737 H 1462.45 -2.80517 -4.43182 0
M  V30 15738 H 1463.92 -1.36194 -5.34935 0
M  V30 15739 H 1464.4 0.0381961 -4.39183 0
M  V30 15740 H 1465 -1.57477 -3.95071 0
M  V30 15741 N 1463.32 1.31536 -0.86811 0
M  V30 15742 C 1464.28 2.26849 -0.327456 0
M  V30 15743 C 1465.28 1.52142 0.520514 0
M  V30 15744 O 1466.47 1.71044 0.330088 0
M  V30 15745 C 1463.6 3.36673 0.535174 0
M  V30 15746 H 1464.8 2.76184 -1.16886 0
M  V30 15747 H 1462.35 1.42437 -0.643545 0
M  V30 15748 H 1463.09 2.92627 1.39785 0
M  V30 15749 H 1462.87 3.92034 -0.0719835 0
M  V30 15750 H 1464.36 4.07658 0.905786 0
M  V30 15751 N 1464.8 0.627364 1.44575 0
M  V30 15752 C 1465.73 -0.066735 2.33405 0
M  V30 15753 C 1466.71 -0.838666 1.47988 0
M  V30 15754 O 1467.89 -0.805296 1.76716 0
M  V30 15755 C 1465.02 -1.05148 3.31 0
M  V30 15756 C 1463.98 -0.391433 4.26206 0
M  V30 15757 C 1463.3 -1.48581 5.13642 0
M  V30 15758 C 1464.6 0.699942 5.17589 0
M  V30 15759 H 1466.3 0.675029 2.91691 0
M  V30 15760 H 1463.84 0.326066 1.4026 0
M  V30 15761 H 1465.8 -1.54576 3.92026 0
M  V30 15762 H 1464.52 -1.82408 2.70915 0
M  V30 15763 H 1463.18 0.0821694 3.66508 0
M  V30 15764 H 1462.83 -2.2492 4.49911 0
M  V30 15765 H 1462.53 -1.04957 5.7815 0
M  V30 15766 H 1464.05 -1.98198 5.77538 0
M  V30 15767 H 1465.47 0.288911 5.72572 0
M  V30 15768 H 1463.86 1.0591 5.9068 0
M  V30 15769 H 1464.93 1.5686 4.58828 0
M  V30 15770 N 1466.28 -1.53251 0.367684 0
M  V30 15771 C 1467.21 -2.28728 -0.469676 0
M  V30 15772 C 1468.19 -1.3124 -1.08213 0
M  V30 15773 O 1469.37 -1.60112 -1.09898 0
M  V30 15774 C 1466.5 -3.07808 -1.60846 0
M  V30 15775 C 1465.46 -4.13 -1.12315 0
M  V30 15776 C 1464.78 -4.80176 -2.35234 0
M  V30 15777 C 1466.08 -5.21892 -0.2064 0
M  V30 15778 H 1467.78 -2.98972 0.160019 0
M  V30 15779 H 1465.32 -1.43786 0.0784011 0
M  V30 15780 H 1467.27 -3.59358 -2.20091 0
M  V30 15781 H 1466 -2.35258 -2.26542 0
M  V30 15782 H 1464.66 -3.62399 -0.553378 0
M  V30 15783 H 1464.31 -4.04196 -2.99391 0
M  V30 15784 H 1464.01 -5.51261 -2.03433 0
M  V30 15785 H 1465.53 -5.34521 -2.9516 0
M  V30 15786 H 1466.94 -5.68932 -0.706386 0
M  V30 15787 H 1465.34 -6.00096 0.0208362 0
M  V30 15788 H 1466.41 -4.79051 0.750851 0
M  V30 15789 N 1467.75 -0.0969077 -1.57302 0
M  V30 15790 C 1469 0.565254 -1.94034 0
M  V30 15791 C 1469.32 1.68609 -0.9796 0
M  V30 15792 O 1468.59 1.95874 -0.0319788 0
M  V30 15793 H 1467.17 0.211796 -0.716346 0
M  V30 15794 H 1469.83 -0.160665 -1.94237 0
M  V30 15795 H 1468.93 0.974268 -2.96504 0
M  V30 15796 N 1469.23 1.56605 0.176793 0
M  V30 15797 C 1470.48 1.80875 0.892578 0
M  V30 15798 C 1470.79 0.673245 1.83648 0
M  V30 15799 O 1472 0.800732 2.59423 0
M  V30 15800 C 1470.46 3.20481 1.63768 0
M  V30 15801 C 1470.06 4.41885 0.737685 0
M  V30 15802 C 1471.81 3.54048 2.34202 0
M  V30 15803 C 1469.71 5.72512 1.48271 0
M  V30 15804 H 1468.64 0.674476 0.337042 0
M  V30 15805 H 1471.3 1.82922 0.145574 0
M  V30 15806 H 1469.68 3.12736 2.42924 0
M  V30 15807 H 1470.85 4.60797 -0.0165186 0
M  V30 15808 H 1469.17 4.16153 0.143277 0
M  V30 15809 H 1471.76 4.48886 2.90526 0
M  V30 15810 H 1472.11 2.78665 3.09276 0
M  V30 15811 H 1472.64 3.63322 1.61995 0
M  V30 15812 H 1469.38 6.5091 0.774399 0
M  V30 15813 H 1468.9 5.57586 2.21038 0
M  V30 15814 H 1470.58 6.14274 2.03165 0
M  V30 15815 N 1470.71 -0.445159 1.51182 0
M  V30 15816 C 1472.12 -1.02528 1.56028 0
M  V30 15817 C 1472.47 -1.92503 0.379087 0
M  V30 15818 O 1471.6 -2.10424 -0.505056 0
M  V30 15819 C 1472.19 -1.86621 2.82768 0
M  V30 15820 C 1470.75 -2.39697 2.90211 0
M  V30 15821 C 1469.9 -1.18705 2.50608 0
M  V30 15822 H 1472.85 -0.226732 1.57072 0
M  V30 15823 H 1472.87 -2.71987 2.66089 0
M  V30 15824 H 1472.38 -1.2111 3.68719 0
M  V30 15825 H 1470.48 -3.08686 2.08672 0
M  V30 15826 H 1470.6 -2.73029 3.9369 0
M  V30 15827 H 1468.96 -1.52995 2.03629 0
M  V30 15828 H 1469.74 -0.548156 3.38895 0
M  V30 15829 N 1472.19 -1.41197 -0.700089 0
M  V30 15830 C 1473.46 -1.30803 -1.4543 0
M  V30 15831 C 1473.84 0.0664987 -2.10995 0
M  V30 15832 O 1473.19 1.08043 -2.01343 0
M  V30 15833 C 1473.4 -2.45815 -2.47742 0
M  V30 15834 C 1474.75 -2.86771 -3.13126 0
M  V30 15835 O 1475.77 -2.45521 -2.58065 0
M  V30 15836 O 1474.63 -3.58086 -4.1284 0
M  V30 15837 H 1471.73 -0.514523 -0.647453 0
M  V30 15838 H 1474.27 -1.53151 -0.73095 0
M  V30 15839 H 1473.05 -3.37557 -1.97917 0
M  V30 15840 H 1472.67 -2.25319 -3.27593 0
M  V30 15841 N 1473.67 0.933891 -1.2695 0
M  V30 15842 C 1474.89 1.72042 -1.15828 0
M  V30 15843 C 1475.32 1.85975 0.28193 0
M  V30 15844 O 1474.67 1.35528 1.20423 0
M  V30 15845 C 1474.72 3.10112 -1.84019 0
M  V30 15846 O 1473.83 3.96504 -1.13394 0
M  V30 15847 H 1473.17 0.527573 -0.40319 0
M  V30 15848 H 1475.7 1.16914 -1.67905 0
M  V30 15849 H 1475.71 3.60461 -1.91133 0
M  V30 15850 H 1474.38 2.99287 -2.8879 0
M  V30 15851 H 1472.96 3.54948 -1.14307 0
M  V30 15852 N 1475.14 1.08871 1.13951 0
M  V30 15853 C 1476.07 0.744715 2.21306 0
M  V30 15854 C 1477.05 -0.275019 1.67862 0
M  V30 15855 O 1478.24 -0.144339 1.93663 0
M  V30 15856 C 1475.37 0.158336 3.46939 0
M  V30 15857 C 1474.32 1.10695 4.13438 0
M  V30 15858 C 1473.65 0.382552 5.3333 0
M  V30 15859 C 1474.95 2.44704 4.61429 0
M  V30 15860 H 1476.64 1.6423 2.50337 0
M  V30 15861 H 1474.19 0.791088 1.20324 0
M  V30 15862 H 1476.14 -0.0943587 4.21294 0
M  V30 15863 H 1474.87 -0.774413 3.17286 0
M  V30 15864 H 1473.53 1.34482 3.41043 0
M  V30 15865 H 1473.17 -0.554153 4.99938 0
M  V30 15866 H 1472.87 1.01499 5.78767 0
M  V30 15867 H 1474.4 0.138023 6.10444 0
M  V30 15868 H 1475.81 2.25156 5.27236 0
M  V30 15869 H 1474.21 3.03684 5.17586 0
M  V30 15870 H 1475.28 3.05883 3.76249 0
M  V30 15871 N 1476.62 -1.31073 0.875073 0
M  V30 15872 C 1477.58 -2.26672 0.339481 0
M  V30 15873 C 1478.58 -1.52416 -0.512439 0
M  V30 15874 O 1479.77 -1.71217 -0.321012 0
M  V30 15875 C 1476.91 -3.36952 -0.517311 0
M  V30 15876 H 1478.1 -2.7556 1.18349 0
M  V30 15877 H 1475.65 -1.42093 0.65109 0
M  V30 15878 H 1476.39 -2.93364 -1.38231 0
M  V30 15879 H 1476.17 -3.9199 0.092773 0
M  V30 15880 H 1477.66 -4.08133 -0.884154 0
M  V30 15881 N 1478.1 -0.635022 -1.4424 0
M  V30 15882 C 1479.51 -0.222982 -1.85364 0
M  V30 15883 C 1479.86 1.22648 -1.5314 0
M  V30 15884 O 1478.99 1.93373 -0.971384 0
M  V30 15885 C 1479.58 -0.397912 -3.36455 0
M  V30 15886 C 1478.14 -0.0403458 -3.76378 0
M  V30 15887 C 1477.29 -0.709451 -2.68071 0
M  V30 15888 H 1480.24 -0.839923 -1.34651 0
M  V30 15889 H 1480.26 0.361996 -3.78774 0
M  V30 15890 H 1479.77 -1.45294 -3.59877 0
M  V30 15891 H 1477.87 1.01279 -3.58571 0
M  V30 15892 H 1477.99 -0.453121 -4.76952 0
M  V30 15893 H 1476.35 -0.144386 -2.5429 0
M  V30 15894 H 1477.13 -1.76715 -2.94324 0
M  V30 15895 N 1479.58 1.53054 -0.375806 0
M  V30 15896 C 1480.82 2.017 0.210985 0
M  V30 15897 C 1481.16 1.26228 1.47581 0
M  V30 15898 O 1480.43 0.358869 1.91161 0
M  V30 15899 C 1480.72 3.56715 0.492596 0
M  V30 15900 C 1480.57 4.42869 -0.786573 0
M  V30 15901 C 1481.89 4.20803 1.28891 0
M  V30 15902 H 1479.01 0.733153 0.0752084 0
M  V30 15903 H 1481.65 1.83229 -0.502715 0
M  V30 15904 H 1479.8 3.72585 1.10059 0
M  V30 15905 H 1481.47 4.38777 -1.42381 0
M  V30 15906 H 1479.71 4.10425 -1.40478 0
M  V30 15907 H 1480.38 5.49309 -0.544354 0
M  V30 15908 H 1482.86 4.08828 0.774498 0
M  V30 15909 H 1481.74 5.29273 1.45469 0
M  V30 15910 H 1482 3.77541 2.30033 0
M  V30 15911 N 1481.06 0.105248 1.57248 0
M  V30 15912 C 1481.99 -0.880221 2.11624 0
M  V30 15913 C 1483 -1.23924 1.05578 0
M  V30 15914 O 1484.19 -1.19059 1.32994 0
M  V30 15915 C 1481.29 -2.18628 2.5895 0
M  V30 15916 C 1480.46 -2.00105 3.88943 0
M  V30 15917 C 1479.52 -3.14315 4.2201 0
M  V30 15918 O 1478.55 -2.87832 4.91061 0
M  V30 15919 N 1479.75 -4.4037 3.78226 0
M  V30 15920 H 1482.52 -0.415742 2.96802 0
M  V30 15921 H 1480.08 -0.0795714 1.61704 0
M  V30 15922 H 1482.07 -2.94002 2.7811 0
M  V30 15923 H 1480.64 -2.56467 1.78727 0
M  V30 15924 H 1479.86 -1.09003 3.7883 0
M  V30 15925 H 1481.15 -1.85018 4.73968 0
M  V30 15926 H 1480.54 -4.64765 3.22506 0
M  V30 15927 H 1479.1 -5.1266 4.02521 0
M  V30 15928 N 1482.53 -1.56697 -0.168486 0
M  V30 15929 C 1483.46 -1.99659 -1.21073 0
M  V30 15930 C 1484.45 -0.872625 -1.46011 0
M  V30 15931 O 1485.63 -1.13891 -1.57297 0
M  V30 15932 C 1482.76 -2.35889 -2.54899 0
M  V30 15933 C 1481.71 -3.51272 -2.44524 0
M  V30 15934 C 1481.04 -3.73253 -3.82866 0
M  V30 15935 C 1482.34 -4.84631 -1.94756 0
M  V30 15936 H 1484.03 -2.86974 -0.853593 0
M  V30 15937 H 1481.58 -1.38065 -0.409165 0
M  V30 15938 H 1483.53 -2.64542 -3.28017 0
M  V30 15939 H 1482.26 -1.45486 -2.92406 0
M  V30 15940 H 1480.92 -3.22751 -1.7386 0
M  V30 15941 H 1480.56 -2.80136 -4.17772 0
M  V30 15942 H 1480.26 -4.5089 -3.76792 0
M  V30 15943 H 1481.79 -4.04309 -4.57566 0
M  V30 15944 H 1483.2 -5.12142 -2.5765 0
M  V30 15945 H 1481.6 -5.65925 -1.99623 0
M  V30 15946 H 1482.67 -4.76436 -0.902021 0
M  V30 15947 N 1484.01 0.437135 -1.51416 0
M  V30 15948 C 1484.94 1.538 -1.75692 0
M  V30 15949 C 1485.92 1.5891 -0.606759 0
M  V30 15950 O 1487.11 1.74635 -0.849492 0
M  V30 15951 C 1484.24 2.91877 -1.88215 0
M  V30 15952 C 1483.19 3.01628 -3.03652 0
M  V30 15953 C 1482.52 4.41687 -3.01358 0
M  V30 15954 C 1483.82 2.75691 -4.43612 0
M  V30 15955 H 1485.51 1.33737 -2.67871 0
M  V30 15956 H 1483.06 0.641936 -1.289 0
M  V30 15957 H 1485.01 3.68851 -2.03781 0
M  V30 15958 H 1483.74 3.13173 -0.926847 0
M  V30 15959 H 1482.39 2.27094 -2.87791 0
M  V30 15960 H 1482.04 4.5995 -2.03605 0
M  V30 15961 H 1481.74 4.49141 -3.78875 0
M  V30 15962 H 1483.27 5.20634 -3.19018 0
M  V30 15963 H 1484.68 3.42398 -4.59822 0
M  V30 15964 H 1483.08 2.94554 -5.22836 0
M  V30 15965 H 1484.15 1.71297 -4.53636 0
M  V30 15966 N 1485.49 1.41566 0.692592 0
M  V30 15967 C 1486.74 1.42293 1.45342 0
M  V30 15968 C 1487.09 0.032316 1.92373 0
M  V30 15969 O 1486.38 -0.942367 1.66823 0
M  V30 15970 C 1486.58 2.36683 2.67799 0
M  V30 15971 C 1486.41 3.84784 2.32748 0
M  V30 15972 C 1485.18 4.53446 2.22967 0
M  V30 15973 C 1487.38 4.75681 1.95531 0
M  V30 15974 N 1485.36 5.86662 1.80833 0
M  V30 15975 C 1486.73 5.97868 1.64178 0
M  V30 15976 C 1488.78 4.633 1.82367 0
M  V30 15977 C 1487.49 7.09053 1.20983 0
M  V30 15978 C 1489.51 5.74449 1.40577 0
M  V30 15979 C 1488.87 6.95737 1.10137 0
M  V30 15980 H 1484.97 0.575898 0.529023 0
M  V30 15981 H 1487.56 1.77459 0.801013 0
M  V30 15982 H 1485.73 2.03606 3.30755 0
M  V30 15983 H 1487.46 2.28109 3.34288 0
M  V30 15984 H 1484.22 4.07423 2.4146 0
M  V30 15985 H 1484.64 6.57273 1.62239 0
M  V30 15986 H 1489.28 3.70024 2.04554 0
M  V30 15987 H 1487 8.02192 0.975411 0
M  V30 15988 H 1490.59 5.66875 1.30937 0
M  V30 15989 H 1489.47 7.80282 0.782888 0
M  V30 15990 N 1486.97 -0.927146 1.27443 0
M  V30 15991 C 1488.21 -1.67738 1.13982 0
M  V30 15992 C 1488.55 -1.91653 -0.313511 0
M  V30 15993 O 1487.82 -1.50729 -1.22926 0
M  V30 15994 C 1488.11 -3.04357 1.92454 0
M  V30 15995 C 1487.96 -2.8768 3.45775 0
M  V30 15996 C 1489.28 -4.04696 1.72944 0
M  V30 15997 H 1486.4 -0.608749 0.415444 0
M  V30 15998 H 1489.04 -1.07587 1.56605 0
M  V30 15999 H 1487.19 -3.55702 1.56232 0
M  V30 16000 H 1488.86 -2.43449 3.9183 0
M  V30 16001 H 1487.1 -2.23011 3.72087 0
M  V30 16002 H 1487.77 -3.8464 3.95924 0
M  V30 16003 H 1490.25 -3.62364 2.04528 0
M  V30 16004 H 1489.13 -4.98276 2.30243 0
M  V30 16005 H 1489.39 -4.36878 0.677505 0
M  V30 16006 N 1488.45 -1.09474 -1.13372 0
M  V30 16007 C 1489.39 -0.729274 -2.20872 0
M  V30 16008 C 1490.39 0.270036 -1.67234 0
M  V30 16009 O 1491.59 0.131445 -1.79519 0
M  V30 16010 H 1487.97 -0.217852 -0.719753 0
M  V30 16011 H 1489.94 -1.64505 -2.48959 0
M  V30 16012 C 1488.69 -0.166518 -3.47301 0
M  V30 16013 H 1488.01 -0.926666 -3.88913 0
M  V30 16014 H 1489.45 0.0512617 -4.23969 0
M  V30 16015 C 1487.91 1.09836 -3.18493 0
M  V30 16016 O 1488.44 2.18152 -3.37302 0
M  V30 16017 N 1486.65 1.01307 -2.7237 0
M  V30 16018 H 1486.19 0.131551 -2.57264 0
M  V30 16019 H 1486.15 1.86011 -2.5347 0
M  V30 16020 N 1489.92 1.30607 -0.882012 0
M  V30 16021 C 1490.85 2.30666 -0.362706 0
M  V30 16022 C 1491.84 1.60865 0.552861 0
M  V30 16023 O 1493.02 1.88493 0.467339 0
M  V30 16024 C 1490.15 3.44675 0.42622 0
M  V30 16025 C 1489.1 4.26152 -0.397322 0
M  V30 16026 C 1488.43 5.32185 0.518027 0
M  V30 16027 C 1489.73 4.95955 -1.63785 0
M  V30 16028 H 1491.42 2.74351 -1.19883 0
M  V30 16029 H 1488.97 1.31895 -0.577912 0
M  V30 16030 H 1490.92 4.13734 0.80013 0
M  V30 16031 H 1489.65 2.99787 1.29597 0
M  V30 16032 H 1488.31 3.58776 -0.753332 0
M  V30 16033 H 1487.95 4.83545 1.3854 0
M  V30 16034 H 1487.65 5.87593 -0.0291802 0
M  V30 16035 H 1489.18 6.04101 0.888518 0
M  V30 16036 H 1490.59 5.57547 -1.3347 0
M  V30 16037 H 1488.99 5.61215 -2.12504 0
M  V30 16038 H 1490.06 4.22252 -2.38394 0
M  V30 16039 N 1491.4 0.642663 1.43901 0
M  V30 16040 C 1492.65 0.152003 2.0223 0
M  V30 16041 C 1492.98 -1.22711 1.50518 0
M  V30 16042 O 1492.26 -1.817 0.693937 0
M  V30 16043 C 1492.54 0.151278 3.59782 0
M  V30 16044 C 1492.39 1.56356 4.2175 0
M  V30 16045 C 1493.71 -0.518016 4.37041 0
M  V30 16046 H 1490.83 0.0567094 0.734815 0
M  V30 16047 H 1493.47 0.821337 1.7133 0
M  V30 16048 H 1491.62 -0.418679 3.86237 0
M  V30 16049 H 1493.29 2.18329 4.06362 0
M  V30 16050 H 1491.54 2.11401 3.78803 0
M  V30 16051 H 1492.21 1.51499 5.30803 0
M  V30 16052 H 1494.68 -0.0331947 4.16087 0
M  V30 16053 H 1493.56 -0.487754 5.46729 0
M  V30 16054 H 1493.82 -1.59036 4.12504 0
M  V30 16055 N 1492.88 -1.52852 0.383918 0
M  V30 16056 C 1494.11 -2.05929 -0.200216 0
M  V30 16057 C 1494.52 -1.25606 -1.40956 0
M  V30 16058 O 1493.88 -0.301336 -1.79995 0
M  V30 16059 C 1493.93 -3.56887 -0.575655 0
M  V30 16060 O 1493.65 -4.34168 0.58564 0
M  V30 16061 C 1495.15 -4.2629 -1.21623 0
M  V30 16062 H 1492.37 -0.670261 -0.0314727 0
M  V30 16063 H 1494.92 -1.97032 0.547591 0
M  V30 16064 H 1493.07 -3.65875 -1.27336 0
M  V30 16065 H 1493.49 -5.23761 0.278267 0
M  V30 16066 H 1494.96 -5.33174 -1.42933 0
M  V30 16067 H 1495.44 -3.81163 -2.182 0
M  V30 16068 H 1496.04 -4.21605 -0.559435 0
M  V30 16069 N 1494.36 -0.113586 -1.5719 0
M  V30 16070 C 1495.64 0.588987 -1.86522 0
M  V30 16071 C 1496.02 1.85163 -1.01379 0
M  V30 16072 O 1495.36 2.28318 -0.0912188 0
M  V30 16073 C 1495.57 0.886633 -3.3755 0
M  V30 16074 C 1496.92 1.24206 -4.06027 0
M  V30 16075 O 1497.95 0.977068 -3.42537 0
M  V30 16076 O 1496.81 1.73914 -5.18089 0
M  V30 16077 H 1493.9 0.296637 -0.771968 0
M  V30 16078 H 1496.45 -0.147681 -1.69056 0
M  V30 16079 H 1495.22 -0.00835421 -3.91299 0
M  V30 16080 H 1494.84 1.67865 -3.60426 0
M  V30 16081 N 1495.84 1.56784 0.160173 0
M  V30 16082 C 1497.09 1.8226 0.873253 0
M  V30 16083 C 1497.41 0.692384 1.82294 0
M  V30 16084 O 1496.68 -0.286961 1.93787 0
M  V30 16085 H 1495.26 0.672371 0.325463 0
M  V30 16086 H 1497.92 1.94264 0.157325 0
M  V30 16087 H 1497.01 2.76714 1.44345 0
M  V30 16088 N 1497.32 -0.429099 1.51646 0
M  V30 16089 C 1498.25 -1.52867 1.76505 0
M  V30 16090 C 1499.23 -1.58586 0.615178 0
M  V30 16091 O 1500.41 -1.74182 0.858742 0
M  V30 16092 C 1497.54 -2.90875 1.8976 0
M  V30 16093 C 1496.5 -3.00014 3.05247 0
M  V30 16094 C 1495.82 -4.40082 3.03696 0
M  V30 16095 C 1497.12 -2.73334 4.45068 0
M  V30 16096 H 1498.82 -1.32315 2.68576 0
M  V30 16097 H 1496.36 -0.635091 1.29238 0
M  V30 16098 H 1498.31 -3.67765 2.05734 0
M  V30 16099 H 1497.04 -3.12677 0.943442 0
M  V30 16100 H 1495.7 -2.25565 2.88991 0
M  V30 16101 H 1495.35 -4.58864 2.06042 0
M  V30 16102 H 1495.05 -4.47125 3.81252 0
M  V30 16103 H 1496.57 -5.18935 3.21774 0
M  V30 16104 H 1497.98 -3.39954 4.61632 0
M  V30 16105 H 1496.38 -2.91777 5.24391 0
M  V30 16106 H 1497.45 -1.68889 4.54538 0
M  V30 16107 N 1498.79 -1.41931 -0.685074 0
M  V30 16108 C 1500.2 -1.37279 -1.26536 0
M  V30 16109 C 1500.56 -0.0610089 -1.96105 0
M  V30 16110 O 1499.68 0.840508 -1.9941 0
M  V30 16111 C 1500.28 -2.48658 -2.30119 0
M  V30 16112 C 1498.83 -2.47371 -2.83698 0
M  V30 16113 C 1497.98 -2.2797 -1.57876 0
M  V30 16114 H 1500.93 -1.51294 -0.479132 0
M  V30 16115 H 1500.95 -2.18319 -3.11636 0
M  V30 16116 H 1500.47 -3.44118 -1.79456 0
M  V30 16117 H 1498.57 -1.55699 -3.3851 0
M  V30 16118 H 1498.68 -3.44052 -3.33414 0
M  V30 16119 H 1497.04 -1.7604 -1.84071 0
M  V30 16120 H 1497.83 -3.25471 -1.09194 0
M  V30 16121 N 1500.27 0.920374 -1.27933 0
M  V30 16122 C 1501.23 2.0035 -1.11321 0
M  V30 16123 C 1502.23 1.60706 -0.0549132 0
M  V30 16124 O 1503.42 1.71595 -0.300134 0
M  V30 16125 C 1500.56 3.33681 -0.69782 0
M  V30 16126 H 1501.75 2.16518 -2.07509 0
M  V30 16127 H 1499.3 1.10216 -1.10825 0
M  V30 16128 H 1500.04 3.23214 0.265122 0
M  V30 16129 H 1499.82 3.63815 -1.46223 0
M  V30 16130 H 1501.31 4.13208 -0.604048 0
M  V30 16131 N 1501.75 1.10074 1.1279 0
M  V30 16132 C 1502.98 0.862906 1.88047 0
M  V30 16133 C 1503.39 -0.586346 1.79464 0
M  V30 16134 O 1502.75 -1.40402 1.16591 0
M  V30 16135 C 1502.8 1.29784 3.37399 0
M  V30 16136 O 1502.52 2.69026 3.4577 0
M  V30 16137 C 1504.02 1.09336 4.29605 0
M  V30 16138 H 1501.24 0.309981 0.595108 0
M  V30 16139 H 1503.79 1.46444 1.42738 0
M  V30 16140 H 1501.94 0.740056 3.80266 0
M  V30 16141 H 1502.36 2.87532 4.38663 0
M  V30 16142 H 1503.83 1.44687 5.327 0
M  V30 16143 H 1504.31 0.031679 4.39189 0
M  V30 16144 H 1504.91 1.63743 3.92516 0
M  V30 16145 N 1503.23 -1.30138 0.888926 0
M  V30 16146 C 1504.19 -2.26299 0.363504 0
M  V30 16147 C 1505.19 -1.52951 -0.496244 0
M  V30 16148 O 1506.38 -1.71548 -0.302834 0
M  V30 16149 C 1503.51 -3.37482 -0.481544 0
M  V30 16150 H 1504.71 -2.7429 1.21265 0
M  V30 16151 H 1502.26 -1.41395 0.666124 0
M  V30 16152 H 1502.99 -2.94814 -1.35112 0
M  V30 16153 H 1502.78 -3.9187 0.134344 0
M  V30 16154 H 1504.27 -4.09048 -0.840816 0
M  V30 16155 N 1504.71 -0.650285 -1.43559 0
M  V30 16156 C 1505.64 0.0295939 -2.33481 0
M  V30 16157 C 1506.62 0.815017 -1.49303 0
M  V30 16158 O 1507.8 0.77708 -1.77975 0
M  V30 16159 C 1504.93 0.998683 -3.32631 0
M  V30 16160 C 1503.89 0.323577 -4.26775 0
M  V30 16161 C 1503.21 1.40391 -5.1594 0
M  V30 16162 C 1504.51 -0.782197 -5.1641 0
M  V30 16163 H 1506.21 -0.721349 -2.9058 0
M  V30 16164 H 1503.75 -0.348339 -1.39723 0
M  V30 16165 H 1505.7 1.4832 -3.94435 0
M  V30 16166 H 1504.43 1.78075 -2.73782 0
M  V30 16167 H 1503.09 -0.140467 -3.66331 0
M  V30 16168 H 1502.74 2.17734 -4.53432 0
M  V30 16169 H 1502.44 0.957462 -5.79747 0
M  V30 16170 H 1503.96 1.88985 -5.80618 0
M  V30 16171 H 1505.37 -0.379966 -5.72039 0
M  V30 16172 H 1503.77 -1.15293 -5.88921 0
M  V30 16173 H 1504.84 -1.6414 -4.56274 0
M  V30 16174 N 1506.18 1.52647 -0.392018 0
M  V30 16175 C 1507.43 2.01215 0.188926 0
M  V30 16176 C 1507.75 1.28019 1.47092 0
M  V30 16177 O 1507.02 0.401048 1.91751 0
M  V30 16178 H 1505.6 0.743444 0.0728049 0
M  V30 16179 H 1508.26 1.87715 -0.524332 0
M  V30 16180 H 1507.36 3.09562 0.397216 0
M  V30 16181 N 1507.66 0.121921 1.57128 0
M  V30 16182 C 1508.91 -0.535371 1.95295 0
M  V30 16183 C 1509.24 -1.665 1.00539 0
M  V30 16184 O 1508.49 -1.95677 0.0298129 0
M  V30 16185 C 1508.79 -1.10579 3.39863 0
M  V30 16186 C 1508.46 -0.0972144 4.50795 0
M  V30 16187 C 1507.12 0.180111 4.80863 0
M  V30 16188 C 1509.47 0.589973 5.1785 0
M  V30 16189 C 1506.8 1.15086 5.75302 0
M  V30 16190 C 1509.15 1.54937 6.13333 0
M  V30 16191 C 1507.82 1.83465 6.41792 0
M  V30 16192 H 1507.09 -0.195906 0.714634 0
M  V30 16193 H 1509.73 0.203445 1.90416 0
M  V30 16194 H 1508.04 -1.92143 3.4145 0
M  V30 16195 H 1509.73 -1.62252 3.66709 0
M  V30 16196 H 1506.32 -0.32355 4.27377 0
M  V30 16197 H 1510.51 0.38889 4.94774 0
M  V30 16198 H 1505.76 1.3786 5.95655 0
M  V30 16199 H 1509.94 2.08751 6.64376 0
M  V30 16200 H 1507.57 2.58841 7.14777 0
M  V30 16201 N 1509.14 -1.56867 -0.151857 0
M  V30 16202 C 1510.09 -1.98842 -1.20685 0
M  V30 16203 C 1511.08 -0.88007 -1.44745 0
M  V30 16204 O 1512.29 -1.06524 -1.45095 0
M  V30 16205 H 1508.66 -0.632904 -0.406123 0
M  V30 16206 H 1510.63 -2.86737 -0.826095 0
M  V30 16207 C 1509.38 -2.38095 -2.53389 0
M  V30 16208 H 1508.71 -3.2293 -2.35703 0
M  V30 16209 H 1510.15 -2.71292 -3.25847 0
M  V30 16210 C 1508.61 -1.23175 -3.13575 0
M  V30 16211 O 1509.14 -0.529864 -3.9819 0
M  V30 16212 N 1507.34 -0.997255 -2.72953 0
M  V30 16213 H 1506.89 -1.56979 -2.04243 0
M  V30 16214 H 1506.85 -0.23022 -3.13556 0
M  V30 16215 N 1510.62 0.421051 -1.51871 0
M  V30 16216 C 1512.03 1.00033 -1.5764 0
M  V30 16217 C 1512.38 1.91875 -0.409665 0
M  V30 16218 O 1511.51 2.11201 0.471516 0
M  V30 16219 C 1512.1 1.82099 -2.85701 0
M  V30 16220 C 1510.66 2.35049 -2.93988 0
M  V30 16221 C 1509.81 1.14703 -2.52465 0
M  V30 16222 H 1512.76 0.201715 -1.57413 0
M  V30 16223 H 1512.78 2.67719 -2.70382 0
M  V30 16224 H 1512.29 1.15229 -3.706 0
M  V30 16225 H 1510.39 3.05327 -2.13556 0
M  V30 16226 H 1510.5 2.66731 -3.97984 0
M  V30 16227 H 1508.87 1.49736 -2.06037 0
M  V30 16228 H 1509.65 0.494171 -3.39725 0
M  V30 16229 N 1512.1 1.42293 0.677538 0
M  V30 16230 C 1513.51 1.37948 1.25806 0
M  V30 16231 C 1513.86 0.071408 1.9607 0
M  V30 16232 O 1512.98 -0.829921 1.99853 0
M  V30 16233 C 1513.58 2.49875 2.28797 0
M  V30 16234 C 1512.14 2.48872 2.82382 0
M  V30 16235 C 1511.28 2.28804 1.56665 0
M  V30 16236 H 1514.24 1.51546 0.471102 0
M  V30 16237 H 1514.26 2.19969 3.10474 0
M  V30 16238 H 1513.77 3.45065 1.77629 0
M  V30 16239 H 1511.87 1.57492 3.37679 0
M  V30 16240 H 1511.98 3.45816 3.31585 0
M  V30 16241 H 1510.35 1.77014 1.83135 0
M  V30 16242 H 1511.13 3.26046 1.07467 0
M  V30 16243 N 1513.57 -0.913576 1.28419 0
M  V30 16244 C 1514.48 -2.04922 1.14211 0
M  V30 16245 C 1515.5 -1.73865 0.0686424 0
M  V30 16246 O 1516.68 -1.99473 0.277968 0
M  V30 16247 C 1513.74 -3.37214 0.805445 0
M  V30 16248 C 1512.8 -3.81879 1.96129 0
M  V30 16249 C 1512.04 -5.07858 1.6406 0
M  V30 16250 O 1512.26 -5.67693 0.555032 0
M  V30 16251 O 1511.19 -5.4824 2.48428 0
M  V30 16252 H 1515.02 -2.19827 2.09547 0
M  V30 16253 H 1512.6 -1.03501 1.0774 0
M  V30 16254 H 1514.49 -4.16639 0.631648 0
M  V30 16255 H 1513.16 -3.23484 -0.118254 0
M  V30 16256 H 1512.07 -3.03281 2.19024 0
M  V30 16257 H 1513.4 -4.00173 2.8657 0
M  V30 16258 N 1515.05 -1.1067 -1.12204 0
M  V30 16259 C 1516 -0.726979 -2.161 0
M  V30 16260 C 1516.99 0.26505 -1.58702 0
M  V30 16261 O 1518.18 0.0734052 -1.76848 0
M  V30 16262 C 1515.31 -0.163062 -3.42913 0
M  V30 16263 C 1514.39 -1.18228 -4.07287 0
M  V30 16264 N 1514.78 -2.3738 -4.46637 0
M  V30 16265 C 1513.08 -1.02336 -4.34101 0
M  V30 16266 C 1513.78 -3.02318 -4.9697 0
M  V30 16267 N 1512.76 -2.29826 -4.92627 0
M  V30 16268 H 1516.56 -1.63396 -2.44293 0
M  V30 16269 H 1514.08 -0.984782 -1.29135 0
M  V30 16270 H 1516.07 0.127067 -4.16706 0
M  V30 16271 H 1514.73 0.738611 -3.16188 0
M  V30 16272 H 1515.74 -2.74889 -4.38926 0
M  V30 16273 H 1512.42 -0.177452 -4.17123 0
M  V30 16274 H 1513.81 -4.03685 -5.3711 0
M  V30 16275 N 1516.53 1.29665 -0.895815 0
M  V30 16276 C 1517.81 1.90601 -0.439394 0
M  V30 16277 C 1518.19 1.81341 1.08068 0
M  V30 16278 O 1517.54 1.23761 1.92082 0
M  V30 16279 C 1517.75 3.35832 -0.949622 0
M  V30 16280 C 1519.09 4.12873 -0.991015 0
M  V30 16281 O 1520.12 3.4472 -0.897025 0
M  V30 16282 O 1518.98 5.34656 -1.1316 0
M  V30 16283 H 1516.07 0.81569 -0.136304 0
M  V30 16284 H 1518.62 1.38157 -0.985426 0
M  V30 16285 H 1517.39 3.36708 -1.99357 0
M  V30 16286 H 1517.01 3.95747 -0.383376 0
M  V30 16287 N 1518.01 0.657889 1.43212 0
M  V30 16288 C 1519.25 0.173443 2.02057 0
M  V30 16289 C 1519.59 -1.21108 1.51811 0
M  V30 16290 O 1518.86 -1.80953 0.71317 0
M  V30 16291 C 1519.15 0.189429 3.59601 0
M  V30 16292 C 1519 1.6082 4.20068 0
M  V30 16293 C 1520.32 -0.471633 4.37566 0
M  V30 16294 H 1517.44 0.0644999 0.734172 0
M  V30 16295 H 1520.08 0.839462 1.7045 0
M  V30 16296 H 1518.23 -0.377689 3.8666 0
M  V30 16297 H 1519.9 2.22627 4.04024 0
M  V30 16298 H 1518.14 2.15407 3.7654 0
M  V30 16299 H 1518.81 1.5712 5.29167 0
M  V30 16300 H 1521.29 0.0109387 4.16099 0
M  V30 16301 H 1520.17 -0.429739 5.47215 0
M  V30 16302 H 1520.43 -1.54652 4.14168 0
M  V30 16303 N 1519.49 -1.52437 0.400108 0
M  V30 16304 C 1520.42 -2.23219 -0.474176 0
M  V30 16305 C 1521.4 -1.23699 -1.05533 0
M  V30 16306 O 1522.58 -1.52721 -1.10492 0
M  V30 16307 C 1519.71 -2.95381 -1.65734 0
M  V30 16308 C 1518.75 -4.09258 -1.20042 0
M  V30 16309 S 1519.59 -5.3522 -0.173016 0
M  V30 16310 C 1520.74 -6.10908 -1.36171 0
M  V30 16311 H 1520.98 -2.97029 0.126865 0
M  V30 16312 H 1518.51 -1.53295 0.184353 0
M  V30 16313 H 1520.47 -3.37564 -2.33583 0
M  V30 16314 H 1519.13 -2.21231 -2.2297 0
M  V30 16315 H 1518.32 -4.5889 -2.08413 0
M  V30 16316 H 1517.92 -3.69144 -0.600704 0
M  V30 16317 H 1520.22 -6.37735 -2.28691 0
M  V30 16318 H 1521.16 -7.02279 -0.906106 0
M  V30 16319 H 1521.57 -5.41838 -1.58342 0
M  V30 16320 N 1520.96 -0.130252 -1.57061 0
M  V30 16321 C 1521.91 0.815767 -2.15902 0
M  V30 16322 C 1522.88 1.2558 -1.08715 0
M  V30 16323 O 1524.07 1.33132 -1.36677 0
M  V30 16324 C 1521.21 2.0561 -2.77162 0
M  V30 16325 C 1520.32 1.6634 -3.98692 0
M  V30 16326 C 1519.45 2.85425 -4.48002 0
M  V30 16327 C 1518.49 2.42449 -5.62036 0
M  V30 16328 N 1517.63 3.54486 -6.0604 0
M  V30 16329 H 1522.47 0.307164 -2.96413 0
M  V30 16330 H 1520.01 0.139913 -1.46433 0
M  V30 16331 H 1521.97 2.78298 -3.10815 0
M  V30 16332 H 1520.6 2.5391 -1.99323 0
M  V30 16333 H 1519.65 0.834817 -3.71127 0
M  V30 16334 H 1520.96 1.30765 -4.81354 0
M  V30 16335 H 1520.11 3.66325 -4.83623 0
M  V30 16336 H 1518.85 3.24235 -3.64312 0
M  V30 16337 H 1517.86 1.59985 -5.26008 0
M  V30 16338 H 1519.08 2.04744 -6.475 0
M  V30 16339 H 1517.03 3.92948 -5.25289 0
M  V30 16340 H 1516.95 3.22871 -6.83586 0
M  V30 16341 H 1518.21 4.35792 -6.46302 0
M  V30 16342 N 1522.44 1.56945 0.143535 0
M  V30 16343 C 1523.68 1.85347 0.861738 0
M  V30 16344 C 1524.05 0.715009 1.7819 0
M  V30 16345 O 1525.25 0.880162 2.53981 0
M  V30 16346 C 1523.52 3.18937 1.61288 0
M  V30 16347 S 1525.08 3.68904 2.37603 0
M  V30 16348 H 1521.9 0.650015 0.2881 0
M  V30 16349 H 1524.5 1.95122 0.121527 0
M  V30 16350 H 1523.2 3.9976 0.928434 0
M  V30 16351 H 1522.73 3.12176 2.39394 0
M  V30 16352 H 1524.75 3.38445 3.62863 0
M  V30 16353 N 1523.92 -0.412991 1.52093 0
M  V30 16354 C 1524.87 -1.50294 1.75158 0
M  V30 16355 C 1525.84 -1.55119 0.593902 0
M  V30 16356 O 1527.02 -1.71751 0.831032 0
M  V30 16357 C 1524.16 -2.87781 1.90463 0
M  V30 16358 C 1523.28 -2.92295 3.181 0
M  V30 16359 C 1522.41 -4.21056 3.23859 0
M  V30 16360 C 1521.45 -4.1953 4.45714 0
M  V30 16361 N 1520.59 -5.39857 4.48886 0
M  V30 16362 H 1525.43 -1.29927 2.68185 0
M  V30 16363 H 1522.96 -0.630741 1.32891 0
M  V30 16364 H 1524.92 -3.67588 1.9732 0
M  V30 16365 H 1523.55 -3.06651 1.00822 0
M  V30 16366 H 1522.6 -2.05002 3.20434 0
M  V30 16367 H 1523.92 -2.87031 4.0794 0
M  V30 16368 H 1523.07 -5.09253 3.29767 0
M  V30 16369 H 1521.81 -4.2901 2.31952 0
M  V30 16370 H 1520.81 -3.29724 4.39957 0
M  V30 16371 H 1522.04 -4.1322 5.38912 0
M  V30 16372 H 1519.99 -5.48486 3.59861 0
M  V30 16373 H 1519.9 -5.36572 5.32566 0
M  V30 16374 H 1521.17 -6.30018 4.59018 0
M  V30 16375 N 1525.4 -1.4265 -0.669982 0
M  V30 16376 C 1526.81 -1.38614 -1.25072 0
M  V30 16377 C 1527.16 -0.0818051 -1.96029 0
M  V30 16378 O 1526.29 0.81931 -2.0029 0
M  V30 16379 C 1526.88 -2.51085 -2.27469 0
M  V30 16380 C 1525.44 -2.50366 -2.81059 0
M  V30 16381 C 1524.59 -2.29632 -1.5545 0
M  V30 16382 H 1527.54 -1.51794 -0.463058 0
M  V30 16383 H 1527.56 -2.21612 -3.09303 0
M  V30 16384 H 1527.07 -3.46002 -1.75796 0
M  V30 16385 H 1525.17 -1.5928 -3.36839 0
M  V30 16386 H 1525.29 -3.47569 -3.29746 0
M  V30 16387 H 1523.65 -1.77982 -1.82193 0
M  V30 16388 H 1524.43 -3.26611 -1.05736 0
M  V30 16389 N 1526.88 0.906753 -1.28902 0
M  V30 16390 C 1528.29 1.18635 -1.06761 0
M  V30 16391 C 1528.49 2.00643 0.185594 0
M  V30 16392 O 1527.55 2.3647 0.885324 0
M  V30 16393 C 1528.86 1.91414 -2.31907 0
M  V30 16394 C 1530.41 2.04269 -2.37156 0
M  V30 16395 C 1530.89 2.80458 -3.62088 0
M  V30 16396 N 1532.38 2.88016 -3.62769 0
M  V30 16397 C 1533.11 3.47485 -4.56116 0
M  V30 16398 N 1532.61 4.08178 -5.59788 0
M  V30 16399 N 1534.4 3.45092 -4.43698 0
M  V30 16400 H 1526.55 0.359413 -2.09337 0
M  V30 16401 H 1528.81 0.221688 -0.921715 0
M  V30 16402 H 1528.52 1.38587 -3.23244 0
M  V30 16403 H 1528.39 2.91929 -2.38867 0
M  V30 16404 H 1530.78 2.56275 -1.46312 0
M  V30 16405 H 1530.86 1.0291 -2.34186 0
M  V30 16406 H 1530.51 2.2913 -4.53279 0
M  V30 16407 H 1530.44 3.82147 -3.62314 0
M  V30 16408 H 1532.93 2.44902 -2.87805 0
M  V30 16409 H 1533.24 4.51557 -6.27149 0
M  V30 16410 H 1531.59 4.06661 -5.63606 0
M  V30 16411 H 1534.78 2.96891 -3.61903 0
M  V30 16412 H 1534.95 3.91145 -5.16633 0
M  V30 16413 N 1528.36 1.11264 1.11616 0
M  V30 16414 C 1529.31 0.738429 2.15711 0
M  V30 16415 C 1530.29 -0.25663 1.5884 0
M  V30 16416 O 1531.48 -0.0640255 1.76884 0
M  V30 16417 C 1528.61 0.181245 3.42821 0
M  V30 16418 C 1527.7 1.20386 4.06655 0
M  V30 16419 N 1528.09 2.39745 4.45372 0
M  V30 16420 C 1526.39 1.04637 4.33552 0
M  V30 16421 C 1527.09 3.04949 4.95359 0
M  V30 16422 N 1526.06 2.32435 4.91401 0
M  V30 16423 H 1529.86 1.6469 2.43423 0
M  V30 16424 H 1527.38 0.991616 1.28611 0
M  V30 16425 H 1529.38 -0.104966 4.16768 0
M  V30 16426 H 1528.04 -0.721832 3.16575 0
M  V30 16427 H 1529.05 2.77213 4.37462 0
M  V30 16428 H 1525.72 0.19957 4.17023 0
M  V30 16429 H 1527.11 4.06528 5.34962 0
M  V30 16430 N 1529.83 -1.29188 0.902679 0
M  V30 16431 C 1530.78 -2.27632 0.381088 0
M  V30 16432 C 1531.75 -1.57131 -0.538431 0
M  V30 16433 O 1532.94 -1.85096 -0.463027 0
M  V30 16434 C 1530.08 -3.42971 -0.382701 0
M  V30 16435 C 1529.19 -4.28249 0.568054 0
M  V30 16436 C 1528.32 -5.30772 -0.213082 0
M  V30 16437 C 1527.36 -6.07707 0.732004 0
M  V30 16438 N 1526.5 -7.02098 -0.0149139 0
M  V30 16439 H 1531.34 -2.71628 1.22566 0
M  V30 16440 H 1528.88 -1.33594 0.615724 0
M  V30 16441 H 1530.83 -4.08623 -0.841619 0
M  V30 16442 H 1529.46 -2.99997 -1.19171 0
M  V30 16443 H 1528.52 -3.62743 1.14549 0
M  V30 16444 H 1529.83 -4.81794 1.29136 0
M  V30 16445 H 1528.98 -6.02255 -0.733065 0
M  V30 16446 H 1527.72 -4.77966 -0.969504 0
M  V30 16447 H 1526.73 -5.35086 1.26346 0
M  V30 16448 H 1527.95 -6.62602 1.4878 0
M  V30 16449 H 1525.9 -6.51658 -0.753548 0
M  V30 16450 H 1525.81 -7.53214 0.648423 0
M  V30 16451 H 1527.08 -7.77796 -0.515062 0
M  V30 16452 N 1531.31 -0.665475 -1.42861 0
M  V30 16453 C 1532.26 0.030395 -2.3258 0
M  V30 16454 C 1533.25 0.800329 -1.49302 0
M  V30 16455 O 1534.46 0.709346 -1.65434 0
M  V30 16456 H 1530.83 0.0286201 -0.751455 0
M  V30 16457 H 1532.81 -0.743838 -2.8898 0
M  V30 16458 C 1531.55 0.974474 -3.33765 0
M  V30 16459 H 1530.88 0.391447 -3.97879 0
M  V30 16460 H 1532.32 1.43023 -3.99149 0
M  V30 16461 C 1530.78 2.0764 -2.65306 0
M  V30 16462 O 1531.31 3.16172 -2.47787 0
M  V30 16463 N 1529.51 1.84544 -2.24481 0
M  V30 16464 H 1529.06 0.962826 -2.3893 0
M  V30 16465 H 1529.02 2.58464 -1.79007 0
M  V30 16466 N 1532.79 1.52222 -0.408187 0
M  V30 16467 C 1534.07 1.94285 0.22641 0
M  V30 16468 C 1534.45 1.34501 1.62705 0
M  V30 16469 O 1533.79 0.52045 2.22494 0
M  V30 16470 C 1534 3.48217 0.233695 0
M  V30 16471 C 1535.35 4.22171 0.453504 0
M  V30 16472 O 1536.38 3.54821 0.313093 0
M  V30 16473 O 1535.24 5.416 0.730183 0
M  V30 16474 H 1532.33 0.814078 0.145625 0
M  V30 16475 H 1534.88 1.63232 -0.464062 0
M  V30 16476 H 1533.65 3.84111 -0.746644 0
M  V30 16477 H 1533.27 3.85629 0.968305 0
M  V30 16478 N 1534.27 0.138579 1.5699 0
M  V30 16479 C 1535.22 -0.821469 2.17611 0
M  V30 16480 C 1536.21 -1.26137 1.13074 0
M  V30 16481 O 1537.42 -1.23084 1.31341 0
M  V30 16482 H 1533.79 -0.283086 0.696682 0
M  V30 16483 H 1535.76 -0.285891 2.97027 0
M  V30 16484 C 1534.51 -2.05395 2.8055 0
M  V30 16485 H 1533.83 -1.72442 3.60699 0
M  V30 16486 H 1535.27 -2.70531 3.2648 0
M  V30 16487 C 1533.73 -2.85647 1.78626 0
M  V30 16488 O 1534.26 -3.81705 1.25156 0
M  V30 16489 N 1532.47 -2.50018 1.4812 0
M  V30 16490 H 1532.02 -1.71969 1.91793 0
M  V30 16491 H 1531.97 -3.04007 0.8017 0
M  V30 16492 N 1535.75 -1.57019 -0.13521 0
M  V30 16493 C 1536.68 -2.02182 -1.16811 0
M  V30 16494 C 1537.66 -0.9034 -1.44127 0
M  V30 16495 O 1538.84 -1.17202 -1.54846 0
M  V30 16496 C 1535.97 -2.41243 -2.49838 0
M  V30 16497 C 1534.93 -3.56379 -2.37018 0
M  V30 16498 C 1534.25 -3.8129 -3.74863 0
M  V30 16499 C 1535.55 -4.88653 -1.84432 0
M  V30 16500 H 1537.25 -2.8872 -0.792529 0
M  V30 16501 H 1534.79 -1.38901 -0.379788 0
M  V30 16502 H 1536.74 -2.7144 -3.22332 0
M  V30 16503 H 1535.47 -1.51656 -2.89254 0
M  V30 16504 H 1534.13 -3.26366 -1.66975 0
M  V30 16505 H 1533.78 -2.88934 -4.11735 0
M  V30 16506 H 1533.48 -4.58781 -3.67143 0
M  V30 16507 H 1535 -4.13924 -4.48887 0
M  V30 16508 H 1536.41 -5.17492 -2.46729 0
M  V30 16509 H 1534.81 -5.70032 -1.87574 0
M  V30 16510 H 1535.88 -4.78242 -0.800759 0
M  V30 16511 N 1537.22 0.404919 -1.52309 0
M  V30 16512 C 1538.47 1.14859 -1.65802 0
M  V30 16513 C 1538.79 1.91546 -0.396174 0
M  V30 16514 O 1539.99 2.68372 -0.410969 0
M  V30 16515 C 1538.45 2.09068 -2.92948 0
M  V30 16516 C 1538.06 1.37878 -4.26255 0
M  V30 16517 C 1539.8 2.83669 -3.15804 0
M  V30 16518 C 1537.71 2.30761 -5.44521 0
M  V30 16519 H 1536.64 0.432463 -0.61765 0
M  V30 16520 H 1539.29 0.412695 -1.78799 0
M  V30 16521 H 1537.67 2.86228 -2.7366 0
M  V30 16522 H 1538.84 0.660543 -4.56041 0
M  V30 16523 H 1537.16 0.753026 -4.09534 0
M  V30 16524 H 1539.76 3.53313 -4.0134 0
M  V30 16525 H 1540.1 3.46855 -2.30212 0
M  V30 16526 H 1540.63 2.13607 -3.35584 0
M  V30 16527 H 1537.37 1.72214 -6.32473 0
M  V30 16528 H 1536.89 3.00546 -5.19069 0
M  V30 16529 H 1538.57 2.91195 -5.77767 0
M  V30 16530 N 1538.7 1.43003 0.662408 0
M  V30 16531 C 1539.65 1.47701 1.79686 0
M  V30 16532 C 1540.64 0.351491 1.65713 0
M  V30 16533 O 1541.85 0.525071 1.72171 0
M  V30 16534 H 1538.23 0.46285 0.592684 0
M  V30 16535 H 1540.2 2.43245 1.72843 0
M  V30 16536 C 1538.95 1.40828 3.17904 0
M  V30 16537 H 1538.27 2.26736 3.29288 0
M  V30 16538 H 1539.71 1.48177 3.97265 0
M  V30 16539 C 1538.17 0.124659 3.36669 0
M  V30 16540 O 1538.7 -0.81769 3.9329 0
M  V30 16541 N 1536.9 0.0378063 2.90575 0
M  V30 16542 H 1536.45 0.805456 2.44684 0
M  V30 16543 H 1536.41 -0.820377 3.03508 0
M  V30 16544 N 1540.18 -0.899904 1.29381 0
M  V30 16545 C 1541.43 -1.64712 1.17109 0
M  V30 16546 C 1541.75 -1.93011 -0.277772 0
M  V30 16547 O 1541.02 -1.55604 -1.19013 0
M  V30 16548 H 1539.6 -0.610532 0.430418 0
M  V30 16549 H 1542.26 -1.07905 1.62304 0
M  V30 16550 H 1541.36 -2.60362 1.72098 0
M  V30 16551 N 1541.66 -1.11854 -1.11024 0
M  V30 16552 C 1542.59 -0.803129 -2.19253 0
M  V30 16553 C 1543.57 0.230417 -1.68532 0
M  V30 16554 O 1544.75 0.0929421 -1.93977 0
M  V30 16555 C 1541.88 -0.250265 -3.46397 0
M  V30 16556 C 1540.84 -1.21617 -4.10357 0
M  V30 16557 C 1540.16 -0.523821 -5.32128 0
M  V30 16558 C 1541.46 -2.56852 -4.54779 0
M  V30 16559 H 1543.16 -1.7081 -2.45895 0
M  V30 16560 H 1540.7 -0.822712 -1.18184 0
M  V30 16561 H 1542.66 -0.0173732 -4.21396 0
M  V30 16562 H 1541.38 0.690018 -3.19228 0
M  V30 16563 H 1540.04 -1.43477 -3.37357 0
M  V30 16564 H 1539.69 0.421408 -5.01232 0
M  V30 16565 H 1539.39 -1.16809 -5.75873 0
M  V30 16566 H 1540.91 -0.299823 -6.09863 0
M  V30 16567 H 1542.33 -2.39056 -5.21081 0
M  V30 16568 H 1540.72 -3.17301 -5.09353 0
M  V30 16569 H 1541.79 -3.15751 -3.68007 0
M  V30 16570 N 1543.14 1.28707 -0.909517 0
M  V30 16571 C 1544.36 1.99283 -0.556211 0
M  V30 16572 C 1544.78 1.68 0.861475 0
M  V30 16573 O 1544.14 0.930421 1.57001 0
M  V30 16574 C 1544.19 3.5362 -0.75068 0
M  V30 16575 O 1543.91 3.83799 -2.11258 0
M  V30 16576 C 1545.41 4.41459 -0.403637 0
M  V30 16577 H 1542.63 0.636476 -0.212462 0
M  V30 16578 H 1545.17 1.64007 -1.22156 0
M  V30 16579 H 1543.33 3.87174 -0.132384 0
M  V30 16580 H 1543.74 4.78448 -2.14913 0
M  V30 16581 H 1545.22 5.48833 -0.590496 0
M  V30 16582 H 1545.69 4.34214 0.659897 0
M  V30 16583 H 1546.3 4.13394 -0.999292 0
M  V30 16584 N 1544.61 0.673042 1.42506 0
M  V30 16585 C 1545.54 0.00755467 2.33499 0
M  V30 16586 C 1546.53 -0.791161 1.50581 0
M  V30 16587 O 1547.71 -0.748668 1.79189 0
M  V30 16588 C 1544.84 -0.945638 3.34178 0
M  V30 16589 C 1543.79 -0.25564 4.27236 0
M  V30 16590 C 1543.12 -1.32165 5.18109 0
M  V30 16591 C 1544.42 0.864254 5.151 0
M  V30 16592 H 1546.11 0.767487 2.89396 0
M  V30 16593 H 1543.66 0.370524 1.39151 0
M  V30 16594 H 1545.61 -1.42026 3.96745 0
M  V30 16595 H 1544.34 -1.73697 2.76581 0
M  V30 16596 H 1543 0.19873 3.66061 0
M  V30 16597 H 1542.64 -2.10492 4.56839 0
M  V30 16598 H 1542.34 -0.865109 5.81197 0
M  V30 16599 H 1543.87 -1.79724 5.83551 0
M  V30 16600 H 1545.28 0.470924 5.71363 0
M  V30 16601 H 1543.68 1.24648 5.87012 0
M  V30 16602 H 1544.75 1.71378 4.53605 0
M  V30 16603 N 1546.09 -1.52004 0.416254 0
M  V30 16604 C 1547.02 -2.30106 -0.396671 0
M  V30 16605 C 1548 -1.34616 -1.03983 0
M  V30 16606 O 1549.19 -1.63528 -1.04749 0
M  V30 16607 C 1546.32 -3.12769 -1.50972 0
M  V30 16608 C 1545.27 -4.16365 -0.99119 0
M  V30 16609 C 1544.6 -4.87417 -2.19838 0
M  V30 16610 C 1545.9 -5.22284 -0.0402599 0
M  V30 16611 H 1547.59 -2.98312 0.255054 0
M  V30 16612 H 1545.14 -1.43464 0.124106 0
M  V30 16613 H 1547.09 -3.66178 -2.08547 0
M  V30 16614 H 1545.82 -2.42346 -2.18943 0
M  V30 16615 H 1544.47 -3.63976 -0.437803 0
M  V30 16616 H 1544.12 -4.13516 -2.8638 0
M  V30 16617 H 1543.82 -5.57454 -1.85792 0
M  V30 16618 H 1545.35 -5.43641 -2.78006 0
M  V30 16619 H 1546.76 -5.70891 -0.525027 0
M  V30 16620 H 1545.16 -5.99726 0.211742 0
M  V30 16621 H 1546.23 -4.7642 0.902877 0
M  V30 16622 N 1547.57 -0.146903 -1.56914 0
M  V30 16623 C 1548.99 0.20951 -1.58219 0
M  V30 16624 C 1549.19 1.64679 -1.16116 0
M  V30 16625 O 1548.24 2.37352 -0.861414 0
M  V30 16626 C 1549.56 -0.0491564 -3.0066 0
M  V30 16627 C 1551.1 0.0145605 -3.12997 0
M  V30 16628 C 1551.58 -0.216773 -4.57487 0
M  V30 16629 N 1553.07 -0.163698 -4.62911 0
M  V30 16630 C 1553.8 -0.317204 -5.72522 0
M  V30 16631 N 1553.3 -0.528426 -6.90782 0
M  V30 16632 N 1555.09 -0.254814 -5.61522 0
M  V30 16633 H 1547.24 -1.08536 -1.82575 0
M  V30 16634 H 1549.51 -0.42963 -0.845057 0
M  V30 16635 H 1549.21 -1.04387 -3.35851 0
M  V30 16636 H 1549.09 0.670296 -3.71197 0
M  V30 16637 H 1551.47 0.999829 -2.77646 0
M  V30 16638 H 1551.56 -0.737219 -2.44946 0
M  V30 16639 H 1551.2 -1.19914 -4.93541 0
M  V30 16640 H 1551.13 0.555329 -5.23664 0
M  V30 16641 H 1553.62 -0.00509433 -3.779 0
M  V30 16642 H 1553.93 -0.635667 -7.70181 0
M  V30 16643 H 1552.28 -0.564746 -6.92702 0
M  V30 16644 H 1555.47 -0.0905626 -4.68012 0
M  V30 16645 H 1555.64 -0.377881 -6.46897 0
M  V30 16646 N 1549.05 1.57088 0.126881 0
M  V30 16647 C 1550.28 1.8834 0.849211 0
M  V30 16648 C 1550.69 0.735386 1.74324 0
M  V30 16649 O 1550.03 -0.30318 1.81181 0
M  V30 16650 C 1550.09 3.14522 1.74116 0
M  V30 16651 C 1549.76 4.4542 1.02225 0
M  V30 16652 C 1550.75 5.18605 0.366722 0
M  V30 16653 C 1548.44 4.92128 1.00577 0
M  V30 16654 C 1550.43 6.36714 -0.295675 0
M  V30 16655 C 1548.12 6.10156 0.33957 0
M  V30 16656 C 1549.12 6.82296 -0.310005 0
M  V30 16657 O 1548.8 7.9808 -0.965594 0
M  V30 16658 H 1548.54 0.628129 0.24986 0
M  V30 16659 H 1551.09 2.05059 0.118236 0
M  V30 16660 H 1549.32 2.93864 2.51358 0
M  V30 16661 H 1551.01 3.31857 2.33722 0
M  V30 16662 H 1551.78 4.83578 0.371126 0
M  V30 16663 H 1547.65 4.35887 1.5008 0
M  V30 16664 H 1551.2 6.9296 -0.803275 0
M  V30 16665 H 1547.1 6.44641 0.332902 0
M  V30 16666 H 1547.86 8.13871 -0.869277 0
M  V30 16667 N 1550.53 -0.396836 1.52522 0
M  V30 16668 C 1551.78 -1.13978 1.66409 0
M  V30 16669 C 1552.09 -1.91333 0.406326 0
M  V30 16670 O 1553.29 -2.6815 0.425195 0
M  V30 16671 C 1551.75 -2.07512 2.94052 0
M  V30 16672 C 1551.36 -1.35616 4.2698 0
M  V30 16673 C 1553.1 -2.8199 3.17304 0
M  V30 16674 C 1551.01 -2.2787 5.45737 0
M  V30 16675 H 1549.94 -0.429181 0.619935 0
M  V30 16676 H 1552.59 -0.403207 1.79015 0
M  V30 16677 H 1550.97 -2.84773 2.75174 0
M  V30 16678 H 1552.15 -0.636349 4.56385 0
M  V30 16679 H 1550.46 -0.731297 4.09928 0
M  V30 16680 H 1553.06 -3.5118 4.03208 0
M  V30 16681 H 1553.4 -3.45629 2.32048 0
M  V30 16682 H 1553.93 -2.11824 3.36712 0
M  V30 16683 H 1550.67 -1.68858 6.33378 0
M  V30 16684 H 1550.19 -2.97789 5.20655 0
M  V30 16685 H 1551.87 -2.88126 5.79303 0
M  V30 16686 N 1552.01 -1.43353 -0.654814 0
M  V30 16687 C 1553.25 -1.44172 -1.41058 0
M  V30 16688 C 1553.57 -0.0690586 -1.95478 0
M  V30 16689 O 1554.77 0.0453021 -2.71462 0
M  V30 16690 C 1553.23 -2.53701 -2.55272 0
M  V30 16691 C 1552.84 -3.97066 -2.07466 0
M  V30 16692 C 1554.58 -2.63713 -3.3265 0
M  V30 16693 C 1552.49 -4.98065 -3.18881 0
M  V30 16694 H 1551.42 -0.536303 -0.529995 0
M  V30 16695 H 1554.07 -1.69336 -0.706941 0
M  V30 16696 H 1552.45 -2.21736 -3.28099 0
M  V30 16697 H 1553.63 -4.38485 -1.4166 0
M  V30 16698 H 1551.94 -3.91086 -1.42972 0
M  V30 16699 H 1554.54 -3.36346 -4.15663 0
M  V30 16700 H 1554.88 -1.68729 -3.80574 0
M  V30 16701 H 1555.41 -2.94971 -2.66902 0
M  V30 16702 H 1552.15 -5.94596 -2.75927 0
M  V30 16703 H 1551.67 -4.61261 -3.83404 0
M  V30 16704 H 1553.35 -5.20696 -3.84037 0
M  V30 16705 N 1553.48 0.89303 -1.29857 0
M  V30 16706 C 1554.73 1.63881 -1.17583 0
M  V30 16707 C 1555.05 1.93723 0.270293 0
M  V30 16708 O 1556.25 2.66582 0.514432 0
M  V30 16709 C 1554.71 2.95327 -2.05694 0
M  V30 16710 C 1554.32 2.73055 -3.55169 0
M  V30 16711 C 1556.06 3.7327 -2.02162 0
M  V30 16712 C 1553.97 4.00268 -4.35361 0
M  V30 16713 H 1552.9 0.614815 -0.436485 0
M  V30 16714 H 1555.55 0.989339 -1.54546 0
M  V30 16715 H 1553.93 3.61523 -1.61607 0
M  V30 16716 H 1555.1 2.1541 -4.07351 0
M  V30 16717 H 1553.42 2.08498 -3.6044 0
M  V30 16718 H 1556.02 4.67601 -2.59333 0
M  V30 16719 H 1556.36 4.04032 -1.00318 0
M  V30 16720 H 1556.89 3.13925 -2.44328 0
M  V30 16721 H 1553.63 3.74669 -5.37869 0
M  V30 16722 H 1553.15 4.57448 -3.87945 0
M  V30 16723 H 1554.83 4.68358 -4.46374 0
M  V30 16724 N 1554.96 1.12442 1.10429 0
M  V30 16725 C 1556.21 0.878021 1.82031 0
M  V30 16726 C 1556.53 -0.597787 1.85611 0
M  V30 16727 O 1555.8 -1.43442 1.33422 0
M  V30 16728 H 1554.38 0.321839 0.674113 0
M  V30 16729 H 1557.04 1.41891 1.33615 0
M  V30 16730 H 1556.14 1.25957 2.85554 0
M  V30 16731 N 1556.44 -1.28223 0.91633 0
M  V30 16732 C 1557.67 -1.98986 0.566772 0
M  V30 16733 C 1558.08 -1.68455 -0.852553 0
M  V30 16734 O 1557.44 -0.938734 -1.56506 0
M  V30 16735 C 1557.49 -3.53217 0.769423 0
M  V30 16736 O 1557.21 -3.82674 2.1329 0
M  V30 16737 C 1558.71 -4.41238 0.427043 0
M  V30 16738 H 1555.93 -0.63534 0.215834 0
M  V30 16739 H 1558.48 -1.63357 1.23024 0
M  V30 16740 H 1556.63 -3.87098 0.152915 0
M  V30 16741 H 1557.05 -4.77302 2.17448 0
M  V30 16742 H 1558.52 -5.48512 0.619594 0
M  V30 16743 H 1559 -4.34558 -0.63686 0
M  V30 16744 H 1559.6 -4.12858 1.0212 0
M  V30 16745 N 1557.92 -0.68059 -1.42147 0
M  V30 16746 C 1559.15 -0.213529 -2.05494 0
M  V30 16747 C 1559.56 1.13665 -1.51251 0
M  V30 16748 O 1558.9 1.71838 -0.649422 0
M  V30 16749 C 1558.96 -0.0774256 -3.59417 0
M  V30 16750 C 1558.62 -1.35724 -4.3638 0
M  V30 16751 C 1559.62 -2.29195 -4.66654 0
M  V30 16752 C 1557.31 -1.60645 -4.75918 0
M  V30 16753 C 1559.3 -3.45858 -5.35407 0
M  V30 16754 C 1556.99 -2.77597 -5.44411 0
M  V30 16755 C 1557.99 -3.70027 -5.74081 0
M  V30 16756 O 1557.67 -4.84933 -6.41167 0
M  V30 16757 H 1557.41 -0.100043 -0.668556 0
M  V30 16758 H 1559.96 -0.929384 -1.83171 0
M  V30 16759 H 1558.19 0.694062 -3.8042 0
M  V30 16760 H 1559.88 0.350509 -4.04384 0
M  V30 16761 H 1560.64 -2.11194 -4.36603 0
M  V30 16762 H 1556.52 -0.8957 -4.52215 0
M  V30 16763 H 1560.07 -4.18023 -5.58483 0
M  V30 16764 H 1555.96 -2.95521 -5.73879 0
M  V30 16765 H 1556.73 -4.84552 -6.5966 0
M  V30 16766 N 1559.4 1.51781 -0.424309 0
M  V30 16767 C 1560.64 2.02269 0.146709 0
M  V30 16768 C 1560.97 1.30859 1.4349 0
M  V30 16769 O 1560.25 0.419504 1.89922 0
M  V30 16770 C 1560.53 3.58101 0.378861 0
M  V30 16771 C 1560.39 4.40143 -0.92707 0
M  V30 16772 C 1561.7 4.2469 1.15438 0
M  V30 16773 H 1558.82 0.735174 0.0518456 0
M  V30 16774 H 1561.47 1.81537 -0.560753 0
M  V30 16775 H 1559.62 3.75897 0.981496 0
M  V30 16776 H 1561.29 4.34025 -1.56268 0
M  V30 16777 H 1559.53 4.05748 -1.53464 0
M  V30 16778 H 1560.2 5.47299 -0.718837 0
M  V30 16779 H 1562.68 4.11086 0.644041 0
M  V30 16780 H 1561.55 5.33633 1.28557 0
M  V30 16781 H 1561.81 3.84668 2.17905 0
M  V30 16782 N 1560.87 0.155222 1.56834 0
M  V30 16783 C 1562.12 -0.49285 1.95998 0
M  V30 16784 C 1562.44 -1.64857 1.0415 0
M  V30 16785 O 1561.71 -1.9562 0.104654 0
M  V30 16786 H 1560.29 -0.185063 0.723713 0
M  V30 16787 H 1562.95 0.232644 1.93507 0
M  V30 16788 H 1562.05 -0.863552 2.99915 0
M  V30 16789 N 1562.35 -1.57153 -0.118549 0
M  V30 16790 C 1563.6 -1.84064 -0.824832 0
M  V30 16791 C 1563.91 -0.740941 -1.81023 0
M  V30 16792 O 1565.12 -0.896464 -2.56273 0
M  V30 16793 C 1563.58 -3.26338 -1.51761 0
M  V30 16794 C 1563.18 -4.44318 -0.573174 0
M  V30 16795 C 1564.93 -3.62496 -2.209 0
M  V30 16796 C 1562.83 -5.7762 -1.2692 0
M  V30 16797 H 1561.76 -0.686521 -0.311777 0
M  V30 16798 H 1564.42 -1.83336 -0.0775833 0
M  V30 16799 H 1562.8 -3.21537 -2.3115 0
M  V30 16800 H 1563.97 -4.60418 0.187529 0
M  V30 16801 H 1562.29 -4.16398 0.0112747 0
M  V30 16802 H 1564.88 -4.5936 -2.73666 0
M  V30 16803 H 1565.23 -2.89952 -2.9872 0
M  V30 16804 H 1565.76 -3.69084 -1.48399 0
M  V30 16805 H 1562.5 -6.53335 -0.532285 0
M  V30 16806 H 1562.02 -5.65406 -2.00191 0
M  V30 16807 H 1563.7 -6.21391 -1.80227 0
M  V30 16808 N 1563.83 0.388742 -1.5273 0
M  V30 16809 C 1564.79 1.45759 -1.76881 0
M  V30 16810 C 1565.79 1.47565 -0.63884 0
M  V30 16811 O 1566.98 1.48731 -0.906895 0
M  V30 16812 C 1564.11 2.85045 -1.86981 0
M  V30 16813 H 1565.31 1.25629 -2.72319 0
M  V30 16814 H 1562.86 0.620497 -1.43456 0
M  V30 16815 H 1563.6 3.1052 -0.935296 0
M  V30 16816 H 1563.38 2.85136 -2.69147 0
M  V30 16817 H 1564.87 3.62492 -2.07338 0
M  V30 16818 N 1565.31 1.43698 0.647203 0
M  V30 16819 C 1566.54 1.49085 1.43462 0
M  V30 16820 C 1566.95 0.110605 1.88476 0
M  V30 16821 O 1566.31 -0.880365 1.59862 0
M  V30 16822 C 1566.36 2.44186 2.66562 0
M  V30 16823 O 1566.08 3.76844 2.23429 0
M  V30 16824 C 1567.58 2.58876 3.59858 0
M  V30 16825 H 1564.8 0.506148 0.440517 0
M  V30 16826 H 1567.34 1.88502 0.792931 0
M  V30 16827 H 1565.5 2.07949 3.26858 0
M  V30 16828 H 1565.91 4.2804 3.0312 0
M  V30 16829 H 1567.39 3.29482 4.42883 0
M  V30 16830 H 1567.86 1.63567 4.07606 0
M  V30 16831 H 1568.47 2.95949 3.05441 0
M  V30 16832 N 1566.79 -0.886131 1.30328 0
M  V30 16833 C 1568.03 -1.64026 1.19261 0
M  V30 16834 C 1568.37 -1.92553 -0.252379 0
M  V30 16835 O 1567.64 -1.54564 -1.18069 0
M  V30 16836 C 1567.92 -2.9808 2.0204 0
M  V30 16837 C 1567.78 -2.76534 3.54752 0
M  V30 16838 C 1569.1 -3.98989 1.85731 0
M  V30 16839 H 1566.21 -0.595224 0.4346 0
M  V30 16840 H 1568.86 -1.0255 1.59949 0
M  V30 16841 H 1567.01 -3.50552 1.67469 0
M  V30 16842 H 1568.68 -2.3086 3.99376 0
M  V30 16843 H 1566.92 -2.1106 3.78993 0
M  V30 16844 H 1567.59 -3.71849 4.07961 0
M  V30 16845 H 1570.07 -3.55673 2.15953 0
M  V30 16846 H 1568.94 -4.90699 2.45979 0
M  V30 16847 H 1569.21 -4.34501 0.816152 0
M  V30 16848 N 1568.26 -1.13026 -1.09832 0
M  V30 16849 C 1569.49 -0.912803 -1.86233 0
M  V30 16850 C 1569.91 0.532955 -1.80392 0
M  V30 16851 O 1569.27 1.37783 -1.17837 0
M  V30 16852 C 1569.32 -1.40002 -3.32313 0
M  V30 16853 O 1568.42 -0.582537 -4.08265 0
M  V30 16854 H 1567.77 -0.327464 -0.577636 0
M  V30 16855 H 1570.3 -1.5039 -1.38723 0
M  V30 16856 H 1570.31 -1.40182 -3.83162 0
M  V30 16857 H 1568.98 -2.4527 -3.3588 0
M  V30 16858 H 1567.56 -0.648255 -3.67222 0
M  V30 16859 N 1569.74 1.27735 -0.923117 0
M  V30 16860 C 1570.99 1.93857 -0.556994 0
M  V30 16861 C 1571.3 1.73386 0.905346 0
M  V30 16862 O 1572.51 2.3381 1.38005 0
M  V30 16863 C 1570.97 3.47263 -0.94534 0
M  V30 16864 C 1570.57 3.76497 -2.42805 0
M  V30 16865 C 1572.32 4.1949 -0.65025 0
M  V30 16866 C 1570.23 5.23256 -2.75603 0
M  V30 16867 H 1569.16 0.725712 -0.204591 0
M  V30 16868 H 1571.81 1.451 -1.12331 0
M  V30 16869 H 1570.19 3.94803 -0.307721 0
M  V30 16870 H 1571.36 3.39731 -3.11319 0
M  V30 16871 H 1569.68 3.17463 -2.69456 0
M  V30 16872 H 1572.27 5.27544 -0.871851 0
M  V30 16873 H 1572.62 4.14253 0.412352 0
M  V30 16874 H 1573.15 3.77758 -1.24676 0
M  V30 16875 H 1569.89 5.33579 -3.80754 0
M  V30 16876 H 1569.41 5.61185 -2.11735 0
M  V30 16877 H 1571.09 5.91088 -2.63103 0
M  V30 16878 N 1571.22 0.688118 1.41784 0
M  V30 16879 C 1572.47 0.215944 2.01345 0
M  V30 16880 C 1572.8 -1.18197 1.54466 0
M  V30 16881 O 1572.05 -1.81032 0.743374 0
M  V30 16882 C 1572.35 0.213747 3.5676 0
M  V30 16883 C 1572.02 1.55816 4.23122 0
M  V30 16884 C 1570.68 1.92623 4.40964 0
M  V30 16885 C 1573.03 2.44297 4.604 0
M  V30 16886 C 1570.36 3.17511 4.93359 0
M  V30 16887 C 1572.71 3.68511 5.14182 0
M  V30 16888 C 1571.37 4.0547 5.30236 0
M  V30 16889 H 1570.64 0.0790193 0.736775 0
M  V30 16890 H 1573.29 0.885737 1.69785 0
M  V30 16891 H 1571.6 -0.539583 3.88067 0
M  V30 16892 H 1573.29 -0.169004 4.00644 0
M  V30 16893 H 1569.88 1.26186 4.09604 0
M  V30 16894 H 1574.07 2.17143 4.46277 0
M  V30 16895 H 1569.32 3.46151 5.03973 0
M  V30 16896 H 1573.5 4.37264 5.42008 0
M  V30 16897 H 1571.12 5.02316 5.70598 0
M  V30 16898 N 1572.7 -1.51554 0.432352 0
M  V30 16899 C 1573.94 -2.02344 -0.13598 0
M  V30 16900 C 1574.28 -1.31619 -1.42794 0
M  V30 16901 O 1573.55 -0.42957 -1.89697 0
M  V30 16902 C 1573.84 -3.58297 -0.359865 0
M  V30 16903 C 1573.69 -4.39645 0.950399 0
M  V30 16904 C 1575.01 -4.25297 -1.13184 0
M  V30 16905 H 1572.13 -0.735439 -0.0479461 0
M  V30 16906 H 1574.77 -1.81237 0.570373 0
M  V30 16907 H 1572.92 -3.76413 -0.961547 0
M  V30 16908 H 1574.59 -4.3319 1.58568 0
M  V30 16909 H 1572.83 -4.04928 1.55614 0
M  V30 16910 H 1573.5 -5.46911 0.747852 0
M  V30 16911 H 1575.98 -4.11421 -0.622231 0
M  V30 16912 H 1574.86 -5.34307 -1.25726 0
M  V30 16913 H 1575.12 -3.85818 -2.15862 0
M  V30 16914 N 1574.18 -0.163538 -1.56749 0
M  V30 16915 C 1575.41 0.489178 -2.00725 0
M  V30 16916 C 1575.81 1.57869 -1.04279 0
M  V30 16917 O 1575.16 1.83668 -0.0344434 0
M  V30 16918 C 1575.22 1.13443 -3.41132 0
M  V30 16919 C 1574.88 0.187525 -4.56615 0
M  V30 16920 C 1575.88 -0.591169 -5.16528 0
M  V30 16921 C 1573.57 0.0856149 -5.02227 0
M  V30 16922 C 1575.56 -1.45905 -6.20476 0
M  V30 16923 C 1573.25 -0.785859 -6.06026 0
M  V30 16924 C 1574.24 -1.55678 -6.65021 0
M  V30 16925 O 1573.93 -2.41371 -7.66809 0
M  V30 16926 H 1573.66 0.130353 -0.663313 0
M  V30 16927 H 1576.22 -0.260065 -2.03747 0
M  V30 16928 H 1574.45 1.93165 -3.34999 0
M  V30 16929 H 1576.14 1.68856 -3.69111 0
M  V30 16930 H 1576.9 -0.522563 -4.82177 0
M  V30 16931 H 1572.78 0.675439 -4.56025 0
M  V30 16932 H 1576.33 -2.06125 -6.66452 0
M  V30 16933 H 1572.22 -0.855696 -6.39803 0
M  V30 16934 H 1572.99 -2.34801 -7.84099 0
M  V30 16935 N 1575.65 1.57214 0.110213 0
M  V30 16936 C 1576.9 1.86462 0.812616 0
M  V30 16937 C 1577.26 0.752442 1.77076 0
M  V30 16938 O 1576.55 -0.246845 1.90003 0
M  V30 16939 C 1576.74 3.19933 1.59304 0
M  V30 16940 C 1576.57 4.44028 0.711966 0
M  V30 16941 C 1575.34 5.03991 0.363447 0
M  V30 16942 C 1577.54 5.14294 0.0256587 0
M  V30 16943 N 1575.52 6.11631 -0.52737 0
M  V30 16944 C 1576.89 6.1576 -0.723813 0
M  V30 16945 C 1578.95 4.97875 -0.0498436 0
M  V30 16946 C 1577.65 7.02584 -1.54171 0
M  V30 16947 C 1579.68 5.85193 -0.854592 0
M  V30 16948 C 1579.04 6.86169 -1.59223 0
M  V30 16949 H 1575.14 0.732424 0.274006 0
M  V30 16950 H 1577.72 1.94552 0.0758925 0
M  V30 16951 H 1575.89 3.12923 2.30074 0
M  V30 16952 H 1577.62 3.36958 2.24146 0
M  V30 16953 H 1574.38 4.68283 0.707688 0
M  V30 16954 H 1574.8 6.70089 -0.964887 0
M  V30 16955 H 1579.45 4.1976 0.506097 0
M  V30 16956 H 1577.16 7.801 -2.10877 0
M  V30 16957 H 1580.75 5.74552 -0.915487 0
M  V30 16958 H 1579.63 7.52564 -2.20492 0
M  V30 16959 N 1577.13 -0.380637 1.52934 0
M  V30 16960 C 1578.38 -1.12483 1.68386 0
M  V30 16961 C 1578.71 -1.89733 0.427993 0
M  V30 16962 O 1577.96 -1.86601 -0.589795 0
M  V30 16963 C 1578.26 -2.1227 2.87535 0
M  V30 16964 C 1577.93 -1.51615 4.24645 0
M  V30 16965 C 1576.59 -1.348 4.61933 0
M  V30 16966 C 1578.94 -1.07595 5.09973 0
M  V30 16967 C 1576.27 -0.725254 5.822 0
M  V30 16968 C 1578.62 -0.467273 6.30872 0
M  V30 16969 C 1577.29 -0.286488 6.66885 0
M  V30 16970 H 1576.56 -0.411606 0.616167 0
M  V30 16971 H 1579.2 -0.408435 1.87094 0
M  V30 16972 H 1577.51 -2.90159 2.63277 0
M  V30 16973 H 1579.2 -2.69777 2.96684 0
M  V30 16974 H 1575.79 -1.65693 3.95277 0
M  V30 16975 H 1579.98 -1.19385 4.81727 0
M  V30 16976 H 1575.23 -0.573461 6.08705 0
M  V30 16977 H 1579.41 -0.117914 6.963 0
M  V30 16978 H 1577.04 0.198141 7.59942 0
M  V30 16979 N 1578.61 -1.44039 -0.639573 0
M  V30 16980 C 1579.54 -1.53073 -1.76327 0
M  V30 16981 C 1580.52 -0.384344 -1.65701 0
M  V30 16982 O 1581.71 -0.603362 -1.84589 0
M  V30 16983 C 1578.84 -1.46646 -3.14821 0
M  V30 16984 C 1577.79 -2.59673 -3.40226 0
M  V30 16985 C 1577.12 -2.38298 -4.78663 0
M  V30 16986 C 1578.42 -4.01864 -3.33621 0
M  V30 16987 H 1580.11 -2.47126 -1.69023 0
M  V30 16988 H 1577.66 -1.1894 -0.811749 0
M  V30 16989 H 1579.61 -1.51567 -3.93199 0
M  V30 16990 H 1578.33 -0.491035 -3.22888 0
M  V30 16991 H 1576.99 -2.54127 -2.64225 0
M  V30 16992 H 1576.64 -1.38968 -4.83422 0
M  V30 16993 H 1576.34 -3.14074 -4.9662 0
M  V30 16994 H 1577.86 -2.45025 -5.59281 0
M  V30 16995 H 1579.28 -4.08824 -4.01915 0
M  V30 16996 H 1577.68 -4.77775 -3.63113 0
M  V30 16997 H 1578.75 -4.26033 -2.31569 0
M  V30 16998 N 1580.09 0.879207 -1.30796 0
M  V30 16999 C 1581.34 1.6315 -1.19951 0
M  V30 17000 C 1581.66 1.92958 0.244468 0
M  V30 17001 O 1580.92 1.55316 1.19061 0
M  V30 17002 C 1581.22 2.97578 -1.97945 0
M  V30 17003 C 1580.88 2.873 -3.47519 0
M  V30 17004 C 1579.55 2.84204 -3.88306 0
M  V30 17005 C 1581.9 2.75006 -4.42743 0
M  V30 17006 C 1579.23 2.6666 -5.22599 0
M  V30 17007 C 1581.58 2.59 -5.7715 0
M  V30 17008 C 1580.24 2.54282 -6.17168 0
M  V30 17009 H 1579.51 0.597008 -0.438934 0
M  V30 17010 H 1582.16 1.02179 -1.61962 0
M  V30 17011 H 1580.46 3.62532 -1.48587 0
M  V30 17012 H 1582.16 3.54759 -1.86941 0
M  V30 17013 H 1578.75 2.90522 -3.15111 0
M  V30 17014 H 1582.93 2.7646 -4.12169 0
M  V30 17015 H 1578.19 2.61426 -5.5269 0
M  V30 17016 H 1582.36 2.48462 -6.50568 0
M  V30 17017 H 1579.99 2.40446 -7.21172 0
M  V30 17018 N 1581.57 1.13606 1.09231 0
M  V30 17019 C 1582.8 0.920958 1.84938 0
M  V30 17020 C 1583.21 -0.533706 1.81516 0
M  V30 17021 O 1582.55 -1.38127 1.21105 0
M  V30 17022 C 1582.61 1.33357 3.33851 0
M  V30 17023 C 1582.27 2.80206 3.61017 0
M  V30 17024 C 1583.27 3.78356 3.56571 0
M  V30 17025 C 1580.96 3.17415 3.89298 0
M  V30 17026 C 1582.95 5.11726 3.8002 0
M  V30 17027 C 1580.64 4.50963 4.12402 0
M  V30 17028 C 1581.64 5.47928 4.07755 0
M  V30 17029 O 1581.32 6.79066 4.3026 0
M  V30 17030 H 1581.06 0.328256 0.590952 0
M  V30 17031 H 1583.61 1.51298 1.38917 0
M  V30 17032 H 1581.84 0.684821 3.80588 0
M  V30 17033 H 1583.53 1.09061 3.90974 0
M  V30 17034 H 1584.29 3.50956 3.34746 0
M  V30 17035 H 1580.17 2.42542 3.92039 0
M  V30 17036 H 1583.72 5.87399 3.76309 0
M  V30 17037 H 1579.61 4.78088 4.33708 0
M  V30 17038 H 1580.38 6.85199 4.47711 0
M  V30 17039 N 1583.05 -1.27244 0.929878 0
M  V30 17040 C 1584.46 -1.76254 0.615732 0
M  V30 17041 C 1584.81 -1.759 -0.869111 0
M  V30 17042 O 1583.93 -1.36388 -1.6801 0
M  V30 17043 C 1584.53 -3.20068 1.11095 0
M  V30 17044 C 1583.09 -3.66736 0.847435 0
M  V30 17045 C 1582.23 -2.4659 1.26842 0
M  V30 17046 H 1585.18 -1.1348 1.10942 0
M  V30 17047 H 1585.21 -3.77714 0.459618 0
M  V30 17048 H 1584.72 -3.20293 2.19166 0
M  V30 17049 H 1582.82 -3.71954 -0.219376 0
M  V30 17050 H 1582.93 -4.56104 1.4665 0
M  V30 17051 H 1581.3 -2.45261 0.686944 0
M  V30 17052 H 1582.08 -2.49524 2.35781 0
M  V30 17053 N 1584.52 -0.695628 -1.41417 0
M  V30 17054 C 1585.8 -0.154646 -1.94988 0
M  V30 17055 C 1586.18 1.33534 -1.63499 0
M  V30 17056 O 1585.53 2.08178 -0.942031 0
M  V30 17057 C 1585.74 -0.446004 -3.46138 0
M  V30 17058 C 1587.09 -0.37378 -4.22952 0
M  V30 17059 O 1588.11 -0.380921 -3.54157 0
M  V30 17060 O 1586.97 -0.33395 -5.45479 0
M  V30 17061 H 1584.06 -0.0150053 -0.826864 0
M  V30 17062 H 1586.61 -0.771792 -1.51134 0
M  V30 17063 H 1585.38 -1.47734 -3.6234 0
M  V30 17064 H 1585 0.202111 -3.97086 0
M  V30 17065 N 1586 1.51322 -0.440383 0
M  V30 17066 C 1587.23 2.07017 0.126018 0
M  V30 17067 C 1587.65 1.30537 1.35431 0
M  V30 17068 O 1587.01 0.344178 1.78003 0
M  V30 17069 C 1587.06 3.58101 0.4238 0
M  V30 17070 O 1586.16 3.83772 1.50973 0
M  V30 17071 H 1585.5 0.664 0.000530178 0
M  V30 17072 H 1588.03 1.94897 -0.622594 0
M  V30 17073 H 1588.04 4.02405 0.673363 0
M  V30 17074 H 1586.72 4.13191 -0.473932 0
M  V30 17075 H 1585.29 3.51329 1.24989 0
M  V30 17076 N 1587.48 0.171848 1.5666 0
M  V30 17077 C 1588.76 -0.519355 1.88579 0
M  V30 17078 C 1589.14 -1.81273 1.08182 0
M  V30 17079 O 1588.48 -2.27822 0.175895 0
M  V30 17080 C 1588.69 -0.760743 3.40608 0
M  V30 17081 C 1590.04 -1.09051 4.10357 0
M  V30 17082 O 1591.07 -0.849264 3.45928 0
M  V30 17083 O 1589.93 -1.54566 5.24187 0
M  V30 17084 H 1587.02 -0.267782 0.782446 0
M  V30 17085 H 1589.57 0.210323 1.68392 0
M  V30 17086 H 1588.34 0.153577 3.90999 0
M  V30 17087 H 1587.96 -1.54372 3.66408 0
M  V30 17088 N 1588.96 -1.5727 -0.101874 0
M  V30 17089 C 1589.89 -1.96813 -1.15498 0
M  V30 17090 C 1590.87 -0.840319 -1.39203 0
M  V30 17091 O 1592.05 -1.10002 -1.53075 0
M  V30 17092 C 1589.18 -2.27908 -2.5055 0
M  V30 17093 C 1588.23 -3.50388 -2.43168 0
M  V30 17094 S 1589.06 -5.02354 -1.85475 0
M  V30 17095 C 1590.21 -5.36619 -3.22166 0
M  V30 17096 H 1590.45 -2.8583 -0.81785 0
M  V30 17097 H 1587.98 -1.5127 -0.309296 0
M  V30 17098 H 1589.94 -2.465 -3.2825 0
M  V30 17099 H 1588.6 -1.39475 -2.81435 0
M  V30 17100 H 1587.79 -3.69565 -3.42692 0
M  V30 17101 H 1587.39 -3.31271 -1.73596 0
M  V30 17102 H 1589.69 -5.32849 -4.18423 0
M  V30 17103 H 1590.63 -6.37703 -3.07799 0
M  V30 17104 H 1591.04 -4.64082 -3.21385 0
M  V30 17105 N 1590.44 0.372521 -1.53134 0
M  V30 17106 C 1591.39 1.45592 -1.75462 0
M  V30 17107 C 1592.37 1.4893 -0.608994 0
M  V30 17108 O 1593.56 1.54288 -0.867419 0
M  V30 17109 C 1590.69 2.83111 -1.94172 0
M  V30 17110 C 1589.78 2.84279 -3.14716 0
M  V30 17111 N 1590.17 2.551 -4.36758 0
M  V30 17112 C 1588.47 3.15443 -3.15297 0
M  V30 17113 C 1589.17 2.6377 -5.18459 0
M  V30 17114 N 1588.14 2.98192 -4.54513 0
M  V30 17115 H 1591.94 1.21885 -2.67435 0
M  V30 17116 H 1589.46 0.58064 -1.51665 0
M  V30 17117 H 1591.46 3.61136 -2.08294 0
M  V30 17118 H 1590.12 3.07788 -1.03423 0
M  V30 17119 H 1591.13 2.2882 -4.64609 0
M  V30 17120 H 1587.8 3.45479 -2.34416 0
M  V30 17121 H 1589.19 2.44616 -6.2579 0
M  V30 17122 N 1591.91 1.44376 0.631925 0
M  V30 17123 C 1593.14 1.50598 1.41873 0
M  V30 17124 C 1593.56 0.130589 1.88348 0
M  V30 17125 O 1592.91 -0.86336 1.60787 0
M  V30 17126 C 1592.96 2.47 2.63957 0
M  V30 17127 O 1592.69 3.79192 2.1942 0
M  V30 17128 C 1594.19 2.62678 3.57092 0
M  V30 17129 H 1591.41 0.510792 0.435124 0
M  V30 17130 H 1593.95 1.89332 0.772893 0
M  V30 17131 H 1592.11 2.11404 3.24634 0
M  V30 17132 H 1592.52 4.31231 2.98563 0
M  V30 17133 H 1593.99 3.34161 4.39364 0
M  V30 17134 H 1594.47 1.67881 4.05848 0
M  V30 17135 H 1595.08 2.99172 3.02285 0
M  V30 17136 N 1593.39 -0.872258 1.31261 0
M  V30 17137 C 1594.32 -1.99517 1.21306 0
M  V30 17138 C 1595.3 -1.69801 0.100775 0
M  V30 17139 O 1596.49 -1.92098 0.284984 0
M  V30 17140 C 1593.62 -3.34968 0.917249 0
M  V30 17141 C 1592.57 -3.78984 1.98885 0
M  V30 17142 C 1591.9 -5.11869 1.54578 0
M  V30 17143 C 1593.2 -3.96338 3.40167 0
M  V30 17144 H 1594.89 -2.08104 2.15251 0
M  V30 17145 H 1592.44 -0.999865 1.03628 0
M  V30 17146 H 1594.39 -4.1306 0.834217 0
M  V30 17147 H 1593.11 -3.26549 -0.0578721 0
M  V30 17148 H 1591.77 -3.0313 2.06174 0
M  V30 17149 H 1591.42 -4.99889 0.558581 0
M  V30 17150 H 1591.12 -5.4229 2.26265 0
M  V30 17151 H 1592.65 -5.92472 1.47678 0
M  V30 17152 H 1594.06 -4.64831 3.35566 0
M  V30 17153 H 1592.46 -4.38153 4.10051 0
M  V30 17154 H 1593.53 -2.9979 3.81122 0
M  V30 17155 N 1594.87 -1.14184 -1.08627 0
M  V30 17156 C 1596.12 -0.903271 -1.80344 0
M  V30 17157 C 1596.43 0.571801 -1.87056 0
M  V30 17158 O 1597.64 0.92756 -2.55164 0
M  V30 17159 C 1596.09 -1.56653 -3.24018 0
M  V30 17160 C 1595.7 -3.07771 -3.25548 0
M  V30 17161 C 1597.45 -1.40899 -4.00434 0
M  V30 17162 C 1595.35 -3.66943 -4.63796 0
M  V30 17163 H 1594.28 -0.334288 -0.675846 0
M  V30 17164 H 1596.93 -1.3705 -1.22023 0
M  V30 17165 H 1595.32 -1.02698 -3.82452 0
M  V30 17166 H 1596.49 -3.68375 -2.76834 0
M  V30 17167 H 1594.8 -3.23136 -2.62625 0
M  V30 17168 H 1597.4 -1.82511 -5.02587 0
M  V30 17169 H 1597.74 -0.354822 -4.14785 0
M  V30 17170 H 1598.28 -1.91879 -3.48464 0
M  V30 17171 H 1595.02 -4.72203 -4.54648 0
M  V30 17172 H 1594.54 -3.11119 -5.12801 0
M  V30 17173 H 1596.22 -3.67103 -5.32771 0
M  V30 17174 N 1596.35 1.26749 -0.936613 0
M  V30 17175 C 1597.3 2.28528 -0.433328 0
M  V30 17176 C 1598.29 1.62248 0.487012 0
M  V30 17177 O 1599.5 1.76245 0.36573 0
M  V30 17178 H 1595.87 0.742106 -0.121583 0
M  V30 17179 H 1597.84 2.68382 -1.30436 0
M  V30 17180 C 1596.59 3.46485 0.290366 0
M  V30 17181 H 1595.91 3.97706 -0.408649 0
M  V30 17182 H 1597.35 4.19635 0.606807 0
M  V30 17183 C 1595.81 3.01339 1.50654 0
M  V30 17184 O 1596.34 3.05781 2.60501 0
M  V30 17185 N 1594.55 2.56732 1.3615 0
M  V30 17186 H 1594.1 2.53317 0.467788 0
M  V30 17187 H 1594.05 2.26888 2.17645 0
M  V30 17188 N 1597.83 0.703118 1.41046 0
M  V30 17189 C 1599.07 0.237287 2.01105 0
M  V30 17190 C 1599.4 -1.16552 1.55711 0
M  V30 17191 O 1598.66 -1.80233 0.762533 0
M  V30 17192 C 1598.96 0.251575 3.56513 0
M  V30 17193 C 1598.62 1.60295 4.21446 0
M  V30 17194 C 1597.28 1.9729 4.38897 0
M  V30 17195 C 1599.64 2.49167 4.57783 0
M  V30 17196 C 1596.96 3.22726 4.89964 0
M  V30 17197 C 1599.32 3.73943 5.10244 0
M  V30 17198 C 1597.98 4.11072 5.25905 0
M  V30 17199 H 1597.25 0.0868294 0.735895 0
M  V30 17200 H 1599.9 0.903695 1.68836 0
M  V30 17201 H 1598.2 -0.498393 3.88617 0
M  V30 17202 H 1599.9 -0.126501 4.008 0
M  V30 17203 H 1596.49 1.30523 4.08242 0
M  V30 17204 H 1600.67 2.21864 4.43948 0
M  V30 17205 H 1595.93 3.51477 5.00274 0
M  V30 17206 H 1600.1 4.42988 5.3734 0
M  V30 17207 H 1597.73 5.0834 5.65239 0
M  V30 17208 N 1599.3 -1.51086 0.448402 0
M  V30 17209 C 1600.53 -2.06293 -0.112531 0
M  V30 17210 C 1600.94 -1.31478 -1.36052 0
M  V30 17211 O 1600.29 -0.370897 -1.79917 0
M  V30 17212 C 1600.35 -3.56156 -0.489178 0
M  V30 17213 C 1600.01 -4.52302 0.653568 0
M  V30 17214 C 1601.01 -4.96909 1.52898 0
M  V30 17215 C 1598.69 -4.9527 0.837448 0
M  V30 17216 C 1600.69 -5.83165 2.57288 0
M  V30 17217 C 1598.37 -5.81314 1.8846 0
M  V30 17218 C 1599.37 -6.25161 2.75069 0
M  V30 17219 O 1599.06 -7.09495 3.77985 0
M  V30 17220 H 1598.79 -0.67597 -0.00641865 0
M  V30 17221 H 1601.35 -1.95515 0.629533 0
M  V30 17222 H 1599.58 -3.64757 -1.28411 0
M  V30 17223 H 1601.27 -3.93828 -0.982548 0
M  V30 17224 H 1602.03 -4.64399 1.3985 0
M  V30 17225 H 1597.91 -4.60676 0.172857 0
M  V30 17226 H 1601.45 -6.1731 3.24921 0
M  V30 17227 H 1597.35 -6.13236 2.01523 0
M  V30 17228 H 1598.12 -7.27697 3.74699 0
M  V30 17229 N 1600.78 -0.180154 -1.56567 0
M  V30 17230 C 1601.71 0.77825 -2.15583 0
M  V30 17231 C 1602.73 1.18746 -1.1137 0
M  V30 17232 O 1603.92 1.12578 -1.38523 0
M  V30 17233 C 1601.02 2.06024 -2.69086 0
M  V30 17234 C 1600.19 1.8132 -3.98047 0
M  V30 17235 C 1599.25 2.93823 -4.36526 0
M  V30 17236 O 1598.27 2.64075 -5.04235 0
M  V30 17237 N 1599.48 4.21823 -3.98806 0
M  V30 17238 H 1602.24 0.273661 -2.98448 0
M  V30 17239 H 1599.8 0.00232952 -1.619 0
M  V30 17240 H 1601.79 2.80398 -2.9182 0
M  V30 17241 H 1600.36 2.47648 -1.9076 0
M  V30 17242 H 1599.58 0.908046 -3.83599 0
M  V30 17243 H 1600.87 1.62194 -4.82256 0
M  V30 17244 H 1600.27 4.48849 -3.44313 0
M  V30 17245 H 1598.83 4.92871 -4.26522 0
M  V30 17246 N 1602.26 1.57322 0.0935319 0
M  V30 17247 C 1603.19 2.05208 1.11409 0
M  V30 17248 C 1604.17 0.941295 1.41681 0
M  V30 17249 O 1605.36 1.21266 1.51684 0
M  V30 17250 C 1602.49 2.47782 2.43354 0
M  V30 17251 C 1601.44 3.62538 2.27486 0
M  V30 17252 C 1600.77 3.91095 3.64622 0
M  V30 17253 C 1602.07 4.93371 1.71412 0
M  V30 17254 H 1603.76 2.9072 0.715702 0
M  V30 17255 H 1601.31 1.3986 0.342827 0
M  V30 17256 H 1603.26 2.79891 3.15022 0
M  V30 17257 H 1601.98 1.59272 2.85132 0
M  V30 17258 H 1600.64 3.30679 1.58263 0
M  V30 17259 H 1600.29 2.99749 4.0393 0
M  V30 17260 H 1599.99 4.68353 3.5485 0
M  V30 17261 H 1601.51 4.25679 4.37755 0
M  V30 17262 H 1602.93 5.23851 2.32922 0
M  V30 17263 H 1601.33 5.74804 1.72395 0
M  V30 17264 H 1602.4 4.80197 0.67368 0
M  V30 17265 N 1603.74 -0.364395 1.53329 0
M  V30 17266 C 1604.96 -1.13196 1.73786 0
M  V30 17267 C 1605.39 -1.82231 0.466224 0
M  V30 17268 O 1604.75 -1.71778 -0.579817 0
M  V30 17269 C 1604.79 -2.13704 2.90453 0
M  V30 17270 O 1603.9 -3.20808 2.59144 0
M  V30 17271 H 1603.24 -0.328387 0.577112 0
M  V30 17272 H 1605.77 -0.421157 2.00218 0
M  V30 17273 H 1605.78 -2.57285 3.16652 0
M  V30 17274 H 1604.45 -1.6285 3.82691 0
M  V30 17275 H 1603.03 -2.82192 2.43767 0
M  V30 17276 N 1605.22 -1.44709 -0.62426 0
M  V30 17277 C 1606.17 -1.48536 -1.72977 0
M  V30 17278 C 1607.15 -0.350388 -1.57039 0
M  V30 17279 O 1608.34 -0.596153 -1.66658 0
M  V30 17280 C 1605.47 -1.439 -3.11685 0
M  V30 17281 C 1604.56 -2.62537 -3.33069 0
M  V30 17282 N 1604.95 -3.87745 -3.24788 0
M  V30 17283 C 1603.25 -2.57879 -3.63888 0
M  V30 17284 C 1603.95 -4.66833 -3.47048 0
M  V30 17285 N 1602.92 -3.98016 -3.70248 0
M  V30 17286 H 1606.73 -2.43183 -1.65042 0
M  V30 17287 H 1604.24 -1.39768 -0.826962 0
M  V30 17288 H 1606.24 -1.44725 -3.90973 0
M  V30 17289 H 1604.9 -0.502961 -3.20781 0
M  V30 17290 H 1605.91 -4.19613 -3.03555 0
M  V30 17291 H 1602.58 -1.73104 -3.79923 0
M  V30 17292 H 1603.97 -5.75855 -3.4618 0
M  V30 17293 N 1606.69 0.865285 -1.31722 0
M  V30 17294 C 1607.92 1.64897 -1.24469 0
M  V30 17295 C 1608.33 1.88228 0.191553 0
M  V30 17296 O 1607.68 1.44396 1.13559 0
M  V30 17297 C 1607.74 3.0371 -1.92355 0
M  V30 17298 C 1607.4 3.03468 -3.41696 0
M  V30 17299 C 1608.4 2.81086 -4.37364 0
M  V30 17300 C 1606.08 3.2444 -3.83463 0
M  V30 17301 C 1608.08 2.79663 -5.72772 0
M  V30 17302 C 1605.76 3.22645 -5.18983 0
M  V30 17303 C 1606.76 3.00284 -6.13448 0
M  V30 17304 O 1606.45 2.98342 -7.4649 0
M  V30 17305 H 1606.18 0.520681 -0.431124 0
M  V30 17306 H 1608.74 1.08795 -1.74221 0
M  V30 17307 H 1606.97 3.61558 -1.37159 0
M  V30 17308 H 1608.66 3.64321 -1.78955 0
M  V30 17309 H 1609.42 2.6466 -4.06423 0
M  V30 17310 H 1605.3 3.40874 -3.10364 0
M  V30 17311 H 1608.84 2.62128 -6.46479 0
M  V30 17312 H 1604.74 3.38612 -5.49556 0
M  V30 17313 H 1605.51 3.14371 -7.5572 0
M  V30 17314 N 1608.17 1.14759 1.0802 0
M  V30 17315 C 1609.12 0.833824 2.17141 0
M  V30 17316 C 1610.11 -0.189939 1.68332 0
M  V30 17317 O 1611.32 -0.0456447 1.79942 0
M  V30 17318 H 1607.7 0.251944 0.70854 0
M  V30 17319 H 1609.67 1.76196 2.40827 0
M  V30 17320 C 1608.42 0.33203 3.46111 0
M  V30 17321 H 1607.74 1.11117 3.84048 0
M  V30 17322 H 1609.18 0.151078 4.23731 0
M  V30 17323 C 1607.64 -0.945153 3.2337 0
M  V30 17324 O 1608.17 -2.0181 3.47326 0
M  V30 17325 N 1606.37 -0.881963 2.76893 0
M  V30 17326 H 1605.92 -0.00865768 2.57599 0
M  V30 17327 H 1605.88 -1.73706 2.62056 0
M  V30 17328 N 1609.65 -1.26251 0.943322 0
M  V30 17329 C 1610.58 -2.25468 0.411904 0
M  V30 17330 C 1611.6 -1.55988 -0.466005 0
M  V30 17331 O 1612.78 -1.76352 -0.276106 0
M  V30 17332 C 1609.88 -3.362 -0.426909 0
M  V30 17333 C 1609.06 -4.35228 0.435346 0
M  V30 17334 C 1608.12 -5.25078 -0.343388 0
M  V30 17335 O 1607.14 -5.68632 0.254322 0
M  V30 17336 N 1608.34 -5.5687 -1.63939 0
M  V30 17337 H 1611.11 -2.71701 1.26486 0
M  V30 17338 H 1608.67 -1.40039 0.812438 0
M  V30 17339 H 1610.66 -3.93263 -0.955316 0
M  V30 17340 H 1609.23 -2.89446 -1.18067 0
M  V30 17341 H 1608.45 -3.77206 1.14495 0
M  V30 17342 H 1609.74 -4.98384 1.02427 0
M  V30 17343 H 1609.14 -5.2337 -2.14709 0
M  V30 17344 H 1607.7 -6.16566 -2.11399 0
M  V30 17345 N 1611.13 -0.710588 -1.40671 0
M  V30 17346 C 1612.37 -0.252303 -2.02837 0
M  V30 17347 C 1612.73 1.13154 -1.55113 0
M  V30 17348 O 1613.93 1.68653 -2.09307 0
M  V30 17349 C 1612.21 -0.323902 -3.55929 0
M  V30 17350 S 1613.76 0.0581316 -4.38761 0
M  V30 17351 H 1610.58 -0.100448 -0.703869 0
M  V30 17352 H 1613.18 -0.931699 -1.71871 0
M  V30 17353 H 1611.89 -1.33279 -3.88156 0
M  V30 17354 H 1611.42 0.37414 -3.91617 0
M  V30 17355 H 1613.43 1.28162 -4.79363 0
M  V30 17356 N 1612.61 1.50847 -0.456408 0
M  V30 17357 C 1613.55 2.28202 0.345341 0
M  V30 17358 C 1614.52 1.32611 1.00017 0
M  V30 17359 O 1615.71 1.61535 1.01543 0
M  V30 17360 C 1612.85 3.14087 1.42981 0
M  V30 17361 C 1611.96 4.24693 0.791217 0
M  V30 17362 C 1611.1 4.97857 1.85234 0
M  V30 17363 C 1610.14 6.00357 1.1932 0
M  V30 17364 N 1609.27 6.66856 2.19652 0
M  V30 17365 H 1614.11 2.9627 -0.320646 0
M  V30 17366 H 1611.65 1.46115 -0.169973 0
M  V30 17367 H 1613.61 3.62222 2.07006 0
M  V30 17368 H 1612.24 2.48095 2.06516 0
M  V30 17369 H 1611.29 3.8038 0.0387694 0
M  V30 17370 H 1612.6 4.98068 0.270177 0
M  V30 17371 H 1611.76 5.49636 2.56875 0
M  V30 17372 H 1610.5 4.24155 2.40715 0
M  V30 17373 H 1609.5 5.47853 0.462341 0
M  V30 17374 H 1610.73 6.76025 0.645473 0
M  V30 17375 H 1608.67 5.95955 2.74178 0
M  V30 17376 H 1608.59 7.36059 1.72492 0
M  V30 17377 H 1609.86 7.23259 2.90719 0
M  V30 17378 N 1614.09 0.188454 1.56469 0
M  V30 17379 C 1615.05 -0.721282 2.17555 0
M  V30 17380 C 1616.05 -1.14579 1.1282 0
M  V30 17381 O 1617.24 -1.05996 1.38241 0
M  V30 17382 C 1614.37 -1.9839 2.77226 0
M  V30 17383 H 1615.56 -0.189218 2.99302 0
M  V30 17384 H 1613.12 -0.0611533 1.5618 0
M  V30 17385 H 1613.85 -2.55864 1.99259 0
M  V30 17386 H 1613.64 -1.68831 3.53891 0
M  V30 17387 H 1615.13 -2.63277 3.24153 0
M  V30 17388 N 1615.56 -1.5737 -0.0851874 0
M  V30 17389 C 1616.81 -1.87731 -0.782849 0
M  V30 17390 C 1617.16 -0.780518 -1.75857 0
M  V30 17391 O 1616.46 0.216586 -1.90372 0
M  V30 17392 C 1616.65 -3.22427 -1.54194 0
M  V30 17393 C 1616.48 -4.45105 -0.641234 0
M  V30 17394 C 1615.25 -5.04506 -0.28322 0
M  V30 17395 C 1617.45 -5.14269 0.0561642 0
M  V30 17396 N 1615.43 -6.10714 0.624609 0
M  V30 17397 C 1616.8 -6.14531 0.821684 0
M  V30 17398 C 1618.86 -4.97733 0.129045 0
M  V30 17399 C 1617.56 -7.00042 1.65329 0
M  V30 17400 C 1619.59 -5.83759 0.947583 0
M  V30 17401 C 1618.95 -6.83549 1.70119 0
M  V30 17402 H 1615.05 -0.73669 -0.262319 0
M  V30 17403 H 1617.63 -1.94648 -0.0449314 0
M  V30 17404 H 1615.8 -3.16543 -2.25066 0
M  V30 17405 H 1617.53 -3.40481 -2.18757 0
M  V30 17406 H 1614.29 -4.69349 -0.633099 0
M  V30 17407 H 1614.71 -6.68469 1.07137 0
M  V30 17408 H 1619.35 -4.20512 -0.439253 0
M  V30 17409 H 1617.07 -7.76647 2.23261 0
M  V30 17410 H 1620.66 -5.73023 1.00678 0
M  V30 17411 H 1619.54 -7.48961 2.32437 0
M  V30 17412 N 1617.04 0.356258 -1.53521 0
M  V30 17413 C 1617.99 1.45718 -1.81298 0
M  V30 17414 C 1618.98 1.55036 -0.682652 0
M  V30 17415 O 1620.19 1.57812 -0.865766 0
M  V30 17416 H 1616.56 0.485614 -0.57418 0
M  V30 17417 H 1618.54 1.19498 -2.73428 0
M  V30 17418 C 1617.28 2.82424 -2.0281 0
M  V30 17419 H 1616.61 2.76016 -2.89232 0
M  V30 17420 H 1618.05 3.5861 -2.26218 0
M  V30 17421 C 1616.51 3.2702 -0.809893 0
M  V30 17422 O 1617.04 4.017 -0.00310668 0
M  V30 17423 N 1615.24 2.83673 -0.630696 0
M  V30 17424 H 1614.79 2.23066 -1.28839 0
M  V30 17425 H 1614.75 3.13867 0.182961 0
M  V30 17426 N 1618.52 1.45038 0.616577 0
M  V30 17427 C 1619.47 1.53343 1.74896 0
M  V30 17428 C 1620.46 0.404033 1.64511 0
M  V30 17429 O 1621.67 0.57958 1.70414 0
M  V30 17430 H 1618.04 0.481471 0.577658 0
M  V30 17431 H 1620.01 2.4862 1.65017 0
M  V30 17432 C 1618.76 1.50871 3.13262 0
M  V30 17433 H 1618.09 2.37098 3.21908 0
M  V30 17434 H 1619.53 1.60741 3.9235 0
M  V30 17435 C 1617.98 0.231704 3.36102 0
M  V30 17436 O 1618.51 -0.692154 3.95692 0
M  V30 17437 N 1616.72 0.130232 2.90308 0
M  V30 17438 H 1616.27 0.882893 2.41997 0
M  V30 17439 H 1616.23 -0.723403 3.05964 0
M  V30 17440 N 1620 -0.858287 1.32179 0
M  V30 17441 C 1621.24 -1.61221 1.22532 0
M  V30 17442 C 1621.57 -1.93322 -0.213739 0
M  V30 17443 O 1620.83 -1.5719 -1.16575 0
M  V30 17444 C 1621.13 -2.94391 2.02654 0
M  V30 17445 C 1620.79 -2.81735 3.52046 0
M  V30 17446 C 1619.45 -2.7799 3.92778 0
M  V30 17447 C 1621.81 -2.67928 4.47062 0
M  V30 17448 C 1619.13 -2.58312 5.26775 0
M  V30 17449 C 1621.49 -2.49785 5.81197 0
M  V30 17450 C 1620.15 -2.44431 6.21136 0
M  V30 17451 H 1619.42 -0.589949 0.448376 0
M  V30 17452 H 1622.07 -0.995897 1.63567 0
M  V30 17453 H 1620.37 -3.60122 1.54336 0
M  V30 17454 H 1622.07 -3.5174 1.92561 0
M  V30 17455 H 1618.66 -2.85472 3.19693 0
M  V30 17456 H 1622.84 -2.69868 4.16515 0
M  V30 17457 H 1618.1 -2.526 5.56779 0
M  V30 17458 H 1622.27 -2.38081 6.54439 0
M  V30 17459 H 1619.9 -2.28943 7.24906 0
M  V30 17460 N 1621.48 -1.1533 -1.07409 0
M  V30 17461 C 1622.89 -0.895817 -1.32088 0
M  V30 17462 C 1623.09 0.457526 -1.96237 0
M  V30 17463 O 1622.15 1.19958 -2.22185 0
M  V30 17464 C 1623.46 -2.03632 -2.21256 0
M  V30 17465 C 1625.01 -2.07079 -2.34707 0
M  V30 17466 C 1625.48 -3.20451 -3.27223 0
M  V30 17467 N 1626.97 -3.20095 -3.34804 0
M  V30 17468 C 1627.71 -4.04458 -4.0645 0
M  V30 17469 N 1627.21 -4.98883 -4.80715 0
M  V30 17470 N 1629 -3.92483 -4.02385 0
M  V30 17471 H 1621.15 -2.02478 -0.641578 0
M  V30 17472 H 1623.41 -0.882864 -0.345332 0
M  V30 17473 H 1623.12 -3.0132 -1.81381 0
M  V30 17474 H 1622.99 -1.96817 -3.21781 0
M  V30 17475 H 1625.38 -1.09991 -2.73836 0
M  V30 17476 H 1625.46 -2.17962 -1.3389 0
M  V30 17477 H 1625.1 -4.17791 -2.88813 0
M  V30 17478 H 1625.03 -3.06805 -4.27993 0
M  V30 17479 H 1627.53 -2.51712 -2.81868 0
M  V30 17480 H 1627.84 -5.59698 -5.32877 0
M  V30 17481 H 1626.18 -5.02872 -4.79734 0
M  V30 17482 H 1629.37 -3.18026 -3.43478 0
M  V30 17483 H 1629.55 -4.58454 -4.57956 0
M  V30 17484 N 1622.95 1.25748 -0.950004 0
M  V30 17485 C 1624.2 1.93622 -0.603186 0
M  V30 17486 C 1624.53 1.74271 0.856925 0
M  V30 17487 O 1623.81 1.08502 1.61423 0
M  V30 17488 C 1624.09 3.4715 -0.957024 0
M  V30 17489 C 1623.94 3.75747 -2.47253 0
M  V30 17490 C 1625.26 4.37488 -0.478754 0
M  V30 17491 H 1622.38 0.703206 -0.220612 0
M  V30 17492 H 1625.02 1.48453 -1.18582 0
M  V30 17493 H 1623.17 3.85753 -0.46122 0
M  V30 17494 H 1624.85 3.46808 -3.04174 0
M  V30 17495 H 1623.09 3.21516 -2.91222 0
M  V30 17496 H 1623.76 4.83097 -2.67061 0
M  V30 17497 H 1626.24 4.06162 -0.903987 0
M  V30 17498 H 1625.11 5.43682 -0.755073 0
M  V30 17499 H 1625.37 4.37712 0.621303 0
M  V30 17500 N 1624.43 0.718038 1.40292 0
M  V30 17501 C 1625.38 0.0559466 2.32533 0
M  V30 17502 C 1626.37 -0.744365 1.5217 0
M  V30 17503 O 1627.58 -0.647458 1.67952 0
M  V30 17504 H 1623.95 -0.000710627 0.752 0
M  V30 17505 H 1625.93 0.850579 2.8602 0
M  V30 17506 C 1624.67 -0.849927 3.37152 0
M  V30 17507 H 1624 -0.243507 3.99058 0
M  V30 17508 H 1625.44 -1.28111 4.04183 0
M  V30 17509 C 1623.9 -1.9765 2.7283 0
M  V30 17510 O 1624.43 -3.06757 2.59351 0
M  V30 17511 N 1622.63 -1.76086 2.31176 0
M  V30 17512 H 1622.18 -0.873485 2.42339 0
M  V30 17513 H 1622.14 -2.51643 1.88477 0
M  V30 17514 N 1625.91 -1.50602 0.464402 0
M  V30 17515 C 1626.86 -2.28382 -0.333234 0
M  V30 17516 C 1627.83 -1.3314 -0.993125 0
M  V30 17517 O 1629.01 -1.62072 -1.00685 0
M  V30 17518 C 1626.15 -3.14841 -1.41313 0
M  V30 17519 C 1625.27 -4.25106 -0.768684 0
M  V30 17520 C 1624.4 -4.98833 -1.82591 0
M  V30 17521 C 1623.44 -6.00982 -1.16135 0
M  V30 17522 N 1622.58 -6.68012 -2.16112 0
M  V30 17523 H 1627.42 -2.96096 0.336354 0
M  V30 17524 H 1624.95 -1.46022 0.17772 0
M  V30 17525 H 1626.91 -3.63314 -2.05082 0
M  V30 17526 H 1625.54 -2.49186 -2.05197 0
M  V30 17527 H 1624.59 -3.80395 -0.0185964 0
M  V30 17528 H 1625.91 -4.98204 -0.243759 0
M  V30 17529 H 1625.06 -5.50991 -2.53957 0
M  V30 17530 H 1623.8 -4.25426 -2.38462 0
M  V30 17531 H 1622.8 -5.4809 -0.43328 0
M  V30 17532 H 1624.03 -6.76358 -0.609612 0
M  V30 17533 H 1621.97 -5.97401 -2.71013 0
M  V30 17534 H 1621.89 -7.36963 -1.68586 0
M  V30 17535 H 1623.16 -7.2479 -2.86879 0
M  V30 17536 N 1627.39 -0.19675 -1.56367 0
M  V30 17537 C 1628.63 0.442238 -1.97919 0
M  V30 17538 C 1628.97 1.61156 -1.08362 0
M  V30 17539 O 1628.24 1.94024 -0.135969 0
M  V30 17540 C 1628.53 0.90078 -3.48652 0
M  V30 17541 C 1628.38 -0.270471 -4.48986 0
M  V30 17542 C 1629.7 1.7657 -4.03126 0
M  V30 17543 H 1626.82 0.159276 -0.719583 0
M  V30 17544 H 1629.46 -0.288004 -1.87805 0
M  V30 17545 H 1627.61 1.52302 -3.57402 0
M  V30 17546 H 1629.28 -0.908176 -4.52272 0
M  V30 17547 H 1627.52 -0.921973 -4.23889 0
M  V30 17548 H 1628.19 0.0929101 -5.51922 0
M  V30 17549 H 1630.67 1.24091 -3.97166 0
M  V30 17550 H 1629.55 2.0555 -5.0896 0
M  V30 17551 H 1629.81 2.72047 -3.48486 0
M  V30 17552 N 1628.87 1.57413 0.0768405 0
M  V30 17553 C 1630.1 1.90946 0.788862 0
M  V30 17554 C 1630.5 0.790474 1.71896 0
M  V30 17555 O 1629.85 -0.245385 1.82054 0
M  V30 17556 C 1629.91 3.19902 1.64022 0
M  V30 17557 C 1629.57 4.48447 0.880025 0
M  V30 17558 C 1630.57 5.19509 0.201546 0
M  V30 17559 C 1628.26 4.95078 0.848694 0
M  V30 17560 C 1630.25 6.35451 -0.498091 0
M  V30 17561 C 1627.94 6.10927 0.145281 0
M  V30 17562 C 1628.93 6.80964 -0.526916 0
M  V30 17563 O 1628.62 7.94604 -1.21901 0
M  V30 17564 H 1628.35 0.63576 0.22975 0
M  V30 17565 H 1630.91 2.05332 0.052938 0
M  V30 17566 H 1629.14 3.01712 2.41882 0
M  V30 17567 H 1630.83 3.39125 2.23046 0
M  V30 17568 H 1631.59 4.84514 0.217091 0
M  V30 17569 H 1627.47 4.40441 1.36136 0
M  V30 17570 H 1631.02 6.90053 -1.02333 0
M  V30 17571 H 1626.91 6.45374 0.127646 0
M  V30 17572 H 1627.68 8.10693 -1.12776 0
M  V30 17573 N 1630.34 -0.348112 1.53707 0
M  V30 17574 C 1631.62 -1.1056 1.61356 0
M  V30 17575 C 1632 -2.06633 0.431955 0
M  V30 17576 O 1631.35 -2.21115 -0.576211 0
M  V30 17577 C 1631.56 -1.82929 2.97217 0
M  V30 17578 C 1632.91 -2.36837 3.52411 0
M  V30 17579 O 1633.93 -1.93032 2.99361 0
M  V30 17580 O 1632.79 -3.16966 4.45191 0
M  V30 17581 H 1629.88 -0.50817 0.652451 0
M  V30 17582 H 1632.43 -0.349971 1.66052 0
M  V30 17583 H 1631.2 -1.12912 3.74655 0
M  V30 17584 H 1630.83 -2.65361 2.9609 0
M  V30 17585 N 1631.82 -1.45363 -0.608876 0
M  V30 17586 C 1632.76 -1.48425 -1.73336 0
M  V30 17587 C 1633.73 -0.340757 -1.58989 0
M  V30 17588 O 1634.92 -0.541066 -1.80568 0
M  V30 17589 C 1632.04 -1.33807 -3.11149 0
M  V30 17590 C 1631.09 -2.52005 -3.44087 0
M  V30 17591 S 1631.92 -4.14477 -3.39071 0
M  V30 17592 C 1633.08 -4.02321 -4.79467 0
M  V30 17593 H 1633.31 -2.43568 -1.70475 0
M  V30 17594 H 1630.85 -1.32931 -0.785418 0
M  V30 17595 H 1632.8 -1.2606 -3.90665 0
M  V30 17596 H 1631.46 -0.401365 -3.11525 0
M  V30 17597 H 1630.66 -2.37699 -4.44427 0
M  V30 17598 H 1630.26 -2.56606 -2.72083 0
M  V30 17599 H 1632.55 -3.67386 -5.6924 0
M  V30 17600 H 1633.49 -5.02569 -4.98829 0
M  V30 17601 H 1633.9 -3.34 -4.55087 0
M  V30 17602 N 1633.3 0.851265 -1.32632 0
M  V30 17603 C 1634.53 1.64328 -1.26535 0
M  V30 17604 C 1634.95 1.87392 0.163086 0
M  V30 17605 O 1634.31 1.42913 1.1156 0
M  V30 17606 C 1634.36 2.97781 -2.03369 0
M  V30 17607 O 1633.46 3.8849 -1.38381 0
M  V30 17608 H 1632.8 0.500864 -0.435926 0
M  V30 17609 H 1635.33 1.06 -1.75001 0
M  V30 17610 H 1635.34 3.47576 -2.1367 0
M  V30 17611 H 1634.02 2.80316 -3.07239 0
M  V30 17612 H 1632.59 3.4696 -1.36649 0
M  V30 17613 N 1634.78 1.15898 1.06796 0
M  V30 17614 C 1635.69 0.87507 2.17669 0
M  V30 17615 C 1636.7 -0.150763 1.73346 0
M  V30 17616 O 1637.88 0.0246621 2.01385 0
M  V30 17617 C 1634.95 0.374555 3.44671 0
M  V30 17618 C 1634.01 1.46498 4.0353 0
M  V30 17619 C 1633.24 0.988256 5.2447 0
M  V30 17620 O 1633.46 -0.163992 5.70164 0
M  V30 17621 O 1632.4 1.7744 5.75151 0
M  V30 17622 H 1636.22 1.80208 2.44456 0
M  V30 17623 H 1633.81 0.93854 1.1624 0
M  V30 17624 H 1635.69 0.102161 4.21276 0
M  V30 17625 H 1634.36 -0.524513 3.19422 0
M  V30 17626 H 1633.27 1.79105 3.28439 0
M  V30 17627 H 1634.6 2.33917 4.33063 0
M  V30 17628 N 1636.26 -1.25243 0.956659 0
M  V30 17629 C 1637.53 -1.88287 0.529832 0
M  V30 17630 C 1637.91 -1.8629 -0.992929 0
M  V30 17631 O 1637.26 -1.32785 -1.85958 0
M  V30 17632 C 1637.47 -3.30919 1.10877 0
M  V30 17633 C 1638.82 -4.07674 1.18687 0
M  V30 17634 O 1639.84 -3.40048 1.06047 0
M  V30 17635 O 1638.7 -5.28648 1.38541 0
M  V30 17636 H 1635.8 -0.808258 0.175066 0
M  V30 17637 H 1638.34 -1.33298 1.05022 0
M  V30 17638 H 1637.11 -3.26813 2.15195 0
M  V30 17639 H 1636.74 -3.93468 0.571755 0
M  V30 17640 N 1637.73 -0.725468 -1.3991 0
M  V30 17641 C 1638.68 -0.0555314 -2.27932 0
M  V30 17642 C 1639.67 0.722435 -1.4377 0
M  V30 17643 O 1640.86 0.593011 -1.6677 0
M  V30 17644 C 1637.99 0.858122 -3.32402 0
M  V30 17645 C 1637.08 0.0748146 -4.24034 0
M  V30 17646 N 1637.47 -0.947093 -4.96854 0
M  V30 17647 C 1635.76 0.305902 -4.4495 0
M  V30 17648 C 1636.47 -1.41861 -5.64137 0
M  V30 17649 N 1635.44 -0.738949 -5.38554 0
M  V30 17650 H 1639.24 -0.838606 -2.81682 0
M  V30 17651 H 1636.76 -0.558938 -1.52478 0
M  V30 17652 H 1638.75 1.35347 -3.94318 0
M  V30 17653 H 1637.41 1.64046 -2.80212 0
M  V30 17654 H 1638.43 -1.32821 -5.00579 0
M  V30 17655 H 1635.1 1.06379 -4.0372 0
M  V30 17656 H 1636.49 -2.26829 -6.32454 0
M  V30 17657 N 1639.21 1.50354 -0.472382 0
M  V30 17658 C 1640.45 2.0424 0.0808914 0
M  V30 17659 C 1640.82 1.34648 1.36871 0
M  V30 17660 O 1642.02 1.79096 2.00444 0
M  V30 17661 C 1640.29 3.56459 0.259192 0
M  V30 17662 S 1641.85 4.31976 0.770836 0
M  V30 17663 H 1638.67 0.710834 0.015346 0
M  V30 17664 H 1641.27 1.84734 -0.639816 0
M  V30 17665 H 1639.97 4.04662 -0.683865 0
M  V30 17666 H 1639.5 3.80321 1.00598 0
M  V30 17667 H 1641.52 4.52142 2.04406 0
M  V30 17668 N 1640.69 0.205039 1.56261 0
M  V30 17669 C 1641.92 -0.439502 2.0269 0
M  V30 17670 C 1642.34 -1.53715 1.08413 0
M  V30 17671 O 1641.7 -1.81167 0.0693616 0
M  V30 17672 C 1641.75 -0.963672 3.47485 0
M  V30 17673 O 1640.85 -2.07602 3.56336 0
M  V30 17674 H 1640.19 -0.101543 0.65619 0
M  V30 17675 H 1642.72 0.318835 2.021 0
M  V30 17676 H 1642.73 -1.27773 3.87476 0
M  V30 17677 H 1641.41 -0.160203 4.15591 0
M  V30 17678 H 1639.98 -1.76985 3.28224 0
M  V30 17679 N 1642.17 -1.57451 -0.0684915 0
M  V30 17680 C 1643.4 -1.91362 -0.778724 0
M  V30 17681 C 1643.81 -0.799579 -1.71474 0
M  V30 17682 O 1643.15 0.235727 -1.82181 0
M  V30 17683 C 1643.21 -3.20767 -1.62323 0
M  V30 17684 C 1642.88 -4.48907 -0.85623 0
M  V30 17685 C 1643.87 -5.19609 -0.173992 0
M  V30 17686 C 1641.56 -4.95521 -0.822427 0
M  V30 17687 C 1643.55 -6.35178 0.531784 0
M  V30 17688 C 1641.24 -6.10996 -0.11288 0
M  V30 17689 C 1642.24 -6.80675 0.563022 0
M  V30 17690 O 1641.93 -7.93946 1.26113 0
M  V30 17691 H 1641.66 -0.636969 -0.226376 0
M  V30 17692 H 1644.21 -2.05357 -0.0420481 0
M  V30 17693 H 1642.44 -3.0299 -2.40279 0
M  V30 17694 H 1644.13 -3.40303 -2.21244 0
M  V30 17695 H 1644.9 -4.84622 -0.191393 0
M  V30 17696 H 1640.78 -4.41156 -1.33798 0
M  V30 17697 H 1644.32 -6.89501 1.05991 0
M  V30 17698 H 1640.22 -6.45432 -0.0934182 0
M  V30 17699 H 1640.98 -8.10084 1.17074 0
M  V30 17700 N 1643.65 0.339955 -1.5389 0
M  V30 17701 C 1644.89 1.07979 -1.71309 0
M  V30 17702 C 1645.22 1.88531 -0.478147 0
M  V30 17703 O 1644.48 1.88099 0.540113 0
M  V30 17704 C 1644.78 2.04572 -2.93062 0
M  V30 17705 C 1644.44 1.40303 -4.28516 0
M  V30 17706 C 1643.1 1.22505 -4.65345 0
M  V30 17707 C 1645.46 0.940364 -5.12647 0
M  V30 17708 C 1642.78 0.570639 -5.83918 0
M  V30 17709 C 1645.14 0.299844 -6.31889 0
M  V30 17710 C 1643.8 0.109575 -6.6741 0
M  V30 17711 H 1643.07 0.395125 -0.626863 0
M  V30 17712 H 1645.72 0.358686 -1.88111 0
M  V30 17713 H 1644.02 2.83077 -2.70878 0
M  V30 17714 H 1645.72 2.61816 -3.03733 0
M  V30 17715 H 1642.31 1.55155 -3.99531 0
M  V30 17716 H 1646.49 1.06571 -4.84723 0
M  V30 17717 H 1641.75 0.411872 -6.10011 0
M  V30 17718 H 1645.92 -0.0667391 -6.96368 0
M  V30 17719 H 1643.55 -0.399556 -7.59149 0
M  V30 17720 N 1645.13 1.45684 0.601159 0
M  V30 17721 C 1646.35 1.53806 1.39135 0
M  V30 17722 C 1646.78 0.173625 1.87297 0
M  V30 17723 O 1646.13 -0.842931 1.60513 0
M  V30 17724 C 1646.18 2.53201 2.56752 0
M  V30 17725 O 1645.29 2.05427 3.57594 0
M  V30 17726 H 1644.63 0.51824 0.415118 0
M  V30 17727 H 1647.16 1.91095 0.731006 0
M  V30 17728 H 1647.17 2.72215 3.03912 0
M  V30 17729 H 1645.84 3.52294 2.21047 0
M  V30 17730 H 1644.42 1.96318 3.17039 0
M  V30 17731 N 1646.6 -0.84422 1.33082 0
M  V30 17732 C 1647.57 -1.93519 1.22813 0
M  V30 17733 C 1648.57 -1.60113 0.148516 0
M  V30 17734 O 1649.76 -1.69553 0.399668 0
M  V30 17735 C 1646.89 -3.29045 0.891179 0
M  V30 17736 H 1648.08 -2.04051 2.1978 0
M  V30 17737 H 1645.63 -1.03567 1.17063 0
M  V30 17738 H 1646.37 -3.2421 -0.0762276 0
M  V30 17739 H 1646.15 -3.54671 1.67186 0
M  V30 17740 H 1647.64 -4.08984 0.843932 0
M  V30 17741 N 1648.08 -1.16463 -1.0618 0
M  V30 17742 C 1649.33 -0.944975 -1.78647 0
M  V30 17743 C 1649.65 0.528486 -1.87702 0
M  V30 17744 O 1648.92 1.38391 -1.38653 0
M  V30 17745 H 1647.5 -0.346637 -0.661704 0
M  V30 17746 H 1650.16 -1.46752 -1.28257 0
M  V30 17747 H 1649.26 -1.36469 -2.80683 0
M  V30 17748 N 1649.56 1.24734 -0.963288 0
M  V30 17749 C 1650.51 2.25555 -0.48926 0
M  V30 17750 C 1651.48 1.59521 0.462848 0
M  V30 17751 O 1652.66 1.87095 0.374188 0
M  V30 17752 C 1649.8 3.44407 0.218629 0
M  V30 17753 C 1648.91 4.25051 -0.77173 0
M  V30 17754 C 1648.05 5.31185 -0.0403986 0
M  V30 17755 C 1647.09 6.03523 -1.02112 0
M  V30 17756 N 1646.23 7.0137 -0.320083 0
M  V30 17757 H 1651.07 2.6547 -1.35386 0
M  V30 17758 H 1648.6 1.30504 -0.678762 0
M  V30 17759 H 1650.56 4.12173 0.645701 0
M  V30 17760 H 1649.19 3.05341 1.04722 0
M  V30 17761 H 1648.24 3.56865 -1.31726 0
M  V30 17762 H 1649.55 4.75084 -1.51976 0
M  V30 17763 H 1648.71 6.05067 0.444886 0
M  V30 17764 H 1647.45 4.82048 0.740356 0
M  V30 17765 H 1646.45 5.28448 -1.51732 0
M  V30 17766 H 1647.68 6.54749 -1.80224 0
M  V30 17767 H 1645.62 6.54511 0.441775 0
M  V30 17768 H 1645.54 7.49263 -1.00705 0
M  V30 17769 H 1646.81 7.79368 0.143379 0
M  V30 17770 N 1651.04 0.732878 1.39523 0
M  V30 17771 C 1652.29 0.276787 1.99792 0
M  V30 17772 C 1652.6 -1.14181 1.58814 0
M  V30 17773 O 1653.81 -1.69731 2.11905 0
M  V30 17774 C 1652.26 0.443924 3.57152 0
M  V30 17775 C 1651.87 1.87027 4.07093 0
M  V30 17776 C 1653.61 0.0495022 4.24471 0
M  V30 17777 C 1651.52 1.98708 5.57018 0
M  V30 17778 H 1650.45 0.0997337 0.747375 0
M  V30 17779 H 1653.1 0.906454 1.59548 0
M  V30 17780 H 1651.48 -0.254605 3.95181 0
M  V30 17781 H 1652.66 2.60059 3.80403 0
M  V30 17782 H 1650.97 2.21772 3.52429 0
M  V30 17783 H 1653.57 0.115815 5.34575 0
M  V30 17784 H 1653.91 -0.994967 4.04235 0
M  V30 17785 H 1654.45 0.69911 3.91609 0
M  V30 17786 H 1651.18 3.01336 5.82131 0
M  V30 17787 H 1650.7 1.30111 5.85518 0
M  V30 17788 H 1652.38 1.76725 6.22396 0
M  V30 17789 N 1652.52 -1.50101 0.480349 0
M  V30 17790 C 1653.46 -2.28722 -0.308993 0
M  V30 17791 C 1654.43 -1.34186 -0.978948 0
M  V30 17792 O 1655.62 -1.6313 -0.989602 0
M  V30 17793 C 1652.76 -3.16322 -1.37966 0
M  V30 17794 C 1651.87 -4.25898 -0.723552 0
M  V30 17795 C 1651.01 -5.00741 -1.7729 0
M  V30 17796 C 1650.04 -6.0218 -1.09754 0
M  V30 17797 N 1649.18 -6.70266 -2.09015 0
M  V30 17798 H 1654.02 -2.95722 0.367739 0
M  V30 17799 H 1651.56 -1.45826 0.193197 0
M  V30 17800 H 1653.52 -3.65469 -2.01217 0
M  V30 17801 H 1652.15 -2.51349 -2.02543 0
M  V30 17802 H 1651.2 -3.80394 0.0217507 0
M  V30 17803 H 1652.51 -4.98435 -0.190905 0
M  V30 17804 H 1651.66 -5.53653 -2.48098 0
M  V30 17805 H 1650.4 -4.27931 -2.33937 0
M  V30 17806 H 1649.41 -5.48519 -0.375123 0
M  V30 17807 H 1650.63 -6.76967 -0.537841 0
M  V30 17808 H 1648.58 -6.00242 -2.64662 0
M  V30 17809 H 1648.5 -7.3871 -1.6076 0
M  V30 17810 H 1649.76 -7.27792 -2.79175 0
M  V30 17811 N 1653.99 -0.213323 -1.5615 0
M  V30 17812 C 1654.96 0.686579 -2.18675 0
M  V30 17813 C 1655.96 1.1277 -1.14628 0
M  V30 17814 O 1657.15 1.03783 -1.39909 0
M  V30 17815 C 1654.28 1.93954 -2.80347 0
M  V30 17816 H 1655.47 0.141578 -2.99566 0
M  V30 17817 H 1653.02 0.0362987 -1.56258 0
M  V30 17818 H 1653.76 2.52661 -2.03304 0
M  V30 17819 H 1653.54 1.63179 -3.56532 0
M  V30 17820 H 1655.03 2.58087 -3.283 0
M  V30 17821 N 1655.47 1.57485 0.0601405 0
M  V30 17822 C 1656.7 1.92438 0.773466 0
M  V30 17823 C 1657.12 0.810755 1.6973 0
M  V30 17824 O 1656.48 -0.235697 1.79761 0
M  V30 17825 C 1656.53 3.26381 1.53323 0
M  V30 17826 O 1655.63 3.16436 2.64465 0
M  V30 17827 H 1654.97 0.629838 0.210239 0
M  V30 17828 H 1657.5 2.04585 0.0248981 0
M  V30 17829 H 1657.51 3.60534 1.90996 0
M  V30 17830 H 1656.19 4.07007 0.855468 0
M  V30 17831 H 1654.77 2.93862 2.29564 0
M  V30 17832 N 1656.95 -0.331789 1.54068 0
M  V30 17833 C 1658.18 -1.09044 1.75832 0
M  V30 17834 C 1658.59 -1.81976 0.503012 0
M  V30 17835 O 1657.95 -1.74758 -0.525913 0
M  V30 17836 C 1658 -2.09489 2.94613 0
M  V30 17837 O 1657.72 -1.39521 4.1529 0
M  V30 17838 C 1659.22 -2.97637 3.28522 0
M  V30 17839 H 1656.44 -0.324701 0.587205 0
M  V30 17840 H 1658.99 -0.380417 2.00931 0
M  V30 17841 H 1657.14 -2.76038 2.71812 0
M  V30 17842 H 1657.56 -2.06717 4.82046 0
M  V30 17843 H 1659.03 -3.64027 4.14956 0
M  V30 17844 H 1659.51 -3.64292 2.45332 0
M  V30 17845 H 1660.11 -2.3666 3.53372 0
M  V30 17846 N 1658.43 -1.46001 -0.593424 0
M  V30 17847 C 1659.36 -1.58605 -1.71367 0
M  V30 17848 C 1660.34 -0.436866 -1.64394 0
M  V30 17849 O 1661.52 -0.661782 -1.82576 0
M  V30 17850 C 1658.65 -1.56587 -3.09996 0
M  V30 17851 C 1657.61 -2.70366 -3.31792 0
M  V30 17852 C 1656.93 -2.53406 -4.70839 0
M  V30 17853 C 1658.23 -4.12274 -3.20667 0
M  V30 17854 H 1659.93 -2.52379 -1.61076 0
M  V30 17855 H 1657.47 -1.21462 -0.773499 0
M  V30 17856 H 1659.43 -1.64 -3.88178 0
M  V30 17857 H 1658.15 -0.593511 -3.21162 0
M  V30 17858 H 1656.81 -2.62405 -2.56006 0
M  V30 17859 H 1656.46 -1.54278 -4.78756 0
M  V30 17860 H 1656.16 -3.29715 -4.86376 0
M  V30 17861 H 1657.68 -2.62694 -5.51203 0
M  V30 17862 H 1659.1 -4.21404 -3.88705 0
M  V30 17863 H 1657.49 -4.89085 -3.47729 0
M  V30 17864 H 1658.56 -4.33184 -2.17898 0
M  V30 17865 N 1659.91 0.83715 -1.33527 0
M  V30 17866 C 1661.13 1.62976 -1.28271 0
M  V30 17867 C 1661.56 1.87554 0.143201 0
M  V30 17868 O 1660.91 1.44088 1.10038 0
M  V30 17869 C 1660.96 2.95607 -2.06516 0
M  V30 17870 O 1660.07 3.87 -1.42494 0
M  V30 17871 H 1659.41 0.496212 -0.441214 0
M  V30 17872 H 1661.94 1.04137 -1.76115 0
M  V30 17873 H 1661.95 3.4529 -2.17344 0
M  V30 17874 H 1660.62 2.77041 -3.10195 0
M  V30 17875 H 1659.2 3.45492 -1.40321 0
M  V30 17876 N 1661.38 1.17024 1.05561 0
M  V30 17877 C 1662.31 0.906823 2.15172 0
M  V30 17878 C 1663.3 -0.149745 1.6944 0
M  V30 17879 O 1664.48 -0.000287092 1.942 0
M  V30 17880 C 1661.61 0.415251 3.44809 0
M  V30 17881 C 1660.56 1.41058 4.04088 0
M  V30 17882 C 1659.89 0.777109 5.29023 0
M  V30 17883 C 1661.19 2.78258 4.42007 0
M  V30 17884 H 1662.88 1.82347 2.37466 0
M  V30 17885 H 1660.43 0.878162 1.14124 0
M  V30 17886 H 1662.38 0.218407 4.20834 0
M  V30 17887 H 1661.11 -0.536924 3.22156 0
M  V30 17888 H 1659.77 1.5941 3.30127 0
M  V30 17889 H 1659.41 -0.181784 5.02671 0
M  V30 17890 H 1659.11 1.44151 5.69644 0
M  V30 17891 H 1660.64 0.590455 6.07738 0
M  V30 17892 H 1662.05 2.63645 5.09082 0
M  V30 17893 H 1660.45 3.41241 4.93634 0
M  V30 17894 H 1661.52 3.3295 3.52523 0
M  V30 17895 N 1662.86 -1.24221 0.969889 0
M  V30 17896 C 1664.09 -1.96943 0.650262 0
M  V30 17897 C 1664.51 -1.71437 -0.774018 0
M  V30 17898 O 1663.87 -0.979428 -1.52568 0
M  V30 17899 C 1663.92 -3.48303 0.933682 0
M  V30 17900 O 1663.02 -4.12395 0.0202425 0
M  V30 17901 H 1662.36 -0.616902 0.245618 0
M  V30 17902 H 1664.89 -1.57939 1.30063 0
M  V30 17903 H 1664.9 -3.98701 0.866106 0
M  V30 17904 H 1663.58 -3.66194 1.97166 0
M  V30 17905 H 1662.16 -3.72632 0.141327 0
M  V30 17906 N 1664.34 -0.740267 -1.39132 0
M  V30 17907 C 1665.59 -0.290953 -2.00702 0
M  V30 17908 C 1665.92 1.12051 -1.58613 0
M  V30 17909 O 1665.19 1.76488 -0.817457 0
M  V30 17910 C 1665.48 -0.398765 -3.57885 0
M  V30 17911 C 1665.33 -1.85038 -4.09977 0
M  V30 17912 C 1666.65 0.215717 -4.39571 0
M  V30 17913 H 1663.77 -0.107194 -0.729163 0
M  V30 17914 H 1666.41 -0.937411 -1.65265 0
M  V30 17915 H 1664.56 0.151613 -3.88204 0
M  V30 17916 H 1666.23 -2.45804 -3.90357 0
M  V30 17917 H 1664.48 -2.36994 -3.63341 0
M  V30 17918 H 1665.15 -1.87705 -5.19106 0
M  V30 17919 H 1667.62 -0.253518 -4.15327 0
M  V30 17920 H 1666.5 0.109966 -5.4879 0
M  V30 17921 H 1666.76 1.30242 -4.2248 0
M  V30 17922 N 1665.82 1.49844 -0.488302 0
M  V30 17923 C 1666.75 2.31737 0.286432 0
M  V30 17924 C 1667.73 1.39424 0.974418 0
M  V30 17925 O 1668.91 1.68339 0.968274 0
M  V30 17926 C 1666.04 3.19616 1.35878 0
M  V30 17927 C 1665 4.20619 0.791409 0
M  V30 17928 C 1664.32 4.9735 1.96333 0
M  V30 17929 C 1665.62 5.21882 -0.208975 0
M  V30 17930 H 1667.32 2.96755 -0.397092 0
M  V30 17931 H 1664.86 1.42709 -0.192413 0
M  V30 17932 H 1666.82 3.75711 1.90838 0
M  V30 17933 H 1665.54 2.52516 2.07131 0
M  V30 17934 H 1664.2 3.65651 0.263647 0
M  V30 17935 H 1663.85 4.26708 2.66325 0
M  V30 17936 H 1663.55 5.65684 1.58983 0
M  V30 17937 H 1665.07 5.56286 2.51751 0
M  V30 17938 H 1666.49 5.72746 0.252049 0
M  V30 17939 H 1664.88 5.98033 -0.497638 0
M  V30 17940 H 1665.95 4.7157 -1.12916 0
M  V30 17941 N 1667.3 0.221601 1.56034 0
M  V30 17942 C 1668.54 -0.410695 1.98598 0
M  V30 17943 C 1668.88 -1.59412 1.10912 0
M  V30 17944 O 1668.15 -1.93783 0.166819 0
M  V30 17945 C 1668.43 -0.845199 3.50041 0
M  V30 17946 C 1668.29 0.341866 4.48499 0
M  V30 17947 C 1669.61 -1.70135 4.05884 0
M  V30 17948 H 1666.72 -0.147808 0.722026 0
M  V30 17949 H 1669.37 0.317846 1.87323 0
M  V30 17950 H 1667.52 -1.46597 3.5978 0
M  V30 17951 H 1669.19 0.980014 4.5077 0
M  V30 17952 H 1667.43 0.989294 4.22369 0
M  V30 17953 H 1668.1 -0.00509234 5.52 0
M  V30 17954 H 1670.58 -1.17757 3.9909 0
M  V30 17955 H 1669.45 -1.97427 5.12166 0
M  V30 17956 H 1669.72 -2.66469 3.5277 0
M  V30 17957 N 1668.77 -1.57515 -0.0517878 0
M  V30 17958 C 1669.7 -2.0809 -1.05929 0
M  V30 17959 C 1670.69 -0.978529 -1.39136 0
M  V30 17960 O 1671.87 -1.25245 -1.48416 0
M  V30 17961 C 1669 -2.54147 -2.36699 0
M  V30 17962 C 1667.95 -3.68442 -2.17794 0
M  V30 17963 C 1667.28 -4.00624 -3.54125 0
M  V30 17964 C 1668.58 -4.97743 -1.5827 0
M  V30 17965 H 1670.27 -2.92515 -0.638371 0
M  V30 17966 H 1667.82 -1.40719 -0.305625 0
M  V30 17967 H 1669.77 -2.88145 -3.07491 0
M  V30 17968 H 1668.5 -1.66775 -2.80809 0
M  V30 17969 H 1667.16 -3.34758 -1.4944 0
M  V30 17970 H 1666.8 -3.10353 -3.95841 0
M  V30 17971 H 1666.5 -4.77597 -3.42308 0
M  V30 17972 H 1668.03 -4.37136 -4.26315 0
M  V30 17973 H 1669.44 -5.29843 -2.18951 0
M  V30 17974 H 1667.84 -5.79173 -1.57094 0
M  V30 17975 H 1668.91 -4.81815 -0.546127 0
M  V30 17976 N 1670.25 0.323614 -1.54242 0
M  V30 17977 C 1671.5 1.05909 -1.71657 0
M  V30 17978 C 1671.82 1.89177 -0.497151 0
M  V30 17979 O 1673.02 2.65816 -0.552649 0
M  V30 17980 C 1671.48 1.93246 -3.03618 0
M  V30 17981 C 1671.09 1.1509 -4.32965 0
M  V30 17982 C 1672.83 2.6653 -3.30397 0
M  V30 17983 C 1670.74 2.01573 -5.55988 0
M  V30 17984 H 1669.67 0.399114 -0.639706 0
M  V30 17985 H 1672.32 0.317338 -1.80735 0
M  V30 17986 H 1670.7 2.71319 -2.88447 0
M  V30 17987 H 1671.87 0.417877 -4.58901 0
M  V30 17988 H 1670.19 0.534882 -4.1295 0
M  V30 17989 H 1672.79 3.31542 -4.19504 0
M  V30 17990 H 1673.13 3.34164 -2.48274 0
M  V30 17991 H 1673.66 1.95518 -3.46435 0
M  V30 17992 H 1670.4 1.38446 -6.40713 0
M  V30 17993 H 1669.92 2.72609 -5.3427 0
M  V30 17994 H 1671.6 2.60159 -5.9239 0
M  V30 17995 N 1671.73 1.46313 0.585673 0
M  V30 17996 C 1672.64 1.59232 1.72286 0
M  V30 17997 C 1673.66 0.475912 1.67365 0
M  V30 17998 O 1674.83 0.739627 1.87327 0
M  V30 17999 C 1671.9 1.57647 3.08785 0
M  V30 18000 C 1670.96 2.80497 3.24992 0
M  V30 18001 C 1670.19 2.78978 4.5498 0
M  V30 18002 O 1670.42 1.87553 5.38684 0
M  V30 18003 O 1669.35 3.7048 4.74371 0
M  V30 18004 H 1673.18 2.55398 1.64334 0
M  V30 18005 H 1670.76 1.29073 0.752369 0
M  V30 18006 H 1672.64 1.59448 3.90069 0
M  V30 18007 H 1671.32 0.6464 3.1718 0
M  V30 18008 H 1670.22 2.8425 2.43213 0
M  V30 18009 H 1671.56 3.72703 3.21487 0
M  V30 18010 N 1673.21 -0.830057 1.33969 0
M  V30 18011 C 1674.14 -1.94534 1.19297 0
M  V30 18012 C 1675.12 -1.62371 0.0862986 0
M  V30 18013 O 1676.3 -1.86833 0.250152 0
M  V30 18014 C 1673.43 -3.28329 0.831718 0
M  V30 18015 C 1672.48 -3.79459 1.94713 0
M  V30 18016 S 1673.31 -4.00075 3.5595 0
M  V30 18017 C 1674.47 -5.36808 3.21851 0
M  V30 18018 H 1674.7 -2.06683 2.13704 0
M  V30 18019 H 1672.23 -0.984833 1.18913 0
M  V30 18020 H 1674.19 -4.05636 0.630076 0
M  V30 18021 H 1672.85 -3.1396 -0.0939047 0
M  V30 18022 H 1672.04 -4.76297 1.64795 0
M  V30 18023 H 1671.65 -3.09076 2.10589 0
M  V30 18024 H 1673.94 -6.19964 2.73223 0
M  V30 18025 H 1674.88 -5.71705 4.17802 0
M  V30 18026 H 1675.29 -5.0198 2.58217 0
M  V30 18027 N 1674.69 -1.17582 -1.04939 0
M  V30 18028 C 1675.93 -0.965778 -1.77986 0
M  V30 18029 C 1676.26 0.505366 -1.8782 0
M  V30 18030 O 1675.52 1.39132 -1.37625 0
M  V30 18031 C 1675.82 -1.55507 -3.21796 0
M  V30 18032 C 1675.48 -3.05086 -3.32014 0
M  V30 18033 C 1674.14 -3.45914 -3.3451 0
M  V30 18034 C 1676.5 -4.01096 -3.32824 0
M  V30 18035 C 1673.82 -4.81344 -3.35447 0
M  V30 18036 C 1676.18 -5.3643 -3.353 0
M  V30 18037 C 1674.84 -5.76718 -3.36084 0
M  V30 18038 H 1674.11 -0.353403 -0.651297 0
M  V30 18039 H 1676.76 -1.46512 -1.23315 0
M  V30 18040 H 1675.06 -0.977509 -3.7941 0
M  V30 18041 H 1676.76 -1.36807 -3.76941 0
M  V30 18042 H 1673.35 -2.72541 -3.30786 0
M  V30 18043 H 1677.53 -3.7061 -3.30094 0
M  V30 18044 H 1672.79 -5.11868 -3.34366 0
M  V30 18045 H 1676.96 -6.106 -3.34874 0
M  V30 18046 H 1674.59 -6.81637 -3.36563 0
M  V30 18047 N 1676.17 1.23705 -0.976463 0
M  V30 18048 C 1677.11 2.27034 -0.505813 0
M  V30 18049 C 1678.11 1.63716 0.435148 0
M  V30 18050 O 1679.31 1.7732 0.309474 0
M  V30 18051 H 1675.69 0.737862 -0.145131 0
M  V30 18052 H 1677.66 2.64097 -1.38908 0
M  V30 18053 C 1676.41 3.47234 0.179987 0
M  V30 18054 H 1675.73 3.96205 -0.534969 0
M  V30 18055 H 1677.17 4.21353 0.472996 0
M  V30 18056 C 1675.63 3.05979 1.40991 0
M  V30 18057 O 1676.16 3.13914 2.50641 0
M  V30 18058 N 1674.37 2.60934 1.27913 0
M  V30 18059 H 1673.91 2.54677 0.38696 0
M  V30 18060 H 1673.87 2.33697 2.10316 0
M  V30 18061 N 1677.64 0.747635 1.38738 0
M  V30 18062 C 1678.61 0.124321 2.28863 0
M  V30 18063 C 1679.61 -0.653816 1.46908 0
M  V30 18064 O 1680.8 -0.480963 1.67429 0
M  V30 18065 C 1677.93 -0.832601 3.30576 0
M  V30 18066 H 1679.12 0.918492 2.85489 0
M  V30 18067 H 1676.67 0.514262 1.47598 0
M  V30 18068 H 1677.41 -1.65267 2.79029 0
M  V30 18069 H 1677.19 -0.277109 3.9112 0
M  V30 18070 H 1678.68 -1.2649 3.97982 0
M  V30 18071 N 1679.12 -1.49583 0.496242 0
M  V30 18072 C 1680.05 -2.31885 -0.274139 0
M  V30 18073 C 1681.03 -1.39939 -0.96701 0
M  V30 18074 O 1682.22 -1.6885 -0.959333 0
M  V30 18075 C 1679.35 -3.20332 -1.34181 0
M  V30 18076 C 1678.3 -4.21033 -0.769091 0
M  V30 18077 C 1677.63 -4.98385 -1.93693 0
M  V30 18078 C 1678.93 -5.21764 0.236648 0
M  V30 18079 H 1680.62 -2.9654 0.412824 0
M  V30 18080 H 1678.17 -1.42605 0.199979 0
M  V30 18081 H 1680.12 -3.76718 -1.88843 0
M  V30 18082 H 1678.84 -2.53611 -2.05789 0
M  V30 18083 H 1677.5 -3.65785 -0.244252 0
M  V30 18084 H 1677.15 -4.28115 -2.64058 0
M  V30 18085 H 1676.85 -5.66519 -1.55981 0
M  V30 18086 H 1678.38 -5.57613 -2.48798 0
M  V30 18087 H 1679.79 -5.72871 -0.221672 0
M  V30 18088 H 1678.19 -5.97761 0.529346 0
M  V30 18089 H 1679.26 -4.70964 1.15415 0
M  V30 18090 N 1680.6 -0.229873 -1.55915 0
M  V30 18091 C 1681.55 0.693198 -2.2203 0
M  V30 18092 C 1682.54 1.1933 -1.20236 0
M  V30 18093 O 1683.75 1.15217 -1.38294 0
M  V30 18094 H 1680.12 0.241986 -0.712002 0
M  V30 18095 H 1682.09 0.112229 -2.98189 0
M  V30 18096 C 1680.84 1.88688 -2.92048 0
M  V30 18097 H 1680.17 1.51119 -3.70139 0
M  V30 18098 H 1681.61 2.51036 -3.41697 0
M  V30 18099 C 1680.06 2.74747 -1.94976 0
M  V30 18100 O 1680.59 3.73759 -1.47198 0
M  V30 18101 N 1678.8 2.40956 -1.62445 0
M  V30 18102 H 1678.35 1.60494 -2.01493 0
M  V30 18103 H 1678.31 2.98816 -0.977581 0
M  V30 18104 N 1682.08 1.5754 0.0434337 0
M  V30 18105 C 1683.04 2.046 1.03303 0
M  V30 18106 C 1684.04 0.947648 1.29909 0
M  V30 18107 O 1685.23 1.21171 1.25153 0
M  V30 18108 C 1682.36 2.45077 2.36961 0
M  V30 18109 H 1683.56 2.93276 0.626822 0
M  V30 18110 H 1681.11 1.53588 0.289909 0
M  V30 18111 H 1681.84 1.59513 2.82358 0
M  V30 18112 H 1681.63 3.25252 2.18983 0
M  V30 18113 H 1683.12 2.81963 3.08037 0
M  V30 18114 N 1683.56 -0.31543 1.54411 0
M  V30 18115 C 1684.49 -1.39353 1.87358 0
M  V30 18116 C 1685.47 -1.53586 0.731118 0
M  V30 18117 O 1686.65 -1.67332 0.98558 0
M  V30 18118 C 1683.78 -2.75998 2.10814 0
M  V30 18119 C 1682.74 -2.76545 3.2666 0
M  V30 18120 C 1682.06 -4.16343 3.35504 0
M  V30 18121 C 1683.36 -2.39567 4.64117 0
M  V30 18122 H 1685.06 -1.12028 2.77651 0
M  V30 18123 H 1682.6 -0.537476 1.33593 0
M  V30 18124 H 1684.55 -3.51491 2.32447 0
M  V30 18125 H 1683.28 -3.04817 1.17278 0
M  V30 18126 H 1681.94 -2.03507 3.04927 0
M  V30 18127 H 1681.59 -4.42316 2.39512 0
M  V30 18128 H 1681.29 -4.17613 4.13368 0
M  V30 18129 H 1682.81 -4.93637 3.59381 0
M  V30 18130 H 1684.22 -3.04775 4.85577 0
M  V30 18131 H 1682.62 -2.52075 5.4459 0
M  V30 18132 H 1683.69 -1.34707 4.65813 0
M  V30 18133 N 1685.03 -1.46622 -0.577906 0
M  V30 18134 C 1686.26 -1.56 -1.36671 0
M  V30 18135 C 1686.68 -0.2034 -1.86997 0
M  V30 18136 O 1686.04 0.817288 -1.61834 0
M  V30 18137 C 1686.09 -2.57254 -2.52691 0
M  V30 18138 O 1685.19 -2.1109 -3.54281 0
M  V30 18139 H 1684.54 -0.524779 -0.406821 0
M  V30 18140 H 1687.07 -1.92234 -0.700512 0
M  V30 18141 H 1687.08 -2.77016 -2.99543 0
M  V30 18142 H 1685.75 -3.55766 -2.15415 0
M  V30 18143 H 1684.33 -2.01337 -3.13875 0
M  V30 18144 N 1686.51 0.822941 -1.34408 0
M  V30 18145 C 1687.42 1.96567 -1.28056 0
M  V30 18146 C 1688.44 1.72979 -0.188251 0
M  V30 18147 O 1689.61 1.97084 -0.41472 0
M  V30 18148 C 1686.68 3.30865 -1.03583 0
M  V30 18149 C 1685.74 3.67461 -2.2197 0
M  V30 18150 C 1684.97 4.9535 -1.98655 0
M  V30 18151 O 1685.2 5.62521 -0.944785 0
M  V30 18152 O 1684.13 5.29824 -2.85605 0
M  V30 18153 H 1687.96 2.0487 -2.24192 0
M  V30 18154 H 1685.54 0.958334 -1.14614 0
M  V30 18155 H 1687.42 4.11298 -0.917162 0
M  V30 18156 H 1686.1 3.2353 -0.104868 0
M  V30 18157 H 1685.01 2.87472 -2.39396 0
M  V30 18158 H 1686.34 3.79481 -3.13456 0
M  V30 18159 N 1687.99 1.18137 1.04314 0
M  V30 18160 C 1689.22 0.998567 1.80865 0
M  V30 18161 C 1689.63 -0.456239 1.83617 0
M  V30 18162 O 1688.97 -1.32867 1.26855 0
M  V30 18163 C 1689.03 1.47397 3.27894 0
M  V30 18164 C 1688.7 2.95266 3.48808 0
M  V30 18165 C 1689.69 3.93139 3.40202 0
M  V30 18166 C 1687.38 3.33641 3.75485 0
M  V30 18167 C 1689.37 5.27383 3.57974 0
M  V30 18168 C 1687.06 4.68049 3.92904 0
M  V30 18169 C 1688.06 5.64729 3.84149 0
M  V30 18170 O 1687.75 6.96704 4.01072 0
M  V30 18171 H 1687.48 0.353025 0.576498 0
M  V30 18172 H 1690.03 1.57054 1.32375 0
M  V30 18173 H 1688.26 0.845625 3.77341 0
M  V30 18174 H 1689.95 1.25546 3.85996 0
M  V30 18175 H 1690.72 3.64838 3.1956 0
M  V30 18176 H 1686.6 2.58951 3.81399 0
M  V30 18177 H 1690.14 6.02831 3.51056 0
M  V30 18178 H 1686.04 4.96052 4.1304 0
M  V30 18179 H 1686.81 7.03571 4.18246 0
M  V30 18180 N 1689.47 -1.23186 0.98301 0
M  V30 18181 C 1690.42 -2.26762 0.517846 0
M  V30 18182 C 1691.41 -1.63944 -0.426459 0
M  V30 18183 O 1692.62 -1.77481 -0.300065 0
M  V30 18184 H 1688.99 -0.737082 0.149042 0
M  V30 18185 H 1690.96 -2.63356 1.40307 0
M  V30 18186 C 1689.71 -3.47324 -0.16157 0
M  V30 18187 H 1689.03 -3.95915 0.555973 0
M  V30 18188 H 1690.47 -4.21598 -0.450644 0
M  V30 18189 C 1688.93 -3.06722 -1.39366 0
M  V30 18190 O 1689.46 -3.15239 -2.48973 0
M  V30 18191 N 1687.67 -2.61609 -1.26528 0
M  V30 18192 H 1687.22 -2.54879 -0.373449 0
M  V30 18193 H 1687.17 -2.34809 -2.09074 0
M  V30 18194 N 1690.95 -0.754982 -1.38339 0
M  V30 18195 C 1692.17 -0.321355 -2.04895 0
M  V30 18196 C 1692.6 1.04249 -1.56569 0
M  V30 18197 O 1691.95 1.66464 -0.718299 0
M  V30 18198 C 1692 -0.354873 -3.5885 0
M  V30 18199 O 1691.11 0.65063 -4.07235 0
M  V30 18200 H 1690.45 -0.142033 -0.648631 0
M  V30 18201 H 1692.98 -1.02649 -1.76987 0
M  V30 18202 H 1692.99 -0.206243 -4.07478 0
M  V30 18203 H 1691.66 -1.34994 -3.93382 0
M  V30 18204 H 1690.24 0.466498 -3.69971 0
M  V30 18205 N 1692.42 1.49318 -0.504168 0
M  V30 18206 C 1693.35 2.32027 0.261837 0
M  V30 18207 C 1694.34 1.4045 0.959575 0
M  V30 18208 O 1695.52 1.69357 0.950365 0
M  V30 18209 C 1692.65 3.21039 1.3248 0
M  V30 18210 C 1691.6 4.21435 0.746752 0
M  V30 18211 C 1690.93 4.99405 1.91047 0
M  V30 18212 C 1692.23 5.21631 -0.264315 0
M  V30 18213 H 1693.92 2.96317 -0.428544 0
M  V30 18214 H 1691.47 1.42497 -0.207539 0
M  V30 18215 H 1693.42 3.77714 1.86843 0
M  V30 18216 H 1692.15 2.54699 2.04441 0
M  V30 18217 H 1690.81 3.6591 0.22485 0
M  V30 18218 H 1690.45 4.29509 2.61784 0
M  V30 18219 H 1690.15 5.67338 1.52975 0
M  V30 18220 H 1691.68 5.58924 2.45837 0
M  V30 18221 H 1693.09 5.72981 0.191288 0
M  V30 18222 H 1691.49 5.97472 -0.561039 0
M  V30 18223 H 1692.56 4.70346 -1.17911 0
M  V30 18224 N 1693.9 0.238138 1.5579 0
M  V30 18225 C 1695.15 -0.389031 1.98728 0
M  V30 18226 C 1695.48 -1.58584 1.12612 0
M  V30 18227 O 1694.73 -1.94917 0.174879 0
M  V30 18228 C 1695.03 -0.850646 3.47129 0
M  V30 18229 C 1694.7 0.237442 4.50274 0
M  V30 18230 C 1693.36 0.536307 4.78202 0
M  V30 18231 C 1695.71 0.972476 5.12047 0
M  V30 18232 C 1693.04 1.57443 5.6518 0
M  V30 18233 C 1695.39 2.00006 6.0015 0
M  V30 18234 C 1694.06 2.30566 6.26415 0
M  V30 18235 H 1693.33 -0.142357 0.727197 0
M  V30 18236 H 1695.97 0.34413 1.88383 0
M  V30 18237 H 1694.28 -1.66286 3.54762 0
M  V30 18238 H 1695.97 -1.34604 3.77734 0
M  V30 18239 H 1692.56 -0.00564033 4.286 0
M  V30 18240 H 1696.75 0.75483 4.90526 0
M  V30 18241 H 1692 1.81664 5.83788 0
M  V30 18242 H 1696.18 2.57458 6.47061 0
M  V30 18243 H 1693.81 3.11148 6.93607 0
M  V30 18244 N 1695.38 -1.57561 -0.0350783 0
M  V30 18245 C 1696.29 -2.09558 -1.05464 0
M  V30 18246 C 1697.31 -1.03288 -1.40027 0
M  V30 18247 O 1698.48 -1.34987 -1.49467 0
M  V30 18248 C 1695.55 -2.55966 -2.33842 0
M  V30 18249 C 1694.61 -3.76693 -2.05915 0
M  V30 18250 C 1693.84 -4.20878 -3.28172 0
M  V30 18251 O 1694.06 -3.64634 -4.38632 0
M  V30 18252 O 1693 -5.13367 -3.14225 0
M  V30 18253 H 1696.82 -2.9682 -0.642771 0
M  V30 18254 H 1694.41 -1.47265 -0.251668 0
M  V30 18255 H 1696.29 -2.86173 -3.09327 0
M  V30 18256 H 1694.97 -1.71818 -2.74336 0
M  V30 18257 H 1693.87 -3.51514 -1.28018 0
M  V30 18258 H 1695.21 -4.61807 -1.70281 0
M  V30 18259 N 1696.86 0.307236 -1.54576 0
M  V30 18260 C 1698.11 1.04082 -1.72771 0
M  V30 18261 C 1698.42 1.88639 -0.517188 0
M  V30 18262 O 1699.63 2.65215 -0.580811 0
M  V30 18263 C 1698.08 1.90015 -3.05651 0
M  V30 18264 C 1697.69 1.10491 -4.34161 0
M  V30 18265 C 1699.43 2.6301 -3.33205 0
M  V30 18266 C 1697.34 1.95664 -5.58094 0
M  V30 18267 H 1696.27 0.392307 -0.643903 0
M  V30 18268 H 1698.92 0.29815 -1.81062 0
M  V30 18269 H 1697.3 2.68245 -2.91309 0
M  V30 18270 H 1698.48 0.369181 -4.59319 0
M  V30 18271 H 1696.79 0.491053 -4.13494 0
M  V30 18272 H 1699.39 3.27074 -4.22997 0
M  V30 18273 H 1699.73 3.31512 -2.51804 0
M  V30 18274 H 1700.27 1.91833 -3.4849 0
M  V30 18275 H 1697.01 1.31643 -6.42145 0
M  V30 18276 H 1696.53 2.66927 -5.37131 0
M  V30 18277 H 1698.2 2.53861 -5.95116 0
M  V30 18278 N 1698.34 1.46926 0.570122 0
M  V30 18279 C 1699.75 1.469 1.15227 0
M  V30 18280 C 1700.1 0.216651 1.95 0
M  V30 18281 O 1699.22 -0.679388 2.05459 0
M  V30 18282 C 1699.82 2.66158 2.09632 0
M  V30 18283 C 1698.38 2.69133 2.63144 0
M  V30 18284 C 1697.52 2.39795 1.39262 0
M  V30 18285 H 1700.48 1.54623 0.35739 0
M  V30 18286 H 1700.5 2.42393 2.93302 0
M  V30 18287 H 1700.01 3.5729 1.51543 0
M  V30 18288 H 1698.11 1.82106 3.25066 0
M  V30 18289 H 1698.22 3.69459 3.05019 0
M  V30 18290 H 1696.59 1.9011 1.695 0
M  V30 18291 H 1697.37 3.33119 0.829855 0
M  V30 18292 N 1699.82 -0.815801 1.34842 0
M  V30 18293 C 1701.23 -1.38911 1.24742 0
M  V30 18294 C 1701.58 -1.95807 -0.124101 0
M  V30 18295 O 1700.7 -1.906 -1.02472 0
M  V30 18296 C 1701.3 -2.52532 2.25861 0
M  V30 18297 C 1699.86 -3.05751 2.1953 0
M  V30 18298 C 1699 -1.78661 2.12075 0
M  V30 18299 H 1701.95 -0.619601 1.46105 0
M  V30 18300 H 1701.98 -3.30826 1.87974 0
M  V30 18301 H 1701.49 -2.11092 3.25671 0
M  V30 18302 H 1699.59 -3.51678 1.23099 0
M  V30 18303 H 1699.7 -3.64358 3.11095 0
M  V30 18304 H 1698.07 -1.99844 1.57907 0
M  V30 18305 H 1698.85 -1.39385 3.1373 0
M  V30 18306 N 1701.29 -1.18689 -1.03686 0
M  V30 18307 C 1702.54 -0.996079 -1.77341 0
M  V30 18308 C 1702.89 0.468989 -1.86597 0
M  V30 18309 O 1702.19 1.34372 -1.36583 0
M  V30 18310 C 1702.38 -1.58911 -3.20128 0
M  V30 18311 C 1702.21 -3.11032 -3.24791 0
M  V30 18312 C 1700.98 -3.79876 -3.332 0
M  V30 18313 C 1703.18 -4.0848 -3.12488 0
M  V30 18314 N 1701.16 -5.19465 -3.27153 0
M  V30 18315 C 1702.53 -5.34616 -3.13984 0
M  V30 18316 C 1704.59 -3.99947 -2.96558 0
M  V30 18317 C 1703.29 -6.53208 -3.01185 0
M  V30 18318 C 1705.32 -5.1814 -2.85106 0
M  V30 18319 C 1704.68 -6.4317 -2.87249 0
M  V30 18320 H 1700.78 -0.418538 -0.660568 0
M  V30 18321 H 1703.36 -1.50528 -1.23488 0
M  V30 18322 H 1701.53 -1.10603 -3.72319 0
M  V30 18323 H 1703.26 -1.33344 -3.82101 0
M  V30 18324 H 1700.02 -3.30627 -3.39091 0
M  V30 18325 H 1700.44 -5.92482 -3.27558 0
M  V30 18326 H 1705.08 -3.04111 -2.93729 0
M  V30 18327 H 1702.8 -7.49239 -3.02766 0
M  V30 18328 H 1706.39 -5.13332 -2.73828 0
M  V30 18329 H 1705.27 -7.33089 -2.78479 0
M  V30 18330 N 1702.77 1.22662 -0.989529 0
M  V30 18331 C 1704.19 1.43445 -0.699687 0
M  V30 18332 C 1704.39 1.87778 0.730875 0
M  V30 18333 O 1703.44 2.02953 1.5022 0
M  V30 18334 C 1704.76 2.47869 -1.70239 0
M  V30 18335 C 1706.3 2.61672 -1.71746 0
M  V30 18336 C 1706.78 3.69315 -2.7087 0
M  V30 18337 N 1708.27 3.76768 -2.69444 0
M  V30 18338 C 1709.01 4.59641 -3.42808 0
M  V30 18339 N 1708.5 5.46533 -4.25762 0
M  V30 18340 N 1710.29 4.53921 -3.3153 0
M  V30 18341 H 1702.45 0.921912 -1.91349 0
M  V30 18342 H 1704.71 0.466905 -0.825048 0
M  V30 18343 H 1704.41 2.22233 -2.7259 0
M  V30 18344 H 1704.29 3.46415 -1.49254 0
M  V30 18345 H 1706.68 2.86655 -0.70094 0
M  V30 18346 H 1706.76 1.63413 -1.96799 0
M  V30 18347 H 1706.4 3.4508 -3.72669 0
M  V30 18348 H 1706.33 4.67136 -2.43088 0
M  V30 18349 H 1708.82 3.1468 -2.09249 0
M  V30 18350 H 1709.13 6.06783 -4.78575 0
M  V30 18351 H 1707.48 5.46126 -4.2985 0
M  V30 18352 H 1710.67 3.85062 -2.66168 0
M  V30 18353 H 1710.84 5.18277 -3.88964 0
M  V30 18354 N 1704.25 0.762308 1.37937 0
M  V30 18355 C 1705.2 0.129897 2.32237 0
M  V30 18356 C 1706.19 -0.695577 1.54461 0
M  V30 18357 O 1707.4 -0.593697 1.69927 0
M  V30 18358 H 1703.77 0.023214 0.751642 0
M  V30 18359 H 1705.74 0.941144 2.8317 0
M  V30 18360 C 1704.49 -0.742235 3.39685 0
M  V30 18361 H 1703.82 -0.116427 3.9963 0
M  V30 18362 H 1705.26 -1.15187 4.08054 0
M  V30 18363 C 1703.71 -1.8887 2.7898 0
M  V30 18364 O 1704.24 -2.98351 2.68979 0
M  V30 18365 N 1702.45 -1.68642 2.36661 0
M  V30 18366 H 1702 -0.795945 2.44995 0
M  V30 18367 H 1701.96 -2.45519 1.96387 0
M  V30 18368 N 1705.73 -1.49049 0.51208 0
M  V30 18369 C 1706.66 -2.26122 -0.307291 0
M  V30 18370 C 1707.64 -1.31187 -0.960666 0
M  V30 18371 O 1708.82 -1.60497 -0.988588 0
M  V30 18372 C 1705.95 -3.06861 -1.43367 0
M  V30 18373 C 1705 -4.17035 -0.89354 0
M  V30 18374 S 1705.83 -5.35029 0.224474 0
M  V30 18375 C 1706.98 -6.19326 -0.904806 0
M  V30 18376 H 1707.22 -2.9527 0.346844 0
M  V30 18377 H 1704.75 -1.51506 0.297556 0
M  V30 18378 H 1706.71 -3.5396 -2.079 0
M  V30 18379 H 1705.37 -2.37161 -2.05946 0
M  V30 18380 H 1704.56 -4.73085 -1.738 0
M  V30 18381 H 1704.16 -3.72583 -0.325227 0
M  V30 18382 H 1706.46 -6.52942 -1.80756 0
M  V30 18383 H 1707.4 -7.07065 -0.382676 0
M  V30 18384 H 1707.81 -5.5209 -1.17714 0
M  V30 18385 N 1707.21 -0.246397 -1.55662 0
M  V30 18386 C 1708.44 0.38209 -2.03036 0
M  V30 18387 C 1708.84 1.52119 -1.12501 0
M  V30 18388 O 1708.19 1.83227 -0.131753 0
M  V30 18389 C 1708.25 0.952012 -3.46666 0
M  V30 18390 C 1707.91 -0.0547805 -4.56967 0
M  V30 18391 C 1708.91 -0.864138 -5.12668 0
M  V30 18392 C 1706.59 -0.180725 -5.01975 0
M  V30 18393 C 1708.59 -1.7859 -6.1187 0
M  V30 18394 C 1706.28 -1.106 -6.01008 0
M  V30 18395 C 1707.27 -1.90711 -6.55834 0
M  V30 18396 O 1706.96 -2.81678 -7.52936 0
M  V30 18397 H 1706.69 0.095009 -0.66929 0
M  V30 18398 H 1709.25 -0.367701 -2.02082 0
M  V30 18399 H 1707.48 1.75136 -3.44767 0
M  V30 18400 H 1709.17 1.49052 -3.77542 0
M  V30 18401 H 1709.93 -0.77742 -4.78729 0
M  V30 18402 H 1705.81 0.432761 -4.58964 0
M  V30 18403 H 1709.36 -2.41162 -6.54589 0
M  V30 18404 H 1705.25 -1.19364 -6.34368 0
M  V30 18405 H 1706.02 -2.76034 -7.7055 0
M  V30 18406 N 1708.68 1.57577 0.026722 0
M  V30 18407 C 1709.61 2.09748 1.02605 0
M  V30 18408 C 1710.59 1.00054 1.37562 0
M  V30 18409 O 1711.78 1.2759 1.46405 0
M  V30 18410 C 1708.91 2.57881 2.32626 0
M  V30 18411 C 1707.86 3.7186 2.11905 0
M  V30 18412 C 1707.19 4.06208 3.47706 0
M  V30 18413 C 1708.49 5.00198 1.50332 0
M  V30 18414 H 1710.18 2.93494 0.591753 0
M  V30 18415 H 1707.73 1.41188 0.283199 0
M  V30 18416 H 1709.68 2.93 3.02868 0
M  V30 18417 H 1708.41 1.71222 2.7812 0
M  V30 18418 H 1707.07 3.37094 1.44096 0
M  V30 18419 H 1706.71 3.16611 3.90853 0
M  V30 18420 H 1706.41 4.82982 3.34667 0
M  V30 18421 H 1707.94 4.43863 4.19306 0
M  V30 18422 H 1709.35 5.33259 2.10494 0
M  V30 18423 H 1707.75 5.81599 1.4786 0
M  V30 18424 H 1708.82 4.82623 0.469405 0
M  V30 18425 N 1710.16 -0.299034 1.54737 0
M  V30 18426 C 1711.41 -1.03553 1.74369 0
M  V30 18427 C 1711.74 -1.86856 0.529019 0
M  V30 18428 O 1711.02 -1.8864 -0.473854 0
M  V30 18429 C 1711.3 -1.93988 3.03382 0
M  V30 18430 C 1711.15 -1.13852 4.35153 0
M  V30 18431 C 1712.47 -2.93128 3.28274 0
M  V30 18432 H 1709.59 -0.375055 0.634431 0
M  V30 18433 H 1712.23 -0.310018 1.87454 0
M  V30 18434 H 1710.38 -2.5585 2.92358 0
M  V30 18435 H 1712.05 -0.542614 4.58098 0
M  V30 18436 H 1710.3 -0.441278 4.3155 0
M  V30 18437 H 1710.97 -1.80385 5.21694 0
M  V30 18438 H 1713.44 -2.41396 3.38921 0
M  V30 18439 H 1712.32 -3.53569 4.19857 0
M  V30 18440 H 1712.58 -3.66892 2.46663 0
M  V30 18441 N 1711.64 -1.47227 -0.562322 0
M  V30 18442 C 1712.57 -1.62204 -1.67965 0
M  V30 18443 C 1713.55 -0.471638 -1.63431 0
M  V30 18444 O 1714.74 -0.70036 -1.81131 0
M  V30 18445 C 1711.87 -1.63127 -3.06605 0
M  V30 18446 C 1710.82 -2.77343 -3.25983 0
M  V30 18447 C 1710.15 -2.63336 -4.65358 0
M  V30 18448 C 1711.45 -4.18983 -3.1185 0
M  V30 18449 H 1713.14 -2.55739 -1.55686 0
M  V30 18450 H 1710.69 -1.23075 -0.747561 0
M  V30 18451 H 1712.64 -1.72197 -3.84612 0
M  V30 18452 H 1711.36 -0.661501 -3.19831 0
M  V30 18453 H 1710.02 -2.67776 -2.50383 0
M  V30 18454 H 1709.67 -1.64398 -4.75376 0
M  V30 18455 H 1709.37 -3.39957 -4.79273 0
M  V30 18456 H 1710.89 -2.74327 -5.45506 0
M  V30 18457 H 1712.31 -4.29554 -3.79679 0
M  V30 18458 H 1710.7 -4.96351 -3.37277 0
M  V30 18459 H 1711.77 -4.37709 -2.08661 0
M  V30 18460 N 1713.12 0.808639 -1.35273 0
M  V30 18461 C 1714.08 1.90195 -1.279 0
M  V30 18462 C 1715.08 1.59663 -0.190915 0
M  V30 18463 O 1716.27 1.68434 -0.444482 0
M  V30 18464 C 1713.4 3.26567 -0.978106 0
M  V30 18465 H 1714.6 1.98152 -2.25113 0
M  V30 18466 H 1712.15 1.00426 -1.19767 0
M  V30 18467 H 1712.88 3.24299 -0.00975789 0
M  V30 18468 H 1712.67 3.50114 -1.7653 0
M  V30 18469 H 1714.16 4.06602 -0.95207 0
M  V30 18470 N 1714.6 1.19237 1.03055 0
M  V30 18471 C 1715.82 1.01917 1.80057 0
M  V30 18472 C 1716.24 -0.43214 1.83788 0
M  V30 18473 O 1715.6 -1.30016 1.28071 0
M  V30 18474 C 1715.65 1.57912 3.25186 0
M  V30 18475 O 1715.37 2.97362 3.21725 0
M  V30 18476 C 1716.87 1.45352 4.18793 0
M  V30 18477 H 1714.09 0.359301 0.566696 0
M  V30 18478 H 1716.63 1.58015 1.29814 0
M  V30 18479 H 1714.79 1.05967 3.72625 0
M  V30 18480 H 1715.2 3.23674 4.12717 0
M  V30 18481 H 1716.68 1.89313 5.18521 0
M  V30 18482 H 1717.15 0.40378 4.3734 0
M  V30 18483 H 1717.76 1.96419 3.77226 0
M  V30 18484 N 1716.07 -1.22136 0.99602 0
M  V30 18485 C 1717.32 -1.9028 0.66907 0
M  V30 18486 C 1717.64 -1.7837 -0.802717 0
M  V30 18487 O 1718.84 -2.41458 -1.24138 0
M  V30 18488 C 1717.3 -3.4116 1.1462 0
M  V30 18489 C 1716.91 -3.617 2.64343 0
M  V30 18490 C 1718.65 -4.14985 0.893718 0
M  V30 18491 C 1716.56 -5.06297 3.05642 0
M  V30 18492 H 1715.49 -0.71255 0.246554 0
M  V30 18493 H 1718.14 -1.38304 1.20599 0
M  V30 18494 H 1716.52 -3.92337 0.537378 0
M  V30 18495 H 1717.69 -3.21002 3.30597 0
M  V30 18496 H 1716.01 -3.01212 2.87507 0
M  V30 18497 H 1718.61 -5.21564 1.17794 0
M  V30 18498 H 1718.95 -4.15952 -0.17013 0
M  V30 18499 H 1719.48 -3.69846 1.46488 0
M  V30 18500 H 1716.22 -5.10472 4.11216 0
M  V30 18501 H 1715.74 -5.47885 2.44094 0
M  V30 18502 H 1717.42 -5.74743 2.97118 0
M  V30 18503 N 1717.55 -0.769612 -1.37531 0
M  V30 18504 C 1718.8 -0.332309 -1.99349 0
M  V30 18505 C 1719.12 1.09432 -1.61399 0
M  V30 18506 O 1718.39 1.75102 -0.878415 0
M  V30 18507 H 1716.97 -0.119879 -0.737318 0
M  V30 18508 H 1719.63 -0.987265 -1.68045 0
M  V30 18509 H 1718.73 -0.408233 -3.09419 0
M  V30 18510 N 1719.03 1.48775 -0.519977 0
M  V30 18511 C 1720.26 2.07394 0.0161061 0
M  V30 18512 C 1720.68 1.37532 1.28322 0
M  V30 18513 O 1720.04 0.438049 1.75928 0
M  V30 18514 C 1720.09 3.59844 0.233382 0
M  V30 18515 O 1719.19 3.91235 1.30418 0
M  V30 18516 H 1718.53 0.663094 -0.0346678 0
M  V30 18517 H 1721.06 1.91323 -0.725029 0
M  V30 18518 H 1721.07 4.05409 0.45911 0
M  V30 18519 H 1719.75 4.10098 -0.69229 0
M  V30 18520 H 1718.32 3.5746 1.0619 0
M  V30 18521 N 1720.51 0.254649 1.55529 0
M  V30 18522 C 1721.44 -0.635656 2.24681 0
M  V30 18523 C 1722.42 -1.17519 1.22977 0
M  V30 18524 O 1723.6 -1.21311 1.51649 0
M  V30 18525 C 1720.73 -1.82922 2.95224 0
M  V30 18526 C 1719.69 -1.42212 4.03683 0
M  V30 18527 C 1719.01 -2.69713 4.61691 0
M  V30 18528 C 1720.31 -0.587436 5.18986 0
M  V30 18529 H 1722.01 -0.0590063 2.99342 0
M  V30 18530 H 1719.55 -0.02694 1.43975 0
M  V30 18531 H 1721.51 -2.45777 3.42304 0
M  V30 18532 H 1720.23 -2.43137 2.18064 0
M  V30 18533 H 1718.89 -0.81687 3.57383 0
M  V30 18534 H 1718.54 -3.28143 3.81223 0
M  V30 18535 H 1718.24 -2.43194 5.34911 0
M  V30 18536 H 1719.76 -3.33453 5.11509 0
M  V30 18537 H 1721.18 -1.12048 5.62244 0
M  V30 18538 H 1719.57 -0.417988 5.98643 0
M  V30 18539 H 1720.64 0.398577 4.83259 0
M  V30 18540 N 1721.99 -1.57589 -0.0183649 0
M  V30 18541 C 1722.92 -2.1029 -1.01492 0
M  V30 18542 C 1723.9 -1.00782 -1.37029 0
M  V30 18543 O 1725.08 -1.28365 -1.45726 0
M  V30 18544 C 1722.21 -2.59111 -2.31255 0
M  V30 18545 C 1721.17 -3.72979 -2.0993 0
M  V30 18546 C 1720.49 -4.08046 -3.45547 0
M  V30 18547 C 1721.79 -5.00988 -1.47677 0
M  V30 18548 H 1723.49 -2.93804 -0.57618 0
M  V30 18549 H 1721.03 -1.41336 -0.275708 0
M  V30 18550 H 1722.99 -2.94602 -3.0131 0
M  V30 18551 H 1721.71 -1.72694 -2.77208 0
M  V30 18552 H 1720.37 -3.37853 -1.42306 0
M  V30 18553 H 1720.02 -3.1868 -3.89169 0
M  V30 18554 H 1719.72 -4.8475 -3.32101 0
M  V30 18555 H 1721.24 -4.46081 -4.16947 0
M  V30 18556 H 1722.65 -5.34368 -2.07663 0
M  V30 18557 H 1721.05 -5.82375 -1.44774 0
M  V30 18558 H 1722.12 -4.82865 -0.443804 0
M  V30 18559 N 1723.46 0.290824 -1.54893 0
M  V30 18560 C 1724.39 1.36354 -1.89551 0
M  V30 18561 C 1725.38 1.52403 -0.75546 0
M  V30 18562 O 1726.56 1.65743 -1.01208 0
M  V30 18563 C 1723.69 2.72609 -2.15178 0
M  V30 18564 C 1722.64 2.71313 -3.31019 0
M  V30 18565 C 1721.97 4.10952 -3.42085 0
M  V30 18566 C 1723.27 2.32153 -4.6787 0
M  V30 18567 H 1724.96 1.07597 -2.79398 0
M  V30 18568 H 1722.51 0.516154 -1.34432 0
M  V30 18569 H 1724.46 3.47749 -2.3801 0
M  V30 18570 H 1723.19 3.02913 -1.22112 0
M  V30 18571 H 1721.85 1.9863 -3.08126 0
M  V30 18572 H 1721.49 4.38449 -2.46518 0
M  V30 18573 H 1721.19 4.10984 -4.1996 0
M  V30 18574 H 1722.72 4.87857 -3.67189 0
M  V30 18575 H 1724.13 2.97011 -4.90364 0
M  V30 18576 H 1722.53 2.4338 -5.48531 0
M  V30 18577 H 1723.6 1.27279 -4.67897 0
M  V30 18578 N 1724.94 1.47523 0.554506 0
M  V30 18579 C 1725.89 1.5662 1.65693 0
M  V30 18580 C 1726.88 0.424914 1.55188 0
M  V30 18581 O 1728.07 0.674989 1.63624 0
M  V30 18582 C 1725.2 1.58607 3.04465 0
M  V30 18583 C 1724.28 2.78129 3.20164 0
M  V30 18584 N 1724.67 4.028 3.05918 0
M  V30 18585 C 1722.97 2.74947 3.5117 0
M  V30 18586 C 1723.67 4.82859 3.24379 0
M  V30 18587 N 1722.65 4.15228 3.50837 0
M  V30 18588 H 1726.45 2.50781 1.53252 0
M  V30 18589 H 1723.97 1.43554 0.759335 0
M  V30 18590 H 1725.96 1.63214 3.83623 0
M  V30 18591 H 1724.62 0.655437 3.18016 0
M  V30 18592 H 1725.63 4.33618 2.83189 0
M  V30 18593 H 1722.31 1.91034 3.71231 0
M  V30 18594 H 1723.7 5.91716 3.1831 0
M  V30 18595 N 1726.42 -0.801453 1.357 0
M  V30 18596 C 1727.67 -1.5611 1.29451 0
M  V30 18597 C 1728 -1.93768 -0.129412 0
M  V30 18598 O 1727.27 -1.6176 -1.08 0
M  V30 18599 C 1727.56 -2.84628 2.20588 0
M  V30 18600 C 1727.41 -2.53413 3.71621 0
M  V30 18601 C 1728.73 -3.86369 2.10729 0
M  V30 18602 H 1725.85 -0.56638 0.471575 0
M  V30 18603 H 1728.49 -0.921701 1.66147 0
M  V30 18604 H 1726.64 -3.39192 1.89424 0
M  V30 18605 H 1728.31 -2.04993 4.1325 0
M  V30 18606 H 1726.56 -1.86531 3.91649 0
M  V30 18607 H 1727.23 -3.45152 4.30783 0
M  V30 18608 H 1729.7 -3.41219 2.38136 0
M  V30 18609 H 1728.58 -4.74062 2.76688 0
M  V30 18610 H 1728.84 -4.28431 1.09083 0
M  V30 18611 N 1727.9 -1.19782 -1.02421 0
M  V30 18612 C 1728.83 -0.963553 -2.12692 0
M  V30 18613 C 1729.81 0.104769 -1.69777 0
M  V30 18614 O 1730.99 -0.0512017 -1.94132 0
M  V30 18615 C 1728.12 -0.506525 -3.43586 0
M  V30 18616 C 1727.08 -1.51722 -4.00206 0
M  V30 18617 C 1726.4 -0.917097 -5.26776 0
M  V30 18618 C 1727.7 -2.89879 -4.34474 0
M  V30 18619 H 1729.4 -1.88579 -2.32547 0
M  V30 18620 H 1726.94 -0.908111 -1.11756 0
M  V30 18621 H 1728.9 -0.329907 -4.20107 0
M  V30 18622 H 1727.62 0.451322 -3.23467 0
M  V30 18623 H 1726.28 -1.68106 -3.25785 0
M  V30 18624 H 1725.93 0.0484457 -5.02977 0
M  V30 18625 H 1725.63 -1.59204 -5.65622 0
M  V30 18626 H 1727.15 -0.751379 -6.05959 0
M  V30 18627 H 1728.57 -2.7705 -5.01913 0
M  V30 18628 H 1726.96 -3.54209 -4.84413 0
M  V30 18629 H 1728.03 -3.42179 -3.43571 0
M  V30 18630 N 1729.38 1.21606 -1.00248 0
M  V30 18631 C 1730.63 1.89922 -0.679152 0
M  V30 18632 C 1730.94 1.78793 0.793246 0
M  V30 18633 O 1732.15 2.42113 1.22856 0
M  V30 18634 C 1730.6 3.40548 -1.16427 0
M  V30 18635 C 1730.21 3.60293 -2.66257 0
M  V30 18636 C 1731.95 4.14506 -0.915714 0
M  V30 18637 C 1729.86 5.04669 -3.08323 0
M  V30 18638 H 1728.79 0.711232 -0.250329 0
M  V30 18639 H 1731.44 1.37663 -1.21331 0
M  V30 18640 H 1729.82 3.92046 -0.558177 0
M  V30 18641 H 1731 3.19245 -3.32294 0
M  V30 18642 H 1729.31 2.99683 -2.891 0
M  V30 18643 H 1731.91 5.20932 -1.20558 0
M  V30 18644 H 1732.25 4.16037 0.148068 0
M  V30 18645 H 1732.79 3.69064 -1.48448 0
M  V30 18646 H 1729.52 5.08284 -4.13917 0
M  V30 18647 H 1729.04 5.46583 -2.46996 0
M  V30 18648 H 1730.72 5.7316 -3.00162 0
M  V30 18649 N 1730.86 0.776895 1.37121 0
M  V30 18650 C 1731.79 0.180738 2.32799 0
M  V30 18651 C 1732.77 -0.677284 1.56035 0
M  V30 18652 O 1733.95 -0.613687 1.84249 0
M  V30 18653 C 1731.08 -0.695148 3.40272 0
M  V30 18654 C 1730.04 0.0619772 4.27955 0
M  V30 18655 C 1729.36 -0.933688 5.26485 0
M  V30 18656 C 1730.66 1.24396 5.0727 0
M  V30 18657 H 1732.36 0.980039 2.82906 0
M  V30 18658 H 1729.9 0.472722 1.3602 0
M  V30 18659 H 1731.85 -1.12205 4.06187 0
M  V30 18660 H 1730.58 -1.52702 2.88703 0
M  V30 18661 H 1729.24 0.469717 3.63578 0
M  V30 18662 H 1728.89 -1.76025 4.71194 0
M  V30 18663 H 1728.59 -0.431608 5.86013 0
M  V30 18664 H 1730.11 -1.35942 5.95275 0
M  V30 18665 H 1731.52 0.89345 5.66295 0
M  V30 18666 H 1729.92 1.67848 5.76149 0
M  V30 18667 H 1730.99 2.04553 4.39643 0
M  V30 18668 N 1732.33 -1.48497 0.527859 0
M  V30 18669 C 1733.56 -2.066 -0.00302155 0
M  V30 18670 C 1733.97 -1.38505 -1.28892 0
M  V30 18671 O 1733.31 -0.465745 -1.77698 0
M  V30 18672 C 1733.38 -3.58249 -0.2997 0
M  V30 18673 C 1733.04 -4.48202 0.892405 0
M  V30 18674 C 1734.04 -4.88105 1.79023 0
M  V30 18675 C 1731.72 -4.90134 1.0988 0
M  V30 18676 C 1733.72 -5.68707 2.87838 0
M  V30 18677 C 1731.4 -5.70507 2.19009 0
M  V30 18678 C 1732.4 -6.09701 3.07821 0
M  V30 18679 O 1732.09 -6.88461 4.15062 0
M  V30 18680 H 1731.82 -0.675359 0.029422 0
M  V30 18681 H 1734.38 -1.91903 0.732286 0
M  V30 18682 H 1732.61 -3.71051 -1.08895 0
M  V30 18683 H 1734.29 -3.98483 -0.772407 0
M  V30 18684 H 1735.06 -4.56333 1.64271 0
M  V30 18685 H 1730.94 -4.59112 0.416808 0
M  V30 18686 H 1734.48 -5.99219 3.57187 0
M  V30 18687 H 1730.38 -6.01692 2.33746 0
M  V30 18688 H 1731.15 -7.06812 4.12746 0
M  V30 18689 N 1733.81 -0.262893 -1.55392 0
M  V30 18690 C 1735.06 0.357939 -1.98499 0
M  V30 18691 C 1735.37 1.5789 -1.15456 0
M  V30 18692 O 1736.58 2.2719 -1.4865 0
M  V30 18693 C 1735.04 0.688205 -3.53259 0
M  V30 18694 C 1734.64 -0.512257 -4.45062 0
M  V30 18695 C 1736.39 1.27234 -4.04984 0
M  V30 18696 C 1734.29 -0.157257 -5.91191 0
M  V30 18697 H 1733.22 0.137514 -0.741354 0
M  V30 18698 H 1735.88 -0.365626 -1.79821 0
M  V30 18699 H 1734.26 1.47034 -3.67692 0
M  V30 18700 H 1735.43 -1.28935 -4.42394 0
M  V30 18701 H 1733.75 -1.0124 -4.03905 0
M  V30 18702 H 1736.34 1.55155 -5.11694 0
M  V30 18703 H 1736.69 2.20217 -3.53285 0
M  V30 18704 H 1737.22 0.552763 -3.93941 0
M  V30 18705 H 1733.96 -1.05464 -6.4696 0
M  V30 18706 H 1733.48 0.583319 -5.96957 0
M  V30 18707 H 1735.16 0.254892 -6.46498 0
M  V30 18708 N 1735.29 1.57597 0.0100073 0
M  V30 18709 C 1736.7 1.78287 0.554143 0
M  V30 18710 C 1737.05 0.896332 1.74529 0
M  V30 18711 O 1736.18 0.0961505 2.16186 0
M  V30 18712 C 1736.77 3.23331 1.01206 0
M  V30 18713 C 1735.33 3.45152 1.50157 0
M  V30 18714 C 1734.48 2.73654 0.448221 0
M  V30 18715 H 1737.43 1.57221 -0.216189 0
M  V30 18716 H 1737.45 3.30893 1.87856 0
M  V30 18717 H 1736.96 3.87829 0.144921 0
M  V30 18718 H 1735.06 2.85854 2.38994 0
M  V30 18719 H 1735.18 4.53813 1.53594 0
M  V30 18720 H 1733.54 2.3798 0.907603 0
M  V30 18721 H 1734.32 3.40846 -0.40978 0
M  V30 18722 N 1736.77 -0.282606 1.55045 0
M  V30 18723 C 1738.18 -0.854338 1.66006 0
M  V30 18724 C 1738.53 -1.87408 0.580753 0
M  V30 18725 O 1737.65 -2.14588 -0.279449 0
M  V30 18726 C 1738.25 -1.55637 3.00936 0
M  V30 18727 C 1736.81 -2.07626 3.13956 0
M  V30 18728 C 1735.96 -0.915064 2.61767 0
M  V30 18729 H 1738.91 -0.0591711 1.5859 0
M  V30 18730 H 1738.93 -2.42289 2.93388 0
M  V30 18731 H 1738.44 -0.813942 3.79469 0
M  V30 18732 H 1736.54 -2.84859 2.40179 0
M  V30 18733 H 1736.65 -2.29816 4.20382 0
M  V30 18734 H 1735.02 -1.30577 2.18682 0
M  V30 18735 H 1735.8 -0.186298 3.42794 0
M  V30 18736 N 1738.25 -1.47815 -0.546675 0
M  V30 18737 C 1739.18 -1.63976 -1.66235 0
M  V30 18738 C 1740.16 -0.488945 -1.62921 0
M  V30 18739 O 1741.34 -0.719532 -1.80378 0
M  V30 18740 C 1738.47 -1.6637 -3.04858 0
M  V30 18741 C 1737.43 -2.80785 -3.23023 0
M  V30 18742 C 1736.75 -2.68257 -4.62539 0
M  V30 18743 C 1738.05 -4.22267 -3.07388 0
M  V30 18744 H 1739.75 -2.57375 -1.52965 0
M  V30 18745 H 1737.29 -1.23861 -0.734465 0
M  V30 18746 H 1739.24 -1.76266 -3.82764 0
M  V30 18747 H 1737.97 -0.695386 -3.19111 0
M  V30 18748 H 1736.63 -2.70417 -2.47529 0
M  V30 18749 H 1736.28 -1.69431 -4.73606 0
M  V30 18750 H 1735.98 -3.45022 -4.75641 0
M  V30 18751 H 1737.5 -2.80097 -5.42566 0
M  V30 18752 H 1738.91 -4.33557 -3.75102 0
M  V30 18753 H 1737.31 -4.999 -3.31994 0
M  V30 18754 H 1738.38 -4.39897 -2.04006 0
M  V30 18755 N 1739.72 0.794246 -1.36123 0
M  V30 18756 C 1740.69 1.88828 -1.2991 0
M  V30 18757 C 1741.69 1.59451 -0.207839 0
M  V30 18758 O 1742.88 1.67953 -0.462321 0
M  V30 18759 C 1740.01 3.25511 -1.01269 0
M  V30 18760 H 1741.2 1.95753 -2.27202 0
M  V30 18761 H 1738.75 0.991505 -1.20826 0
M  V30 18762 H 1739.49 3.2427 -0.0441535 0
M  V30 18763 H 1739.27 3.48221 -1.80234 0
M  V30 18764 H 1740.76 4.0557 -0.995142 0
M  V30 18765 N 1741.2 1.20323 1.01785 0
M  V30 18766 C 1742.62 0.957818 1.27664 0
M  V30 18767 C 1742.82 -0.363377 1.98196 0
M  V30 18768 O 1741.87 -1.09221 2.27656 0
M  V30 18769 C 1743.19 2.13957 2.11289 0
M  V30 18770 C 1744.73 2.18041 2.2456 0
M  V30 18771 C 1745.21 3.35698 3.11562 0
M  V30 18772 N 1746.7 3.35704 3.1915 0
M  V30 18773 C 1747.44 4.2339 3.86689 0
M  V30 18774 N 1746.93 5.21251 4.56366 0
M  V30 18775 N 1748.72 4.11235 3.832 0
M  V30 18776 H 1740.88 2.05309 0.544242 0
M  V30 18777 H 1743.14 0.898335 0.302817 0
M  V30 18778 H 1742.84 3.09631 1.66798 0
M  V30 18779 H 1742.72 2.11946 3.12024 0
M  V30 18780 H 1745.11 1.22931 2.68276 0
M  V30 18781 H 1745.19 2.24101 1.23338 0
M  V30 18782 H 1744.83 4.31095 2.68551 0
M  V30 18783 H 1744.76 3.26876 4.12868 0
M  V30 18784 H 1747.25 2.64874 2.69537 0
M  V30 18785 H 1747.56 5.84485 5.05566 0
M  V30 18786 H 1745.91 5.25189 4.55195 0
M  V30 18787 H 1749.1 3.34052 3.27913 0
M  V30 18788 H 1749.27 4.79782 4.35561 0
M  V30 18789 N 1742.68 -1.21073 1.00892 0
M  V30 18790 C 1743.93 -1.89559 0.689214 0
M  V30 18791 C 1744.24 -1.79211 -0.783753 0
M  V30 18792 O 1745.45 -2.42761 -1.2157 0
M  V30 18793 C 1743.9 -3.39925 1.18232 0
M  V30 18794 C 1743.51 -3.58876 2.68164 0
M  V30 18795 C 1745.26 -4.14014 0.937683 0
M  V30 18796 C 1743.16 -5.03027 3.10995 0
M  V30 18797 H 1742.09 -0.709895 0.254098 0
M  V30 18798 H 1744.74 -1.37017 1.2206 0
M  V30 18799 H 1743.13 -3.91745 0.578961 0
M  V30 18800 H 1744.3 -3.17478 3.33983 0
M  V30 18801 H 1742.61 -2.98146 2.90685 0
M  V30 18802 H 1745.21 -5.20285 1.23319 0
M  V30 18803 H 1745.55 -4.16109 -0.126003 0
M  V30 18804 H 1746.09 -3.68271 1.50403 0
M  V30 18805 H 1742.83 -5.06082 4.16607 0
M  V30 18806 H 1742.35 -5.45266 2.49891 0
M  V30 18807 H 1744.03 -5.7156 3.03197 0
M  V30 18808 N 1744.16 -0.784156 -1.36707 0
M  V30 18809 C 1745.41 -0.354133 -1.99379 0
M  V30 18810 C 1745.73 1.07276 -1.62241 0
M  V30 18811 O 1744.99 1.75481 -0.866317 0
M  V30 18812 C 1745.29 -0.459004 -3.5444 0
M  V30 18813 C 1744.95 -1.84594 -4.11383 0
M  V30 18814 C 1743.62 -2.22543 -4.26648 0
M  V30 18815 C 1745.97 -2.75433 -4.42477 0
M  V30 18816 C 1743.3 -3.50744 -4.70315 0
M  V30 18817 C 1745.65 -4.03056 -4.87574 0
M  V30 18818 C 1744.31 -4.41034 -5.01044 0
M  V30 18819 H 1743.58 -0.129586 -0.729581 0
M  V30 18820 H 1746.23 -1.00059 -1.6328 0
M  V30 18821 H 1744.53 0.27097 -3.90862 0
M  V30 18822 H 1746.23 -0.107393 -4.00856 0
M  V30 18823 H 1742.82 -1.54103 -3.99938 0
M  V30 18824 H 1747 -2.4737 -4.30258 0
M  V30 18825 H 1742.26 -3.80047 -4.78931 0
M  V30 18826 H 1746.43 -4.73563 -5.10599 0
M  V30 18827 H 1744.06 -5.4043 -5.34639 0
M  V30 18828 N 1745.64 1.48215 -0.535727 0
M  V30 18829 C 1746.88 2.021 -0.00372016 0
M  V30 18830 C 1747.21 1.41456 1.34221 0
M  V30 18831 O 1746.48 0.581987 1.87055 0
M  V30 18832 H 1745.06 0.746998 0.00161295 0
M  V30 18833 H 1747.72 1.81862 -0.700863 0
M  V30 18834 H 1746.81 3.11939 0.100352 0
M  V30 18835 N 1747.11 0.27113 1.5525 0
M  V30 18836 C 1748.36 -0.347304 1.99804 0
M  V30 18837 C 1748.69 -1.55803 1.15928 0
M  V30 18838 O 1747.97 -1.93154 0.228386 0
M  V30 18839 C 1748.25 -0.733408 3.52552 0
M  V30 18840 C 1748.1 0.48438 4.47184 0
M  V30 18841 C 1749.42 -1.57136 4.11092 0
M  V30 18842 H 1746.54 -0.124762 0.726363 0
M  V30 18843 H 1749.18 0.37728 1.86217 0
M  V30 18844 H 1747.33 -1.35076 3.64262 0
M  V30 18845 H 1749.01 1.12293 4.47424 0
M  V30 18846 H 1747.25 1.12317 4.19008 0
M  V30 18847 H 1747.92 0.170525 5.51737 0
M  V30 18848 H 1750.4 -1.05001 4.02634 0
M  V30 18849 H 1749.27 -1.81033 5.18187 0
M  V30 18850 H 1749.53 -2.55111 3.61069 0
M  V30 18851 N 1748.59 -1.576 -0.00164943 0
M  V30 18852 C 1749.84 -1.90778 -0.68786 0
M  V30 18853 C 1750.17 -0.872138 -1.73515 0
M  V30 18854 O 1749.45 0.109349 -1.94192 0
M  V30 18855 C 1749.73 -3.34539 -1.3325 0
M  V30 18856 C 1749.58 -4.48819 -0.296862 0
M  V30 18857 C 1750.9 -3.77693 -2.25911 0
M  V30 18858 H 1748.02 -0.69381 -0.24859 0
M  V30 18859 H 1750.66 -1.89936 0.0493059 0
M  V30 18860 H 1748.81 -3.35388 -1.9608 0
M  V30 18861 H 1750.48 -4.60106 0.331635 0
M  V30 18862 H 1748.73 -4.32123 0.38105 0
M  V30 18863 H 1749.4 -5.46362 -0.786927 0
M  V30 18864 H 1751.87 -3.78386 -1.73099 0
M  V30 18865 H 1750.75 -4.79037 -2.67983 0
M  V30 18866 H 1751.01 -3.11469 -3.1375 0
M  V30 18867 N 1750.07 0.274379 -1.55193 0
M  V30 18868 C 1751.48 0.845522 -1.66457 0
M  V30 18869 C 1751.83 1.87097 -0.590684 0
M  V30 18870 O 1750.96 2.14733 0.268065 0
M  V30 18871 C 1751.55 1.54039 -3.01757 0
M  V30 18872 C 1750.11 2.05958 -3.15053 0
M  V30 18873 C 1749.26 0.901169 -2.62248 0
M  V30 18874 H 1752.21 0.0507599 -1.58619 0
M  V30 18875 H 1752.23 2.40729 -2.94669 0
M  V30 18876 H 1751.74 0.793807 -3.79895 0
M  V30 18877 H 1749.84 2.83582 -2.41686 0
M  V30 18878 H 1749.96 2.27584 -4.21595 0
M  V30 18879 H 1748.32 1.29416 -2.19371 0
M  V30 18880 H 1749.1 0.168116 -3.42888 0
M  V30 18881 N 1751.55 1.48103 0.538828 0
M  V30 18882 C 1752.48 1.64856 1.65363 0
M  V30 18883 C 1753.46 0.497579 1.6266 0
M  V30 18884 O 1754.64 0.729088 1.79994 0
M  V30 18885 C 1751.77 1.67984 3.03971 0
M  V30 18886 C 1750.73 2.82494 3.21529 0
M  V30 18887 C 1750.05 2.70706 4.6111 0
M  V30 18888 C 1751.35 4.23892 3.05145 0
M  V30 18889 H 1753.05 2.58183 1.51598 0
M  V30 18890 H 1750.59 1.24249 0.727886 0
M  V30 18891 H 1752.55 1.78294 3.81824 0
M  V30 18892 H 1751.27 0.712299 3.18738 0
M  V30 18893 H 1749.93 2.71725 2.46091 0
M  V30 18894 H 1749.58 1.7194 4.727 0
M  V30 18895 H 1749.28 3.47539 4.73804 0
M  V30 18896 H 1750.8 2.82971 5.41073 0
M  V30 18897 H 1752.22 4.3554 3.72797 0
M  V30 18898 H 1750.61 5.01654 3.29338 0
M  V30 18899 H 1751.68 4.40973 2.01671 0
M  V30 18900 N 1753.03 -0.787016 1.36542 0
M  V30 18901 C 1754.25 -1.58103 1.34231 0
M  V30 18902 C 1754.68 -1.87956 -0.0734932 0
M  V30 18903 O 1754.03 -1.48073 -1.04615 0
M  V30 18904 C 1754.08 -2.87739 2.17345 0
M  V30 18905 O 1753.19 -3.81445 1.56759 0
M  V30 18906 H 1752.53 -0.479495 0.459326 0
M  V30 18907 H 1755.06 -0.975294 1.79859 0
M  V30 18908 H 1755.07 -3.36986 2.3001 0
M  V30 18909 H 1753.74 -2.65338 3.20264 0
M  V30 18910 H 1752.32 -3.40046 1.53047 0
M  V30 18911 N 1754.5 -1.20861 -1.01145 0
M  V30 18912 C 1755.47 -0.963742 -2.07954 0
M  V30 18913 C 1756.47 0.0627362 -1.60678 0
M  V30 18914 O 1757.66 -0.173867 -1.7333 0
M  V30 18915 C 1754.79 -0.451977 -3.3789 0
M  V30 18916 H 1755.98 -1.91123 -2.3111 0
M  V30 18917 H 1753.54 -1.0247 -1.18024 0
M  V30 18918 H 1754.27 0.500735 -3.20411 0
M  V30 18919 H 1754.06 -1.19231 -3.73532 0
M  V30 18920 H 1755.55 -0.300308 -4.16519 0
M  V30 18921 N 1755.98 1.20536 -1.01532 0
M  V30 18922 C 1757.21 1.93571 -0.722055 0
M  V30 18923 C 1757.62 1.74923 0.721011 0
M  V30 18924 O 1756.96 1.05961 1.5006 0
M  V30 18925 C 1757.03 3.45989 -0.97632 0
M  V30 18926 C 1756.69 3.88397 -2.40825 0
M  V30 18927 C 1757.69 3.94262 -3.38901 0
M  V30 18928 C 1755.37 4.20422 -2.74865 0
M  V30 18929 C 1757.37 4.3156 -4.69078 0
M  V30 18930 C 1755.05 4.57395 -4.05256 0
M  V30 18931 C 1756.05 4.62937 -5.02174 0
M  V30 18932 O 1755.74 4.99063 -6.30232 0
M  V30 18933 H 1755.47 0.622101 -0.264511 0
M  V30 18934 H 1758.02 1.5401 -1.35905 0
M  V30 18935 H 1756.25 3.85669 -0.282161 0
M  V30 18936 H 1757.94 4.00251 -0.674832 0
M  V30 18937 H 1758.71 3.69686 -3.13938 0
M  V30 18938 H 1754.59 4.153 -2.00117 0
M  V30 18939 H 1758.13 4.358 -5.44724 0
M  V30 18940 H 1754.03 4.81427 -4.29998 0
M  V30 18941 H 1754.8 5.1706 -6.34501 0
M  V30 18942 N 1757.46 0.791395 1.36289 0
M  V30 18943 C 1758.74 0.288602 1.93459 0
M  V30 18944 C 1759.12 -1.21953 1.7231 0
M  V30 18945 O 1758.47 -2.01194 1.0832 0
M  V30 18946 C 1758.68 0.683392 3.42244 0
M  V30 18947 C 1760.02 0.664255 4.19372 0
M  V30 18948 O 1761.05 0.623988 3.50692 0
M  V30 18949 O 1759.91 0.708926 5.41882 0
M  V30 18950 H 1757 0.0719305 0.823866 0
M  V30 18951 H 1759.55 0.874071 1.45458 0
M  V30 18952 H 1758.32 1.72344 3.51302 0
M  V30 18953 H 1757.94 0.0719128 3.97535 0
M  V30 18954 N 1758.94 -1.47929 0.54358 0
M  V30 18955 C 1760.19 -2.03387 0.0226665 0
M  V30 18956 C 1760.54 -1.41189 -1.30704 0
M  V30 18957 O 1759.83 -0.553281 -1.83438 0
M  V30 18958 C 1760.03 -3.57116 -0.142408 0
M  V30 18959 C 1759.86 -4.3422 1.16975 0
M  V30 18960 C 1758.63 -4.7464 1.73335 0
M  V30 18961 C 1760.82 -4.70199 2.08369 0
M  V30 18962 N 1758.81 -5.36333 2.98697 0
M  V30 18963 C 1760.18 -5.32052 3.18309 0
M  V30 18964 C 1762.23 -4.52128 2.0853 0
M  V30 18965 C 1760.94 -5.77744 4.28491 0
M  V30 18966 C 1762.96 -4.9881 3.17715 0
M  V30 18967 C 1762.32 -5.607 4.26374 0
M  V30 18968 H 1758.42 -0.780392 0.0501262 0
M  V30 18969 H 1761.01 -1.80583 0.727863 0
M  V30 18970 H 1759.18 -3.79716 -0.816707 0
M  V30 18971 H 1760.91 -3.99213 -0.664154 0
M  V30 18972 H 1757.66 -4.5617 1.27302 0
M  V30 18973 H 1758.09 -5.71734 3.62559 0
M  V30 18974 H 1762.73 -4.03647 1.25812 0
M  V30 18975 H 1760.45 -6.25223 5.11979 0
M  V30 18976 H 1764.03 -4.86608 3.1891 0
M  V30 18977 H 1762.91 -5.96165 5.09467 0
M  V30 18978 N 1760.42 -0.27936 -1.55104 0
M  V30 18979 C 1761.66 0.336205 -1.9969 0
M  V30 18980 C 1761.99 1.55542 -1.16777 0
M  V30 18981 O 1761.25 1.94385 -0.226497 0
M  V30 18982 C 1761.55 0.758312 -3.49263 0
M  V30 18983 C 1761.21 -0.356741 -4.49487 0
M  V30 18984 C 1759.87 -0.662905 -4.76612 0
M  V30 18985 C 1762.23 -1.10789 -5.09289 0
M  V30 18986 C 1759.55 -1.72373 -5.60807 0
M  V30 18987 C 1761.91 -2.15847 -5.94637 0
M  V30 18988 C 1760.57 -2.47094 -6.20081 0
M  V30 18989 H 1759.84 0.123026 -0.730716 0
M  V30 18990 H 1762.49 -0.393956 -1.87404 0
M  V30 18991 H 1760.79 1.56822 -3.59046 0
M  V30 18992 H 1762.49 1.24541 -3.8117 0
M  V30 18993 H 1759.08 -0.107997 -4.28464 0
M  V30 18994 H 1763.26 -0.884619 -4.88353 0
M  V30 18995 H 1758.52 -1.97079 -5.78766 0
M  V30 18996 H 1762.69 -2.74523 -6.40008 0
M  V30 18997 H 1760.32 -3.29428 -6.85114 0
M  V30 18998 N 1761.9 1.57599 -0.0067085 0
M  V30 18999 C 1762.83 2.11878 0.981331 0
M  V30 19000 C 1763.81 1.02949 1.35408 0
M  V30 19001 O 1764.99 1.30667 1.43665 0
M  V30 19002 C 1762.12 2.62757 2.27104 0
M  V30 19003 C 1761.08 3.76272 2.0397 0
M  V30 19004 C 1760.4 4.13491 3.39012 0
M  V30 19005 C 1761.7 5.03274 1.39688 0
M  V30 19006 H 1763.4 2.94683 0.529366 0
M  V30 19007 H 1760.94 1.41757 0.253187 0
M  V30 19008 H 1762.89 2.99359 2.96585 0
M  V30 19009 H 1761.62 1.77082 2.74426 0
M  V30 19010 H 1760.28 3.40074 1.36913 0
M  V30 19011 H 1759.93 3.24831 3.8405 0
M  V30 19012 H 1759.63 4.89972 3.24347 0
M  V30 19013 H 1761.15 4.52657 4.09797 0
M  V30 19014 H 1762.56 5.37604 1.99136 0
M  V30 19015 H 1760.96 5.84604 1.3549 0
M  V30 19016 H 1762.03 4.8351 0.366928 0
M  V30 19017 N 1763.37 -0.266145 1.55336 0
M  V30 19018 C 1764.62 -0.998308 1.76527 0
M  V30 19019 C 1764.95 -1.85691 0.568535 0
M  V30 19020 O 1764.23 -1.89602 -0.433735 0
M  V30 19021 C 1764.51 -1.87509 3.07429 0
M  V30 19022 C 1764.36 -1.04596 4.3747 0
M  V30 19023 C 1765.68 -2.86099 3.34418 0
M  V30 19024 H 1762.8 -0.361514 0.642244 0
M  V30 19025 H 1765.44 -0.270186 1.88069 0
M  V30 19026 H 1763.59 -2.49591 2.97719 0
M  V30 19027 H 1765.27 -0.445323 4.59145 0
M  V30 19028 H 1763.51 -0.349641 4.32389 0
M  V30 19029 H 1764.18 -1.69279 5.25403 0
M  V30 19030 H 1766.66 -2.34153 3.43965 0
M  V30 19031 H 1765.53 -3.44584 4.27262 0
M  V30 19032 H 1765.79 -3.61577 2.5439 0
M  V30 19033 N 1764.85 -1.48386 -0.530967 0
M  V30 19034 C 1766.1 -1.56354 -1.28685 0
M  V30 19035 C 1766.43 -0.237022 -1.9305 0
M  V30 19036 O 1765.68 0.772595 -1.79804 0
M  V30 19037 C 1765.98 -2.64979 -2.39835 0
M  V30 19038 C 1765.65 -4.07446 -1.93129 0
M  V30 19039 C 1764.31 -4.46222 -1.80108 0
M  V30 19040 C 1766.66 -4.96732 -1.5782 0
M  V30 19041 C 1763.99 -5.7209 -1.30113 0
M  V30 19042 C 1766.34 -6.23088 -1.09288 0
M  V30 19043 C 1765 -6.60722 -0.948835 0
M  V30 19044 H 1764.27 -0.572139 -0.470891 0
M  V30 19045 H 1766.92 -1.82099 -0.592626 0
M  V30 19046 H 1765.23 -2.3309 -3.14923 0
M  V30 19047 H 1766.92 -2.68359 -2.97967 0
M  V30 19048 H 1763.51 -3.76822 -2.04213 0
M  V30 19049 H 1767.7 -4.67452 -1.6674 0
M  V30 19050 H 1762.95 -5.99974 -1.17647 0
M  V30 19051 H 1767.13 -6.91669 -0.810376 0
M  V30 19052 H 1764.75 -7.5814 -0.559235 0
M  V30 19053 N 1766.33 0.779763 -1.36958 0
M  V30 19054 C 1767.26 1.90687 -1.34762 0
M  V30 19055 C 1768.24 1.68704 -0.217508 0
M  V30 19056 O 1769.43 1.89678 -0.416639 0
M  V30 19057 C 1766.56 3.27854 -1.14582 0
M  V30 19058 C 1765.51 3.64383 -2.2452 0
M  V30 19059 C 1764.84 5.00004 -1.89473 0
M  V30 19060 C 1766.14 3.71963 -3.66662 0
M  V30 19061 H 1767.83 1.92781 -2.29076 0
M  V30 19062 H 1765.38 0.926102 -1.10269 0
M  V30 19063 H 1767.33 4.06332 -1.11678 0
M  V30 19064 H 1766.05 3.26172 -0.167218 0
M  V30 19065 H 1764.71 2.88207 -2.26566 0
M  V30 19066 H 1764.36 4.94853 -0.901617 0
M  V30 19067 H 1764.06 5.25414 -2.63085 0
M  V30 19068 H 1765.58 5.80892 -1.88141 0
M  V30 19069 H 1767 4.40611 -3.6679 0
M  V30 19070 H 1765.39 4.08864 -4.39261 0
M  V30 19071 H 1766.46 2.72824 -4.00868 0
M  V30 19072 N 1767.81 1.21396 1.00503 0
M  V30 19073 C 1769.05 1.04275 1.74638 0
M  V30 19074 C 1769.41 -0.419351 1.87774 0
M  V30 19075 O 1768.7 -1.30703 1.40097 0
M  V30 19076 C 1768.9 1.67343 3.15802 0
M  V30 19077 C 1768.72 3.19534 3.1643 0
M  V30 19078 C 1767.49 3.88577 3.23011 0
M  V30 19079 C 1769.69 4.16621 3.01548 0
M  V30 19080 N 1767.67 5.27957 3.13265 0
M  V30 19081 C 1769.05 5.42753 2.99699 0
M  V30 19082 C 1771.1 4.07669 2.8585 0
M  V30 19083 C 1769.8 6.60963 2.8376 0
M  V30 19084 C 1771.83 5.25517 2.71268 0
M  V30 19085 C 1771.19 6.5056 2.70095 0
M  V30 19086 H 1767.29 0.435905 0.649239 0
M  V30 19087 H 1769.87 1.5375 1.19454 0
M  V30 19088 H 1768.05 1.20435 3.69256 0
M  V30 19089 H 1769.78 1.43428 3.78432 0
M  V30 19090 H 1766.53 3.39502 3.30205 0
M  V30 19091 H 1766.96 6.00958 3.11734 0
M  V30 19092 H 1771.6 3.11791 2.85563 0
M  V30 19093 H 1769.32 7.57002 2.82795 0
M  V30 19094 H 1772.9 5.20411 2.60121 0
M  V30 19095 H 1771.78 7.40214 2.58945 0
M  V30 19096 N 1769.29 -1.19996 1.0217 0
M  V30 19097 C 1770.51 -1.94007 0.733207 0
M  V30 19098 C 1770.94 -1.74565 -0.70061 0
M  V30 19099 O 1770.29 -1.04326 -1.48276 0
M  V30 19100 C 1770.34 -3.44029 1.08057 0
M  V30 19101 O 1769.45 -4.11938 0.195135 0
M  V30 19102 H 1768.79 -0.605929 0.271562 0
M  V30 19103 H 1771.32 -1.5228 1.36645 0
M  V30 19104 H 1771.33 -3.94669 1.03443 0
M  V30 19105 H 1770 -3.57502 2.1252 0
M  V30 19106 H 1768.58 -3.71697 0.299246 0
M  V30 19107 N 1770.76 -0.798611 -1.35867 0
M  V30 19108 C 1772.01 -0.37526 -1.98993 0
M  V30 19109 C 1772.34 1.05549 -1.6337 0
M  V30 19110 O 1771.59 1.74552 -0.88488 0
M  V30 19111 C 1771.89 -0.496572 -3.53934 0
M  V30 19112 C 1771.56 -1.88946 -4.09402 0
M  V30 19113 C 1770.22 -2.27056 -4.24263 0
M  V30 19114 C 1772.57 -2.8011 -4.39531 0
M  V30 19115 C 1769.9 -3.55712 -4.66568 0
M  V30 19116 C 1772.25 -4.08205 -4.83272 0
M  V30 19117 C 1770.92 -4.46323 -4.96338 0
M  V30 19118 H 1770.19 -0.137317 -0.728165 0
M  V30 19119 H 1772.83 -1.01786 -1.6221 0
M  V30 19120 H 1771.14 0.229499 -3.91127 0
M  V30 19121 H 1772.84 -0.149903 -4.0072 0
M  V30 19122 H 1769.43 -1.58336 -3.98281 0
M  V30 19123 H 1773.61 -2.51919 -4.2761 0
M  V30 19124 H 1768.87 -3.85105 -4.74873 0
M  V30 19125 H 1773.04 -4.78952 -5.05547 0
M  V30 19126 H 1770.67 -5.4607 -5.28877 0
M  V30 19127 N 1772.24 1.47639 -0.551417 0
M  V30 19128 C 1773.65 1.86336 -0.116513 0
M  V30 19129 C 1774 1.45869 1.31213 0
M  V30 19130 O 1773.13 0.859103 1.98616 0
M  V30 19131 C 1773.72 3.38181 -0.204671 0
M  V30 19132 C 1772.28 3.75992 0.175161 0
M  V30 19133 C 1771.43 2.71692 -0.554843 0
M  V30 19134 H 1774.38 1.39238 -0.761471 0
M  V30 19135 H 1774.4 3.76081 0.578214 0
M  V30 19136 H 1773.91 3.67604 -1.24456 0
M  V30 19137 H 1772.01 3.52186 1.21638 0
M  V30 19138 H 1772.13 4.78764 -0.179368 0
M  V30 19139 H 1770.49 2.547 0.00140775 0
M  V30 19140 H 1771.27 3.03957 -1.59578 0
M  V30 19141 N 1773.72 0.287581 1.54954 0
M  V30 19142 C 1774.97 -0.326093 2.00161 0
M  V30 19143 C 1775.3 -1.54564 1.17574 0
M  V30 19144 O 1774.57 -1.92901 0.248859 0
M  V30 19145 C 1774.86 -0.695974 3.5331 0
M  V30 19146 C 1774.71 0.531783 4.46645 0
M  V30 19147 C 1776.03 -1.52767 4.12735 0
M  V30 19148 H 1773.15 -0.117051 0.727646 0
M  V30 19149 H 1775.79 0.39701 1.85806 0
M  V30 19150 H 1773.94 -1.31205 3.65674 0
M  V30 19151 H 1775.61 1.17032 4.46208 0
M  V30 19152 H 1773.86 1.16754 4.17793 0
M  V30 19153 H 1774.53 0.229034 5.51525 0
M  V30 19154 H 1777 -1.00724 4.03725 0
M  V30 19155 H 1775.88 -1.75527 5.20078 0
M  V30 19156 H 1776.14 -2.51267 3.63755 0
M  V30 19157 N 1775.2 -1.57593 0.0150662 0
M  V30 19158 C 1776.45 -1.90392 -0.66587 0
M  V30 19159 C 1776.76 -0.891694 -1.74092 0
M  V30 19160 O 1777.97 -1.11043 -2.47753 0
M  V30 19161 C 1776.42 -3.38026 -1.23558 0
M  V30 19162 C 1776.03 -4.47577 -0.19455 0
M  V30 19163 C 1777.77 -3.79913 -1.89384 0
M  V30 19164 C 1775.68 -5.86299 -0.7751 0
M  V30 19165 H 1774.61 -0.710474 -0.252473 0
M  V30 19166 H 1777.26 -1.83334 0.0780739 0
M  V30 19167 H 1775.64 -3.3997 -2.03068 0
M  V30 19168 H 1776.82 -4.57172 0.577061 0
M  V30 19169 H 1775.13 -4.14805 0.364134 0
M  V30 19170 H 1777.73 -4.809 -2.3375 0
M  V30 19171 H 1778.07 -3.14225 -2.73072 0
M  V30 19172 H 1778.61 -3.80333 -1.16585 0
M  V30 19173 H 1775.35 -6.55496 0.0233354 0
M  V30 19174 H 1774.87 -5.80338 -1.51552 0
M  V30 19175 H 1776.54 -6.3443 -1.26915 0
M  V30 19176 N 1776.68 0.257904 -1.55475 0
M  V30 19177 C 1777.93 0.985329 -1.75995 0
M  V30 19178 C 1778.24 1.86898 -0.57694 0
M  V30 19179 O 1779.44 2.63233 -0.664893 0
M  V30 19180 C 1777.9 1.80195 -3.11541 0
M  V30 19181 C 1777.51 0.966227 -4.37456 0
M  V30 19182 C 1779.25 2.52277 -3.41404 0
M  V30 19183 C 1777.16 1.7781 -5.64037 0
M  V30 19184 H 1776.09 0.371623 -0.656058 0
M  V30 19185 H 1778.74 0.240396 -1.81919 0
M  V30 19186 H 1777.12 2.58841 -2.99695 0
M  V30 19187 H 1778.3 0.222865 -4.60261 0
M  V30 19188 H 1776.61 0.359255 -4.14847 0
M  V30 19189 H 1779.21 3.13451 -4.33189 0
M  V30 19190 H 1779.55 3.23333 -2.62224 0
M  V30 19191 H 1780.08 1.80649 -3.54416 0
M  V30 19192 H 1776.82 1.11147 -6.46008 0
M  V30 19193 H 1776.34 2.49703 -5.45352 0
M  V30 19194 H 1778.02 2.348 -6.02891 0
M  V30 19195 N 1778.15 1.48666 0.52309 0
M  V30 19196 C 1779.08 1.666 1.63605 0
M  V30 19197 C 1780.07 0.514803 1.62123 0
M  V30 19198 O 1781.25 0.748138 1.79211 0
M  V30 19199 C 1778.38 1.71199 3.02172 0
M  V30 19200 C 1777.33 2.85888 3.18515 0
M  V30 19201 C 1776.66 2.75582 4.58213 0
M  V30 19202 C 1777.96 4.27104 3.00631 0
M  V30 19203 H 1779.65 2.59776 1.48851 0
M  V30 19204 H 1777.2 1.25014 0.714667 0
M  V30 19205 H 1779.15 1.82333 3.79911 0
M  V30 19206 H 1777.88 0.746066 3.17964 0
M  V30 19207 H 1776.54 2.7432 2.43195 0
M  V30 19208 H 1776.18 1.76944 4.7085 0
M  V30 19209 H 1775.88 3.52545 4.70091 0
M  V30 19210 H 1777.41 2.88693 5.38041 0
M  V30 19211 H 1778.82 4.3947 3.68157 0
M  V30 19212 H 1777.22 5.05119 3.23999 0
M  V30 19213 H 1778.29 4.43087 1.96982 0
M  V30 19214 N 1779.63 -0.772489 1.37369 0
M  V30 19215 C 1780.91 -1.52029 1.23072 0
M  V30 19216 C 1781.29 -2.10365 -0.176011 0
M  V30 19217 O 1780.64 -1.95459 -1.18356 0
M  V30 19218 C 1780.85 -2.60176 2.32614 0
M  V30 19219 C 1782.2 -3.27599 2.70118 0
M  V30 19220 O 1783.22 -2.70471 2.31785 0
M  V30 19221 O 1782.08 -4.30883 3.36158 0
M  V30 19222 H 1779.17 -0.673306 0.480196 0
M  V30 19223 H 1781.72 -0.809518 1.49147 0
M  V30 19224 H 1780.49 -2.15185 3.2682 0
M  V30 19225 H 1780.11 -3.38855 2.07998 0
M  V30 19226 N 1781.11 -1.21927 -0.998575 0
M  V30 19227 C 1782.02 -1.00049 -2.12197 0
M  V30 19228 C 1783.04 0.0494414 -1.7393 0
M  V30 19229 O 1784.21 -0.142033 -2.00899 0
M  V30 19230 C 1781.28 -0.574871 -3.41901 0
M  V30 19231 C 1780.34 -1.69776 -3.94303 0
M  V30 19232 C 1779.57 -1.29236 -5.17816 0
M  V30 19233 O 1779.79 -0.168709 -5.7015 0
M  V30 19234 O 1778.73 -2.10671 -5.63827 0
M  V30 19235 H 1782.55 -1.94154 -2.33534 0
M  V30 19236 H 1780.14 -1.00472 -1.10571 0
M  V30 19237 H 1782.02 -0.347603 -4.19964 0
M  V30 19238 H 1780.7 0.337389 -3.21937 0
M  V30 19239 H 1779.6 -1.9795 -3.17438 0
M  V30 19240 H 1780.94 -2.58768 -4.18688 0
M  V30 19241 N 1782.59 1.19452 -1.02805 0
M  V30 19242 C 1783.84 1.88439 -0.719284 0
M  V30 19243 C 1784.15 1.80435 0.755143 0
M  V30 19244 O 1785.36 2.44664 1.17693 0
M  V30 19245 C 1783.81 3.38001 -1.23625 0
M  V30 19246 C 1783.42 3.54564 -2.7384 0
M  V30 19247 C 1785.16 4.1247 -1.00343 0
M  V30 19248 C 1783.07 4.98016 -3.18958 0
M  V30 19249 H 1782 0.705762 -0.265359 0
M  V30 19250 H 1784.65 1.35058 -1.24224 0
M  V30 19251 H 1783.03 3.90774 -0.641211 0
M  V30 19252 H 1784.21 3.12124 -3.38991 0
M  V30 19253 H 1782.52 2.93484 -2.95392 0
M  V30 19254 H 1785.12 5.18257 -1.31581 0
M  V30 19255 H 1785.46 4.16257 0.0597873 0
M  V30 19256 H 1786 3.65832 -1.56243 0
M  V30 19257 H 1782.74 4.9939 -4.24605 0
M  V30 19258 H 1782.26 5.41221 -2.58534 0
M  V30 19259 H 1783.93 5.66664 -3.12252 0
M  V30 19260 N 1784.07 0.805805 1.35442 0
M  V30 19261 C 1785.32 0.382303 1.98044 0
M  V30 19262 C 1785.63 -1.05602 1.64644 0
M  V30 19263 O 1786.83 -1.5826 2.20604 0
M  V30 19264 C 1785.29 0.632619 3.54296 0
M  V30 19265 C 1784.9 2.08344 3.96607 0
M  V30 19266 C 1786.64 0.274435 4.23612 0
M  V30 19267 C 1784.55 2.27954 5.45702 0
M  V30 19268 H 1783.48 0.13921 0.741037 0
M  V30 19269 H 1786.13 0.989752 1.54519 0
M  V30 19270 H 1784.51 -0.0447699 3.95975 0
M  V30 19271 H 1785.69 2.79857 3.66083 0
M  V30 19272 H 1784 2.40142 3.40178 0
M  V30 19273 H 1786.6 0.399019 5.33209 0
M  V30 19274 H 1786.94 -0.779292 4.08941 0
M  V30 19275 H 1787.47 0.90571 3.87352 0
M  V30 19276 H 1784.21 3.3177 5.6534 0
M  V30 19277 H 1783.73 1.60965 5.77798 0
M  V30 19278 H 1785.41 2.09469 6.12153 0
M  V30 19279 N 1785.54 -1.47344 0.559239 0
M  V30 19280 C 1786.49 -2.30039 -0.187317 0
M  V30 19281 C 1787.46 -1.39186 -0.906443 0
M  V30 19282 O 1788.65 -1.68147 -0.901739 0
M  V30 19283 C 1785.79 -3.2319 -1.21004 0
M  V30 19284 C 1784.9 -4.29134 -0.496776 0
M  V30 19285 C 1784.03 -5.09435 -1.50497 0
M  V30 19286 C 1783.07 -6.07151 -0.776794 0
M  V30 19287 N 1782.21 -6.80404 -1.73192 0
M  V30 19288 H 1787.05 -2.93357 0.523978 0
M  V30 19289 H 1784.59 -1.44597 0.270225 0
M  V30 19290 H 1786.55 -3.75621 -1.81561 0
M  V30 19291 H 1785.18 -2.61732 -1.88935 0
M  V30 19292 H 1784.23 -3.79744 0.223359 0
M  V30 19293 H 1785.54 -4.98746 0.0735731 0
M  V30 19294 H 1784.69 -5.66026 -2.18402 0
M  V30 19295 H 1783.43 -4.3973 -2.10924 0
M  V30 19296 H 1782.44 -5.49736 -0.0838382 0
M  V30 19297 H 1783.66 -6.78866 -0.178239 0
M  V30 19298 H 1781.61 -6.13427 -2.32472 0
M  V30 19299 H 1781.53 -7.46193 -1.21377 0
M  V30 19300 H 1782.79 -7.41567 -2.40204 0
M  V30 19301 N 1787.02 -0.295795 -1.54799 0
M  V30 19302 C 1788.27 0.315007 -2.00035 0
M  V30 19303 C 1788.6 1.54295 -1.1842 0
M  V30 19304 O 1787.85 1.94134 -0.247101 0
M  V30 19305 C 1788.15 0.721225 -3.50047 0
M  V30 19306 C 1787.82 -0.404395 -4.49083 0
M  V30 19307 C 1786.48 -0.713419 -4.75882 0
M  V30 19308 C 1788.83 -1.16185 -5.08085 0
M  V30 19309 C 1786.16 -1.78311 -5.58947 0
M  V30 19310 C 1788.51 -2.22142 -5.92314 0
M  V30 19311 C 1787.18 -2.53657 -6.17426 0
M  V30 19312 H 1786.45 0.115269 -0.73198 0
M  V30 19313 H 1789.09 -0.41381 -1.86976 0
M  V30 19314 H 1787.4 1.53005 -3.60689 0
M  V30 19315 H 1789.09 1.20491 -3.82469 0
M  V30 19316 H 1785.68 -0.153436 -4.28325 0
M  V30 19317 H 1789.87 -0.936365 -4.87387 0
M  V30 19318 H 1785.12 -2.03206 -5.76643 0
M  V30 19319 H 1789.3 -2.81296 -6.3706 0
M  V30 19320 H 1786.93 -3.36676 -6.81581 0
M  V30 19321 N 1788.5 1.57583 -0.0234236 0
M  V30 19322 C 1789.73 1.95577 0.66583 0
M  V30 19323 C 1790.14 0.898193 1.66521 0
M  V30 19324 O 1789.48 -0.129109 1.83246 0
M  V30 19325 C 1789.54 3.29685 1.43345 0
M  V30 19326 C 1789.21 4.53136 0.593048 0
M  V30 19327 C 1790.21 5.19739 -0.129251 0
M  V30 19328 C 1787.89 4.99473 0.532125 0
M  V30 19329 C 1789.88 6.30997 -0.901206 0
M  V30 19330 C 1787.57 6.10615 -0.24354 0
M  V30 19331 C 1788.57 6.76235 -0.958917 0
M  V30 19332 O 1788.26 7.85243 -1.72188 0
M  V30 19333 H 1787.99 0.649084 0.188853 0
M  V30 19334 H 1790.54 2.05253 -0.0777525 0
M  V30 19335 H 1788.77 3.16484 2.22205 0
M  V30 19336 H 1790.46 3.52623 2.01027 0
M  V30 19337 H 1791.23 4.84914 -0.0914812 0
M  V30 19338 H 1787.11 4.48207 1.0785 0
M  V30 19339 H 1790.65 6.82149 -1.46011 0
M  V30 19340 H 1786.55 6.44879 -0.283046 0
M  V30 19341 H 1787.32 8.0188 -1.64105 0
M  V30 19342 N 1789.98 -0.249655 1.5561 0
M  V30 19343 C 1790.94 -1.29242 1.89286 0
M  V30 19344 C 1791.94 -1.41214 0.769104 0
M  V30 19345 O 1793.13 -1.39962 1.03712 0
M  V30 19346 C 1790.26 -2.67053 2.11885 0
M  V30 19347 H 1791.46 -1.00601 2.82523 0
M  V30 19348 H 1789.01 -0.488819 1.4846 0
M  V30 19349 H 1789.75 -3.00838 1.21107 0
M  V30 19350 H 1789.53 -2.59745 2.93726 0
M  V30 19351 H 1791.02 -3.42353 2.39132 0
M  V30 19352 N 1791.46 -1.48941 -0.515198 0
M  V30 19353 C 1792.4 -1.64561 -1.61828 0
M  V30 19354 C 1793.37 -0.487323 -1.5879 0
M  V30 19355 O 1794.56 -0.712626 -1.76992 0
M  V30 19356 C 1791.7 -1.70506 -3.00036 0
M  V30 19357 C 1790.81 -2.97543 -3.13197 0
M  V30 19358 C 1789.95 -2.94555 -4.42053 0
M  V30 19359 C 1788.99 -4.16232 -4.48795 0
M  V30 19360 N 1788.12 -4.11236 -5.6906 0
M  V30 19361 H 1792.96 -2.58754 -1.47818 0
M  V30 19362 H 1790.5 -1.28307 -0.719423 0
M  V30 19363 H 1792.46 -1.71934 -3.80125 0
M  V30 19364 H 1791.09 -0.797907 -3.12783 0
M  V30 19365 H 1790.14 -3.05792 -2.26264 0
M  V30 19366 H 1791.45 -3.87532 -3.14039 0
M  V30 19367 H 1790.61 -2.94466 -5.30447 0
M  V30 19368 H 1789.35 -2.0232 -4.43754 0
M  V30 19369 H 1788.35 -4.1658 -3.58805 0
M  V30 19370 H 1789.58 -5.09644 -4.48821 0
M  V30 19371 H 1787.52 -3.2183 -5.7163 0
M  V30 19372 H 1787.44 -4.94945 -5.71459 0
M  V30 19373 H 1788.71 -4.15229 -6.59701 0
M  V30 19374 N 1792.94 0.765193 -1.37777 0
M  V30 19375 C 1794.35 1.06666 -1.1872 0
M  V30 19376 C 1794.55 2.01481 -0.0278636 0
M  V30 19377 O 1793.61 2.44514 0.630006 0
M  V30 19378 C 1794.92 1.65787 -2.50868 0
M  V30 19379 C 1796.47 1.78014 -2.57449 0
M  V30 19380 C 1796.94 2.40548 -3.89744 0
M  V30 19381 N 1798.43 2.47992 -3.91221 0
M  V30 19382 C 1799.17 2.97245 -4.9034 0
M  V30 19383 N 1798.67 3.46621 -5.99855 0
M  V30 19384 N 1800.46 2.96179 -4.77739 0
M  V30 19385 H 1792.61 0.135775 -2.11966 0
M  V30 19386 H 1794.87 0.122863 -0.940005 0
M  V30 19387 H 1794.58 1.03588 -3.36099 0
M  V30 19388 H 1794.45 2.65 -2.6843 0
M  V30 19389 H 1796.84 2.39345 -1.72621 0
M  V30 19390 H 1796.92 0.775388 -2.43765 0
M  V30 19391 H 1796.56 1.79855 -4.74989 0
M  V30 19392 H 1796.49 3.41643 -4.00734 0
M  V30 19393 H 1798.99 2.13056 -3.12114 0
M  V30 19394 H 1799.3 3.82625 -6.7143 0
M  V30 19395 H 1797.64 3.44709 -6.0349 0
M  V30 19396 H 1800.83 2.56909 -3.913 0
M  V30 19397 H 1801.01 3.34253 -5.55139 0
M  V30 19398 N 1794.41 1.22455 0.992094 0
M  V30 19399 C 1795.36 0.99534 2.08235 0
M  V30 19400 C 1796.33 -0.0832064 1.65891 0
M  V30 19401 O 1797.52 0.0665468 1.90684 0
M  V30 19402 C 1794.66 0.580055 3.4019 0
M  V30 19403 C 1793.77 1.72946 3.95871 0
M  V30 19404 C 1792.9 1.26208 5.15989 0
M  V30 19405 C 1791.94 2.38298 5.63809 0
M  V30 19406 N 1791.08 1.92602 6.75166 0
M  V30 19407 H 1795.92 1.92861 2.27175 0
M  V30 19408 H 1793.46 0.960948 1.11374 0
M  V30 19409 H 1795.41 0.320448 4.15968 0
M  V30 19410 H 1794.04 -0.316208 3.21248 0
M  V30 19411 H 1793.1 2.10337 3.16958 0
M  V30 19412 H 1794.41 2.57257 4.27341 0
M  V30 19413 H 1793.56 0.959904 5.99058 0
M  V30 19414 H 1792.3 0.389184 4.86145 0
M  V30 19415 H 1791.31 2.69304 4.79328 0
M  V30 19416 H 1792.53 3.26105 5.95678 0
M  V30 19417 H 1790.48 1.07675 6.47103 0
M  V30 19418 H 1790.39 2.70478 7.05959 0
M  V30 19419 H 1791.66 1.65455 7.61738 0
M  V30 19420 N 1795.89 -1.18905 1.03437 0
M  V30 19421 C 1796.82 -2.24539 0.640669 0
M  V30 19422 C 1797.8 -1.66396 -0.353024 0
M  V30 19423 O 1798.99 -1.92779 -0.234522 0
M  V30 19424 C 1796.12 -3.473 -0.00367731 0
M  V30 19425 C 1795.07 -4.18151 0.912881 0
M  V30 19426 C 1794.4 -5.34534 0.133347 0
M  V30 19427 C 1795.7 -4.72342 2.22913 0
M  V30 19428 H 1797.39 -2.57726 1.52374 0
M  V30 19429 H 1794.94 -1.23883 0.734098 0
M  V30 19430 H 1796.89 -4.20396 -0.290783 0
M  V30 19431 H 1795.61 -3.13328 -0.921578 0
M  V30 19432 H 1794.27 -3.46945 1.18427 0
M  V30 19433 H 1793.92 -4.96809 -0.786762 0
M  V30 19434 H 1793.62 -5.82872 0.743905 0
M  V30 19435 H 1795.15 -6.10423 -0.146889 0
M  V30 19436 H 1796.56 -5.37165 2.00317 0
M  V30 19437 H 1794.96 -5.31189 2.79209 0
M  V30 19438 H 1796.03 -3.90108 2.87999 0
M  V30 19439 N 1797.37 -0.812977 -1.35013 0
M  V30 19440 C 1798.32 -0.225816 -2.29693 0
M  V30 19441 C 1799.29 0.643767 -1.53117 0
M  V30 19442 O 1800.47 0.587505 -1.8153 0
M  V30 19443 C 1797.61 0.614444 -3.39586 0
M  V30 19444 C 1796.72 -0.276281 -4.31116 0
M  V30 19445 C 1795.86 0.572595 -5.28105 0
M  V30 19446 C 1794.9 -0.318133 -6.11273 0
M  V30 19447 N 1794.04 0.491086 -7.0038 0
M  V30 19448 H 1798.88 -1.03861 -2.79315 0
M  V30 19449 H 1796.41 -0.523695 -1.37462 0
M  V30 19450 H 1798.37 1.11683 -4.01973 0
M  V30 19451 H 1797 1.39244 -2.91223 0
M  V30 19452 H 1796.05 -0.89682 -3.69677 0
M  V30 19453 H 1797.36 -0.961601 -4.89443 0
M  V30 19454 H 1796.52 1.13986 -5.95896 0
M  V30 19455 H 1795.26 1.29146 -4.7029 0
M  V30 19456 H 1794.26 -0.897622 -5.42423 0
M  V30 19457 H 1795.49 -1.03496 -6.71167 0
M  V30 19458 H 1793.43 1.19381 -6.45046 0
M  V30 19459 H 1793.35 -0.136054 -7.55878 0
M  V30 19460 H 1794.62 1.04143 -7.72512 0
M  V30 19461 N 1798.85 1.47045 -0.567045 0
M  V30 19462 C 1799.76 2.33924 0.177998 0
M  V30 19463 C 1800.77 1.48797 0.901967 0
M  V30 19464 O 1801.95 1.81704 0.868662 0
M  V30 19465 C 1799.01 3.25687 1.18865 0
M  V30 19466 C 1798.08 4.26708 0.471049 0
M  V30 19467 C 1797.31 5.14087 1.43355 0
M  V30 19468 O 1797.53 5.041 2.66907 0
M  V30 19469 O 1796.47 5.94313 0.952674 0
M  V30 19470 H 1800.29 2.98952 -0.534907 0
M  V30 19471 H 1797.88 1.45765 -0.327571 0
M  V30 19472 H 1799.76 3.82342 1.7718 0
M  V30 19473 H 1798.43 2.63274 1.8833 0
M  V30 19474 H 1797.34 3.73785 -0.153539 0
M  V30 19475 H 1798.67 4.91862 -0.182337 0
M  V30 19476 N 1800.33 0.304 1.5464 0
M  V30 19477 C 1801.24 -0.580159 2.27313 0
M  V30 19478 C 1802.25 -1.14588 1.30941 0
M  V30 19479 O 1803.43 -1.17002 1.63928 0
M  V30 19480 C 1800.49 -1.73437 3.00201 0
M  V30 19481 C 1799.55 -1.20243 4.12116 0
M  V30 19482 C 1798.79 -2.30164 4.81519 0
M  V30 19483 O 1799.01 -3.50123 4.503 0
M  V30 19484 O 1797.94 -1.96686 5.68857 0
M  V30 19485 H 1801.77 0.00944552 3.03699 0
M  V30 19486 H 1799.35 0.0703565 1.49234 0
M  V30 19487 H 1801.24 -2.40677 3.45908 0
M  V30 19488 H 1799.91 -2.31053 2.26708 0
M  V30 19489 H 1798.82 -0.495679 3.70802 0
M  V30 19490 H 1800.15 -0.67167 4.87596 0
M  V30 19491 N 1801.8 -1.57568 0.0317802 0
M  V30 19492 C 1802.74 -2.07288 -0.977981 0
M  V30 19493 C 1803.75 -0.99682 -1.28714 0
M  V30 19494 O 1804.94 -1.27295 -1.25133 0
M  V30 19495 C 1802.04 -2.48469 -2.3047 0
M  V30 19496 C 1801.21 -3.79185 -2.18031 0
M  V30 19497 C 1800.27 -4.06888 -3.33659 0
M  V30 19498 O 1799.3 -4.771 -3.10426 0
M  V30 19499 N 1800.5 -3.57271 -4.57534 0
M  V30 19500 H 1803.26 -2.9454 -0.553743 0
M  V30 19501 H 1800.82 -1.61157 -0.154917 0
M  V30 19502 H 1802.82 -2.64092 -3.06655 0
M  V30 19503 H 1801.39 -1.66568 -2.64526 0
M  V30 19504 H 1800.61 -3.73333 -1.26556 0
M  V30 19505 H 1801.89 -4.64821 -2.06926 0
M  V30 19506 H 1801.29 -3.00474 -4.79303 0
M  V30 19507 H 1799.85 -3.78168 -5.30878 0
M  V30 19508 N 1803.28 0.241399 -1.5574 0
M  V30 19509 C 1804.7 0.590176 -1.48287 0
M  V30 19510 C 1804.9 1.8808 -0.723052 0
M  V30 19511 O 1803.95 2.51213 -0.25464 0
M  V30 19512 C 1805.27 0.687804 -2.92728 0
M  V30 19513 C 1806.82 0.779763 -3.03131 0
M  V30 19514 C 1807.29 0.908905 -4.48891 0
M  V30 19515 N 1808.78 0.973636 -4.52852 0
M  V30 19516 C 1809.52 1.09292 -5.62888 0
M  V30 19517 N 1809.01 1.1774 -6.82722 0
M  V30 19518 N 1810.81 1.12651 -5.50696 0
M  V30 19519 H 1802.96 -0.605781 -2.03578 0
M  V30 19520 H 1805.22 -0.209862 -0.924479 0
M  V30 19521 H 1804.93 -0.190608 -3.51183 0
M  V30 19522 H 1804.8 1.55794 -3.43523 0
M  V30 19523 H 1807.19 1.64863 -2.44754 0
M  V30 19524 H 1807.27 -0.115641 -2.55538 0
M  V30 19525 H 1806.91 0.0445788 -5.0788 0
M  V30 19526 H 1806.84 1.81943 -4.9417 0
M  V30 19527 H 1809.33 0.919469 -3.66544 0
M  V30 19528 H 1809.65 1.26764 -7.62332 0
M  V30 19529 H 1807.99 1.14688 -6.85472 0
M  V30 19530 H 1811.18 1.05703 -4.56009 0
M  V30 19531 H 1811.35 1.21602 -6.36488 0
M  V30 19532 N 1804.76 1.49212 0.507292 0
M  V30 19533 C 1805.99 1.6208 1.28599 0
M  V30 19534 C 1806.4 0.289745 1.86563 0
M  V30 19535 O 1805.76 -0.723987 1.67525 0
M  V30 19536 C 1805.81 2.68482 2.42074 0
M  V30 19537 O 1805.53 3.96424 1.86493 0
M  V30 19538 C 1807.03 2.91997 3.33546 0
M  V30 19539 H 1804.25 0.545831 0.390268 0
M  V30 19540 H 1806.8 1.95201 0.609652 0
M  V30 19541 H 1804.95 2.38156 3.05549 0
M  V30 19542 H 1805.37 4.54983 2.60942 0
M  V30 19543 H 1806.84 3.70195 4.09463 0
M  V30 19544 H 1807.32 2.01673 3.9016 0
M  V30 19545 H 1807.92 3.23715 2.75842 0
M  V30 19546 N 1806.24 -0.757876 1.38181 0
M  V30 19547 C 1807.19 -1.87152 1.35065 0
M  V30 19548 C 1808.16 -1.64717 0.213892 0
M  V30 19549 O 1809.34 -1.86442 0.405448 0
M  V30 19550 C 1806.48 -3.24398 1.17728 0
M  V30 19551 C 1805.59 -3.58694 2.40754 0
M  V30 19552 C 1804.73 -4.85221 2.16181 0
M  V30 19553 C 1803.77 -5.1229 3.35001 0
M  V30 19554 N 1802.9 -6.3001 3.0989 0
M  V30 19555 H 1807.74 -1.89151 2.30274 0
M  V30 19556 H 1805.28 -0.924571 1.14412 0
M  V30 19557 H 1807.24 -4.0359 1.05694 0
M  V30 19558 H 1805.87 -3.21738 0.261606 0
M  V30 19559 H 1804.92 -2.74379 2.63477 0
M  V30 19560 H 1806.23 -3.74628 3.29325 0
M  V30 19561 H 1805.39 -5.72346 2.01258 0
M  V30 19562 H 1804.13 -4.71417 1.24969 0
M  V30 19563 H 1803.13 -4.23635 3.50448 0
M  V30 19564 H 1804.36 -5.27993 4.27083 0
M  V30 19565 H 1802.3 -6.17538 2.21321 0
M  V30 19566 H 1802.22 -6.46425 3.92009 0
M  V30 19567 H 1803.49 -7.20035 2.98613 0
M  V30 19568 N 1807.72 -1.22979 -0.985586 0
M  V30 19569 C 1808.66 -1.00637 -2.07704 0
M  V30 19570 C 1809.63 0.0744076 -1.65933 0
M  V30 19571 O 1810.82 -0.0766583 -1.90646 0
M  V30 19572 C 1807.96 -0.598088 -3.39878 0
M  V30 19573 C 1807.07 -1.75043 -3.94948 0
M  V30 19574 C 1806.21 -1.28943 -5.15313 0
M  V30 19575 C 1805.25 -2.41285 -5.62537 0
M  V30 19576 N 1804.38 -1.9618 -6.74135 0
M  V30 19577 H 1809.22 -1.94063 -2.26149 0
M  V30 19578 H 1806.76 -0.966841 -1.10863 0
M  V30 19579 H 1808.72 -0.342503 -4.15792 0
M  V30 19580 H 1807.35 0.299167 -3.21411 0
M  V30 19581 H 1806.4 -2.12015 -3.15838 0
M  V30 19582 H 1807.71 -2.5952 -4.25971 0
M  V30 19583 H 1806.87 -0.99166 -5.98541 0
M  V30 19584 H 1805.6 -0.41496 -4.85931 0
M  V30 19585 H 1804.61 -2.71842 -4.77893 0
M  V30 19586 H 1805.83 -3.2926 -5.9394 0
M  V30 19587 H 1803.78 -1.11105 -6.46523 0
M  V30 19588 H 1803.7 -2.74219 -7.04514 0
M  V30 19589 H 1804.97 -1.69492 -7.6085 0
M  V30 19590 N 1809.19 1.18355 -1.04066 0
M  V30 19591 C 1810.44 1.87665 -0.73923 0
M  V30 19592 C 1810.76 1.81226 0.735963 0
M  V30 19593 O 1811.96 2.45899 1.15091 0
M  V30 19594 C 1810.42 3.36671 -1.27203 0
M  V30 19595 C 1810.03 3.5164 -2.77585 0
M  V30 19596 C 1811.77 4.11383 -1.04712 0
M  V30 19597 C 1809.68 4.94605 -3.24222 0
M  V30 19598 H 1808.61 0.702908 -0.27283 0
M  V30 19599 H 1811.26 1.33733 -1.25649 0
M  V30 19600 H 1809.64 3.90072 -0.682621 0
M  V30 19601 H 1810.81 3.08511 -3.42283 0
M  V30 19602 H 1809.13 2.90334 -2.98488 0
M  V30 19603 H 1811.73 5.16832 -1.37071 0
M  V30 19604 H 1812.07 4.16297 0.0156344 0
M  V30 19605 H 1812.6 3.64154 -1.60114 0
M  V30 19606 H 1809.34 4.94859 -4.29878 0
M  V30 19607 H 1808.86 5.38449 -2.6426 0
M  V30 19608 H 1810.54 5.6332 -3.18245 0
M  V30 19609 N 1810.67 0.820125 1.3458 0
M  V30 19610 C 1811.62 0.237994 2.2957 0
M  V30 19611 C 1812.59 -0.635637 1.53456 0
M  V30 19612 O 1813.77 -0.57787 1.81839 0
M  V30 19613 C 1810.91 -0.596426 3.39907 0
M  V30 19614 C 1810.03 0.29914 4.30963 0
M  V30 19615 C 1809.16 -0.54458 5.28401 0
M  V30 19616 C 1808.2 0.350546 6.11095 0
M  V30 19617 N 1807.34 -0.453936 7.00631 0
M  V30 19618 H 1812.18 1.0534 2.7876 0
M  V30 19619 H 1809.72 0.530977 1.37183 0
M  V30 19620 H 1811.67 -1.0955 4.0256 0
M  V30 19621 H 1810.3 -1.37697 2.91958 0
M  V30 19622 H 1809.36 0.916412 3.69196 0
M  V30 19623 H 1810.67 0.987544 4.88926 0
M  V30 19624 H 1809.82 -1.10825 5.96492 0
M  V30 19625 H 1808.56 -1.2665 4.70968 0
M  V30 19626 H 1807.57 0.926375 5.41939 0
M  V30 19627 H 1808.79 1.07054 6.70609 0
M  V30 19628 H 1806.74 -1.15958 6.4567 0
M  V30 19629 H 1806.65 0.176138 7.55795 0
M  V30 19630 H 1807.92 -1.00044 7.73053 0
M  V30 19631 N 1812.15 -1.46743 0.574835 0
M  V30 19632 C 1813.4 -2.01625 0.0551724 0
M  V30 19633 C 1813.71 -1.4528 -1.3097 0
M  V30 19634 O 1814.92 -1.91932 -1.92026 0
M  V30 19635 C 1813.37 -3.59868 0.0480708 0
M  V30 19636 C 1812.98 -4.25207 1.41078 0
M  V30 19637 C 1814.73 -4.22436 -0.41806 0
M  V30 19638 C 1812.63 -5.75507 1.36183 0
M  V30 19639 H 1811.56 -0.753812 0.0168558 0
M  V30 19640 H 1814.21 -1.68557 0.725313 0
M  V30 19641 H 1812.6 -3.89976 -0.688076 0
M  V30 19642 H 1813.77 -4.06718 2.16603 0
M  V30 19643 H 1812.09 -3.747 1.81628 0
M  V30 19644 H 1814.68 -5.32601 -0.473353 0
M  V30 19645 H 1815.03 -3.90826 -1.43391 0
M  V30 19646 H 1815.56 -3.96925 0.263775 0
M  V30 19647 H 1812.3 -6.11765 2.35423 0
M  V30 19648 H 1811.82 -5.96282 0.648655 0
M  V30 19649 H 1813.5 -6.38068 1.07137 0
M  V30 19650 N 1813.63 -0.312197 -1.54477 0
M  V30 19651 C 1814.91 0.347462 -1.92489 0
M  V30 19652 C 1815.29 1.70797 -1.24063 0
M  V30 19653 O 1814.63 2.25313 -0.380296 0
M  V30 19654 C 1814.84 0.450992 -3.46074 0
M  V30 19655 C 1816.19 0.716618 -4.18509 0
M  V30 19656 O 1817.22 0.534364 -3.52169 0
M  V30 19657 O 1816.07 1.06744 -5.35974 0
M  V30 19658 H 1813.17 0.196248 -0.803378 0
M  V30 19659 H 1815.71 -0.361078 -1.65814 0
M  V30 19660 H 1814.49 -0.504982 -3.88028 0
M  V30 19661 H 1814.11 1.20756 -3.78819 0
M  V30 19662 O 1815.15 1.60502 -0.179234 0
M  V30 19663 H 1815.84 1.89331 0.409071 0
M  V30 END ATOM
M  V30 BEGIN BOND
M  V30 END BOND
M  V30 END CTAB
M  END
$$$$
